data_PCOD9268270
_publ_section_title
;
Structure prediction by ZEFSAII (Michael W. Deem and Ramdas Pophale) SiO2 
 PCOD9268270
Probable space group: C 2/C
;
_chemical_formula_sum "Si O2"
_cell_formula_units_Z 52
_cell_length_a 14.177512
_cell_length_b 21.105102
_cell_length_c 9.613021
_cell_angle_alpha 90.000000
_cell_angle_beta 46.396971
_cell_angle_gamma 90.000000
_cell_volume 2082.893912
_symmetry_space_group_name_H-M "C 2/C"
_symmetry_group_IT_number 15
_symmetry_cell_setting 'monoclinic'
loop_
_space_group_symop_operation_xyz
x,y,z
-x,y,1/2-z
-x,-y,-z
x,-y,1/2+z
1/2+x,1/2+y,z
1/2-x,1/2+y,1/2-z
1/2-x,1/2-y,-z
1/2+x,1/2-y,1/2+z
loop_
_atom_site_type_symbol
_atom_site_label
_atom_site_fract_x
_atom_site_fract_y
_atom_site_fract_z
Si Si1 0.392333 0.705217 0.470561
Si Si2 0.029372 0.085876 0.384198
Si Si3 0.288769 0.484088 0.268906
Si Si4 0.747965 0.376944 0.007989
Si Si5 0.583850 0.815261 0.891088
Si Si6 0.500000 0.287070 0.250000
Si Si7 0.337570 0.876427 0.226303
O O1 0.500000 0.727088 0.250000
O O2 0.490732 0.657776 0.453894
O O3 0.332024 0.767819 0.599616
O O4 0.270064 0.657761 0.567784
O O5 0.000000 0.076051 0.250000
O O6 0.921342 0.049382 0.582367
O O7 0.171699 0.057290 0.268518
O O8 0.270727 0.548341 0.939343
O O9 0.182648 0.452151 0.274421
O O10 0.846437 0.362168 0.785294
O O11 0.622313 0.334052 0.110014
O O12 0.799464 0.354420 0.107092
O O13 0.518271 0.761860 0.858860
O O14 0.483651 0.853312 0.089648
#
# Coordination Sequence:
#
# PCOD9268270 Si02
#       7
#     8   8   8   8   8   4   8
#     4  10  21  35  50  80 116 158 198 228 287 347
#     4   9  16  31  52  71 112 148 184 241 287 331
#     4   8  17  31  47  78 108 137 190 234 288 335
#     4  10  20  30  48  84 111 147 184 238 300 339
#     4  12  19  32  53  77 120 153 180 233 290 358
#     4  12  16  26  48  72 114 136 178 234 288 332
#     4   9  18  33  50  78 112 148 185 235 288 349
#
# _framework density 24.965267000000001
#
# number of rings (size 3 to 8) (size 9 to 14) (size 15 to 20)
#    0.923    1.231    3.077    1.385    1.077    0.615 
#    0.000    0.000    0.000    0.000    0.000   17.231 
#    4.615    0.000    0.000    0.000    0.000    0.000 
#
# Total GULP energy -144780.624112 kJ/mol
# GULP energy per Si atom -5568.485543 kJ/mol
# Density = 2.490844 g / cm^3
# Si number density = 24.965267 Si / 1000 Ang^3
#
#
#
# Elastic Constant Matrix: (Units=GPa)
#
#
# Indices 1 2 3 4 5 6 
#
# 1 19.7294 18.9117 -8.8514 0.0000 3.2996 0.0000
# 2 18.9117 93.8821 37.8099 0.0000 -1.2716 0.0000
# 3 -8.8514 37.8099 115.2534 0.0000 1.5289 0.0000
# 4 0.0000 0.0000 0.0000 3.8793 0.0000 -6.1443
# 5 3.2996 -1.2716 1.5289 0.0000 24.4894 0.0000
# 6 0.0000 0.0000 0.0000 -6.1443 0.0000 16.1804
#
#
#
# Elastic Compliance Matrix: (Units=1/GPa)
#
#
# Indices 1 2 3 4 5 6 
#
# 1 0.079437 -0.021544 0.013336 0.000000 -0.012654 0.000000
# 2 -0.021544 0.018136 -0.007662 0.000000 0.004323 0.000000
# 3 0.013336 -0.007662 0.012253 0.000000 -0.002960 0.000000
# 4 0.000000 0.000000 0.000000 0.646805 0.000000 0.245618
# 5 -0.012654 0.004323 -0.002960 0.000000 0.042948 0.000000
# 6 0.000000 0.000000 0.000000 0.245618 0.000000 0.155075
#
#
# Mechanical properties :
#
#
# Convention : Reuss Voigt Hill
#
# Bulk Modulus (GPa) = 12.80624 36.06726 24.43675
# Shear Modulus (GPa) = 4.93865 20.97613 12.95739
#
# Velocity S-wave (km/s) = 1.40801 2.90179 2.28067
# Velocity P-wave (km/s) = 2.79000 5.07006 4.09204
#
# Compressibility (1/GPa) = 0.07808695
#
# Stress axis : x y z
#
# Youngs Moduli (GPa) = 12.58865 55.13995 81.60966
#
# Poissons Ratio (x) = 1.18795 -1.08837
# Poissons Ratio (y) = 0.27121 0.62525
# Poissons Ratio (z) = -0.16789 0.42246
#
# Static dielectric constant tensor:
#      x y z
#    x 2.110530 0.000000 0.065380 
#    y 0.000000 2.028390 0.000000 
#    z 0.065380 0.000000 2.006220 
# 
# From -- ./inp_files/107481.got.cif
#   From: 2010.05.17/outbox.cif.g08.bks.cpg/sg15_54_cif.got.tgz:107481.got - 2010.06.03 18:47:42.
