data_PCOD9268186
_publ_section_title
;
Structure prediction by ZEFSAII (Michael W. Deem and Ramdas Pophale) SiO2 
 PCOD9268186
Probable space group: C 2/C
;
_chemical_formula_sum "Si O2"
_cell_formula_units_Z 44
_cell_length_a 7.937322
_cell_length_b 22.315770
_cell_length_c 12.701552
_cell_angle_alpha 90.000000
_cell_angle_beta 118.049549
_cell_angle_gamma 90.000000
_cell_volume 1985.535645
_symmetry_space_group_name_H-M "C 2/C"
_symmetry_group_IT_number 15
_symmetry_cell_setting 'monoclinic'
loop_
_space_group_symop_operation_xyz
x,y,z
-x,y,1/2-z
-x,-y,-z
x,-y,1/2+z
1/2+x,1/2+y,z
1/2-x,1/2+y,1/2-z
1/2-x,1/2-y,-z
1/2+x,1/2-y,1/2+z
loop_
_atom_site_type_symbol
_atom_site_label
_atom_site_fract_x
_atom_site_fract_y
_atom_site_fract_z
Si Si1 0.866492 0.057372 0.467165
Si Si2 0.721015 0.587991 0.280847
Si Si3 0.878477 0.694723 0.419577
Si Si4 0.500000 0.105689 0.750000
Si Si5 0.551621 0.919490 0.034187
Si Si6 0.637094 0.327494 0.056721
O O1 0.750296 0.059578 0.324159
O O2 0.733928 0.055678 0.529605
O O3 0.987079 0.118937 0.506025
O O4 0.000000 0.000000 0.500000
O O5 0.500000 0.582283 0.250000
O O6 0.787536 0.657863 0.296182
O O7 0.861460 0.563273 0.412765
O O8 0.717360 0.687034 0.463385
O O9 0.927175 0.763444 0.417500
O O10 0.049252 0.653060 0.513747
O O11 0.468802 0.069519 0.848573
O O12 0.684398 0.146803 0.825201
#
# Coordination Sequence:
#
# PCOD9268186 Si02
#       6
#     8   8   8   4   8   8
#     4  12  25  44  65 101 142 187 236 284 346 423
#     4  10  19  43  69  96 130 181 235 280 350 407
#     4   8  19  37  69 100 128 184 228 290 345 410
#     4  10  20  42  62  96 146 172 230 286 350 414
#     4   9  22  41  67 100 133 183 224 291 350 412
#     4  10  20  38  64 102 136 182 232 282 353 406
#
# _framework density 22.160266
#
# number of rings (size 3 to 8) (size 9 to 14) (size 15 to 20)
#    1.091    1.091    1.818    0.545    1.273    2.909 
#    6.545    8.182    0.000    0.000    0.000    0.000 
#    0.000    0.000    0.000    0.000    0.000    0.000 
#
# Total GULP energy -122808.257549 kJ/mol
# GULP energy per Si atom -5582.193525 kJ/mol
# Density = 2.210983 g / cm^3
# Si number density = 22.160266 Si / 1000 Ang^3
#
#
#
# Elastic Constant Matrix: (Units=GPa)
#
#
# Indices 1 2 3 4 5 6 
#
# 1 103.3861 65.7571 46.3719 0.0000 -7.7509 0.0000
# 2 65.7571 153.0922 47.9207 0.0000 -14.7414 0.0000
# 3 46.3719 47.9207 154.7553 0.0000 -14.2814 0.0000
# 4 0.0000 0.0000 0.0000 8.2831 0.0000 -20.6054
# 5 -7.7509 -14.7414 -14.2814 0.0000 26.7018 0.0000
# 6 0.0000 0.0000 0.0000 -20.6054 0.0000 3.0189
#
#
#
# Elastic Compliance Matrix: (Units=1/GPa)
#
#
# Indices 1 2 3 4 5 6 
#
# 1 0.014209 -0.005298 -0.002637 0.000000 -0.000211 0.000000
# 2 -0.005298 0.009435 -0.001047 0.000000 0.003111 0.000000
# 3 -0.002637 -0.001047 0.007839 0.000000 0.002849 0.000000
# 4 0.000000 0.000000 0.000000 -0.007555 0.000000 -0.051568
# 5 -0.000211 0.003111 0.002849 0.000000 0.040631 0.000000
# 6 0.000000 0.000000 0.000000 -0.051568 0.000000 -0.020730
#
#
# Mechanical properties :
#
#
# Convention : Reuss Voigt Hill
#
# Bulk Modulus (GPa) = 73.96560 81.25921 77.61240
# Shear Modulus (GPa) = 75.41600 24.34636 49.88118
#
# Velocity S-wave (km/s) = 5.84003 3.31818 4.74954
# Velocity P-wave (km/s) = 8.88395 7.17140 8.07321
#
# Compressibility (1/GPa) = 0.01351980
#
# Stress axis : x y z
#
# Youngs Moduli (GPa) = 70.37752 105.98869 127.56769
#
# Poissons Ratio (x) = 0.56155 0.33634
# Poissons Ratio (y) = 0.37287 0.13355
# Poissons Ratio (z) = 0.18555 0.11096
#
# Static dielectric constant tensor:
#      x y z
#    x 1.819720 0.000000 0.000250 
#    y 0.000000 1.879620 0.000000 
#    z 0.000250 0.000000 1.824740 
# 
# From -- ./inp_files/134552.got.cif
#   From: 2010.05.17/outbox.cif.g08.bks.cpg/sg15_68_cif.got.tgz:134552.got - 2010.06.03 18:47:42.
