data_PCOD9268765
_publ_section_title
;
Structure prediction by ZEFSAII (Michael W. Deem and Ramdas Pophale) SiO2 
 PCOD9268765
Probable space group: C 2/C
;
_chemical_formula_sum "Si O2"
_cell_formula_units_Z 44
_cell_length_a 25.031251
_cell_length_b 12.459988
_cell_length_c 10.352345
_cell_angle_alpha 90.000000
_cell_angle_beta 40.054682
_cell_angle_gamma 90.000000
_cell_volume 2077.781596
_symmetry_space_group_name_H-M "C 2/C"
_symmetry_group_IT_number 15
_symmetry_cell_setting 'monoclinic'
loop_
_space_group_symop_operation_xyz
x,y,z
-x,y,1/2-z
-x,-y,-z
x,-y,1/2+z
1/2+x,1/2+y,z
1/2-x,1/2+y,1/2-z
1/2-x,1/2-y,-z
1/2+x,1/2-y,1/2+z
loop_
_atom_site_type_symbol
_atom_site_label
_atom_site_fract_x
_atom_site_fract_y
_atom_site_fract_z
Si Si1 0.276120 0.532983 0.199433
Si Si2 0.345650 0.259660 0.706776
Si Si3 0.337026 0.334807 0.983291
Si Si4 0.632406 0.882706 0.566847
Si Si5 0.500000 0.050903 0.750000
Si Si6 0.632629 0.822815 0.846439
O O1 0.322127 0.621863 0.199445
O O2 0.338505 0.461867 0.998559
O O3 0.219174 0.447413 0.384323
O O4 0.210015 0.599222 0.237205
O O5 0.258741 0.193841 0.874175
O O6 0.390893 0.189888 0.514182
O O7 0.384082 0.277959 0.777088
O O8 0.357532 0.280262 0.081134
O O9 0.565142 0.975975 0.703794
O O10 0.633964 0.810145 0.691071
O O11 0.551409 0.118680 0.551455
#
# Coordination Sequence:
#
# PCOD9268765 Si02
#       6
#     8   8   8   8   4   8
#     4   9  18  31  52  77 106 135 164 204 252 301
#     4   9  18  31  48  74 106 135 165 205 252 298
#     4   9  18  31  48  74 106 135 165 205 252 298
#     4  10  20  33  52  76 101 134 173 208 247 299
#     4  10  22  36  52  72 102 134 168 212 254 292
#     4  10  20  33  52  76 101 134 173 208 247 299
#
# _framework density 21.17643
#
# number of rings (size 3 to 8) (size 9 to 14) (size 15 to 20)
#    0.000    2.545    0.000    1.636    0.000   18.182 
#    0.000    0.000    0.000    1.091    0.000    5.091 
#    0.000    0.000    0.000    0.000    0.000    0.000 
#
# Total GULP energy -122692.186035 kJ/mol
# GULP energy per Si atom -5576.917547 kJ/mol
# Density = 2.112823 g / cm^3
# Si number density = 21.176430 Si / 1000 Ang^3
#
#
#
# Elastic Constant Matrix: (Units=GPa)
#
#
# Indices 1 2 3 4 5 6 
#
# 1 12.3704 -4.7007 -1.1802 0.0000 -2.6701 0.0000
# 2 -4.7007 77.5998 -1.2083 0.0000 -6.0932 0.0000
# 3 -1.1802 -1.2083 24.9296 0.0000 4.6579 0.0000
# 4 0.0000 0.0000 0.0000 20.7009 0.0000 0.4607
# 5 -2.6701 -6.0932 4.6579 0.0000 18.2357 0.0000
# 6 0.0000 0.0000 0.0000 0.4607 0.0000 4.2994
#
#
#
# Elastic Compliance Matrix: (Units=1/GPa)
#
#
# Indices 1 2 3 4 5 6 
#
# 1 0.086534 0.006397 0.001722 0.000000 0.014368 0.000000
# 2 0.006397 0.013708 -0.000067 0.000000 0.005534 0.000000
# 3 0.001722 -0.000067 0.042160 0.000000 -0.010539 0.000000
# 4 0.000000 0.000000 0.000000 0.048423 0.000000 -0.005189
# 5 0.014368 0.005534 -0.010539 0.000000 0.061482 0.000000
# 6 0.000000 0.000000 0.000000 -0.005189 0.000000 0.233145
#
#
# Mechanical properties :
#
#
# Convention : Reuss Voigt Hill
#
# Bulk Modulus (GPa) = 6.30887 11.19126 8.75006
# Shear Modulus (GPa) = 9.57520 16.77983 13.17751
#
# Velocity S-wave (km/s) = 2.12872 2.81798 2.49725
# Velocity P-wave (km/s) = 3.00459 3.98551 3.52930
#
# Compressibility (1/GPa) = 0.15850708
#
# Stress axis : x y z
#
# Youngs Moduli (GPa) = 11.55610 72.95216 23.71899
#
# Poissons Ratio (x) = -0.46667 -0.04085
# Poissons Ratio (y) = -0.07392 0.00158
# Poissons Ratio (z) = -0.01990 0.00487
#
# Static dielectric constant tensor:
#      x y z
#    x 1.778900 0.000000 0.020570 
#    y 0.000000 1.762940 0.000000 
#    z 0.020570 0.000000 1.866930 
# 
# From -- ./inp_files/65333.got.cif
#   From: 2010.05.17/outbox.cif.g08.bks.cpg/sg15_33_cif.got.tgz:65333.got - 2010.06.03 18:47:42.
