data_PCOD9268216
_publ_section_title
;
Structure prediction by ZEFSAII (Michael W. Deem and Ramdas Pophale) SiO2 
 PCOD9268216
Probable space group: C 2/C
;
_chemical_formula_sum "Si O2"
_cell_formula_units_Z 52
_cell_length_a 18.480552
_cell_length_b 8.367048
_cell_length_c 18.561744
_cell_angle_alpha 90.000000
_cell_angle_beta 52.635672
_cell_angle_gamma 90.000000
_cell_volume 2281.181292
_symmetry_space_group_name_H-M "C 2/C"
_symmetry_group_IT_number 15
_symmetry_cell_setting 'monoclinic'
loop_
_space_group_symop_operation_xyz
x,y,z
-x,y,1/2-z
-x,-y,-z
x,-y,1/2+z
1/2+x,1/2+y,z
1/2-x,1/2+y,1/2-z
1/2-x,1/2-y,-z
1/2+x,1/2-y,1/2+z
loop_
_atom_site_type_symbol
_atom_site_label
_atom_site_fract_x
_atom_site_fract_y
_atom_site_fract_z
Si Si1 0.366331 0.251010 0.039813
Si Si2 0.884554 0.932675 0.896871
Si Si3 0.662295 0.251422 0.851033
Si Si4 0.514356 0.018018 0.883451
Si Si5 0.210702 0.977081 0.692652
Si Si6 0.523875 0.339251 0.050621
Si Si7 0.500000 0.835554 0.250000
O O1 0.289002 0.155543 0.128262
O O2 0.439708 0.351430 0.044009
O O3 0.327762 0.362658 0.998920
O O4 0.426321 0.113853 0.964687
O O5 0.959699 0.040686 0.892813
O O6 0.835151 0.008013 0.857912
O O7 0.931263 0.781290 0.831133
O O8 0.594022 0.104243 0.878065
O O9 0.659546 0.383011 0.788765
O O10 0.755667 0.152256 0.802165
O O11 0.619268 0.325082 0.949285
O O12 0.541071 0.054104 0.785825
O O13 0.498520 0.834132 0.904151
#
# Coordination Sequence:
#
# PCOD9268216 Si02
#       7
#     8   8   8   8   8   8   4
#     4  10  21  42  69  92 132 185 220 268 352 405
#     4  11  25  39  66 103 134 168 227 286 337 396
#     4  11  24  43  67  96 136 183 223 276 347 407
#     4  10  19  45  69  88 126 184 230 263 330 425
#     4  12  24  44  65 100 142 175 225 288 340 401
#     4  11  22  44  71  95 130 180 236 272 326 425
#     4  10  22  42  64  92 130 170 216 280 340 396
#
# _framework density 22.795207999999999
#
# number of rings (size 3 to 8) (size 9 to 14) (size 15 to 20)
#    0.000    1.231    4.615    1.846    2.154    2.462 
#    2.769    0.000    0.000    0.000    0.000    0.000 
#    0.000    0.000    0.000    0.000    0.000    0.000 
#
# Total GULP energy -145019.540797 kJ/mol
# GULP energy per Si atom -5577.674646 kJ/mol
# Density = 2.274333 g / cm^3
# Si number density = 22.795208 Si / 1000 Ang^3
#
#
#
# Elastic Constant Matrix: (Units=GPa)
#
#
# Indices 1 2 3 4 5 6 
#
# 1 76.7268 39.5903 33.4523 0.0000 26.9903 -0.0001
# 2 39.5903 104.1969 43.3522 0.0000 26.1543 -0.0004
# 3 33.4523 43.3522 100.6120 0.0000 24.3285 0.0000
# 4 0.0000 0.0000 0.0000 13.4005 0.0000 0.5403
# 5 26.9903 26.1543 24.3285 0.0000 31.8781 0.0000
# 6 -0.0001 -0.0004 0.0000 0.5403 0.0000 -113.9431
#
#
#
# Elastic Compliance Matrix: (Units=1/GPa)
#
#
# Indices 1 2 3 4 5 6 
#
# 1 0.020258 -0.003670 -0.002127 0.000000 -0.012517 0.000000
# 2 -0.003670 0.013811 -0.003363 0.000000 -0.005657 0.000000
# 3 -0.002127 -0.003363 0.013480 0.000000 -0.005728 0.000000
# 4 0.000000 0.000000 0.000000 0.074610 0.000000 0.000354
# 5 -0.012517 -0.005657 -0.005728 0.000000 0.050980 0.000000
# 6 0.000000 0.000000 0.000000 0.000354 0.000000 -0.008775
#
#
# Mechanical properties :
#
#
# Convention : Reuss Voigt Hill
#
# Bulk Modulus (GPa) = 34.21300 57.14726 45.68013
# Shear Modulus (GPa) = 25.98392 -2.72348 11.63022
#
# Velocity S-wave (km/s) = 3.37988 -1.09424 2.26122
# Velocity P-wave (km/s) = 5.50208 4.85055 5.18656
#
# Compressibility (1/GPa) = 0.02922866
#
# Stress axis : x y z
#
# Youngs Moduli (GPa) = 49.36436 72.40717 74.18167
#
# Poissons Ratio (x) = 0.26574 0.15781
# Poissons Ratio (y) = 0.18117 0.24945
# Poissons Ratio (z) = 0.10502 0.24348
#
# Static dielectric constant tensor:
#      x y z
#    x 1.981810 0.000000 0.022150 
#    y 0.000000 1.863890 0.000000 
#    z 0.022150 0.000000 1.927310 
# 
# From -- ./inp_files/209718.got.cif
#   From: 2010.05.17/outbox.cif.g08.bks.cpg/sg15_105_cif.got.tgz:209718.got - 2010.06.03 18:47:42.
