data_PCOD9268791
_publ_section_title
;
Structure prediction by ZEFSAII (Michael W. Deem and Ramdas Pophale) SiO2 
 PCOD9268791
Probable space group: C 2/C
;
_chemical_formula_sum "Si O2"
_cell_formula_units_Z 56
_cell_length_a 10.945681
_cell_length_b 26.122541
_cell_length_c 13.221206
_cell_angle_alpha 90.000000
_cell_angle_beta 145.301849
_cell_angle_gamma 90.000000
_cell_volume 2151.962010
_symmetry_space_group_name_H-M "C 2/C"
_symmetry_group_IT_number 15
_symmetry_cell_setting 'monoclinic'
loop_
_space_group_symop_operation_xyz
x,y,z
-x,y,1/2-z
-x,-y,-z
x,-y,1/2+z
1/2+x,1/2+y,z
1/2-x,1/2+y,1/2-z
1/2-x,1/2-y,-z
1/2+x,1/2-y,1/2+z
loop_
_atom_site_type_symbol
_atom_site_label
_atom_site_fract_x
_atom_site_fract_y
_atom_site_fract_z
Si Si1 0.360208 0.110434 0.753426
Si Si2 0.307288 0.308901 0.039020
Si Si3 0.848303 0.817042 0.824423
Si Si4 0.120587 0.925398 0.617350
Si Si5 0.764953 0.915993 0.039732
Si Si6 0.049065 0.505528 0.662482
Si Si7 0.207648 0.717508 0.822931
O O1 0.500000 0.121063 0.750000
O O2 0.328396 0.167724 0.774480
O O3 0.133801 0.084561 0.566113
O O4 0.470326 0.063973 0.886730
O O5 0.500000 0.311918 0.250000
O O6 0.168075 0.358235 0.980099
O O7 0.250000 0.250000 0.000000
O O8 0.339628 0.317080 0.940758
O O9 0.805932 0.875855 0.767561
O O10 0.726989 0.769382 0.691133
O O11 0.097394 0.802013 0.974838
O O12 0.205722 0.922637 0.560321
O O13 0.224147 0.979659 0.717041
O O14 0.000000 0.917221 0.250000
O O15 0.625547 0.962866 0.983358
O O16 0.000000 0.511051 0.750000
O O17 0.000000 0.727076 0.750000
#
# Coordination Sequence:
#
# PCOD9268791 Si02
#       7
#     8   8   8   8   8   8   8
#     4   9  18  33  56  82 107 142 187 231 277 328
#     4  10  20  33  52  80 114 148 181 225 278 338
#     4  10  20  34  53  80 111 148 186 230 282 335
#     4   9  18  33  54  80 108 142 186 225 272 334
#     4   9  19  34  52  78 113 145 176 220 278 335
#     4   9  17  32  57  82 107 144 183 224 274 338
#     4  10  20  35  55  78 109 147 191 237 280 326
#
# _framework density 26.022766000000001
#
# number of rings (size 3 to 8) (size 9 to 14) (size 15 to 20)
#    0.000    2.571    0.000    1.714    0.000    5.143 
#    0.000    0.714    0.000   12.857    0.000    0.000 
#    0.000    0.000    0.000    0.286    0.000    0.143 
#
# Total GULP energy -156137.124371 kJ/mol
# GULP energy per Si atom -5576.325870 kJ/mol
# Density = 2.596354 g / cm^3
# Si number density = 26.022766 Si / 1000 Ang^3
#
#
#
# Elastic Constant Matrix: (Units=GPa)
#
#
# Indices 1 2 3 4 5 6 
#
# 1 48.2310 -0.6838 11.0659 0.0000 -4.8358 0.0000
# 2 -0.6838 235.8540 36.8932 0.0000 -14.0583 0.0000
# 3 11.0659 36.8932 47.4170 0.0000 2.4653 0.0000
# 4 0.0000 0.0000 0.0000 27.4555 0.0000 3.8559
# 5 -4.8358 -14.0583 2.4653 0.0000 32.3176 0.0000
# 6 0.0000 0.0000 0.0000 3.8559 0.0000 7.2080
#
#
#
# Elastic Compliance Matrix: (Units=1/GPa)
#
#
# Indices 1 2 3 4 5 6 
#
# 1 0.022718 0.001366 -0.006598 0.000000 0.004497 0.000000
# 2 0.001366 0.005102 -0.004432 0.000000 0.002762 0.000000
# 3 -0.006598 -0.004432 0.026334 0.000000 -0.004924 0.000000
# 4 0.000000 0.000000 0.000000 0.039381 0.000000 -0.021067
# 5 0.004497 0.002762 -0.004924 0.000000 0.033193 0.000000
# 6 0.000000 0.000000 0.000000 -0.021067 0.000000 0.150004
#
#
# Mechanical properties :
#
#
# Convention : Reuss Voigt Hill
#
# Bulk Modulus (GPa) = 28.71528 47.33920 38.02724
# Shear Modulus (GPa) = 16.25128 32.34467 24.29798
#
# Velocity S-wave (km/s) = 2.50172 3.52936 3.05900
# Velocity P-wave (km/s) = 4.40493 5.90249 5.20782
#
# Compressibility (1/GPa) = 0.03482466
#
# Stress axis : x y z
#
# Youngs Moduli (GPa) = 44.01857 196.01169 37.97429
#
# Poissons Ratio (x) = -0.26776 0.25057
# Poissons Ratio (y) = -0.06013 0.16830
# Poissons Ratio (z) = 0.29045 0.86869
#
# Static dielectric constant tensor:
#      x y z
#    x 2.070850 0.000000 0.161110 
#    y 0.000000 2.161900 0.000000 
#    z 0.161110 0.000000 2.937550 
# 
# From -- ./inp_files/148581.got.cif
#   From: 2010.05.17/outbox.cif.g08.bks.cpg/sg15_75_cif.got.tgz:148581.got - 2010.06.03 18:47:42.
