data_PCOD9268698
_publ_section_title
;
Structure prediction by ZEFSAII (Michael W. Deem and Ramdas Pophale) SiO2 
 PCOD9268698
Probable space group: C 2/C
;
_chemical_formula_sum "Si O2"
_cell_formula_units_Z 56
_cell_length_a 21.204984
_cell_length_b 11.570400
_cell_length_c 19.407211
_cell_angle_alpha 90.000000
_cell_angle_beta 153.918234
_cell_angle_gamma 90.000000
_cell_volume 2093.436745
_symmetry_space_group_name_H-M "C 2/C"
_symmetry_group_IT_number 15
_symmetry_cell_setting 'monoclinic'
loop_
_space_group_symop_operation_xyz
x,y,z
-x,y,1/2-z
-x,-y,-z
x,-y,1/2+z
1/2+x,1/2+y,z
1/2-x,1/2+y,1/2-z
1/2-x,1/2-y,-z
1/2+x,1/2-y,1/2+z
loop_
_atom_site_type_symbol
_atom_site_label
_atom_site_fract_x
_atom_site_fract_y
_atom_site_fract_z
Si Si1 0.239438 0.470454 0.719898
Si Si2 0.427002 0.194916 0.805442
Si Si3 0.524204 0.810922 0.998169
Si Si4 0.592234 0.440729 0.756456
Si Si5 0.614776 0.036481 0.920127
Si Si6 0.538126 0.801220 0.711240
Si Si7 0.707921 0.520896 0.074973
O O1 0.138510 0.583623 0.608630
O O2 0.334356 0.466238 0.745163
O O3 0.326132 0.476376 0.876506
O O4 0.127656 0.369642 0.632339
O O5 0.426536 0.303737 0.756031
O O6 0.576181 0.126766 0.941474
O O7 0.307068 0.097170 0.672668
O O8 0.425808 0.246929 0.881636
O O9 0.498551 0.746586 0.899863
O O10 0.442629 0.504682 0.610386
O O11 0.720201 0.467523 0.934724
O O12 0.500000 0.070326 0.750000
O O13 0.571038 0.908464 0.896477
O O14 0.500000 0.748436 0.750000
O O15 0.692261 0.870308 0.853650
#
# Coordination Sequence:
#
# PCOD9268698 Si02
#       7
#     8   8   8   8   8   8   8
#     4   9  16  30  52  74 101 133 171 223 268 304
#     4  10  20  33  49  73 107 143 181 209 264 326
#     4   9  15  32  55  73  95 141 178 217 259 318
#     4  12  19  31  51  78 111 137 170 227 268 307
#     4  10  20  34  50  68 103 149 181 206 252 323
#     4   9  17  34  55  75 100 138 185 222 252 315
#     4   9  20  31  49  80 104 132 176 226 267 308
#
# _framework density 26.75027
#
# number of rings (size 3 to 8) (size 9 to 14) (size 15 to 20)
#    0.000    2.286    2.857    3.000    0.000    0.571 
#    0.000    7.857    0.000    2.571    0.000    4.000 
#    0.000    0.000    0.000    0.000    0.000    1.000 
#
# Total GULP energy -156287.599457 kJ/mol
# GULP energy per Si atom -5581.699981 kJ/mol
# Density = 2.668939 g / cm^3
# Si number density = 26.750270 Si / 1000 Ang^3
#
#
#
# Elastic Constant Matrix: (Units=GPa)
#
#
# Indices 1 2 3 4 5 6 
#
# 1 178.1561 7.7627 65.3026 -0.0005 1.9783 -0.0004
# 2 7.7627 49.6880 20.4435 -0.0002 8.3852 -0.0002
# 3 65.3026 20.4435 200.0108 0.0003 6.7447 0.0002
# 4 -0.0005 -0.0002 0.0003 39.4279 0.0003 27.3929
# 5 1.9783 8.3852 6.7447 0.0003 39.5611 0.0002
# 6 -0.0004 -0.0002 0.0002 27.3929 0.0002 30.2892
#
#
#
# Elastic Compliance Matrix: (Units=1/GPa)
#
#
# Indices 1 2 3 4 5 6 
#
# 1 0.006377 -0.000157 -0.002068 0.000000 0.000067 0.000000
# 2 -0.000157 0.021699 -0.002024 0.000000 -0.004246 0.000000
# 3 -0.002068 -0.002024 0.005898 0.000000 -0.000473 0.000000
# 4 0.000000 0.000000 0.000000 0.068239 0.000000 -0.061714
# 5 0.000067 -0.004246 -0.000473 0.000000 0.026255 0.000000
# 6 0.000000 0.000000 0.000000 -0.061714 0.000000 0.088828
#
#
# Mechanical properties :
#
#
# Convention : Reuss Voigt Hill
#
# Bulk Modulus (GPa) = 39.25077 68.31915 53.78496
# Shear Modulus (GPa) = 21.34151 44.14539 32.74345
#
# Velocity S-wave (km/s) = 2.82761 4.06677 3.50243
# Velocity P-wave (km/s) = 5.03641 6.90265 6.04202
#
# Compressibility (1/GPa) = 0.02547721
#
# Stress axis : x y z
#
# Youngs Moduli (GPa) = 156.80608 46.08455 169.55338
#
# Poissons Ratio (x) = 0.00722 0.35071
# Poissons Ratio (y) = 0.02455 0.34311
# Poissons Ratio (z) = 0.32434 0.09326
#
# Static dielectric constant tensor:
#      x y z
#    x 2.248710 0.000000 -0.107290 
#    y 0.000000 2.017390 0.000000 
#    z -0.107290 0.000000 2.140220 
# 
# From -- ./inp_files/255925.got.cif
#   From: 2010.05.17/outbox.cif.g08.bks.cpg/sg15_128_cif.got.tgz:255925.got - 2010.06.03 18:47:42.
