data_PCOD9268751
_publ_section_title
;
Structure prediction by ZEFSAII (Michael W. Deem and Ramdas Pophale) SiO2 
 PCOD9268751
Probable space group: C 2/C
;
_chemical_formula_sum "Si O2"
_cell_formula_units_Z 56
_cell_length_a 11.022478
_cell_length_b 28.465621
_cell_length_c 9.730879
_cell_angle_alpha 90.000000
_cell_angle_beta 94.259449
_cell_angle_gamma 90.000000
_cell_volume 3044.743927
_symmetry_space_group_name_H-M "C 2/C"
_symmetry_group_IT_number 15
_symmetry_cell_setting 'monoclinic'
loop_
_space_group_symop_operation_xyz
x,y,z
-x,y,1/2-z
-x,-y,-z
x,-y,1/2+z
1/2+x,1/2+y,z
1/2-x,1/2+y,1/2-z
1/2-x,1/2-y,-z
1/2+x,1/2-y,1/2+z
loop_
_atom_site_type_symbol
_atom_site_label
_atom_site_fract_x
_atom_site_fract_y
_atom_site_fract_z
Si Si1 0.650648 0.550342 0.768286
Si Si2 0.067209 0.264622 0.400137
Si Si3 0.126257 0.130201 0.184275
Si Si4 0.647562 0.287690 0.464842
Si Si5 0.737499 0.678837 0.432302
Si Si6 0.362264 0.347420 0.289188
Si Si7 0.625276 0.525912 0.058895
O O1 0.500000 0.550833 0.750000
O O2 0.697126 0.602318 0.743228
O O3 0.687842 0.511276 0.662978
O O4 0.690697 0.535879 0.922324
O O5 0.134969 0.306753 0.486596
O O6 0.172773 0.226589 0.374110
O O7 0.000000 0.276231 0.250000
O O8 0.975499 0.239269 0.499680
O O9 0.149072 0.165248 0.058886
O O10 0.228577 0.141486 0.308134
O O11 0.110988 0.076378 0.132552
O O12 0.000000 0.143361 0.250000
O O13 0.750000 0.250000 0.500000
O O14 0.673734 0.304760 0.311658
O O15 0.655233 0.661576 0.552694
O O16 0.500000 0.353115 0.250000
O O17 0.500000 0.500000 0.000000
#
# Coordination Sequence:
#
# PCOD9268751 Si02
#       7
#     8   8   8   8   8   8   8
#     4   9  19  30  48  74 108 147 185 222 286 352
#     4  11  21  40  54  78 112 150 205 248 288 345
#     4  12  21  37  55  82 119 160 197 233 291 366
#     4  12  23  36  57  78 117 160 200 249 293 340
#     4  11  23  34  59  79 108 158 199 239 293 351
#     4  11  20  33  50  80 111 147 195 237 285 341
#     4  10  20  33  51  80 115 158 184 231 295 365
#
# _framework density 18.392351999999999
#
# number of rings (size 3 to 8) (size 9 to 14) (size 15 to 20)
#    0.000    1.143    5.714    2.143    8.000    0.000 
#    0.000    0.000    0.000    0.000    0.000    0.000 
#    0.000   12.571    0.000    0.000    0.000    0.000 
#
# Total GULP energy -156007.491822 kJ/mol
# GULP energy per Si atom -5571.696137 kJ/mol
# Density = 1.835049 g / cm^3
# Si number density = 18.392352 Si / 1000 Ang^3
#
#
#
# Elastic Constant Matrix: (Units=GPa)
#
#
# Indices 1 2 3 4 5 6 
#
# 1 28.7728 22.4271 14.2365 0.0000 4.9608 0.0000
# 2 22.4271 101.0712 38.1986 0.0000 8.0010 0.0000
# 3 14.2365 38.1986 112.0441 0.0000 4.4545 0.0000
# 4 0.0000 0.0000 0.0000 61.3498 0.0000 0.3903
# 5 4.9608 8.0010 4.4545 0.0000 21.8455 0.0000
# 6 0.0000 0.0000 0.0000 0.3903 0.0000 9.3806
#
#
#
# Elastic Compliance Matrix: (Units=1/GPa)
#
#
# Indices 1 2 3 4 5 6 
#
# 1 0.043473 -0.008208 -0.002472 0.000000 -0.006362 0.000000
# 2 -0.008208 0.013163 -0.003354 0.000000 -0.002273 0.000000
# 3 -0.002472 -0.003354 0.010396 0.000000 -0.000330 0.000000
# 4 0.000000 0.000000 0.000000 0.016304 0.000000 -0.000678
# 5 -0.006362 -0.002273 -0.000330 0.000000 0.048120 0.000000
# 6 0.000000 0.000000 0.000000 -0.000678 0.000000 0.106631
#
#
# Mechanical properties :
#
#
# Convention : Reuss Voigt Hill
#
# Bulk Modulus (GPa) = 25.66605 43.51249 34.58927
# Shear Modulus (GPa) = 17.91184 29.65026 23.78105
#
# Velocity S-wave (km/s) = 3.12408 4.01945 3.59971
# Velocity P-wave (km/s) = 5.19598 6.72686 6.01036
#
# Compressibility (1/GPa) = 0.03896198
#
# Stress axis : x y z
#
# Youngs Moduli (GPa) = 23.00265 75.97025 96.19209
#
# Poissons Ratio (x) = 0.62360 0.23783
# Poissons Ratio (y) = 0.18882 0.32265
# Poissons Ratio (z) = 0.05687 0.25482
#
# Static dielectric constant tensor:
#      x y z
#    x 1.649430 0.000000 0.033190 
#    y 0.000000 1.721710 0.000000 
#    z 0.033190 0.000000 1.703680 
# 
# From -- ./inp_files/35307.got.cif
#   From: 2010.05.17/outbox.cif.g08.bks.cpg/sg15_18_cif.got.tgz:35307.got - 2010.06.03 18:47:42.
