data_PCOD9268995
_publ_section_title
;
Structure prediction by ZEFSAII (Michael W. Deem and Ramdas Pophale) SiO2 
 PCOD9268995
Probable space group: C 2/C
;
_chemical_formula_sum "Si O2"
_cell_formula_units_Z 64
_cell_length_a 11.633947
_cell_length_b 14.924801
_cell_length_c 28.098808
_cell_angle_alpha 90.000000
_cell_angle_beta 148.070412
_cell_angle_gamma 90.000000
_cell_volume 2580.346001
_symmetry_space_group_name_H-M "C 2/C"
_symmetry_group_IT_number 15
_symmetry_cell_setting 'monoclinic'
loop_
_space_group_symop_operation_xyz
x,y,z
-x,y,1/2-z
-x,-y,-z
x,-y,1/2+z
1/2+x,1/2+y,z
1/2-x,1/2+y,1/2-z
1/2-x,1/2-y,-z
1/2+x,1/2-y,1/2+z
loop_
_atom_site_type_symbol
_atom_site_label
_atom_site_fract_x
_atom_site_fract_y
_atom_site_fract_z
Si Si1 0.132450 0.132711 0.080027
Si Si2 0.251108 0.826127 0.379010
Si Si3 0.436528 0.686233 0.588571
Si Si4 0.015489 0.501126 0.810142
Si Si5 0.656507 0.016825 0.655866
Si Si6 0.210014 0.381246 0.591135
Si Si7 0.163527 0.019695 0.455832
Si Si8 0.735940 0.810404 0.373635
O O1 0.217967 0.226509 0.130688
O O2 0.299225 0.069979 0.109802
O O3 0.017701 0.073830 0.079771
O O4 0.947309 0.163865 0.978561
O O5 0.074514 0.811018 0.358363
O O6 0.467583 0.858532 0.485330
O O7 0.229297 0.900138 0.330341
O O8 0.250000 0.750000 0.500000
O O9 0.383186 0.584185 0.557641
O O10 0.667882 0.704170 0.645461
O O11 0.085565 0.604606 0.829217
O O12 0.000000 0.470204 0.750000
O O13 0.820801 0.499441 0.779857
O O14 0.696420 0.929822 0.637177
O O15 0.399435 0.039898 0.561232
O O16 0.313610 0.449773 0.590533
O O17 0.337826 0.287697 0.636345
#
# Coordination Sequence:
#
# PCOD9268995 Si02
#       8
#     8   8   8   8   8   8   8   8
#     4  11  22  37  62  92 119 155 197 254 303 353
#     4  10  21  32  58  97 127 150 193 248 306 355
#     4  12  18  31  54  92 130 150 190 242 297 357
#     4  12  27  43  59  84 123 164 204 248 304 363
#     4  11  20  37  59  86 127 159 192 245 304 358
#     4  10  20  33  58  97 122 152 190 251 309 353
#     4  11  19  33  58  92 127 148 193 246 299 357
#     4  11  22  36  63  92 118 158 201 249 306 353
#
# _framework density 24.802875
#
# number of rings (size 3 to 8) (size 9 to 14) (size 15 to 20)
#    0.000    1.000    7.500    1.875    3.500    1.500 
#    0.000    1.250    0.000    1.500    0.000    0.000 
#    0.000    0.000    0.000    0.000    0.000    0.000 
#
# Total GULP energy -179058.492191 kJ/mol
# GULP energy per Si atom -5595.577881 kJ/mol
# Density = 2.474642 g / cm^3
# Si number density = 24.802875 Si / 1000 Ang^3
#
#
#
# Elastic Constant Matrix: (Units=GPa)
#
#
# Indices 1 2 3 4 5 6 
#
# 1 128.0419 55.4323 17.5561 0.0000 -33.0298 0.0000
# 2 55.4323 183.4572 21.4379 0.0000 -13.6024 0.0000
# 3 17.5561 21.4379 52.3248 0.0000 -9.0730 0.0001
# 4 0.0000 0.0000 0.0000 0.1522 0.0000 -0.2969
# 5 -33.0298 -13.6024 -9.0730 0.0000 25.4267 0.0000
# 6 0.0000 0.0000 0.0001 -0.2969 0.0000 36.4956
#
#
#
# Elastic Compliance Matrix: (Units=1/GPa)
#
#
# Indices 1 2 3 4 5 6 
#
# 1 0.012997 -0.002729 -0.000606 -0.000005 0.015208 0.000000
# 2 -0.002729 0.006435 -0.001853 0.000001 -0.000763 0.000000
# 3 -0.000606 -0.001853 0.021069 -0.000004 0.005740 0.000000
# 4 -0.000005 0.000001 -0.000004 6.676230 -0.000019 0.054308
# 5 0.015208 -0.000763 0.005740 -0.000019 0.060724 0.000000
# 6 0.000000 0.000000 0.000000 0.054308 0.000000 0.027842
#
#
# Mechanical properties :
#
#
# Convention : Reuss Voigt Hill
#
# Bulk Modulus (GPa) = 33.19413 61.40850 47.30132
# Shear Modulus (GPa) = 0.73252 30.37473 15.55363
#
# Velocity S-wave (km/s) = 0.54404 3.50329 2.50689
# Velocity P-wave (km/s) = 3.71576 6.41689 5.24325
#
# Compressibility (1/GPa) = 0.03012581
#
# Stress axis : x y z
#
# Youngs Moduli (GPa) = 76.93820 155.39126 47.46245
#
# Poissons Ratio (x) = 0.42404 0.02876
# Poissons Ratio (y) = 0.20995 0.08797
# Poissons Ratio (z) = 0.04661 0.28801
#
# Static dielectric constant tensor:
#      x y z
#    x 1.988050 0.000000 -0.042430 
#    y 0.000000 1.893980 0.000000 
#    z -0.042430 0.000000 2.114580 
# 
# From -- ./inp_files/238721.got.cif
#   From: 2010.05.17/outbox.cif.g08.bks.cpg/sg15_120_cif.got.tgz:238721.got - 2010.06.03 18:47:42.
