data_PCOD9268775
_publ_section_title
;
Structure prediction by ZEFSAII (Michael W. Deem and Ramdas Pophale) SiO2 
 PCOD9268775
Probable space group: C 2/C
;
_chemical_formula_sum "Si O2"
_cell_formula_units_Z 64
_cell_length_a 9.296164
_cell_length_b 14.399535
_cell_length_c 30.023837
_cell_angle_alpha 90.000000
_cell_angle_beta 108.036587
_cell_angle_gamma 90.000000
_cell_volume 3821.506104
_symmetry_space_group_name_H-M "C 2/C"
_symmetry_group_IT_number 15
_symmetry_cell_setting 'monoclinic'
loop_
_space_group_symop_operation_xyz
x,y,z
-x,y,1/2-z
-x,-y,-z
x,-y,1/2+z
1/2+x,1/2+y,z
1/2-x,1/2+y,1/2-z
1/2-x,1/2-y,-z
1/2+x,1/2-y,1/2+z
loop_
_atom_site_type_symbol
_atom_site_label
_atom_site_fract_x
_atom_site_fract_y
_atom_site_fract_z
Si Si1 0.250014 0.983607 0.672594
Si Si2 0.586766 0.642890 0.507786
Si Si3 0.172401 0.332133 0.749999
Si Si4 0.095168 0.483607 0.672593
Si Si5 0.995151 0.995897 0.074409
Si Si6 0.571188 0.857108 0.492216
Si Si7 0.846333 0.495888 0.425591
Si Si8 0.171820 0.636311 0.750000
O O1 0.414954 0.982772 0.664956
O O2 0.248176 0.073323 0.704675
O O3 0.118634 0.986445 0.624016
O O4 0.245198 0.894303 0.704526
O O5 0.515206 0.582468 0.460859
O O6 0.540031 0.592819 0.548843
O O7 0.539663 0.749999 0.500004
O O8 0.768386 0.638457 0.518382
O O9 0.163845 0.394300 0.704522
O O10 0.248463 0.233617 0.750000
O O11 0.000000 0.320751 0.750000
O O12 0.129395 0.486453 0.624015
O O13 0.161171 0.573320 0.704676
O O14 0.829502 0.983609 0.079501
O O15 0.442334 0.907168 0.451157
O O16 0.593479 0.917542 0.539140
O O17 0.000000 0.650630 0.750000
#
# Coordination Sequence:
#
# PCOD9268775 Si02
#       8
#     8   8   8   8   8   8   8   8
#     4   9  19  36  53  71 102 139 167 198 250 306
#     4   9  19  36  54  72 100 136 168 202 250 305
#     4   9  19  35  54  76 102 133 169 209 250 292
#     4   9  19  36  53  71 102 139 167 198 250 306
#     4  10  20  33  52  78 102 128 168 212 249 290
#     4   9  19  36  54  72 100 136 168 202 250 305
#     4  10  20  33  52  78 102 128 168 212 249 290
#     4   9  19  35  54  74  98 133 171 203 244 300
#
# _framework density 16.747323000000002
#
# number of rings (size 3 to 8) (size 9 to 14) (size 15 to 20)
#    0.000    2.750    0.000    2.250    0.000    5.500 
#    0.000   10.000    0.000    0.000    0.000    0.000 
#    0.000    0.000    0.000    0.000    0.000    0.000 
#
# Total GULP energy -178485.638472 kJ/mol
# GULP energy per Si atom -5577.676202 kJ/mol
# Density = 1.670921 g / cm^3
# Si number density = 16.747323 Si / 1000 Ang^3
#
#
#
# Elastic Constant Matrix: (Units=GPa)
#
#
# Indices 1 2 3 4 5 6 
#
# 1 49.4690 53.0521 61.0249 0.0000 -0.3644 0.0000
# 2 53.0521 138.0322 42.9745 0.0000 0.0482 0.0000
# 3 61.0249 42.9745 116.2574 0.0000 0.0750 0.0000
# 4 0.0000 0.0000 0.0000 4.9368 0.0000 0.1262
# 5 -0.3644 0.0482 0.0750 0.0000 35.6819 0.0000
# 6 0.0000 0.0000 0.0000 0.1262 0.0000 33.4288
#
#
#
# Elastic Compliance Matrix: (Units=1/GPa)
#
#
# Indices 1 2 3 4 5 6 
#
# 1 0.101846 -0.025426 -0.044062 0.000000 0.001167 0.000000
# 2 -0.025426 0.014535 0.007974 0.000000 -0.000296 0.000000
# 3 -0.044062 0.007974 0.028783 0.000000 -0.000521 0.000000
# 4 0.000000 0.000000 0.000000 0.202580 0.000000 -0.000765
# 5 0.001167 -0.000296 -0.000521 0.000000 0.028039 0.000000
# 6 0.000000 0.000000 0.000000 -0.000765 0.000000 0.029917
#
#
# Mechanical properties :
#
#
# Convention : Reuss Voigt Hill
#
# Bulk Modulus (GPa) = 45.17727 68.65128 56.91428
# Shear Modulus (GPa) = 9.32648 24.58998 16.95823
#
# Velocity S-wave (km/s) = 2.36242 3.83599 3.18558
# Velocity P-wave (km/s) = 5.87161 7.79109 6.89844
#
# Compressibility (1/GPa) = 0.02213503
#
# Stress axis : x y z
#
# Youngs Moduli (GPa) = 9.81870 68.80088 34.74256
#
# Poissons Ratio (x) = 1.74936 1.53084
# Poissons Ratio (y) = 0.24965 -0.27704
# Poissons Ratio (z) = 0.43263 -0.54862
#
# Static dielectric constant tensor:
#      x y z
#    x 1.551370 0.000000 0.000050 
#    y 0.000000 1.545380 0.000000 
#    z 0.000050 0.000000 1.539800 
# 
# From -- ./inp_files/288833.got.cif
#   From: 2010.05.17/outbox.cif.g08.bks.cpg/sg15_145_cif.got.tgz:288833.got - 2010.06.03 18:47:42.
