data_PCOD9268860
_publ_section_title
;
Structure prediction by ZEFSAII (Michael W. Deem and Ramdas Pophale) SiO2 
 PCOD9268860
Probable space group: C 2/C
;
_chemical_formula_sum "Si O2"
_cell_formula_units_Z 48
_cell_length_a 17.666076
_cell_length_b 8.069365
_cell_length_c 15.743509
_cell_angle_alpha 90.000000
_cell_angle_beta 54.656341
_cell_angle_gamma 90.000000
_cell_volume 1830.669189
_symmetry_space_group_name_H-M "C 2/C"
_symmetry_group_IT_number 15
_symmetry_cell_setting 'monoclinic'
loop_
_space_group_symop_operation_xyz
x,y,z
-x,y,1/2-z
-x,-y,-z
x,-y,1/2+z
1/2+x,1/2+y,z
1/2-x,1/2+y,1/2-z
1/2-x,1/2-y,-z
1/2+x,1/2-y,1/2+z
loop_
_atom_site_type_symbol
_atom_site_label
_atom_site_fract_x
_atom_site_fract_y
_atom_site_fract_z
Si Si1 0.770476 0.821925 0.266856
Si Si2 0.892379 0.173233 0.934356
Si Si3 0.226356 0.509573 0.971065
Si Si4 0.556424 0.815850 0.054238
Si Si5 0.438014 0.866643 0.654127
Si Si6 0.108336 0.884093 0.863795
O O1 0.736026 0.932668 0.367092
O O2 0.833140 0.662917 0.252245
O O3 0.681672 0.747940 0.277301
O O4 0.844901 0.938068 0.173017
O O5 0.833953 0.339952 0.949676
O O6 0.891879 0.156715 0.036467
O O7 0.830898 0.024688 0.937286
O O8 0.997643 0.223320 0.846688
O O9 0.160322 0.349679 0.019678
O O10 0.494832 0.649695 0.103708
O O11 0.490279 0.960566 0.135374
O O12 0.561936 0.849906 0.948964
#
# Coordination Sequence:
#
# PCOD9268860 Si02
#       6
#     8   8   8   8   8   8
#     4  11  20  31  54  82 106 134 182 238 278 316
#     4   8  17  32  51  76 104 140 181 215 268 343
#     4   9  17  32  53  77 106 140 178 226 276 321
#     4   9  17  33  54  76 108 143 177 218 278 341
#     4   9  17  31  52  77 104 137 176 224 272 325
#     4  10  20  33  54  81 108 141 186 231 276 332
#
# _framework density 26.219918
#
# number of rings (size 3 to 8) (size 9 to 14) (size 15 to 20)
#    0.000    2.667    0.000    5.000    0.000    3.333 
#    0.000    0.000    0.000   14.000    0.000   11.667 
#    0.000    0.000    0.000    0.000    0.000    0.000 
#
# Total GULP energy -133998.137985 kJ/mol
# GULP energy per Si atom -5583.255749 kJ/mol
# Density = 2.616024 g / cm^3
# Si number density = 26.219918 Si / 1000 Ang^3
#
#
#
# Elastic Constant Matrix: (Units=GPa)
#
#
# Indices 1 2 3 4 5 6 
#
# 1 137.3508 34.1898 24.5228 0.0000 -50.2326 0.0000
# 2 34.1898 95.8564 19.8475 0.0001 -7.8993 0.0001
# 3 24.5228 19.8475 56.3196 0.0000 -20.2908 0.0000
# 4 0.0000 0.0001 0.0000 37.7598 0.0000 -27.4233
# 5 -50.2326 -7.8993 -20.2908 0.0000 41.8462 0.0000
# 6 0.0000 0.0001 0.0000 -27.4233 0.0000 39.3170
#
#
#
# Elastic Compliance Matrix: (Units=1/GPa)
#
#
# Indices 1 2 3 4 5 6 
#
# 1 0.014243 -0.003952 0.001311 0.000000 0.016987 0.000000
# 2 -0.003952 0.012352 -0.004242 0.000000 -0.004469 0.000000
# 3 0.001311 -0.004242 0.022971 0.000000 0.011912 0.000000
# 4 0.000000 0.000000 0.000000 0.053670 0.000000 0.037435
# 5 0.016987 -0.004469 0.011912 0.000000 0.049220 0.000000
# 6 0.000000 0.000000 0.000000 0.037435 0.000000 0.051545
#
#
# Mechanical properties :
#
#
# Convention : Reuss Voigt Hill
#
# Bulk Modulus (GPa) = 27.93289 49.62742 38.78016
# Shear Modulus (GPa) = 21.76748 37.84906 29.80827
#
# Velocity S-wave (km/s) = 2.88443 3.80349 3.37539
# Velocity P-wave (km/s) = 4.66580 6.18524 5.47845
#
# Compressibility (1/GPa) = 0.03580009
#
# Stress axis : x y z
#
# Youngs Moduli (GPa) = 70.21134 80.95953 43.53220
#
# Poissons Ratio (x) = 0.31992 -0.05707
# Poissons Ratio (y) = 0.27745 0.18468
# Poissons Ratio (z) = -0.09205 0.34346
#
# Static dielectric constant tensor:
#      x y z
#    x 2.051570 0.000000 -0.017820 
#    y 0.000000 2.169790 0.000000 
#    z -0.017820 0.000000 2.070960 
# 
# From -- ./inp_files/208914.got.cif
#   From: 2010.05.17/outbox.cif.g08.bks.cpg/sg15_105_cif.got.tgz:208914.got - 2010.06.03 18:47:42.
