data_PCOD9268648
_publ_section_title
;
Structure prediction by ZEFSAII (Michael W. Deem and Ramdas Pophale) SiO2 
 PCOD9268648
Probable space group: C 2/C
;
_chemical_formula_sum "Si O2"
_cell_formula_units_Z 48
_cell_length_a 11.815543
_cell_length_b 24.874593
_cell_length_c 8.483788
_cell_angle_alpha 90.000000
_cell_angle_beta 67.272473
_cell_angle_gamma 90.000000
_cell_volume 2299.833749
_symmetry_space_group_name_H-M "C 2/C"
_symmetry_group_IT_number 15
_symmetry_cell_setting 'monoclinic'
loop_
_space_group_symop_operation_xyz
x,y,z
-x,y,1/2-z
-x,-y,-z
x,-y,1/2+z
1/2+x,1/2+y,z
1/2-x,1/2+y,1/2-z
1/2-x,1/2-y,-z
1/2+x,1/2-y,1/2+z
loop_
_atom_site_type_symbol
_atom_site_label
_atom_site_fract_x
_atom_site_fract_y
_atom_site_fract_z
Si Si1 0.000000 0.344980 0.750000
Si Si2 0.249428 0.409534 0.597421
Si Si3 0.000000 0.003254 0.250000
Si Si4 0.288615 0.364634 0.228075
Si Si5 0.962833 0.162280 0.089426
Si Si6 0.429208 0.784787 0.116380
Si Si7 0.183277 0.032060 0.913005
O O1 0.119557 0.382607 0.703247
O O2 0.015026 0.312227 0.574793
O O3 0.285990 0.390474 0.402307
O O4 0.358588 0.382261 0.633669
O O5 0.252179 0.474059 0.615234
O O6 0.895479 0.037093 0.388220
O O7 0.924475 0.969817 0.161675
O O8 0.199701 0.313981 0.281180
O O9 0.237620 0.414954 0.152894
O O10 0.420812 0.349582 0.085820
O O11 0.913842 0.222227 0.080693
O O12 0.000000 0.164253 0.250000
O O13 0.500000 0.788872 0.250000
#
# Coordination Sequence:
#
# PCOD9268648 Si02
#       7
#     4   8   4   8   8   8   8
#     4  10  26  46  71  94 136 191 226 278 340 404
#     4  11  25  44  65 100 136 177 228 276 336 419
#     4  10  20  32  61  88 132 163 204 270 338 386
#     4  11  25  43  66 101 135 179 222 280 347 394
#     4  11  26  39  72 103 131 176 226 285 345 392
#     4  10  26  47  67  99 138 182 232 283 333 412
#     4  11  22  38  60  95 133 169 214 278 332 405
#
# _framework density 20.871072999999999
#
# number of rings (size 3 to 8) (size 9 to 14) (size 15 to 20)
#    0.000    1.333    1.667    2.500   11.667    2.667 
#    1.500    1.667    0.000    0.000    0.000    0.000 
#    0.000    0.000    0.000    0.000    0.000    0.000 
#
# Total GULP energy -133897.202542 kJ/mol
# GULP energy per Si atom -5579.050106 kJ/mol
# Density = 2.082357 g / cm^3
# Si number density = 20.871073 Si / 1000 Ang^3
#
#
#
# Elastic Constant Matrix: (Units=GPa)
#
#
# Indices 1 2 3 4 5 6 
#
# 1 42.6758 26.2501 27.7754 0.0000 -16.5847 0.0000
# 2 26.2501 136.7295 43.6862 0.0000 -7.5885 0.0000
# 3 27.7754 43.6862 113.9193 0.0000 -13.3557 0.0000
# 4 0.0000 0.0000 0.0000 49.4677 0.0000 -5.5913
# 5 -16.5847 -7.5885 -13.3557 0.0000 17.9514 0.0000
# 6 0.0000 0.0000 0.0000 -5.5913 0.0000 16.2723
#
#
#
# Elastic Compliance Matrix: (Units=1/GPa)
#
#
# Indices 1 2 3 4 5 6 
#
# 1 0.042521 -0.004832 -0.004545 0.000000 0.033860 0.000000
# 2 -0.004832 0.008910 -0.002542 0.000000 -0.002589 0.000000
# 3 -0.004545 -0.002542 0.011222 0.000000 0.003076 0.000000
# 4 0.000000 0.000000 0.000000 0.021032 0.000000 0.007227
# 5 0.033860 -0.002589 0.003076 0.000000 0.088182 0.000000
# 6 0.000000 0.000000 0.000000 0.007227 0.000000 0.063938
#
#
# Mechanical properties :
#
#
# Convention : Reuss Voigt Hill
#
# Bulk Modulus (GPa) = 25.76335 54.30536 40.03435
# Shear Modulus (GPa) = 18.34321 29.77914 24.06117
#
# Velocity S-wave (km/s) = 2.96781 3.78142 3.39904
# Velocity P-wave (km/s) = 4.91067 6.71874 5.88456
#
# Compressibility (1/GPa) = 0.03881482
#
# Stress axis : x y z
#
# Youngs Moduli (GPa) = 23.51763 112.23361 89.11328
#
# Poissons Ratio (x) = 0.54234 0.40499
# Poissons Ratio (y) = 0.11364 0.22655
# Poissons Ratio (z) = 0.10688 0.28532
#
# Static dielectric constant tensor:
#      x y z
#    x 2.225970 0.000000 0.665000 
#    y 0.000000 1.794610 0.000000 
#    z 0.665000 0.000000 2.571090 
# 
# From -- ./inp_files/33434.got.cif
#   From: 2010.05.17/outbox.cif.g08.bks.cpg/sg15_17_cif.got.tgz:33434.got - 2010.06.03 18:47:42.
