data_PCOD9268049
_publ_section_title
;
Structure prediction by ZEFSAII (Michael W. Deem and Ramdas Pophale) SiO2 
 PCOD9268049
Probable space group: C 2/C
;
_chemical_formula_sum "Si O2"
_cell_formula_units_Z 56
_cell_length_a 11.721111
_cell_length_b 28.334241
_cell_length_c 9.985496
_cell_angle_alpha 90.000000
_cell_angle_beta 119.440945
_cell_angle_gamma 90.000000
_cell_volume 2888.016912
_symmetry_space_group_name_H-M "C 2/C"
_symmetry_group_IT_number 15
_symmetry_cell_setting 'monoclinic'
loop_
_space_group_symop_operation_xyz
x,y,z
-x,y,1/2-z
-x,-y,-z
x,-y,1/2+z
1/2+x,1/2+y,z
1/2-x,1/2+y,1/2-z
1/2-x,1/2-y,-z
1/2+x,1/2-y,1/2+z
loop_
_atom_site_type_symbol
_atom_site_label
_atom_site_fract_x
_atom_site_fract_y
_atom_site_fract_z
Si Si1 0.777723 0.940266 0.581084
Si Si2 0.321996 0.390742 0.868481
Si Si3 0.111418 0.112260 0.614219
Si Si4 0.843707 0.306933 0.675352
Si Si5 0.343619 0.300553 0.195057
Si Si6 0.992171 0.453820 0.403911
Si Si7 0.270543 0.553216 0.603335
O O1 0.846149 0.923482 0.755112
O O2 0.831766 0.914216 0.482332
O O3 0.624889 0.926138 0.508237
O O4 0.782830 0.997398 0.581052
O O5 0.225167 0.347953 0.780261
O O6 0.463098 0.373295 0.997130
O O7 0.263094 0.420798 0.957259
O O8 0.181877 0.159414 0.708899
O O9 0.116778 0.074329 0.737647
O O10 0.757939 0.308297 0.487142
O O11 0.826932 0.254261 0.724042
O O12 0.000000 0.315107 0.750000
O O13 0.500000 0.305187 0.250000
O O14 0.855861 0.433713 0.377571
O O15 0.000000 0.464839 0.250000
O O16 0.000000 0.500000 0.500000
#
# Coordination Sequence:
#
# PCOD9268049 Si02
#       7
#     8   8   8   8   8   8   8
#     4  11  26  39  60  91 134 171 213 266 317 389
#     4  12  25  39  63  97 127 167 219 266 323 385
#     4  12  22  42  63  91 130 173 210 263 332 387
#     4  10  22  38  66 100 123 155 218 283 322 388
#     4  10  19  41  68  94 125 163 213 270 335 391
#     4  10  22  40  61  86 122 171 220 266 323 370
#     4  11  23  40  64  90 127 175 220 264 310 380
#
# _framework density 19.390470000000001
#
# number of rings (size 3 to 8) (size 9 to 14) (size 15 to 20)
#    0.000    1.143    4.286    1.714    8.000    3.429 
#    0.000    0.714    0.000    0.000    0.000    0.000 
#    0.000    0.000    0.000    0.000    0.000    0.000 
#
# Total GULP energy -156128.267397 kJ/mol
# GULP energy per Si atom -5576.009550 kJ/mol
# Density = 1.934634 g / cm^3
# Si number density = 19.390470 Si / 1000 Ang^3
#
#
#
# Elastic Constant Matrix: (Units=GPa)
#
#
# Indices 1 2 3 4 5 6 
#
# 1 98.7011 45.1036 35.0029 0.0000 -0.2482 0.0000
# 2 45.1036 131.7907 41.8123 0.0000 -13.3504 0.0000
# 3 35.0029 41.8123 101.1366 0.0000 -6.6570 0.0000
# 4 0.0000 0.0000 0.0000********** 0.000034885.7633
# 5 -0.2482 -13.3504 -6.6570 0.0000 41.0677 0.0000
# 6 0.0000 0.0000 0.000034885.7633 0.0000**********
#
#
#
# Elastic Compliance Matrix: (Units=1/GPa)
#
#
# Indices 1 2 3 4 5 6 
#
# 1 0.012855 -0.003586 -0.003071 0.000000 -0.001586 0.000000
# 2 -0.003586 0.009950 -0.002690 0.000000 0.002777 0.000000
# 3 -0.003071 -0.002690 0.012133 0.000000 0.001074 0.000000
# 4 0.000000 0.000000 0.000000 0.011391 0.000000 0.017120
# 5 -0.001586 0.002777 0.001074 0.000000 0.025417 0.000000
# 6 0.000000 0.000000 0.000000 0.017120 0.000000 0.025686
#
#
# Mechanical properties :
#
#
# Convention : Reuss Voigt Hill
#
# Bulk Modulus (GPa) = 61.55730 63.94067 62.74898
# Shear Modulus (GPa) = 41.13849 -15088.69156 -7523.77653
#
# Velocity S-wave (km/s) = 4.61106 -88.30850 -62.35836
# Velocity P-wave (km/s) = 7.75656 101.80770 71.77968
#
# Compressibility (1/GPa) = 0.01624503
#
# Stress axis : x y z
#
# Youngs Moduli (GPa) = 77.78857 100.50658 82.41902
#
# Poissons Ratio (x) = 0.36040 0.25311
# Poissons Ratio (y) = 0.27894 0.22167
# Poissons Ratio (z) = 0.23889 0.27032
#
# Static dielectric constant tensor:
#      x y z
#    x 1.734970 0.000000 0.055670 
#    y 0.000000 1.669350 0.000000 
#    z 0.055670 0.000000 1.741430 
# 
# From -- ./inp_files/35763.got.cif
#   From: 2010.05.17/outbox.cif.g08.bks.cpg/sg15_18_cif.got.tgz:35763.got - 2010.06.03 18:47:42.
