data_PCOD9268546
_publ_section_title
;
Structure prediction by ZEFSAII (Michael W. Deem and Ramdas Pophale) SiO2 
 PCOD9268546
Probable space group: C 2/C
;
_chemical_formula_sum "Si O2"
_cell_formula_units_Z 56
_cell_length_a 16.411781
_cell_length_b 18.664764
_cell_length_c 13.304429
_cell_angle_alpha 90.000000
_cell_angle_beta 43.630354
_cell_angle_gamma 90.000000
_cell_volume 2812.065914
_symmetry_space_group_name_H-M "C 2/C"
_symmetry_group_IT_number 15
_symmetry_cell_setting 'monoclinic'
loop_
_space_group_symop_operation_xyz
x,y,z
-x,y,1/2-z
-x,-y,-z
x,-y,1/2+z
1/2+x,1/2+y,z
1/2-x,1/2+y,1/2-z
1/2-x,1/2-y,-z
1/2+x,1/2-y,1/2+z
loop_
_atom_site_type_symbol
_atom_site_label
_atom_site_fract_x
_atom_site_fract_y
_atom_site_fract_z
Si Si1 0.741003 0.411292 0.775815
Si Si2 0.391482 0.321301 0.921366
Si Si3 0.509139 0.886024 0.852935
Si Si4 0.082880 0.639374 0.851455
Si Si5 0.875662 0.538238 0.962451
Si Si6 0.714222 0.455738 0.408310
Si Si7 0.726224 0.723822 0.162199
O O1 0.854427 0.396626 0.743503
O O2 0.789074 0.450648 0.633366
O O3 0.668614 0.469963 0.902954
O O4 0.700816 0.334119 0.770981
O O5 0.500000 0.310467 0.750000
O O6 0.286434 0.316997 0.932593
O O7 0.387819 0.399080 0.974073
O O8 0.354613 0.262135 0.037180
O O9 0.500000 0.853196 0.750000
O O10 0.447749 0.964268 0.905120
O O11 0.454032 0.848258 0.000052
O O12 0.193183 0.584160 0.748427
O O13 0.134095 0.711238 0.756601
O O14 0.973589 0.601522 0.890577
O O15 0.796723 0.535022 0.933209
#
# Coordination Sequence:
#
# PCOD9268546 Si02
#       7
#     8   8   8   8   8   8   8
#     4  11  20  34  55  88 123 151 192 238 307 354
#     4  10  23  39  57  86 117 158 200 242 303 353
#     4  11  19  32  56  91 119 149 192 248 302 352
#     4  10  20  32  54  85 120 152 187 235 309 355
#     4  11  18  33  57  94 116 143 187 254 302 347
#     4  11  19  35  60  84 121 149 196 246 295 357
#     4  10  23  38  56  87 122 160 189 247 305 364
#
# _framework density 19.914183999999999
#
# number of rings (size 3 to 8) (size 9 to 14) (size 15 to 20)
#    0.000    1.429    5.714    1.286    4.000    0.000 
#    0.000    1.429    0.000    0.857    0.000    0.000 
#    0.000    0.000    0.000    0.000    0.000    0.000 
#
# Total GULP energy -156080.383218 kJ/mol
# GULP energy per Si atom -5574.299401 kJ/mol
# Density = 1.986886 g / cm^3
# Si number density = 19.914184 Si / 1000 Ang^3
#
#
#
# Elastic Constant Matrix: (Units=GPa)
#
#
# Indices 1 2 3 4 5 6 
#
# 1 39.1652 19.6079 13.8370 0.0000 25.2697 0.0000
# 2 19.6079 123.4371 34.1739 0.0000 4.6985 0.0000
# 3 13.8370 34.1739 82.4425 0.0000 18.3191 0.0000
# 4 0.0000 0.0000 0.0000 33.7664 0.0000 13.8036
# 5 25.2697 4.6985 18.3191 0.0000 28.5721 0.0000
# 6 0.0000 0.0000 0.0000 13.8036 0.0000 17.9988
#
#
#
# Elastic Compliance Matrix: (Units=1/GPa)
#
#
# Indices 1 2 3 4 5 6 
#
# 1 0.070228 -0.010634 0.007036 0.000000 -0.064874 0.000000
# 2 -0.010634 0.010791 -0.005112 0.000000 0.010908 0.000000
# 3 0.007036 -0.005112 0.016633 0.000000 -0.016047 0.000000
# 4 0.000000 0.000000 0.000000 0.043140 0.000000 -0.033085
# 5 -0.064874 0.010908 -0.016047 0.000000 0.100870 0.000000
# 6 0.000000 0.000000 0.000000 -0.033085 0.000000 0.080933
#
#
# Mechanical properties :
#
#
# Convention : Reuss Voigt Hill
#
# Bulk Modulus (GPa) = 12.46379 42.25362 27.35871
# Shear Modulus (GPa) = 13.63293 27.89585 20.76439
#
# Velocity S-wave (km/s) = 2.61929 3.74679 3.23258
# Velocity P-wave (km/s) = 3.92682 6.32312 5.26316
#
# Compressibility (1/GPa) = 0.08023239
#
# Stress axis : x y z
#
# Youngs Moduli (GPa) = 14.23928 92.67327 60.12003
#
# Poissons Ratio (x) = 0.98553 -0.42303
# Poissons Ratio (y) = 0.15143 0.30733
# Poissons Ratio (z) = -0.10019 0.47374
#
# Static dielectric constant tensor:
#      x y z
#    x 1.759290 0.000000 -0.020640 
#    y 0.000000 1.764440 0.000000 
#    z -0.020640 0.000000 1.765440 
# 
# From -- ./inp_files/163056.got.cif
#   From: 2010.05.17/outbox.cif.g08.bks.cpg/sg15_82_cif.got.tgz:163056.got - 2010.06.03 18:47:42.
