data_PCOD9268259
_publ_section_title
;
Structure prediction by ZEFSAII (Michael W. Deem and Ramdas Pophale) SiO2 
 PCOD9268259
Probable space group: C 2/C
;
_chemical_formula_sum "Si O2"
_cell_formula_units_Z 64
_cell_length_a 26.657696
_cell_length_b 7.955006
_cell_length_c 20.964703
_cell_angle_alpha 90.000000
_cell_angle_beta 149.429971
_cell_angle_gamma 90.000000
_cell_volume 2261.104277
_symmetry_space_group_name_H-M "C 2/C"
_symmetry_group_IT_number 15
_symmetry_cell_setting 'monoclinic'
loop_
_space_group_symop_operation_xyz
x,y,z
-x,y,1/2-z
-x,-y,-z
x,-y,1/2+z
1/2+x,1/2+y,z
1/2-x,1/2+y,1/2-z
1/2-x,1/2-y,-z
1/2+x,1/2-y,1/2+z
loop_
_atom_site_type_symbol
_atom_site_label
_atom_site_fract_x
_atom_site_fract_y
_atom_site_fract_z
Si Si1 0.800536 0.515794 0.052149
Si Si2 0.505389 0.751559 0.453405
Si Si3 0.729092 0.291223 0.587079
Si Si4 0.477561 0.544101 0.612634
Si Si5 0.731768 0.049321 0.687063
Si Si6 0.994993 0.612534 0.085470
Si Si7 0.623923 0.322609 0.901828
Si Si8 0.727385 0.295166 0.146747
O O1 0.800346 0.596253 0.121923
O O2 0.686469 0.444783 0.923969
O O3 0.810429 0.657894 0.009206
O O4 0.878418 0.365137 0.128536
O O5 0.477295 0.569039 0.393996
O O6 0.498181 0.796470 0.519670
O O7 0.620926 0.734513 0.562535
O O8 0.463910 0.920846 0.372902
O O9 0.639671 0.404279 0.517343
O O10 0.782319 0.198817 0.703159
O O11 0.519772 0.733427 0.661110
O O12 0.466997 0.408340 0.659022
O O13 0.622338 0.069561 0.537555
O O14 0.723875 0.069456 0.753842
O O15 0.782172 0.876452 0.724627
O O16 0.705321 0.293578 0.048327
#
# Coordination Sequence:
#
# PCOD9268259 Si02
#       8
#     8   8   8   8   8   8   8   8
#     4   9  16  28  46  63  95 127 165 209 239 281
#     4   9  18  32  47  66  96 136 169 201 231 287
#     4   9  17  29  44  68  95 131 162 201 245 285
#     4   9  17  26  46  67  93 120 156 195 245 283
#     4  10  20  30  46  71 105 134 155 192 249 304
#     4   9  18  32  47  66  96 136 169 201 231 287
#     4   9  17  29  44  68  95 131 162 201 245 285
#     4  10  20  30  46  71 105 134 155 192 249 304
#
# _framework density 28.304755
#
# number of rings (size 3 to 8) (size 9 to 14) (size 15 to 20)
#    0.000    2.750    1.250    0.375   10.500    0.000 
#    0.000    0.000    0.000    0.000    0.000    0.000 
#    0.000   90.000    0.500    0.000    0.000    0.000 
#
# Total GULP energy -178485.278723 kJ/mol
# GULP energy per Si atom -5577.664960 kJ/mol
# Density = 2.824033 g / cm^3
# Si number density = 28.304755 Si / 1000 Ang^3
#
#
#
# Elastic Constant Matrix: (Units=GPa)
#
#
# Indices 1 2 3 4 5 6 
#
# 1 97.2358 2.2062 17.5283 0.0000 5.4324 0.0000
# 2 2.2062 172.9650 -6.4208 0.0000 -9.4820 0.0000
# 3 17.5283 -6.4208 31.8306 0.0000 -2.3523 0.0000
# 4 0.0000 0.0000 0.0000 17.6320 0.0000 -12.6675
# 5 5.4324 -9.4820 -2.3523 0.0000 49.7302 0.0000
# 6 0.0000 0.0000 0.0000 -12.6675 0.0000 46.7653
#
#
#
# Elastic Compliance Matrix: (Units=1/GPa)
#
#
# Indices 1 2 3 4 5 6 
#
# 1 0.011578 -0.000484 -0.006597 0.000000 -0.001669 0.000000
# 2 -0.000484 0.005914 0.001552 0.000000 0.001254 0.000000
# 3 -0.006597 0.001552 0.035561 0.000000 0.002699 0.000000
# 4 0.000000 0.000000 0.000000 0.070419 0.000000 0.019075
# 5 -0.001669 0.001254 0.002699 0.000000 0.020658 0.000000
# 6 0.000000 0.000000 0.000000 0.019075 0.000000 0.026550
#
#
# Mechanical properties :
#
#
# Convention : Reuss Voigt Hill
#
# Bulk Modulus (GPa) = 23.81159 36.51765 30.16462
# Shear Modulus (GPa) = 25.54471 42.07334 33.80903
#
# Velocity S-wave (km/s) = 3.00740 3.85962 3.45985
# Velocity P-wave (km/s) = 4.52660 5.72642 5.16149
#
# Compressibility (1/GPa) = 0.04199636
#
# Stress axis : x y z
#
# Youngs Moduli (GPa) = 86.37341 169.08888 28.12038
#
# Poissons Ratio (x) = 0.08185 0.18550
# Poissons Ratio (y) = 0.04181 -0.04365
# Poissons Ratio (z) = 0.56976 -0.26246
#
# Static dielectric constant tensor:
#      x y z
#    x 2.224570 0.000000 0.015890 
#    y 0.000000 2.449150 0.000000 
#    z 0.015890 0.000000 2.390230 
# 
# From -- ./inp_files/283160.got.cif
#   From: 2010.05.17/outbox.cif.g08.bks.cpg/sg15_142_cif.got.tgz:283160.got - 2010.06.03 18:47:42.
