data_PCOD9268640
_publ_section_title
;
Structure prediction by ZEFSAII (Michael W. Deem and Ramdas Pophale) SiO2 
 PCOD9268640
Probable space group: C 2/C
;
_chemical_formula_sum "Si O2"
_cell_formula_units_Z 56
_cell_length_a 8.790357
_cell_length_b 25.700086
_cell_length_c 14.144321
_cell_angle_alpha 90.000000
_cell_angle_beta 61.818761
_cell_angle_gamma 90.000000
_cell_volume 2816.598121
_symmetry_space_group_name_H-M "C 2/C"
_symmetry_group_IT_number 15
_symmetry_cell_setting 'monoclinic'
loop_
_space_group_symop_operation_xyz
x,y,z
-x,y,1/2-z
-x,-y,-z
x,-y,1/2+z
1/2+x,1/2+y,z
1/2-x,1/2+y,1/2-z
1/2-x,1/2-y,-z
1/2+x,1/2-y,1/2+z
loop_
_atom_site_type_symbol
_atom_site_label
_atom_site_fract_x
_atom_site_fract_y
_atom_site_fract_z
Si Si1 0.573240 0.221048 0.573190
Si Si2 0.319432 0.998334 0.864541
Si Si3 0.899203 0.395361 0.377109
Si Si4 0.061113 0.690275 0.088546
Si Si5 0.517419 0.924160 0.546031
Si Si6 0.836493 0.078933 0.234407
Si Si7 0.208530 0.801111 0.806613
O O1 0.750000 0.250000 0.500000
O O2 0.635910 0.165009 0.593455
O O3 0.466568 0.208437 0.509490
O O4 0.442696 0.259519 0.666877
O O5 0.500000 0.998566 0.750000
O O6 0.369570 0.971509 0.948999
O O7 0.193643 0.961579 0.841792
O O8 0.263124 0.057827 0.899834
O O9 0.005843 0.415507 0.437406
O O10 0.000000 0.393917 0.250000
O O11 0.086256 0.628225 0.074909
O O12 0.878532 0.704183 0.191615
O O13 0.215722 0.707850 0.110205
O O14 0.326727 0.926887 0.647141
O O15 0.847879 0.138740 0.193496
O O16 0.000000 0.067245 0.250000
#
# Coordination Sequence:
#
# PCOD9268640 Si02
#       7
#     8   8   8   8   8   8   8
#     4  11  25  36  57  83 122 157 200 246 294 350
#     4   9  17  36  61  86 114 148 190 243 292 362
#     4  10  22  36  57  84 115 155 199 236 290 352
#     4   9  19  37  58  87 111 152 196 245 295 355
#     4   9  17  35  59  88 113 145 193 240 295 353
#     4  10  20  32  60  91 119 146 190 248 307 350
#     4  10  20  36  61  83 118 151 198 245 298 352
#
# _framework density 19.882141000000001
#
# number of rings (size 3 to 8) (size 9 to 14) (size 15 to 20)
#    0.000    2.286    1.429    0.857    8.000    0.000 
#    0.000    0.714    0.000    3.429    0.000    0.000 
#    0.000    0.000    0.000    0.000    0.000    0.000 
#
# Total GULP energy -155963.545862 kJ/mol
# GULP energy per Si atom -5570.126638 kJ/mol
# Density = 1.983689 g / cm^3
# Si number density = 19.882141 Si / 1000 Ang^3
#
#
#
# Elastic Constant Matrix: (Units=GPa)
#
#
# Indices 1 2 3 4 5 6 
#
# 1 83.7239 62.9570 15.2261 0.0000 10.3037 0.0000
# 2 62.9570 179.7527 38.7146 0.0000 -3.4819 0.0000
# 3 15.2261 38.7146 48.3580 0.0000 21.7675 0.0000
# 4 0.0000 0.0000 0.0000 38.7414 0.0000 10.2879
# 5 10.3037 -3.4819 21.7675 0.0000 22.8310 0.0000
# 6 0.0000 0.0000 0.0000 10.2879 0.0000 9.2642
#
#
#
# Elastic Compliance Matrix: (Units=1/GPa)
#
#
# Indices 1 2 3 4 5 6 
#
# 1 0.019801 -0.009676 0.010859 0.000000 -0.020765 0.000000
# 2 -0.009676 0.013408 -0.018523 0.000000 0.024072 0.000000
# 3 0.010859 -0.018523 0.062306 0.000000 -0.067130 0.000000
# 4 0.000000 0.000000 0.000000 0.036607 0.000000 -0.040652
# 5 -0.020765 0.024072 -0.067130 0.000000 0.120845 0.000000
# 6 0.000000 0.000000 0.000000 -0.040652 0.000000 0.153086
#
#
# Mechanical properties :
#
#
# Convention : Reuss Voigt Hill
#
# Bulk Modulus (GPa) = 16.43794 60.62557 38.53176
# Shear Modulus (GPa) = 10.84570 27.16313 19.00441
#
# Velocity S-wave (km/s) = 2.33813 3.70023 3.09504
# Velocity P-wave (km/s) = 3.94649 6.98672 5.67402
#
# Compressibility (1/GPa) = 0.06083487
#
# Stress axis : x y z
#
# Youngs Moduli (GPa) = 50.50330 74.58296 16.04969
#
# Poissons Ratio (x) = 0.72167 -0.17428
# Poissons Ratio (y) = 0.48867 0.29729
# Poissons Ratio (z) = -0.54841 1.38150
#
# Static dielectric constant tensor:
#      x y z
#    x 1.681460 0.000000 0.019380 
#    y 0.000000 1.782300 0.000000 
#    z 0.019380 0.000000 1.728010 
# 
# From -- ./inp_files/138514.got.cif
#   From: 2010.05.17/outbox.cif.g08.bks.cpg/sg15_70_cif.got.tgz:138514.got - 2010.06.03 18:47:42.
