data_PCOD9268953
_publ_section_title
;
Structure prediction by ZEFSAII (Michael W. Deem and Ramdas Pophale) SiO2 
 PCOD9268953
Probable space group: C 2/C
;
_chemical_formula_sum "Si O2"
_cell_formula_units_Z 60
_cell_length_a 19.199765
_cell_length_b 11.192153
_cell_length_c 32.388834
_cell_angle_alpha 90.000000
_cell_angle_beta 153.493221
_cell_angle_gamma 90.000000
_cell_volume 3106.242429
_symmetry_space_group_name_H-M "C 2/C"
_symmetry_group_IT_number 15
_symmetry_cell_setting 'monoclinic'
loop_
_space_group_symop_operation_xyz
x,y,z
-x,y,1/2-z
-x,-y,-z
x,-y,1/2+z
1/2+x,1/2+y,z
1/2-x,1/2+y,1/2-z
1/2-x,1/2-y,-z
1/2+x,1/2-y,1/2+z
loop_
_atom_site_type_symbol
_atom_site_label
_atom_site_fract_x
_atom_site_fract_y
_atom_site_fract_z
Si Si1 0.286281 0.879037 0.540998
Si Si2 0.225704 0.525893 0.083506
Si Si3 0.841457 0.084381 0.307253
Si Si4 0.500000 0.352273 0.250000
Si Si5 0.825028 0.129082 0.056781
Si Si6 0.107208 0.594097 0.109963
Si Si7 0.900867 0.265012 0.780254
Si Si8 0.526429 0.354779 0.096110
O O1 0.250000 0.750000 0.500000
O O2 0.468261 0.869022 0.647253
O O3 0.157296 0.876046 0.508780
O O4 0.250471 0.002630 0.498582
O O5 0.363336 0.429097 0.156795
O O6 0.290106 0.626501 0.086997
O O7 0.194499 0.568066 0.113557
O O8 0.061577 0.469329 0.981287
O O9 0.711001 0.052225 0.203734
O O10 0.767182 0.189640 0.294964
O O11 0.996753 0.121122 0.364570
O O12 0.880112 0.976417 0.358767
O O13 0.583218 0.282744 0.257138
O O14 0.750000 0.250000 0.000000
O O15 0.081923 0.735815 0.103151
O O16 0.949574 0.170455 0.841674
#
# Coordination Sequence:
#
# PCOD9268953 Si02
#       8
#     8   8   8   4   8   8   8   8
#     4   9  17  35  59  82 108 147 194 238 285 342
#     4  11  22  37  58  86 115 147 189 242 299 346
#     4  10  21  36  56  84 114 153 194 234 284 347
#     4  12  22  38  60  86 116 148 198 252 294 342
#     4  11  23  38  59  86 122 159 195 240 293 352
#     4  10  21  35  59  87 114 146 190 243 290 346
#     4  10  20  33  57  83 108 144 194 244 286 337
#     4   9  17  34  56  80 111 147 186 230 285 347
#
# _framework density 19.315943999999998
#
# number of rings (size 3 to 8) (size 9 to 14) (size 15 to 20)
#    0.000    1.867    0.000    7.200    0.000    6.400 
#    0.000    1.333    0.000    4.000    0.000    0.000 
#    0.000    0.000    0.000    0.000    0.000    0.000 
#
# Total GULP energy -167207.014265 kJ/mol
# GULP energy per Si atom -5573.567142 kJ/mol
# Density = 1.927198 g / cm^3
# Si number density = 19.315944 Si / 1000 Ang^3
#
#
#
# Elastic Constant Matrix: (Units=GPa)
#
#
# Indices 1 2 3 4 5 6 
#
# 1 111.9960 38.2704 26.3179 -0.0001 5.7557 0.0000
# 2 38.2704 68.8910 20.9424 0.0001 5.5812 0.0000
# 3 26.3179 20.9424 59.1943 0.0006 15.9294 -0.0001
# 4 -0.0001 0.0001 0.0006 33.3772 0.0000 0.6209
# 5 5.7557 5.5812 15.9294 0.0000 24.6026 0.0000
# 6 0.0000 0.0000 -0.0001 0.6209 0.0000 20.8762
#
#
#
# Elastic Compliance Matrix: (Units=1/GPa)
#
#
# Indices 1 2 3 4 5 6 
#
# 1 0.011551 -0.005440 -0.003410 0.000000 0.000740 0.000000
# 2 -0.005440 0.018827 -0.004160 0.000000 -0.000305 0.000000
# 3 -0.003410 -0.004160 0.023509 0.000000 -0.013480 0.000000
# 4 0.000000 0.000000 0.000000 0.029977 0.000000 -0.000892
# 5 0.000740 -0.000305 -0.013480 0.000000 0.049270 0.000000
# 6 0.000000 0.000000 0.000000 -0.000892 0.000000 0.047928
#
#
# Mechanical properties :
#
#
# Convention : Reuss Voigt Hill
#
# Bulk Modulus (GPa) = 35.88537 45.68252 40.78395
# Shear Modulus (GPa) = 23.10837 26.07459 24.59148
#
# Velocity S-wave (km/s) = 3.46256 3.67808 3.57195
# Velocity P-wave (km/s) = 5.88254 6.46059 6.17833
#
# Compressibility (1/GPa) = 0.02786651
#
# Stress axis : x y z
#
# Youngs Moduli (GPa) = 86.57117 53.11464 42.53709
#
# Poissons Ratio (x) = 0.28896 0.14505
# Poissons Ratio (y) = 0.47097 0.17696
# Poissons Ratio (z) = 0.29521 0.22096
#
# Static dielectric constant tensor:
#      x y z
#    x 1.738420 0.000000 -0.000070 
#    y 0.000000 1.698440 0.000000 
#    z -0.000070 0.000000 1.710290 
# 
# From -- ./inp_files/316082.got.cif
#   From: 2010.05.17/outbox.cif.g08.bks.cpg/sg15_159_cif.got.tgz:316082.got - 2010.06.03 18:47:42.
