data_PCOD9268798
_publ_section_title
;
Structure prediction by ZEFSAII (Michael W. Deem and Ramdas Pophale) SiO2 
 PCOD9268798
Probable space group: C 2/C
;
_chemical_formula_sum "Si O2"
_cell_formula_units_Z 56
_cell_length_a 24.894554
_cell_length_b 12.638776
_cell_length_c 9.346515
_cell_angle_alpha 90.000000
_cell_angle_beta 67.589745
_cell_angle_gamma 90.000000
_cell_volume 2718.664193
_symmetry_space_group_name_H-M "C 2/C"
_symmetry_group_IT_number 15
_symmetry_cell_setting 'monoclinic'
loop_
_space_group_symop_operation_xyz
x,y,z
-x,y,1/2-z
-x,-y,-z
x,-y,1/2+z
1/2+x,1/2+y,z
1/2-x,1/2+y,1/2-z
1/2-x,1/2-y,-z
1/2+x,1/2-y,1/2+z
loop_
_atom_site_type_symbol
_atom_site_label
_atom_site_fract_x
_atom_site_fract_y
_atom_site_fract_z
Si Si1 0.439455 0.253010 0.242069
Si Si2 0.730852 0.073505 0.464311
Si Si3 0.508782 0.336127 0.584843
Si Si4 0.924092 0.942965 0.458362
Si Si5 0.768798 0.255459 0.762056
Si Si6 0.806035 0.046306 0.663931
Si Si7 0.324762 0.861671 0.966290
O O1 0.500000 0.214610 0.250000
O O2 0.430915 0.373097 0.309643
O O3 0.386729 0.183671 0.356617
O O4 0.452398 0.265146 0.060741
O O5 0.722320 0.185683 0.397191
O O6 0.757185 0.073677 0.595381
O O7 0.780625 0.022979 0.315578
O O8 0.678985 0.987642 0.504759
O O9 0.500000 0.287534 0.750000
O O10 0.449970 0.368442 0.558550
O O11 0.539829 0.448881 0.579854
O O12 0.858993 0.982355 0.545954
O O13 0.816456 0.161811 0.720725
O O14 0.782932 0.338759 0.872705
O O15 0.706884 0.203347 0.872469
#
# Coordination Sequence:
#
# PCOD9268798 Si02
#       7
#     8   8   8   8   8   8   8
#     4  10  21  37  59  83 116 159 201 240 302 361
#     4  11  22  39  58  88 122 159 199 245 292 350
#     4  10  20  33  52  82 121 155 198 245 295 348
#     4  10  20  33  52  84 124 161 188 233 299 362
#     4  10  21  38  60  92 119 162 196 241 295 358
#     4  11  23  34  60  88 127 157 199 237 295 367
#     4  10  21  39  62  86 124 157 197 244 301 354
#
# _framework density 20.598351000000001
#
# number of rings (size 3 to 8) (size 9 to 14) (size 15 to 20)
#    0.000    1.714    1.429    4.286    8.000    0.000 
#    0.000    0.000    3.143    0.857    0.000    4.000 
#    0.000    0.000    0.000    0.000    0.000    0.000 
#
# Total GULP energy -156231.494758 kJ/mol
# GULP energy per Si atom -5579.696241 kJ/mol
# Density = 2.055147 g / cm^3
# Si number density = 20.598351 Si / 1000 Ang^3
#
#
#
# Elastic Constant Matrix: (Units=GPa)
#
#
# Indices 1 2 3 4 5 6 
#
# 1 66.0686 26.5146 45.8321 0.0000 -23.3039 0.0000
# 2 26.5146 56.5964 12.7045 0.0000 -19.3844 0.0000
# 3 45.8321 12.7045 130.0472 0.0000 -12.1984 0.0000
# 4 0.0000 0.0000 0.0000 35.2254 0.0000 -6.8632
# 5 -23.3039 -19.3844 -12.1984 0.0000 29.2135 0.0000
# 6 0.0000 0.0000 0.0000 -6.8632 0.0000 15.4568
#
#
#
# Elastic Compliance Matrix: (Units=1/GPa)
#
#
# Indices 1 2 3 4 5 6 
#
# 1 0.028670 -0.006396 -0.008047 0.000000 0.015265 0.000000
# 2 -0.006396 0.024382 0.000948 0.000000 0.011472 0.000000
# 3 -0.008047 0.000948 0.010293 0.000000 -0.001492 0.000000
# 4 0.000000 0.000000 0.000000 0.031077 0.000000 0.013799
# 5 0.015265 0.011472 -0.001492 0.000000 0.053397 0.000000
# 6 0.000000 0.000000 0.000000 0.013799 0.000000 0.070823
#
#
# Mechanical properties :
#
#
# Convention : Reuss Voigt Hill
#
# Bulk Modulus (GPa) = 27.50716 46.97939 37.24328
# Shear Modulus (GPa) = 19.39859 27.15655 23.27757
#
# Velocity S-wave (km/s) = 3.07213 3.63490 3.36530
# Velocity P-wave (km/s) = 5.09579 6.36188 5.76370
#
# Compressibility (1/GPa) = 0.03635417
#
# Stress axis : x y z
#
# Youngs Moduli (GPa) = 34.88014 41.01403 97.15389
#
# Poissons Ratio (x) = 0.26234 0.78181
# Poissons Ratio (y) = 0.22311 -0.09215
# Poissons Ratio (z) = 0.28069 -0.03890
#
# Static dielectric constant tensor:
#      x y z
#    x 1.778200 0.000000 0.027440 
#    y 0.000000 1.753620 0.000000 
#    z 0.027440 0.000000 1.766630 
# 
# From -- ./inp_files/61491.got.cif
#   From: 2010.05.17/outbox.cif.g08.bks.cpg/sg15_31_cif.got.tgz:61491.got - 2010.06.03 18:47:42.
