data_PCOD9268884
_publ_section_title
;
Structure prediction by ZEFSAII (Michael W. Deem and Ramdas Pophale) SiO2 
 PCOD9268884
Probable space group: C 2/C
;
_chemical_formula_sum "Si O2"
_cell_formula_units_Z 24
_cell_length_a 10.119063
_cell_length_b 21.721829
_cell_length_c 5.352609
_cell_angle_alpha 90.000000
_cell_angle_beta 112.811886
_cell_angle_gamma 90.000000
_cell_volume 1084.503063
_symmetry_space_group_name_H-M "C 2/C"
_symmetry_group_IT_number 15
_symmetry_cell_setting 'monoclinic'
loop_
_space_group_symop_operation_xyz
x,y,z
-x,y,1/2-z
-x,-y,-z
x,-y,1/2+z
1/2+x,1/2+y,z
1/2-x,1/2+y,1/2-z
1/2-x,1/2-y,-z
1/2+x,1/2-y,1/2+z
loop_
_atom_site_type_symbol
_atom_site_label
_atom_site_fract_x
_atom_site_fract_y
_atom_site_fract_z
Si Si1 0.852661 0.658182 0.994364
Si Si2 0.335952 0.974799 0.343329
Si Si3 0.090698 0.205959 0.074958
O O1 0.728195 0.665540 0.108653
O O2 0.000000 0.649413 0.250000
O O3 0.833589 0.598398 0.811363
O O4 0.858875 0.722960 0.853284
O O5 0.500000 0.000000 0.500000
O O6 0.267865 0.991928 0.558101
O O7 0.000000 0.187331 0.250000
O O8 0.000000 0.205836 0.750000
#
# Coordination Sequence:
#
# PCOD9268884 Si02
#       3
#     8   8   8
#     4  10  21  38  64  89 119 153 207 244 288 351
#     4  10  20  33  54  91 112 145 188 259 285 324
#     4  10  24  40  58  88 124 162 187 244 304 353
#
# _framework density 22.129951999999999
#
# number of rings (size 3 to 8) (size 9 to 14) (size 15 to 20)
#    0.000    2.000    3.333    0.000    4.667   14.667 
#    0.000    0.000    0.000    6.000    0.000    0.000 
#    0.000    0.000    0.000    0.000    0.000    0.000 
#
# Total GULP energy -67053.576463 kJ/mol
# GULP energy per Si atom -5587.798039 kJ/mol
# Density = 2.207958 g / cm^3
# Si number density = 22.129952 Si / 1000 Ang^3
#
#
#
# Elastic Constant Matrix: (Units=GPa)
#
#
# Indices 1 2 3 4 5 6 
#
# 1 132.3346 24.6645 32.3340 0.0000 -16.8714 0.0000
# 2 24.6645 93.2994 11.0494 0.0000 7.8834 0.0000
# 3 32.3340 11.0494 92.9132 0.0000 -26.2230 0.0000
# 4 0.0000 0.0000 0.0000 11.6723 0.0000 3.9636
# 5 -16.8714 7.8834 -26.2230 0.0000 25.2256 0.0000
# 6 0.0000 0.0000 0.0000 3.9636 0.0000 55.3996
#
#
#
# Elastic Compliance Matrix: (Units=1/GPa)
#
#
# Indices 1 2 3 4 5 6 
#
# 1 0.009089 -0.002731 -0.001248 0.000000 0.005635 0.000000
# 2 -0.002731 0.012559 -0.003066 0.000000 -0.008938 0.000000
# 3 -0.001248 -0.003066 0.016411 0.000000 0.017184 0.000000
# 4 0.000000 0.000000 0.000000 0.087806 0.000000 -0.006282
# 5 0.005635 -0.008938 0.017184 0.000000 0.064068 0.000000
# 6 0.000000 0.000000 0.000000 -0.006282 0.000000 0.018500
#
#
# Mechanical properties :
#
#
# Convention : Reuss Voigt Hill
#
# Bulk Modulus (GPa) = 41.71938 50.51588 46.11763
# Shear Modulus (GPa) = 21.69085 35.15947 28.42516
#
# Velocity S-wave (km/s) = 3.13414 3.99027 3.58783
# Velocity P-wave (km/s) = 5.65598 6.64124 6.16831
#
# Compressibility (1/GPa) = 0.02396967
#
# Stress axis : x y z
#
# Youngs Moduli (GPa) = 110.02387 79.62731 60.93353
#
# Poissons Ratio (x) = 0.21747 0.07603
# Poissons Ratio (y) = 0.30049 0.18680
# Poissons Ratio (z) = 0.13728 0.24411
#
# Static dielectric constant tensor:
#      x y z
#    x 1.761720 0.000000 0.107110 
#    y 0.000000 1.797510 0.000000 
#    z 0.107110 0.000000 1.646920 
# 
# From -- ./inp_files/1559.got.cif
#   From: 2010.05.17/outbox.cif.g08.bks.cpg/sg15_1_cif.got.tgz:1559.got - 2010.06.03 18:47:42.
