data_PCOD9268587
_publ_section_title
;
Structure prediction by ZEFSAII (Michael W. Deem and Ramdas Pophale) SiO2 
 PCOD9268587
Probable space group: C 2/C
;
_chemical_formula_sum "Si O2"
_cell_formula_units_Z 60
_cell_length_a 27.628132
_cell_length_b 7.600379
_cell_length_c 18.971528
_cell_angle_alpha 90.000000
_cell_angle_beta 139.054965
_cell_angle_gamma 90.000000
_cell_volume 2610.671691
_symmetry_space_group_name_H-M "C 2/C"
_symmetry_group_IT_number 15
_symmetry_cell_setting 'monoclinic'
loop_
_space_group_symop_operation_xyz
x,y,z
-x,y,1/2-z
-x,-y,-z
x,-y,1/2+z
1/2+x,1/2+y,z
1/2-x,1/2+y,1/2-z
1/2-x,1/2-y,-z
1/2+x,1/2-y,1/2+z
loop_
_atom_site_type_symbol
_atom_site_label
_atom_site_fract_x
_atom_site_fract_y
_atom_site_fract_z
Si Si1 0.427950 0.247795 0.287489
Si Si2 0.420004 0.653009 0.508980
Si Si3 0.500000 0.004506 0.750000
Si Si4 0.154875 0.345307 0.424246
Si Si5 0.206908 0.538222 0.343817
Si Si6 0.691258 0.630182 0.664716
Si Si7 0.312425 0.017336 0.898431
Si Si8 0.152503 0.934633 0.427862
O O1 0.492325 0.333344 0.404627
O O2 0.364635 0.145122 0.259697
O O3 0.381461 0.368444 0.182114
O O4 0.472109 0.115038 0.283816
O O5 0.377197 0.503779 0.417655
O O6 0.407294 0.599655 0.576861
O O7 0.376555 0.839104 0.454209
O O8 0.430951 0.122445 0.653232
O O9 0.173114 0.413105 0.366893
O O10 0.194204 0.461009 0.527220
O O11 0.169747 0.140504 0.444183
O O12 0.249469 0.437593 0.329122
O O13 0.271674 0.644794 0.456462
O O14 0.673836 0.830248 0.625177
O O15 0.737026 0.600815 0.786189
#
# Coordination Sequence:
#
# PCOD9268587 Si02
#       8
#     8   8   4   8   8   8   8   8
#     4  11  20  37  59  90 134 163 208 261 325 380
#     4  11  21  39  64  93 122 171 216 259 315 383
#     4  10  20  32  56  92 122 166 200 260 314 376
#     4  11  22  37  66  92 132 162 215 264 326 376
#     4  10  23  42  59 100 127 170 206 273 329 376
#     4  11  25  42  69  94 126 166 229 261 320 382
#     4  12  22  42  68  93 124 174 215 271 308 389
#     4  11  21  36  61  98 129 167 210 263 322 388
#
# _framework density 22.982592
#
# number of rings (size 3 to 8) (size 9 to 14) (size 15 to 20)
#    0.000    1.067    6.667    1.600    1.867    1.067 
#    0.000    0.667    0.000    0.800    0.000    0.000 
#    0.000    0.000    0.000    0.000    0.000    0.000 
#
# Total GULP energy -167794.770146 kJ/mol
# GULP energy per Si atom -5593.159005 kJ/mol
# Density = 2.293028 g / cm^3
# Si number density = 22.982592 Si / 1000 Ang^3
#
#
#
# Elastic Constant Matrix: (Units=GPa)
#
#
# Indices 1 2 3 4 5 6 
#
# 1 79.3927 20.3402 34.7208 0.0000 14.6217 0.0000
# 2 20.3402 102.3456 41.6512 0.0000 19.1871 0.0000
# 3 34.7208 41.6512 121.7028 0.0000 21.1983 0.0000
# 4 0.0000 0.0000 0.0000 29.5564 0.0000 -0.4777
# 5 14.6217 19.1871 21.1983 0.0000 37.6504 0.0000
# 6 0.0000 0.0000 0.0000 -0.4777 0.0000 16.7371
#
#
#
# Elastic Compliance Matrix: (Units=1/GPa)
#
#
# Indices 1 2 3 4 5 6 
#
# 1 0.014932 -0.000969 -0.003331 0.000000 -0.003430 0.000000
# 2 -0.000969 0.011982 -0.003134 0.000000 -0.003966 0.000000
# 3 -0.003331 -0.003134 0.010795 0.000000 -0.003187 0.000000
# 4 0.000000 0.000000 0.000000 0.033849 0.000000 0.000966
# 5 -0.003430 -0.003966 -0.003187 0.000000 0.031708 0.000000
# 6 0.000000 0.000000 0.000000 0.000966 0.000000 0.059775
#
#
# Mechanical properties :
#
#
# Convention : Reuss Voigt Hill
#
# Bulk Modulus (GPa) = 43.77940 55.20728 49.49334
# Shear Modulus (GPa) = 26.95096 30.57068 28.76082
#
# Velocity S-wave (km/s) = 3.42814 3.65110 3.54138
# Velocity P-wave (km/s) = 5.89575 6.46897 6.18900
#
# Compressibility (1/GPa) = 0.02284179
#
# Stress axis : x y z
#
# Youngs Moduli (GPa) = 66.96894 83.45790 92.63890
#
# Poissons Ratio (x) = 0.08088 0.30858
# Poissons Ratio (y) = 0.06490 0.29028
# Poissons Ratio (z) = 0.22308 0.26152
#
# Static dielectric constant tensor:
#      x y z
#    x 1.890760 0.000000 -0.004470 
#    y 0.000000 1.880880 0.000000 
#    z -0.004470 0.000000 1.929490 
# 
# From -- ./inp_files/258746.got.cif
#   From: 2010.05.17/outbox.cif.g08.bks.cpg/sg15_130_cif.got.tgz:258746.got - 2010.06.03 18:47:42.
