data_PCOD9268559
_publ_section_title
;
Structure prediction by ZEFSAII (Michael W. Deem and Ramdas Pophale) SiO2 
 PCOD9268559
Probable space group: C 2/C
;
_chemical_formula_sum "Si O2"
_cell_formula_units_Z 56
_cell_length_a 10.494871
_cell_length_b 24.597041
_cell_length_c 11.537701
_cell_angle_alpha 90.000000
_cell_angle_beta 75.385246
_cell_angle_gamma 90.000000
_cell_volume 2882.006531
_symmetry_space_group_name_H-M "C 2/C"
_symmetry_group_IT_number 15
_symmetry_cell_setting 'monoclinic'
loop_
_space_group_symop_operation_xyz
x,y,z
-x,y,1/2-z
-x,-y,-z
x,-y,1/2+z
1/2+x,1/2+y,z
1/2-x,1/2+y,1/2-z
1/2-x,1/2-y,-z
1/2+x,1/2-y,1/2+z
loop_
_atom_site_type_symbol
_atom_site_label
_atom_site_fract_x
_atom_site_fract_y
_atom_site_fract_z
Si Si1 0.520503 0.300718 0.990814
Si Si2 0.000000 0.220876 0.750000
Si Si3 0.202922 0.316975 0.681797
Si Si4 0.054943 0.568209 0.867474
Si Si5 0.500000 0.903827 0.750000
Si Si6 0.834132 0.534839 0.095708
Si Si7 0.478735 0.816123 0.391447
Si Si8 0.281953 0.643414 0.421062
O O1 0.668839 0.315655 0.925445
O O2 0.505044 0.236859 0.961983
O O3 0.418492 0.333162 0.934208
O O4 0.486618 0.310354 0.132669
O O5 0.874118 0.260245 0.796341
O O6 0.100192 0.362866 0.664233
O O7 0.243280 0.331644 0.804921
O O8 0.176593 0.528654 0.870635
O O9 0.000000 0.567174 0.750000
O O10 0.071010 0.631592 0.893471
O O11 0.933018 0.543244 0.966513
O O12 0.585583 0.940034 0.814879
O O13 0.719202 0.577959 0.095632
O O14 0.500000 0.802320 0.250000
O O15 0.332996 0.837620 0.462297
#
# Coordination Sequence:
#
# PCOD9268559 Si02
#       8
#     8   4   8   8   4   8   8   8
#     4  12  23  37  55  82 122 155 195 227 288 362
#     4  11  24  38  52  76 122 154 188 242 287 336
#     4  10  21  37  54  81 109 155 195 227 281 348
#     4   9  17  30  49  83 112 140 189 232 299 324
#     4   9  18  34  58  80 120 142 186 242 285 332
#     4   9  17  32  54  79 113 144 180 245 284 332
#     4  10  20  32  55  83 116 152 184 241 281 338
#     4  10  20  36  56  79 112 155 194 234 285 342
#
# _framework density 19.430906
#
# number of rings (size 3 to 8) (size 9 to 14) (size 15 to 20)
#    0.000    2.000    2.143    2.143    4.000    0.000 
#    0.000    0.000    0.000    0.000    0.000    9.000 
#   25.714    0.000    0.000    0.000    0.000    0.000 
#
# Total GULP energy -156160.981958 kJ/mol
# GULP energy per Si atom -5577.177927 kJ/mol
# Density = 1.938668 g / cm^3
# Si number density = 19.430906 Si / 1000 Ang^3
#
#
#
# Elastic Constant Matrix: (Units=GPa)
#
#
# Indices 1 2 3 4 5 6 
#
# 1 46.2034 38.0617 -1.4798 0.0000 -4.9414 0.0000
# 2 38.0617 98.7937 3.4317 0.0000 -0.7225 0.0000
# 3 -1.4798 3.4317 73.0943 0.0000 12.0309 0.0000
# 4 0.0000 0.0000 0.0000 46.3563 0.0000 1.6812
# 5 -4.9414 -0.7225 12.0309 0.0000 30.3796 0.0000
# 6 0.0000 0.0000 0.0000 1.6812 0.0000 12.6647
#
#
#
# Elastic Compliance Matrix: (Units=1/GPa)
#
#
# Indices 1 2 3 4 5 6 
#
# 1 0.032457 -0.012485 0.000453 0.000000 0.004803 0.000000
# 2 -0.012485 0.014947 -0.000726 0.000000 -0.001388 0.000000
# 3 0.000453 -0.000726 0.014671 0.000000 -0.005754 0.000000
# 4 0.000000 0.000000 0.000000 0.021676 0.000000 -0.002877
# 5 0.004803 -0.001388 -0.005754 0.000000 0.035944 0.000000
# 6 0.000000 0.000000 0.000000 -0.002877 0.000000 0.079342
#
#
# Mechanical properties :
#
#
# Convention : Reuss Voigt Hill
#
# Bulk Modulus (GPa) = 27.35363 33.12430 30.23896
# Shear Modulus (GPa) = 21.12024 29.75195 25.43610
#
# Velocity S-wave (km/s) = 3.30045 3.91726 3.62201
# Velocity P-wave (km/s) = 5.35088 6.12732 5.75222
#
# Compressibility (1/GPa) = 0.03655822
#
# Stress axis : x y z
#
# Youngs Moduli (GPa) = 30.81045 66.90223 68.16057
#
# Poissons Ratio (x) = 0.83527 -0.03086
# Poissons Ratio (y) = 0.38467 0.04949
# Poissons Ratio (z) = -0.01395 0.04858
#
# Static dielectric constant tensor:
#      x y z
#    x 1.624930 0.000000 -0.018640 
#    y 0.000000 1.739820 0.000000 
#    z -0.018640 0.000000 1.662350 
# 
# From -- ./inp_files/90747.got.cif
#   From: 2010.05.17/outbox.cif.g08.bks.cpg/sg15_46_cif.got.tgz:90747.got - 2010.06.03 18:47:42.
