data_PCOD9268102
_publ_section_title
;
Structure prediction by ZEFSAII (Michael W. Deem and Ramdas Pophale) SiO2 
 PCOD9268102
Probable space group: C 2/C
;
_chemical_formula_sum "Si O2"
_cell_formula_units_Z 64
_cell_length_a 11.462414
_cell_length_b 10.731905
_cell_length_c 24.820723
_cell_angle_alpha 90.000000
_cell_angle_beta 83.367293
_cell_angle_gamma 90.000000
_cell_volume 3032.849296
_symmetry_space_group_name_H-M "C 2/C"
_symmetry_group_IT_number 15
_symmetry_cell_setting 'monoclinic'
loop_
_space_group_symop_operation_xyz
x,y,z
-x,y,1/2-z
-x,-y,-z
x,-y,1/2+z
1/2+x,1/2+y,z
1/2-x,1/2+y,1/2-z
1/2-x,1/2-y,-z
1/2+x,1/2-y,1/2+z
loop_
_atom_site_type_symbol
_atom_site_label
_atom_site_fract_x
_atom_site_fract_y
_atom_site_fract_z
Si Si1 0.401757 0.595279 0.830127
Si Si2 0.010343 0.556470 0.612080
Si Si3 0.239466 0.573568 0.049386
Si Si4 0.947768 0.341799 0.695607
Si Si5 0.128638 0.960447 0.857188
Si Si6 0.221085 0.365851 0.431555
Si Si7 0.228677 0.135158 0.769368
Si Si8 0.442584 0.763808 0.201042
O O1 0.464868 0.730284 0.827483
O O2 0.499825 0.501643 0.846074
O O3 0.293792 0.589401 0.876332
O O4 0.358362 0.579716 0.771468
O O5 0.950578 0.445388 0.649791
O O6 0.916029 0.613226 0.575087
O O7 0.029378 0.665472 0.655663
O O8 0.124097 0.497718 0.577504
O O9 0.346835 0.529584 0.081186
O O10 0.239612 0.722633 0.060627
O O11 0.250133 0.560602 0.984899
O O12 0.823963 0.271460 0.712918
O O13 0.000000 0.386789 0.750000
O O14 0.138542 0.823216 0.831802
O O15 0.219861 0.048039 0.821277
O O16 0.354025 0.142079 0.735212
O O17 0.500000 0.698381 0.250000
#
# Coordination Sequence:
#
# PCOD9268102 Si02
#       8
#     8   8   8   8   8   8   8   8
#     4  10  19  42  64  90 122 169 216 249 329 394
#     4  12  22  39  65  95 124 163 221 270 316 393
#     4  11  24  43  65  89 130 166 217 276 322 380
#     4   9  20  34  61  92 124 165 205 257 316 391
#     4  11  23  40  62  91 133 167 205 268 318 391
#     4  11  23  43  67  91 119 173 221 267 322 385
#     4  10  21  38  62  90 131 171 207 250 323 397
#     4  12  24  35  58  97 132 164 207 262 324 384
#
# _framework density 21.102267999999999
#
# number of rings (size 3 to 8) (size 9 to 14) (size 15 to 20)
#    0.000    1.250    3.750    3.375    3.500    1.500 
#    0.000    0.000    0.000    3.750    0.000    0.000 
#    0.000    0.000    0.000    0.000    0.000    0.000 
#
# Total GULP energy -178740.427123 kJ/mol
# GULP energy per Si atom -5585.638348 kJ/mol
# Density = 2.105424 g / cm^3
# Si number density = 21.102268 Si / 1000 Ang^3
#
#
#
# Elastic Constant Matrix: (Units=GPa)
#
#
# Indices 1 2 3 4 5 6 
#
# 1 48.6357 -5.1002 4.3961 0.0000 1.3773 0.0000
# 2 -5.1002 37.9347 1.2704 0.0000 -2.2131 0.0000
# 3 4.3961 1.2704 74.1149 0.0000 22.7699 0.0000
# 4 0.0000 0.0000 0.0000 24.4358 0.0000 6.7700
# 5 1.3773 -2.2131 22.7699 0.0000 35.4001 0.0000
# 6 0.0000 0.0000 0.0000 6.7700 0.0000 7.9149
#
#
#
# Elastic Compliance Matrix: (Units=1/GPa)
#
#
# Indices 1 2 3 4 5 6 
#
# 1 0.020980 0.002881 -0.001369 0.000000 0.000244 0.000000
# 2 0.002881 0.026939 -0.001390 0.000000 0.002466 0.000000
# 3 -0.001369 -0.001390 0.016959 0.000000 -0.010942 0.000000
# 4 0.000000 0.000000 0.000000 0.053634 0.000000 -0.045876
# 5 0.000244 0.002466 -0.010942 0.000000 0.035431 0.000000
# 6 0.000000 0.000000 0.000000 -0.045876 0.000000 0.165585
#
#
# Mechanical properties :
#
#
# Convention : Reuss Voigt Hill
#
# Bulk Modulus (GPa) = 15.35598 17.97977 16.66787
# Shear Modulus (GPa) = 14.66311 24.22474 19.44393
#
# Velocity S-wave (km/s) = 2.63888 3.39184 3.03877
# Velocity P-wave (km/s) = 4.07156 4.88654 4.49755
#
# Compressibility (1/GPa) = 0.06512119
#
# Stress axis : x y z
#
# Youngs Moduli (GPa) = 47.66459 37.12114 58.96473
#
# Poissons Ratio (x) = -0.10694 0.08071
# Poissons Ratio (y) = -0.13731 0.08198
# Poissons Ratio (z) = 0.06525 0.05161
#
# Static dielectric constant tensor:
#      x y z
#    x 1.795070 0.000000 0.023220 
#    y 0.000000 1.819500 0.000000 
#    z 0.023220 0.000000 1.726750 
# 
# From -- ./inp_files/268843.got.cif
#   From: 2010.05.17/outbox.cif.g08.bks.cpg/sg15_135_cif.got.tgz:268843.got - 2010.06.03 18:47:42.
