data_PCOD9268627
_publ_section_title
;
Structure prediction by ZEFSAII (Michael W. Deem and Ramdas Pophale) SiO2 
 PCOD9268627
Probable space group: C 2/C
;
_chemical_formula_sum "Si O2"
_cell_formula_units_Z 56
_cell_length_a 23.460724
_cell_length_b 11.162897
_cell_length_c 9.425338
_cell_angle_alpha 90.000000
_cell_angle_beta 102.881687
_cell_angle_gamma 90.000000
_cell_volume 2406.275011
_symmetry_space_group_name_H-M "C 2/C"
_symmetry_group_IT_number 15
_symmetry_cell_setting 'monoclinic'
loop_
_space_group_symop_operation_xyz
x,y,z
-x,y,1/2-z
-x,-y,-z
x,-y,1/2+z
1/2+x,1/2+y,z
1/2-x,1/2+y,1/2-z
1/2-x,1/2-y,-z
1/2+x,1/2-y,1/2+z
loop_
_atom_site_type_symbol
_atom_site_label
_atom_site_fract_x
_atom_site_fract_y
_atom_site_fract_z
Si Si1 0.055098 0.775934 0.695186
Si Si2 0.187710 0.209027 0.274077
Si Si3 0.287156 0.093758 0.489195
Si Si4 0.939058 0.532362 0.893721
Si Si5 0.618781 0.212221 0.168841
Si Si6 0.335550 0.838296 0.516176
Si Si7 0.989752 0.875248 0.413019
O O1 0.119412 0.822755 0.762575
O O2 0.057791 0.633919 0.724870
O O3 0.000000 0.826685 0.750000
O O4 0.036400 0.791637 0.520682
O O5 0.228954 0.109727 0.364126
O O6 0.209778 0.330153 0.365136
O O7 0.190287 0.245886 0.111886
O O8 0.336484 0.164690 0.424442
O O9 0.296869 0.955073 0.526949
O O10 0.918283 0.407304 0.820186
O O11 0.890537 0.592117 0.970654
O O12 0.000000 0.500000 0.000000
O O13 0.650202 0.234605 0.334511
O O14 0.574327 0.316685 0.099503
O O15 0.000000 0.881293 0.250000
O O16 0.000000 0.000000 0.500000
#
# Coordination Sequence:
#
# PCOD9268627 Si02
#       7
#     8   8   8   8   8   8   8
#     4  11  22  39  67  99 135 170 215 269 338 401
#     4  10  22  40  62  90 129 174 216 272 332 394
#     4  10  21  41  64  90 130 174 219 273 333 387
#     4  10  20  32  60 102 135 162 197 261 344 396
#     4  11  23  39  68  99 131 165 217 275 330 388
#     4  10  21  38  62  99 130 161 215 278 327 387
#     4  12  26  44  63  90 132 177 221 270 318 397
#
# _framework density 23.272483999999999
#
# number of rings (size 3 to 8) (size 9 to 14) (size 15 to 20)
#    0.000    1.429    1.429    5.571    4.000    0.571 
#    2.571    0.000    6.286    0.000    0.000    0.000 
#    0.000    0.000    0.000    0.000    0.000    0.000 
#
# Total GULP energy -156435.905151 kJ/mol
# GULP energy per Si atom -5586.996613 kJ/mol
# Density = 2.321952 g / cm^3
# Si number density = 23.272484 Si / 1000 Ang^3
#
#
#
# Elastic Constant Matrix: (Units=GPa)
#
#
# Indices 1 2 3 4 5 6 
#
# 1 61.2891 26.8836 9.4720 0.0000 31.3242 0.0000
# 2 26.8836 72.7029 19.5782 0.0000 13.8709 0.0000
# 3 9.4720 19.5782 116.4661 0.0000 23.9419 0.0000
# 4 0.0000 0.0000 0.0000 26.2584 0.0000 6.9806
# 5 31.3242 13.8709 23.9419 0.0000 39.6751 0.0000
# 6 0.0000 0.0000 0.0000 6.9806 0.0000 7.7174
#
#
#
# Elastic Compliance Matrix: (Units=1/GPa)
#
#
# Indices 1 2 3 4 5 6 
#
# 1 0.031883 -0.008120 0.003839 0.000000 -0.024650 0.000000
# 2 -0.008120 0.017078 -0.002627 0.000000 0.002026 0.000000
# 3 0.003839 -0.002627 0.010446 0.000000 -0.008416 0.000000
# 4 0.000000 0.000000 0.000000 0.050140 0.000000 -0.045353
# 5 -0.024650 0.002026 -0.008416 0.000000 0.049037 0.000000
# 6 0.000000 0.000000 0.000000 -0.045353 0.000000 0.170601
#
#
# Mechanical properties :
#
#
# Convention : Reuss Voigt Hill
#
# Bulk Modulus (GPa) = 21.93409 40.25840 31.09625
# Shear Modulus (GPa) = 13.95875 27.69847 20.82861
#
# Velocity S-wave (km/s) = 2.45173 3.45364 2.99488
# Velocity P-wave (km/s) = 4.17852 5.76540 5.03487
#
# Compressibility (1/GPa) = 0.04559113
#
# Stress axis : x y z
#
# Youngs Moduli (GPa) = 31.36458 58.55399 95.73358
#
# Poissons Ratio (x) = 0.47548 -0.36756
# Poissons Ratio (y) = 0.25469 0.25148
# Poissons Ratio (z) = -0.12042 0.15381
#
# Static dielectric constant tensor:
#      x y z
#    x 1.995710 0.000000 -0.037150 
#    y 0.000000 1.896900 0.000000 
#    z -0.037150 0.000000 1.957440 
# 
# From -- ./inp_files/65530.got.cif
#   From: 2010.05.17/outbox.cif.g08.bks.cpg/sg15_33_cif.got.tgz:65530.got - 2010.06.03 18:47:42.
