data_PCOD9268753
_publ_section_title
;
Structure prediction by ZEFSAII (Michael W. Deem and Ramdas Pophale) SiO2 
 PCOD9268753
Probable space group: C 2/C
;
_chemical_formula_sum "Si O2"
_cell_formula_units_Z 52
_cell_length_a 30.473172
_cell_length_b 10.405125
_cell_length_c 8.299132
_cell_angle_alpha 90.000000
_cell_angle_beta 98.753179
_cell_angle_gamma 90.000000
_cell_volume 2600.816741
_symmetry_space_group_name_H-M "C 2/C"
_symmetry_group_IT_number 15
_symmetry_cell_setting 'monoclinic'
loop_
_space_group_symop_operation_xyz
x,y,z
-x,y,1/2-z
-x,-y,-z
x,-y,1/2+z
1/2+x,1/2+y,z
1/2-x,1/2+y,1/2-z
1/2-x,1/2-y,-z
1/2+x,1/2-y,1/2+z
loop_
_atom_site_type_symbol
_atom_site_label
_atom_site_fract_x
_atom_site_fract_y
_atom_site_fract_z
Si Si1 0.337897 0.430148 0.872197
Si Si2 0.702995 0.677376 0.469601
Si Si3 0.500000 0.348191 0.250000
Si Si4 0.099777 0.891696 0.299470
Si Si5 0.372178 0.838086 0.903200
Si Si6 0.529304 0.117456 0.454841
Si Si7 0.911825 0.454849 0.237619
O O1 0.311103 0.345351 0.726165
O O2 0.374715 0.497988 0.781299
O O3 0.306500 0.539015 0.943355
O O4 0.368739 0.366474 0.027539
O O5 0.750000 0.750000 0.500000
O O6 0.671662 0.774634 0.551181
O O7 0.547268 0.420070 0.287701
O O8 0.504230 0.248463 0.402402
O O9 0.103737 0.768317 0.188919
O O10 0.371158 0.966889 0.794519
O O11 0.399918 0.875213 0.075349
O O12 0.565954 0.131958 0.613971
O O13 0.500000 0.000000 0.500000
O O14 0.553927 0.062357 0.310404
#
# Coordination Sequence:
#
# PCOD9268753 Si02
#       7
#     8   8   4   8   8   8   8
#     4   9  22  44  65  84 127 153 192 258 314 351
#     4  10  22  42  68  93 116 155 198 242 312 385
#     4  12  20  30  58  82 116 158 230 230 286 356
#     4  10  21  40  60  84 117 168 202 251 301 349
#     4  10  21  36  57  86 122 161 195 248 314 362
#     4  11  18  31  48  78 118 160 199 257 287 339
#     4  10  20  33  51  81 122 159 198 242 311 347
#
# _framework density 19.993721000000001
#
# number of rings (size 3 to 8) (size 9 to 14) (size 15 to 20)
#    0.000    1.846    3.077    0.923    2.154    1.846 
#    0.000    6.923    0.000    0.000    0.000    0.000 
#    0.000    0.000    0.000    0.000    0.000    0.000 
#
# Total GULP energy -144769.932152 kJ/mol
# GULP energy per Si atom -5568.074314 kJ/mol
# Density = 1.994821 g / cm^3
# Si number density = 19.993721 Si / 1000 Ang^3
#
#
#
# Elastic Constant Matrix: (Units=GPa)
#
#
# Indices 1 2 3 4 5 6 
#
# 1 123.1243 39.4272 40.8892 0.0000 6.8912 0.0000
# 2 39.4272 43.7481 40.9678 0.0000 12.8460 0.0000
# 3 40.8892 40.9678 144.7549 0.0000 10.5986 0.0000
# 4 0.0000 0.0000 0.0000 33.2863 0.0000 3.1568
# 5 6.8912 12.8460 10.5986 0.0000 19.7988 0.0000
# 6 0.0000 0.0000 0.0000 3.1568 0.0000 29.6991
#
#
#
# Elastic Compliance Matrix: (Units=1/GPa)
#
#
# Indices 1 2 3 4 5 6 
#
# 1 0.011614 -0.011091 -0.000388 0.000000 0.003361 0.000000
# 2 -0.011091 0.047550 -0.008689 0.000000 -0.022340 0.000000
# 3 -0.000388 -0.008689 0.009424 0.000000 0.000728 0.000000
# 4 0.000000 0.000000 0.000000 0.030348 0.000000 -0.003226
# 5 0.003361 -0.022340 0.000728 0.000000 0.063443 0.000000
# 6 0.000000 0.000000 0.000000 -0.003226 0.000000 0.034014
#
#
# Mechanical properties :
#
#
# Convention : Reuss Voigt Hill
#
# Bulk Modulus (GPa) = 35.39488 61.57730 48.48609
# Shear Modulus (GPa) = 20.31319 29.24636 24.77977
#
# Velocity S-wave (km/s) = 3.19090 3.82878 3.52430
# Velocity P-wave (km/s) = 5.59618 7.10009 6.39251
#
# Compressibility (1/GPa) = 0.02825267
#
# Stress axis : x y z
#
# Youngs Moduli (GPa) = 86.10249 21.03057 106.11684
#
# Poissons Ratio (x) = 0.23324 0.04117
# Poissons Ratio (y) = 0.95493 0.92203
# Poissons Ratio (z) = 0.03340 0.18273
#
# Static dielectric constant tensor:
#      x y z
#    x 1.777980 0.000000 0.007820 
#    y 0.000000 1.778880 0.000000 
#    z 0.007820 0.000000 1.742280 
# 
# From -- ./inp_files/65182.got.cif
#   From: 2010.05.17/outbox.cif.g08.bks.cpg/sg15_33_cif.got.tgz:65182.got - 2010.06.03 18:47:42.
