data_PCOD9268317
_publ_section_title
;
Structure prediction by ZEFSAII (Michael W. Deem and Ramdas Pophale) SiO2 
 PCOD9268317
Probable space group: C 2/C
;
_chemical_formula_sum "Si O2"
_cell_formula_units_Z 60
_cell_length_a 17.148413
_cell_length_b 23.208487
_cell_length_c 8.907263
_cell_angle_alpha 90.000000
_cell_angle_beta 73.549736
_cell_angle_gamma 90.000000
_cell_volume 3399.879272
_symmetry_space_group_name_H-M "C 2/C"
_symmetry_group_IT_number 15
_symmetry_cell_setting 'monoclinic'
loop_
_space_group_symop_operation_xyz
x,y,z
-x,y,1/2-z
-x,-y,-z
x,-y,1/2+z
1/2+x,1/2+y,z
1/2-x,1/2+y,1/2-z
1/2-x,1/2-y,-z
1/2+x,1/2-y,1/2+z
loop_
_atom_site_type_symbol
_atom_site_label
_atom_site_fract_x
_atom_site_fract_y
_atom_site_fract_z
Si Si1 0.086368 0.825181 0.691995
Si Si2 0.244656 0.914312 0.148297
Si Si3 0.306831 0.490374 0.053040
Si Si4 0.847022 0.682043 0.459668
Si Si5 0.869242 0.180636 0.664898
Si Si6 0.000000 0.736108 0.250000
Si Si7 0.414761 0.449586 0.732049
Si Si8 0.734052 0.272106 0.783152
O O1 0.099962 0.841289 0.511410
O O2 0.074634 0.881833 0.800989
O O3 0.167758 0.795460 0.705312
O O4 0.000000 0.791995 0.750000
O O5 0.166765 0.871300 0.214128
O O6 0.245335 0.952580 0.300554
O O7 0.235134 0.956565 0.011177
O O8 0.320376 0.872346 0.073537
O O9 0.381182 0.515741 0.110147
O O10 0.345462 0.454267 0.896804
O O11 0.940777 0.694010 0.375567
O O12 0.792245 0.682084 0.336826
O O13 0.817617 0.739501 0.561158
O O14 0.793602 0.224124 0.682445
O O15 0.939096 0.220527 0.697501
O O16 0.500000 0.472233 0.750000
#
# Coordination Sequence:
#
# PCOD9268317 Si02
#       8
#     8   8   8   8   8   4   8   8
#     4  11  20  30  47  74 108 140 174 215 266 318
#     4  10  20  36  55  76 105 138 184 218 266 311
#     4  10  20  35  50  71 100 140 184 223 256 318
#     4   9  18  34  55  78 103 140 177 227 262 326
#     4  10  20  34  51  77 107 142 176 222 262 326
#     4  10  20  34  56  82 108 136 182 214 280 326
#     4  10  20  31  46  67 101 134 175 217 266 303
#     4   9  18  32  51  73 105 140 180 211 267 320
#
# _framework density 17.647684999999999
#
# number of rings (size 3 to 8) (size 9 to 14) (size 15 to 20)
#    0.000    2.133    1.333    3.200    0.000    2.133 
#    4.800    0.000    0.000    0.800    0.000    0.000 
#    0.000    0.000    0.000    0.000    0.000    0.000 
#
# Total GULP energy -167049.931147 kJ/mol
# GULP energy per Si atom -5568.331038 kJ/mol
# Density = 1.760752 g / cm^3
# Si number density = 17.647685 Si / 1000 Ang^3
#
#
#
# Elastic Constant Matrix: (Units=GPa)
#
#
# Indices 1 2 3 4 5 6 
#
# 1 73.1302 31.7734 25.0868 0.0000 -13.3328 0.0000
# 2 31.7734 66.2356 25.5229 0.0000 -6.3124 0.0000
# 3 25.0868 25.5229 64.0808 0.0000 -12.9764 0.0000
# 4 0.0000 0.0000 0.0000 26.5005 0.0000 -1.1871
# 5 -13.3328 -6.3124 -12.9764 0.0000 28.5825 0.0000
# 6 0.0000 0.0000 0.0000 -1.1871 0.0000 18.9022
#
#
#
# Elastic Compliance Matrix: (Units=1/GPa)
#
#
# Indices 1 2 3 4 5 6 
#
# 1 0.019049 -0.007283 -0.003395 0.000000 0.005736 0.000000
# 2 -0.007283 0.020635 -0.005652 0.000000 -0.001406 0.000000
# 3 -0.003395 -0.005652 0.020497 0.000000 0.006473 0.000000
# 4 0.000000 0.000000 0.000000 0.037842 0.000000 0.002377
# 5 0.005736 -0.001406 0.006473 0.000000 0.040290 0.000000
# 6 0.000000 0.000000 0.000000 0.002377 0.000000 0.053053
#
#
# Mechanical properties :
#
#
# Convention : Reuss Voigt Hill
#
# Bulk Modulus (GPa) = 36.33742 40.91253 38.62498
# Shear Modulus (GPa) = 21.44077 22.86793 22.15435
#
# Velocity S-wave (km/s) = 3.48937 3.60363 3.54696
# Velocity P-wave (km/s) = 6.07202 6.36774 6.22164
#
# Compressibility (1/GPa) = 0.02751984
#
# Stress axis : x y z
#
# Youngs Moduli (GPa) = 52.49638 48.46051 48.78839
#
# Poissons Ratio (x) = 0.35293 0.16564
# Poissons Ratio (y) = 0.38233 0.27578
# Poissons Ratio (z) = 0.17823 0.27392
#
# Static dielectric constant tensor:
#      x y z
#    x 1.609030 0.000000 0.008540 
#    y 0.000000 1.635120 0.000000 
#    z 0.008540 0.000000 1.641790 
# 
# From -- ./inp_files/42168.got.cif
#   From: 2010.05.17/outbox.cif.g08.bks.cpg/sg15_22_cif.got.tgz:42168.got - 2010.06.03 18:47:42.
