data_PCOD9268279
_publ_section_title
;
Structure prediction by ZEFSAII (Michael W. Deem and Ramdas Pophale) SiO2 
 PCOD9268279
Probable space group: C 2/C
;
_chemical_formula_sum "Si O2"
_cell_formula_units_Z 44
_cell_length_a 10.110287
_cell_length_b 22.688234
_cell_length_c 12.586027
_cell_angle_alpha 90.000000
_cell_angle_beta 142.436478
_cell_angle_gamma 90.000000
_cell_volume 1760.056997
_symmetry_space_group_name_H-M "C 2/C"
_symmetry_group_IT_number 15
_symmetry_cell_setting 'monoclinic'
loop_
_space_group_symop_operation_xyz
x,y,z
-x,y,1/2-z
-x,-y,-z
x,-y,1/2+z
1/2+x,1/2+y,z
1/2-x,1/2+y,1/2-z
1/2-x,1/2-y,-z
1/2+x,1/2-y,1/2+z
loop_
_atom_site_type_symbol
_atom_site_label
_atom_site_fract_x
_atom_site_fract_y
_atom_site_fract_z
Si Si1 0.000000 0.194819 0.750000
Si Si2 0.329741 0.201347 0.770428
Si Si3 0.388725 0.873941 0.573310
Si Si4 0.236413 0.670728 0.133526
Si Si5 0.844692 0.979106 0.046388
Si Si6 0.560295 0.597275 0.489375
O O1 0.819145 0.220343 0.716798
O O2 0.846482 0.154029 0.581795
O O3 0.319780 0.264099 0.707974
O O4 0.193659 0.147908 0.633213
O O5 0.583237 0.179801 0.932112
O O6 0.500000 0.853908 0.750000
O O7 0.530454 0.849606 0.570817
O O8 0.368968 0.944017 0.555126
O O9 0.417805 0.628191 0.304265
O O10 0.000000 0.978039 0.250000
O O11 0.808988 0.045581 0.986952
O O12 0.930981 0.940640 0.998887
#
# Coordination Sequence:
#
# PCOD9268279 Si02
#       6
#     4   8   8   8   8   8
#     4  10  20  30  50  84 130 152 194 236 300 378
#     4  11  21  35  56  91 128 168 202 248 311 382
#     4  11  19  34  55  84 122 159 196 243 309 372
#     4  11  22  35  61  92 131 163 207 249 316 383
#     4  11  22  43  64  84 131 167 210 267 303 371
#     4  11  23  42  60  92 127 170 207 260 313 365
#
# _framework density 24.999189999999999
#
# number of rings (size 3 to 8) (size 9 to 14) (size 15 to 20)
#    0.000    1.091    6.364    1.091    1.273    1.455 
#    3.273    2.727    0.000    1.091    0.000    0.000 
#    0.000    0.000    0.000    0.000    0.000    0.000 
#
# Total GULP energy -122514.803330 kJ/mol
# GULP energy per Si atom -5568.854697 kJ/mol
# Density = 2.494229 g / cm^3
# Si number density = 24.999190 Si / 1000 Ang^3
#
#
#
# Elastic Constant Matrix: (Units=GPa)
#
#
# Indices 1 2 3 4 5 6 
#
# 1 74.5677 43.9932 9.9041 0.0000 -10.0605 -0.0001
# 2 43.9932 162.9227 40.0900 0.0000 3.4428 0.0000
# 3 9.9041 40.0900 130.9280 0.0000 11.5243 -0.0001
# 4 0.0000 0.0000 0.0000 43.9871 0.0000 28.3486
# 5 -10.0605 3.4428 11.5243 0.0000 29.5084 -0.0001
# 6 -0.0001 0.0000 -0.0001 28.3486 -0.0001 92.3020
#
#
#
# Elastic Compliance Matrix: (Units=1/GPa)
#
#
# Indices 1 2 3 4 5 6 
#
# 1 0.017093 -0.004644 -0.000447 0.000000 0.006544 0.000000
# 2 -0.004644 0.007900 -0.001913 0.000000 -0.001758 0.000000
# 3 -0.000447 -0.001913 0.008545 0.000000 -0.003266 0.000000
# 4 0.000000 0.000000 0.000000 0.028344 0.000000 -0.008705
# 5 0.006544 -0.001758 -0.003266 0.000000 0.037600 0.000000
# 6 0.000000 0.000000 0.000000 -0.008705 0.000000 0.013508
#
#
# Mechanical properties :
#
#
# Convention : Reuss Voigt Hill
#
# Bulk Modulus (GPa) = 51.20385 61.82144 56.51264
# Shear Modulus (GPa) = 37.45132 51.45491 44.45312
#
# Velocity S-wave (km/s) = 3.87473 4.54173 4.22142
# Velocity P-wave (km/s) = 6.36747 7.23092 6.81289
#
# Compressibility (1/GPa) = 0.01952978
#
# Stress axis : x y z
#
# Youngs Moduli (GPa) = 58.50496 126.58823 117.02982
#
# Poissons Ratio (x) = 0.58784 0.05232
# Poissons Ratio (y) = 0.27168 0.22386
# Poissons Ratio (z) = 0.02616 0.24215
#
# Static dielectric constant tensor:
#      x y z
#    x 2.100160 0.000000 -0.038290 
#    y 0.000000 1.950590 0.000000 
#    z -0.038290 0.000000 2.156460 
# 
# From -- ./inp_files/156681.got.cif
#   From: 2010.05.17/outbox.cif.g08.bks.cpg/sg15_79_cif.got.tgz:156681.got - 2010.06.03 18:47:42.
