data_PCOD9268167
_publ_section_title
;
Structure prediction by ZEFSAII (Michael W. Deem and Ramdas Pophale) SiO2 
 PCOD9268167
Probable space group: C 2/C
;
_chemical_formula_sum "Si O2"
_cell_formula_units_Z 36
_cell_length_a 10.960538
_cell_length_b 11.675518
_cell_length_c 12.074789
_cell_angle_alpha 90.000000
_cell_angle_beta 93.394745
_cell_angle_gamma 90.000000
_cell_volume 1542.498812
_symmetry_space_group_name_H-M "C 2/C"
_symmetry_group_IT_number 15
_symmetry_cell_setting 'monoclinic'
loop_
_space_group_symop_operation_xyz
x,y,z
-x,y,1/2-z
-x,-y,-z
x,-y,1/2+z
1/2+x,1/2+y,z
1/2-x,1/2+y,1/2-z
1/2-x,1/2-y,-z
1/2+x,1/2-y,1/2+z
loop_
_atom_site_type_symbol
_atom_site_label
_atom_site_fract_x
_atom_site_fract_y
_atom_site_fract_z
Si Si1 0.680277 0.483226 0.440263
Si Si2 0.743885 0.291637 0.870226
Si Si3 0.959513 0.159147 0.901547
Si Si4 0.924222 0.384219 0.474454
Si Si5 0.500000 0.202784 0.750000
O O1 0.756594 0.572409 0.370104
O O2 0.611511 0.564859 0.525606
O O3 0.576306 0.414012 0.370649
O O4 0.783021 0.403099 0.500088
O O5 0.854074 0.219823 0.823413
O O6 0.611344 0.269996 0.812568
O O7 0.750000 0.250000 0.000000
O O8 0.018070 0.270264 0.967275
O O9 0.936107 0.365863 0.344154
O O10 0.000000 0.500000 0.500000
#
# Coordination Sequence:
#
# PCOD9268167 Si02
#       5
#     8   8   8   8   4
#     4  10  20  38  69  98 128 180 221 285 345 403
#     4  10  19  43  64  89 136 172 218 283 338 401
#     4  10  20  41  68  95 136 176 227 287 344 401
#     4  12  22  42  71 100 144 187 232 289 346 410
#     4  12  24  42  72 102 136 192 232 276 364 420
#
# _framework density 23.338753000000001
#
# number of rings (size 3 to 8) (size 9 to 14) (size 15 to 20)
#    0.000    1.333    6.667    2.000    0.000    0.000 
#    4.000    4.444    0.000    0.000    0.000    0.000 
#    0.000    0.000    0.000    0.000    0.000    0.000 
#
# Total GULP energy -100321.424613 kJ/mol
# GULP energy per Si atom -5573.412478 kJ/mol
# Density = 2.328563 g / cm^3
# Si number density = 23.338753 Si / 1000 Ang^3
#
#
#
# Elastic Constant Matrix: (Units=GPa)
#
#
# Indices 1 2 3 4 5 6 
#
# 1 151.5298 65.8584 20.7311 0.0000 50.6532 0.0000
# 2 65.8584 96.0833 15.0267 0.0000 4.1764 0.0000
# 3 20.7311 15.0267 58.4369 0.0000 16.2773 0.0000
# 4 0.0000 0.0000 0.0000 24.5673 0.0000 19.7903
# 5 50.6532 4.1764 16.2773 0.0000 42.3994 0.0000
# 6 0.0000 0.0000 0.0000 19.7903 0.0000 72.0034
#
#
#
# Elastic Compliance Matrix: (Units=1/GPa)
#
#
# Indices 1 2 3 4 5 6 
#
# 1 0.019515 -0.012811 0.002815 0.000000 -0.023132 0.000000
# 2 -0.012811 0.019254 -0.004637 0.000000 0.015188 0.000000
# 3 0.002815 -0.004637 0.020285 0.000000 -0.010693 0.000000
# 4 0.000000 0.000000 0.000000 0.052280 0.000000 -0.014369
# 5 -0.023132 0.015188 -0.010693 0.000000 0.053830 0.000000
# 6 0.000000 0.000000 0.000000 -0.014369 0.000000 0.017838
#
#
# Mechanical properties :
#
#
# Convention : Reuss Voigt Hill
#
# Bulk Modulus (GPa) = 33.57148 56.58694 45.07921
# Shear Modulus (GPa) = 22.50270 41.42293 31.96281
#
# Velocity S-wave (km/s) = 3.10849 4.21747 3.70471
# Velocity P-wave (km/s) = 5.22487 6.92926 6.13653
#
# Compressibility (1/GPa) = 0.02978719
#
# Stress axis : x y z
#
# Youngs Moduli (GPa) = 51.24310 51.93861 49.29793
#
# Poissons Ratio (x) = 0.66537 -0.13875
# Poissons Ratio (y) = 0.65646 0.22858
# Poissons Ratio (z) = -0.14423 0.24083
#
# Static dielectric constant tensor:
#      x y z
#    x 1.930470 0.000000 -0.026390 
#    y 0.000000 1.906490 0.000000 
#    z -0.026390 0.000000 1.999130 
# 
# From -- ./inp_files/141374.got.cif
#   From: 2010.05.17/outbox.cif.g08.bks.cpg/sg15_71_cif.got.tgz:141374.got - 2010.06.03 18:47:42.
