data_PCOD9268330
_publ_section_title
;
Structure prediction by ZEFSAII (Michael W. Deem and Ramdas Pophale) SiO2 
 PCOD9268330
Probable space group: C 2/C
;
_chemical_formula_sum "Si O2"
_cell_formula_units_Z 48
_cell_length_a 11.569678
_cell_length_b 16.482987
_cell_length_c 17.334861
_cell_angle_alpha 90.000000
_cell_angle_beta 38.945807
_cell_angle_gamma 90.000000
_cell_volume 2077.981127
_symmetry_space_group_name_H-M "C 2/C"
_symmetry_group_IT_number 15
_symmetry_cell_setting 'monoclinic'
loop_
_space_group_symop_operation_xyz
x,y,z
-x,y,1/2-z
-x,-y,-z
x,-y,1/2+z
1/2+x,1/2+y,z
1/2-x,1/2+y,1/2-z
1/2-x,1/2-y,-z
1/2+x,1/2-y,1/2+z
loop_
_atom_site_type_symbol
_atom_site_label
_atom_site_fract_x
_atom_site_fract_y
_atom_site_fract_z
Si Si1 0.753477 0.781341 0.865751
Si Si2 0.376330 0.834336 0.017781
Si Si3 0.274616 0.992263 0.357763
Si Si4 0.201504 0.340107 0.611866
Si Si5 0.847207 0.360048 0.202429
Si Si6 0.212431 0.136223 0.005199
O O1 0.818437 0.726065 0.760455
O O2 0.679890 0.709391 0.961603
O O3 0.595047 0.837780 0.913723
O O4 0.861929 0.835431 0.873429
O O5 0.325008 0.739071 0.043294
O O6 0.292503 0.864192 0.141640
O O7 0.319706 0.870591 0.965541
O O8 0.500000 0.995557 0.250000
O O9 0.249140 0.931294 0.300278
O O10 0.176910 0.948349 0.480914
O O11 0.220417 0.085624 0.379499
O O12 0.000000 0.317770 0.750000
O O13 0.066770 0.369822 0.096011
#
# Coordination Sequence:
#
# PCOD9268330 Si02
#       6
#     8   8   8   8   8   8
#     4   9  15  27  47  71  94 121 155 189 231 275
#     4  10  20  31  48  72  93 122 160 193 228 277
#     4   8  15  30  49  67  93 124 152 190 237 274
#     4  10  20  35  49  65  94 127 158 192 230 276
#     4   9  16  30  49  72  97 122 154 194 236 275
#     4   8  15  27  47  72  96 122 152 191 235 274
#
# _framework density 23.099343000000001
#
# number of rings (size 3 to 8) (size 9 to 14) (size 15 to 20)
#    0.000    3.000    0.000    2.500    0.000    0.000 
#    0.000   18.333    0.000    0.000    0.000   30.333 
#    0.000    0.000    0.000    0.000    0.000    0.000 
#
# Total GULP energy -133730.551564 kJ/mol
# GULP energy per Si atom -5572.106315 kJ/mol
# Density = 2.304677 g / cm^3
# Si number density = 23.099343 Si / 1000 Ang^3
#
#
#
# Elastic Constant Matrix: (Units=GPa)
#
#
# Indices 1 2 3 4 5 6 
#
# 1 56.7287 -10.9520 15.7271 0.0003 20.0314 -0.0001
# 2 -10.9520 50.2079 5.5188 0.0002 6.3503 -0.0001
# 3 15.7271 5.5188 91.1831 0.0013 30.2950 -0.0007
# 4 0.0003 0.0002 0.0013 19.3022 -0.0005 1.9771
# 5 20.0314 6.3503 30.2950 -0.0005 26.0557 0.0002
# 6 -0.0001 -0.0001 -0.0007 1.9771 0.0002 6.0659
#
#
#
# Elastic Compliance Matrix: (Units=1/GPa)
#
#
# Indices 1 2 3 4 5 6 
#
# 1 0.028586 0.009462 0.004179 -0.000002 -0.029142 0.000003
# 2 0.009462 0.023709 0.002069 -0.000001 -0.015458 0.000002
# 3 0.004179 0.002069 0.018504 -0.000002 -0.025232 0.000004
# 4 -0.000002 -0.000001 -0.000002 0.053597 0.000006 -0.017469
# 5 -0.029142 -0.015458 -0.025232 0.000006 0.093887 -0.000009
# 6 0.000003 0.000002 0.000004 -0.017469 -0.000009 0.170549
#
#
# Mechanical properties :
#
#
# Convention : Reuss Voigt Hill
#
# Bulk Modulus (GPa) = 9.78291 24.30082 17.04187
# Shear Modulus (GPa) = 12.77188 22.80648 17.78918
#
# Velocity S-wave (km/s) = 2.35396 3.14558 2.77811
# Velocity P-wave (km/s) = 3.41064 4.87194 4.20525
#
# Compressibility (1/GPa) = 0.10221908
#
# Stress axis : x y z
#
# Youngs Moduli (GPa) = 34.98195 42.17817 54.04251
#
# Poissons Ratio (x) = -0.39909 -0.22584
# Poissons Ratio (y) = -0.33100 -0.11181
# Poissons Ratio (z) = -0.14619 -0.08726
#
# Static dielectric constant tensor:
#      x y z
#    x 1.947070 0.000000 -0.079670 
#    y 0.000000 1.856220 0.000000 
#    z -0.079670 0.000000 2.084280 
# 
# From -- ./inp_files/87255.got.cif
#   From: 2010.05.17/outbox.cif.g08.bks.cpg/sg15_44_cif.got.tgz:87255.got - 2010.06.03 18:47:42.
