data_PCOD9268340
_publ_section_title
;
Structure prediction by ZEFSAII (Michael W. Deem and Ramdas Pophale) SiO2 
 PCOD9268340
Probable space group: C 2/C
;
_chemical_formula_sum "Si O2"
_cell_formula_units_Z 64
_cell_length_a 13.441406
_cell_length_b 22.128476
_cell_length_c 18.355548
_cell_angle_alpha 90.000000
_cell_angle_beta 134.527595
_cell_angle_gamma 90.000000
_cell_volume 3892.243180
_symmetry_space_group_name_H-M "C 2/C"
_symmetry_group_IT_number 15
_symmetry_cell_setting 'monoclinic'
loop_
_space_group_symop_operation_xyz
x,y,z
-x,y,1/2-z
-x,-y,-z
x,-y,1/2+z
1/2+x,1/2+y,z
1/2-x,1/2+y,1/2-z
1/2-x,1/2-y,-z
1/2+x,1/2-y,1/2+z
loop_
_atom_site_type_symbol
_atom_site_label
_atom_site_fract_x
_atom_site_fract_y
_atom_site_fract_z
Si Si1 0.361647 0.181735 0.506770
Si Si2 0.549488 0.723232 0.349564
Si Si3 0.445079 0.567865 0.955645
Si Si4 0.126128 0.581222 0.104422
Si Si5 0.640634 0.915118 0.366228
Si Si6 0.855449 0.516963 0.015391
Si Si7 0.539195 0.535123 0.852769
Si Si8 0.079060 0.097529 0.168330
O O1 0.465340 0.233639 0.588213
O O2 0.212033 0.211629 0.418866
O O3 0.396781 0.141548 0.455005
O O4 0.340847 0.136761 0.564202
O O5 0.500000 0.753823 0.250000
O O6 0.476378 0.658470 0.322509
O O7 0.283774 0.577950 0.894382
O O8 0.464353 0.572565 0.878708
O O9 0.500000 0.500000 0.000000
O O10 0.539938 0.604263 0.062613
O O11 0.259977 0.587792 0.225905
O O12 0.983806 0.561802 0.070166
O O13 0.155396 0.527661 0.060595
O O14 0.500000 0.903725 0.250000
O O15 0.618489 0.975967 0.400982
O O16 0.703564 0.545024 0.946299
O O17 0.500000 0.550239 0.750000
O O18 0.502551 0.463280 0.846391
#
# Coordination Sequence:
#
# PCOD9268340 Si02
#       8
#     8   8   8   8   8   8   8   8
#     4  10  21  34  48  78 109 140 176 222 267 323
#     4  11  19  32  56  75 102 143 181 221 271 317
#     4  10  21  33  49  76 106 141 184 215 255 319
#     4  10  20  32  51  76 108 145 180 215 266 316
#     4  11  21  33  48  74 117 145 164 223 275 313
#     4  10  20  31  49  76 107 148 177 216 261 317
#     4  11  20  33  53  75 109 147 182 213 256 324
#     4  11  18  34  55  75 103 145 183 216 255 322
#
# _framework density 16.442959999999999
#
# number of rings (size 3 to 8) (size 9 to 14) (size 15 to 20)
#    0.000    1.500    6.250    1.500    3.500    1.000 
#    0.000    0.000    0.000    0.000    0.000    0.875 
#    0.000    3.000    0.000    0.000    0.000    0.000 
#
# Total GULP energy -178307.359599 kJ/mol
# GULP energy per Si atom -5572.104987 kJ/mol
# Density = 1.640554 g / cm^3
# Si number density = 16.442960 Si / 1000 Ang^3
#
#
#
# Elastic Constant Matrix: (Units=GPa)
#
#
# Indices 1 2 3 4 5 6 
#
# 1 100.0307 35.7663 56.2379 -0.0001 1.2554 0.0000
# 2 35.7663 45.4200 31.6794 0.0000 4.9582 0.0000
# 3 56.2379 31.6794 122.4348 -0.0002 3.5188 0.0000
# 4 -0.0001 0.0000 -0.0002 18.8395 -0.0001 -1.5434
# 5 1.2554 4.9582 3.5188 -0.0001 32.0063 0.0000
# 6 0.0000 0.0000 0.0000 -1.5434 0.0000 4.3677
#
#
#
# Elastic Compliance Matrix: (Units=1/GPa)
#
#
# Indices 1 2 3 4 5 6 
#
# 1 0.016160 -0.009359 -0.005040 0.000000 0.001370 0.000000
# 2 -0.009359 0.032661 -0.004030 0.000000 -0.004250 0.000000
# 3 -0.005040 -0.004030 0.011538 0.000000 -0.000447 0.000000
# 4 0.000000 0.000000 0.000000 0.054662 0.000000 0.019315
# 5 0.001370 -0.004250 -0.000447 0.000000 0.031897 0.000000
# 6 0.000000 0.000000 0.000000 0.019315 0.000000 0.235778
#
#
# Mechanical properties :
#
#
# Convention : Reuss Voigt Hill
#
# Bulk Modulus (GPa) = 42.55215 57.25031 49.90123
# Shear Modulus (GPa) = 11.69892 20.65617 16.17754
#
# Velocity S-wave (km/s) = 2.67026 3.54818 3.14005
# Velocity P-wave (km/s) = 5.95331 7.18883 6.60004
#
# Compressibility (1/GPa) = 0.02350058
#
# Stress axis : x y z
#
# Youngs Moduli (GPa) = 61.88142 30.61722 86.66719
#
# Poissons Ratio (x) = 0.28655 0.43684
# Poissons Ratio (y) = 0.57916 0.34926
# Poissons Ratio (z) = 0.31191 0.12338
#
# Static dielectric constant tensor:
#      x y z
#    x 1.553160 0.000000 -0.027150 
#    y 0.000000 1.561980 0.000000 
#    z -0.027150 0.000000 1.608500 
# 
# From -- ./inp_files/200797.got.cif
#   From: 2010.05.17/outbox.cif.g08.bks.cpg/sg15_101_cif.got.tgz:200797.got - 2010.06.03 18:47:42.
