data_PCOD9268575
_publ_section_title
;
Structure prediction by ZEFSAII (Michael W. Deem and Ramdas Pophale) SiO2 
 PCOD9268575
Probable space group: C 2/C
;
_chemical_formula_sum "Si O2"
_cell_formula_units_Z 40
_cell_length_a 17.688973
_cell_length_b 9.234856
_cell_length_c 22.960850
_cell_angle_alpha 90.000000
_cell_angle_beta 23.255686
_cell_angle_gamma 90.000000
_cell_volume 1480.936340
_symmetry_space_group_name_H-M "C 2/C"
_symmetry_group_IT_number 15
_symmetry_cell_setting 'monoclinic'
loop_
_space_group_symop_operation_xyz
x,y,z
-x,y,1/2-z
-x,-y,-z
x,-y,1/2+z
1/2+x,1/2+y,z
1/2-x,1/2+y,1/2-z
1/2-x,1/2-y,-z
1/2+x,1/2-y,1/2+z
loop_
_atom_site_type_symbol
_atom_site_label
_atom_site_fract_x
_atom_site_fract_y
_atom_site_fract_z
Si Si1 0.096227 0.213755 0.900542
Si Si2 0.759119 0.434988 0.615102
Si Si3 0.773445 0.495655 0.852871
Si Si4 0.919985 0.221462 0.720999
Si Si5 0.831692 0.952800 0.947623
O O1 0.100525 0.347456 0.942417
O O2 0.134980 0.252810 0.806741
O O3 0.258754 0.107286 0.811050
O O4 0.249719 0.076973 0.931014
O O5 0.735796 0.609006 0.641413
O O6 0.544294 0.385766 0.787304
O O7 0.782436 0.414217 0.529665
O O8 0.940627 0.378948 0.733385
O O9 0.591416 0.387810 0.971431
O O10 0.608611 0.376843 0.093530
#
# Coordination Sequence:
#
# PCOD9268575 Si02
#       5
#     8   8   8   8   8
#     4  10  20  32  56  85 111 146 183 236 279 328
#     4   9  18  37  55  75 116 148 183 226 281 326
#     4  10  20  34  56  84 113 144 187 231 282 328
#     4   9  18  34  57  80 113 144 187 230 277 325
#     4   8  19  37  57  75 112 154 183 223 276 337
#
# _framework density 27.009938999999999
#
# number of rings (size 3 to 8) (size 9 to 14) (size 15 to 20)
#    1.200    1.600    0.000    1.200    2.800    2.400 
#    0.000    0.000    8.800    0.000    0.000    0.000 
#    0.000    0.000    0.000    0.000    0.000    0.000 
#
# Total GULP energy -111786.248960 kJ/mol
# GULP energy per Si atom -5589.312448 kJ/mol
# Density = 2.694846 g / cm^3
# Si number density = 27.009939 Si / 1000 Ang^3
#
#
#
# Elastic Constant Matrix: (Units=GPa)
#
#
# Indices 1 2 3 4 5 6 
#
# 1 169.2670 48.0102 70.2034 -0.0017 52.3416 0.0002
# 2 48.0102 121.0737 9.9104 -0.0024 19.5307 0.0008
# 3 70.2034 9.9104 78.2924 -0.0041 25.5176 0.0017
# 4 -0.0017 -0.0024 -0.0041 16.2280 0.0014 1.2919
# 5 52.3416 19.5307 25.5176 0.0014 63.1548 -0.0002
# 6 0.0002 0.0008 0.0017 1.2919 -0.0002 34.8884
#
#
#
# Elastic Compliance Matrix: (Units=1/GPa)
#
#
# Indices 1 2 3 4 5 6 
#
# 1 0.012126 -0.003203 -0.008655 -0.000001 -0.005562 0.000000
# 2 -0.003203 0.009543 0.002028 0.000002 -0.001116 0.000000
# 3 -0.008655 0.002028 0.020895 0.000005 -0.001897 -0.000001
# 4 -0.000001 0.000002 0.000005 0.061804 -0.000003 -0.002289
# 5 -0.005562 -0.001116 -0.001897 -0.000003 0.021556 0.000000
# 6 0.000000 0.000000 -0.000001 -0.002289 0.000000 0.028748
#
#
# Mechanical properties :
#
#
# Convention : Reuss Voigt Hill
#
# Bulk Modulus (GPa) = 43.65981 69.43124 56.54552
# Shear Modulus (GPa) = 27.47779 38.88820 33.18299
#
# Velocity S-wave (km/s) = 3.19301 3.79855 3.50887
# Velocity P-wave (km/s) = 5.45831 6.70822 6.11529
#
# Compressibility (1/GPa) = 0.02290436
#
# Stress axis : x y z
#
# Youngs Moduli (GPa) = 82.46954 104.78348 47.85931
#
# Poissons Ratio (x) = 0.33558 0.41420
# Poissons Ratio (y) = 0.26412 -0.09704
# Poissons Ratio (z) = 0.71374 -0.21245
#
# Static dielectric constant tensor:
#      x y z
#    x 2.078270 0.000000 -0.120790 
#    y 0.000000 2.097590 0.000000 
#    z -0.120790 0.000000 2.175540 
# 
# From -- ./inp_files/210142.got.cif
#   From: 2010.05.17/outbox.cif.g08.bks.cpg/sg15_106_cif.got.tgz:210142.got - 2010.06.03 18:47:42.
