data_PCOD9268877
_publ_section_title
;
Structure prediction by ZEFSAII (Michael W. Deem and Ramdas Pophale) SiO2 
 PCOD9268877
Probable space group: C 2/C
;
_chemical_formula_sum "Si O2"
_cell_formula_units_Z 52
_cell_length_a 21.157025
_cell_length_b 15.478382
_cell_length_c 15.908998
_cell_angle_alpha 90.000000
_cell_angle_beta 153.640811
_cell_angle_gamma 90.000000
_cell_volume 2313.146210
_symmetry_space_group_name_H-M "C 2/C"
_symmetry_group_IT_number 15
_symmetry_cell_setting 'monoclinic'
loop_
_space_group_symop_operation_xyz
x,y,z
-x,y,1/2-z
-x,-y,-z
x,-y,1/2+z
1/2+x,1/2+y,z
1/2-x,1/2+y,1/2-z
1/2-x,1/2-y,-z
1/2+x,1/2-y,1/2+z
loop_
_atom_site_type_symbol
_atom_site_label
_atom_site_fract_x
_atom_site_fract_y
_atom_site_fract_z
Si Si1 0.000000 0.495338 0.250000
Si Si2 0.397150 0.438927 0.006018
Si Si3 0.693879 0.511737 0.914508
Si Si4 0.046579 0.645040 0.667661
Si Si5 0.700443 0.606973 0.656805
Si Si6 0.387214 0.673860 0.236611
Si Si7 0.756451 0.712562 0.253215
O O1 0.149229 0.544145 0.420700
O O2 0.994137 0.432437 0.162649
O O3 0.346720 0.468686 0.037992
O O4 0.567013 0.448417 0.207704
O O5 0.327313 0.506719 0.856564
O O6 0.337921 0.344798 0.919762
O O7 0.691000 0.407201 0.898714
O O8 0.174164 0.612116 0.761779
O O9 0.096424 0.729579 0.780750
O O10 0.917077 0.677858 0.454720
O O11 0.548428 0.638311 0.438282
O O12 0.739187 0.686151 0.763882
O O13 0.314036 0.695311 0.238835
#
# Coordination Sequence:
#
# PCOD9268877 Si02
#       7
#     4   8   8   8   8   8   8
#     4  12  20  34  52  86 120 158 186 232 298 366
#     4  10  21  38  58  83 122 158 196 236 294 353
#     4  10  21  36  55  85 118 156 192 234 296 360
#     4  10  20  33  54  85 119 153 186 235 294 353
#     4   9  19  35  54  83 118 148 194 234 286 348
#     4   9  19  35  54  82 118 151 194 229 289 359
#     4  10  20  36  57  85 117 160 195 241 287 348
#
# _framework density 22.480205000000002
#
# number of rings (size 3 to 8) (size 9 to 14) (size 15 to 20)
#    0.000    2.154    3.077    0.000    0.000    7.385 
#    0.000    0.000    0.000    0.000    0.000   54.923 
#    0.000    0.000    0.000    0.000    0.000    0.000 
#
# Total GULP energy -145200.449182 kJ/mol
# GULP energy per Si atom -5584.632661 kJ/mol
# Density = 2.242904 g / cm^3
# Si number density = 22.480205 Si / 1000 Ang^3
#
#
#
# Elastic Constant Matrix: (Units=GPa)
#
#
# Indices 1 2 3 4 5 6 
#
# 1 47.5542 -5.0326 22.3317 0.0000 22.2654 0.0000
# 2 -5.0326 75.4898 34.7309 -0.0001 -9.4447 0.0000
# 3 22.3317 34.7309 116.5083 -0.0002 37.6592 -0.0001
# 4 0.0000 -0.0001 -0.0002 25.4094 -0.0001 -4.2773
# 5 22.2654 -9.4447 37.6592 -0.0001 40.6572 0.0000
# 6 0.0000 0.0000 -0.0001 -4.2773 0.0000 6.1474
#
#
#
# Elastic Compliance Matrix: (Units=1/GPa)
#
#
# Indices 1 2 3 4 5 6 
#
# 1 0.028318 0.000435 -0.000824 0.000000 -0.014644 0.000000
# 2 0.000435 0.019952 -0.010637 0.000000 0.014249 0.000000
# 3 -0.000824 -0.010637 0.017934 0.000000 -0.018631 0.000000
# 4 0.000000 0.000000 0.000000 0.044577 0.000000 0.031016
# 5 -0.014644 0.014249 -0.018631 0.000000 0.053183 0.000000
# 6 0.000000 0.000000 0.000000 0.031016 0.000000 0.184252
#
#
# Mechanical properties :
#
#
# Convention : Reuss Voigt Hill
#
# Bulk Modulus (GPa) = 22.64900 38.17915 30.41408
# Shear Modulus (GPa) = 12.98749 26.94428 19.96588
#
# Velocity S-wave (km/s) = 2.40621 3.46580 2.98342
# Velocity P-wave (km/s) = 4.22099 5.74770 5.04246
#
# Compressibility (1/GPa) = 0.04415206
#
# Stress axis : x y z
#
# Youngs Moduli (GPa) = 35.31316 50.11925 55.75938
#
# Poissons Ratio (x) = -0.02180 0.04596
# Poissons Ratio (y) = -0.01536 0.59311
# Poissons Ratio (z) = 0.02911 0.53312
#
# Static dielectric constant tensor:
#      x y z
#    x 1.840830 0.000000 -0.017560 
#    y 0.000000 1.855850 0.000000 
#    z -0.017560 0.000000 1.878460 
# 
# From -- ./inp_files/257828.got.cif
#   From: 2010.05.17/outbox.cif.g08.bks.cpg/sg15_129_cif.got.tgz:257828.got - 2010.06.03 18:47:42.
