data_PCOD9268159
_publ_section_title
;
Structure prediction by ZEFSAII (Michael W. Deem and Ramdas Pophale) SiO2 
 PCOD9268159
Probable space group: C 2/C
;
_chemical_formula_sum "Si O2"
_cell_formula_units_Z 40
_cell_length_a 20.884163
_cell_length_b 8.958526
_cell_length_c 14.468825
_cell_angle_alpha 90.000000
_cell_angle_beta 137.144039
_cell_angle_gamma 90.000000
_cell_volume 1841.180906
_symmetry_space_group_name_H-M "C 2/C"
_symmetry_group_IT_number 15
_symmetry_cell_setting 'monoclinic'
loop_
_space_group_symop_operation_xyz
x,y,z
-x,y,1/2-z
-x,-y,-z
x,-y,1/2+z
1/2+x,1/2+y,z
1/2-x,1/2+y,1/2-z
1/2-x,1/2-y,-z
1/2+x,1/2-y,1/2+z
loop_
_atom_site_type_symbol
_atom_site_label
_atom_site_fract_x
_atom_site_fract_y
_atom_site_fract_z
Si Si1 0.640838 0.821711 0.112219
Si Si2 0.380716 0.897848 0.212183
Si Si3 0.202755 0.723285 0.352570
Si Si4 0.105142 0.635579 0.979801
Si Si5 0.050647 0.153336 0.578292
O O1 0.660028 0.812486 0.242018
O O2 0.714067 0.722684 0.133936
O O3 0.534252 0.765074 0.985606
O O4 0.644648 0.989979 0.074933
O O5 0.354234 0.847919 0.080608
O O6 0.493392 0.890142 0.344100
O O7 0.350393 0.067584 0.195483
O O8 0.250000 0.750000 0.500000
O O9 0.126904 0.847094 0.240542
O O10 0.105341 0.776997 0.048046
O O11 0.000000 0.000000 0.500000
#
# Coordination Sequence:
#
# PCOD9268159 Si02
#       5
#     8   8   8   8   8
#     4  11  22  41  70  94 138 187 233 285 347 436
#     4  10  20  40  69  96 126 175 243 281 335 424
#     4  12  24  39  69 106 135 184 241 290 349 423
#     4  10  19  42  74  91 127 188 237 277 347 435
#     4  11  25  44  68 105 144 179 228 306 363 413
#
# _framework density 21.725187999999999
#
# number of rings (size 3 to 8) (size 9 to 14) (size 15 to 20)
#    0.000    1.200    6.000    1.200    2.800    0.800 
#    0.000    9.000    0.000    0.000    0.000    0.000 
#    0.000    0.000    0.000    0.000    0.000    0.000 
#
# Total GULP energy -111767.536079 kJ/mol
# GULP energy per Si atom -5588.376804 kJ/mol
# Density = 2.167574 g / cm^3
# Si number density = 21.725188 Si / 1000 Ang^3
#
#
#
# Elastic Constant Matrix: (Units=GPa)
#
#
# Indices 1 2 3 4 5 6 
#
# 1 126.3640 22.8043 57.0642 0.0000 -30.5659 0.0000
# 2 22.8043 56.3594 33.1376 0.0000 -20.8103 0.0000
# 3 57.0642 33.1376 143.9536 0.0000 -26.4477 0.0000
# 4 0.0000 0.0000 0.0000 17.8468 0.0000 -6.4779
# 5 -30.5659 -20.8103 -26.4477 0.0000 32.6757 0.0000
# 6 0.0000 0.0000 0.0000 -6.4779 0.0000 21.5303
#
#
#
# Elastic Compliance Matrix: (Units=1/GPa)
#
#
# Indices 1 2 3 4 5 6 
#
# 1 0.011208 0.000263 -0.002991 0.000000 0.008230 0.000000
# 2 0.000263 0.024432 -0.003318 0.000000 0.013121 0.000000
# 3 -0.002991 -0.003318 0.009390 0.000000 0.002689 0.000000
# 4 0.000000 0.000000 0.000000 0.062902 0.000000 0.018926
# 5 0.008230 0.013121 0.002689 0.000000 0.048836 0.000000
# 6 0.000000 0.000000 0.000000 0.018926 0.000000 0.052140
#
#
# Mechanical properties :
#
#
# Convention : Reuss Voigt Hill
#
# Bulk Modulus (GPa) = 30.35993 61.40989 45.88491
# Shear Modulus (GPa) = 21.55351 28.65529 25.10440
#
# Velocity S-wave (km/s) = 3.15318 3.63573 3.40302
# Velocity P-wave (km/s) = 5.22126 6.77885 6.05038
#
# Compressibility (1/GPa) = 0.03293815
#
# Stress axis : x y z
#
# Youngs Moduli (GPa) = 89.22304 40.92914 106.49307
#
# Poissons Ratio (x) = -0.01076 0.31855
# Poissons Ratio (y) = -0.02345 0.35333
# Poissons Ratio (z) = 0.26689 0.13580
#
# Static dielectric constant tensor:
#      x y z
#    x 1.796080 0.000000 -0.016350 
#    y 0.000000 1.778030 0.000000 
#    z -0.016350 0.000000 1.828850 
# 
# From -- ./inp_files/166508.got.cif
#   From: 2010.05.17/outbox.cif.g08.bks.cpg/sg15_84_cif.got.tgz:166508.got - 2010.06.03 18:47:42.
