data_PCOD9268300
_publ_section_title
;
Structure prediction by ZEFSAII (Michael W. Deem and Ramdas Pophale) SiO2 
 PCOD9268300
Probable space group: C 2/C
;
_chemical_formula_sum "Si O2"
_cell_formula_units_Z 56
_cell_length_a 14.798997
_cell_length_b 18.445762
_cell_length_c 9.200483
_cell_angle_alpha 90.000000
_cell_angle_beta 116.583729
_cell_angle_gamma 90.000000
_cell_volume 2246.020351
_symmetry_space_group_name_H-M "C 2/C"
_symmetry_group_IT_number 15
_symmetry_cell_setting 'monoclinic'
loop_
_space_group_symop_operation_xyz
x,y,z
-x,y,1/2-z
-x,-y,-z
x,-y,1/2+z
1/2+x,1/2+y,z
1/2-x,1/2+y,1/2-z
1/2-x,1/2-y,-z
1/2+x,1/2-y,1/2+z
loop_
_atom_site_type_symbol
_atom_site_label
_atom_site_fract_x
_atom_site_fract_y
_atom_site_fract_z
Si Si1 0.500000 0.859013 0.750000
Si Si2 0.525883 0.251552 0.527546
Si Si3 0.916023 0.091728 0.488016
Si Si4 0.749835 0.215184 0.723290
Si Si5 0.797396 0.646914 0.123791
Si Si6 0.340528 0.499348 0.200444
Si Si7 0.000000 0.647587 0.750000
Si Si8 0.722742 0.915453 0.368415
O O1 0.468607 0.804150 0.601339
O O2 0.603032 0.901944 0.798897
O O3 0.514958 0.335744 0.472434
O O4 0.640086 0.248825 0.672985
O O5 0.464855 0.204484 0.600180
O O6 0.799171 0.113761 0.373113
O O7 0.927528 0.038230 0.359535
O O8 0.897723 0.055905 0.632156
O O9 0.822814 0.280018 0.732184
O O10 0.737665 0.170618 0.562720
O O11 0.773216 0.162988 0.871806
O O12 0.264546 0.461075 0.260509
O O13 0.271568 0.548617 0.045012
O O14 0.899094 0.600104 0.716089
#
# Coordination Sequence:
#
# PCOD9268300 Si02
#       8
#     4   8   8   8   8   8   4   8
#     4  10  20  30  57  93 108 152 182 236 322 342
#     4   9  20  38  58  85 118 151 187 251 299 346
#     4  10  20  40  60  85 114 154 209 237 284 348
#     4   8  15  32  55  76 109 152 186 243 284 332
#     4   9  16  30  55  84 113 141 191 242 293 338
#     4  10  22  36  60  84 112 164 202 238 274 343
#     4  10  22  40  57  85 128 148 182 250 314 344
#     4  10  20  37  55  86 117 156 199 234 290 355
#
# _framework density 24.932986
#
# number of rings (size 3 to 8) (size 9 to 14) (size 15 to 20)
#    0.000    2.571    1.429    0.857    2.000    0.571 
#    2.571    5.000    0.000    2.571    0.000    0.000 
#    0.000    0.000    0.000    0.000    0.000    0.000 
#
# Total GULP energy -156008.807451 kJ/mol
# GULP energy per Si atom -5571.743123 kJ/mol
# Density = 2.487624 g / cm^3
# Si number density = 24.932986 Si / 1000 Ang^3
#
#
#
# Elastic Constant Matrix: (Units=GPa)
#
#
# Indices 1 2 3 4 5 6 
#
# 1 101.5139 18.6323 25.1615 0.0000 5.3949 0.0000
# 2 18.6323 70.4598 32.8675 0.0000 -17.2164 0.0000
# 3 25.1615 32.8675 106.1766 0.0000 -25.4652 0.0000
# 4 0.0000 0.0000 0.0000 7.2028 0.0000 -7.2445
# 5 5.3949 -17.2164 -25.4652 0.0000 40.6153 0.0000
# 6 0.0000 0.0000 0.0000 -7.2445 0.0000 14.8862
#
#
#
# Elastic Compliance Matrix: (Units=1/GPa)
#
#
# Indices 1 2 3 4 5 6 
#
# 1 0.011312 -0.002729 -0.002911 0.000000 -0.004485 0.000000
# 2 -0.002729 0.017971 -0.003534 0.000000 0.005765 0.000000
# 3 -0.002911 -0.003534 0.012871 0.000000 0.006959 0.000000
# 4 0.000000 0.000000 0.000000 0.271942 0.000000 0.132343
# 5 -0.004485 0.005765 0.006959 0.000000 0.032024 0.000000
# 6 0.000000 0.000000 0.000000 0.132343 0.000000 0.131582
#
#
# Mechanical properties :
#
#
# Convention : Reuss Voigt Hill
#
# Bulk Modulus (GPa) = 42.00707 47.94141 44.97424
# Shear Modulus (GPa) = 9.92093 25.97348 17.94721
#
# Velocity S-wave (km/s) = 1.99692 3.23109 2.68585
# Velocity P-wave (km/s) = 4.71184 5.76106 5.26266
#
# Compressibility (1/GPa) = 0.02380552
#
# Stress axis : x y z
#
# Youngs Moduli (GPa) = 88.40373 55.64502 77.69343
#
# Poissons Ratio (x) = 0.15185 0.22620
# Poissons Ratio (y) = 0.24125 0.27455
# Poissons Ratio (z) = 0.25739 0.19664
#
# Static dielectric constant tensor:
#      x y z
#    x 2.068440 0.000000 -0.039160 
#    y 0.000000 2.104710 0.000000 
#    z -0.039160 0.000000 2.036900 
# 
# From -- ./inp_files/50287.got.cif
#   From: 2010.05.17/outbox.cif.g08.bks.cpg/sg15_26_cif.got.tgz:50287.got - 2010.06.03 18:47:42.
