data_PCOD9268543
_publ_section_title
;
Structure prediction by ZEFSAII (Michael W. Deem and Ramdas Pophale) SiO2 
 PCOD9268543
Probable space group: C 2/C
;
_chemical_formula_sum "Si O2"
_cell_formula_units_Z 40
_cell_length_a 19.715954
_cell_length_b 9.619547
_cell_length_c 9.390109
_cell_angle_alpha 90.000000
_cell_angle_beta 77.752718
_cell_angle_gamma 90.000000
_cell_volume 1740.382894
_symmetry_space_group_name_H-M "C 2/C"
_symmetry_group_IT_number 15
_symmetry_cell_setting 'monoclinic'
loop_
_space_group_symop_operation_xyz
x,y,z
-x,y,1/2-z
-x,-y,-z
x,-y,1/2+z
1/2+x,1/2+y,z
1/2-x,1/2+y,1/2-z
1/2-x,1/2-y,-z
1/2+x,1/2-y,1/2+z
loop_
_atom_site_type_symbol
_atom_site_label
_atom_site_fract_x
_atom_site_fract_y
_atom_site_fract_z
Si Si1 0.924411 0.267234 0.220037
Si Si2 0.360341 0.927564 0.719146
Si Si3 0.329698 0.279983 0.012042
Si Si4 0.346913 0.723224 0.993397
Si Si5 0.769727 0.087747 0.807687
O O1 0.903119 0.431051 0.218856
O O2 0.871242 0.192154 0.350741
O O3 0.000000 0.252598 0.250000
O O4 0.911442 0.205517 0.068811
O O5 0.373643 0.847432 0.565317
O O6 0.364083 0.831563 0.857511
O O7 0.279785 0.967964 0.726791
O O8 0.318738 0.373558 0.155595
O O9 0.250000 0.250000 0.000000
O O10 0.316189 0.587972 0.928767
O O11 0.287115 0.795195 0.117612
#
# Coordination Sequence:
#
# PCOD9268543 Si02
#       5
#     8   8   8   8   8
#     4  11  22  35  52  81 121 155 176 219 281 342
#     4  10  20  32  54  83 115 143 183 223 284 331
#     4  11  20  35  52  82 116 141 191 231 267 325
#     4   9  18  32  51  79 113 144 180 221 273 328
#     4   9  18  32  51  76 114 138 184 235 266 319
#
# _framework density 22.983450000000001
#
# number of rings (size 3 to 8) (size 9 to 14) (size 15 to 20)
#    0.000    2.000    4.000    2.400    0.000    3.200 
#    0.000    3.000    0.000    0.000    0.000    5.600 
#    0.000    0.000    0.000    0.000    0.000    0.000 
#
# Total GULP energy -111581.215914 kJ/mol
# GULP energy per Si atom -5579.060796 kJ/mol
# Density = 2.293114 g / cm^3
# Si number density = 22.983450 Si / 1000 Ang^3
#
#
#
# Elastic Constant Matrix: (Units=GPa)
#
#
# Indices 1 2 3 4 5 6 
#
# 1 158.1338 14.6535 55.5612 0.0000 47.6354 0.0000
# 2 14.6535 22.2140 20.6978 0.0000 12.5650 0.0000
# 3 55.5612 20.6978 133.1377 0.0000 47.0042 0.0000
# 4 0.0000 0.0000 0.0000 35.1205 0.0000 9.0399
# 5 47.6354 12.5650 47.0042 0.0000 41.5079 0.0000
# 6 0.0000 0.0000 0.0000 9.0399 0.0000 18.4324
#
#
#
# Elastic Compliance Matrix: (Units=1/GPa)
#
#
# Indices 1 2 3 4 5 6 
#
# 1 0.009668 -0.000055 -0.000191 0.000000 -0.010862 0.000000
# 2 -0.000055 0.055908 -0.004525 0.000000 -0.011736 0.000000
# 3 -0.000191 -0.004525 0.012884 0.000000 -0.013001 0.000000
# 4 0.000000 0.000000 0.000000 0.032587 0.000000 -0.015982
# 5 -0.010862 -0.011736 -0.013001 0.000000 0.054833 0.000000
# 6 0.000000 0.000000 0.000000 -0.015982 0.000000 0.062090
#
#
# Mechanical properties :
#
#
# Convention : Reuss Voigt Hill
#
# Bulk Modulus (GPa) = 14.51021 55.03449 34.77235
# Shear Modulus (GPa) = 19.19489 33.85036 26.52262
#
# Velocity S-wave (km/s) = 2.89305 3.84189 3.40072
# Velocity P-wave (km/s) = 4.18171 6.60889 5.53010
#
# Compressibility (1/GPa) = 0.06891699
#
# Stress axis : x y z
#
# Youngs Moduli (GPa) = 103.43294 17.88658 77.61349
#
# Poissons Ratio (x) = 0.00099 0.01485
# Poissons Ratio (y) = 0.00574 0.35119
# Poissons Ratio (z) = 0.01978 0.08093
#
# Static dielectric constant tensor:
#      x y z
#    x 1.856670 0.000000 0.037130 
#    y 0.000000 2.012000 0.000000 
#    z 0.037130 0.000000 1.863290 
# 
# From -- ./inp_files/54060.got.cif
#   From: 2010.05.17/outbox.cif.g08.bks.cpg/sg15_28_cif.got.tgz:54060.got - 2010.06.03 18:47:42.
