data_PCOD9268747
_publ_section_title
;
Structure prediction by ZEFSAII (Michael W. Deem and Ramdas Pophale) SiO2 
 PCOD9268747
Probable space group: C 2/C
;
_chemical_formula_sum "Si O2"
_cell_formula_units_Z 48
_cell_length_a 21.056789
_cell_length_b 5.234200
_cell_length_c 20.852746
_cell_angle_alpha 90.000000
_cell_angle_beta 69.550623
_cell_angle_gamma 90.000000
_cell_volume 2153.459011
_symmetry_space_group_name_H-M "C 2/C"
_symmetry_group_IT_number 15
_symmetry_cell_setting 'monoclinic'
loop_
_space_group_symop_operation_xyz
x,y,z
-x,y,1/2-z
-x,-y,-z
x,-y,1/2+z
1/2+x,1/2+y,z
1/2-x,1/2+y,1/2-z
1/2-x,1/2-y,-z
1/2+x,1/2-y,1/2+z
loop_
_atom_site_type_symbol
_atom_site_label
_atom_site_fract_x
_atom_site_fract_y
_atom_site_fract_z
Si Si1 0.656263 0.932723 0.786140
Si Si2 0.311754 0.309192 0.026409
Si Si3 0.734032 0.813535 0.431656
Si Si4 0.957082 0.787001 0.943452
Si Si5 0.974951 0.291083 0.590580
Si Si6 0.193799 0.061718 0.203380
O O1 0.592959 0.914631 0.856317
O O2 0.728992 0.941265 0.796334
O O3 0.653728 0.663491 0.751400
O O4 0.660381 0.169380 0.734517
O O5 0.289454 0.532582 0.083623
O O6 0.324218 0.026819 0.050223
O O7 0.250000 0.250000 0.000000
O O8 0.380284 0.386184 0.967580
O O9 0.750000 0.750000 0.500000
O O10 0.793899 0.954367 0.372642
O O11 0.968678 0.503886 0.912395
O O12 0.970409 0.749441 0.015180
O O13 0.004916 0.003920 0.895953
#
# Coordination Sequence:
#
# PCOD9268747 Si02
#       6
#     8   8   8   8   8   8
#     4  10  20  33  51  78 112 151 185 223 283 345
#     4  10  20  34  54  81 108 140 181 234 284 323
#     4  10  20  34  54  81 108 139 181 236 288 327
#     4  10  20  33  52  79 112 148 186 225 275 341
#     4  10  20  33  51  78 113 150 181 220 280 342
#     4  10  20  33  52  78 111 147 186 229 278 344
#
# _framework density 22.289719999999999
#
# number of rings (size 3 to 8) (size 9 to 14) (size 15 to 20)
#    0.000    2.000    0.000    4.000    0.000    5.333 
#    0.000    0.000    0.000    0.000    0.000   70.000 
#    0.000    0.000    0.000    0.000    0.000    0.000 
#
# Total GULP energy -133640.804879 kJ/mol
# GULP energy per Si atom -5568.366870 kJ/mol
# Density = 2.223899 g / cm^3
# Si number density = 22.289720 Si / 1000 Ang^3
#
#
#
# Elastic Constant Matrix: (Units=GPa)
#
#
# Indices 1 2 3 4 5 6 
#
# 1 37.7658 28.1179 10.2275 -0.0016 -7.8548 -0.0080
# 2 28.1179 189.4001 37.2770 0.0035 -22.7901 -0.0086
# 3 10.2275 37.2770 81.4324 0.0020 -17.3838 0.0025
# 4 -0.0016 0.0035 0.0020 39.7583 0.0026 -12.7209
# 5 -7.8548 -22.7901 -17.3838 0.0026 22.9080 -0.0001
# 6 -0.0080 -0.0086 0.0025 -12.7209 -0.0001 17.7829
#
#
#
# Elastic Compliance Matrix: (Units=1/GPa)
#
#
# Indices 1 2 3 4 5 6 
#
# 1 0.030723 -0.003639 -0.000855 0.000007 0.006265 0.000017
# 2 -0.003639 0.006647 -0.001719 0.000000 0.004061 0.000002
# 3 -0.000855 -0.001719 0.015211 -0.000003 0.009539 -0.000005
# 4 0.000007 0.000000 -0.000003 0.032617 -0.000004 0.023333
# 5 0.006265 0.004061 0.009539 -0.000004 0.057080 0.000001
# 6 0.000017 0.000002 -0.000005 0.023333 0.000001 0.072925
#
#
# Mechanical properties :
#
#
# Convention : Reuss Voigt Hill
#
# Bulk Modulus (GPa) = 24.90386 51.09368 37.99877
# Shear Modulus (GPa) = 20.74566 31.62156 26.18361
#
# Velocity S-wave (km/s) = 3.05409 3.77060 3.43110
# Velocity P-wave (km/s) = 4.86145 6.47525 5.72549
#
# Compressibility (1/GPa) = 0.04015442
#
# Stress axis : x y z
#
# Youngs Moduli (GPa) = 32.54893 150.44481 65.74254
#
# Poissons Ratio (x) = 0.54744 0.05624
# Poissons Ratio (y) = 0.11844 0.11300
# Poissons Ratio (z) = 0.02784 0.25860
#
# Static dielectric constant tensor:
#      x y z
#    x 1.902300 0.000000 0.046030 
#    y 0.000000 1.982380 0.000000 
#    z 0.046030 0.000000 1.964280 
# 
# From -- ./inp_files/253972.got.cif
#   From: 2010.05.17/outbox.cif.g08.bks.cpg/sg15_127_cif.got.tgz:253972.got - 2010.06.03 18:47:42.
