data_PCOD9268985
_publ_section_title
;
Structure prediction by ZEFSAII (Michael W. Deem and Ramdas Pophale) SiO2 
 PCOD9268985
Probable space group: C 2/C
;
_chemical_formula_sum "Si O2"
_cell_formula_units_Z 64
_cell_length_a 27.919748
_cell_length_b 19.095356
_cell_length_c 18.621915
_cell_angle_alpha 90.000000
_cell_angle_beta 160.104001
_cell_angle_gamma 90.000000
_cell_volume 3378.650483
_symmetry_space_group_name_H-M "C 2/C"
_symmetry_group_IT_number 15
_symmetry_cell_setting 'monoclinic'
loop_
_space_group_symop_operation_xyz
x,y,z
-x,y,1/2-z
-x,-y,-z
x,-y,1/2+z
1/2+x,1/2+y,z
1/2-x,1/2+y,1/2-z
1/2-x,1/2-y,-z
1/2+x,1/2-y,1/2+z
loop_
_atom_site_type_symbol
_atom_site_label
_atom_site_fract_x
_atom_site_fract_y
_atom_site_fract_z
Si Si1 0.470829 0.105877 0.124701
Si Si2 0.649432 0.223670 0.296288
Si Si3 0.404674 0.304136 0.778406
Si Si4 0.289004 0.846148 0.127110
Si Si5 0.616806 0.316016 0.596056
Si Si6 0.885402 0.498413 0.774740
Si Si7 0.155875 0.113333 0.006218
Si Si8 0.223838 0.171587 0.701117
O O1 0.500000 0.111887 0.250000
O O2 0.549006 0.166987 0.191305
O O3 0.540676 0.037770 0.188972
O O4 0.310958 0.118977 0.874741
O O5 0.750000 0.250000 0.500000
O O6 0.750112 0.181091 0.384346
O O7 0.543799 0.285721 0.124371
O O8 0.396187 0.219406 0.773339
O O9 0.323819 0.328084 0.593149
O O10 0.339618 0.333314 0.760972
O O11 0.563360 0.327519 0.995883
O O12 0.348925 0.923014 0.201324
O O13 0.235077 0.847354 0.132906
O O14 0.631615 0.376242 0.557382
O O15 0.709628 0.249463 0.701740
O O16 0.750356 0.452794 0.612543
O O17 0.000000 0.500000 0.000000
O O18 0.000000 0.114145 0.750000
#
# Coordination Sequence:
#
# PCOD9268985 Si02
#       8
#     8   8   8   8   8   8   8   8
#     4  10  23  38  59  93 120 162 208 248 318 378
#     4  10  20  33  58  87 133 159 191 259 313 374
#     4  10  22  38  66  95 121 154 212 283 308 360
#     4  10  22  44  62  89 122 164 215 256 327 367
#     4  10  21  34  57  97 124 155 204 258 318 372
#     4  11  24  46  64  83 127 175 211 254 313 404
#     4  11  23  37  60  93 123 168 208 246 315 393
#     4  10  20  36  64  89 123 162 200 255 317 380
#
# _framework density 18.942474000000001
#
# number of rings (size 3 to 8) (size 9 to 14) (size 15 to 20)
#    0.000    1.750    2.500    1.125    8.750    1.000 
#    2.250    1.250    0.000    2.250    0.000    0.000 
#    0.000    0.000    0.000    0.000    0.000    0.000 
#
# Total GULP energy -178438.908763 kJ/mol
# GULP energy per Si atom -5576.215899 kJ/mol
# Density = 1.889936 g / cm^3
# Si number density = 18.942474 Si / 1000 Ang^3
#
#
#
# Elastic Constant Matrix: (Units=GPa)
#
#
# Indices 1 2 3 4 5 6 
#
# 1 109.6324 42.7701 55.6211 0.0000 -20.6566 0.0000
# 2 42.7701 69.9771 37.6366 0.0000 1.5137 0.0000
# 3 55.6211 37.6366 92.8952 0.0000 2.5039 0.0000
# 4 0.0000 0.0000 0.0000 10.7277 0.0000 -3.1486
# 5 -20.6566 1.5137 2.5039 0.0000 30.7809 0.0000
# 6 0.0000 0.0000 0.0000 -3.1486 0.0000 18.9306
#
#
#
# Elastic Compliance Matrix: (Units=1/GPa)
#
#
# Indices 1 2 3 4 5 6 
#
# 1 0.019013 -0.007156 -0.008858 0.000000 0.013832 0.000000
# 2 -0.007156 0.020968 -0.004062 0.000000 -0.005503 0.000000
# 3 -0.008858 -0.004062 0.017908 0.000000 -0.007201 0.000000
# 4 0.000000 0.000000 0.000000 0.098000 0.000000 0.016299
# 5 0.013832 -0.005503 -0.007201 0.000000 0.042627 0.000000
# 6 0.000000 0.000000 0.000000 0.016299 0.000000 0.055535
#
#
# Mechanical properties :
#
#
# Convention : Reuss Voigt Hill
#
# Bulk Modulus (GPa) = 56.37744 60.50670 58.44207
# Shear Modulus (GPa) = 16.66022 21.18631 18.92327
#
# Velocity S-wave (km/s) = 2.96888 3.34796 3.16410
# Velocity P-wave (km/s) = 6.44821 6.85250 6.65343
#
# Compressibility (1/GPa) = 0.01773759
#
# Stress axis : x y z
#
# Youngs Moduli (GPa) = 52.59503 47.69168 55.84004
#
# Poissons Ratio (x) = 0.34128 0.49462
# Poissons Ratio (y) = 0.37637 0.22683
# Poissons Ratio (z) = 0.46587 0.19373
#
# Static dielectric constant tensor:
#      x y z
#    x 1.682490 0.000000 -0.010240 
#    y 0.000000 1.650320 0.000000 
#    z -0.010240 0.000000 1.662910 
# 
# From -- ./inp_files/223170.got.cif
#   From: 2010.05.17/outbox.cif.g08.bks.cpg/sg15_112_cif.got.tgz:223170.got - 2010.06.03 18:47:42.
