data_PCOD9268514
_publ_section_title
;
Structure prediction by ZEFSAII (Michael W. Deem and Ramdas Pophale) SiO2 
 PCOD9268514
Probable space group: C 2/C
;
_chemical_formula_sum "Si O2"
_cell_formula_units_Z 48
_cell_length_a 30.061926
_cell_length_b 6.990693
_cell_length_c 9.655943
_cell_angle_alpha 90.000000
_cell_angle_beta 98.214710
_cell_angle_gamma 90.000000
_cell_volume 2008.411333
_symmetry_space_group_name_H-M "C 2/C"
_symmetry_group_IT_number 15
_symmetry_cell_setting 'monoclinic'
loop_
_space_group_symop_operation_xyz
x,y,z
-x,y,1/2-z
-x,-y,-z
x,-y,1/2+z
1/2+x,1/2+y,z
1/2-x,1/2+y,1/2-z
1/2-x,1/2-y,-z
1/2+x,1/2-y,1/2+z
loop_
_atom_site_type_symbol
_atom_site_label
_atom_site_fract_x
_atom_site_fract_y
_atom_site_fract_z
Si Si1 0.798839 0.528796 0.940995
Si Si2 0.873948 0.947840 0.165491
Si Si3 0.386330 0.247107 0.891269
Si Si4 0.784494 0.732039 0.201622
Si Si5 0.483625 0.772972 0.389104
Si Si6 0.461652 0.320679 0.339684
O O1 0.847881 0.600042 0.917423
O O2 0.788531 0.329831 0.862064
O O3 0.762822 0.677156 0.859720
O O4 0.792824 0.550963 0.102768
O O5 0.824290 0.876131 0.179115
O O6 0.911905 0.814001 0.255581
O O7 0.879350 0.155704 0.237602
O O8 0.882856 0.917041 0.006138
O O9 0.435364 0.153591 0.916542
O O10 0.500000 0.845860 0.250000
O O11 0.471382 0.547143 0.366162
O O12 0.524469 0.780561 0.513288
O O13 0.500000 0.259951 0.250000
#
# Coordination Sequence:
#
# PCOD9268514 Si02
#       6
#     8   8   8   8   8   8
#     4  10  22  40  60  81 111 139 178 222 270 322
#     4  10  20  32  53  82 112 142 182 221 269 317
#     4  10  20  33  52  82 112 143 179 226 266 317
#     4  10  22  40  59  83 109 141 177 222 268 325
#     4   9  17  27  45  74 108 141 180 222 261 309
#     4   9  15  27  45  72 106 143 175 221 265 304
#
# _framework density 23.899486
#
# number of rings (size 3 to 8) (size 9 to 14) (size 15 to 20)
#    0.000    2.333    1.667    1.000    7.000    2.000 
#    0.000    0.000    0.000    2.000    0.000    0.000 
#    0.000    0.000    0.000    0.000    0.000    0.000 
#
# Total GULP energy -134159.586398 kJ/mol
# GULP energy per Si atom -5589.982767 kJ/mol
# Density = 2.384509 g / cm^3
# Si number density = 23.899486 Si / 1000 Ang^3
#
#
#
# Elastic Constant Matrix: (Units=GPa)
#
#
# Indices 1 2 3 4 5 6 
#
# 1 117.3055 12.7444 13.1659 0.0000 -3.9902 0.0000
# 2 12.7444 50.7444 3.3450 0.0000 -2.5936 0.0000
# 3 13.1659 3.3450 57.5600 0.0000 0.6937 0.0000
# 4 0.0000 0.0000 0.0000 8.8057 0.0000 12.0441
# 5 -3.9902 -2.5936 0.6937 0.0000 28.8969 0.0000
# 6 0.0000 0.0000 0.0000 12.0441 0.0000 15.3246
#
#
#
# Elastic Compliance Matrix: (Units=1/GPa)
#
#
# Indices 1 2 3 4 5 6 
#
# 1 0.009007 -0.002077 -0.001953 0.000000 0.001104 0.000000
# 2 -0.002077 0.020356 -0.000727 0.000000 0.001558 0.000000
# 3 -0.001953 -0.000727 0.017871 0.000000 -0.000764 0.000000
# 4 0.000000 0.000000 0.000000 -1.514850 0.000000 1.190571
# 5 0.001104 0.001558 -0.000764 0.000000 0.034916 0.000000
# 6 0.000000 0.000000 0.000000 1.190571 0.000000 -0.870455
#
#
# Mechanical properties :
#
#
# Convention : Reuss Voigt Hill
#
# Bulk Modulus (GPa) = 26.51022 31.56893 29.03957
# Shear Modulus (GPa) = -2.19196 23.69575 10.75190
#
# Velocity S-wave (km/s) = -0.95872 3.15219 2.12334
# Velocity P-wave (km/s) = 3.14499 5.14646 4.26480
#
# Compressibility (1/GPa) = 0.03772130
#
# Stress axis : x y z
#
# Youngs Moduli (GPa) = 111.02309 49.12614 55.95567
#
# Poissons Ratio (x) = 0.10203 0.10927
# Poissons Ratio (y) = 0.23059 0.04066
# Poissons Ratio (z) = 0.21681 0.03570
#
# Static dielectric constant tensor:
#      x y z
#    x 1.855880 0.000000 -0.002720 
#    y 0.000000 1.967650 0.000000 
#    z -0.002720 0.000000 1.821990 
# 
# From -- ./inp_files/68552.got.cif
#   From: 2010.05.17/outbox.cif.g08.bks.cpg/sg15_35_cif.got.tgz:68552.got - 2010.06.03 18:47:42.
