data_PCOD9268134
_publ_section_title
;
Structure prediction by ZEFSAII (Michael W. Deem and Ramdas Pophale) SiO2 
 PCOD9268134
Probable space group: C 2/C
;
_chemical_formula_sum "Si O2"
_cell_formula_units_Z 36
_cell_length_a 11.424584
_cell_length_b 13.698259
_cell_length_c 8.929594
_cell_angle_alpha 90.000000
_cell_angle_beta 96.719292
_cell_angle_gamma 90.000000
_cell_volume 1387.855195
_symmetry_space_group_name_H-M "C 2/C"
_symmetry_group_IT_number 15
_symmetry_cell_setting 'monoclinic'
loop_
_space_group_symop_operation_xyz
x,y,z
-x,y,1/2-z
-x,-y,-z
x,-y,1/2+z
1/2+x,1/2+y,z
1/2-x,1/2+y,1/2-z
1/2-x,1/2-y,-z
1/2+x,1/2-y,1/2+z
loop_
_atom_site_type_symbol
_atom_site_label
_atom_site_fract_x
_atom_site_fract_y
_atom_site_fract_z
Si Si1 0.755765 0.526577 0.267236
Si Si2 0.570921 0.284545 0.033092
Si Si3 0.172412 0.741249 0.339371
Si Si4 0.000000 0.074225 0.250000
Si Si5 0.605659 0.936180 0.444142
O O1 0.801015 0.631072 0.210733
O O2 0.616646 0.515566 0.217510
O O3 0.855959 0.455781 0.218134
O O4 0.778407 0.528481 0.447536
O O5 0.671327 0.297597 0.177550
O O6 0.451682 0.270347 0.108016
O O7 0.547202 0.359690 0.895296
O O8 0.588528 0.177575 0.965755
O O9 0.250000 0.750000 0.500000
O O10 0.500000 0.000000 0.500000
#
# Coordination Sequence:
#
# PCOD9268134 Si02
#       5
#     8   8   8   4   8
#     4  11  25  43  67 100 146 181 233 288 347 431
#     4  10  23  39  71 104 137 177 236 296 347 412
#     4  10  19  42  68 104 135 175 235 296 343 407
#     4  12  26  46  64 108 148 184 232 280 366 432
#     4  11  23  43  71 102 134 183 239 292 346 403
#
# _framework density 25.939305000000001
#
# number of rings (size 3 to 8) (size 9 to 14) (size 15 to 20)
#    0.000    1.333    4.444    0.667    3.111    4.444 
#    4.000    0.000    0.000    0.000    0.000    0.000 
#    0.000    0.000    0.000    0.000    0.000    0.000 
#
# Total GULP energy -100537.245891 kJ/mol
# GULP energy per Si atom -5585.402549 kJ/mol
# Density = 2.588027 g / cm^3
# Si number density = 25.939305 Si / 1000 Ang^3
#
#
#
# Elastic Constant Matrix: (Units=GPa)
#
#
# Indices 1 2 3 4 5 6 
#
# 1 124.4486 33.1461 29.9814 0.0000 6.2165 0.0000
# 2 33.1461 83.0888 31.1384 0.0000 -6.9561 0.0000
# 3 29.9814 31.1384 166.2541 0.0000 23.9942 0.0000
# 4 0.0000 0.0000 0.0000 33.5244 0.0000 -7.6318
# 5 6.2165 -6.9561 23.9942 0.0000 51.4158 0.0000
# 6 0.0000 0.0000 0.0000 -7.6318 0.0000 89.3557
#
#
#
# Elastic Compliance Matrix: (Units=1/GPa)
#
#
# Indices 1 2 3 4 5 6 
#
# 1 0.009220 -0.003462 -0.000843 0.000000 -0.001190 0.000000
# 2 -0.003462 0.014719 -0.002659 0.000000 0.003651 0.000000
# 3 -0.000843 -0.002659 0.007186 0.000000 -0.003611 0.000000
# 4 0.000000 0.000000 0.000000 0.030420 0.000000 0.002598
# 5 -0.001190 0.003651 -0.003611 0.000000 0.021772 0.000000
# 6 0.000000 0.000000 0.000000 0.002598 0.000000 0.011413
#
#
# Mechanical properties :
#
#
# Convention : Reuss Voigt Hill
#
# Bulk Modulus (GPa) = 58.14926 62.48033 60.31480
# Shear Modulus (GPa) = 43.70988 53.49423 48.60205
#
# Velocity S-wave (km/s) = 4.10943 4.54617 4.33330
# Velocity P-wave (km/s) = 6.70691 7.19001 6.95266
#
# Compressibility (1/GPa) = 0.01719712
#
# Stress axis : x y z
#
# Youngs Moduli (GPa) = 108.46075 67.94119 139.15718
#
# Poissons Ratio (x) = 0.23521 0.11725
# Poissons Ratio (y) = 0.37548 0.37006
# Poissons Ratio (z) = 0.09138 0.18068
#
# Static dielectric constant tensor:
#      x y z
#    x 2.036010 0.000000 0.096250 
#    y 0.000000 2.054720 0.000000 
#    z 0.096250 0.000000 2.111710 
# 
# From -- ./inp_files/28788.got.cif
#   From: 2010.05.17/outbox.cif.g08.bks.cpg/sg15_15_cif.got.tgz:28788.got - 2010.06.03 18:47:42.
