data_PCOD9268724
_publ_section_title
;
Structure prediction by ZEFSAII (Michael W. Deem and Ramdas Pophale) SiO2 
 PCOD9268724
Probable space group: C 2/C
;
_chemical_formula_sum "Si O2"
_cell_formula_units_Z 60
_cell_length_a 13.683742
_cell_length_b 23.770719
_cell_length_c 12.688044
_cell_angle_alpha 90.000000
_cell_angle_beta 124.159580
_cell_angle_gamma 90.000000
_cell_volume 3415.055362
_symmetry_space_group_name_H-M "C 2/C"
_symmetry_group_IT_number 15
_symmetry_cell_setting 'monoclinic'
loop_
_space_group_symop_operation_xyz
x,y,z
-x,y,1/2-z
-x,-y,-z
x,-y,1/2+z
1/2+x,1/2+y,z
1/2-x,1/2+y,1/2-z
1/2-x,1/2-y,-z
1/2+x,1/2-y,1/2+z
loop_
_atom_site_type_symbol
_atom_site_label
_atom_site_fract_x
_atom_site_fract_y
_atom_site_fract_z
Si Si1 0.000000 0.039274 0.250000
Si Si2 0.817362 0.199358 0.595419
Si Si3 0.440100 0.835941 0.828374
Si Si4 0.803594 0.974749 0.251436
Si Si5 0.059635 0.787637 0.118311
Si Si6 0.845646 0.408511 0.495170
Si Si7 0.254773 0.419475 0.855010
Si Si8 0.530806 0.400761 0.993135
O O1 0.970547 0.076718 0.128336
O O2 0.107109 0.998301 0.283173
O O3 0.750000 0.250000 0.500000
O O4 0.838445 0.207123 0.732261
O O5 0.739453 0.144694 0.537621
O O6 0.941021 0.196151 0.610126
O O7 0.500000 0.820945 0.750000
O O8 0.443710 0.779715 0.901440
O O9 0.313341 0.863775 0.728149
O O10 0.522984 0.884544 0.925925
O O11 0.701519 0.938806 0.135863
O O12 0.882161 0.939013 0.382397
O O13 0.749075 0.029827 0.270063
O O14 0.066884 0.835228 0.032828
O O15 0.815335 0.440958 0.584292
O O16 0.395428 0.408917 0.951741
#
# Coordination Sequence:
#
# PCOD9268724 Si02
#       8
#     4   8   8   8   8   8   8   8
#     4  10  22  36  52  76 108 136 174 224 270 314
#     4  11  18  30  49  79 115 135 161 212 266 318
#     4  10  20  33  50  80 110 141 170 208 266 320
#     4  11  21  35  55  79 103 136 179 222 265 314
#     4  11  20  29  51  82 111 134 168 212 268 327
#     4  11  19  32  52  78 111 137 172 213 260 317
#     4  10  21  34  51  76 109 142 172 212 267 313
#     4  11  21  35  55  81 104 137 176 219 274 315
#
# _framework density 17.569261999999998
#
# number of rings (size 3 to 8) (size 9 to 14) (size 15 to 20)
#    0.000    1.333    5.333    4.000    0.000    0.533 
#    0.000    0.000    0.000    3.200    3.467    0.000 
#    0.000    0.000    0.000    0.000    0.000    0.000 
#
# Total GULP energy -167203.142243 kJ/mol
# GULP energy per Si atom -5573.438075 kJ/mol
# Density = 1.752927 g / cm^3
# Si number density = 17.569262 Si / 1000 Ang^3
#
#
#
# Elastic Constant Matrix: (Units=GPa)
#
#
# Indices 1 2 3 4 5 6 
#
# 1 24.0071 5.5851 8.4081 0.0000 -0.3559 0.0000
# 2 5.5851 78.1142 26.0902 0.0000 -5.1936 0.0000
# 3 8.4081 26.0902 80.4463 0.0000 0.8285 0.0000
# 4 0.0000 0.0000 0.0000 39.0436 0.0000 2.7897
# 5 -0.3559 -5.1936 0.8285 0.0000 16.4565 0.0000
# 6 0.0000 0.0000 0.0000 2.7897 0.0000 16.3912
#
#
#
# Elastic Compliance Matrix: (Units=1/GPa)
#
#
# Indices 1 2 3 4 5 6 
#
# 1 0.043463 -0.001737 -0.003985 0.000000 0.000592 0.000000
# 2 -0.001737 0.014810 -0.004672 0.000000 0.004872 0.000000
# 3 -0.003985 -0.004672 0.014386 0.000000 -0.002285 0.000000
# 4 0.000000 0.000000 0.000000 0.025928 0.000000 -0.004413
# 5 0.000592 0.004872 -0.002285 0.000000 0.062432 0.000000
# 6 0.000000 0.000000 0.000000 -0.004413 0.000000 0.061759
#
#
# Mechanical properties :
#
#
# Convention : Reuss Voigt Hill
#
# Bulk Modulus (GPa) = 19.27876 29.19271 24.23573
# Shear Modulus (GPa) = 19.16762 23.87722 21.52242
#
# Velocity S-wave (km/s) = 3.30657 3.69051 3.50380
# Velocity P-wave (km/s) = 5.05715 5.90014 5.49483
#
# Compressibility (1/GPa) = 0.05187057
#
# Stress axis : x y z
#
# Youngs Moduli (GPa) = 23.00804 67.52071 69.51247
#
# Poissons Ratio (x) = 0.11729 0.27704
# Poissons Ratio (y) = 0.03997 0.32475
# Poissons Ratio (z) = 0.09170 0.31545
#
# Static dielectric constant tensor:
#      x y z
#    x 1.609340 0.000000 0.003820 
#    y 0.000000 1.646090 0.000000 
#    z 0.003820 0.000000 1.626310 
# 
# From -- ./inp_files/99830.got.cif
#   From: 2010.05.17/outbox.cif.g08.bks.cpg/sg15_50_cif.got.tgz:99830.got - 2010.06.03 18:47:42.
