data_PCOD9268585
_publ_section_title
;
Structure prediction by ZEFSAII (Michael W. Deem and Ramdas Pophale) SiO2 
 PCOD9268585
Probable space group: C 2/C
;
_chemical_formula_sum "Si O2"
_cell_formula_units_Z 60
_cell_length_a 19.483880
_cell_length_b 15.607961
_cell_length_c 8.909223
_cell_angle_alpha 90.000000
_cell_angle_beta 103.136737
_cell_angle_gamma 90.000000
_cell_volume 2638.425244
_symmetry_space_group_name_H-M "C 2/C"
_symmetry_group_IT_number 15
_symmetry_cell_setting 'monoclinic'
loop_
_space_group_symop_operation_xyz
x,y,z
-x,y,1/2-z
-x,-y,-z
x,-y,1/2+z
1/2+x,1/2+y,z
1/2-x,1/2+y,1/2-z
1/2-x,1/2-y,-z
1/2+x,1/2-y,1/2+z
loop_
_atom_site_type_symbol
_atom_site_label
_atom_site_fract_x
_atom_site_fract_y
_atom_site_fract_z
Si Si1 0.735286 0.074743 0.861642
Si Si2 0.391006 0.951997 0.970847
Si Si3 0.416503 0.181159 0.227202
Si Si4 0.073786 0.134728 0.841888
Si Si5 0.374464 0.854181 0.373273
Si Si6 0.500000 0.124775 0.750000
Si Si7 0.677079 0.516423 0.335656
Si Si8 0.037917 0.078514 0.113644
O O1 0.672185 0.047917 0.940606
O O2 0.700426 0.152867 0.749957
O O3 0.760026 0.008723 0.745520
O O4 0.799698 0.075557 0.013006
O O5 0.459850 0.931203 0.104305
O O6 0.386221 0.878215 0.842458
O O7 0.390685 0.043663 0.892514
O O8 0.500000 0.159512 0.250000
O O9 0.412774 0.282825 0.252912
O O10 0.377699 0.171885 0.047879
O O11 0.000000 0.094300 0.750000
O O12 0.139853 0.071487 0.873795
O O13 0.051530 0.154104 0.001421
O O14 0.438522 0.821861 0.301882
O O15 0.615641 0.553788 0.204406
O O16 0.000000 0.099735 0.250000
O O17 0.000000 0.000000 0.000000
#
# Coordination Sequence:
#
# PCOD9268585 Si02
#       8
#     8   8   8   8   8   4   8   8
#     4  11  24  36  64  93 128 171 228 274 317 399
#     4  11  22  38  62  94 127 170 232 281 325 390
#     4  11  24  43  66  97 135 178 217 282 360 391
#     4  11  24  43  68 103 140 170 214 283 346 409
#     4  11  22  38  61  91 127 169 231 273 323 391
#     4  10  20  32  56  90 118 156 212 280 318 362
#     4  12  21  41  67  98 132 171 221 276 334 398
#     4  12  20  39  71 108 132 167 228 278 331 401
#
# _framework density 22.740838
#
# number of rings (size 3 to 8) (size 9 to 14) (size 15 to 20)
#    0.000    0.800    6.667    2.000    1.867    0.000 
#    1.200    1.333    0.000    0.000    0.000    0.000 
#    0.000    0.000    0.000    0.000    0.000    0.000 
#
# Total GULP energy -167255.452806 kJ/mol
# GULP energy per Si atom -5575.181760 kJ/mol
# Density = 2.268908 g / cm^3
# Si number density = 22.740838 Si / 1000 Ang^3
#
#
#
# Elastic Constant Matrix: (Units=GPa)
#
#
# Indices 1 2 3 4 5 6 
#
# 1 105.7184 6.3836 40.4093 0.0000 2.8651 0.0000
# 2 6.3836 46.3953 18.9833 0.0000 -4.0199 0.0000
# 3 40.4093 18.9833 152.0497 0.0000 8.1502 0.0000
# 4 0.0000 0.0000 0.0000 27.2670 0.0000 -4.9171
# 5 2.8651 -4.0199 8.1502 0.0000 56.0023 0.0000
# 6 0.0000 0.0000 0.0000 -4.9171 0.0000 5.9930
#
#
#
# Elastic Compliance Matrix: (Units=1/GPa)
#
#
# Indices 1 2 3 4 5 6 
#
# 1 0.010535 -0.000339 -0.002749 0.000000 -0.000163 0.000000
# 2 -0.000339 0.022963 -0.002889 0.000000 0.002086 0.000000
# 3 -0.002749 -0.002889 0.007732 0.000000 -0.001192 0.000000
# 4 0.000000 0.000000 0.000000 0.043043 0.000000 0.035315
# 5 -0.000163 0.002086 -0.001192 0.000000 0.018188 0.000000
# 6 0.000000 0.000000 0.000000 0.035315 0.000000 0.195835
#
#
# Mechanical properties :
#
#
# Convention : Reuss Voigt Hill
#
# Bulk Modulus (GPa) = 34.15641 48.41288 41.28464
# Shear Modulus (GPa) = 15.62465 33.74494 24.68480
#
# Velocity S-wave (km/s) = 2.62405 3.85631 3.29824
# Velocity P-wave (km/s) = 4.92274 6.41587 5.71825
#
# Compressibility (1/GPa) = 0.02927708
#
# Stress axis : x y z
#
# Youngs Moduli (GPa) = 94.92518 43.54787 129.33548
#
# Poissons Ratio (x) = 0.01476 0.35550
# Poissons Ratio (y) = 0.03218 0.37361
# Poissons Ratio (z) = 0.26092 0.12580
#
# Static dielectric constant tensor:
#      x y z
#    x 1.901440 0.000000 0.054270 
#    y 0.000000 1.876320 0.000000 
#    z 0.054270 0.000000 1.813890 
# 
# From -- ./inp_files/56659.got.cif
#   From: 2010.05.17/outbox.cif.g08.bks.cpg/sg15_29_cif.got.tgz:56659.got - 2010.06.03 18:47:42.
