data_PCOD9268227
_publ_section_title
;
Structure prediction by ZEFSAII (Michael W. Deem and Ramdas Pophale) SiO2 
 PCOD9268227
Probable space group: C 2/C
;
_chemical_formula_sum "Si O2"
_cell_formula_units_Z 56
_cell_length_a 19.069780
_cell_length_b 18.733684
_cell_length_c 20.125841
_cell_angle_alpha 90.000000
_cell_angle_beta 158.322110
_cell_angle_gamma 90.000000
_cell_volume 2655.864478
_symmetry_space_group_name_H-M "C 2/C"
_symmetry_group_IT_number 15
_symmetry_cell_setting 'monoclinic'
loop_
_space_group_symop_operation_xyz
x,y,z
-x,y,1/2-z
-x,-y,-z
x,-y,1/2+z
1/2+x,1/2+y,z
1/2-x,1/2+y,1/2-z
1/2-x,1/2-y,-z
1/2+x,1/2-y,1/2+z
loop_
_atom_site_type_symbol
_atom_site_label
_atom_site_fract_x
_atom_site_fract_y
_atom_site_fract_z
Si Si1 0.599918 0.166164 0.734524
Si Si2 0.897650 0.805130 0.597731
Si Si3 0.265472 0.163899 0.267969
Si Si4 0.309118 0.024204 0.247015
Si Si5 0.819669 0.570602 0.445723
Si Si6 0.639562 0.672204 0.656120
Si Si7 0.933684 0.967298 0.340140
O O1 0.542062 0.249358 0.689347
O O2 0.415429 0.118628 0.587702
O O3 0.680457 0.153396 0.731617
O O4 0.775890 0.151631 0.937983
O O5 0.750000 0.750000 0.500000
O O6 0.000000 0.842553 0.750000
O O7 0.368262 0.105458 0.312826
O O8 0.280191 0.131474 0.355020
O O9 0.342234 0.242609 0.320689
O O10 0.047922 0.160134 0.052915
O O11 0.499536 0.979697 0.409963
O O12 0.187234 0.998886 0.203775
O O13 0.155849 0.021324 0.052423
O O14 0.644014 0.515674 0.288729
O O15 0.615608 0.617430 0.696560
#
# Coordination Sequence:
#
# PCOD9268227 Si02
#       7
#     8   8   8   8   8   8   8
#     4  11  20  30  50  70  82 120 159 197 240 298
#     4   9  20  38  49  62  92 114 147 203 264 289
#     4  10  20  27  41  62  89 127 157 204 233 263
#     4   9  18  31  41  56  87 125 153 187 248 270
#     4  11  20  30  47  65  90 120 159 197 241 271
#     4  11  20  29  43  69  94 116 174 203 225 272
#     4   9  18  31  42  60  95 126 142 205 239 264
#
# _framework density 21.085412000000002
#
# number of rings (size 3 to 8) (size 9 to 14) (size 15 to 20)
#    0.000    2.000    1.429    5.143    2.000    1.143 
#    0.000    0.000    0.000    0.000    0.000    0.000 
#    0.000    0.000    0.000    0.000    0.000   18.571 
#
# Total GULP energy -156103.287543 kJ/mol
# GULP energy per Si atom -5575.117412 kJ/mol
# Density = 2.103742 g / cm^3
# Si number density = 21.085412 Si / 1000 Ang^3
#
#
#
# Elastic Constant Matrix: (Units=GPa)
#
#
# Indices 1 2 3 4 5 6 
#
# 1 12.4041 13.0965 4.1646 0.0326 1.3765 0.0071
# 2 13.0965 153.9107 36.0371 0.0834 -4.8926 0.0359
# 3 4.1646 36.0371 93.8062 0.0103 -6.1037 -0.0104
# 4 0.0326 0.0834 0.0103 44.4174 0.0565 2.2243
# 5 1.3765 -4.8926 -6.1037 0.0565 23.1186 0.0153
# 6 0.0071 0.0359 -0.0104 2.2243 0.0153 11.9218
#
#
#
# Elastic Compliance Matrix: (Units=1/GPa)
#
#
# Indices 1 2 3 4 5 6 
#
# 1 0.089899 -0.007513 -0.001584 -0.000041 -0.007361 -0.000015
# 2 -0.007513 0.007782 -0.002564 -0.000009 0.001417 -0.000021
# 3 -0.001584 -0.002564 0.011891 -0.000001 0.002691 0.000016
# 4 -0.000041 -0.000009 -0.000001 0.022726 -0.000053 -0.004240
# 5 -0.007361 0.001417 0.002691 -0.000053 0.044704 -0.000045
# 6 -0.000015 -0.000021 0.000016 -0.004240 -0.000045 0.084671
#
#
# Mechanical properties :
#
#
# Convention : Reuss Voigt Hill
#
# Bulk Modulus (GPa) = 11.59411 40.74637 26.17024
# Shear Modulus (GPa) = 15.93656 29.67975 22.80815
#
# Velocity S-wave (km/s) = 2.75218 3.75586 3.29249
# Velocity P-wave (km/s) = 3.95094 6.17860 5.18580
#
# Compressibility (1/GPa) = 0.08625068
#
# Stress axis : x y z
#
# Youngs Moduli (GPa) = 11.12359 128.50327 84.10000
#
# Poissons Ratio (x) = 0.96541 0.13321
# Poissons Ratio (y) = 0.08357 0.21561
# Poissons Ratio (z) = 0.01762 0.32945
#
# Static dielectric constant tensor:
#      x y z
#    x 1.812430 -0.000150 -0.027570 
#    y -0.000150 1.914510 -0.000010 
#    z -0.027570 -0.000010 1.859610 
# 
# From -- ./inp_files/282208.got.cif
#   From: 2010.05.17/outbox.cif.g08.bks.cpg/sg15_142_cif.got.tgz:282208.got - 2010.06.03 18:47:42.
