data_PCOD9268892
_publ_section_title
;
Structure prediction by ZEFSAII (Michael W. Deem and Ramdas Pophale) SiO2 
 PCOD9268892
Probable space group: C 2/C
;
_chemical_formula_sum "Si O2"
_cell_formula_units_Z 64
_cell_length_a 18.677487
_cell_length_b 23.525111
_cell_length_c 7.711248
_cell_angle_alpha 90.000000
_cell_angle_beta 131.796371
_cell_angle_gamma 90.000000
_cell_volume 2525.998298
_symmetry_space_group_name_H-M "C 2/C"
_symmetry_group_IT_number 15
_symmetry_cell_setting 'monoclinic'
loop_
_space_group_symop_operation_xyz
x,y,z
-x,y,1/2-z
-x,-y,-z
x,-y,1/2+z
1/2+x,1/2+y,z
1/2-x,1/2+y,1/2-z
1/2-x,1/2-y,-z
1/2+x,1/2-y,1/2+z
loop_
_atom_site_type_symbol
_atom_site_label
_atom_site_fract_x
_atom_site_fract_y
_atom_site_fract_z
Si Si1 0.335236 0.910479 0.709068
Si Si2 0.341633 0.578673 0.376001
Si Si3 0.639446 0.334111 0.095777
Si Si4 0.051780 0.819259 0.561528
Si Si5 0.316533 0.778736 0.258864
Si Si6 0.964769 0.624330 0.889097
Si Si7 0.895383 0.489509 0.124954
Si Si8 0.617402 0.451922 0.940568
O O1 0.238845 0.887587 0.641903
O O2 0.327099 0.957188 0.546114
O O3 0.433346 0.874765 0.842407
O O4 0.363092 0.953954 0.909036
O O5 0.429838 0.621165 0.499929
O O6 0.360726 0.517291 0.486763
O O7 0.325956 0.564205 0.145829
O O8 0.597615 0.325222 0.831019
O O9 0.559429 0.308515 0.089970
O O10 0.645003 0.402269 0.119645
O O11 0.741669 0.304732 0.273118
O O12 0.110724 0.769838 0.566496
O O13 0.383574 0.830574 0.304631
O O14 0.250000 0.750000 0.000000
O O15 0.917137 0.561151 0.799306
O O16 0.000000 0.637393 0.750000
O O17 0.000000 0.513581 0.250000
O O18 0.500000 0.447993 0.750000
#
# Coordination Sequence:
#
# PCOD9268892 Si02
#       8
#     8   8   8   8   8   8   8   8
#     4  10  20  33  55  80 119 149 186 230 286 340
#     4  11  22  34  57  85 115 151 187 234 286 343
#     4   9  18  33  50  73 111 145 181 230 283 333
#     4   9  19  33  47  76 109 143 183 231 276 334
#     4  10  21  29  53  75 110 149 189 228 288 342
#     4   9  20  30  48  74 109 146 183 224 282 333
#     4   9  18  34  51  77 114 152 180 228 277 339
#     4  11  21  37  56  80 120 148 190 234 287 342
#
# _framework density 25.336518000000002
#
# number of rings (size 3 to 8) (size 9 to 14) (size 15 to 20)
#    0.000    2.500    2.500    2.625   15.750    0.000 
#    0.000    0.000    0.000    0.000    0.000    3.500 
#    0.000    0.000    0.000    0.000    0.000    0.000 
#
# Total GULP energy -178658.970048 kJ/mol
# GULP energy per Si atom -5583.092814 kJ/mol
# Density = 2.527885 g / cm^3
# Si number density = 25.336518 Si / 1000 Ang^3
#
#
#
# Elastic Constant Matrix: (Units=GPa)
#
#
# Indices 1 2 3 4 5 6 
#
# 1 135.4999 62.7453 41.5650 0.0000 51.1225 0.0000
# 2 62.7453 117.2243 25.2442 0.0000 34.2820 0.0000
# 3 41.5650 25.2442 56.8246 0.0000 17.5691 0.0000
# 4 0.0000 0.0000 0.0000 20.6436 0.0000 15.8306
# 5 51.1225 34.2820 17.5691 0.0000 38.8142 0.0000
# 6 0.0000 0.0000 0.0000 15.8306 0.0000 13.7297
#
#
#
# Elastic Compliance Matrix: (Units=1/GPa)
#
#
# Indices 1 2 3 4 5 6 
#
# 1 0.016967 -0.002779 -0.005843 0.000000 -0.017247 0.000000
# 2 -0.002779 0.012219 -0.001384 0.000000 -0.006505 0.000000
# 3 -0.005843 -0.001384 0.022940 0.000000 -0.001465 0.000000
# 4 0.000000 0.000000 0.000000 0.418282 0.000000 -0.482285
# 5 -0.017247 -0.006505 -0.001465 0.000000 0.054889 0.000000
# 6 0.000000 0.000000 0.000000 -0.482285 0.000000 0.628916
#
#
# Mechanical properties :
#
#
# Convention : Reuss Voigt Hill
#
# Bulk Modulus (GPa) = 31.14076 63.18419 47.16247
# Shear Modulus (GPa) = 4.21966 26.63714 15.42840
#
# Velocity S-wave (km/s) = 1.29192 3.24595 2.47035
# Velocity P-wave (km/s) = 3.81352 6.24823 5.17607
#
# Compressibility (1/GPa) = 0.03211226
#
# Stress axis : x y z
#
# Youngs Moduli (GPa) = 58.93890 81.84201 43.59208
#
# Poissons Ratio (x) = 0.22746 0.25472
# Poissons Ratio (y) = 0.16381 0.06033
# Poissons Ratio (z) = 0.34439 0.11327
#
# Static dielectric constant tensor:
#      x y z
#    x 2.094940 0.000000 -0.018810 
#    y 0.000000 1.993940 0.000000 
#    z -0.018810 0.000000 2.139700 
# 
# From -- ./inp_files/114091.got.cif
#   From: 2010.05.17/outbox.cif.g08.bks.cpg/sg15_58_cif.got.tgz:114091.got - 2010.06.03 18:47:42.
