data_PCOD9268183
_publ_section_title
;
Structure prediction by ZEFSAII (Michael W. Deem and Ramdas Pophale) SiO2 
 PCOD9268183
Probable space group: C 2/C
;
_chemical_formula_sum "Si O2"
_cell_formula_units_Z 60
_cell_length_a 16.708006
_cell_length_b 7.596268
_cell_length_c 21.918730
_cell_angle_alpha 90.000000
_cell_angle_beta 110.153594
_cell_angle_gamma 90.000000
_cell_volume 2611.563522
_symmetry_space_group_name_H-M "C 2/C"
_symmetry_group_IT_number 15
_symmetry_cell_setting 'monoclinic'
loop_
_space_group_symop_operation_xyz
x,y,z
-x,y,1/2-z
-x,-y,-z
x,-y,1/2+z
1/2+x,1/2+y,z
1/2-x,1/2+y,1/2-z
1/2-x,1/2-y,-z
1/2+x,1/2-y,1/2+z
loop_
_atom_site_type_symbol
_atom_site_label
_atom_site_fract_x
_atom_site_fract_y
_atom_site_fract_z
Si Si1 0.219551 0.989748 0.730502
Si Si2 0.964118 0.257543 0.105443
Si Si3 0.724765 0.319214 0.558962
Si Si4 0.917033 0.121553 0.969164
Si Si5 0.346355 0.871425 0.349866
Si Si6 0.000000 0.639132 0.250000
Si Si7 0.045854 0.121298 0.657849
Si Si8 0.845438 0.544392 0.664980
O O1 0.286351 0.983263 0.803189
O O2 0.130547 0.084195 0.720336
O O3 0.266648 0.090926 0.687360
O O4 0.189313 0.804431 0.694243
O O5 0.051444 0.372251 0.129724
O O6 0.892364 0.318795 0.133792
O O7 0.996254 0.061381 0.132045
O O8 0.924676 0.256693 0.026997
O O9 0.750000 0.250000 0.500000
O O10 0.662631 0.490095 0.542596
O O11 0.677918 0.169891 0.586679
O O12 0.809489 0.385403 0.614976
O O13 0.925204 0.187919 0.901657
O O14 0.000000 0.000000 0.000000
O O15 0.992929 0.750647 0.186480
O O16 0.082959 0.519642 0.269426
#
# Coordination Sequence:
#
# PCOD9268183 Si02
#       8
#     8   8   8   8   8   4   8   8
#     4  10  20  40  61  84 128 162 205 259 313 375
#     4  10  22  39  68  91 128 166 212 265 323 377
#     4  11  23  42  67  94 129 165 215 270 313 380
#     4  10  19  43  69  88 125 171 213 262 315 388
#     4  10  20  40  63  89 122 170 205 258 322 373
#     4  12  26  38  66  94 130 170 212 260 316 398
#     4  10  21  42  65  92 117 175 219 251 317 388
#     4  11  24  43  59 100 135 160 207 279 319 367
#
# _framework density 22.974741000000002
#
# number of rings (size 3 to 8) (size 9 to 14) (size 15 to 20)
#    0.000    1.600    5.333    2.400    3.733    3.200 
#    2.400    4.000    0.000    0.000    0.000    0.000 
#    0.000    0.000    0.000    0.000    0.000    0.000 
#
# Total GULP energy -167581.343489 kJ/mol
# GULP energy per Si atom -5586.044783 kJ/mol
# Density = 2.292245 g / cm^3
# Si number density = 22.974741 Si / 1000 Ang^3
#
#
#
# Elastic Constant Matrix: (Units=GPa)
#
#
# Indices 1 2 3 4 5 6 
#
# 1 84.6566 15.6888 12.3972 0.0000 2.6490 0.0000
# 2 15.6888 31.1608 9.8449 0.0000 -11.5935 0.0000
# 3 12.3972 9.8449 101.7340 0.0000 -11.3487 0.0000
# 4 0.0000 0.0000 0.0000 37.0169 0.0000 -2.9111
# 5 2.6490 -11.5935 -11.3487 0.0000 44.6690 0.0000
# 6 0.0000 0.0000 0.0000 -2.9111 0.0000 29.2626
#
#
#
# Elastic Compliance Matrix: (Units=1/GPa)
#
#
# Indices 1 2 3 4 5 6 
#
# 1 0.013490 -0.007539 -0.001257 0.000000 -0.003076 0.000000
# 2 -0.007539 0.040353 -0.001820 0.000000 0.010458 0.000000
# 3 -0.001257 -0.001820 0.010410 0.000000 0.002247 0.000000
# 4 0.000000 0.000000 0.000000 0.027228 0.000000 0.002709
# 5 -0.003076 0.010458 0.002247 0.000000 0.025855 0.000000
# 6 0.000000 0.000000 0.000000 0.002709 0.000000 0.034443
#
#
# Mechanical properties :
#
#
# Convention : Reuss Voigt Hill
#
# Bulk Modulus (GPa) = 23.24484 32.60146 27.92315
# Shear Modulus (GPa) = 26.68792 34.16440 30.42616
#
# Velocity S-wave (km/s) = 3.41195 3.86040 3.64308
# Velocity P-wave (km/s) = 5.06571 5.83877 5.46592
#
# Compressibility (1/GPa) = 0.04302030
#
# Stress axis : x y z
#
# Youngs Moduli (GPa) = 74.12889 24.78107 96.06582
#
# Poissons Ratio (x) = 0.18683 0.12080
# Poissons Ratio (y) = 0.55887 0.17481
# Poissons Ratio (z) = 0.09322 0.04509
#
# Static dielectric constant tensor:
#      x y z
#    x 1.847340 0.000000 0.028340 
#    y 0.000000 1.925560 0.000000 
#    z 0.028340 0.000000 2.008560 
# 
# From -- ./inp_files/247539.got.cif
#   From: 2010.05.17/outbox.cif.g08.bks.cpg/sg15_124_cif.got.tgz:247539.got - 2010.06.03 18:47:42.
