data_PCOD9268296
_publ_section_title
;
Structure prediction by ZEFSAII (Michael W. Deem and Ramdas Pophale) SiO2 
 PCOD9268296
Probable space group: C 2/C
;
_chemical_formula_sum "Si O2"
_cell_formula_units_Z 44
_cell_length_a 10.312347
_cell_length_b 17.461855
_cell_length_c 16.574636
_cell_angle_alpha 90.000000
_cell_angle_beta 140.186549
_cell_angle_gamma 90.000000
_cell_volume 1911.035024
_symmetry_space_group_name_H-M "C 2/C"
_symmetry_group_IT_number 15
_symmetry_cell_setting 'monoclinic'
loop_
_space_group_symop_operation_xyz
x,y,z
-x,y,1/2-z
-x,-y,-z
x,-y,1/2+z
1/2+x,1/2+y,z
1/2-x,1/2+y,1/2-z
1/2-x,1/2-y,-z
1/2+x,1/2-y,1/2+z
loop_
_atom_site_type_symbol
_atom_site_label
_atom_site_fract_x
_atom_site_fract_y
_atom_site_fract_z
Si Si1 0.724428 0.317191 0.756047
Si Si2 0.851249 0.989850 0.756137
Si Si3 0.634587 0.576901 0.993281
Si Si4 0.959837 0.773231 0.490119
Si Si5 0.261860 0.630776 0.628263
Si Si6 0.500000 0.866130 0.750000
O O1 0.737194 0.405981 0.786239
O O2 0.512493 0.301118 0.606935
O O3 0.908674 0.313164 0.777997
O O4 0.764979 0.263405 0.852484
O O5 0.984549 0.008401 0.899367
O O6 0.000000 0.990280 0.750000
O O7 0.716026 0.065249 0.673274
O O8 0.513658 0.653137 0.961456
O O9 0.816705 0.577020 0.142263
O O10 0.750236 0.593197 0.964940
O O11 0.120152 0.703666 0.561466
O O12 0.500000 0.651083 0.750000
#
# Coordination Sequence:
#
# PCOD9268296 Si02
#       6
#     8   8   8   8   8   4
#     4  11  23  36  59  87 119 150 190 237 294 340
#     4   9  21  41  57  77 116 162 195 229 271 344
#     4   9  18  32  54  84 117 145 177 230 293 337
#     4  11  21  33  57  92 117 144 187 241 296 344
#     4   9  17  31  55  81 112 147 187 222 287 338
#     4  10  20  30  54  90 120 138 176 230 306 346
#
# _framework density 23.024173000000001
#
# number of rings (size 3 to 8) (size 9 to 14) (size 15 to 20)
#    0.000    2.545    1.818    2.727    7.636    3.636 
#    0.000    0.909    0.000    0.000    9.455    0.000 
#    0.000    0.000    0.000    0.000    0.000    0.000 
#
# Total GULP energy -122529.085246 kJ/mol
# GULP energy per Si atom -5569.503875 kJ/mol
# Density = 2.297177 g / cm^3
# Si number density = 23.024173 Si / 1000 Ang^3
#
#
#
# Elastic Constant Matrix: (Units=GPa)
#
#
# Indices 1 2 3 4 5 6 
#
# 1 21.7174 13.6550 9.8906 0.0002 -9.3519 0.0001
# 2 13.6550 115.4036 34.1344 0.0000 12.1055 0.0001
# 3 9.8906 34.1344 133.4335 0.0001 2.9533 0.0001
# 4 0.0002 0.0000 0.0001 27.9854 0.0001 4.6063
# 5 -9.3519 12.1055 2.9533 0.0001 10.9602 0.0001
# 6 0.0001 0.0001 0.0001 4.6063 0.0001 43.2295
#
#
#
# Elastic Compliance Matrix: (Units=1/GPa)
#
#
# Indices 1 2 3 4 5 6 
#
# 1 0.126832 -0.028209 -0.005301 -0.000001 0.140807 -0.000001
# 2 -0.028209 0.016817 -0.001275 0.000000 -0.042301 0.000000
# 3 -0.005301 -0.001275 0.008332 0.000000 -0.005361 0.000000
# 4 -0.000001 0.000000 0.000000 0.036371 -0.000002 -0.003875
# 5 0.140807 -0.042301 -0.005361 -0.000002 0.259552 -0.000001
# 6 -0.000001 0.000000 0.000000 -0.003875 -0.000001 0.023545
#
#
# Mechanical properties :
#
#
# Convention : Reuss Voigt Hill
#
# Bulk Modulus (GPa) = 12.13444 42.87937 27.50691
# Shear Modulus (GPa) = 8.79522 30.62664 19.71093
#
# Velocity S-wave (km/s) = 1.95660 3.65114 2.92909
# Velocity P-wave (km/s) = 3.22275 6.03643 4.83863
#
# Compressibility (1/GPa) = 0.08241009
#
# Stress axis : x y z
#
# Youngs Moduli (GPa) = 7.88446 59.46203 120.01754
#
# Poissons Ratio (x) = 1.67739 0.63626
# Poissons Ratio (y) = 0.22242 0.15301
# Poissons Ratio (z) = 0.04180 0.07581
#
# Static dielectric constant tensor:
#      x y z
#    x 1.887940 0.000000 -0.013310 
#    y 0.000000 1.895940 0.000000 
#    z -0.013310 0.000000 2.004800 
# 
# From -- ./inp_files/145843.got.cif
#   From: 2010.05.17/outbox.cif.g08.bks.cpg/sg15_73_cif.got.tgz:145843.got - 2010.06.03 18:47:42.
