data_PCOD9268441
_publ_section_title
;
Structure prediction by ZEFSAII (Michael W. Deem and Ramdas Pophale) SiO2 
 PCOD9268441
Probable space group: C 2/C
;
_chemical_formula_sum "Si O2"
_cell_formula_units_Z 48
_cell_length_a 21.824310
_cell_length_b 18.450360
_cell_length_c 16.997278
_cell_angle_alpha 90.000000
_cell_angle_beta 20.172399
_cell_angle_gamma 90.000000
_cell_volume 2360.206558
_symmetry_space_group_name_H-M "C 2/C"
_symmetry_group_IT_number 15
_symmetry_cell_setting 'monoclinic'
loop_
_space_group_symop_operation_xyz
x,y,z
-x,y,1/2-z
-x,-y,-z
x,-y,1/2+z
1/2+x,1/2+y,z
1/2-x,1/2+y,1/2-z
1/2-x,1/2-y,-z
1/2+x,1/2-y,1/2+z
loop_
_atom_site_type_symbol
_atom_site_label
_atom_site_fract_x
_atom_site_fract_y
_atom_site_fract_z
Si Si1 0.588538 0.906643 0.327528
Si Si2 0.283760 0.545667 0.148292
Si Si3 0.295263 0.273589 0.143826
Si Si4 0.000000 0.214525 0.250000
Si Si5 0.000000 0.965228 0.250000
Si Si6 0.765111 0.089148 0.459171
Si Si7 0.593343 0.363089 0.874988
O O1 0.402725 0.926064 0.591804
O O2 0.649561 0.827371 0.281397
O O3 0.737967 0.962080 0.182877
O O4 0.599007 0.918434 0.219860
O O5 0.426937 0.571105 0.040087
O O6 0.360986 0.575897 0.972976
O O7 0.198643 0.202507 0.291452
O O8 0.413913 0.245718 0.926841
O O9 0.419950 0.323157 0.048347
O O10 0.144137 0.160699 0.112954
O O11 0.885261 0.018871 0.332873
O O12 0.789866 0.105334 0.337773
#
# Coordination Sequence:
#
# PCOD9268441 Si02
#       7
#     8   8   8   4   4   8   8
#     4   9  19  36  53  76 108 140 173 215 261 313
#     4  10  20  34  56  78 103 139 179 220 262 304
#     4  10  20  32  49  77 112 140 172 210 259 322
#     4   7  14  28  44  68 104 143 160 188 252 321
#     4   9  18  36  54  74 104 137 180 226 262 301
#     4   8  16  30  50  76 106 135 166 204 257 322
#     4  11  21  32  53  81 109 143 174 209 260 317
#
# _framework density 20.337202999999999
#
# number of rings (size 3 to 8) (size 9 to 14) (size 15 to 20)
#    0.000    2.667    0.000    4.000    0.000   10.667 
#    0.000    0.000    0.000    7.000    0.000    0.000 
#    0.000    0.000    0.000    0.000    0.000    0.000 
#
# Total GULP energy -133621.672475 kJ/mol
# GULP energy per Si atom -5567.569686 kJ/mol
# Density = 2.029091 g / cm^3
# Si number density = 20.337203 Si / 1000 Ang^3
#
#
#
# Elastic Constant Matrix: (Units=GPa)
#
#
# Indices 1 2 3 4 5 6 
#
# 1 75.7072 24.8982 14.1333 -0.0044 14.2925 0.0002
# 2 24.8982 45.2738 -1.0594 -0.0078 11.7028 0.0004
# 3 14.1333 -1.0594 94.8735 -0.0101 22.7294 -0.0031
# 4 -0.0044 -0.0078 -0.0101 33.2285 -0.0051 -11.8890
# 5 14.2925 11.7028 22.7294 -0.0051 28.7394 0.0037
# 6 0.0002 0.0004 -0.0031 -11.8890 0.0037 36.2276
#
#
#
# Elastic Compliance Matrix: (Units=1/GPa)
#
#
# Indices 1 2 3 4 5 6 
#
# 1 0.017001 -0.008455 -0.001760 -0.000001 -0.003620 0.000000
# 2 -0.008455 0.029764 0.004304 0.000007 -0.011319 0.000003
# 3 -0.001760 0.004304 0.013646 0.000005 -0.011670 0.000004
# 4 -0.000001 0.000007 0.000005 0.034098 -0.000001 0.011190
# 5 -0.003620 -0.011319 -0.011670 -0.000001 0.050434 -0.000006
# 6 0.000000 0.000003 0.000004 0.011190 -0.000006 0.031276
#
#
# Mechanical properties :
#
#
# Convention : Reuss Voigt Hill
#
# Bulk Modulus (GPa) = 20.58064 32.42209 26.50137
# Shear Modulus (GPa) = 24.48099 31.49794 27.98947
#
# Velocity S-wave (km/s) = 3.47328 3.93973 3.71383
# Velocity P-wave (km/s) = 5.12119 6.05575 5.60797
#
# Compressibility (1/GPa) = 0.04858935
#
# Stress axis : x y z
#
# Youngs Moduli (GPa) = 58.81839 33.59728 73.27942
#
# Poissons Ratio (x) = 0.28408 0.12896
# Poissons Ratio (y) = 0.49733 -0.31537
# Poissons Ratio (z) = 0.10351 -0.14459
#
# Static dielectric constant tensor:
#      x y z
#    x 1.821570 0.000020 -0.032710 
#    y 0.000020 1.712560 0.000010 
#    z -0.032710 0.000010 1.808870 
# 
# From -- ./inp_files/40297.got.cif
#   From: 2010.05.17/outbox.cif.g08.bks.cpg/sg15_21_cif.got.tgz:40297.got - 2010.06.03 18:47:42.
