data_PCOD9268035
_publ_section_title
;
Structure prediction by ZEFSAII (Michael W. Deem and Ramdas Pophale) SiO2 
 PCOD9268035
Probable space group: C 2/C
;
_chemical_formula_sum "Si O2"
_cell_formula_units_Z 48
_cell_length_a 11.754821
_cell_length_b 15.935084
_cell_length_c 12.313646
_cell_angle_alpha 90.000000
_cell_angle_beta 90.707235
_cell_angle_gamma 90.000000
_cell_volume 2306.343313
_symmetry_space_group_name_H-M "C 2/C"
_symmetry_group_IT_number 15
_symmetry_cell_setting 'monoclinic'
loop_
_space_group_symop_operation_xyz
x,y,z
-x,y,1/2-z
-x,-y,-z
x,-y,1/2+z
1/2+x,1/2+y,z
1/2-x,1/2+y,1/2-z
1/2-x,1/2-y,-z
1/2+x,1/2-y,1/2+z
loop_
_atom_site_type_symbol
_atom_site_label
_atom_site_fract_x
_atom_site_fract_y
_atom_site_fract_z
Si Si1 0.342101 0.069296 0.820893
Si Si2 0.573667 0.134365 0.895467
Si Si3 0.268424 0.348755 0.981459
Si Si4 0.865066 0.613437 0.232643
Si Si5 0.508083 0.328521 0.879705
Si Si6 0.746243 0.163485 0.066420
O O1 0.466799 0.073718 0.878093
O O2 0.354612 0.128689 0.715180
O O3 0.323818 0.976906 0.775264
O O4 0.253647 0.102361 0.907337
O O5 0.523019 0.228401 0.903986
O O6 0.653957 0.111250 0.996874
O O7 0.176451 0.375381 0.889875
O O8 0.394373 0.360698 0.934957
O O9 0.250000 0.250000 0.000000
O O10 0.801700 0.677147 0.313431
O O11 0.000000 0.620638 0.250000
O O12 0.500000 0.338349 0.750000
O O13 0.625481 0.369141 0.923280
O O14 0.750000 0.250000 0.000000
#
# Coordination Sequence:
#
# PCOD9268035 Si02
#       6
#     8   8   8   8   8   8
#     4  11  23  41  68 101 133 174 217 289 349 390
#     4  10  19  41  67  94 136 171 215 281 353 383
#     4  12  25  42  70 100 135 178 233 273 333 413
#     4  12  26  41  67 106 131 167 228 288 342 399
#     4  11  19  42  65  95 132 183 224 270 333 406
#     4  10  24  39  65  97 133 177 225 273 332 405
#
# _framework density 20.812166000000001
#
# number of rings (size 3 to 8) (size 9 to 14) (size 15 to 20)
#    0.000    1.000    6.667    1.000    7.000    1.333 
#    0.000    1.667    3.667    0.000    0.000    0.000 
#    0.000    0.000    0.000    0.000    0.000    0.000 
#
# Total GULP energy -134153.337044 kJ/mol
# GULP energy per Si atom -5589.722377 kJ/mol
# Density = 2.076480 g / cm^3
# Si number density = 20.812166 Si / 1000 Ang^3
#
#
#
# Elastic Constant Matrix: (Units=GPa)
#
#
# Indices 1 2 3 4 5 6 
#
# 1 111.5623 0.6524 38.0820 0.0000 -8.9940 0.0000
# 2 0.6524 60.7256 14.6379 0.0000 -5.3518 0.0000
# 3 38.0820 14.6379 92.1496 0.0000 -10.2795 0.0000
# 4 0.0000 0.0000 0.0000 34.8213 0.0000 -4.8181
# 5 -8.9940 -5.3518 -10.2795 0.0000 53.3155 0.0000
# 6 0.0000 0.0000 0.0000 -4.8181 0.0000 17.0680
#
#
#
# Elastic Compliance Matrix: (Units=1/GPa)
#
#
# Indices 1 2 3 4 5 6 
#
# 1 0.010546 0.001040 -0.004408 0.000000 0.001034 0.000000
# 2 0.001040 0.017304 -0.003030 0.000000 0.001328 0.000000
# 3 -0.004408 -0.003030 0.013325 0.000000 0.001521 0.000000
# 4 0.000000 0.000000 0.000000 0.029885 0.000000 0.008436
# 5 0.001034 0.001328 0.001521 0.000000 0.019357 0.000000
# 6 0.000000 0.000000 0.000000 0.008436 0.000000 0.060971
#
#
# Mechanical properties :
#
#
# Convention : Reuss Voigt Hill
#
# Bulk Modulus (GPa) = 35.23890 41.24249 38.24069
# Shear Modulus (GPa) = 28.79471 35.11197 31.95334
#
# Velocity S-wave (km/s) = 3.72365 4.11187 3.92257
# Velocity P-wave (km/s) = 5.95450 6.51175 6.23935
#
# Compressibility (1/GPa) = 0.02837773
#
# Stress axis : x y z
#
# Youngs Moduli (GPa) = 94.82691 57.79043 75.04864
#
# Poissons Ratio (x) = -0.06012 0.33082
# Poissons Ratio (y) = -0.09865 0.22743
# Poissons Ratio (z) = 0.41800 0.17513
#
# Static dielectric constant tensor:
#      x y z
#    x 1.774860 0.000000 0.001620 
#    y 0.000000 1.873170 0.000000 
#    z 0.001620 0.000000 1.765330 
# 
# From -- ./inp_files/87404.got.cif
#   From: 2010.05.17/outbox.cif.g08.bks.cpg/sg15_44_cif.got.tgz:87404.got - 2010.06.03 18:47:42.
