data_PCOD9268080
_publ_section_title
;
Structure prediction by ZEFSAII (Michael W. Deem and Ramdas Pophale) SiO2 
 PCOD9268080
Probable space group: C 2/C
;
_chemical_formula_sum "Si O2"
_cell_formula_units_Z 48
_cell_length_a 28.136812
_cell_length_b 10.270925
_cell_length_c 19.147654
_cell_angle_alpha 90.000000
_cell_angle_beta 158.792315
_cell_angle_gamma 90.000000
_cell_volume 2001.741989
_symmetry_space_group_name_H-M "C 2/C"
_symmetry_group_IT_number 15
_symmetry_cell_setting 'monoclinic'
loop_
_space_group_symop_operation_xyz
x,y,z
-x,y,1/2-z
-x,-y,-z
x,-y,1/2+z
1/2+x,1/2+y,z
1/2-x,1/2+y,1/2-z
1/2-x,1/2-y,-z
1/2+x,1/2-y,1/2+z
loop_
_atom_site_type_symbol
_atom_site_label
_atom_site_fract_x
_atom_site_fract_y
_atom_site_fract_z
Si Si1 0.863258 0.439131 0.381357
Si Si2 0.046798 0.709842 0.047282
Si Si3 0.830417 0.973479 0.553992
Si Si4 0.418496 0.617327 0.033010
Si Si5 0.781744 0.738204 0.962475
Si Si6 0.568616 0.004671 0.783048
O O1 0.890783 0.566466 0.373339
O O2 0.912780 0.312428 0.406317
O O3 0.961736 0.454880 0.580811
O O4 0.708474 0.436620 0.182653
O O5 0.152986 0.784170 0.239899
O O6 0.037055 0.764170 0.955712
O O7 0.858306 0.872820 0.529075
O O8 0.949428 0.964096 0.772091
O O9 0.837013 0.116275 0.525783
O O10 0.693131 0.950267 0.406286
O O11 0.750000 0.750000 0.000000
O O12 0.872023 0.612727 0.088657
O O13 0.500000 0.091081 0.750000
#
# Coordination Sequence:
#
# PCOD9268080 Si02
#       6
#     8   8   8   8   8   8
#     4  11  22  45  69 106 144 180 238 299 349 425
#     4  11  22  44  74 102 141 190 236 290 368 418
#     4  10  22  45  66 105 148 187 236 298 353 420
#     4  11  24  42  74 104 140 194 227 295 369 421
#     4  10  19  41  74 102 136 190 239 296 346 414
#     4  11  23  42  75 106 141 195 244 291 355 422
#
# _framework density 23.979113000000002
#
# number of rings (size 3 to 8) (size 9 to 14) (size 15 to 20)
#    0.000    1.333    5.000    2.000    2.333    1.333 
#    6.000    8.333    0.000    0.000    0.000    0.000 
#    0.000    0.000    0.000    0.000    0.000    0.000 
#
# Total GULP energy -133757.318248 kJ/mol
# GULP energy per Si atom -5573.221594 kJ/mol
# Density = 2.392454 g / cm^3
# Si number density = 23.979113 Si / 1000 Ang^3
#
#
#
# Elastic Constant Matrix: (Units=GPa)
#
#
# Indices 1 2 3 4 5 6 
#
# 1 155.2440 14.1566 45.4069 0.0000 0.6023 0.0000
# 2 14.1566 38.4976 21.2067 0.0000 -14.3734 0.0000
# 3 45.4069 21.2067 193.1553 0.0000 -10.3375 0.0000
# 4 0.0000 0.0000 0.0000 26.4246 0.0000 -1.7440
# 5 0.6023 -14.3734 -10.3375 0.0000 25.8476 0.0000
# 6 0.0000 0.0000 0.0000 -1.7440 0.0000 24.9080
#
#
#
# Elastic Compliance Matrix: (Units=1/GPa)
#
#
# Indices 1 2 3 4 5 6 
#
# 1 0.007130 -0.002623 -0.001507 0.000000 -0.002228 0.000000
# 2 -0.002623 0.035164 -0.002242 0.000000 0.018718 0.000000
# 3 -0.001507 -0.002242 0.005838 0.000000 0.001123 0.000000
# 4 0.000000 0.000000 0.000000 0.038019 0.000000 0.002662
# 5 -0.002228 0.018718 0.001123 0.000000 0.049598 0.000000
# 6 0.000000 0.000000 0.000000 0.002662 0.000000 0.040334
#
#
# Mechanical properties :
#
#
# Convention : Reuss Voigt Hill
#
# Bulk Modulus (GPa) = 28.25960 60.93749 44.59855
# Shear Modulus (GPa) = 24.92209 35.84449 30.38329
#
# Velocity S-wave (km/s) = 3.22735 3.87049 3.56346
# Velocity P-wave (km/s) = 5.06936 6.74108 5.96408
#
# Compressibility (1/GPa) = 0.03538620
#
# Stress axis : x y z
#
# Youngs Moduli (GPa) = 140.24786 28.43808 171.29706
#
# Poissons Ratio (x) = 0.07460 0.25821
# Poissons Ratio (y) = 0.36793 0.38408
# Poissons Ratio (z) = 0.21141 0.06376
#
# Static dielectric constant tensor:
#      x y z
#    x 1.982990 0.000000 0.047910 
#    y 0.000000 2.098740 0.000000 
#    z 0.047910 0.000000 1.933970 
# 
# From -- ./inp_files/259245.got.cif
#   From: 2010.05.17/outbox.cif.g08.bks.cpg/sg15_130_cif.got.tgz:259245.got - 2010.06.03 18:47:42.
