data_PCOD9268691
_publ_section_title
;
Structure prediction by ZEFSAII (Michael W. Deem and Ramdas Pophale) SiO2 
 PCOD9268691
Probable space group: C 2/C
;
_chemical_formula_sum "Si O2"
_cell_formula_units_Z 48
_cell_length_a 8.667860
_cell_length_b 16.715856
_cell_length_c 17.857288
_cell_angle_alpha 90.000000
_cell_angle_beta 62.373067
_cell_angle_gamma 90.000000
_cell_volume 2292.359487
_symmetry_space_group_name_H-M "C 2/C"
_symmetry_group_IT_number 15
_symmetry_cell_setting 'monoclinic'
loop_
_space_group_symop_operation_xyz
x,y,z
-x,y,1/2-z
-x,-y,-z
x,-y,1/2+z
1/2+x,1/2+y,z
1/2-x,1/2+y,1/2-z
1/2-x,1/2-y,-z
1/2+x,1/2-y,1/2+z
loop_
_atom_site_type_symbol
_atom_site_label
_atom_site_fract_x
_atom_site_fract_y
_atom_site_fract_z
Si Si1 0.135731 0.693898 0.127530
Si Si2 0.098506 0.610500 0.419813
Si Si3 0.265767 0.935332 0.097778
Si Si4 0.191062 0.700152 0.798214
Si Si5 0.294926 0.225103 0.882725
Si Si6 0.954356 0.846846 0.459578
O O1 0.183230 0.732970 0.195266
O O2 0.085875 0.768402 0.083511
O O3 0.988241 0.629815 0.141497
O O4 0.316518 0.657372 0.056887
O O5 0.200788 0.527882 0.396295
O O6 0.218838 0.686235 0.412504
O O7 0.933320 0.599566 0.513342
O O8 0.254762 0.883324 0.175884
O O9 0.098614 0.918775 0.083154
O O10 0.200048 0.705912 0.707355
O O11 0.990660 0.715843 0.866666
O O12 0.150318 0.162484 0.943765
#
# Coordination Sequence:
#
# PCOD9268691 Si02
#       6
#     8   8   8   8   8   8
#     4   8  15  29  50  73  95 127 169 204 245 305
#     4   9  18  34  55  77 101 130 168 215 262 307
#     4   9  18  34  55  77 101 130 168 215 262 307
#     4  10  20  33  48  73 105 137 175 212 251 303
#     4  10  20  33  48  73 105 137 175 212 251 303
#     4   8  15  29  50  73  95 127 169 204 245 305
#
# _framework density 20.939124
#
# number of rings (size 3 to 8) (size 9 to 14) (size 15 to 20)
#    0.000    3.000    0.000    3.000    0.000    8.667 
#    0.000    8.333    0.000    6.000    0.000    0.000 
#    0.000    0.000    0.000    0.000    0.000    0.000 
#
# Total GULP energy -133899.631973 kJ/mol
# GULP energy per Si atom -5579.151332 kJ/mol
# Density = 2.089147 g / cm^3
# Si number density = 20.939124 Si / 1000 Ang^3
#
#
#
# Elastic Constant Matrix: (Units=GPa)
#
#
# Indices 1 2 3 4 5 6 
#
# 1 104.5902 34.3176 16.1114 0.0000 -16.2385 0.0000
# 2 34.3176 95.8192 15.7748 0.0000 -0.1841 0.0000
# 3 16.1114 15.7748 35.0737 0.0000 0.4188 0.0000
# 4 0.0000 0.0000 0.0000 17.0063 0.0000 -0.5823
# 5 -16.2385 -0.1841 0.4188 0.0000 39.5191 0.0000
# 6 0.0000 0.0000 0.0000 -0.5823 0.0000 27.1649
#
#
#
# Elastic Compliance Matrix: (Units=1/GPa)
#
#
# Indices 1 2 3 4 5 6 
#
# 1 0.012167 -0.003691 -0.003989 0.000000 0.005024 0.000000
# 2 -0.003691 0.012391 -0.003861 0.000000 -0.001418 0.000000
# 3 -0.003989 -0.003861 0.032104 0.000000 -0.001997 0.000000
# 4 0.000000 0.000000 0.000000 0.058845 0.000000 0.001261
# 5 0.005024 -0.001418 -0.001997 0.000000 0.027383 0.000000
# 6 0.000000 0.000000 0.000000 0.001261 0.000000 0.036839
#
#
# Mechanical properties :
#
#
# Convention : Reuss Voigt Hill
#
# Bulk Modulus (GPa) = 29.77897 40.87676 35.32786
# Shear Modulus (GPa) = 23.36405 28.02335 25.69370
#
# Velocity S-wave (km/s) = 3.34400 3.66228 3.50675
# Velocity P-wave (km/s) = 5.40021 6.11941 5.77103
#
# Compressibility (1/GPa) = 0.03358075
#
# Stress axis : x y z
#
# Youngs Moduli (GPa) = 82.19087 80.70269 31.14892
#
# Poissons Ratio (x) = 0.29789 0.12425
# Poissons Ratio (y) = 0.30338 0.12025
# Poissons Ratio (z) = 0.32784 0.31156
#
# Static dielectric constant tensor:
#      x y z
#    x 1.780970 0.000000 -0.007380 
#    y 0.000000 1.714770 0.000000 
#    z -0.007380 0.000000 1.838130 
# 
# From -- ./inp_files/189859.got.cif
#   From: 2010.05.17/outbox.cif.g08.bks.cpg/sg15_95_cif.got.tgz:189859.got - 2010.06.03 18:47:42.
