data_PCOD9268141
_publ_section_title
;
Structure prediction by ZEFSAII (Michael W. Deem and Ramdas Pophale) SiO2 
 PCOD9268141
Probable space group: C 2/C
;
_chemical_formula_sum "Si O2"
_cell_formula_units_Z 56
_cell_length_a 8.682445
_cell_length_b 31.703017
_cell_length_c 13.215412
_cell_angle_alpha 90.000000
_cell_angle_beta 52.376998
_cell_angle_gamma 90.000000
_cell_volume 2881.197276
_symmetry_space_group_name_H-M "C 2/C"
_symmetry_group_IT_number 15
_symmetry_cell_setting 'monoclinic'
loop_
_space_group_symop_operation_xyz
x,y,z
-x,y,1/2-z
-x,-y,-z
x,-y,1/2+z
1/2+x,1/2+y,z
1/2-x,1/2+y,1/2-z
1/2-x,1/2-y,-z
1/2+x,1/2-y,1/2+z
loop_
_atom_site_type_symbol
_atom_site_label
_atom_site_fract_x
_atom_site_fract_y
_atom_site_fract_z
Si Si1 0.129522 0.641825 0.297492
Si Si2 0.470029 0.388489 0.949835
Si Si3 0.650985 0.068446 0.436543
Si Si4 0.236839 0.218835 0.139978
Si Si5 0.794532 0.311679 0.387009
Si Si6 0.795490 0.520782 0.650930
Si Si7 0.462397 0.537201 0.936004
O O1 0.352949 0.630453 0.183741
O O2 0.067974 0.608166 0.408096
O O3 0.144230 0.689202 0.332495
O O4 0.000000 0.637982 0.250000
O O5 0.330243 0.414572 0.930281
O O6 0.345451 0.351973 0.054092
O O7 0.561466 0.420051 0.993993
O O8 0.497338 0.045398 0.571460
O O9 0.700690 0.030027 0.339797
O O10 0.280078 0.268433 0.134692
O O11 0.000000 0.214326 0.250000
O O12 0.300765 0.202687 0.002747
O O13 0.000000 0.321590 0.250000
O O14 0.651798 0.539728 0.789821
O O15 0.710412 0.527628 0.572236
O O16 0.500000 0.500000 0.000000
#
# Coordination Sequence:
#
# PCOD9268141 Si02
#       7
#     8   8   8   8   8   8   8
#     4  12  24  40  67  96 128 164 217 266 329 391
#     4  12  23  39  67  94 125 168 223 263 321 382
#     4  11  22  40  61  89 121 166 218 264 310 379
#     4  10  19  42  68  95 127 166 213 266 317 391
#     4  10  22  37  69  98 127 161 215 266 320 381
#     4  10  24  40  58  87 129 167 210 266 323 373
#     4  11  22  39  60  87 126 170 210 260 323 376
#
# _framework density 19.436364000000001
#
# number of rings (size 3 to 8) (size 9 to 14) (size 15 to 20)
#    0.000    1.143    4.286    2.143    4.000    0.000 
#    0.000    0.714    3.143    0.000    0.000    0.000 
#    0.000    0.000    0.000    0.000    0.000    0.000 
#
# Total GULP energy -156324.408611 kJ/mol
# GULP energy per Si atom -5583.014593 kJ/mol
# Density = 1.939213 g / cm^3
# Si number density = 19.436364 Si / 1000 Ang^3
#
#
#
# Elastic Constant Matrix: (Units=GPa)
#
#
# Indices 1 2 3 4 5 6 
#
# 1 58.7850 10.9288 16.1256 0.0000 0.0039 0.0000
# 2 10.9288 108.0776 14.4312 0.0000 -1.6570 0.0000
# 3 16.1256 14.4312 71.4366 0.0000 -11.5435 0.0000
# 4 0.0000 0.0000 0.0000 27.4828 0.0000 5.4417
# 5 0.0039 -1.6570 -11.5435 0.0000 29.4959 0.0000
# 6 0.0000 0.0000 0.0000 5.4417 0.0000 26.2492
#
#
#
# Elastic Compliance Matrix: (Units=1/GPa)
#
#
# Indices 1 2 3 4 5 6 
#
# 1 0.018400 -0.001331 -0.004160 0.000000 -0.001705 0.000000
# 2 -0.001331 0.009607 -0.001658 0.000000 -0.000109 0.000000
# 3 -0.004160 -0.001658 0.016287 0.000000 0.006282 0.000000
# 4 0.000000 0.000000 0.000000 0.037944 0.000000 -0.007866
# 5 -0.001705 -0.000109 0.006282 0.000000 0.036356 0.000000
# 6 0.000000 0.000000 0.000000 -0.007866 0.000000 0.039727
#
#
# Mechanical properties :
#
#
# Convention : Reuss Voigt Hill
#
# Bulk Modulus (GPa) = 33.33786 35.69671 34.51728
# Shear Modulus (GPa) = 27.37958 29.76650 28.57304
#
# Velocity S-wave (km/s) = 3.75731 3.91766 3.83832
# Velocity P-wave (km/s) = 6.00106 6.23458 6.11893
#
# Compressibility (1/GPa) = 0.02999593
#
# Stress axis : x y z
#
# Youngs Moduli (GPa) = 54.34806 104.09160 61.39689
#
# Poissons Ratio (x) = 0.13857 0.25542
# Poissons Ratio (y) = 0.07235 0.10179
# Poissons Ratio (z) = 0.22609 0.17257
#
# Static dielectric constant tensor:
#      x y z
#    x 1.666050 0.000000 -0.016760 
#    y 0.000000 1.702030 0.000000 
#    z -0.016760 0.000000 1.687210 
# 
# From -- ./inp_files/82485.got.cif
#   From: 2010.05.17/outbox.cif.g08.bks.cpg/sg15_42_cif.got.tgz:82485.got - 2010.06.03 18:47:42.
