data_PCOD9268176
_publ_section_title
;
Structure prediction by ZEFSAII (Michael W. Deem and Ramdas Pophale) SiO2 
 PCOD9268176
Probable space group: C 2/C
;
_chemical_formula_sum "Si O2"
_cell_formula_units_Z 36
_cell_length_a 6.793838
_cell_length_b 12.988945
_cell_length_c 19.692538
_cell_angle_alpha 90.000000
_cell_angle_beta 72.199173
_cell_angle_gamma 90.000000
_cell_volume 1654.568365
_symmetry_space_group_name_H-M "C 2/C"
_symmetry_group_IT_number 15
_symmetry_cell_setting 'monoclinic'
loop_
_space_group_symop_operation_xyz
x,y,z
-x,y,1/2-z
-x,-y,-z
x,-y,1/2+z
1/2+x,1/2+y,z
1/2-x,1/2+y,1/2-z
1/2-x,1/2-y,-z
1/2+x,1/2-y,1/2+z
loop_
_atom_site_type_symbol
_atom_site_label
_atom_site_fract_x
_atom_site_fract_y
_atom_site_fract_z
Si Si1 0.727861 0.437559 0.864609
Si Si2 0.008784 0.575155 0.933885
Si Si3 0.500000 0.784845 0.750000
Si Si4 0.528480 0.288770 0.993549
Si Si5 0.010497 0.877346 0.138882
O O1 0.836247 0.356211 0.804724
O O2 0.582785 0.375593 0.932650
O O3 0.592117 0.514563 0.835338
O O4 0.891970 0.508370 0.888810
O O5 0.929046 0.686440 0.970717
O O6 0.242122 0.604322 0.885896
O O7 0.000000 0.500000 0.000000
O O8 0.571654 0.708461 0.801631
O O9 0.750000 0.250000 0.000000
O O10 0.443979 0.342493 0.070172
#
# Coordination Sequence:
#
# PCOD9268176 Si02
#       5
#     8   8   4   8   8
#     4  12  25  44  69  96 134 177 221 270 332 391
#     4  11  21  42  73 101 128 170 219 276 336 387
#     4  12  26  48  62  94 146 172 220 280 316 400
#     4  10  19  43  66  97 133 161 217 284 317 379
#     4  11  25  46  66  98 137 174 220 277 329 392
#
# _framework density 21.757940000000001
#
# number of rings (size 3 to 8) (size 9 to 14) (size 15 to 20)
#    0.000    0.889    8.889    0.667    3.111    0.889 
#    4.000    2.222    0.000    0.000    0.000    0.000 
#    0.000    0.000    0.000    0.000    0.000    0.000 
#
# Total GULP energy -100514.469402 kJ/mol
# GULP energy per Si atom -5584.137189 kJ/mol
# Density = 2.170842 g / cm^3
# Si number density = 21.757940 Si / 1000 Ang^3
#
#
#
# Elastic Constant Matrix: (Units=GPa)
#
#
# Indices 1 2 3 4 5 6 
#
# 1 29.7990 35.3301 21.6478 0.0000 12.6585 0.0000
# 2 35.3301 188.3395 72.6709 0.0000 3.4994 0.0000
# 3 21.6478 72.6709 137.6666 0.0000 -4.4491 0.0000
# 4 0.0000 0.0000 0.0000 182.2034 0.0000 13.5866
# 5 12.6585 3.4994 -4.4491 0.0000 -22.1579 0.0000
# 6 0.0000 0.0000 0.0000 13.5866 0.0000 56.8463
#
#
#
# Elastic Compliance Matrix: (Units=1/GPa)
#
#
# Indices 1 2 3 4 5 6 
#
# 1 0.033969 -0.006144 -0.001493 0.000000 0.018735 0.000000
# 2 -0.006144 0.007712 -0.003158 0.000000 -0.001658 0.000000
# 3 -0.001493 -0.003158 0.009063 0.000000 -0.003171 0.000000
# 4 0.000000 0.000000 0.000000 0.005588 0.000000 -0.001336
# 5 0.018735 -0.001658 -0.003171 0.000000 -0.034053 0.000000
# 6 0.000000 0.000000 0.000000 -0.001336 0.000000 0.017911
#
#
# Mechanical properties :
#
#
# Convention : Reuss Voigt Hill
#
# Bulk Modulus (GPa) = 34.30133 68.34472 51.32303
# Shear Modulus (GPa) = 69.93294 58.45545 64.19419
#
# Velocity S-wave (km/s) = 5.67548 5.18889 5.43763
# Velocity P-wave (km/s) = 7.66468 8.20847 7.94123
#
# Compressibility (1/GPa) = 0.02915339
#
# Stress axis : x y z
#
# Youngs Moduli (GPa) = 29.43892 129.67611 110.33562
#
# Poissons Ratio (x) = 0.79676 0.16469
# Poissons Ratio (y) = 0.18088 0.34846
# Poissons Ratio (z) = 0.04394 0.40954
#
# Static dielectric constant tensor:
#      x y z
#    x 1.808730 0.000000 0.008440 
#    y 0.000000 -0.878390 0.000000 
#    z 0.008440 0.000000 1.778680 
# 
# From -- ./inp_files/187724.got.cif
#   From: 2010.05.17/outbox.cif.g08.bks.cpg/sg15_94_cif.got.tgz:187724.got - 2010.06.03 18:47:42.
