data_PCOD9268935
_publ_section_title
;
Structure prediction by ZEFSAII (Michael W. Deem and Ramdas Pophale) SiO2 
 PCOD9268935
Probable space group: C 2/C
;
_chemical_formula_sum "Si O2"
_cell_formula_units_Z 64
_cell_length_a 28.333848
_cell_length_b 13.449609
_cell_length_c 17.429745
_cell_angle_alpha 90.000000
_cell_angle_beta 32.000257
_cell_angle_gamma 90.000000
_cell_volume 3519.808837
_symmetry_space_group_name_H-M "C 2/C"
_symmetry_group_IT_number 15
_symmetry_cell_setting 'monoclinic'
loop_
_space_group_symop_operation_xyz
x,y,z
-x,y,1/2-z
-x,-y,-z
x,-y,1/2+z
1/2+x,1/2+y,z
1/2-x,1/2+y,1/2-z
1/2-x,1/2-y,-z
1/2+x,1/2-y,1/2+z
loop_
_atom_site_type_symbol
_atom_site_label
_atom_site_fract_x
_atom_site_fract_y
_atom_site_fract_z
Si Si1 0.712814 0.399957 0.446861
Si Si2 0.336459 0.192415 0.057932
Si Si3 0.794484 0.250106 0.129610
Si Si4 0.603900 0.594700 0.619857
Si Si5 0.498446 0.097900 0.903175
Si Si6 0.326634 0.049962 0.931734
Si Si7 0.723999 0.347201 0.084195
Si Si8 0.886826 0.593275 0.607704
O O1 0.676043 0.294315 0.471372
O O2 0.639593 0.485603 0.549587
O O3 0.759020 0.396024 0.466406
O O4 0.792901 0.430613 0.278603
O O5 0.264223 0.195626 0.225339
O O6 0.434989 0.181751 0.956496
O O7 0.321452 0.100552 0.021388
O O8 0.728213 0.314306 0.166622
O O9 0.863419 0.324076 0.076917
O O10 0.845346 0.172972 0.004996
O O11 0.500000 0.604221 0.750000
O O12 0.634660 0.615302 0.665427
O O13 0.575194 0.064638 0.738488
O O14 0.547635 0.128589 0.914159
O O15 0.434253 0.004060 0.008816
O O16 0.296094 0.935357 0.974754
O O17 0.750000 0.250000 0.000000
#
# Coordination Sequence:
#
# PCOD9268935 Si02
#       8
#     8   8   8   8   8   8   8   8
#     4   9  20  38  54  75 113 155 186 215 272 337
#     4  11  21  34  56  81 112 148 182 226 275 327
#     4  10  21  36  56  79 109 147 183 222 279 336
#     4  10  21  36  56  80 107 141 183 229 270 323
#     4  10  20  33  56  87 113 139 182 237 282 323
#     4  10  20  36  58  84 111 143 186 230 275 328
#     4   9  20  38  59  81 108 144 180 221 277 332
#     4   9  19  35  56  82 112 144 177 228 283 328
#
# _framework density 18.182807
#
# number of rings (size 3 to 8) (size 9 to 14) (size 15 to 20)
#    0.000    2.250    0.000    2.250    0.000    8.000 
#    0.000    2.500    0.000    6.750    0.000    0.000 
#    0.000    0.000    0.000    0.000    0.000    0.000 
#
# Total GULP energy -178520.438595 kJ/mol
# GULP energy per Si atom -5578.763706 kJ/mol
# Density = 1.814142 g / cm^3
# Si number density = 18.182807 Si / 1000 Ang^3
#
#
#
# Elastic Constant Matrix: (Units=GPa)
#
#
# Indices 1 2 3 4 5 6 
#
# 1 120.5046 61.3433 55.9844 0.0000 0.8344 0.0000
# 2 61.3433 82.4568 35.7541 0.0000 -7.7704 0.0000
# 3 55.9844 35.7541 49.4585 0.0000 -8.2952 0.0000
# 4 0.0000 0.0000 0.0000 17.0843 0.0000 2.4380
# 5 0.8344 -7.7704 -8.2952 0.0000 28.2710 0.0000
# 6 0.0000 0.0000 0.0000 2.4380 0.0000 33.9337
#
#
#
# Elastic Compliance Matrix: (Units=1/GPa)
#
#
# Indices 1 2 3 4 5 6 
#
# 1 0.022209 -0.008470 -0.020527 0.000000 -0.009006 0.000000
# 2 -0.008470 0.020932 -0.004772 0.000000 0.004603 0.000000
# 3 -0.020527 -0.004772 0.049207 0.000000 0.013732 0.000000
# 4 0.000000 0.000000 0.000000 0.059140 0.000000 -0.004249
# 5 -0.009006 0.004603 0.013732 0.000000 0.040932 0.000000
# 6 0.000000 0.000000 0.000000 -0.004249 0.000000 0.029774
#
#
# Mechanical properties :
#
#
# Convention : Reuss Voigt Hill
#
# Bulk Modulus (GPa) = 40.30631 62.06485 51.18558
# Shear Modulus (GPa) = 16.77840 22.48033 19.62937
#
# Velocity S-wave (km/s) = 3.04099 3.51999 3.28922
# Velocity P-wave (km/s) = 5.87755 7.12239 6.52970
#
# Compressibility (1/GPa) = 0.02481001
#
# Stress axis : x y z
#
# Youngs Moduli (GPa) = 45.02672 47.77370 20.32237
#
# Poissons Ratio (x) = 0.40467 0.41715
# Poissons Ratio (y) = 0.38140 0.09698
# Poissons Ratio (z) = 0.92425 0.22797
#
# Static dielectric constant tensor:
#      x y z
#    x 1.649550 0.000000 0.014430 
#    y 0.000000 1.613280 0.000000 
#    z 0.014430 0.000000 1.595780 
# 
# From -- ./inp_files/177791.got.cif
#   From: 2010.05.17/outbox.cif.g08.bks.cpg/sg15_89_cif.got.tgz:177791.got - 2010.06.03 18:47:42.
