data_PCOD9268571
_publ_section_title
;
Structure prediction by ZEFSAII (Michael W. Deem and Ramdas Pophale) SiO2 
 PCOD9268571
Probable space group: C 2/C
;
_chemical_formula_sum "Si O2"
_cell_formula_units_Z 48
_cell_length_a 16.213835
_cell_length_b 12.044202
_cell_length_c 18.819902
_cell_angle_alpha 90.000000
_cell_angle_beta 150.166145
_cell_angle_gamma 90.000000
_cell_volume 1828.363500
_symmetry_space_group_name_H-M "C 2/C"
_symmetry_group_IT_number 15
_symmetry_cell_setting 'monoclinic'
loop_
_space_group_symop_operation_xyz
x,y,z
-x,y,1/2-z
-x,-y,-z
x,-y,1/2+z
1/2+x,1/2+y,z
1/2-x,1/2+y,1/2-z
1/2-x,1/2-y,-z
1/2+x,1/2-y,1/2+z
loop_
_atom_site_type_symbol
_atom_site_label
_atom_site_fract_x
_atom_site_fract_y
_atom_site_fract_z
Si Si1 0.441087 0.304942 0.805928
Si Si2 0.851531 0.405409 0.415354
Si Si3 0.371637 0.111922 0.500447
Si Si4 0.501292 0.538007 0.614416
Si Si5 0.942967 0.271648 0.632199
Si Si6 0.780161 0.162662 0.340677
O O1 0.294730 0.320701 0.640886
O O2 0.544555 0.419951 0.885189
O O3 0.357290 0.313864 0.821431
O O4 0.530690 0.186739 0.870673
O O5 0.830832 0.481571 0.470928
O O6 0.702528 0.454785 0.252679
O O7 0.821145 0.277375 0.412746
O O8 0.011845 0.397950 0.483505
O O9 0.492284 0.642519 0.658983
O O10 0.381531 0.568612 0.458879
O O11 0.750000 0.250000 0.500000
O O12 0.000000 0.321858 0.750000
O O13 0.081888 0.338080 0.687604
#
# Coordination Sequence:
#
# PCOD9268571 Si02
#       6
#     8   8   8   8   8   8
#     4  10  21  33  55  82 121 157 186 238 304 360
#     4   8  18  30  49  71 110 150 187 222 284 340
#     4   9  18  33  47  73 112 156 190 223 278 361
#     4  10  20  36  53  85 115 152 195 244 296 354
#     4  11  22  38  60  83 121 161 202 245 290 349
#     4  10  20  32  56  82 119 147 190 242 299 352
#
# _framework density 26.252984000000001
#
# number of rings (size 3 to 8) (size 9 to 14) (size 15 to 20)
#    0.000    2.333    1.667    0.500   14.000    0.000 
#    3.000    0.000    0.000    0.000    0.000   10.500 
#   10.000    0.333    0.000    0.000    0.000    0.000 
#
# Total GULP energy -133706.933510 kJ/mol
# GULP energy per Si atom -5571.122230 kJ/mol
# Density = 2.619323 g / cm^3
# Si number density = 26.252984 Si / 1000 Ang^3
#
#
#
# Elastic Constant Matrix: (Units=GPa)
#
#
# Indices 1 2 3 4 5 6 
#
# 1 53.1139 -14.7555 -16.6713 0.0000 1.4128 0.0000
# 2 -14.7555 107.8499 26.7692 0.0003 8.6694 0.0001
# 3 -16.6713 26.7692 153.0466 0.0000 23.8794 0.0000
# 4 0.0000 0.0003 0.0000 52.1843 0.0002 0.3869
# 5 1.4128 8.6694 23.8794 0.0002 15.6111 0.0001
# 6 0.0000 0.0001 0.0000 0.3869 0.0001 22.0207
#
#
#
# Elastic Compliance Matrix: (Units=1/GPa)
#
#
# Indices 1 2 3 4 5 6 
#
# 1 0.020754 0.002732 0.003038 0.000000 -0.008042 0.000000
# 2 0.002732 0.010215 -0.000743 0.000000 -0.004784 0.000000
# 3 0.003038 -0.000743 0.009159 0.000000 -0.013873 0.000000
# 4 0.000000 0.000000 0.000000 0.019165 0.000000 -0.000337
# 5 -0.008042 -0.004784 -0.013873 0.000000 0.088662 0.000000
# 6 0.000000 0.000000 0.000000 -0.000337 0.000000 0.045418
#
#
# Mechanical properties :
#
#
# Convention : Reuss Voigt Hill
#
# Bulk Modulus (GPa) = 19.92762 33.85504 26.89133
# Shear Modulus (GPa) = 24.99415 39.20775 32.10095
#
# Velocity S-wave (km/s) = 3.08888 3.86872 3.50058
# Velocity P-wave (km/s) = 4.50873 5.73408 5.15792
#
# Compressibility (1/GPa) = 0.05018160
#
# Stress axis : x y z
#
# Youngs Moduli (GPa) = 48.18399 97.89725 109.17861
#
# Poissons Ratio (x) = -0.26745 -0.33164
# Poissons Ratio (y) = -0.13163 0.08108
# Poissons Ratio (z) = -0.14636 0.07270
#
# Static dielectric constant tensor:
#      x y z
#    x 2.140870 0.000000 0.155870 
#    y 0.000000 2.328390 0.000000 
#    z 0.155870 0.000000 1.666280 
# 
# From -- ./inp_files/283533.got.cif
#   From: 2010.05.17/outbox.cif.g08.bks.cpg/sg15_142_cif.got.tgz:283533.got - 2010.06.03 18:47:42.
