data_PCOD9268864
_publ_section_title
;
Structure prediction by ZEFSAII (Michael W. Deem and Ramdas Pophale) SiO2 
 PCOD9268864
Probable space group: C 2/C
;
_chemical_formula_sum "Si O2"
_cell_formula_units_Z 64
_cell_length_a 24.837048
_cell_length_b 19.120291
_cell_length_c 8.922283
_cell_angle_alpha 90.000000
_cell_angle_beta 46.548077
_cell_angle_gamma 90.000000
_cell_volume 3075.942440
_symmetry_space_group_name_H-M "C 2/C"
_symmetry_group_IT_number 15
_symmetry_cell_setting 'monoclinic'
loop_
_space_group_symop_operation_xyz
x,y,z
-x,y,1/2-z
-x,-y,-z
x,-y,1/2+z
1/2+x,1/2+y,z
1/2-x,1/2+y,1/2-z
1/2-x,1/2-y,-z
1/2+x,1/2-y,1/2+z
loop_
_atom_site_type_symbol
_atom_site_label
_atom_site_fract_x
_atom_site_fract_y
_atom_site_fract_z
Si Si1 0.674123 0.541946 0.680722
Si Si2 0.340152 0.207799 0.347018
Si Si3 0.759228 0.380675 0.261343
Si Si4 0.489075 0.424002 0.947845
Si Si5 0.291401 0.339013 0.588388
Si Si6 0.355729 0.624147 0.280101
Si Si7 0.557193 0.086390 0.353194
Si Si8 0.899634 0.454176 0.068732
O O1 0.727427 0.558202 0.716808
O O2 0.706595 0.581437 0.474645
O O3 0.660266 0.459900 0.690560
O O4 0.597776 0.584109 0.857238
O O5 0.297333 0.172525 0.571845
O O6 0.342609 0.288211 0.387689
O O7 0.289409 0.191496 0.299411
O O8 0.415713 0.165494 0.185942
O O9 0.691533 0.349978 0.486899
O O10 0.822740 0.414563 0.243980
O O11 0.500000 0.428814 0.750000
O O12 0.554509 0.373276 0.881959
O O13 0.500000 0.500000 0.000000
O O14 0.322086 0.340442 0.696990
O O15 0.468889 0.077843 0.527970
O O16 0.597530 0.035590 0.393940
O O17 0.582196 0.058311 0.141229
#
# Coordination Sequence:
#
# PCOD9268864 Si02
#       8
#     8   8   8   8   8   8   8   8
#     4  10  21  36  56  82 118 147 192 243 296 345
#     4   9  21  40  57  77 121 157 189 240 296 357
#     4  10  20  33  54  82 111 149 189 245 283 348
#     4  10  21  36  53  82 120 148 176 237 301 341
#     4  10  22  38  58  86 111 158 198 236 297 357
#     4  11  22  33  58  87 114 146 196 245 292 354
#     4   9  18  35  54  78 115 146 181 240 292 346
#     4   9  19  31  52  85 110 142 187 237 294 333
#
# _framework density 20.806632
#
# number of rings (size 3 to 8) (size 9 to 14) (size 15 to 20)
#    0.000    2.250    1.250    0.750   12.250    0.500 
#    0.000    5.000    0.000    0.000    6.500    0.000 
#    0.000    0.000    0.000    0.000    0.000    0.000 
#
# Total GULP energy -178399.597686 kJ/mol
# GULP energy per Si atom -5574.987428 kJ/mol
# Density = 2.075928 g / cm^3
# Si number density = 20.806632 Si / 1000 Ang^3
#
#
#
# Elastic Constant Matrix: (Units=GPa)
#
#
# Indices 1 2 3 4 5 6 
#
# 1 86.8332 15.5121 19.0871 0.0000 1.3576 0.0000
# 2 15.5121 66.1115 -2.5504 0.0000 -7.6643 0.0000
# 3 19.0871 -2.5504 33.8885 0.0000 -14.0809 0.0000
# 4 0.0000 0.0000 0.0000 19.3556 0.0000 -6.7290
# 5 1.3576 -7.6643 -14.0809 0.0000 32.5593 0.0000
# 6 0.0000 0.0000 0.0000 -6.7290 0.0000 -1.6742
#
#
#
# Elastic Compliance Matrix: (Units=1/GPa)
#
#
# Indices 1 2 3 4 5 6 
#
# 1 0.015033 -0.004763 -0.011644 0.000000 -0.006784 0.000000
# 2 -0.004763 0.017364 0.007034 0.000000 0.007328 0.000000
# 3 -0.011644 0.007034 0.045697 0.000000 0.021904 0.000000
# 4 0.000000 0.000000 0.000000 0.021551 0.000000 -0.086620
# 5 -0.006784 0.007328 0.021904 0.000000 0.042194 0.000000
# 6 0.000000 0.000000 0.000000 -0.086620 0.000000 -0.249158
#
#
# Mechanical properties :
#
#
# Convention : Reuss Voigt Hill
#
# Bulk Modulus (GPa) = 16.84931 27.88119 22.36525
# Shear Modulus (GPa) = -72.68467 20.36712 -26.15878
#
# Velocity S-wave (km/s) = -5.91686 3.13209 -3.54959
# Velocity P-wave (km/s) = 6.20994 5.14871 2.45501
#
# Compressibility (1/GPa) = 0.05934961
#
# Stress axis : x y z
#
# Youngs Moduli (GPa) = 66.52149 57.58899 21.88305
#
# Poissons Ratio (x) = 0.27429 0.25481
# Poissons Ratio (y) = 0.31683 -0.15393
# Poissons Ratio (z) = 0.77458 -0.40510
#
# Static dielectric constant tensor:
#      x y z
#    x 1.772600 0.000000 -0.034000 
#    y 0.000000 1.770660 0.000000 
#    z -0.034000 0.000000 1.765900 
# 
# From -- ./inp_files/63390.got.cif
#   From: 2010.05.17/outbox.cif.g08.bks.cpg/sg15_32_cif.got.tgz:63390.got - 2010.06.03 18:47:42.
