data_PCOD9268613
_publ_section_title
;
Structure prediction by ZEFSAII (Michael W. Deem and Ramdas Pophale) SiO2 
 PCOD9268613
Probable space group: C 2/C
;
_chemical_formula_sum "Si O2"
_cell_formula_units_Z 44
_cell_length_a 16.182020
_cell_length_b 14.966020
_cell_length_c 9.171723
_cell_angle_alpha 90.000000
_cell_angle_beta 91.466177
_cell_angle_gamma 90.000000
_cell_volume 2220.484649
_symmetry_space_group_name_H-M "C 2/C"
_symmetry_group_IT_number 15
_symmetry_cell_setting 'monoclinic'
loop_
_space_group_symop_operation_xyz
x,y,z
-x,y,1/2-z
-x,-y,-z
x,-y,1/2+z
1/2+x,1/2+y,z
1/2-x,1/2+y,1/2-z
1/2-x,1/2-y,-z
1/2+x,1/2-y,1/2+z
loop_
_atom_site_type_symbol
_atom_site_label
_atom_site_fract_x
_atom_site_fract_y
_atom_site_fract_z
Si Si1 0.007755 0.904682 0.924826
Si Si2 0.883345 0.735809 0.515112
Si Si3 0.500000 0.997932 0.750000
Si Si4 0.745188 0.744617 0.741666
Si Si5 0.655665 0.696964 0.003997
Si Si6 0.445965 0.875523 0.491488
O O1 0.084554 0.838530 0.965591
O O2 0.000000 0.911301 0.750000
O O3 0.927394 0.855635 0.981821
O O4 0.000000 0.000000 0.000000
O O5 0.821211 0.713193 0.644696
O O6 0.827965 0.725145 0.368395
O O7 0.965097 0.675301 0.515637
O O8 0.556184 0.060473 0.649261
O O9 0.449231 0.935718 0.636363
O O10 0.702658 0.678352 0.855901
O O11 0.786045 0.816102 0.853602
O O12 0.624151 0.800349 0.005524
#
# Coordination Sequence:
#
# PCOD9268613 Si02
#       6
#     8   8   4   8   8   8
#     4  11  24  41  67  92 121 156 213 258 301 363
#     4  10  21  39  66  86 117 166 199 245 300 363
#     4  10  20  32  58  86 114 136 192 256 278 324
#     4  10  20  36  64  86 120 154 204 240 298 368
#     4  10  21  39  66  86 117 166 199 245 300 363
#     4  10  20  36  61  85 113 152 205 234 288 346
#
# _framework density 19.815493
#
# number of rings (size 3 to 8) (size 9 to 14) (size 15 to 20)
#    0.000    1.818    1.818    2.182    5.091    1.455 
#    0.000    0.000   80.000    0.000    0.000    0.000 
#    0.000    0.000    0.000    0.000    0.000    0.000 
#
# Total GULP energy -122676.301579 kJ/mol
# GULP energy per Si atom -5576.195526 kJ/mol
# Density = 1.977039 g / cm^3
# Si number density = 19.815493 Si / 1000 Ang^3
#
#
#
# Elastic Constant Matrix: (Units=GPa)
#
#
# Indices 1 2 3 4 5 6 
#
# 1 119.4392 28.8885 48.5244 0.0000 -12.1070 0.0000
# 2 28.8885 106.0831 40.5860 0.0000 -1.6698 0.0000
# 3 48.5244 40.5860 139.6439 0.0000 -9.6033 0.0000
# 4 0.0000 0.0000 0.0000 16.8170 0.0000 -2.0465
# 5 -12.1070 -1.6698 -9.6033 0.0000 25.5103 0.0000
# 6 0.0000 0.0000 0.0000 -2.0465 0.0000 4.5398
#
#
#
# Elastic Compliance Matrix: (Units=1/GPa)
#
#
# Indices 1 2 3 4 5 6 
#
# 1 0.010305 -0.001660 -0.002843 0.000000 0.003712 0.000000
# 2 -0.001660 0.010879 -0.002659 0.000000 -0.001077 0.000000
# 3 -0.002843 -0.002659 0.009051 0.000000 0.001884 0.000000
# 4 0.000000 0.000000 0.000000 0.062915 0.000000 0.028361
# 5 0.003712 -0.001077 0.001884 0.000000 0.041600 0.000000
# 6 0.000000 0.000000 0.000000 0.028361 0.000000 0.233060
#
#
# Mechanical properties :
#
#
# Convention : Reuss Voigt Hill
#
# Bulk Modulus (GPa) = 62.84953 66.79599 64.82276
# Shear Modulus (GPa) = 12.90524 25.85123 19.37823
#
# Velocity S-wave (km/s) = 2.55477 3.61584 3.13059
# Velocity P-wave (km/s) = 6.36307 7.15643 6.77138
#
# Compressibility (1/GPa) = 0.01591102
#
# Stress axis : x y z
#
# Youngs Moduli (GPa) = 97.03692 91.91998 110.47973
#
# Poissons Ratio (x) = 0.15260 0.31412
# Poissons Ratio (y) = 0.16110 0.29377
# Poissons Ratio (z) = 0.27590 0.24442
#
# Static dielectric constant tensor:
#      x y z
#    x 1.750060 0.000000 0.004820 
#    y 0.000000 1.705990 0.000000 
#    z 0.004820 0.000000 1.725200 
# 
# From -- ./inp_files/47130.got.cif
#   From: 2010.05.17/outbox.cif.g08.bks.cpg/sg15_24_cif.got.tgz:47130.got - 2010.06.03 18:47:42.
