data_PCOD9268583
_publ_section_title
;
Structure prediction by ZEFSAII (Michael W. Deem and Ramdas Pophale) SiO2 
 PCOD9268583
Probable space group: C 2/C
;
_chemical_formula_sum "Si O2"
_cell_formula_units_Z 52
_cell_length_a 12.035957
_cell_length_b 19.623824
_cell_length_c 15.488863
_cell_angle_alpha 90.000000
_cell_angle_beta 120.614571
_cell_angle_gamma 90.000000
_cell_volume 3148.411412
_symmetry_space_group_name_H-M "C 2/C"
_symmetry_group_IT_number 15
_symmetry_cell_setting 'monoclinic'
loop_
_space_group_symop_operation_xyz
x,y,z
-x,y,1/2-z
-x,-y,-z
x,-y,1/2+z
1/2+x,1/2+y,z
1/2-x,1/2+y,1/2-z
1/2-x,1/2-y,-z
1/2+x,1/2-y,1/2+z
loop_
_atom_site_type_symbol
_atom_site_label
_atom_site_fract_x
_atom_site_fract_y
_atom_site_fract_z
Si Si1 0.287155 0.266071 0.873243
Si Si2 0.000000 0.539895 0.250000
Si Si3 0.045331 0.752592 0.865910
Si Si4 0.801521 0.649869 0.010592
Si Si5 0.281586 0.147654 0.458326
Si Si6 0.614397 0.001667 0.972040
Si Si7 0.903598 0.339207 0.818306
O O1 0.417965 0.265993 0.871201
O O2 0.289330 0.324040 0.948494
O O3 0.166233 0.281632 0.764149
O O4 0.272066 0.194508 0.915515
O O5 0.943988 0.497872 0.148094
O O6 0.900858 0.591989 0.258829
O O7 0.141887 0.817287 0.907981
O O8 0.000000 0.739249 0.750000
O O9 0.124520 0.690132 0.940340
O O10 0.809985 0.570077 0.994346
O O11 0.946222 0.670283 0.099779
O O12 0.297226 0.067706 0.482504
O O13 0.331907 0.155566 0.380491
O O14 0.500000 0.000000 0.000000
#
# Coordination Sequence:
#
# PCOD9268583 Si02
#       7
#     8   4   8   8   8   8   8
#     4  11  19  35  59  82 109 148 188 222 278 335
#     4  10  20  32  56  90 104 144 178 234 288 316
#     4  11  23  37  55  82 114 153 185 223 281 339
#     4  10  21  34  59  88 108 140 189 239 275 319
#     4  11  23  37  55  83 115 147 184 233 274 334
#     4  11  19  36  57  83 114 138 182 237 282 321
#     4  11  17  35  56  82 111 142 183 226 278 324
#
# _framework density 16.516265000000001
#
# number of rings (size 3 to 8) (size 9 to 14) (size 15 to 20)
#    0.000    1.231    9.231    0.000    1.077    0.000 
#    0.000    0.769    0.000    3.692    0.000    0.000 
#    0.000    0.000    0.000    0.000    0.000    0.000 
#
# Total GULP energy -144908.805971 kJ/mol
# GULP energy per Si atom -5573.415614 kJ/mol
# Density = 1.647867 g / cm^3
# Si number density = 16.516265 Si / 1000 Ang^3
#
#
#
# Elastic Constant Matrix: (Units=GPa)
#
#
# Indices 1 2 3 4 5 6 
#
# 1 64.0316 29.5611 27.3145 0.0000 -18.6016 0.0000
# 2 29.5611 125.9290 57.4411 0.0000 -7.3517 0.0000
# 3 27.3145 57.4411 116.2765 0.0000 -17.2353 0.0000
# 4 0.0000 0.0000 0.0000 33.0222 0.0000 -1.6816
# 5 -18.6016 -7.3517 -17.2353 0.0000 30.0134 0.0000
# 6 0.0000 0.0000 0.0000 -1.6816 0.0000 16.4524
#
#
#
# Elastic Compliance Matrix: (Units=1/GPa)
#
#
# Indices 1 2 3 4 5 6 
#
# 1 0.021255 -0.003637 -0.001504 0.000000 0.011419 0.000000
# 2 -0.003637 0.010878 -0.004874 0.000000 -0.002388 0.000000
# 3 -0.001504 -0.004874 0.012074 0.000000 0.004808 0.000000
# 4 0.000000 0.000000 0.000000 0.030441 0.000000 0.003111
# 5 0.011419 -0.002388 0.004808 0.000000 0.042572 0.000000
# 6 0.000000 0.000000 0.000000 0.003111 0.000000 0.061099
#
#
# Mechanical properties :
#
#
# Convention : Reuss Voigt Hill
#
# Bulk Modulus (GPa) = 41.35908 59.43007 50.39458
# Shear Modulus (GPa) = 24.22395 28.69228 26.45812
#
# Velocity S-wave (km/s) = 3.83387 4.17251 4.00677
# Velocity P-wave (km/s) = 6.68535 7.69896 7.20999
#
# Compressibility (1/GPa) = 0.02417849
#
# Stress axis : x y z
#
# Youngs Moduli (GPa) = 47.04748 91.92569 82.82520
#
# Poissons Ratio (x) = 0.33433 0.12455
# Poissons Ratio (y) = 0.17111 0.40366
# Poissons Ratio (z) = 0.07075 0.44801
#
# Static dielectric constant tensor:
#      x y z
#    x 1.553950 0.000000 -0.010790 
#    y 0.000000 1.558110 0.000000 
#    z -0.010790 0.000000 1.578550 
# 
# From -- ./inp_files/146836.got.cif
#   From: 2010.05.17/outbox.cif.g08.bks.cpg/sg15_74_cif.got.tgz:146836.got - 2010.06.03 18:47:42.
