data_PCOD9268638
_publ_section_title
;
Structure prediction by ZEFSAII (Michael W. Deem and Ramdas Pophale) SiO2 
 PCOD9268638
Probable space group: C 2/C
;
_chemical_formula_sum "Si O2"
_cell_formula_units_Z 60
_cell_length_a 30.396166
_cell_length_b 11.905691
_cell_length_c 21.592007
_cell_angle_alpha 90.000000
_cell_angle_beta 19.418238
_cell_angle_gamma 90.000000
_cell_volume 2597.811276
_symmetry_space_group_name_H-M "C 2/C"
_symmetry_group_IT_number 15
_symmetry_cell_setting 'monoclinic'
loop_
_space_group_symop_operation_xyz
x,y,z
-x,y,1/2-z
-x,-y,-z
x,-y,1/2+z
1/2+x,1/2+y,z
1/2-x,1/2+y,1/2-z
1/2-x,1/2-y,-z
1/2+x,1/2-y,1/2+z
loop_
_atom_site_type_symbol
_atom_site_label
_atom_site_fract_x
_atom_site_fract_y
_atom_site_fract_z
Si Si1 0.083092 0.004448 0.579583
Si Si2 0.857714 0.583689 0.756509
Si Si3 0.606577 0.424498 0.776107
Si Si4 0.357044 0.747518 0.045124
Si Si5 0.359693 0.634571 0.681833
Si Si6 0.542285 0.838497 0.899384
Si Si7 0.617096 0.884809 0.137023
Si Si8 0.500000 0.889614 0.750000
O O1 0.143558 0.111924 0.463791
O O2 0.000000 0.041700 0.750000
O O3 0.976945 0.949017 0.674448
O O4 0.203790 0.925226 0.441601
O O5 0.947929 0.634670 0.582619
O O6 0.883760 0.639114 0.788939
O O7 0.906806 0.454233 0.695638
O O8 0.648382 0.537219 0.757932
O O9 0.741035 0.361324 0.581432
O O10 0.500447 0.369990 0.963012
O O11 0.262825 0.850266 0.201234
O O12 0.474426 0.756887 0.940904
O O13 0.416641 0.811591 0.905926
O O14 0.335137 0.761084 0.739785
O O15 0.500000 0.834285 0.250000
O O16 0.592441 0.020187 0.163316
#
# Coordination Sequence:
#
# PCOD9268638 Si02
#       8
#     8   8   8   8   8   8   8   4
#     4  12  23  36  65  92 126 163 198 260 315 374
#     4  11  23  40  63  88 121 168 204 258 316 360
#     4  11  23  40  63  88 121 168 204 258 316 360
#     4  12  21  37  58  96 128 158 203 257 323 372
#     4  11  23  40  60  88 125 162 209 257 309 375
#     4  11  23  40  60  88 125 162 209 257 309 375
#     4  10  20  40  64  88 121 159 207 260 318 375
#     4  10  20  32  60  88 126 160 182 258 310 370
#
# _framework density 23.096366
#
# number of rings (size 3 to 8) (size 9 to 14) (size 15 to 20)
#    0.400    0.533    7.333    0.800    0.000    0.000 
#    4.800    4.667    0.000    0.000    0.000    0.000 
#    0.000    0.000    0.000    0.000    0.000    0.000 
#
# Total GULP energy -167283.258563 kJ/mol
# GULP energy per Si atom -5576.108619 kJ/mol
# Density = 2.304380 g / cm^3
# Si number density = 23.096366 Si / 1000 Ang^3
#
#
#
# Elastic Constant Matrix: (Units=GPa)
#
#
# Indices 1 2 3 4 5 6 
#
# 1 93.4698 7.6969 21.7535 0.0000 3.4526 0.0000
# 2 7.6969 58.9203 5.1430 0.0000 0.7615 0.0000
# 3 21.7535 5.1430 127.6473 0.0000 -2.5297 0.0000
# 4 0.0000 0.0000 0.0000 44.3541 0.0000 -14.0175
# 5 3.4526 0.7615 -2.5297 0.0000 25.1290 0.0000
# 6 0.0000 0.0000 0.0000 -14.0175 0.0000 12.3178
#
#
#
# Elastic Compliance Matrix: (Units=1/GPa)
#
#
# Indices 1 2 3 4 5 6 
#
# 1 0.011312 -0.001289 -0.001910 0.000000 -0.001707 0.000000
# 2 -0.001289 0.017187 -0.000481 0.000000 -0.000392 0.000000
# 3 -0.001910 -0.000481 0.008201 0.000000 0.001103 0.000000
# 4 0.000000 0.000000 0.000000 0.035208 0.000000 0.040067
# 5 -0.001707 -0.000392 0.001103 0.000000 0.040152 0.000000
# 6 0.000000 0.000000 0.000000 0.040067 0.000000 0.126779
#
#
# Mechanical properties :
#
#
# Convention : Reuss Voigt Hill
#
# Bulk Modulus (GPa) = 34.08096 38.80269 36.44182
# Shear Modulus (GPa) = 19.53282 32.72311 26.12796
#
# Velocity S-wave (km/s) = 2.91126 3.76813 3.36707
# Velocity P-wave (km/s) = 5.10770 5.98069 5.56135
#
# Compressibility (1/GPa) = 0.02934190
#
# Stress axis : x y z
#
# Youngs Moduli (GPa) = 88.39925 58.18189 121.93994
#
# Poissons Ratio (x) = 0.07500 0.23287
# Poissons Ratio (y) = 0.11395 0.05861
# Poissons Ratio (z) = 0.16882 0.02796
#
# Static dielectric constant tensor:
#      x y z
#    x 1.875850 0.000000 -0.047590 
#    y 0.000000 1.841770 0.000000 
#    z -0.047590 0.000000 1.888500 
# 
# From -- ./inp_files/259395.got.cif
#   From: 2010.05.17/outbox.cif.g08.bks.cpg/sg15_130_cif.got.tgz:259395.got - 2010.06.03 18:47:42.
