data_PCOD9268350
_publ_section_title
;
Structure prediction by ZEFSAII (Michael W. Deem and Ramdas Pophale) SiO2 
 PCOD9268350
Probable space group: C 2/C
;
_chemical_formula_sum "Si O2"
_cell_formula_units_Z 36
_cell_length_a 9.198720
_cell_length_b 37.596661
_cell_length_c 5.350898
_cell_angle_alpha 90.000000
_cell_angle_beta 61.299670
_cell_angle_gamma 90.000000
_cell_volume 1623.207151
_symmetry_space_group_name_H-M "C 2/C"
_symmetry_group_IT_number 15
_symmetry_cell_setting 'monoclinic'
loop_
_space_group_symop_operation_xyz
x,y,z
-x,y,1/2-z
-x,-y,-z
x,-y,1/2+z
1/2+x,1/2+y,z
1/2-x,1/2+y,1/2-z
1/2-x,1/2-y,-z
1/2+x,1/2-y,1/2+z
loop_
_atom_site_type_symbol
_atom_site_label
_atom_site_fract_x
_atom_site_fract_y
_atom_site_fract_z
Si Si1 0.798633 0.898022 0.413269
Si Si2 0.500000 0.743940 0.750000
Si Si3 0.202879 0.979594 0.076311
Si Si4 0.205634 0.283036 0.207829
Si Si5 0.798122 0.856770 0.913789
O O1 0.742924 0.938691 0.489093
O O2 0.748247 0.873443 0.689069
O O3 0.000000 0.898428 0.250000
O O4 0.752137 0.882579 0.181880
O O5 0.650318 0.718186 0.699029
O O6 0.545560 0.770551 0.489259
O O7 0.000000 0.979475 0.250000
O O8 0.255487 0.997973 0.291099
O O9 0.250000 0.250000 0.000000
O O10 0.216821 0.319249 0.048949
O O11 0.000000 0.852293 0.750000
#
# Coordination Sequence:
#
# PCOD9268350 Si02
#       5
#     8   4   8   8   8
#     4   9  18  29  42  70  97 136 181 220 272 325
#     4  10  24  38  60  80 110 138 198 234 288 336
#     4   9  15  24  40  59  91 132 175 216 257 318
#     4  11  23  39  58  82 108 148 191 238 284 339
#     4  10  20  31  51  70 105 139 180 231 273 329
#
# _framework density 22.178317
#
# number of rings (size 3 to 8) (size 9 to 14) (size 15 to 20)
#    0.000    2.222    0.000    3.333   10.889    5.333 
#    0.000    0.000    0.000    0.000    0.000    0.000 
#    0.000    0.000    0.000   20.000    0.000    8.889 
#
# Total GULP energy -100603.016611 kJ/mol
# GULP energy per Si atom -5589.056478 kJ/mol
# Density = 2.212784 g / cm^3
# Si number density = 22.178317 Si / 1000 Ang^3
#
#
#
# Elastic Constant Matrix: (Units=GPa)
#
#
# Indices 1 2 3 4 5 6 
#
# 1 40.7549 7.7052 10.7647 0.0000 3.7781 0.0000
# 2 7.7052 173.2875 86.6458 0.0000 11.5483 0.0000
# 3 10.7647 86.6458 171.0858 0.0000 28.9697 0.0000
# 4 0.0000 0.0000 0.0000 44.9754 0.0000 13.1302
# 5 3.7781 11.5483 28.9697 0.0000 21.4290 0.0000
# 6 0.0000 0.0000 0.0000 13.1302 0.0000 12.2467
#
#
#
# Elastic Compliance Matrix: (Units=1/GPa)
#
#
# Indices 1 2 3 4 5 6 
#
# 1 0.025130 -0.000512 -0.000802 0.000000 -0.003070 0.000000
# 2 -0.000512 0.007773 -0.004164 0.000000 0.001530 0.000000
# 3 -0.000802 -0.004164 0.009857 0.000000 -0.010940 0.000000
# 4 0.000000 0.000000 0.000000 0.032365 0.000000 -0.034699
# 5 -0.003070 0.001530 -0.010940 0.000000 0.061172 0.000000
# 6 0.000000 0.000000 0.000000 -0.034699 0.000000 0.118857
#
#
# Mechanical properties :
#
#
# Convention : Reuss Voigt Hill
#
# Bulk Modulus (GPa) = 31.44144 66.15108 48.79626
# Shear Modulus (GPa) = 18.06941 34.39773 26.23357
#
# Velocity S-wave (km/s) = 2.85745 3.94250 3.44299
# Velocity P-wave (km/s) = 5.00940 7.11450 6.15265
#
# Compressibility (1/GPa) = 0.03180516
#
# Stress axis : x y z
#
# Youngs Moduli (GPa) = 39.79282 128.64299 101.45490
#
# Poissons Ratio (x) = 0.06583 0.08138
# Poissons Ratio (y) = 0.02036 0.42243
# Poissons Ratio (z) = 0.03192 0.53563
#
# Static dielectric constant tensor:
#      x y z
#    x -5.413180 0.000000 -2.038600 
#    y 0.000000 1.753820 0.000000 
#    z -2.038600 0.000000 1.225620 
# 
# From -- ./inp_files/5419.got.cif
#   From: 2010.05.17/outbox.cif.g08.bks.cpg/sg15_3_cif.got.tgz:5419.got - 2010.06.03 18:47:42.
