data_PCOD9268313
_publ_section_title
;
Structure prediction by ZEFSAII (Michael W. Deem and Ramdas Pophale) SiO2 
 PCOD9268313
Probable space group: C 2/C
;
_chemical_formula_sum "Si O2"
_cell_formula_units_Z 56
_cell_length_a 15.701869
_cell_length_b 20.343722
_cell_length_c 8.837788
_cell_angle_alpha 90.000000
_cell_angle_beta 64.367123
_cell_angle_gamma 90.000000
_cell_volume 2545.257645
_symmetry_space_group_name_H-M "C 2/C"
_symmetry_group_IT_number 15
_symmetry_cell_setting 'monoclinic'
loop_
_space_group_symop_operation_xyz
x,y,z
-x,y,1/2-z
-x,-y,-z
x,-y,1/2+z
1/2+x,1/2+y,z
1/2-x,1/2+y,1/2-z
1/2-x,1/2-y,-z
1/2+x,1/2-y,1/2+z
loop_
_atom_site_type_symbol
_atom_site_label
_atom_site_fract_x
_atom_site_fract_y
_atom_site_fract_z
Si Si1 0.726833 0.240053 0.846545
Si Si2 0.511301 0.240784 0.063597
Si Si3 0.757075 0.089886 0.851790
Si Si4 0.630114 0.927403 0.029261
Si Si5 0.754743 0.478515 0.841961
Si Si6 0.031100 0.584310 0.058379
Si Si7 0.160145 0.282566 0.985530
O O1 0.762578 0.164987 0.791198
O O2 0.789989 0.292965 0.713704
O O3 0.750000 0.250000 0.000000
O O4 0.615536 0.252128 0.915781
O O5 0.500000 0.264425 0.250000
O O6 0.504689 0.161770 0.078217
O O7 0.431942 0.258148 0.998076
O O8 0.801641 0.035934 0.704514
O O9 0.789253 0.069816 0.997598
O O10 0.642932 0.079637 0.949790
O O11 0.695207 0.938068 0.829918
O O12 0.527180 0.941811 0.040972
O O13 0.633755 0.851745 0.079783
O O14 0.672040 0.975354 0.121475
O O15 0.000000 0.562405 0.250000
O O16 0.250000 0.250000 0.000000
#
# Coordination Sequence:
#
# PCOD9268313 Si02
#       7
#     8   8   8   8   8   8   8
#     4  11  20  34  59  78 105 148 184 217 268 331
#     4   9  18  34  52  79 110 142 182 223 263 312
#     4  10  20  31  44  71  96 135 179 209 256 307
#     4  10  20  33  46  70 101 139 173 210 261 305
#     4  10  20  31  46  64 103 136 175 217 242 309
#     4   9  16  28  46  65 101 137 173 214 244 295
#     4  11  22  36  56  81 114 143 176 230 276 315
#
# _framework density 22.001702999999999
#
# number of rings (size 3 to 8) (size 9 to 14) (size 15 to 20)
#    0.000    2.000    2.857    1.714    0.000    4.571 
#    0.000    4.286    0.000    0.000    0.000    0.000 
#    0.000   80.000    0.000    0.000    0.000    0.000 
#
# Total GULP energy -155994.624482 kJ/mol
# GULP energy per Si atom -5571.236589 kJ/mol
# Density = 2.195163 g / cm^3
# Si number density = 22.001703 Si / 1000 Ang^3
#
#
#
# Elastic Constant Matrix: (Units=GPa)
#
#
# Indices 1 2 3 4 5 6 
#
# 1 75.0502 2.1511 -7.7474 0.0000 0.1360 0.0000
# 2 2.1511 60.8651 -2.2040 0.0000 -6.9279 0.0000
# 3 -7.7474 -2.2040 39.4902 0.0000 6.8978 0.0000
# 4 0.0000 0.0000 0.0000 30.2208 0.0000 4.2437
# 5 0.1360 -6.9279 6.8978 0.0000 32.6187 0.0000
# 6 0.0000 0.0000 0.0000 4.2437 0.0000 20.9025
#
#
#
# Elastic Compliance Matrix: (Units=1/GPa)
#
#
# Indices 1 2 3 4 5 6 
#
# 1 0.013626 -0.000466 0.002777 0.000000 -0.000743 0.000000
# 2 -0.000466 0.016857 0.000232 0.000000 0.003533 0.000000
# 3 0.002777 0.000232 0.026866 0.000000 -0.005644 0.000000
# 4 0.000000 0.000000 0.000000 0.034061 0.000000 -0.006915
# 5 -0.000743 0.003533 -0.005644 0.000000 0.032604 0.000000
# 6 0.000000 0.000000 0.000000 -0.006915 0.000000 0.049245
#
#
# Mechanical properties :
#
#
# Convention : Reuss Voigt Hill
#
# Bulk Modulus (GPa) = 16.01632 17.75610 16.88621
# Shear Modulus (GPa) = 26.45731 28.96210 27.70970
#
# Velocity S-wave (km/s) = 3.47149 3.63210 3.55270
# Velocity P-wave (km/s) = 4.83360 5.06729 4.95182
#
# Compressibility (1/GPa) = 0.06243631
#
# Stress axis : x y z
#
# Youngs Moduli (GPa) = 73.39033 59.32328 37.22138
#
# Poissons Ratio (x) = 0.02762 -0.10336
# Poissons Ratio (y) = 0.03417 -0.00865
# Poissons Ratio (z) = -0.20380 -0.01378
#
# Static dielectric constant tensor:
#      x y z
#    x 1.901270 0.000000 0.061550 
#    y 0.000000 1.858920 0.000000 
#    z 0.061550 0.000000 1.856490 
# 
# From -- ./inp_files/42520.got.cif
#   From: 2010.05.17/outbox.cif.g08.bks.cpg/sg15_22_cif.got.tgz:42520.got - 2010.06.03 18:47:42.
