data_PCOD9268042
_publ_section_title
;
Structure prediction by ZEFSAII (Michael W. Deem and Ramdas Pophale) SiO2 
 PCOD9268042
Probable space group: C 2/C
;
_chemical_formula_sum "Si O2"
_cell_formula_units_Z 40
_cell_length_a 6.654884
_cell_length_b 12.408681
_cell_length_c 19.899956
_cell_angle_alpha 90.000000
_cell_angle_beta 66.358792
_cell_angle_gamma 90.000000
_cell_volume 1505.390068
_symmetry_space_group_name_H-M "C 2/C"
_symmetry_group_IT_number 15
_symmetry_cell_setting 'monoclinic'
loop_
_space_group_symop_operation_xyz
x,y,z
-x,y,1/2-z
-x,-y,-z
x,-y,1/2+z
1/2+x,1/2+y,z
1/2-x,1/2+y,1/2-z
1/2-x,1/2-y,-z
1/2+x,1/2-y,1/2+z
loop_
_atom_site_type_symbol
_atom_site_label
_atom_site_fract_x
_atom_site_fract_y
_atom_site_fract_z
Si Si1 0.947276 0.235713 0.029116
Si Si2 0.682363 0.357070 0.380855
Si Si3 0.243206 0.914563 0.844697
Si Si4 0.217775 0.643714 0.307256
Si Si5 0.812603 0.543625 0.578664
O O1 0.921107 0.131036 0.078279
O O2 0.920429 0.340074 0.079442
O O3 0.750000 0.250000 0.000000
O O4 0.149112 0.210431 0.953604
O O5 0.819276 0.465282 0.352709
O O6 0.773732 0.265123 0.319852
O O7 0.439162 0.415516 0.403305
O O8 0.178132 0.898522 0.776153
O O9 0.457799 0.842855 0.827440
O O10 0.220579 0.552703 0.364426
O O11 0.000000 0.500000 0.500000
#
# Coordination Sequence:
#
# PCOD9268042 Si02
#       5
#     8   8   8   8   8
#     4  10  19  41  68  89 126 171 218 259 324 382
#     4  11  23  44  69  94 132 171 221 272 324 390
#     4  11  24  41  67  94 132 176 213 269 332 386
#     4  11  24  43  63  97 135 173 217 268 331 391
#     4  11  21  41  71  95 128 174 216 269 325 391
#
# _framework density 26.571187999999999
#
# number of rings (size 3 to 8) (size 9 to 14) (size 15 to 20)
#    0.000    1.200    6.000    1.800    2.800    0.800 
#    3.600    2.000    0.000    0.000    0.000    0.000 
#    0.000    0.000    0.000    0.000    0.000    0.000 
#
# Total GULP energy -111645.503031 kJ/mol
# GULP energy per Si atom -5582.275152 kJ/mol
# Density = 2.651071 g / cm^3
# Si number density = 26.571188 Si / 1000 Ang^3
#
#
#
# Elastic Constant Matrix: (Units=GPa)
#
#
# Indices 1 2 3 4 5 6 
#
# 1 82.3200 2.3527 16.3260 0.0000 -12.0364 0.0000
# 2 2.3527 238.1680 68.6054 0.0000 20.7981 0.0000
# 3 16.3260 68.6054 154.8848 0.0000 5.8310 0.0000
# 4 0.0000 0.0000 0.0000 36.9702 0.0000 1.7043
# 5 -12.0364 20.7981 5.8310 0.0000 37.6367 0.0000
# 6 0.0000 0.0000 0.0000 1.7043 0.0000 46.3570
#
#
#
# Elastic Compliance Matrix: (Units=1/GPa)
#
#
# Indices 1 2 3 4 5 6 
#
# 1 0.013104 -0.000084 -0.001512 0.000000 0.004472 0.000000
# 2 -0.000084 0.005028 -0.002125 0.000000 -0.002476 0.000000
# 3 -0.001512 -0.002125 0.007575 0.000000 -0.000483 0.000000
# 4 0.000000 0.000000 0.000000 0.027095 0.000000 -0.000996
# 5 0.004472 -0.002476 -0.000483 0.000000 0.029443 0.000000
# 6 0.000000 0.000000 0.000000 -0.000996 0.000000 0.021608
#
#
# Mechanical properties :
#
#
# Convention : Reuss Voigt Hill
#
# Bulk Modulus (GPa) = 54.75273 72.21566 63.48420
# Shear Modulus (GPa) = 42.59520 50.06534 46.33027
#
# Velocity S-wave (km/s) = 4.00817 4.34544 4.18021
# Velocity P-wave (km/s) = 6.48624 7.23978 6.87334
#
# Compressibility (1/GPa) = 0.01826393
#
# Stress axis : x y z
#
# Youngs Moduli (GPa) = 76.31347 198.89059 132.00903
#
# Poissons Ratio (x) = 0.01677 0.19963
# Poissons Ratio (y) = 0.00643 0.28052
# Poissons Ratio (z) = 0.11540 0.42264
#
# Static dielectric constant tensor:
#      x y z
#    x 2.459440 0.000000 0.023790 
#    y 0.000000 2.052380 0.000000 
#    z 0.023790 0.000000 2.055730 
# 
# From -- ./inp_files/229796.got.cif
#   From: 2010.05.17/outbox.cif.g08.bks.cpg/sg15_115_cif.got.tgz:229796.got - 2010.06.03 18:47:42.
