data_PCOD9268602
_publ_section_title
;
Structure prediction by ZEFSAII (Michael W. Deem and Ramdas Pophale) SiO2 
 PCOD9268602
Probable space group: C 2/C
;
_chemical_formula_sum "Si O2"
_cell_formula_units_Z 60
_cell_length_a 8.540445
_cell_length_b 12.362560
_cell_length_c 26.237543
_cell_angle_alpha 90.000000
_cell_angle_beta 108.786277
_cell_angle_gamma 90.000000
_cell_volume 2622.627270
_symmetry_space_group_name_H-M "C 2/C"
_symmetry_group_IT_number 15
_symmetry_cell_setting 'monoclinic'
loop_
_space_group_symop_operation_xyz
x,y,z
-x,y,1/2-z
-x,-y,-z
x,-y,1/2+z
1/2+x,1/2+y,z
1/2-x,1/2+y,1/2-z
1/2-x,1/2-y,-z
1/2+x,1/2-y,1/2+z
loop_
_atom_site_type_symbol
_atom_site_label
_atom_site_fract_x
_atom_site_fract_y
_atom_site_fract_z
Si Si1 0.535310 0.367385 0.305578
Si Si2 0.923143 0.599611 0.844540
Si Si3 0.627896 0.404479 0.699303
Si Si4 0.198556 0.451266 0.878142
Si Si5 0.605961 0.706952 0.405623
Si Si6 0.556567 0.621147 0.016977
Si Si7 0.418989 0.676043 0.902403
Si Si8 0.500000 0.773647 0.250000
O O1 0.500000 0.303997 0.250000
O O2 0.727259 0.400354 0.325698
O O3 0.416070 0.474009 0.289197
O O4 0.490316 0.310985 0.353697
O O5 0.997505 0.647186 0.798561
O O6 0.011558 0.487369 0.865287
O O7 0.993017 0.685776 0.891930
O O8 0.777806 0.401624 0.675404
O O9 0.477382 0.370388 0.645417
O O10 0.635459 0.316143 0.745229
O O11 0.278805 0.380716 0.931363
O O12 0.313370 0.561822 0.890255
O O13 0.586443 0.664411 0.460349
O O14 0.786314 0.736054 0.405638
O O15 0.500000 0.500000 0.000000
O O16 0.555182 0.672877 0.961185
#
# Coordination Sequence:
#
# PCOD9268602 Si02
#       8
#     8   8   8   8   8   8   8   4
#     4  11  23  37  56  81 120 158 199 244 297 359
#     4  10  22  35  56  83 115 153 202 241 311 351
#     4   9  18  34  55  78 108 146 194 242 299 350
#     4   8  17  34  56  81 113 148 189 248 296 363
#     4   9  18  35  59  86 116 145 196 252 298 355
#     4   9  16  32  62  89 114 150 198 250 297 363
#     4   9  18  33  57  87 113 153 200 238 297 354
#     4  10  20  32  58  76 110 150 194 242 294 346
#
# _framework density 22.877821000000001
#
# number of rings (size 3 to 8) (size 9 to 14) (size 15 to 20)
#    0.000    2.667    0.667    1.200    7.467    0.000 
#    0.000    5.333    0.000    0.000    0.000    0.000 
#    0.000    0.000    0.000    0.000    0.000    0.000 
#
# Total GULP energy -167345.760845 kJ/mol
# GULP energy per Si atom -5578.192028 kJ/mol
# Density = 2.282575 g / cm^3
# Si number density = 22.877821 Si / 1000 Ang^3
#
#
#
# Elastic Constant Matrix: (Units=GPa)
#
#
# Indices 1 2 3 4 5 6 
#
# 1 110.0241 24.0154 69.8197 0.0000 -2.7394 0.0000
# 2 24.0154 43.2792 27.7122 0.0000 -10.5151 0.0000
# 3 69.8197 27.7122 136.9120 0.0000 -37.7130 0.0000
# 4 0.0000 0.0000 0.0000 19.6221 0.0000 -1.8044
# 5 -2.7394 -10.5151 -37.7130 0.0000 24.1462 0.0000
# 6 0.0000 0.0000 0.0000 -1.8044 0.0000 26.1397
#
#
#
# Elastic Compliance Matrix: (Units=1/GPa)
#
#
# Indices 1 2 3 4 5 6 
#
# 1 0.020061 -0.007219 -0.015810 0.000000 -0.025561 0.000000
# 2 -0.007219 0.029576 0.001785 0.000000 0.014848 0.000000
# 3 -0.015810 0.001785 0.025844 0.000000 0.039348 0.000000
# 4 0.000000 0.000000 0.000000 0.051288 0.000000 0.003540
# 5 -0.025561 0.014848 0.039348 0.000000 0.106437 0.000000
# 6 0.000000 0.000000 0.000000 0.003540 0.000000 0.038500
#
#
# Mechanical properties :
#
#
# Convention : Reuss Voigt Hill
#
# Bulk Modulus (GPa) = 30.30931 59.25667 44.78299
# Shear Modulus (GPa) = 15.37556 25.22612 20.30084
#
# Velocity S-wave (km/s) = 2.59525 3.32421 2.98209
# Velocity P-wave (km/s) = 4.71779 6.37898 5.61021
#
# Compressibility (1/GPa) = 0.03299316
#
# Stress axis : x y z
#
# Youngs Moduli (GPa) = 49.84821 33.81111 38.69415
#
# Poissons Ratio (x) = 0.24407 0.61175
# Poissons Ratio (y) = 0.35983 -0.06906
# Poissons Ratio (z) = 0.78810 -0.06034
#
# Static dielectric constant tensor:
#      x y z
#    x 1.854260 0.000000 0.000940 
#    y 0.000000 1.919720 0.000000 
#    z 0.000940 0.000000 1.882140 
# 
# From -- ./inp_files/288453.got.cif
#   From: 2010.05.17/outbox.cif.g08.bks.cpg/sg15_145_cif.got.tgz:288453.got - 2010.06.03 18:47:42.
