data_PCOD9268033
_publ_section_title
;
Structure prediction by ZEFSAII (Michael W. Deem and Ramdas Pophale) SiO2 
 PCOD9268033
Probable space group: C 2/C
;
_chemical_formula_sum "Si O2"
_cell_formula_units_Z 64
_cell_length_a 9.282197
_cell_length_b 16.632313
_cell_length_c 19.556153
_cell_angle_alpha 90.000000
_cell_angle_beta 98.890627
_cell_angle_gamma 90.000000
_cell_volume 2982.890281
_symmetry_space_group_name_H-M "C 2/C"
_symmetry_group_IT_number 15
_symmetry_cell_setting 'monoclinic'
loop_
_space_group_symop_operation_xyz
x,y,z
-x,y,1/2-z
-x,-y,-z
x,-y,1/2+z
1/2+x,1/2+y,z
1/2-x,1/2+y,1/2-z
1/2-x,1/2-y,-z
1/2+x,1/2-y,1/2+z
loop_
_atom_site_type_symbol
_atom_site_label
_atom_site_fract_x
_atom_site_fract_y
_atom_site_fract_z
Si Si1 0.931641 0.549520 0.058634
Si Si2 0.675438 0.336881 0.493092
Si Si3 0.339615 0.664122 0.004485
Si Si4 0.293780 0.123658 0.366849
Si Si5 0.285860 0.070941 0.637289
Si Si6 0.384626 0.342318 0.167816
Si Si7 0.345167 0.490866 0.745205
Si Si8 0.780554 0.786166 0.287649
O O1 0.911813 0.483473 0.116061
O O2 0.042857 0.617521 0.092353
O O3 0.778700 0.593838 0.032119
O O4 0.000000 0.500000 0.000000
O O5 0.750000 0.250000 0.500000
O O6 0.513595 0.327648 0.512045
O O7 0.660075 0.355918 0.412107
O O8 0.301883 0.617112 0.071556
O O9 0.250000 0.750000 0.000000
O O10 0.289230 0.612705 0.934363
O O11 0.255475 0.206028 0.326871
O O12 0.271517 0.057679 0.306779
O O13 0.191240 0.012513 0.679398
O O14 0.322919 0.144462 0.690445
O O15 0.365855 0.425702 0.206239
O O16 0.286920 0.281284 0.206042
O O17 0.552229 0.313013 0.181860
O O18 0.500000 0.446417 0.750000
#
# Coordination Sequence:
#
# PCOD9268033 Si02
#       8
#     8   8   8   8   8   8   8   8
#     4  12  27  44  67 106 147 182 242 306 358 438
#     4  12  26  41  70 107 144 185 242 302 367 432
#     4  12  23  44  75 104 144 194 241 303 373 438
#     4  12  26  44  72 102 142 189 231 305 367 422
#     4  11  23  42  73  99 138 187 240 290 368 430
#     4  10  19  41  67  92 132 181 231 278 348 434
#     4  11  23  44  70 101 139 178 240 296 355 442
#     4  10  20  41  70  93 130 187 230 281 363 435
#
# _framework density 21.455698999999999
#
# number of rings (size 3 to 8) (size 9 to 14) (size 15 to 20)
#    0.000    0.750    6.250    2.250    1.750    4.000 
#    0.000    0.000    2.750    0.000    0.000    0.000 
#    0.000    0.000    0.000    0.000    0.000    0.000 
#
# Total GULP energy -178640.575169 kJ/mol
# GULP energy per Si atom -5582.517974 kJ/mol
# Density = 2.140687 g / cm^3
# Si number density = 21.455699 Si / 1000 Ang^3
#
#
#
# Elastic Constant Matrix: (Units=GPa)
#
#
# Indices 1 2 3 4 5 6 
#
# 1 95.1866 23.9064 40.8317 0.0000 -12.6036 0.0000
# 2 23.9064 64.6068 27.6816 0.0000 -10.7661 0.0000
# 3 40.8317 27.6816 112.6305 0.0000 -24.0032 0.0000
# 4 0.0000 0.0000 0.0000 29.7856 0.0000 0.0063
# 5 -12.6036 -10.7661 -24.0032 0.0000 36.2086 0.0000
# 6 0.0000 0.0000 0.0000 0.0063 0.0000 31.4288
#
#
#
# Elastic Compliance Matrix: (Units=1/GPa)
#
#
# Indices 1 2 3 4 5 6 
#
# 1 0.013019 -0.003026 -0.003729 0.000000 0.001160 0.000000
# 2 -0.003026 0.018235 -0.002857 0.000000 0.002474 0.000000
# 3 -0.003729 -0.002857 0.012198 0.000000 0.005939 0.000000
# 4 0.000000 0.000000 0.000000 0.033573 0.000000 -0.000007
# 5 0.001160 0.002474 0.005939 0.000000 0.032694 0.000000
# 6 0.000000 0.000000 0.000000 -0.000007 0.000000 0.031818
#
#
# Mechanical properties :
#
#
# Convention : Reuss Voigt Hill
#
# Bulk Modulus (GPa) = 41.27585 50.80704 46.04145
# Shear Modulus (GPa) = 29.61430 31.48487 30.54959
#
# Velocity S-wave (km/s) = 3.71921 3.83487 3.77748
# Velocity P-wave (km/s) = 6.14189 6.58329 6.36641
#
# Compressibility (1/GPa) = 0.02422724
#
# Stress axis : x y z
#
# Youngs Moduli (GPa) = 76.81178 54.84079 81.97927
#
# Poissons Ratio (x) = 0.16597 0.30567
# Poissons Ratio (y) = 0.23247 0.23422
# Poissons Ratio (z) = 0.28640 0.15668
#
# Static dielectric constant tensor:
#      x y z
#    x 1.910050 0.000000 0.083470 
#    y 0.000000 1.804930 0.000000 
#    z 0.083470 0.000000 1.874640 
# 
# From -- ./inp_files/232691.got.cif
#   From: 2010.05.17/outbox.cif.g08.bks.cpg/sg15_117_cif.got.tgz:232691.got - 2010.06.03 18:47:42.
