data_PCOD9268121
_publ_section_title
;
Structure prediction by ZEFSAII (Michael W. Deem and Ramdas Pophale) SiO2 
 PCOD9268121
Probable space group: C 2/C
;
_chemical_formula_sum "Si O2"
_cell_formula_units_Z 52
_cell_length_a 11.925272
_cell_length_b 9.259657
_cell_length_c 21.986629
_cell_angle_alpha 90.000000
_cell_angle_beta 124.886376
_cell_angle_gamma 90.000000
_cell_volume 1991.535932
_symmetry_space_group_name_H-M "C 2/C"
_symmetry_group_IT_number 15
_symmetry_cell_setting 'monoclinic'
loop_
_space_group_symop_operation_xyz
x,y,z
-x,y,1/2-z
-x,-y,-z
x,-y,1/2+z
1/2+x,1/2+y,z
1/2-x,1/2+y,1/2-z
1/2-x,1/2-y,-z
1/2+x,1/2-y,1/2+z
loop_
_atom_site_type_symbol
_atom_site_label
_atom_site_fract_x
_atom_site_fract_y
_atom_site_fract_z
Si Si1 0.500000 0.132887 0.250000
Si Si2 0.652173 0.448784 0.795115
Si Si3 0.448527 0.152456 0.101892
Si Si4 0.211977 0.878734 0.675855
Si Si5 0.753239 0.078015 0.559570
Si Si6 0.291815 0.305526 0.378838
Si Si7 0.443610 0.387222 0.534089
O O1 0.482170 0.069370 0.175348
O O2 0.646967 0.207579 0.284951
O O3 0.500000 0.509119 0.750000
O O4 0.691426 0.431370 0.737857
O O5 0.754746 0.526153 0.873636
O O6 0.658322 0.285651 0.823072
O O7 0.325383 0.264685 0.079857
O O8 0.581726 0.241348 0.121567
O O9 0.383350 0.073497 0.023337
O O10 0.074743 0.812553 0.604983
O O11 0.230900 0.029183 0.645620
O O12 0.864199 0.977150 0.560013
O O13 0.340168 0.291443 0.463322
O O14 0.500000 0.500000 0.500000
#
# Coordination Sequence:
#
# PCOD9268121 Si02
#       7
#     4   8   8   8   8   8   8
#     4  12  26  42  70 100 136 174 234 284 328 398
#     4  12  25  46  66 102 138 175 224 282 335 402
#     4  11  23  42  69 102 125 176 232 278 330 395
#     4  11  24  45  67  96 134 180 221 281 342 399
#     4  11  24  41  69  97 133 173 226 279 335 397
#     4  11  24  43  66  97 134 177 226 272 349 404
#     4  10  19  42  66  90 130 178 216 272 336 406
#
# _framework density 26.110499000000001
#
# number of rings (size 3 to 8) (size 9 to 14) (size 15 to 20)
#    0.000    0.923    6.154    1.846    6.462    1.231 
#    0.000    0.000    0.000    0.000    0.000    0.000 
#    0.000    0.000    0.000    0.000    0.000    0.000 
#
# Total GULP energy -145324.033281 kJ/mol
# GULP energy per Si atom -5589.385895 kJ/mol
# Density = 2.605107 g / cm^3
# Si number density = 26.110499 Si / 1000 Ang^3
#
#
#
# Elastic Constant Matrix: (Units=GPa)
#
#
# Indices 1 2 3 4 5 6 
#
# 1 91.4929 5.4082 56.5302 0.0000 -0.9838 0.0000
# 2 5.4082 52.3662 34.8075 0.0000 5.5839 0.0000
# 3 56.5302 34.8075 241.5257 0.0000 -14.5435 0.0000
# 4 0.0000 0.0000 0.0000 27.7510 0.0000 6.4428
# 5 -0.9838 5.5839 -14.5435 0.0000 49.2863 0.0000
# 6 0.0000 0.0000 0.0000 6.4428 0.0000 30.7610
#
#
#
# Elastic Compliance Matrix: (Units=1/GPa)
#
#
# Indices 1 2 3 4 5 6 
#
# 1 0.012832 0.000869 -0.003176 0.000000 -0.000779 0.000000
# 2 0.000869 0.021736 -0.003546 0.000000 -0.003492 0.000000
# 3 -0.003176 -0.003546 0.005513 0.000000 0.001965 0.000000
# 4 0.000000 0.000000 0.000000 0.037877 0.000000 -0.007933
# 5 -0.000779 -0.003492 0.001965 0.000000 0.021249 0.000000
# 6 0.000000 0.000000 0.000000 -0.007933 0.000000 0.034170
#
#
# Mechanical properties :
#
#
# Convention : Reuss Voigt Hill
#
# Bulk Modulus (GPa) = 35.24216 64.31963 49.78089
# Shear Modulus (GPa) = 32.35376 40.80227 36.57802
#
# Velocity S-wave (km/s) = 3.52392 3.95736 3.74691
# Velocity P-wave (km/s) = 5.48488 6.75041 6.15028
#
# Compressibility (1/GPa) = 0.02837511
#
# Stress axis : x y z
#
# Youngs Moduli (GPa) = 77.92933 46.00684 181.39074
#
# Poissons Ratio (x) = -0.03996 0.57601
# Poissons Ratio (y) = -0.06769 0.64322
# Poissons Ratio (z) = 0.24747 0.16314
#
# Static dielectric constant tensor:
#      x y z
#    x 2.064800 0.000000 0.018570 
#    y 0.000000 2.100650 0.000000 
#    z 0.018570 0.000000 2.107260 
# 
# From -- ./inp_files/269332.got.cif
#   From: 2010.05.17/outbox.cif.g08.bks.cpg/sg15_135_cif.got.tgz:269332.got - 2010.06.03 18:47:42.
