data_PCOD9268938
_publ_section_title
;
Structure prediction by ZEFSAII (Michael W. Deem and Ramdas Pophale) SiO2 
 PCOD9268938
Probable space group: C 2/C
;
_chemical_formula_sum "Si O2"
_cell_formula_units_Z 48
_cell_length_a 20.176915
_cell_length_b 19.381443
_cell_length_c 13.406011
_cell_angle_alpha 90.000000
_cell_angle_beta 26.454356
_cell_angle_gamma 90.000000
_cell_volume 2335.464494
_symmetry_space_group_name_H-M "C 2/C"
_symmetry_group_IT_number 15
_symmetry_cell_setting 'monoclinic'
loop_
_space_group_symop_operation_xyz
x,y,z
-x,y,1/2-z
-x,-y,-z
x,-y,1/2+z
1/2+x,1/2+y,z
1/2-x,1/2+y,1/2-z
1/2-x,1/2-y,-z
1/2+x,1/2-y,1/2+z
loop_
_atom_site_type_symbol
_atom_site_label
_atom_site_fract_x
_atom_site_fract_y
_atom_site_fract_z
Si Si1 0.755783 0.367003 0.028808
Si Si2 0.528816 0.740302 0.820605
Si Si3 0.770548 0.298686 0.304268
Si Si4 0.334732 0.077732 0.228725
Si Si5 0.163421 0.438817 0.378177
Si Si6 0.527737 0.186378 0.607572
O O1 0.874413 0.308973 0.831826
O O2 0.723430 0.406472 0.969348
O O3 0.622365 0.318782 0.249507
O O4 0.814196 0.416807 0.037083
O O5 0.500000 0.711771 0.750000
O O6 0.381071 0.763585 0.074287
O O7 0.755829 0.378157 0.292479
O O8 0.621712 0.254768 0.504931
O O9 0.869932 0.297495 0.269863
O O10 0.286015 0.013969 0.225719
O O11 0.489914 0.062670 0.078849
O O12 0.377429 0.140991 0.098493
O O13 0.500000 0.148660 0.750000
#
# Coordination Sequence:
#
# PCOD9268938 Si02
#       6
#     8   8   8   8   8   8
#     4  11  19  34  56  88 120 149 187 242 301 343
#     4  11  19  31  60  90 115 142 189 251 296 344
#     4  11  21  38  59  87 114 149 199 243 294 343
#     4  10  21  35  55  85 122 150 192 241 293 350
#     4  10  20  33  56  87 120 150 188 241 296 343
#     4  11  23  39  58  82 116 156 197 240 288 349
#
# _framework density 20.552655999999999
#
# number of rings (size 3 to 8) (size 9 to 14) (size 15 to 20)
#    0.000    1.333    5.000    3.000    0.000    4.000 
#    0.000    0.000    0.000   12.000    0.000    0.000 
#    0.000    0.000    0.000    0.000    0.000    0.000 
#
# Total GULP energy -133951.633433 kJ/mol
# GULP energy per Si atom -5581.318060 kJ/mol
# Density = 2.050588 g / cm^3
# Si number density = 20.552656 Si / 1000 Ang^3
#
#
#
# Elastic Constant Matrix: (Units=GPa)
#
#
# Indices 1 2 3 4 5 6 
#
# 1 125.1190 48.4382 10.8379 0.0006 25.6077 -0.0010
# 2 48.4382 113.1926 22.3034 0.0007 4.2234 -0.0009
# 3 10.8379 22.3034 24.8929 0.0010 10.3090 -0.0011
# 4 0.0006 0.0007 0.0010 17.5791 -0.0005 2.8400
# 5 25.6077 4.2234 10.3090 -0.0005 17.4733 0.0010
# 6 -0.0010 -0.0009 -0.0011 2.8400 0.0010 34.7509
#
#
#
# Elastic Compliance Matrix: (Units=1/GPa)
#
#
# Indices 1 2 3 4 5 6 
#
# 1 0.015952 -0.008167 0.012223 -0.000002 -0.028616 0.000002
# 2 -0.008167 0.015133 -0.017793 0.000001 0.018809 -0.000001
# 3 0.012223 -0.017793 0.074675 -0.000007 -0.057670 0.000005
# 4 -0.000002 0.000001 -0.000007 0.057647 0.000009 -0.004711
# 5 -0.028616 0.018809 -0.057670 0.000009 0.128646 -0.000007
# 6 0.000002 -0.000001 0.000005 -0.004711 -0.000007 0.029161
#
#
# Mechanical properties :
#
#
# Convention : Reuss Voigt Hill
#
# Bulk Modulus (GPa) = 12.77347 47.37372 30.07359
# Shear Modulus (GPa) = 13.34101 26.06898 19.70499
#
# Velocity S-wave (km/s) = 2.55053 3.56532 3.09974
# Velocity P-wave (km/s) = 3.86033 6.32840 5.24170
#
# Compressibility (1/GPa) = 0.07828728
#
# Stress axis : x y z
#
# Youngs Moduli (GPa) = 62.68781 66.07864 13.39129
#
# Poissons Ratio (x) = 0.53967 -0.16368
# Poissons Ratio (y) = 0.51197 0.23827
# Poissons Ratio (z) = -0.76623 1.17572
#
# Static dielectric constant tensor:
#      x y z
#    x 1.801790 0.000000 -0.004870 
#    y 0.000000 1.760550 0.000000 
#    z -0.004870 0.000000 1.754610 
# 
# From -- ./inp_files/168842.got.cif
#   From: 2010.05.17/outbox.cif.g08.bks.cpg/sg15_85_cif.got.tgz:168842.got - 2010.06.03 18:47:42.
