data_PCOD9268488
_publ_section_title
;
Structure prediction by ZEFSAII (Michael W. Deem and Ramdas Pophale) SiO2 
 PCOD9268488
Probable space group: C 2/C
;
_chemical_formula_sum "Si O2"
_cell_formula_units_Z 56
_cell_length_a 26.996976
_cell_length_b 15.048832
_cell_length_c 5.815079
_cell_angle_alpha 90.000000
_cell_angle_beta 116.203325
_cell_angle_gamma 90.000000
_cell_volume 2119.720741
_symmetry_space_group_name_H-M "C 2/C"
_symmetry_group_IT_number 15
_symmetry_cell_setting 'monoclinic'
loop_
_space_group_symop_operation_xyz
x,y,z
-x,y,1/2-z
-x,-y,-z
x,-y,1/2+z
1/2+x,1/2+y,z
1/2-x,1/2+y,1/2-z
1/2-x,1/2-y,-z
1/2+x,1/2-y,1/2+z
loop_
_atom_site_type_symbol
_atom_site_label
_atom_site_fract_x
_atom_site_fract_y
_atom_site_fract_z
Si Si1 0.050674 0.585581 0.730873
Si Si2 0.618524 0.453515 0.949241
Si Si3 0.653143 0.917195 0.199968
Si Si4 0.708732 0.793241 0.686324
Si Si5 0.500000 0.445949 0.750000
Si Si6 0.601748 0.213735 0.219448
Si Si7 0.241499 0.109614 0.798697
Si Si8 0.000000 0.717849 0.250000
O O1 0.101916 0.533034 0.719136
O O2 0.024949 0.652360 0.492168
O O3 0.000000 0.534419 0.750000
O O4 0.074805 0.652757 0.969220
O O5 0.614837 0.514105 0.175002
O O6 0.682189 0.425004 0.106259
O O7 0.560378 0.398296 0.858822
O O8 0.677393 0.854360 0.445690
O O9 0.708001 0.952116 0.185230
O O10 0.625619 0.852316 0.959679
O O11 0.657693 0.747551 0.727376
O O12 0.743961 0.707934 0.689773
O O13 0.745378 0.860131 0.914797
O O14 0.500000 0.500000 0.500000
O O15 0.552272 0.267493 0.243128
#
# Coordination Sequence:
#
# PCOD9268488 Si02
#       8
#     8   8   8   8   4   8   8   4
#     4   8  13  22  38  60  90 131 178 215 251 312
#     4  10  22  40  64  89 112 150 199 258 307 350
#     4   9  16  27  44  68 100 139 178 218 270 332
#     4   9  18  31  47  74 107 149 179 222 278 358
#     4   8  16  36  64  85 106 142 192 251 308 354
#     4   8  14  24  38  60  90 132 178 212 261 311
#     4  10  20  32  52  77 108 142 186 232 287 360
#     4   8  12  20  38  55  82 132 172 219 252 302
#
# _framework density 26.418572999999999
#
# number of rings (size 3 to 8) (size 9 to 14) (size 15 to 20)
#    0.000    3.143    0.000    0.429    2.000    0.000 
#    0.000    0.000   15.714    0.857    0.000    0.000 
#    0.000    1.143    0.000    6.429    0.000    9.643 
#
# Total GULP energy -155935.257714 kJ/mol
# GULP energy per Si atom -5569.116347 kJ/mol
# Density = 2.635844 g / cm^3
# Si number density = 26.418573 Si / 1000 Ang^3
#
#
#
# Elastic Constant Matrix: (Units=GPa)
#
#
# Indices 1 2 3 4 5 6 
#
# 1 173.4474 17.4078 -15.0459 0.0000 31.9465 0.0000
# 2 17.4078 34.6394 8.8902 0.0000 -9.0266 0.0000
# 3 -15.0459 8.8902 139.7465 0.0000 7.9769 0.0000
# 4 0.0000 0.0000 0.0000 1.2886 0.0000 0.7108
# 5 31.9465 -9.0266 7.9769 0.0000 51.8485 0.0000
# 6 0.0000 0.0000 0.0000 0.7108 0.0000 22.3742
#
#
#
# Elastic Compliance Matrix: (Units=1/GPa)
#
#
# Indices 1 2 3 4 5 6 
#
# 1 0.007554 -0.005717 0.001513 0.000000 -0.005882 0.000000
# 2 -0.005717 0.035282 -0.003442 0.000000 0.010195 0.000000
# 3 0.001513 -0.003442 0.007693 0.000000 -0.002715 0.000000
# 4 0.000000 0.000000 0.000000 0.789856 0.000000 -0.025092
# 5 -0.005882 0.010195 -0.002715 0.000000 0.025104 0.000000
# 6 0.000000 0.000000 0.000000 -0.025092 0.000000 0.045491
#
#
# Mechanical properties :
#
#
# Convention : Reuss Voigt Hill
#
# Bulk Modulus (GPa) = 28.38044 41.14863 34.76453
# Shear Modulus (GPa) = 5.33039 37.54100 21.43570
#
# Velocity S-wave (km/s) = 1.42199 3.77372 2.85158
# Velocity P-wave (km/s) = 3.66906 5.88195 4.90201
#
# Compressibility (1/GPa) = 0.03523554
#
# Stress axis : x y z
#
# Youngs Moduli (GPa) = 132.38104 28.34295 129.99459
#
# Poissons Ratio (x) = 0.16205 -0.19666
# Poissons Ratio (y) = 0.75687 0.44744
# Poissons Ratio (z) = -0.20027 0.09756
#
# Static dielectric constant tensor:
#      x y z
#    x 2.253320 0.000000 -0.047060 
#    y 0.000000 2.016470 0.000000 
#    z -0.047060 0.000000 2.092100 
# 
# From -- ./inp_files/18491.got.cif
#   From: 2010.05.17/outbox.cif.g08.bks.cpg/sg15_10_cif.got.tgz:18491.got - 2010.06.03 18:47:42.
