data_PCOD9268588
_publ_section_title
;
Structure prediction by ZEFSAII (Michael W. Deem and Ramdas Pophale) SiO2 
 PCOD9268588
Probable space group: C 2/C
;
_chemical_formula_sum "Si O2"
_cell_formula_units_Z 60
_cell_length_a 30.626656
_cell_length_b 10.770280
_cell_length_c 8.807217
_cell_angle_alpha 90.000000
_cell_angle_beta 99.895262
_cell_angle_gamma 90.000000
_cell_volume 2861.909976
_symmetry_space_group_name_H-M "C 2/C"
_symmetry_group_IT_number 15
_symmetry_cell_setting 'monoclinic'
loop_
_space_group_symop_operation_xyz
x,y,z
-x,y,1/2-z
-x,-y,-z
x,-y,1/2+z
1/2+x,1/2+y,z
1/2-x,1/2+y,1/2-z
1/2-x,1/2-y,-z
1/2+x,1/2-y,1/2+z
loop_
_atom_site_type_symbol
_atom_site_label
_atom_site_fract_x
_atom_site_fract_y
_atom_site_fract_z
Si Si1 0.810465 0.819545 0.223929
Si Si2 0.633925 0.492994 0.424463
Si Si3 0.000000 0.948546 0.250000
Si Si4 0.770963 0.520449 0.720907
Si Si5 0.299564 0.334335 0.891903
Si Si6 0.176565 0.608482 0.026846
Si Si7 0.376900 0.757673 0.222046
Si Si8 0.054624 0.870459 0.561303
O O1 0.853373 0.907570 0.213939
O O2 0.803792 0.759296 0.051424
O O3 0.819620 0.733586 0.372183
O O4 0.764252 0.892054 0.217573
O O5 0.679290 0.467995 0.542852
O O6 0.621733 0.630315 0.373322
O O7 0.595927 0.435898 0.503842
O O8 0.033607 0.041487 0.179726
O O9 0.020476 0.866092 0.399220
O O10 0.746502 0.385768 0.697501
O O11 0.783904 0.578780 0.567812
O O12 0.815799 0.497374 0.843460
O O13 0.332052 0.269426 0.792957
O O14 0.133303 0.628822 0.896745
O O15 0.421709 0.750036 0.348894
#
# Coordination Sequence:
#
# PCOD9268588 Si02
#       8
#     8   8   4   8   8   8   8   8
#     4  10  22  36  58  81 105 163 205 249 300 340
#     4   9  18  34  56  83 118 154 201 230 266 358
#     4  10  20  32  56  92 128 170 164 224 290 330
#     4  12  23  41  52  81 115 146 213 275 290 337
#     4   9  19  35  52  76 109 144 201 251 283 327
#     4  12  28  38  60  75 111 161 206 260 316 332
#     4  11  21  36  58  83 114 163 202 228 289 361
#     4  10  20  34  55  87 129 158 186 215 276 362
#
# _framework density 20.965019000000002
#
# number of rings (size 3 to 8) (size 9 to 14) (size 15 to 20)
#    0.800    0.800    4.000    1.200    5.600    1.600 
#    0.000    0.000    0.000    0.000    0.000    0.000 
#    0.000    3.200    0.000    0.133    0.000    0.000 
#
# Total GULP energy -167020.342308 kJ/mol
# GULP energy per Si atom -5567.344744 kJ/mol
# Density = 2.091730 g / cm^3
# Si number density = 20.965019 Si / 1000 Ang^3
#
#
#
# Elastic Constant Matrix: (Units=GPa)
#
#
# Indices 1 2 3 4 5 6 
#
# 1 64.2026 16.7274 36.6184 0.0000 -1.2791 0.0000
# 2 16.7274 41.5439 24.1260 0.0000 1.1248 0.0000
# 3 36.6184 24.1260 125.3379 0.0000 11.6604 0.0000
# 4 0.0000 0.0000 0.0000 47.2188 0.0000 8.8876
# 5 -1.2791 1.1248 11.6604 0.0000 47.2056 0.0000
# 6 0.0000 0.0000 0.0000 8.8876 0.0000 14.8956
#
#
#
# Elastic Compliance Matrix: (Units=1/GPa)
#
#
# Indices 1 2 3 4 5 6 
#
# 1 0.019784 -0.005132 -0.004967 0.000000 0.001885 0.000000
# 2 -0.005132 0.028452 -0.003993 0.000000 0.000169 0.000000
# 3 -0.004967 -0.003993 0.010442 0.000000 -0.002619 0.000000
# 4 0.000000 0.000000 0.000000 0.023857 0.000000 -0.014235
# 5 0.001885 0.000169 -0.002619 0.000000 0.021878 0.000000
# 6 0.000000 0.000000 0.000000 -0.014235 0.000000 0.075627
#
#
# Mechanical properties :
#
#
# Convention : Reuss Voigt Hill
#
# Bulk Modulus (GPa) = 32.79528 42.89201 37.84365
# Shear Modulus (GPa) = 22.89500 32.10484 27.49992
#
# Velocity S-wave (km/s) = 3.30821 3.91750 3.62568
# Velocity P-wave (km/s) = 5.50174 6.40044 5.96803
#
# Compressibility (1/GPa) = 0.03049219
#
# Stress axis : x y z
#
# Youngs Moduli (GPa) = 50.54696 35.14746 95.76760
#
# Poissons Ratio (x) = 0.18038 0.47572
# Poissons Ratio (y) = 0.25941 0.38240
# Poissons Ratio (z) = 0.25109 0.14034
#
# Static dielectric constant tensor:
#      x y z
#    x 1.776710 0.000000 0.062230 
#    y 0.000000 1.871040 0.000000 
#    z 0.062230 0.000000 1.893860 
# 
# From -- ./inp_files/69131.got.cif
#   From: 2010.05.17/outbox.cif.g08.bks.cpg/sg15_35_cif.got.tgz:69131.got - 2010.06.03 18:47:42.
