data_PCOD9268318
_publ_section_title
;
Structure prediction by ZEFSAII (Michael W. Deem and Ramdas Pophale) SiO2 
 PCOD9268318
Probable space group: C 2/C
;
_chemical_formula_sum "Si O2"
_cell_formula_units_Z 64
_cell_length_a 15.987645
_cell_length_b 34.931984
_cell_length_c 12.380738
_cell_angle_alpha 90.000000
_cell_angle_beta 146.365563
_cell_angle_gamma 90.000000
_cell_volume 3829.829390
_symmetry_space_group_name_H-M "C 2/C"
_symmetry_group_IT_number 15
_symmetry_cell_setting 'monoclinic'
loop_
_space_group_symop_operation_xyz
x,y,z
-x,y,1/2-z
-x,-y,-z
x,-y,1/2+z
1/2+x,1/2+y,z
1/2-x,1/2+y,1/2-z
1/2-x,1/2-y,-z
1/2+x,1/2-y,1/2+z
loop_
_atom_site_type_symbol
_atom_site_label
_atom_site_fract_x
_atom_site_fract_y
_atom_site_fract_z
Si Si1 0.305384 0.628412 0.447970
Si Si2 0.661521 0.503973 0.234236
Si Si3 0.645600 0.206219 0.268171
Si Si4 0.804506 0.716772 0.918772
Si Si5 0.142995 0.550016 0.227597
Si Si6 0.336078 0.972467 0.121674
Si Si7 0.802788 0.429749 0.308110
Si Si8 0.636968 0.640175 0.734242
O O1 0.199595 0.663645 0.299273
O O2 0.240715 0.586180 0.366652
O O3 0.458404 0.632819 0.543617
O O4 0.326439 0.634001 0.599253
O O5 0.773301 0.529232 0.281013
O O6 0.695723 0.522142 0.388064
O O7 0.722253 0.460746 0.298617
O O8 0.500000 0.500000 0.000000
O O9 0.742405 0.241257 0.325368
O O10 0.669952 0.212212 0.423891
O O11 0.470921 0.210687 0.051460
O O12 0.687984 0.683340 0.762693
O O13 0.130330 0.515243 0.297896
O O14 0.979603 0.566487 0.023163
O O15 0.500000 0.959415 0.250000
O O16 0.287530 0.945340 0.169105
O O17 0.729581 0.389345 0.259720
#
# Coordination Sequence:
#
# PCOD9268318 Si02
#       8
#     8   8   8   8   8   8   8   8
#     4  10  20  31  46  68 103 134 172 214 266 304
#     4  11  22  36  53  76 102 131 172 217 265 312
#     4   9  16  27  43  66  92 136 170 207 250 312
#     4   9  16  27  44  64  96 130 174 205 251 306
#     4  11  21  32  52  74  97 134 174 214 254 318
#     4  11  20  38  56  73 100 140 173 217 269 319
#     4  11  21  34  54  74  99 132 178 216 262 316
#     4  10  20  32  45  71 100 136 171 219 258 312
#
# _framework density 16.710927999999999
#
# number of rings (size 3 to 8) (size 9 to 14) (size 15 to 20)
#    0.000    1.750    2.500    3.750    0.000    7.000 
#    0.000    0.000    0.000    0.000    0.000    0.000 
#    0.000    1.000    0.250    1.250    0.000    3.500 
#
# Total GULP energy -178269.804326 kJ/mol
# GULP energy per Si atom -5570.931385 kJ/mol
# Density = 1.667289 g / cm^3
# Si number density = 16.710928 Si / 1000 Ang^3
#
#
#
# Elastic Constant Matrix: (Units=GPa)
#
#
# Indices 1 2 3 4 5 6 
#
# 1 54.3281 18.4423 26.5393 0.0000 10.3848 0.0000
# 2 18.4423 66.7004 -10.2735 0.0000 8.7338 0.0000
# 3 26.5393 -10.2735 55.3576 0.0000 12.2532 0.0000
# 4 0.0000 0.0000 0.0000 21.3834 0.0000 6.7032
# 5 10.3848 8.7338 12.2532 0.0000 25.8674 0.0000
# 6 0.0000 0.0000 0.0000 6.7032 0.0000 18.6204
#
#
#
# Elastic Compliance Matrix: (Units=1/GPa)
#
#
# Indices 1 2 3 4 5 6 
#
# 1 0.030154 -0.010745 -0.016281 0.000000 -0.000766 0.000000
# 2 -0.010745 0.020618 0.010684 0.000000 -0.007709 0.000000
# 3 -0.016281 0.010684 0.030390 0.000000 -0.011467 0.000000
# 4 0.000000 0.000000 0.000000 0.052714 0.000000 -0.018977
# 5 -0.000766 -0.007709 -0.011467 0.000000 0.047001 0.000000
# 6 0.000000 0.000000 0.000000 -0.018977 0.000000 0.060536
#
#
# Mechanical properties :
#
#
# Convention : Reuss Voigt Hill
#
# Bulk Modulus (GPa) = 20.62734 27.31139 23.96936
# Shear Modulus (GPa) = 17.22619 22.61943 19.92281
#
# Velocity S-wave (km/s) = 3.21414 3.68308 3.45657
# Velocity P-wave (km/s) = 5.11319 5.87075 5.50502
#
# Compressibility (1/GPa) = 0.04847935
#
# Stress axis : x y z
#
# Youngs Moduli (GPa) = 33.16355 48.50084 32.90505
#
# Poissons Ratio (x) = 0.52112 0.53572
# Poissons Ratio (y) = 0.35633 -0.35155
# Poissons Ratio (z) = 0.53992 -0.51818
#
# Static dielectric constant tensor:
#      x y z
#    x 1.627140 0.000000 -0.020650 
#    y 0.000000 1.548300 0.000000 
#    z -0.020650 0.000000 1.615900 
# 
# From -- ./inp_files/101652.got.cif
#   From: 2010.05.17/outbox.cif.g08.bks.cpg/sg15_51_cif.got.tgz:101652.got - 2010.06.03 18:47:42.
