data_PCOD9268954
_publ_section_title
;
Structure prediction by ZEFSAII (Michael W. Deem and Ramdas Pophale) SiO2 
 PCOD9268954
Probable space group: C 2/C
;
_chemical_formula_sum "Si O2"
_cell_formula_units_Z 52
_cell_length_a 21.382008
_cell_length_b 16.000090
_cell_length_c 17.916917
_cell_angle_alpha 90.000000
_cell_angle_beta 28.354222
_cell_angle_gamma 90.000000
_cell_volume 2911.091035
_symmetry_space_group_name_H-M "C 2/C"
_symmetry_group_IT_number 15
_symmetry_cell_setting 'monoclinic'
loop_
_space_group_symop_operation_xyz
x,y,z
-x,y,1/2-z
-x,-y,-z
x,-y,1/2+z
1/2+x,1/2+y,z
1/2-x,1/2+y,1/2-z
1/2-x,1/2-y,-z
1/2+x,1/2-y,1/2+z
loop_
_atom_site_type_symbol
_atom_site_label
_atom_site_fract_x
_atom_site_fract_y
_atom_site_fract_z
Si Si1 0.115489 0.787972 0.067189
Si Si2 0.409990 0.580319 0.512126
Si Si3 0.393713 0.680719 0.295843
Si Si4 0.313586 0.132950 0.866905
Si Si5 0.032364 0.098503 0.882846
Si Si6 0.734438 0.886939 0.471865
Si Si7 0.000000 0.486714 0.250000
O O1 0.212262 0.856606 0.003102
O O2 0.000000 0.775891 0.250000
O O3 0.049916 0.823632 0.062040
O O4 0.186707 0.699742 0.984593
O O5 0.533908 0.624393 0.341051
O O6 0.282687 0.599513 0.596023
O O7 0.404415 0.612146 0.602763
O O8 0.438206 0.481777 0.485824
O O9 0.500000 0.695557 0.250000
O O10 0.352964 0.771531 0.308952
O O11 0.270589 0.638011 0.467178
O O12 0.437242 0.073614 0.753132
O O13 0.143662 0.080113 0.704147
O O14 0.617685 0.952849 0.600004
#
# Coordination Sequence:
#
# PCOD9268954 Si02
#       7
#     8   8   8   8   8   8   4
#     4   9  18  36  57  80 105 139 178 224 264 313
#     4  10  21  37  55  77 108 145 181 216 262 318
#     4   9  18  36  57  80 105 139 178 224 264 313
#     4  10  20  33  57  83 109 136 179 222 269 312
#     4  10  21  37  55  77 108 145 181 216 262 318
#     4  10  20  33  57  83 109 136 179 222 269 312
#     4  12  20  32  56  88 106 136 172 232 264 316
#
# _framework density 17.862718000000001
#
# number of rings (size 3 to 8) (size 9 to 14) (size 15 to 20)
#    0.000    2.154    1.538    1.846    0.000    5.538 
#    0.000    0.769    0.000    0.000    0.000    0.000 
#    0.000    0.000    0.000    0.000    0.000    0.000 
#
# Total GULP energy -145052.617929 kJ/mol
# GULP energy per Si atom -5578.946843 kJ/mol
# Density = 1.782206 g / cm^3
# Si number density = 17.862718 Si / 1000 Ang^3
#
#
#
# Elastic Constant Matrix: (Units=GPa)
#
#
# Indices 1 2 3 4 5 6 
#
# 1 84.0207 40.1970 3.0523 0.0001 -6.3509 -0.0001
# 2 40.1970 45.7956 2.3617 0.0001 -5.5893 -0.0001
# 3 3.0523 2.3617 14.0318 0.0001 -13.8039 -0.0001
# 4 0.0001 0.0001 0.0001 34.7780 -0.0001 -11.6079
# 5 -6.3509 -5.5893 -13.8039 -0.0001 23.4577 0.0001
# 6 -0.0001 -0.0001 -0.0001 -11.6079 0.0001 25.7965
#
#
#
# Elastic Compliance Matrix: (Units=1/GPa)
#
#
# Indices 1 2 3 4 5 6 
#
# 1 0.020558 -0.017894 -0.000425 0.000000 0.001052 0.000000
# 2 -0.017894 0.038140 0.003912 0.000000 0.006545 0.000000
# 3 -0.000425 0.003912 0.169803 0.000000 0.100739 0.000001
# 4 0.000000 0.000000 0.000000 0.033836 0.000000 0.015225
# 5 0.001052 0.006545 0.100739 0.000000 0.103755 0.000000
# 6 0.000000 0.000000 0.000001 0.015225 0.000000 0.045616
#
#
# Mechanical properties :
#
#
# Convention : Reuss Voigt Hill
#
# Bulk Modulus (GPa) = 5.00790 26.11891 15.56341
# Shear Modulus (GPa) = 9.86031 23.35561 16.60796
#
# Velocity S-wave (km/s) = 2.35203 3.61987 3.05250
# Velocity P-wave (km/s) = 3.19150 5.66789 4.59949
#
# Compressibility (1/GPa) = 0.19968432
#
# Stress axis : x y z
#
# Youngs Moduli (GPa) = 48.64378 26.21944 5.88918
#
# Poissons Ratio (x) = 0.46917 0.00251
# Poissons Ratio (y) = 0.87044 -0.02304
# Poissons Ratio (z) = 0.02070 -0.10256
#
# Static dielectric constant tensor:
#      x y z
#    x 1.596650 0.000000 -0.019050 
#    y 0.000000 1.609490 0.000000 
#    z -0.019050 0.000000 1.613950 
# 
# From -- ./inp_files/215563.got.cif
#   From: 2010.05.17/outbox.cif.g08.bks.cpg/sg15_108_cif.got.tgz:215563.got - 2010.06.03 18:47:42.
