data_PCOD9268390
_publ_section_title
;
Structure prediction by ZEFSAII (Michael W. Deem and Ramdas Pophale) SiO2 
 PCOD9268390
Probable space group: C 2/C
;
_chemical_formula_sum "Si O2"
_cell_formula_units_Z 60
_cell_length_a 10.660574
_cell_length_b 20.965261
_cell_length_c 13.922035
_cell_angle_alpha 90.000000
_cell_angle_beta 87.417801
_cell_angle_gamma 90.000000
_cell_volume 3108.439247
_symmetry_space_group_name_H-M "C 2/C"
_symmetry_group_IT_number 15
_symmetry_cell_setting 'monoclinic'
loop_
_space_group_symop_operation_xyz
x,y,z
-x,y,1/2-z
-x,-y,-z
x,-y,1/2+z
1/2+x,1/2+y,z
1/2-x,1/2+y,1/2-z
1/2-x,1/2-y,-z
1/2+x,1/2-y,1/2+z
loop_
_atom_site_type_symbol
_atom_site_label
_atom_site_fract_x
_atom_site_fract_y
_atom_site_fract_z
Si Si1 0.906499 0.223678 0.676946
Si Si2 0.749832 0.030704 0.627036
Si Si3 0.000000 0.723590 0.750000
Si Si4 0.962688 0.119811 0.534114
Si Si5 0.201420 0.370483 0.279815
Si Si6 0.690522 0.313049 0.631201
Si Si7 0.856684 0.060148 0.284083
Si Si8 0.298633 0.540667 0.947336
O O1 0.987741 0.178256 0.605309
O O2 0.814323 0.174898 0.737704
O O3 0.817417 0.271705 0.620271
O O4 0.000000 0.255614 0.750000
O O5 0.874712 0.068975 0.591131
O O6 0.670126 0.083118 0.689395
O O7 0.789542 0.979810 0.704579
O O8 0.712499 0.992844 0.531545
O O9 0.089351 0.677167 0.806986
O O10 0.087598 0.766750 0.681111
O O11 0.876328 0.152829 0.456362
O O12 0.090300 0.081960 0.506081
O O13 0.236572 0.413072 0.370308
O O14 0.713007 0.373244 0.699160
O O15 0.000000 0.072934 0.250000
O O16 0.854983 0.016668 0.380190
#
# Coordination Sequence:
#
# PCOD9268390 Si02
#       8
#     8   8   4   8   8   8   8   8
#     4  10  20  38  56  79 113 153 187 225 279 334
#     4  10  20  31  57  85 115 140 183 235 289 330
#     4  10  22  42  54  76 112 158 194 222 270 334
#     4  11  19  33  55  90 114 137 184 238 291 331
#     4   9  21  37  59  79 113 153 188 226 277 339
#     4  11  22  34  57  82 114 148 186 234 276 334
#     4  11  19  32  52  86 118 146 178 234 293 325
#     4  11  19  33  58  88 115 142 180 240 288 334
#
# _framework density 19.302292000000001
#
# number of rings (size 3 to 8) (size 9 to 14) (size 15 to 20)
#    0.000    1.600    4.667    1.600    0.000    0.000 
#    0.000    2.667    5.867    0.000    0.000    0.000 
#    0.000    0.000    0.000    0.000    0.000    0.000 
#
# Total GULP energy -167147.552990 kJ/mol
# GULP energy per Si atom -5571.585100 kJ/mol
# Density = 1.925836 g / cm^3
# Si number density = 19.302292 Si / 1000 Ang^3
#
#
#
# Elastic Constant Matrix: (Units=GPa)
#
#
# Indices 1 2 3 4 5 6 
#
# 1 26.2097 28.8574 8.7091 0.0000 5.5999 0.0000
# 2 28.8574 117.4852 36.5586 0.0000 6.1253 0.0000
# 3 8.7091 36.5586 84.1312 0.0000 9.4280 0.0000
# 4 0.0000 0.0000 0.0000 32.0974 0.0000 11.7477
# 5 5.5999 6.1253 9.4280 0.0000 14.4502 0.0000
# 6 0.0000 0.0000 0.0000 11.7477 0.0000 27.9341
#
#
#
# Elastic Compliance Matrix: (Units=1/GPa)
#
#
# Indices 1 2 3 4 5 6 
#
# 1 0.056031 -0.013482 0.001997 0.000000 -0.017302 0.000000
# 2 -0.013482 0.013117 -0.004603 0.000000 0.002668 0.000000
# 3 0.001997 -0.004603 0.014616 0.000000 -0.008359 0.000000
# 4 0.000000 0.000000 0.000000 0.036823 0.000000 -0.015486
# 5 -0.017302 0.002668 -0.008359 0.000000 0.080232 0.000000
# 6 0.000000 0.000000 0.000000 -0.015486 0.000000 0.042311
#
#
# Mechanical properties :
#
#
# Convention : Reuss Voigt Hill
#
# Bulk Modulus (GPa) = 19.38428 41.78626 30.58527
# Shear Modulus (GPa) = 17.09391 25.14305 21.11848
#
# Velocity S-wave (km/s) = 2.97911 3.61306 3.31129
# Velocity P-wave (km/s) = 4.67951 6.25308 5.52262
#
# Compressibility (1/GPa) = 0.05158819
#
# Stress axis : x y z
#
# Youngs Moduli (GPa) = 17.84724 76.23971 68.41611
#
# Poissons Ratio (x) = 1.02787 -0.13664
# Poissons Ratio (y) = 0.24062 0.31492
# Poissons Ratio (z) = -0.03565 0.35093
#
# Static dielectric constant tensor:
#      x y z
#    x 1.645260 0.000000 0.005350 
#    y 0.000000 1.677890 0.000000 
#    z 0.005350 0.000000 1.728020 
# 
# From -- ./inp_files/146760.got.cif
#   From: 2010.05.17/outbox.cif.g08.bks.cpg/sg15_74_cif.got.tgz:146760.got - 2010.06.03 18:47:42.
