data_PCOD9268878
_publ_section_title
;
Structure prediction by ZEFSAII (Michael W. Deem and Ramdas Pophale) SiO2 
 PCOD9268878
Probable space group: C 2/C
;
_chemical_formula_sum "Si O2"
_cell_formula_units_Z 52
_cell_length_a 13.725280
_cell_length_b 33.549997
_cell_length_c 8.484078
_cell_angle_alpha 90.000000
_cell_angle_beta 43.461471
_cell_angle_gamma 90.000000
_cell_volume 2687.339877
_symmetry_space_group_name_H-M "C 2/C"
_symmetry_group_IT_number 15
_symmetry_cell_setting 'monoclinic'
loop_
_space_group_symop_operation_xyz
x,y,z
-x,y,1/2-z
-x,-y,-z
x,-y,1/2+z
1/2+x,1/2+y,z
1/2-x,1/2+y,1/2-z
1/2-x,1/2-y,-z
1/2+x,1/2-y,1/2+z
loop_
_atom_site_type_symbol
_atom_site_label
_atom_site_fract_x
_atom_site_fract_y
_atom_site_fract_z
Si Si1 0.989042 0.136521 0.073441
Si Si2 0.500000 0.160944 0.750000
Si Si3 0.699805 0.881899 0.412064
Si Si4 0.860577 0.296819 0.147918
Si Si5 0.193789 0.392133 0.795036
Si Si6 0.039453 0.226316 0.018453
Si Si7 0.504285 0.044903 0.056634
O O1 0.851484 0.113905 0.173032
O O2 0.000000 0.134811 0.250000
O O3 0.977672 0.183302 0.041310
O O4 0.136181 0.120229 0.831313
O O5 0.615933 0.187803 0.701408
O O6 0.589445 0.135545 0.519908
O O7 0.634563 0.838462 0.449888
O O8 0.688254 0.884946 0.613775
O O9 0.624033 0.919069 0.409770
O O10 0.707765 0.277400 0.306550
O O11 0.978298 0.262972 0.990746
O O12 0.129020 0.435988 0.877949
O O13 0.000000 0.231017 0.250000
O O14 0.500000 0.040886 0.250000
O O15 0.500000 0.000000 0.000000
#
# Coordination Sequence:
#
# PCOD9268878 Si02
#       7
#     8   4   8   8   8   8   8
#     4  10  22  39  65  92 120 165 211 248 298 363
#     4  12  22  34  66  86 112 164 216 246 304 358
#     4  10  22  44  60  89 131 158 197 255 308 358
#     4  11  22  34  58  83 118 161 203 257 297 360
#     4  11  23  40  66  90 120 164 199 252 309 361
#     4  10  20  33  54  85 119 154 209 258 297 342
#     4  10  23  39  64  95 125 156 196 246 299 363
#
# _framework density 19.349990999999999
#
# number of rings (size 3 to 8) (size 9 to 14) (size 15 to 20)
#    0.000    1.538    2.308    3.692    3.231    0.000 
#    0.000    1.538    6.769    0.000    0.000    0.000 
#    0.000    0.000    0.000    0.000    0.000    0.000 
#
# Total GULP energy -144936.085627 kJ/mol
# GULP energy per Si atom -5574.464832 kJ/mol
# Density = 1.930595 g / cm^3
# Si number density = 19.349991 Si / 1000 Ang^3
#
#
#
# Elastic Constant Matrix: (Units=GPa)
#
#
# Indices 1 2 3 4 5 6 
#
# 1 116.9458 86.0652 31.7615 0.0000 -29.0493 0.0000
# 2 86.0652 180.7031 53.8420 0.0000 -31.4381 0.0000
# 3 31.7615 53.8420 85.2120 0.0000 -19.7457 0.0000
# 4 0.0000 0.0000 0.0000 9.6742 0.0000 -8.9126
# 5 -29.0493 -31.4381 -19.7457 0.0000 24.6909 0.0000
# 6 0.0000 0.0000 0.0000 -8.9126 0.0000 21.7098
#
#
#
# Elastic Compliance Matrix: (Units=1/GPa)
#
#
# Indices 1 2 3 4 5 6 
#
# 1 0.015241 -0.005390 0.000355 0.000000 0.011353 0.000000
# 2 -0.005390 0.009669 -0.003335 0.000000 0.003303 0.000000
# 3 0.000355 -0.003335 0.015740 0.000000 0.008759 0.000000
# 4 0.000000 0.000000 0.000000 0.166243 0.000000 0.068249
# 5 0.011353 0.003303 0.008759 0.000000 0.065069 0.000000
# 6 0.000000 0.000000 0.000000 0.068249 0.000000 0.074081
#
#
# Mechanical properties :
#
#
# Convention : Reuss Voigt Hill
#
# Bulk Modulus (GPa) = 41.82100 80.68870 61.25485
# Shear Modulus (GPa) = 13.48607 25.29446 19.39027
#
# Velocity S-wave (km/s) = 2.64285 3.61946 3.16900
# Velocity P-wave (km/s) = 5.56532 7.69788 6.71678
#
# Compressibility (1/GPa) = 0.02391143
#
# Stress axis : x y z
#
# Youngs Moduli (GPa) = 65.61218 103.41830 63.53205
#
# Poissons Ratio (x) = 0.55740 -0.02258
# Poissons Ratio (y) = 0.35363 0.21190
# Poissons Ratio (z) = -0.02332 0.34493
#
# Static dielectric constant tensor:
#      x y z
#    x 1.684980 0.000000 0.005740 
#    y 0.000000 1.712500 0.000000 
#    z 0.005740 0.000000 1.706460 
# 
# From -- ./inp_files/44773.got.cif
#   From: 2010.05.17/outbox.cif.g08.bks.cpg/sg15_23_cif.got.tgz:44773.got - 2010.06.03 18:47:42.
