data_PCOD9268855
_publ_section_title
;
Structure prediction by ZEFSAII (Michael W. Deem and Ramdas Pophale) SiO2 
 PCOD9268855
Probable space group: C 2/C
;
_chemical_formula_sum "Si O2"
_cell_formula_units_Z 48
_cell_length_a 24.450409
_cell_length_b 7.175600
_cell_length_c 11.244699
_cell_angle_alpha 90.000000
_cell_angle_beta 103.373097
_cell_angle_gamma 90.000000
_cell_volume 1919.347040
_symmetry_space_group_name_H-M "C 2/C"
_symmetry_group_IT_number 15
_symmetry_cell_setting 'monoclinic'
loop_
_space_group_symop_operation_xyz
x,y,z
-x,y,1/2-z
-x,-y,-z
x,-y,1/2+z
1/2+x,1/2+y,z
1/2-x,1/2+y,1/2-z
1/2-x,1/2-y,-z
1/2+x,1/2-y,1/2+z
loop_
_atom_site_type_symbol
_atom_site_label
_atom_site_fract_x
_atom_site_fract_y
_atom_site_fract_z
Si Si1 0.535584 0.193194 0.152963
Si Si2 0.843949 0.368666 0.833607
Si Si3 0.244220 0.369933 0.880322
Si Si4 0.354827 0.683349 0.327842
Si Si5 0.685582 0.217624 0.932737
Si Si6 0.981670 0.244106 0.376651
O O1 0.500000 0.256437 0.250000
O O2 0.602255 0.206503 0.209482
O O3 0.525794 0.969292 0.136257
O O4 0.517742 0.279738 0.016268
O O5 0.784227 0.291724 0.753999
O O6 0.844127 0.594790 0.848967
O O7 0.852044 0.296742 0.971659
O O8 0.308124 0.422199 0.881373
O O9 0.194042 0.512393 0.883176
O O10 0.250000 0.250000 0.000000
O O11 0.338109 0.653697 0.181749
O O12 0.420645 0.655303 0.373030
O O13 0.750000 0.250000 0.000000
O O14 0.000000 0.189553 0.250000
#
# Coordination Sequence:
#
# PCOD9268855 Si02
#       6
#     8   8   8   8   8   8
#     4   9  18  29  48  76 109 143 178 224 279 327
#     4  10  20  34  53  79 115 147 179 228 276 331
#     4  11  22  34  54  80 115 145 180 223 280 324
#     4  10  20  33  54  80 111 145 183 227 275 332
#     4  11  21  36  54  78 115 145 186 220 274 334
#     4   9  17  30  49  75 109 143 180 222 279 328
#
# _framework density 25.008503999999999
#
# number of rings (size 3 to 8) (size 9 to 14) (size 15 to 20)
#    0.000    2.000    3.333    1.000    2.333    4.000 
#    0.000    0.000    0.000    0.000    0.000    5.833 
#    0.000    0.000    0.000    0.000    0.000    0.000 
#
# Total GULP energy -133926.227739 kJ/mol
# GULP energy per Si atom -5580.259489 kJ/mol
# Density = 2.495158 g / cm^3
# Si number density = 25.008504 Si / 1000 Ang^3
#
#
#
# Elastic Constant Matrix: (Units=GPa)
#
#
# Indices 1 2 3 4 5 6 
#
# 1 170.5829 5.2953 48.6866 0.0000 -4.3658 0.0000
# 2 5.2953 69.7037 4.9895 0.0000 0.2433 0.0000
# 3 48.6866 4.9895 100.9107 0.0000 -5.6902 0.0000
# 4 0.0000 0.0000 0.0000 7.1129 0.0000 15.2845
# 5 -4.3658 0.2433 -5.6902 0.0000 52.9980 0.0000
# 6 0.0000 0.0000 0.0000 15.2845 0.0000 13.1857
#
#
#
# Elastic Compliance Matrix: (Units=1/GPa)
#
#
# Indices 1 2 3 4 5 6 
#
# 1 0.006806 -0.000285 -0.003258 0.000000 0.000212 0.000000
# 2 -0.000285 0.014410 -0.000584 0.000000 -0.000152 0.000000
# 3 -0.003258 -0.000584 0.011565 0.000000 0.000976 0.000000
# 4 0.000000 0.000000 0.000000 -0.094301 0.000000 0.109310
# 5 0.000212 -0.000152 0.000976 0.000000 0.018992 0.000000
# 6 0.000000 0.000000 0.000000 0.109310 0.000000 -0.050870
#
#
# Mechanical properties :
#
#
# Convention : Reuss Voigt Hill
#
# Bulk Modulus (GPa) = 40.76683 51.01555 45.89119
# Shear Modulus (GPa) = -64.96249 33.47439 -15.74405
#
# Velocity S-wave (km/s) = -5.10221 3.66255 -2.51180
# Velocity P-wave (km/s) = 4.28643 6.19106 3.15878
#
# Compressibility (1/GPa) = 0.02452974
#
# Stress axis : x y z
#
# Youngs Moduli (GPa) = 146.92168 69.39443 86.46426
#
# Poissons Ratio (x) = 0.01975 0.28169
# Poissons Ratio (y) = 0.04182 0.05048
# Poissons Ratio (z) = 0.47865 0.04051
#
# Static dielectric constant tensor:
#      x y z
#    x 1.874700 0.000000 0.157710 
#    y 0.000000 1.578280 0.000000 
#    z 0.157710 0.000000 1.294700 
# 
# From -- ./inp_files/110569.got.cif
#   From: 2010.05.17/outbox.cif.g08.bks.cpg/sg15_56_cif.got.tgz:110569.got - 2010.06.03 18:47:42.
