data_PCOD9268165
_publ_section_title
;
Structure prediction by ZEFSAII (Michael W. Deem and Ramdas Pophale) SiO2 
 PCOD9268165
Probable space group: C 2/C
;
_chemical_formula_sum "Si O2"
_cell_formula_units_Z 48
_cell_length_a 9.836427
_cell_length_b 11.320819
_cell_length_c 23.007276
_cell_angle_alpha 90.000000
_cell_angle_beta 67.844099
_cell_angle_gamma 90.000000
_cell_volume 2372.831887
_symmetry_space_group_name_H-M "C 2/C"
_symmetry_group_IT_number 15
_symmetry_cell_setting 'monoclinic'
loop_
_space_group_symop_operation_xyz
x,y,z
-x,y,1/2-z
-x,-y,-z
x,-y,1/2+z
1/2+x,1/2+y,z
1/2-x,1/2+y,1/2-z
1/2-x,1/2-y,-z
1/2+x,1/2-y,1/2+z
loop_
_atom_site_type_symbol
_atom_site_label
_atom_site_fract_x
_atom_site_fract_y
_atom_site_fract_z
Si Si1 0.000000 0.968598 0.250000
Si Si2 0.812156 0.873617 0.177233
Si Si3 0.746304 0.761249 0.570115
Si Si4 0.519915 0.558635 0.434120
Si Si5 0.290001 0.494590 0.884362
Si Si6 0.000000 0.525943 0.750000
Si Si7 0.553039 0.880798 0.856222
O O1 0.888366 0.895684 0.227627
O O2 0.895132 0.035261 0.312378
O O3 0.857340 0.741363 0.154473
O O4 0.886061 0.968450 0.121467
O O5 0.639076 0.897119 0.207462
O O6 0.750000 0.750000 0.500000
O O7 0.893775 0.819295 0.571363
O O8 0.707304 0.634754 0.603848
O O9 0.615288 0.850301 0.605906
O O10 0.500000 0.500000 0.500000
O O11 0.363431 0.568476 0.427484
O O12 0.126412 0.461001 0.893510
O O13 0.059321 0.444332 0.792898
#
# Coordination Sequence:
#
# PCOD9268165 Si02
#       7
#     4   8   8   8   8   4   8
#     4  10  19  43  62  94 134 167 215 262 332 388
#     4  11  23  42  66  97 136 172 218 274 329 399
#     4  12  24  45  70  91 132 179 224 275 331 395
#     4  11  22  45  68  93 133 174 219 276 331 383
#     4  11  25  42  68  99 131 173 220 274 331 397
#     4  12  25  41  66 100 138 175 217 270 336 406
#     4  12  25  42  68  99 134 173 220 272 332 400
#
# _framework density 20.228992000000002
#
# number of rings (size 3 to 8) (size 9 to 14) (size 15 to 20)
#    0.000    0.667    8.333    0.500    0.000    2.667 
#    0.000    1.667    0.000    0.000    0.000    0.000 
#    0.000    0.000    0.000    0.000    0.000    0.000 
#
# Total GULP energy -134089.041616 kJ/mol
# GULP energy per Si atom -5587.043401 kJ/mol
# Density = 2.018295 g / cm^3
# Si number density = 20.228992 Si / 1000 Ang^3
#
#
#
# Elastic Constant Matrix: (Units=GPa)
#
#
# Indices 1 2 3 4 5 6 
#
# 1 113.6125 34.1341 10.2852 0.0000 22.7829 0.0000
# 2 34.1341 36.5651 6.0984 0.0000 9.4737 0.0000
# 3 10.2852 6.0984 69.5541 0.0000 22.1918 0.0000
# 4 0.0000 0.0000 0.0000 2.0750 0.0000 -0.8203
# 5 22.7829 9.4737 22.1918 0.0000 32.6241 0.0000
# 6 0.0000 0.0000 0.0000 -0.8203 0.0000 42.6460
#
#
#
# Elastic Compliance Matrix: (Units=1/GPa)
#
#
# Indices 1 2 3 4 5 6 
#
# 1 0.013358 -0.010859 0.001210 0.000000 -0.006998 0.000000
# 2 -0.010859 0.038402 -0.000795 0.000000 -0.003028 0.000000
# 3 0.001210 -0.000795 0.018473 0.000000 -0.013180 0.000000
# 4 0.000000 0.000000 0.000000 0.485614 0.000000 0.009340
# 5 -0.006998 -0.003028 -0.013180 0.000000 0.045384 0.000000
# 6 0.000000 0.000000 0.000000 0.009340 0.000000 0.023629
#
#
# Mechanical properties :
#
#
# Convention : Reuss Voigt Hill
#
# Bulk Modulus (GPa) = 20.26558 35.64080 27.95319
# Shear Modulus (GPa) = 7.55063 26.74996 17.15029
#
# Velocity S-wave (km/s) = 1.93408 3.64037 2.91487
# Velocity P-wave (km/s) = 3.87652 5.94362 5.01767
#
# Compressibility (1/GPa) = 0.04934475
#
# Stress axis : x y z
#
# Youngs Moduli (GPa) = 74.86110 26.04014 54.13231
#
# Poissons Ratio (x) = 0.28276 -0.06548
# Poissons Ratio (y) = 0.81288 0.04306
# Poissons Ratio (z) = -0.09055 0.02071
#
# Static dielectric constant tensor:
#      x y z
#    x 1.735360 0.000000 -0.007080 
#    y 0.000000 1.714440 0.000000 
#    z -0.007080 0.000000 1.609630 
# 
# From -- ./inp_files/263124.got.cif
#   From: 2010.05.17/outbox.cif.g08.bks.cpg/sg15_132_cif.got.tgz:263124.got - 2010.06.03 18:47:42.
