data_PCOD9268443
_publ_section_title
;
Structure prediction by ZEFSAII (Michael W. Deem and Ramdas Pophale) SiO2 
 PCOD9268443
Probable space group: C 2/C
;
_chemical_formula_sum "Si O2"
_cell_formula_units_Z 64
_cell_length_a 25.411804
_cell_length_b 8.485858
_cell_length_c 14.863706
_cell_angle_alpha 90.000000
_cell_angle_beta 105.229531
_cell_angle_gamma 90.000000
_cell_volume 3092.660318
_symmetry_space_group_name_H-M "C 2/C"
_symmetry_group_IT_number 15
_symmetry_cell_setting 'monoclinic'
loop_
_space_group_symop_operation_xyz
x,y,z
-x,y,1/2-z
-x,-y,-z
x,-y,1/2+z
1/2+x,1/2+y,z
1/2-x,1/2+y,1/2-z
1/2-x,1/2-y,-z
1/2+x,1/2-y,1/2+z
loop_
_atom_site_type_symbol
_atom_site_label
_atom_site_fract_x
_atom_site_fract_y
_atom_site_fract_z
Si Si1 0.848809 0.473287 0.383492
Si Si2 0.663625 0.895601 0.442525
Si Si3 0.122712 0.942978 0.997864
Si Si4 0.562639 0.525428 0.797946
Si Si5 0.369692 0.691297 0.813535
Si Si6 0.867315 0.250412 0.243405
Si Si7 0.269697 0.529189 0.244840
Si Si8 0.236547 0.096786 0.053266
O O1 0.860161 0.485511 0.494023
O O2 0.871257 0.629601 0.345092
O O3 0.871123 0.321177 0.343826
O O4 0.783706 0.484667 0.334822
O O5 0.649343 0.722906 0.475220
O O6 0.638927 0.889566 0.331916
O O7 0.726180 0.949887 0.461982
O O8 0.077048 0.000878 0.908751
O O9 0.105390 0.911105 0.092561
O O10 0.172940 0.062133 0.015395
O O11 0.500000 0.553913 0.750000
O O12 0.599916 0.655778 0.765401
O O13 0.584009 0.363651 0.761422
O O14 0.307987 0.623026 0.780455
O O15 0.810867 0.149923 0.214104
O O16 0.253506 0.601056 0.334627
O O17 0.250000 0.250000 0.000000
#
# Coordination Sequence:
#
# PCOD9268443 Si02
#       8
#     8   8   8   8   8   8   8   8
#     4  11  20  32  55  78 113 147 177 219 270 329
#     4  10  21  33  52  76 111 153 184 204 268 330
#     4   9  21  36  55  78 109 143 182 221 269 332
#     4  10  22  40  62  78 101 144 191 235 280 317
#     4   9  21  36  53  82 110 139 186 223 270 328
#     4  10  21  37  53  79 113 144 184 226 268 329
#     4  10  20  32  49  79 116 149 175 213 266 327
#     4  11  21  31  49  82 116 147 179 215 263 320
#
# _framework density 20.694157000000001
#
# number of rings (size 3 to 8) (size 9 to 14) (size 15 to 20)
#    0.000    2.000    1.250    1.875   10.500    0.500 
#    0.000    0.625    0.000    6.750    0.000    0.000 
#    0.000    0.000    0.000    0.000    0.000    0.000 
#
# Total GULP energy -178725.149472 kJ/mol
# GULP energy per Si atom -5585.160921 kJ/mol
# Density = 2.064706 g / cm^3
# Si number density = 20.694157 Si / 1000 Ang^3
#
#
#
# Elastic Constant Matrix: (Units=GPa)
#
#
# Indices 1 2 3 4 5 6 
#
# 1 19.2836 -4.3529 -3.2728 0.0000 2.4046 0.0000
# 2 -4.3529 29.6799 -8.5121 0.0000 -0.4026 0.0000
# 3 -3.2728 -8.5121 65.9334 0.0000 -4.7648 0.0000
# 4 0.0000 0.0000 0.0000 24.7057 0.0000 -0.9665
# 5 2.4046 -0.4026 -4.7648 0.0000 20.8447 0.0000
# 6 0.0000 0.0000 0.0000 -0.9665 0.0000 7.5231
#
#
#
# Elastic Compliance Matrix: (Units=1/GPa)
#
#
# Indices 1 2 3 4 5 6 
#
# 1 0.055163 0.009025 0.003514 0.000000 -0.005386 0.000000
# 2 0.009025 0.036527 0.005226 0.000000 0.000859 0.000000
# 3 0.003514 0.005226 0.016263 0.000000 0.003413 0.000000
# 4 0.000000 0.000000 0.000000 0.040681 0.000000 0.005226
# 5 -0.005386 0.000859 0.003413 0.000000 0.049392 0.000000
# 6 0.000000 0.000000 0.000000 0.005226 0.000000 0.133596
#
#
# Mechanical properties :
#
#
# Convention : Reuss Voigt Hill
#
# Bulk Modulus (GPa) = 6.96953 9.18015 8.07484
# Shear Modulus (GPa) = 14.53833 19.35034 16.94433
#
# Velocity S-wave (km/s) = 2.65341 3.06120 2.86457
# Velocity P-wave (km/s) = 3.57248 4.11586 3.85376
#
# Compressibility (1/GPa) = 0.14348174
#
# Stress axis : x y z
#
# Youngs Moduli (GPa) = 18.12815 27.37717 61.49102
#
# Poissons Ratio (x) = -0.24708 -0.21609
# Poissons Ratio (y) = -0.16361 -0.32133
# Poissons Ratio (z) = -0.06370 -0.14307
#
# Static dielectric constant tensor:
#      x y z
#    x 1.686940 0.000000 -0.034450 
#    y 0.000000 1.781540 0.000000 
#    z -0.034450 0.000000 1.796410 
# 
# From -- ./inp_files/176613.got.cif
#   From: 2010.05.17/outbox.cif.g08.bks.cpg/sg15_89_cif.got.tgz:176613.got - 2010.06.03 18:47:42.
