data_PCOD9268266
_publ_section_title
;
Structure prediction by ZEFSAII (Michael W. Deem and Ramdas Pophale) SiO2 
 PCOD9268266
Probable space group: C 2/C
;
_chemical_formula_sum "Si O2"
_cell_formula_units_Z 64
_cell_length_a 24.743230
_cell_length_b 32.033062
_cell_length_c 4.976569
_cell_angle_alpha 90.000000
_cell_angle_beta 94.112339
_cell_angle_gamma 90.000000
_cell_volume 3934.280167
_symmetry_space_group_name_H-M "C 2/C"
_symmetry_group_IT_number 15
_symmetry_cell_setting 'monoclinic'
loop_
_space_group_symop_operation_xyz
x,y,z
-x,y,1/2-z
-x,-y,-z
x,-y,1/2+z
1/2+x,1/2+y,z
1/2-x,1/2+y,1/2-z
1/2-x,1/2-y,-z
1/2+x,1/2-y,1/2+z
loop_
_atom_site_type_symbol
_atom_site_label
_atom_site_fract_x
_atom_site_fract_y
_atom_site_fract_z
Si Si1 0.428216 0.974808 0.046921
Si Si2 0.941679 0.667657 0.820553
Si Si3 0.296515 0.024177 0.515070
Si Si4 0.848951 0.727741 0.977422
Si Si5 0.309242 0.270879 0.477881
Si Si6 0.760462 0.339346 0.250824
Si Si7 0.208155 0.609994 0.253299
Si Si8 0.918174 0.612865 0.302766
O O1 0.362242 0.973248 0.033557
O O2 0.442486 0.930100 0.927865
O O3 0.444593 0.012182 0.851703
O O4 0.903400 0.703327 0.925743
O O5 0.916936 0.645154 0.550203
O O6 0.000000 0.683518 0.750000
O O7 0.947268 0.632875 0.056479
O O8 0.275530 0.066536 0.377588
O O9 0.281043 0.013743 0.812377
O O10 0.838556 0.766398 0.772625
O O11 0.801092 0.694525 0.897922
O O12 0.842313 0.743511 0.276234
O O13 0.250000 0.250000 0.500000
O O14 0.294647 0.315710 0.349125
O O15 0.758983 0.375364 0.474243
O O16 0.785276 0.356366 0.982504
O O17 0.144546 0.606169 0.308930
#
# Coordination Sequence:
#
# PCOD9268266 Si02
#       8
#     8   8   8   8   8   8   8   8
#     4   9  17  29  48  66  78 101 134 172 223 280
#     4  12  24  36  51  66  84 112 146 182 219 266
#     4   9  17  27  38  59  85 109 141 170 206 249
#     4  11  19  34  47  64  89 113 138 171 215 266
#     4  10  20  30  48  68  91 114 132 164 211 271
#     4  11  18  29  45  70  91 106 137 165 216 270
#     4  11  18  28  47  65  87 114 135 177 217 257
#     4  11  20  35  49  65  87 107 137 184 226 267
#
# _framework density 16.267271000000001
#
# number of rings (size 3 to 8) (size 9 to 14) (size 15 to 20)
#    0.000    1.500    2.500    6.375    0.000    4.000 
#    0.000    0.000    0.000    7.500    0.000    0.000 
#    0.000    0.000    0.000    0.000    0.000    0.000 
#
# Total GULP energy -178728.014430 kJ/mol
# GULP energy per Si atom -5585.250451 kJ/mol
# Density = 1.623025 g / cm^3
# Si number density = 16.267271 Si / 1000 Ang^3
#
#
#
# Elastic Constant Matrix: (Units=GPa)
#
#
# Indices 1 2 3 4 5 6 
#
# 1 21.1365 15.1383 0.1324 0.0000 -2.0418 0.0000
# 2 15.1383 38.0100 0.1993 0.0000 2.6924 0.0000
# 3 0.1324 0.1993 75.6737 0.0000 0.6983 0.0000
# 4 0.0000 0.0000 0.0000 24.8480 0.0000 4.2878
# 5 -2.0418 2.6924 0.6983 0.0000 17.9042 0.0000
# 6 0.0000 0.0000 0.0000 4.2878 0.0000 13.5256
#
#
#
# Elastic Compliance Matrix: (Units=1/GPa)
#
#
# Indices 1 2 3 4 5 6 
#
# 1 0.068684 -0.028210 -0.000157 0.000000 0.012081 0.000000
# 2 -0.028210 0.038178 0.000031 0.000000 -0.008960 0.000000
# 3 -0.000157 0.000031 0.013220 0.000000 -0.000538 0.000000
# 4 0.000000 0.000000 0.000000 0.042574 0.000000 -0.013496
# 5 0.012081 -0.008960 -0.000538 0.000000 0.058599 0.000000
# 6 0.000000 0.000000 0.000000 -0.013496 0.000000 0.078213
#
#
# Mechanical properties :
#
#
# Convention : Reuss Voigt Hill
#
# Bulk Modulus (GPa) = 15.77015 18.41779 17.09397
# Shear Modulus (GPa) = 13.25291 19.21223 16.23257
#
# Velocity S-wave (km/s) = 2.85739 3.44035 3.16233
# Velocity P-wave (km/s) = 4.53891 5.20845 4.88516
#
# Compressibility (1/GPa) = 0.06341093
#
# Stress axis : x y z
#
# Youngs Moduli (GPa) = 14.55944 26.19277 75.64422
#
# Poissons Ratio (x) = 0.73889 0.01190
# Poissons Ratio (y) = 0.41072 -0.00238
# Poissons Ratio (z) = 0.00229 -0.00082
#
# Static dielectric constant tensor:
#      x y z
#    x 1.552200 0.000000 0.009060 
#    y 0.000000 1.601120 0.000000 
#    z 0.009060 0.000000 1.580300 
# 
# From -- ./inp_files/16368.got.cif
#   From: 2010.05.17/outbox.cif.g08.bks.cpg/sg15_9_cif.got.tgz:16368.got - 2010.06.03 18:47:42.
