data_PCOD9268852
_publ_section_title
;
Structure prediction by ZEFSAII (Michael W. Deem and Ramdas Pophale) SiO2 
 PCOD9268852
Probable space group: C 2/C
;
_chemical_formula_sum "Si O2"
_cell_formula_units_Z 64
_cell_length_a 15.727782
_cell_length_b 24.298551
_cell_length_c 9.275076
_cell_angle_alpha 90.000000
_cell_angle_beta 69.361395
_cell_angle_gamma 90.000000
_cell_volume 3317.101068
_symmetry_space_group_name_H-M "C 2/C"
_symmetry_group_IT_number 15
_symmetry_cell_setting 'monoclinic'
loop_
_space_group_symop_operation_xyz
x,y,z
-x,y,1/2-z
-x,-y,-z
x,-y,1/2+z
1/2+x,1/2+y,z
1/2-x,1/2+y,1/2-z
1/2-x,1/2-y,-z
1/2+x,1/2-y,1/2+z
loop_
_atom_site_type_symbol
_atom_site_label
_atom_site_fract_x
_atom_site_fract_y
_atom_site_fract_z
Si Si1 0.415227 0.149806 0.712142
Si Si2 0.584189 0.449635 0.297102
Si Si3 0.465376 0.426809 0.630758
Si Si4 0.062293 0.244292 0.494308
Si Si5 0.791901 0.305623 0.541059
Si Si6 0.251674 0.628213 0.878786
Si Si7 0.622926 0.731489 0.777986
Si Si8 0.192501 0.148890 0.340760
O O1 0.500000 0.123445 0.750000
O O2 0.450623 0.202471 0.597800
O O3 0.345071 0.120637 0.642691
O O4 0.351480 0.169863 0.879736
O O5 0.500000 0.428393 0.250000
O O6 0.551480 0.437703 0.478552
O O7 0.579797 0.515796 0.289821
O O8 0.677804 0.421045 0.197992
O O9 0.500000 0.394876 0.750000
O O10 0.388086 0.394582 0.594883
O O11 0.096557 0.254062 0.636554
O O12 0.141833 0.207584 0.380496
O O13 0.967521 0.212335 0.581217
O O14 0.750000 0.250000 0.500000
O O15 0.843223 0.282276 0.649717
O O16 0.730601 0.351755 0.655584
O O17 0.303786 0.682999 0.786050
O O18 0.245810 0.638621 0.054872
#
# Coordination Sequence:
#
# PCOD9268852 Si02
#       8
#     8   8   8   8   8   8   8   8
#     4  12  24  38  53  77 111 155 200 250 289 326
#     4  10  20  40  60  88 124 153 181 232 287 363
#     4  10  22  35  59  92 127 148 182 226 293 356
#     4  10  20  34  53  77 115 156 190 227 284 343
#     4  12  22  35  52  79 114 144 195 247 290 331
#     4  11  22  37  59  80 115 159 200 232 284 352
#     4  10  20  33  54  79 108 154 194 231 279 347
#     4  11  22  36  55  85 118 157 190 227 286 362
#
# _framework density 19.293955
#
# number of rings (size 3 to 8) (size 9 to 14) (size 15 to 20)
#    0.000    1.250    5.000    1.500    3.500    3.500 
#    0.000    0.000    0.000    0.000    0.000    3.500 
#    0.000    0.000    0.000    0.000    0.000    0.000 
#
# Total GULP energy -178312.608477 kJ/mol
# GULP energy per Si atom -5572.269015 kJ/mol
# Density = 1.925004 g / cm^3
# Si number density = 19.293955 Si / 1000 Ang^3
#
#
#
# Elastic Constant Matrix: (Units=GPa)
#
#
# Indices 1 2 3 4 5 6 
#
# 1 98.7383 8.6456 13.7351 0.0000 13.5098 0.0000
# 2 8.6456 25.6992 2.1647 0.0000 -1.6034 0.0000
# 3 13.7351 2.1647 89.5605 0.0000 -4.6162 0.0000
# 4 0.0000 0.0000 0.0000 19.3485 0.0000 -4.7785
# 5 13.5098 -1.6034 -4.6162 0.0000 28.3091 0.0000
# 6 0.0000 0.0000 0.0000 -4.7785 0.0000 14.6662
#
#
#
# Elastic Compliance Matrix: (Units=1/GPa)
#
#
# Indices 1 2 3 4 5 6 
#
# 1 0.011599 -0.004114 -0.001993 0.000000 -0.006093 0.000000
# 2 -0.004114 0.040571 -0.000131 0.000000 0.004240 0.000000
# 3 -0.001993 -0.000131 0.011621 0.000000 0.002839 0.000000
# 4 0.000000 0.000000 0.000000 0.056207 0.000000 0.018313
# 5 -0.006093 0.004240 0.002839 0.000000 0.038935 0.000000
# 6 0.000000 0.000000 0.000000 0.018313 0.000000 0.074151
#
#
# Mechanical properties :
#
#
# Convention : Reuss Voigt Hill
#
# Bulk Modulus (GPa) = 19.48804 29.23207 24.36005
# Shear Modulus (GPa) = 19.03555 25.09493 22.06524
#
# Velocity S-wave (km/s) = 3.14444 3.61038 3.38544
# Velocity P-wave (km/s) = 4.82761 5.70645 5.28533
#
# Compressibility (1/GPa) = 0.05131352
#
# Stress axis : x y z
#
# Youngs Moduli (GPa) = 86.21372 24.64787 86.05223
#
# Poissons Ratio (x) = 0.10141 0.17154
# Poissons Ratio (y) = 0.35472 0.01128
# Poissons Ratio (z) = 0.17186 0.00323
#
# Static dielectric constant tensor:
#      x y z
#    x 1.790460 0.000000 -0.037380 
#    y 0.000000 1.699410 0.000000 
#    z -0.037380 0.000000 1.780980 
# 
# From -- ./inp_files/43507.got.cif
#   From: 2010.05.17/outbox.cif.g08.bks.cpg/sg15_22_cif.got.tgz:43507.got - 2010.06.03 18:47:42.
