data_PCOD9268483
_publ_section_title
;
Structure prediction by ZEFSAII (Michael W. Deem and Ramdas Pophale) SiO2 
 PCOD9268483
Probable space group: C 2/C
;
_chemical_formula_sum "Si O2"
_cell_formula_units_Z 40
_cell_length_a 27.054817
_cell_length_b 8.626266
_cell_length_c 15.760596
_cell_angle_alpha 90.000000
_cell_angle_beta 155.848484
_cell_angle_gamma 90.000000
_cell_volume 1504.955815
_symmetry_space_group_name_H-M "C 2/C"
_symmetry_group_IT_number 15
_symmetry_cell_setting 'monoclinic'
loop_
_space_group_symop_operation_xyz
x,y,z
-x,y,1/2-z
-x,-y,-z
x,-y,1/2+z
1/2+x,1/2+y,z
1/2-x,1/2+y,1/2-z
1/2-x,1/2-y,-z
1/2+x,1/2-y,1/2+z
loop_
_atom_site_type_symbol
_atom_site_label
_atom_site_fract_x
_atom_site_fract_y
_atom_site_fract_z
Si Si1 0.827949 0.404019 0.166742
Si Si2 0.858742 0.358254 0.021047
Si Si3 0.799741 0.847426 0.274746
Si Si4 0.161446 0.160093 0.930221
Si Si5 0.015836 0.723260 0.073146
O O1 0.770590 0.509188 0.344037
O O2 0.701882 0.485026 0.988715
O O3 0.922694 0.552960 0.316518
O O4 0.884124 0.300752 0.328926
O O5 0.000000 0.408054 0.250000
O O6 0.848094 0.215056 0.939607
O O7 0.826419 0.339769 0.069539
O O8 0.911335 0.822068 0.383875
O O9 0.699919 0.730675 0.078770
O O10 0.032116 0.190888 0.687753
O O11 0.250000 0.250000 0.000000
#
# Coordination Sequence:
#
# PCOD9268483 Si02
#       5
#     8   8   8   8   8
#     4   9  15  26  51  83  97 133 190 222 255 326
#     4  12  21  34  54  82 114 145 180 222 280 324
#     4  10  20  32  51  84 112 146 180 226 269 331
#     4   8  14  28  49  75 106 134 187 225 261 310
#     4   9  14  28  52  80  99 138 192 222 259 318
#
# _framework density 26.578854
#
# number of rings (size 3 to 8) (size 9 to 14) (size 15 to 20)
#    0.000    2.800    8.000    0.000    0.000    0.000 
#    0.000    1.000    0.000    4.800    0.000   12.600 
#    0.000    0.000    0.000    0.000    0.000    0.000 
#
# Total GULP energy -111817.230983 kJ/mol
# GULP energy per Si atom -5590.861549 kJ/mol
# Density = 2.651836 g / cm^3
# Si number density = 26.578854 Si / 1000 Ang^3
#
#
#
# Elastic Constant Matrix: (Units=GPa)
#
#
# Indices 1 2 3 4 5 6 
#
# 1 60.0599 13.8261 12.0178 0.0000 -5.8947 0.0000
# 2 13.8261 104.5388 50.5386 0.0000 -14.0764 0.0000
# 3 12.0178 50.5386 164.6227 0.0000 -39.5580 0.0000
# 4 0.0000 0.0000 0.0000 48.7625 0.0000 -14.0662
# 5 -5.8947 -14.0764 -39.5580 0.0000 49.2719 0.0000
# 6 0.0000 0.0000 0.0000 -14.0662 0.0000 29.1488
#
#
#
# Elastic Compliance Matrix: (Units=1/GPa)
#
#
# Indices 1 2 3 4 5 6 
#
# 1 0.017291 -0.001943 -0.000374 0.000000 0.001213 0.000000
# 2 -0.001943 0.011463 -0.003279 0.000000 0.000410 0.000000
# 3 -0.000374 -0.003279 0.008515 0.000000 0.005855 0.000000
# 4 0.000000 0.000000 0.000000 0.023824 0.000000 0.011497
# 5 0.001213 0.000410 0.005855 0.000000 0.025259 0.000000
# 6 0.000000 0.000000 0.000000 0.011497 0.000000 0.039855
#
#
# Mechanical properties :
#
#
# Convention : Reuss Voigt Hill
#
# Bulk Modulus (GPa) = 38.34633 53.55405 45.95019
# Shear Modulus (GPa) = 34.22529 42.29257 38.25893
#
# Velocity S-wave (km/s) = 3.59233 3.99333 3.79812
# Velocity P-wave (km/s) = 5.62718 6.43856 6.04650
#
# Compressibility (1/GPa) = 0.02607812
#
# Stress axis : x y z
#
# Youngs Moduli (GPa) = 57.83287 87.23676 117.43513
#
# Poissons Ratio (x) = 0.16946 0.04397
# Poissons Ratio (y) = 0.11234 0.38504
# Poissons Ratio (z) = 0.02165 0.28603
#
# Static dielectric constant tensor:
#      x y z
#    x 2.090280 0.000000 0.061340 
#    y 0.000000 2.158280 0.000000 
#    z 0.061340 0.000000 2.142220 
# 
# From -- ./inp_files/177402.got.cif
#   From: 2010.05.17/outbox.cif.g08.bks.cpg/sg15_89_cif.got.tgz:177402.got - 2010.06.03 18:47:42.
