data_PCOD9268666
_publ_section_title
;
Structure prediction by ZEFSAII (Michael W. Deem and Ramdas Pophale) SiO2 
 PCOD9268666
Probable space group: C 2/C
;
_chemical_formula_sum "Si O2"
_cell_formula_units_Z 52
_cell_length_a 30.444924
_cell_length_b 11.941714
_cell_length_c 11.819279
_cell_angle_alpha 90.000000
_cell_angle_beta 33.581349
_cell_angle_gamma 90.000000
_cell_volume 2376.797653
_symmetry_space_group_name_H-M "C 2/C"
_symmetry_group_IT_number 15
_symmetry_cell_setting 'monoclinic'
loop_
_space_group_symop_operation_xyz
x,y,z
-x,y,1/2-z
-x,-y,-z
x,-y,1/2+z
1/2+x,1/2+y,z
1/2-x,1/2+y,1/2-z
1/2-x,1/2-y,-z
1/2+x,1/2-y,1/2+z
loop_
_atom_site_type_symbol
_atom_site_label
_atom_site_fract_x
_atom_site_fract_y
_atom_site_fract_z
Si Si1 0.500000 0.888646 0.750000
Si Si2 0.354405 0.818439 0.757227
Si Si3 0.470912 0.819501 0.069263
Si Si4 0.657394 0.354950 0.616880
Si Si5 0.308587 0.613659 0.983723
Si Si6 0.726859 0.677337 0.216737
Si Si7 0.637480 0.998930 0.579750
O O1 0.513327 0.824971 0.600625
O O2 0.578912 0.963166 0.604495
O O3 0.447218 0.835179 0.538346
O O4 0.286660 0.865241 0.821359
O O5 0.338658 0.887468 0.905694
O O6 0.341940 0.687872 0.809833
O O7 0.427299 0.706800 0.204130
O O8 0.414091 0.922451 0.224981
O O9 0.664647 0.486147 0.579506
O O10 0.686053 0.331573 0.683309
O O11 0.718111 0.287443 0.405478
O O12 0.332770 0.668836 0.051054
O O13 0.783867 0.569869 0.107701
#
# Coordination Sequence:
#
# PCOD9268666 Si02
#       7
#     4   8   8   8   8   8   8
#     4  10  20  32  66  88 122 158 204 248 318 360
#     4  10  22  40  57  94 121 158 205 258 302 366
#     4  10  23  40  61  91 126 160 206 260 307 362
#     4  10  23  43  59  93 123 161 205 258 299 372
#     4  11  24  38  65  87 127 166 200 254 311 370
#     4  10  23  37  65  86 125 158 207 248 307 367
#     4  10  21  37  59  94 118 156 199 266 296 363
#
# _framework density 21.878177999999998
#
# number of rings (size 3 to 8) (size 9 to 14) (size 15 to 20)
#    0.000    1.846    1.538    1.846   10.769    0.615 
#    0.000    0.000    0.000    0.000    0.000    0.000 
#    0.000    0.000    0.000    0.000    0.000    0.000 
#
# Total GULP energy -145140.901392 kJ/mol
# GULP energy per Si atom -5582.342361 kJ/mol
# Density = 2.182838 g / cm^3
# Si number density = 21.878178 Si / 1000 Ang^3
#
#
#
# Elastic Constant Matrix: (Units=GPa)
#
#
# Indices 1 2 3 4 5 6 
#
# 1 42.9331 -6.3667 -2.0124 0.0000 1.7629 0.0000
# 2 -6.3667 136.0226 14.2319 0.0000 5.4428 0.0000
# 3 -2.0124 14.2319 45.3097 0.0000 7.0886 0.0000
# 4 0.0000 0.0000 0.0000 16.2578 0.0000 -6.6656
# 5 1.7629 5.4428 7.0886 0.0000 17.8145 0.0000
# 6 0.0000 0.0000 0.0000 -6.6656 0.0000 18.9216
#
#
#
# Elastic Compliance Matrix: (Units=1/GPa)
#
#
# Indices 1 2 3 4 5 6 
#
# 1 0.023642 0.001108 0.001196 0.000000 -0.003154 0.000000
# 2 0.001108 0.007689 -0.002113 0.000000 -0.001618 0.000000
# 3 0.001196 -0.002113 0.024212 0.000000 -0.009107 0.000000
# 4 0.000000 0.000000 0.000000 0.071892 0.000000 0.025326
# 5 -0.003154 -0.001618 -0.009107 0.000000 0.060564 0.000000
# 6 0.000000 0.000000 0.000000 0.025326 0.000000 0.061771
#
#
# Mechanical properties :
#
#
# Convention : Reuss Voigt Hill
#
# Bulk Modulus (GPa) = 17.88150 26.21898 22.05024
# Shear Modulus (GPa) = 18.65450 25.15963 21.90706
#
# Velocity S-wave (km/s) = 2.92319 3.39483 3.16780
# Velocity P-wave (km/s) = 4.42542 5.23226 4.84566
#
# Compressibility (1/GPa) = 0.05592373
#
# Stress axis : x y z
#
# Youngs Moduli (GPa) = 42.29790 130.04937 41.30206
#
# Poissons Ratio (x) = -0.14406 -0.04938
# Poissons Ratio (y) = -0.04685 0.08727
# Poissons Ratio (z) = -0.05057 0.27478
#
# Static dielectric constant tensor:
#      x y z
#    x 1.862370 0.000000 0.026930 
#    y 0.000000 1.807690 0.000000 
#    z 0.026930 0.000000 1.837420 
# 
# From -- ./inp_files/126417.got.cif
#   From: 2010.05.17/outbox.cif.g08.bks.cpg/sg15_64_cif.got.tgz:126417.got - 2010.06.03 18:47:42.
