data_PCOD9268372
_publ_section_title
;
Structure prediction by ZEFSAII (Michael W. Deem and Ramdas Pophale) SiO2 
 PCOD9268372
Probable space group: C 2/C
;
_chemical_formula_sum "Si O2"
_cell_formula_units_Z 32
_cell_length_a 14.775672
_cell_length_b 10.036687
_cell_length_c 10.898425
_cell_angle_alpha 90.000000
_cell_angle_beta 64.277871
_cell_angle_gamma 90.000000
_cell_volume 1456.070864
_symmetry_space_group_name_H-M "C 2/C"
_symmetry_group_IT_number 15
_symmetry_cell_setting 'monoclinic'
loop_
_space_group_symop_operation_xyz
x,y,z
-x,y,1/2-z
-x,-y,-z
x,-y,1/2+z
1/2+x,1/2+y,z
1/2-x,1/2+y,1/2-z
1/2-x,1/2-y,-z
1/2+x,1/2-y,1/2+z
loop_
_atom_site_type_symbol
_atom_site_label
_atom_site_fract_x
_atom_site_fract_y
_atom_site_fract_z
Si Si1 0.657708 0.302261 0.386639
Si Si2 0.193559 0.566407 0.543084
Si Si3 0.580461 0.494158 0.101542
Si Si4 0.859093 0.719822 0.382902
O O1 0.768216 0.365600 0.352144
O O2 0.646379 0.179183 0.486526
O O3 0.585152 0.421105 0.474057
O O4 0.644628 0.251175 0.258647
O O5 0.303462 0.524882 0.420954
O O6 0.126001 0.436324 0.601351
O O7 0.500000 0.538862 0.250000
O O8 0.573937 0.334301 0.095293
O O9 0.750000 0.750000 0.500000
#
# Coordination Sequence:
#
# PCOD9268372 Si02
#       4
#     8   8   8   8
#     4   9  19  35  54  82 105 138 185 217 263 313
#     4   8  19  34  54  80 103 140 178 221 258 311
#     4   9  19  35  54  81 110 139 176 218 271 319
#     4  10  20  31  55  80 106 141 174 224 261 313
#
# _framework density 21.976953000000002
#
# number of rings (size 3 to 8) (size 9 to 14) (size 15 to 20)
#    1.500    1.500    0.000    0.000    7.000    1.000 
#    0.000    1.250    0.000    3.000    0.000    0.000 
#    0.000    0.000    0.000    0.000    0.000    0.000 
#
# Total GULP energy -89083.088714 kJ/mol
# GULP energy per Si atom -5567.693045 kJ/mol
# Density = 2.192693 g / cm^3
# Si number density = 21.976953 Si / 1000 Ang^3
#
#
#
# Elastic Constant Matrix: (Units=GPa)
#
#
# Indices 1 2 3 4 5 6 
#
# 1 48.9602 29.1634 33.8272 0.0000 5.8367 0.0000
# 2 29.1634 193.1618 51.1347 0.0000 24.3004 0.0000
# 3 33.8272 51.1347 89.6219 0.0000 -0.6779 0.0000
# 4 0.0000 0.0000 0.0000 20.2846 0.0000 -10.9541
# 5 5.8367 24.3004 -0.6779 0.0000 26.2960 0.0000
# 6 0.0000 0.0000 0.0000 -10.9541 0.0000 2.9611
#
#
#
# Elastic Compliance Matrix: (Units=1/GPa)
#
#
# Indices 1 2 3 4 5 6 
#
# 1 0.028853 -0.000849 -0.010451 0.000000 -0.005889 0.000000
# 2 -0.000849 0.007127 -0.003795 0.000000 -0.006496 0.000000
# 3 -0.010451 -0.003795 0.017315 0.000000 0.006273 0.000000
# 4 0.000000 0.000000 0.000000 -0.049413 0.000000 -0.182793
# 5 -0.005889 -0.006496 0.006273 0.000000 0.045500 0.000000
# 6 0.000000 0.000000 0.000000 -0.182793 0.000000 -0.338493
#
#
# Mechanical properties :
#
#
# Convention : Reuss Voigt Hill
#
# Bulk Modulus (GPa) = 43.27851 62.22160 52.75006
# Shear Modulus (GPa) = -19.90288 24.41625 2.25668
#
# Velocity S-wave (km/s) = -3.01263 3.33677 1.01443
# Velocity P-wave (km/s) = 2.76301 6.57412 5.04248
#
# Compressibility (1/GPa) = 0.02310615
#
# Stress axis : x y z
#
# Youngs Moduli (GPa) = 34.65855 140.31181 57.75226
#
# Poissons Ratio (x) = 0.11909 0.60355
# Poissons Ratio (y) = 0.02942 0.21918
# Poissons Ratio (z) = 0.36220 0.53251
#
# Static dielectric constant tensor:
#      x y z
#    x 1.867970 0.000000 0.022430 
#    y 0.000000 1.858060 0.000000 
#    z 0.022430 0.000000 1.778470 
# 
# From -- ./inp_files/45647.got.cif
#   From: 2010.05.17/outbox.cif.g08.bks.cpg/sg15_23_cif.got.tgz:45647.got - 2010.06.03 18:47:42.
