data_PCOD9268961
_publ_section_title
;
Structure prediction by ZEFSAII (Michael W. Deem and Ramdas Pophale) SiO2 
 PCOD9268961
Probable space group: C 2/C
;
_chemical_formula_sum "Si O2"
_cell_formula_units_Z 64
_cell_length_a 17.962027
_cell_length_b 19.890323
_cell_length_c 18.003233
_cell_angle_alpha 90.000000
_cell_angle_beta 29.113127
_cell_angle_gamma 90.000000
_cell_volume 3129.408571
_symmetry_space_group_name_H-M "C 2/C"
_symmetry_group_IT_number 15
_symmetry_cell_setting 'monoclinic'
loop_
_space_group_symop_operation_xyz
x,y,z
-x,y,1/2-z
-x,-y,-z
x,-y,1/2+z
1/2+x,1/2+y,z
1/2-x,1/2+y,1/2-z
1/2-x,1/2-y,-z
1/2+x,1/2-y,1/2+z
loop_
_atom_site_type_symbol
_atom_site_label
_atom_site_fract_x
_atom_site_fract_y
_atom_site_fract_z
Si Si1 0.830690 0.521732 0.378044
Si Si2 0.299057 0.486444 0.654241
Si Si3 0.024636 0.805081 0.900997
Si Si4 0.335779 0.571773 0.854034
Si Si5 0.634937 0.967968 0.932668
Si Si6 0.849282 0.114448 0.430334
Si Si7 0.927012 0.894118 0.117636
Si Si8 0.163115 0.673264 0.461654
O O1 0.830127 0.532600 0.290950
O O2 0.767877 0.583653 0.482164
O O3 0.726761 0.456188 0.482742
O O4 0.000000 0.503856 0.250000
O O5 0.267631 0.448984 0.757968
O O6 0.448419 0.455020 0.485627
O O7 0.305340 0.564453 0.672968
O O8 0.911982 0.849569 0.948246
O O9 0.194376 0.811168 0.718259
O O10 0.998343 0.833542 0.007697
O O11 0.961888 0.730203 0.942460
O O12 0.500000 0.557207 0.750000
O O13 0.228753 0.514669 0.908076
O O14 0.369716 0.618298 0.751799
O O15 0.587988 0.899055 0.010904
O O16 0.500000 0.000000 0.000000
O O17 0.738705 0.162164 0.477376
O O18 0.000000 0.101045 0.250000
#
# Coordination Sequence:
#
# PCOD9268961 Si02
#       8
#     8   8   8   8   8   8   8   8
#     4  12  22  33  56  92 130 160 197 259 324 371
#     4  10  20  33  57  87 117 154 204 250 309 363
#     4  11  23  41  60  88 123 171 213 253 301 377
#     4  11  22  37  62  91 125 164 208 256 318 385
#     4  11  23  39  60  93 129 160 203 270 323 363
#     4  10  22  38  59  83 123 169 215 248 295 374
#     4  10  20  35  61  84 114 162 208 255 297 369
#     4  11  24  39  62  86 124 169 211 252 307 371
#
# _framework density 20.451148
#
# number of rings (size 3 to 8) (size 9 to 14) (size 15 to 20)
#    0.000    1.250    5.000    1.500    1.750    3.000 
#    0.000    0.000    0.000    0.000    0.000    8.750 
#    0.000    0.000    0.000    0.000    0.000    0.000 
#
# Total GULP energy -178211.517832 kJ/mol
# GULP energy per Si atom -5569.109932 kJ/mol
# Density = 2.040460 g / cm^3
# Si number density = 20.451148 Si / 1000 Ang^3
#
#
#
# Elastic Constant Matrix: (Units=GPa)
#
#
# Indices 1 2 3 4 5 6 
#
# 1 94.3348 4.3268 14.7484 -0.0121 -0.2508 0.0111
# 2 4.3268 30.7610 6.6674 -0.0446 -10.5219 0.0458
# 3 14.7484 6.6674 33.3834 -0.0137 -1.2083 0.0183
# 4 -0.0121 -0.0446 -0.0137 20.0042 0.0084 -3.6346
# 5 -0.2508 -10.5219 -1.2083 0.0084 40.8231 -0.0070
# 6 0.0111 0.0458 0.0183 -3.6346 -0.0070 14.3762
#
#
#
# Elastic Compliance Matrix: (Units=1/GPa)
#
#
# Indices 1 2 3 4 5 6 
#
# 1 0.011398 -0.000617 -0.004921 0.000002 -0.000235 0.000000
# 2 -0.000617 0.037295 -0.006836 0.000058 0.009406 -0.000090
# 3 -0.004921 -0.006836 0.033465 0.000002 -0.000802 -0.000017
# 4 0.000002 0.000058 0.000002 0.052397 0.000006 0.013247
# 5 -0.000235 0.009406 -0.000802 0.000006 0.026895 -0.000014
# 6 0.000000 -0.000090 -0.000017 0.013247 -0.000014 0.072909
#
#
# Mechanical properties :
#
#
# Convention : Reuss Voigt Hill
#
# Bulk Modulus (GPa) = 17.41813 23.32937 20.37375
# Shear Modulus (GPa) = 17.97004 23.88980 20.92992
#
# Velocity S-wave (km/s) = 2.96747 3.42151 3.20255
# Velocity P-wave (km/s) = 4.50296 5.20011 4.86404
#
# Compressibility (1/GPa) = 0.05741146
#
# Stress axis : x y z
#
# Youngs Moduli (GPa) = 87.73852 26.81339 29.88188
#
# Poissons Ratio (x) = 0.01654 0.14704
# Poissons Ratio (y) = 0.05412 0.20426
# Poissons Ratio (z) = 0.43172 0.18328
#
# Static dielectric constant tensor:
#      x y z
#    x 1.801990 0.000000 -0.003440 
#    y 0.000000 1.714190 0.000010 
#    z -0.003440 0.000010 1.814380 
# 
# From -- ./inp_files/211971.got.cif
#   From: 2010.05.17/outbox.cif.g08.bks.cpg/sg15_106_cif.got.tgz:211971.got - 2010.06.03 18:47:42.
