data_PCOD9268956
_publ_section_title
;
Structure prediction by ZEFSAII (Michael W. Deem and Ramdas Pophale) SiO2 
 PCOD9268956
Probable space group: C 2/C
;
_chemical_formula_sum "Si O2"
_cell_formula_units_Z 44
_cell_length_a 21.691240
_cell_length_b 13.889171
_cell_length_c 12.315721
_cell_angle_alpha 90.000000
_cell_angle_beta 141.101218
_cell_angle_gamma 90.000000
_cell_volume 2329.931751
_symmetry_space_group_name_H-M "C 2/C"
_symmetry_group_IT_number 15
_symmetry_cell_setting 'monoclinic'
loop_
_space_group_symop_operation_xyz
x,y,z
-x,y,1/2-z
-x,-y,-z
x,-y,1/2+z
1/2+x,1/2+y,z
1/2-x,1/2+y,1/2-z
1/2-x,1/2-y,-z
1/2+x,1/2-y,1/2+z
loop_
_atom_site_type_symbol
_atom_site_label
_atom_site_fract_x
_atom_site_fract_y
_atom_site_fract_z
Si Si1 0.978289 0.780776 0.595023
Si Si2 0.686687 0.007268 0.129024
Si Si3 0.325472 0.627419 0.183579
Si Si4 0.553944 0.897933 0.595237
Si Si5 0.761002 0.829271 0.354633
Si Si6 0.500000 0.944618 0.750000
O O1 0.990273 0.688750 0.534366
O O2 0.866271 0.814766 0.441966
O O3 0.000000 0.753152 0.750000
O O4 0.057983 0.860484 0.670251
O O5 0.698396 0.901970 0.196360
O O6 0.781724 0.041437 0.194247
O O7 0.660928 0.080765 0.191476
O O8 0.592326 0.006909 0.919561
O O9 0.286785 0.726051 0.186369
O O10 0.280557 0.625336 0.000594
O O11 0.541897 0.883679 0.706598
O O12 0.500000 0.000000 0.500000
#
# Coordination Sequence:
#
# PCOD9268956 Si02
#       6
#     8   8   8   8   8   4
#     4  10  21  37  62  87 113 149 198 245 284 340
#     4  11  21  35  59  86 117 152 193 243 292 343
#     4  10  20  37  61  87 117 151 195 247 287 343
#     4  10  20  33  57  84 113 146 190 243 290 336
#     4  10  21  37  58  90 116 152 200 238 290 344
#     4  10  22  34  54  86 116 150 192 236 292 344
#
# _framework density 18.884672999999999
#
# number of rings (size 3 to 8) (size 9 to 14) (size 15 to 20)
#    0.000    1.818    1.818    3.273    5.091    0.727 
#    0.000    0.909    4.000    0.000    2.364    0.000 
#    0.000    0.000    0.000    0.000    0.000    0.000 
#
# Total GULP energy -122704.266863 kJ/mol
# GULP energy per Si atom -5577.466676 kJ/mol
# Density = 1.884169 g / cm^3
# Si number density = 18.884673 Si / 1000 Ang^3
#
#
#
# Elastic Constant Matrix: (Units=GPa)
#
#
# Indices 1 2 3 4 5 6 
#
# 1 136.1878 23.6296 34.2968 0.0000 -4.9743 0.0000
# 2 23.6296 45.8589 22.0644 0.0000 -11.3219 0.0000
# 3 34.2968 22.0644 56.6259 0.0000 3.5948 0.0000
# 4 0.0000 0.0000 0.0000 17.7666 0.0000 -2.0758
# 5 -4.9743 -11.3219 3.5948 0.0000 28.9640 0.0000
# 6 0.0000 0.0000 0.0000 -2.0758 0.0000 32.0680
#
#
#
# Elastic Compliance Matrix: (Units=1/GPa)
#
#
# Indices 1 2 3 4 5 6 
#
# 1 0.008925 -0.002003 -0.004710 0.000000 0.001334 0.000000
# 2 -0.002003 0.032067 -0.012151 0.000000 0.013699 0.000000
# 3 -0.004710 -0.012151 0.025803 0.000000 -0.008761 0.000000
# 4 0.000000 0.000000 0.000000 0.056714 0.000000 0.003671
# 5 0.001334 0.013699 -0.008761 0.000000 0.041197 0.000000
# 6 0.000000 0.000000 0.000000 0.003671 0.000000 0.031421
#
#
# Mechanical properties :
#
#
# Convention : Reuss Voigt Hill
#
# Bulk Modulus (GPa) = 34.40383 44.29489 39.34936
# Shear Modulus (GPa) = 20.53010 26.33851 23.43430
#
# Velocity S-wave (km/s) = 3.30074 3.73862 3.52649
# Velocity P-wave (km/s) = 5.72573 6.49175 6.12073
#
# Compressibility (1/GPa) = 0.02906653
#
# Stress axis : x y z
#
# Youngs Moduli (GPa) = 112.04172 31.18514 38.75481
#
# Poissons Ratio (x) = 0.06248 0.18253
# Poissons Ratio (y) = 0.22446 0.47091
# Poissons Ratio (z) = 0.52770 0.37893
#
# Static dielectric constant tensor:
#      x y z
#    x 1.722570 0.000000 0.016530 
#    y 0.000000 1.628510 0.000000 
#    z 0.016530 0.000000 1.672310 
# 
# From -- ./inp_files/96095.got.cif
#   From: 2010.05.17/outbox.cif.g08.bks.cpg/sg15_49_cif.got.tgz:96095.got - 2010.06.03 18:47:42.
