data_PCOD9268952
_publ_section_title
;
Structure prediction by ZEFSAII (Michael W. Deem and Ramdas Pophale) SiO2 
 PCOD9268952
Probable space group: C 2/C
;
_chemical_formula_sum "Si O2"
_cell_formula_units_Z 56
_cell_length_a 8.571407
_cell_length_b 31.303336
_cell_length_c 13.170706
_cell_angle_alpha 90.000000
_cell_angle_beta 127.333722
_cell_angle_gamma 90.000000
_cell_volume 2809.846927
_symmetry_space_group_name_H-M "C 2/C"
_symmetry_group_IT_number 15
_symmetry_cell_setting 'monoclinic'
loop_
_space_group_symop_operation_xyz
x,y,z
-x,y,1/2-z
-x,-y,-z
x,-y,1/2+z
1/2+x,1/2+y,z
1/2-x,1/2+y,1/2-z
1/2-x,1/2-y,-z
1/2+x,1/2-y,1/2+z
loop_
_atom_site_type_symbol
_atom_site_label
_atom_site_fract_x
_atom_site_fract_y
_atom_site_fract_z
Si Si1 0.013125 0.293099 0.377295
Si Si2 0.944518 0.545509 0.023043
Si Si3 0.506064 0.886736 0.374478
Si Si4 0.045797 0.886755 0.979027
Si Si5 0.848402 0.963736 0.785746
Si Si6 0.502301 0.553642 0.870956
Si Si7 0.472155 0.299737 0.617761
O O1 0.923673 0.339404 0.367884
O O2 0.239483 0.295290 0.502657
O O3 0.936270 0.246199 0.377790
O O4 0.000000 0.292275 0.250000
O O5 0.130933 0.551697 0.169561
O O6 0.729974 0.543903 0.987579
O O7 0.000000 0.500000 0.000000
O O8 0.931408 0.578335 0.923759
O O9 0.500000 0.895046 0.250000
O O10 0.739802 0.885645 0.485520
O O11 0.934516 0.926473 0.887504
O O12 0.955784 0.840775 0.917163
O O13 0.062720 0.902507 0.101415
O O14 0.000000 0.966066 0.750000
O O15 0.867508 0.011757 0.839537
O O16 0.500000 0.559402 0.750000
O O17 0.500000 0.306537 0.750000
#
# Coordination Sequence:
#
# PCOD9268952 Si02
#       7
#     8   8   8   8   8   8   8
#     4   8  16  31  50  85 115 141 179 234 282 337
#     4  12  22  38  55  80 110 152 187 236 285 330
#     4  10  20  33  57  82 113 145 186 231 282 334
#     4  11  21  35  55  82 108 147 186 231 285 336
#     4  11  21  37  57  78 111 144 192 237 281 334
#     4  11  23  39  55  78 115 148 190 238 280 339
#     4   9  17  30  56  83 114 144 181 229 289 337
#
# _framework density 19.929912000000002
#
# number of rings (size 3 to 8) (size 9 to 14) (size 15 to 20)
#    0.000    1.714    4.286    1.714    2.000    0.571 
#    0.000    0.000    0.000    0.857    0.000    0.000 
#    0.000    0.000    0.000    0.000    0.000    0.000 
#
# Total GULP energy -155929.139775 kJ/mol
# GULP energy per Si atom -5568.897849 kJ/mol
# Density = 1.988455 g / cm^3
# Si number density = 19.929912 Si / 1000 Ang^3
#
#
#
# Elastic Constant Matrix: (Units=GPa)
#
#
# Indices 1 2 3 4 5 6 
#
# 1 42.4150 34.0926 12.4153 0.0000 6.3711 0.0000
# 2 34.0926 202.3009 31.8097 0.0000 -29.2401 0.0000
# 3 12.4153 31.8097 98.7111 0.0000 1.5057 0.0000
# 4 0.0000 0.0000 0.0000 32.8965 0.0000 -10.4512
# 5 6.3711 -29.2401 1.5057 0.0000 27.3003 0.0000
# 6 0.0000 0.0000 0.0000 -10.4512 0.0000 20.0075
#
#
#
# Elastic Compliance Matrix: (Units=1/GPa)
#
#
# Indices 1 2 3 4 5 6 
#
# 1 0.032303 -0.007451 -0.001426 0.000000 -0.015441 0.000000
# 2 -0.007451 0.007982 -0.001794 0.000000 0.010387 0.000000
# 3 -0.001426 -0.001794 0.010921 0.000000 -0.002190 0.000000
# 4 0.000000 0.000000 0.000000 0.036447 0.000000 0.019038
# 5 -0.015441 0.010387 -0.002190 0.000000 0.051479 0.000000
# 6 0.000000 0.000000 0.000000 0.019038 0.000000 0.059926
#
#
# Mechanical properties :
#
#
# Convention : Reuss Voigt Hill
#
# Bulk Modulus (GPa) = 33.48490 55.56247 44.52369
# Shear Modulus (GPa) = 21.70564 33.71482 27.71023
#
# Velocity S-wave (km/s) = 3.30373 4.11745 3.73283
# Velocity P-wave (km/s) = 5.60274 7.10943 6.40057
#
# Compressibility (1/GPa) = 0.02986420
#
# Stress axis : x y z
#
# Youngs Moduli (GPa) = 30.95731 125.27854 91.56403
#
# Poissons Ratio (x) = 0.93348 0.13058
# Poissons Ratio (y) = 0.23067 0.16422
# Poissons Ratio (z) = 0.04415 0.22469
#
# Static dielectric constant tensor:
#      x y z
#    x 1.623480 0.000000 -0.094570 
#    y 0.000000 1.780110 0.000000 
#    z -0.094570 0.000000 1.666230 
# 
# From -- ./inp_files/139586.got.cif
#   From: 2010.05.17/outbox.cif.g08.bks.cpg/sg15_70_cif.got.tgz:139586.got - 2010.06.03 18:47:42.
