data_PCOD9268771
_publ_section_title
;
Structure prediction by ZEFSAII (Michael W. Deem and Ramdas Pophale) SiO2 
 PCOD9268771
Probable space group: C 2/C
;
_chemical_formula_sum "Si O2"
_cell_formula_units_Z 60
_cell_length_a 30.664578
_cell_length_b 18.489474
_cell_length_c 5.217298
_cell_angle_alpha 90.000000
_cell_angle_beta 92.572631
_cell_angle_gamma 90.000000
_cell_volume 2955.080095
_symmetry_space_group_name_H-M "C 2/C"
_symmetry_group_IT_number 15
_symmetry_cell_setting 'monoclinic'
loop_
_space_group_symop_operation_xyz
x,y,z
-x,y,1/2-z
-x,-y,-z
x,-y,1/2+z
1/2+x,1/2+y,z
1/2-x,1/2+y,1/2-z
1/2-x,1/2-y,-z
1/2+x,1/2-y,1/2+z
loop_
_atom_site_type_symbol
_atom_site_label
_atom_site_fract_x
_atom_site_fract_y
_atom_site_fract_z
Si Si1 0.324033 0.330439 0.076457
Si Si2 0.801441 0.253083 0.068097
Si Si3 0.254924 0.545157 0.583930
Si Si4 0.085534 0.796376 0.562050
Si Si5 0.956673 0.315997 0.846050
Si Si6 0.845311 0.547817 0.996335
Si Si7 0.879434 0.337714 0.148688
Si Si8 0.000000 0.203085 0.250000
O O1 0.320049 0.302529 0.363961
O O2 0.291459 0.396488 0.032943
O O3 0.374991 0.343677 0.032319
O O4 0.308572 0.270254 0.865175
O O5 0.830179 0.326105 0.028446
O O6 0.750000 0.250000 0.000000
O O7 0.259487 0.481368 0.376876
O O8 0.205324 0.572024 0.534228
O O9 0.068861 0.735165 0.359987
O O10 0.106411 0.744741 0.784617
O O11 0.041955 0.836577 0.644625
O O12 0.000000 0.356201 0.750000
O O13 0.919562 0.362045 0.980916
O O14 0.979562 0.257621 0.038195
O O15 0.851798 0.485634 0.779249
O O16 0.874708 0.613059 0.898862
#
# Coordination Sequence:
#
# PCOD9268771 Si02
#       8
#     8   8   8   8   8   8   8   4
#     4  11  21  35  54  81 112 141 183 225 263 328
#     4  11  22  33  51  82 114 144 171 220 286 330
#     4  10  21  39  55  74 104 150 193 227 258 302
#     4   9  18  31  52  83 109 138 170 218 280 330
#     4   9  16  31  52  77 107 136 169 210 276 338
#     4  10  23  37  54  73 100 144 194 227 257 308
#     4  10  20  33  52  77 109 139 179 223 275 322
#     4   8  16  30  50  78 112 138 166 206 268 348
#
# _framework density 20.304017999999999
#
# number of rings (size 3 to 8) (size 9 to 14) (size 15 to 20)
#    0.000    2.133    1.333    2.000    1.867    3.200 
#    0.000    0.000    0.000    0.800    0.000    0.933 
#    0.000    0.000    0.000    0.000    0.000    0.000 
#
# Total GULP energy -167130.313261 kJ/mol
# GULP energy per Si atom -5571.010442 kJ/mol
# Density = 2.025781 g / cm^3
# Si number density = 20.304018 Si / 1000 Ang^3
#
#
#
# Elastic Constant Matrix: (Units=GPa)
#
#
# Indices 1 2 3 4 5 6 
#
# 1 133.5587 21.2883 42.5997 0.0000 -37.2243 0.0000
# 2 21.2883 18.9257 3.4522 0.0000 -10.3841 0.0000
# 3 42.5997 3.4522 51.1362 0.0000 -9.1251 0.0000
# 4 0.0000 0.0000 0.0000 24.2001 0.0000 -5.8640
# 5 -37.2243 -10.3841 -9.1251 0.0000 50.7424 0.0000
# 6 0.0000 0.0000 0.0000 -5.8640 0.0000 20.8969
#
#
#
# Elastic Compliance Matrix: (Units=1/GPa)
#
#
# Indices 1 2 3 4 5 6 
#
# 1 0.014115 -0.010552 -0.009902 0.000000 0.006415 0.000000
# 2 -0.010552 0.067589 0.005490 0.000000 0.007079 0.000000
# 3 -0.009902 0.005490 0.027211 0.000000 -0.001247 0.000000
# 4 0.000000 0.000000 0.000000 0.044337 0.000000 0.012442
# 5 0.006415 0.007079 -0.001247 0.000000 0.025638 0.000000
# 6 0.000000 0.000000 0.000000 0.012442 0.000000 0.051345
#
#
# Mechanical properties :
#
#
# Convention : Reuss Voigt Hill
#
# Bulk Modulus (GPa) = 12.65988 37.58900 25.12444
# Shear Modulus (GPa) = 17.45246 28.25324 22.85285
#
# Velocity S-wave (km/s) = 2.93500 3.73434 3.35854
# Velocity P-wave (km/s) = 4.21122 6.09484 5.23838
#
# Compressibility (1/GPa) = 0.07898971
#
# Stress axis : x y z
#
# Youngs Moduli (GPa) = 70.84449 14.79521 36.74934
#
# Poissons Ratio (x) = 0.15611 0.36389
# Poissons Ratio (y) = 0.74752 -0.20176
# Poissons Ratio (z) = 0.70150 -0.08123
#
# Static dielectric constant tensor:
#      x y z
#    x 1.861630 0.000000 -0.014820 
#    y 0.000000 1.710140 0.000000 
#    z -0.014820 0.000000 1.826310 
# 
# From -- ./inp_files/17413.got.cif
#   From: 2010.05.17/outbox.cif.g08.bks.cpg/sg15_9_cif.got.tgz:17413.got - 2010.06.03 18:47:42.
