data_PCOD9268911
_publ_section_title
;
Structure prediction by ZEFSAII (Michael W. Deem and Ramdas Pophale) SiO2 
 PCOD9268911
Probable space group: C 2/C
;
_chemical_formula_sum "Si O2"
_cell_formula_units_Z 64
_cell_length_a 14.692066
_cell_length_b 24.391303
_cell_length_c 9.058831
_cell_angle_alpha 90.000000
_cell_angle_beta 84.168823
_cell_angle_gamma 90.000000
_cell_volume 3229.512501
_symmetry_space_group_name_H-M "C 2/C"
_symmetry_group_IT_number 15
_symmetry_cell_setting 'monoclinic'
loop_
_space_group_symop_operation_xyz
x,y,z
-x,y,1/2-z
-x,-y,-z
x,-y,1/2+z
1/2+x,1/2+y,z
1/2-x,1/2+y,1/2-z
1/2-x,1/2-y,-z
1/2+x,1/2-y,1/2+z
loop_
_atom_site_type_symbol
_atom_site_label
_atom_site_fract_x
_atom_site_fract_y
_atom_site_fract_z
Si Si1 0.958478 0.364959 0.098199
Si Si2 0.786835 0.112841 0.235807
Si Si3 0.116705 0.040625 0.488086
Si Si4 0.327115 0.395403 0.252440
Si Si5 0.884658 0.574086 0.076908
Si Si6 0.773177 0.312785 0.025984
Si Si7 0.145592 0.466289 0.243668
Si Si8 0.918769 0.079475 0.441385
O O1 0.879508 0.326415 0.043830
O O2 0.911997 0.422430 0.151841
O O3 0.000000 0.344281 0.250000
O O4 0.034477 0.382490 0.965450
O O5 0.802003 0.058743 0.132623
O O6 0.706955 0.106970 0.367309
O O7 0.880345 0.115873 0.314364
O O8 0.760688 0.156812 0.117363
O O9 0.111291 0.079717 0.629208
O O10 0.021615 0.055330 0.422016
O O11 0.132389 0.979372 0.540584
O O12 0.280732 0.340837 0.326990
O O13 0.247788 0.441727 0.248438
O O14 0.387113 0.390496 0.096129
O O15 0.885360 0.526305 0.199095
O O16 0.875449 0.542459 0.924088
O O17 0.750000 0.250000 0.000000
#
# Coordination Sequence:
#
# PCOD9268911 Si02
#       8
#     8   8   8   8   8   8   8   8
#     4   9  21  41  64  91 125 165 208 251 305 375
#     4  11  23  36  60  88 123 162 213 257 311 377
#     4  10  21  33  55  88 133 173 199 244 304 373
#     4  10  20  35  59  84 122 166 211 250 305 377
#     4  11  21  34  59  93 134 171 199 238 297 389
#     4  10  24  47  67  83 115 162 211 276 330 360
#     4  10  20  33  55  91 135 175 197 231 298 377
#     4  11  19  35  57  91 129 162 208 251 304 373
#
# _framework density 19.817233000000002
#
# number of rings (size 3 to 8) (size 9 to 14) (size 15 to 20)
#    0.000    1.750    1.250    3.375    5.250    2.500 
#    0.000    3.125   11.000    0.000    0.000    0.000 
#    0.000    0.000    0.000    0.000    0.000    0.000 
#
# Total GULP energy -178364.618264 kJ/mol
# GULP energy per Si atom -5573.894321 kJ/mol
# Density = 1.977213 g / cm^3
# Si number density = 19.817233 Si / 1000 Ang^3
#
#
#
# Elastic Constant Matrix: (Units=GPa)
#
#
# Indices 1 2 3 4 5 6 
#
# 1 79.6009 42.3531 26.3643 0.0000 3.0390 0.0000
# 2 42.3531 96.0251 33.0738 0.0000 4.9813 0.0000
# 3 26.3643 33.0738 82.1305 0.0000 -2.4143 0.0000
# 4 0.0000 0.0000 0.0000 15.1704 0.0000 6.2127
# 5 3.0390 4.9813 -2.4143 0.0000 40.9695 0.0000
# 6 0.0000 0.0000 0.0000 6.2127 0.0000 17.6017
#
#
#
# Elastic Compliance Matrix: (Units=1/GPa)
#
#
# Indices 1 2 3 4 5 6 
#
# 1 0.016977 -0.006468 -0.002864 0.000000 -0.000642 0.000000
# 2 -0.006468 0.014683 -0.003882 0.000000 -0.001534 0.000000
# 3 -0.002864 -0.003882 0.014704 0.000000 0.001551 0.000000
# 4 0.000000 0.000000 0.000000 0.077056 0.000000 -0.027197
# 5 -0.000642 -0.001534 0.001551 0.000000 0.024734 0.000000
# 6 0.000000 0.000000 0.000000 -0.027197 0.000000 0.066412
#
#
# Mechanical properties :
#
#
# Convention : Reuss Voigt Hill
#
# Bulk Modulus (GPa) = 50.15884 51.25988 50.70936
# Shear Modulus (GPa) = 20.19059 25.14601 22.66830
#
# Velocity S-wave (km/s) = 3.19539 3.56602 3.38578
# Velocity P-wave (km/s) = 6.24337 6.54812 6.39756
#
# Compressibility (1/GPa) = 0.01993667
#
# Stress axis : x y z
#
# Youngs Moduli (GPa) = 58.90218 68.10385 68.00962
#
# Poissons Ratio (x) = 0.44052 0.19477
# Poissons Ratio (y) = 0.38100 0.26399
# Poissons Ratio (z) = 0.16869 0.26436
#
# Static dielectric constant tensor:
#      x y z
#    x 1.825360 0.000000 0.020070 
#    y 0.000000 1.664500 0.000000 
#    z 0.020070 0.000000 1.735840 
# 
# From -- ./inp_files/42679.got.cif
#   From: 2010.05.17/outbox.cif.g08.bks.cpg/sg15_22_cif.got.tgz:42679.got - 2010.06.03 18:47:42.
