data_PCOD9268435
_publ_section_title
;
Structure prediction by ZEFSAII (Michael W. Deem and Ramdas Pophale) SiO2 
 PCOD9268435
Probable space group: C 2/C
;
_chemical_formula_sum "Si O2"
_cell_formula_units_Z 52
_cell_length_a 20.015019
_cell_length_b 19.171129
_cell_length_c 8.651384
_cell_angle_alpha 90.000000
_cell_angle_beta 132.788952
_cell_angle_gamma 90.000000
_cell_volume 2436.144320
_symmetry_space_group_name_H-M "C 2/C"
_symmetry_group_IT_number 15
_symmetry_cell_setting 'monoclinic'
loop_
_space_group_symop_operation_xyz
x,y,z
-x,y,1/2-z
-x,-y,-z
x,-y,1/2+z
1/2+x,1/2+y,z
1/2-x,1/2+y,1/2-z
1/2-x,1/2-y,-z
1/2+x,1/2-y,1/2+z
loop_
_atom_site_type_symbol
_atom_site_label
_atom_site_fract_x
_atom_site_fract_y
_atom_site_fract_z
Si Si1 0.227337 0.191085 0.343183
Si Si2 0.895341 0.803457 0.132027
Si Si3 0.731363 0.579089 0.571277
Si Si4 0.500000 0.991792 0.750000
Si Si5 0.878540 0.328897 0.824820
Si Si6 0.269348 0.422870 0.064856
Si Si7 0.431199 0.098762 0.860559
O O1 0.250000 0.250000 0.500000
O O2 0.181237 0.126632 0.364418
O O3 0.317407 0.172401 0.383225
O O4 0.158205 0.219124 0.105465
O O5 0.879910 0.744994 0.239263
O O6 0.847161 0.874909 0.109617
O O7 0.000000 0.810595 0.250000
O O8 0.733707 0.500228 0.511598
O O9 0.710014 0.576310 0.719496
O O10 0.828343 0.619779 0.719487
O O11 0.455151 0.945844 0.549520
O O12 0.429418 0.043917 0.717586
O O13 0.826175 0.384488 0.631298
O O14 0.982878 0.350530 0.021583
#
# Coordination Sequence:
#
# PCOD9268435 Si02
#       7
#     8   8   8   4   8   8   8
#     4  11  24  44  67  98 135 181 228 284 344 409
#     4  11  26  47  68  94 130 184 240 288 339 399
#     4  12  23  40  69 100 138 176 224 278 351 409
#     4  10  20  32  48  86 140 174 202 246 324 398
#     4  11  23  39  65  96 139 178 227 275 347 410
#     4  11  23  43  67  98 136 182 225 282 345 415
#     4  11  21  34  57  96 134 173 212 262 328 420
#
# _framework density 21.345203999999999
#
# number of rings (size 3 to 8) (size 9 to 14) (size 15 to 20)
#    0.000    0.923    0.000   10.154    5.385    0.000 
#    0.000    5.385    0.000    0.000    0.000    0.000 
#    0.000    0.000    0.000    0.000    0.000    0.000 
#
# Total GULP energy -145290.406802 kJ/mol
# GULP energy per Si atom -5588.092569 kJ/mol
# Density = 2.129662 g / cm^3
# Si number density = 21.345204 Si / 1000 Ang^3
#
#
#
# Elastic Constant Matrix: (Units=GPa)
#
#
# Indices 1 2 3 4 5 6 
#
# 1 94.8039 40.6425 51.8697 0.0000 -22.6615 0.0000
# 2 40.6425 134.3063 36.1672 0.0000 -11.6055 0.0000
# 3 51.8697 36.1672 68.2798 0.0000 -18.9696 0.0000
# 4 0.0000 0.0000 0.0000 43.4254 0.0000 -9.8561
# 5 -22.6615 -11.6055 -18.9696 0.0000 40.8560 0.0000
# 6 0.0000 0.0000 0.0000 -9.8561 0.0000 25.9675
#
#
#
# Elastic Compliance Matrix: (Units=1/GPa)
#
#
# Indices 1 2 3 4 5 6 
#
# 1 0.019208 -0.002137 -0.012248 0.000000 0.004360 0.000000
# 2 -0.002137 0.008927 -0.003134 0.000000 -0.000105 0.000000
# 3 -0.012248 -0.003134 0.026952 0.000000 0.004830 0.000000
# 4 0.000000 0.000000 0.000000 0.025199 0.000000 0.009564
# 5 0.004360 -0.000105 0.004830 0.000000 0.029107 0.000000
# 6 0.000000 0.000000 0.000000 0.009564 0.000000 0.042140
#
#
# Mechanical properties :
#
#
# Convention : Reuss Voigt Hill
#
# Bulk Modulus (GPa) = 49.88027 61.63876 55.75952
# Shear Modulus (GPa) = 25.87255 33.29717 29.58486
#
# Velocity S-wave (km/s) = 3.48530 3.95389 3.72697
# Velocity P-wave (km/s) = 6.29409 7.05578 6.68579
#
# Compressibility (1/GPa) = 0.02004801
#
# Stress axis : x y z
#
# Youngs Moduli (GPa) = 52.06221 112.01448 37.10307
#
# Poissons Ratio (x) = 0.23943 0.45444
# Poissons Ratio (y) = 0.11128 0.11629
# Poissons Ratio (z) = 0.63766 0.35107
#
# Static dielectric constant tensor:
#      x y z
#    x 1.808980 0.000000 0.020480 
#    y 0.000000 1.775120 0.000000 
#    z 0.020480 0.000000 1.882620 
# 
# From -- ./inp_files/57083.got.cif
#   From: 2010.05.17/outbox.cif.g08.bks.cpg/sg15_29_cif.got.tgz:57083.got - 2010.06.03 18:47:42.
