data_PCOD9268187
_publ_section_title
;
Structure prediction by ZEFSAII (Michael W. Deem and Ramdas Pophale) SiO2 
 PCOD9268187
Probable space group: C 2/C
;
_chemical_formula_sum "Si O2"
_cell_formula_units_Z 44
_cell_length_a 8.186116
_cell_length_b 27.258670
_cell_length_c 10.175863
_cell_angle_alpha 90.000000
_cell_angle_beta 75.543454
_cell_angle_gamma 90.000000
_cell_volume 2198.773267
_symmetry_space_group_name_H-M "C 2/C"
_symmetry_group_IT_number 15
_symmetry_cell_setting 'monoclinic'
loop_
_space_group_symop_operation_xyz
x,y,z
-x,y,1/2-z
-x,-y,-z
x,-y,1/2+z
1/2+x,1/2+y,z
1/2-x,1/2+y,1/2-z
1/2-x,1/2-y,-z
1/2+x,1/2-y,1/2+z
loop_
_atom_site_type_symbol
_atom_site_label
_atom_site_fract_x
_atom_site_fract_y
_atom_site_fract_z
Si Si1 0.080652 0.430981 0.375240
Si Si2 0.500000 0.715756 0.750000
Si Si3 0.691432 0.636225 0.245281
Si Si4 0.720802 0.166871 0.975810
Si Si5 0.643259 0.963024 0.835043
Si Si6 0.126615 0.282402 0.935470
O O1 0.170661 0.383531 0.414318
O O2 0.194396 0.480062 0.335835
O O3 0.000000 0.419932 0.250000
O O4 0.939748 0.447046 0.510043
O O5 0.392621 0.685428 0.875853
O O6 0.623672 0.751196 0.803235
O O7 0.500000 0.648482 0.250000
O O8 0.750560 0.655093 0.376270
O O9 0.722304 0.578073 0.229887
O O10 0.801138 0.664235 0.113718
O O11 0.567901 0.206152 0.986274
O O12 0.500000 0.961068 0.750000
O O13 0.250000 0.250000 0.000000
#
# Coordination Sequence:
#
# PCOD9268187 Si02
#       6
#     8   4   8   8   8   8
#     4  10  22  37  72 100 133 176 227 282 338 407
#     4  12  28  42  66  98 136 174 226 282 338 396
#     4  12  24  43  71  99 132 184 228 275 346 414
#     4  12  25  48  67 100 138 178 228 284 337 415
#     4  10  19  43  69  98 132 182 228 274 341 410
#     4  12  26  44  69  95 132 179 227 283 341 402
#
# _framework density 20.011158999999999
#
# number of rings (size 3 to 8) (size 9 to 14) (size 15 to 20)
#    0.000    0.727    5.455    1.636    5.091    1.455 
#    1.636    0.909    0.000    0.000    0.000    0.000 
#    0.000    0.000    0.000    0.000    0.000    0.000 
#
# Total GULP energy -122841.398774 kJ/mol
# GULP energy per Si atom -5583.699944 kJ/mol
# Density = 1.996561 g / cm^3
# Si number density = 20.011159 Si / 1000 Ang^3
#
#
#
# Elastic Constant Matrix: (Units=GPa)
#
#
# Indices 1 2 3 4 5 6 
#
# 1 70.3232 27.0099 29.7234 0.0000 13.7687 0.0000
# 2 27.0099 116.1117 28.8564 0.0000 10.7911 0.0000
# 3 29.7234 28.8564 88.3525 0.0000 17.9406 0.0000
# 4 0.0000 0.0000 0.0000 32.4870 0.0000 -1.2212
# 5 13.7687 10.7911 17.9406 0.0000 44.7411 0.0000
# 6 0.0000 0.0000 0.0000 -1.2212 0.0000 13.5656
#
#
#
# Elastic Compliance Matrix: (Units=1/GPa)
#
#
# Indices 1 2 3 4 5 6 
#
# 1 0.017749 -0.002739 -0.004465 0.000000 -0.003011 0.000000
# 2 -0.002739 0.009848 -0.002160 0.000000 -0.000666 0.000000
# 3 -0.004465 -0.002160 0.014306 0.000000 -0.003841 0.000000
# 4 0.000000 0.000000 0.000000 0.030886 0.000000 0.002780
# 5 -0.003011 -0.000666 -0.003841 0.000000 0.024978 0.000000
# 6 0.000000 0.000000 0.000000 0.002780 0.000000 0.073966
#
#
# Mechanical properties :
#
#
# Convention : Reuss Voigt Hill
#
# Bulk Modulus (GPa) = 43.14968 49.55185 46.35077
# Shear Modulus (GPa) = 25.22873 30.77191 28.00032
#
# Velocity S-wave (km/s) = 3.55453 3.92565 3.74469
# Velocity P-wave (km/s) = 6.20128 6.73525 6.47377
#
# Compressibility (1/GPa) = 0.02317514
#
# Stress axis : x y z
#
# Youngs Moduli (GPa) = 56.34151 101.54086 69.90173
#
# Poissons Ratio (x) = 0.27815 0.31211
# Poissons Ratio (y) = 0.15433 0.15096
# Poissons Ratio (z) = 0.25156 0.21929
#
# Static dielectric constant tensor:
#      x y z
#    x 1.682380 0.000000 -0.046200 
#    y 0.000000 1.726220 0.000000 
#    z -0.046200 0.000000 1.663200 
# 
# From -- ./inp_files/25461.got.cif
#   From: 2010.05.17/outbox.cif.g08.bks.cpg/sg15_13_cif.got.tgz:25461.got - 2010.06.03 18:47:42.
