data_PCOD9268770
_publ_section_title
;
Structure prediction by ZEFSAII (Michael W. Deem and Ramdas Pophale) SiO2 
 PCOD9268770
Probable space group: C 2/C
;
_chemical_formula_sum "Si O2"
_cell_formula_units_Z 48
_cell_length_a 13.411393
_cell_length_b 11.743362
_cell_length_c 14.587113
_cell_angle_alpha 90.000000
_cell_angle_beta 118.939322
_cell_angle_gamma 90.000000
_cell_volume 2010.525425
_symmetry_space_group_name_H-M "C 2/C"
_symmetry_group_IT_number 15
_symmetry_cell_setting 'monoclinic'
loop_
_space_group_symop_operation_xyz
x,y,z
-x,y,1/2-z
-x,-y,-z
x,-y,1/2+z
1/2+x,1/2+y,z
1/2-x,1/2+y,1/2-z
1/2-x,1/2-y,-z
1/2+x,1/2-y,1/2+z
loop_
_atom_site_type_symbol
_atom_site_label
_atom_site_fract_x
_atom_site_fract_y
_atom_site_fract_z
Si Si1 0.200533 0.664862 0.347053
Si Si2 0.198465 0.798596 0.804280
Si Si3 0.946991 0.293809 0.006063
Si Si4 0.645422 0.926629 0.379218
Si Si5 0.600764 0.568913 0.414074
Si Si6 0.091201 0.180780 0.923714
O O1 0.270689 0.683127 0.286468
O O2 0.134008 0.546097 0.323094
O O3 0.121068 0.771148 0.337201
O O4 0.291860 0.661244 0.469332
O O5 0.320589 0.794810 0.908821
O O6 0.142088 0.678812 0.807177
O O7 0.128551 0.899379 0.821464
O O8 0.027523 0.277909 0.954304
O O9 0.942135 0.396999 0.076909
O O10 0.963444 0.176516 0.070424
O O11 0.774121 0.927929 0.480193
O O12 0.541219 0.446913 0.399712
#
# Coordination Sequence:
#
# PCOD9268770 Si02
#       6
#     8   8   8   8   8   8
#     4  10  21  33  50  76 107 140 170 211 257 313
#     4   9  18  33  57  75 101 137 177 211 252 310
#     4   9  17  34  58  75 101 135 175 215 253 307
#     4   8  17  34  52  75 101 138 173 203 264 313
#     4   8  16  33  55  78  99 135 168 212 262 312
#     4  10  20  33  52  77 108 134 171 210 265 305
#
# _framework density 23.874355999999999
#
# number of rings (size 3 to 8) (size 9 to 14) (size 15 to 20)
#    0.000    3.000    0.000    2.500    2.333    1.333 
#    0.000    3.333    7.333    0.000    0.000    0.000 
#    0.000    0.000    0.000    0.000    0.000    0.000 
#
# Total GULP energy -133975.781361 kJ/mol
# GULP energy per Si atom -5582.324223 kJ/mol
# Density = 2.382002 g / cm^3
# Si number density = 23.874356 Si / 1000 Ang^3
#
#
#
# Elastic Constant Matrix: (Units=GPa)
#
#
# Indices 1 2 3 4 5 6 
#
# 1 73.3504 18.1498 18.1539 0.0000 -10.9493 0.0000
# 2 18.1498 101.6097 36.5840 0.0000 -20.9636 0.0000
# 3 18.1539 36.5840 69.9371 0.0000 -25.9016 0.0000
# 4 0.0000 0.0000 0.0000 8.0305 0.0000 1.7256
# 5 -10.9493 -20.9636 -25.9016 0.0000 52.6891 0.0000
# 6 0.0000 0.0000 0.0000 1.7256 0.0000 5.4405
#
#
#
# Elastic Compliance Matrix: (Units=1/GPa)
#
#
# Indices 1 2 3 4 5 6 
#
# 1 0.014826 -0.001447 -0.002645 0.000000 0.001205 0.000000
# 2 -0.001447 0.012457 -0.005399 0.000000 0.002001 0.000000
# 3 -0.002645 -0.005399 0.020552 0.000000 0.007405 0.000000
# 4 0.000000 0.000000 0.000000 0.133633 0.000000 -0.042385
# 5 0.001205 0.002001 0.007405 0.000000 0.023666 0.000000
# 6 0.000000 0.000000 0.000000 -0.042385 0.000000 0.197251
#
#
# Mechanical properties :
#
#
# Convention : Reuss Voigt Hill
#
# Bulk Modulus (GPa) = 34.66037 43.40807 39.03422
# Shear Modulus (GPa) = 11.60132 24.69931 18.15031
#
# Velocity S-wave (km/s) = 2.20678 3.21994 2.76024
# Velocity P-wave (km/s) = 4.58721 5.66086 5.15208
#
# Compressibility (1/GPa) = 0.02885139
#
# Stress axis : x y z
#
# Youngs Moduli (GPa) = 67.44994 80.27609 48.65655
#
# Poissons Ratio (x) = 0.11618 0.12870
# Poissons Ratio (y) = 0.09762 0.26272
# Poissons Ratio (z) = 0.17841 0.43344
#
# Static dielectric constant tensor:
#      x y z
#    x 1.931470 0.000000 0.031130 
#    y 0.000000 1.915400 0.000000 
#    z 0.031130 0.000000 1.948460 
# 
# From -- ./inp_files/151861.got.cif
#   From: 2010.05.17/outbox.cif.g08.bks.cpg/sg15_76_cif.got.tgz:151861.got - 2010.06.03 18:47:42.
