data_PCOD9268742
_publ_section_title
;
Structure prediction by ZEFSAII (Michael W. Deem and Ramdas Pophale) SiO2 
 PCOD9268742
Probable space group: C 2/C
;
_chemical_formula_sum "Si O2"
_cell_formula_units_Z 48
_cell_length_a 5.264701
_cell_length_b 20.890981
_cell_length_c 22.292677
_cell_angle_alpha 90.000000
_cell_angle_beta 61.154053
_cell_angle_gamma 90.000000
_cell_volume 2147.628927
_symmetry_space_group_name_H-M "C 2/C"
_symmetry_group_IT_number 15
_symmetry_cell_setting 'monoclinic'
loop_
_space_group_symop_operation_xyz
x,y,z
-x,y,1/2-z
-x,-y,-z
x,-y,1/2+z
1/2+x,1/2+y,z
1/2-x,1/2+y,1/2-z
1/2-x,1/2-y,-z
1/2+x,1/2-y,1/2+z
loop_
_atom_site_type_symbol
_atom_site_label
_atom_site_fract_x
_atom_site_fract_y
_atom_site_fract_z
Si Si1 0.659943 0.312189 0.943421
Si Si2 0.999559 0.929570 0.470836
Si Si3 0.420483 0.961798 0.069690
Si Si4 0.169114 0.517424 0.791458
Si Si5 0.271570 0.759927 0.587466
Si Si6 0.837657 0.327458 0.207525
O O1 0.439497 0.315796 0.912926
O O2 0.977685 0.282957 0.895437
O O3 0.699353 0.379434 0.972460
O O4 0.475059 0.268914 0.011524
O O5 0.329576 0.909854 0.447386
O O6 0.893593 0.933569 0.413793
O O7 0.000000 0.000000 0.500000
O O8 0.429190 0.001884 0.130176
O O9 0.500000 0.000000 0.000000
O O10 0.500000 0.496684 0.750000
O O11 0.160365 0.595144 0.797328
O O12 0.000000 0.499033 0.750000
O O13 0.037956 0.708163 0.636340
O O14 0.500000 0.308322 0.250000
O O15 0.000000 0.310912 0.250000
#
# Coordination Sequence:
#
# PCOD9268742 Si02
#       6
#     8   8   8   8   8   8
#     4  10  20  33  52  79 110 147 179 227 289 339
#     4  10  20  34  54  81 111 144 187 234 284 337
#     4  10  20  34  54  81 112 148 190 240 298 348
#     4  10  20  33  52  79 112 150 189 235 296 361
#     4  10  20  33  51  78 112 143 181 226 283 354
#     4  10  20  33  51  77 111 151 191 233 288 356
#
# _framework density 22.350231999999998
#
# number of rings (size 3 to 8) (size 9 to 14) (size 15 to 20)
#    0.000    2.000    0.000    4.000    0.000    5.333 
#    0.000    0.000    0.000    0.000    0.000   70.000 
#    0.000    0.000    0.000    0.000    0.000    0.000 
#
# Total GULP energy -133624.638615 kJ/mol
# GULP energy per Si atom -5567.693276 kJ/mol
# Density = 2.229936 g / cm^3
# Si number density = 22.350232 Si / 1000 Ang^3
#
#
#
# Elastic Constant Matrix: (Units=GPa)
#
#
# Indices 1 2 3 4 5 6 
#
# 1 223.6385 19.1603 54.3795 0.0000 5.3574 0.0000
# 2 19.1603 29.9299 -0.8473 0.0000 2.0655 0.0000
# 3 54.3795 -0.8473 96.2308 0.0000 4.5360 0.0000
# 4 0.0000 0.0000 0.0000 19.7350 0.0000 -0.4878
# 5 5.3574 2.0655 4.5360 0.0000 37.5148 0.0000
# 6 0.0000 0.0000 0.0000 -0.4878 0.0000 6.0557
#
#
#
# Elastic Compliance Matrix: (Units=1/GPa)
#
#
# Indices 1 2 3 4 5 6 
#
# 1 0.005557 -0.003632 -0.003162 0.000000 -0.000211 0.000000
# 2 -0.003632 0.035927 0.002452 0.000000 -0.001756 0.000000
# 3 -0.003162 0.002452 0.012255 0.000000 -0.001165 0.000000
# 4 0.000000 0.000000 0.000000 0.050772 0.000000 0.004090
# 5 -0.000211 -0.001756 -0.001165 0.000000 0.026924 0.000000
# 6 0.000000 0.000000 0.000000 0.004090 0.000000 0.165464
#
#
# Mechanical properties :
#
#
# Convention : Reuss Voigt Hill
#
# Bulk Modulus (GPa) = 22.19572 55.02048 38.60810
# Shear Modulus (GPa) = 15.59563 31.13487 23.36525
#
# Velocity S-wave (km/s) = 2.64443 3.73640 3.23679
# Velocity P-wave (km/s) = 4.39049 6.57914 5.59292
#
# Compressibility (1/GPa) = 0.04505373
#
# Stress axis : x y z
#
# Youngs Moduli (GPa) = 179.96541 27.83405 81.59906
#
# Poissons Ratio (x) = 0.10110 0.25802
# Poissons Ratio (y) = 0.65366 -0.20005
# Poissons Ratio (z) = 0.56906 -0.06824
#
# Static dielectric constant tensor:
#      x y z
#    x 2.001990 0.000000 -0.056940 
#    y 0.000000 1.877190 0.000000 
#    z -0.056940 0.000000 2.018480 
# 
# From -- ./inp_files/227795.got.cif
#   From: 2010.05.17/outbox.cif.g08.bks.cpg/sg15_114_cif.got.tgz:227795.got - 2010.06.03 18:47:42.
