data_PCOD9268806
_publ_section_title
;
Structure prediction by ZEFSAII (Michael W. Deem and Ramdas Pophale) SiO2 
 PCOD9268806
Probable space group: C 2/C
;
_chemical_formula_sum "Si O2"
_cell_formula_units_Z 64
_cell_length_a 14.373647
_cell_length_b 26.900080
_cell_length_c 8.749222
_cell_angle_alpha 90.000000
_cell_angle_beta 98.006449
_cell_angle_gamma 90.000000
_cell_volume 3349.931182
_symmetry_space_group_name_H-M "C 2/C"
_symmetry_group_IT_number 15
_symmetry_cell_setting 'monoclinic'
loop_
_space_group_symop_operation_xyz
x,y,z
-x,y,1/2-z
-x,-y,-z
x,-y,1/2+z
1/2+x,1/2+y,z
1/2-x,1/2+y,1/2-z
1/2-x,1/2-y,-z
1/2+x,1/2-y,1/2+z
loop_
_atom_site_type_symbol
_atom_site_label
_atom_site_fract_x
_atom_site_fract_y
_atom_site_fract_z
Si Si1 0.928670 0.062056 0.417392
Si Si2 0.907629 0.165049 0.826312
Si Si3 0.257304 0.805547 0.440002
Si Si4 0.687467 0.350582 0.720196
Si Si5 0.763484 0.095389 0.965923
Si Si6 0.128526 0.013405 0.392114
Si Si7 0.910046 0.765752 0.618804
Si Si8 0.390417 0.838837 0.211266
O O1 0.903571 0.117607 0.360032
O O2 0.872993 0.026234 0.286135
O O3 0.036086 0.045203 0.424775
O O4 0.891202 0.043684 0.572060
O O5 0.831437 0.186402 0.691129
O O6 0.852246 0.120640 0.898720
O O7 0.000000 0.151636 0.750000
O O8 0.928670 0.205720 0.964272
O O9 0.250000 0.750000 0.500000
O O10 0.247774 0.840694 0.584615
O O11 0.348417 0.818519 0.361342
O O12 0.660318 0.299629 0.798270
O O13 0.735866 0.382296 0.862991
O O14 0.672181 0.115055 0.858308
O O15 0.784057 0.037766 0.001067
O O16 0.876463 0.708866 0.595058
O O17 0.000000 0.762910 0.750000
O O18 0.500000 0.850441 0.250000
#
# Coordination Sequence:
#
# PCOD9268806 Si02
#       8
#     8   8   8   8   8   8   8   8
#     4   9  19  32  53  80 113 148 172 213 273 335
#     4  10  22  32  50  79 105 141 189 222 270 326
#     4  11  22  35  51  80 107 138 187 232 268 326
#     4  10  20  33  56  76 111 145 180 224 277 331
#     4   9  21  36  55  76 109 150 188 225 277 332
#     4   9  18  34  51  81 113 144 180 214 268 336
#     4  10  20  33  53  72 106 151 185 226 272 323
#     4  10  22  39  54  74 106 149 191 233 279 314
#
# _framework density 19.104869999999998
#
# number of rings (size 3 to 8) (size 9 to 14) (size 15 to 20)
#    0.000    2.250    1.250    0.750   10.500    3.500 
#    2.250    0.625    0.000    0.000    0.000    7.875 
#    0.000    0.000    0.000    0.000    0.000    0.000 
#
# Total GULP energy -178462.591305 kJ/mol
# GULP energy per Si atom -5576.955978 kJ/mol
# Density = 1.906139 g / cm^3
# Si number density = 19.104870 Si / 1000 Ang^3
#
#
#
# Elastic Constant Matrix: (Units=GPa)
#
#
# Indices 1 2 3 4 5 6 
#
# 1 96.6290 16.4717 35.4752 0.0000 -6.8139 0.0000
# 2 16.4717 35.5086 17.8712 0.0000 9.2144 0.0000
# 3 35.4752 17.8712 91.3477 0.0000 -11.8326 0.0000
# 4 0.0000 0.0000 0.0000 14.7213 0.0000 5.5545
# 5 -6.8139 9.2144 -11.8326 0.0000 22.4305 0.0000
# 6 0.0000 0.0000 0.0000 5.5545 0.0000 11.0139
#
#
#
# Elastic Compliance Matrix: (Units=1/GPa)
#
#
# Indices 1 2 3 4 5 6 
#
# 1 0.012803 -0.005368 -0.003362 0.000000 0.004321 0.000000
# 2 -0.005368 0.041235 -0.009003 0.000000 -0.023319 0.000000
# 3 -0.003362 -0.009003 0.015414 0.000000 0.010808 0.000000
# 4 0.000000 0.000000 0.000000 0.083892 0.000000 -0.042308
# 5 0.004321 -0.023319 0.010808 0.000000 0.061176 0.000000
# 6 0.000000 0.000000 0.000000 -0.042308 0.000000 0.112131
#
#
# Mechanical properties :
#
#
# Convention : Reuss Voigt Hill
#
# Bulk Modulus (GPa) = 29.42441 40.34684 34.88562
# Shear Modulus (GPa) = 13.38883 19.87762 16.63323
#
# Velocity S-wave (km/s) = 2.65015 3.22910 2.95384
# Velocity P-wave (km/s) = 4.97989 5.92176 5.47113
#
# Compressibility (1/GPa) = 0.03398539
#
# Stress axis : x y z
#
# Youngs Moduli (GPa) = 78.10691 24.25134 64.87488
#
# Poissons Ratio (x) = 0.13019 0.21812
# Poissons Ratio (y) = 0.41929 0.58407
# Poissons Ratio (z) = 0.26261 0.21834
#
# Static dielectric constant tensor:
#      x y z
#    x 1.669820 0.000000 -0.011790 
#    y 0.000000 1.716260 0.000000 
#    z -0.011790 0.000000 1.704790 
# 
# From -- ./inp_files/44299.got.cif
#   From: 2010.05.17/outbox.cif.g08.bks.cpg/sg15_23_cif.got.tgz:44299.got - 2010.06.03 18:47:42.
