data_PCOD9268108
_publ_section_title
;
Structure prediction by ZEFSAII (Michael W. Deem and Ramdas Pophale) SiO2 
 PCOD9268108
Probable space group: C 2/C
;
_chemical_formula_sum "Si O2"
_cell_formula_units_Z 52
_cell_length_a 22.542140
_cell_length_b 7.690662
_cell_length_c 19.986666
_cell_angle_alpha 90.000000
_cell_angle_beta 142.858416
_cell_angle_gamma 90.000000
_cell_volume 2092.101558
_symmetry_space_group_name_H-M "C 2/C"
_symmetry_group_IT_number 15
_symmetry_cell_setting 'monoclinic'
loop_
_space_group_symop_operation_xyz
x,y,z
-x,y,1/2-z
-x,-y,-z
x,-y,1/2+z
1/2+x,1/2+y,z
1/2-x,1/2+y,1/2-z
1/2-x,1/2-y,-z
1/2+x,1/2-y,1/2+z
loop_
_atom_site_type_symbol
_atom_site_label
_atom_site_fract_x
_atom_site_fract_y
_atom_site_fract_z
Si Si1 0.936929 0.818923 0.319145
Si Si2 0.758209 0.245486 0.892767
Si Si3 0.335666 0.622836 0.439344
Si Si4 0.000000 0.378669 0.750000
Si Si5 0.928999 0.662317 0.446836
Si Si6 0.704983 0.084896 0.502696
Si Si7 0.884119 0.155491 0.333108
O O1 0.895200 0.705192 0.341918
O O2 0.050436 0.856406 0.438778
O O3 0.941072 0.733303 0.251471
O O4 0.884505 0.999040 0.281641
O O5 0.840000 0.334479 0.917850
O O6 0.667505 0.204779 0.760661
O O7 0.795388 0.048971 0.940880
O O8 0.747814 0.392791 0.941450
O O9 0.295391 0.807991 0.427619
O O10 0.330922 0.608824 0.354694
O O11 0.907032 0.459555 0.625114
O O12 0.000000 0.500000 0.500000
O O13 0.005614 0.801854 0.545683
O O14 0.750000 0.250000 0.500000
#
# Coordination Sequence:
#
# PCOD9268108 Si02
#       7
#     8   8   8   4   8   8   8
#     4  10  19  42  65  88 133 174 214 271 327 387
#     4  12  24  41  68  99 135 172 223 276 332 405
#     4  10  22  42  65  96 132 171 224 270 327 404
#     4  10  22  42  70  88 128 186 216 258 334 386
#     4  11  22  38  64  99 134 166 222 281 329 394
#     4  11  26  47  66  97 135 176 225 275 327 401
#     4  11  22  39  64 100 131 172 211 276 348 380
#
# _framework density 24.855388999999999
#
# number of rings (size 3 to 8) (size 9 to 14) (size 15 to 20)
#    0.000    1.231    3.077    4.615    4.308    1.846 
#    2.769    3.077    0.000    0.000    0.000    0.000 
#    0.000    0.000    0.000    0.000    0.000    0.000 
#
# Total GULP energy -144970.786764 kJ/mol
# GULP energy per Si atom -5575.799491 kJ/mol
# Density = 2.479882 g / cm^3
# Si number density = 24.855389 Si / 1000 Ang^3
#
#
#
# Elastic Constant Matrix: (Units=GPa)
#
#
# Indices 1 2 3 4 5 6 
#
# 1 51.3150 9.6164 20.4892 0.0000 -8.5603 0.0000
# 2 9.6164 100.4657 9.7412 0.0000 -14.3747 0.0000
# 3 20.4892 9.7412 111.1172 0.0000 -11.1578 0.0000
# 4 0.0000 0.0000 0.0000 23.8707 0.0000 7.8305
# 5 -8.5603 -14.3747 -11.1578 0.0000 25.4923 0.0000
# 6 0.0000 0.0000 0.0000 7.8305 0.0000 23.3622
#
#
#
# Elastic Compliance Matrix: (Units=1/GPa)
#
#
# Indices 1 2 3 4 5 6 
#
# 1 0.021927 -0.001009 -0.003423 0.000000 0.005296 0.000000
# 2 -0.001009 0.010887 -0.000194 0.000000 0.005715 0.000000
# 3 -0.003423 -0.000194 0.009959 0.000000 0.003100 0.000000
# 4 0.000000 0.000000 0.000000 0.047068 0.000000 -0.015776
# 5 0.005296 0.005715 0.003100 0.000000 0.045585 0.000000
# 6 0.000000 0.000000 0.000000 -0.015776 0.000000 0.048092
#
#
# Mechanical properties :
#
#
# Convention : Reuss Voigt Hill
#
# Bulk Modulus (GPa) = 29.83341 38.06571 33.94956
# Shear Modulus (GPa) = 24.51661 29.41511 26.96586
#
# Velocity S-wave (km/s) = 3.14406 3.44386 3.29737
# Velocity P-wave (km/s) = 5.02086 5.58227 5.30899
#
# Compressibility (1/GPa) = 0.03351947
#
# Stress axis : x y z
#
# Youngs Moduli (GPa) = 45.60644 91.85444 100.41179
#
# Poissons Ratio (x) = 0.09270 0.34370
# Poissons Ratio (y) = 0.04602 0.01953
# Poissons Ratio (z) = 0.15611 0.01786
#
# Static dielectric constant tensor:
#      x y z
#    x 2.003510 0.000000 0.074340 
#    y 0.000000 -10.201500 0.000000 
#    z 0.074340 0.000000 2.183120 
# 
# From -- ./inp_files/257034.got.cif
#   From: 2010.05.17/outbox.cif.g08.bks.cpg/sg15_129_cif.got.tgz:257034.got - 2010.06.03 18:47:42.
