data_PCOD9268940
_publ_section_title
;
Structure prediction by ZEFSAII (Michael W. Deem and Ramdas Pophale) SiO2 
 PCOD9268940
Probable space group: C 2/C
;
_chemical_formula_sum "Si O2"
_cell_formula_units_Z 48
_cell_length_a 14.194895
_cell_length_b 19.762562
_cell_length_c 11.703374
_cell_angle_alpha 90.000000
_cell_angle_beta 42.454228
_cell_angle_gamma 90.000000
_cell_volume 2216.108049
_symmetry_space_group_name_H-M "C 2/C"
_symmetry_group_IT_number 15
_symmetry_cell_setting 'monoclinic'
loop_
_space_group_symop_operation_xyz
x,y,z
-x,y,1/2-z
-x,-y,-z
x,-y,1/2+z
1/2+x,1/2+y,z
1/2-x,1/2+y,1/2-z
1/2-x,1/2-y,-z
1/2+x,1/2-y,1/2+z
loop_
_atom_site_type_symbol
_atom_site_label
_atom_site_fract_x
_atom_site_fract_y
_atom_site_fract_z
Si Si1 0.525809 0.290290 0.862383
Si Si2 0.740572 0.879026 0.732031
Si Si3 0.552919 0.137271 0.925243
Si Si4 0.145866 0.311008 0.586063
Si Si5 0.528758 0.536875 0.602042
Si Si6 0.666743 0.411290 0.402791
O O1 0.500000 0.293502 0.750000
O O2 0.672798 0.322891 0.773459
O O3 0.522680 0.212745 0.905224
O O4 0.405120 0.337568 0.025133
O O5 0.683280 0.857075 0.659668
O O6 0.859789 0.929741 0.583352
O O7 0.598352 0.898102 0.925514
O O8 0.667533 0.098695 0.746330
O O9 0.626311 0.150857 0.983482
O O10 0.250000 0.250000 0.500000
O O11 0.000000 0.278217 0.750000
O O12 0.500000 0.568711 0.750000
O O13 0.593143 0.461408 0.560543
O O14 0.384334 0.551546 0.666693
#
# Coordination Sequence:
#
# PCOD9268940 Si02
#       6
#     8   8   8   8   8   8
#     4  11  23  40  61  86 126 169 210 247 303 378
#     4  10  22  38  60  92 123 160 204 262 313 359
#     4  11  22  37  59  94 130 157 200 256 319 366
#     4  10  20  33  56  88 123 154 193 247 305 364
#     4  10  21  42  65  85 117 161 212 253 300 371
#     4  10  23  39  63  89 118 164 208 253 301 369
#
# _framework density 21.659593000000001
#
# number of rings (size 3 to 8) (size 9 to 14) (size 15 to 20)
#    0.000    1.667    1.667    2.500    2.333    4.000 
#    0.000    0.000    0.000    7.000    0.000    0.000 
#    0.000    0.000    0.000    0.000    0.000    0.000 
#
# Total GULP energy -133688.009320 kJ/mol
# GULP energy per Si atom -5570.333722 kJ/mol
# Density = 2.161030 g / cm^3
# Si number density = 21.659593 Si / 1000 Ang^3
#
#
#
# Elastic Constant Matrix: (Units=GPa)
#
#
# Indices 1 2 3 4 5 6 
#
# 1 66.7419 3.0408 14.8122 -0.0004 19.7375 -0.0001
# 2 3.0408 59.1569 27.3304 -0.0002 -6.6043 -0.0002
# 3 14.8122 27.3304 82.7335 -0.0004 -8.0161 -0.0005
# 4 -0.0004 -0.0002 -0.0004 14.8466 0.0004 0.9139
# 5 19.7375 -6.6043 -8.0161 0.0004 34.2262 0.0002
# 6 -0.0001 -0.0002 -0.0005 0.9139 0.0002 1.7513
#
#
#
# Elastic Compliance Matrix: (Units=1/GPa)
#
#
# Indices 1 2 3 4 5 6 
#
# 1 0.019732 -0.000259 -0.004660 0.000001 -0.012520 0.000001
# 2 -0.000259 0.020140 -0.006360 0.000000 0.002546 -0.000001
# 3 -0.004660 -0.006360 0.015516 0.000000 0.005094 0.000003
# 4 0.000001 0.000000 0.000000 0.069591 -0.000001 -0.036315
# 5 -0.012520 0.002546 0.005094 -0.000001 0.038122 -0.000004
# 6 0.000001 -0.000001 0.000003 -0.036315 -0.000004 0.589956
#
#
# Mechanical properties :
#
#
# Convention : Reuss Voigt Hill
#
# Bulk Modulus (GPa) = 30.46073 33.22213 31.84143
# Shear Modulus (GPa) = 6.35681 21.06140 13.70910
#
# Velocity S-wave (km/s) = 1.71500 3.12169 2.51855
# Velocity P-wave (km/s) = 4.24448 5.32586 4.81562
#
# Compressibility (1/GPa) = 0.03282916
#
# Stress axis : x y z
#
# Youngs Moduli (GPa) = 50.67964 49.65226 64.44996
#
# Poissons Ratio (x) = 0.01286 0.30035
# Poissons Ratio (y) = 0.01313 0.40990
# Poissons Ratio (z) = 0.23618 0.31579
#
# Static dielectric constant tensor:
#      x y z
#    x 1.840020 0.000000 -0.108830 
#    y 0.000000 1.854300 0.000000 
#    z -0.108830 0.000000 2.124510 
# 
# From -- ./inp_files/99956.got.cif
#   From: 2010.05.17/outbox.cif.g08.bks.cpg/sg15_50_cif.got.tgz:99956.got - 2010.06.03 18:47:42.
