data_PCOD9268242
_publ_section_title
;
Structure prediction by ZEFSAII (Michael W. Deem and Ramdas Pophale) SiO2 
 PCOD9268242
Probable space group: C 2/C
;
_chemical_formula_sum "Si O2"
_cell_formula_units_Z 60
_cell_length_a 24.133191
_cell_length_b 22.034613
_cell_length_c 18.005225
_cell_angle_alpha 90.000000
_cell_angle_beta 21.777534
_cell_angle_gamma 90.000000
_cell_volume 3552.196817
_symmetry_space_group_name_H-M "C 2/C"
_symmetry_group_IT_number 15
_symmetry_cell_setting 'monoclinic'
loop_
_space_group_symop_operation_xyz
x,y,z
-x,y,1/2-z
-x,-y,-z
x,-y,1/2+z
1/2+x,1/2+y,z
1/2-x,1/2+y,1/2-z
1/2-x,1/2-y,-z
1/2+x,1/2-y,1/2+z
loop_
_atom_site_type_symbol
_atom_site_label
_atom_site_fract_x
_atom_site_fract_y
_atom_site_fract_z
Si Si1 0.642238 0.198495 0.665221
Si Si2 0.281261 0.177751 0.758463
Si Si3 0.957594 0.400383 0.553884
Si Si4 0.684748 0.192933 0.381200
Si Si5 0.000000 0.524213 0.750000
Si Si6 0.158535 0.507254 0.705885
Si Si7 0.262282 0.603974 0.402253
Si Si8 0.940389 0.914296 0.900005
O O1 0.750000 0.250000 0.500000
O O2 0.671980 0.192324 0.715024
O O3 0.691793 0.137647 0.561772
O O4 0.463923 0.207989 0.884006
O O5 0.419498 0.139642 0.554635
O O6 0.242292 0.243834 0.776501
O O7 0.143426 0.132569 0.941874
O O8 0.860864 0.353968 0.625830
O O9 0.863867 0.444489 0.722657
O O10 0.052419 0.443345 0.379651
O O11 0.790672 0.156208 0.306072
O O12 0.101177 0.497901 0.692292
O O13 0.126050 0.561714 0.547871
O O14 0.324460 0.534763 0.515049
O O15 0.409974 0.568271 0.241987
O O16 0.000000 0.882775 0.750000
#
# Coordination Sequence:
#
# PCOD9268242 Si02
#       8
#     8   8   8   8   4   8   8   8
#     4  11  18  24  39  67 105 143 168 203 233 286
#     4  10  20  29  46  70 103 149 176 203 248 308
#     4   9  20  38  51  69 105 151 178 210 260 318
#     4  11  20  29  45  72 106 147 183 203 246 310
#     4  12  18  32  56  78  94 138 182 224 252 308
#     4  10  20  37  56  71 103 142 181 219 267 307
#     4  12  19  28  43  73 110 136 175 206 250 299
#     4  11  20  30  46  77 110 136 168 221 262 296
#
# _framework density 16.890955999999999
#
# number of rings (size 3 to 8) (size 9 to 14) (size 15 to 20)
#    0.000    1.333    6.667    1.600    1.867    0.000 
#    0.000    0.667    0.000    0.000    0.000    0.933 
#    0.000    0.000    0.000    0.000    0.000    0.000 
#
# Total GULP energy -167039.285243 kJ/mol
# GULP energy per Si atom -5567.976175 kJ/mol
# Density = 1.685251 g / cm^3
# Si number density = 16.890956 Si / 1000 Ang^3
#
#
#
# Elastic Constant Matrix: (Units=GPa)
#
#
# Indices 1 2 3 4 5 6 
#
# 1 48.8158 29.8417 31.8521 0.0035 -19.2391 -0.0006
# 2 29.8417 89.8378 34.1928 -0.0102 -5.1623 0.0033
# 3 31.8521 34.1928 61.3045 -0.0109 -24.3558 0.0032
# 4 0.0035 -0.0102 -0.0109 21.8992 0.0014 2.2230
# 5 -19.2391 -5.1623 -24.3558 0.0014 23.8388 0.0007
# 6 -0.0006 0.0033 0.0032 2.2230 0.0007 24.1400
#
#
#
# Elastic Compliance Matrix: (Units=1/GPa)
#
#
# Indices 1 2 3 4 5 6 
#
# 1 0.039501 -0.009606 -0.005600 -0.000015 0.024077 0.000004
# 2 -0.009606 0.017543 -0.010713 0.000005 -0.014899 -0.000001
# 3 -0.005600 -0.010713 0.037839 0.000013 0.031820 -0.000006
# 4 -0.000015 0.000005 0.000013 0.046095 0.000000 -0.004245
# 5 0.024077 -0.014899 0.031820 0.000000 0.090664 -0.000004
# 6 0.000004 -0.000001 -0.000006 -0.004245 -0.000004 0.041816
#
#
# Mechanical properties :
#
#
# Convention : Reuss Voigt Hill
#
# Bulk Modulus (GPa) = 23.23166 43.52570 33.37868
# Shear Modulus (GPa) = 14.72131 20.91369 17.81750
#
# Velocity S-wave (km/s) = 2.95541 3.52257 3.25138
# Velocity P-wave (km/s) = 5.04278 6.50916 5.82232
#
# Compressibility (1/GPa) = 0.04304471
#
# Stress axis : x y z
#
# Youngs Moduli (GPa) = 25.31602 57.00146 26.42799
#
# Poissons Ratio (x) = 0.54757 0.14799
# Poissons Ratio (y) = 0.24319 0.28312
# Poissons Ratio (z) = 0.14176 0.61066
#
# Static dielectric constant tensor:
#      x y z
#    x 1.612120 0.000000 -0.049630 
#    y 0.000000 1.629090 0.000000 
#    z -0.049630 0.000000 1.616680 
# 
# From -- ./inp_files/258094.got.cif
#   From: 2010.05.17/outbox.cif.g08.bks.cpg/sg15_130_cif.got.tgz:258094.got - 2010.06.03 18:47:42.
