data_PCOD9268071
_publ_section_title
;
Structure prediction by ZEFSAII (Michael W. Deem and Ramdas Pophale) SiO2 
 PCOD9268071
Probable space group: C 2/C
;
_chemical_formula_sum "Si O2"
_cell_formula_units_Z 44
_cell_length_a 16.988850
_cell_length_b 9.181187
_cell_length_c 14.356439
_cell_angle_alpha 90.000000
_cell_angle_beta 122.709864
_cell_angle_gamma 90.000000
_cell_volume 1884.174928
_symmetry_space_group_name_H-M "C 2/C"
_symmetry_group_IT_number 15
_symmetry_cell_setting 'monoclinic'
loop_
_space_group_symop_operation_xyz
x,y,z
-x,y,1/2-z
-x,-y,-z
x,-y,1/2+z
1/2+x,1/2+y,z
1/2-x,1/2+y,1/2-z
1/2-x,1/2-y,-z
1/2+x,1/2-y,1/2+z
loop_
_atom_site_type_symbol
_atom_site_label
_atom_site_fract_x
_atom_site_fract_y
_atom_site_fract_z
Si Si1 0.974470 0.668099 0.503177
Si Si2 0.752611 0.025573 0.340830
Si Si3 0.500000 0.559987 0.750000
Si Si4 0.593096 0.801742 0.245528
Si Si5 0.853697 0.193625 0.770159
Si Si6 0.871360 0.870810 0.566543
O O1 0.939059 0.739391 0.385755
O O2 0.889304 0.724883 0.516407
O O3 0.000000 0.500000 0.500000
O O4 0.062240 0.726191 0.619524
O O5 0.727931 0.190865 0.301484
O O6 0.652248 0.947630 0.281463
O O7 0.811232 0.942590 0.298596
O O8 0.803677 0.979131 0.469108
O O9 0.406978 0.647392 0.711652
O O10 0.469141 0.457058 0.644805
O O11 0.500000 0.823891 0.250000
O O12 0.651588 0.684267 0.343690
#
# Coordination Sequence:
#
# PCOD9268071 Si02
#       6
#     8   8   4   8   8   8
#     4  10  19  41  71 105 132 189 239 291 349 436
#     4  11  25  44  68 109 144 187 243 307 357 426
#     4  12  26  48  68 104 144 196 240 294 372 424
#     4  10  20  40  73 101 141 186 238 283 359 435
#     4  11  28  43  71 105 146 187 248 297 363 426
#     4  10  23  43  70 104 147 194 233 300 362 433
#
# _framework density 23.352395999999999
#
# number of rings (size 3 to 8) (size 9 to 14) (size 15 to 20)
#    0.000    1.455    4.545    0.545    3.818    5.091 
#    0.000    0.000    0.000    0.000    0.000    0.000 
#    0.000    0.000    0.000    0.000    0.000    0.000 
#
# Total GULP energy -122631.160974 kJ/mol
# GULP energy per Si atom -5574.143681 kJ/mol
# Density = 2.329924 g / cm^3
# Si number density = 23.352396 Si / 1000 Ang^3
#
#
#
# Elastic Constant Matrix: (Units=GPa)
#
#
# Indices 1 2 3 4 5 6 
#
# 1 85.3377 50.5278 23.4519 0.0000 9.9384 0.0000
# 2 50.5278 124.2711 45.9441 0.0000 -6.7566 0.0000
# 3 23.4519 45.9441 132.0186 0.0000 2.2023 0.0000
# 4 0.0000 0.0000 0.0000 24.6075 0.0000 -9.3917
# 5 9.9384 -6.7566 2.2023 0.0000 25.6993 0.0000
# 6 0.0000 0.0000 0.0000 -9.3917 0.0000 26.2384
#
#
#
# Elastic Compliance Matrix: (Units=1/GPa)
#
#
# Indices 1 2 3 4 5 6 
#
# 1 0.017126 -0.007292 -0.000363 0.000000 -0.008509 0.000000
# 2 -0.007292 0.012532 -0.003172 0.000000 0.006387 0.000000
# 3 -0.000363 -0.003172 0.008767 0.000000 -0.001445 0.000000
# 4 0.000000 0.000000 0.000000 0.047068 0.000000 0.016847
# 5 -0.008509 0.006387 -0.001445 0.000000 0.044005 0.000000
# 6 0.000000 0.000000 0.000000 0.016847 0.000000 0.044142
#
#
# Mechanical properties :
#
#
# Convention : Reuss Voigt Hill
#
# Bulk Modulus (GPa) = 59.62581 64.60836 62.11709
# Shear Modulus (GPa) = 24.88980 30.08928 27.48954
#
# Velocity S-wave (km/s) = 3.26825 3.59345 3.43470
# Velocity P-wave (km/s) = 6.31114 6.70402 6.51054
#
# Compressibility (1/GPa) = 0.01677126
#
# Stress axis : x y z
#
# Youngs Moduli (GPa) = 58.38960 79.79621 114.06050
#
# Poissons Ratio (x) = 0.58187 0.04137
# Poissons Ratio (y) = 0.42578 0.36185
# Poissons Ratio (z) = 0.02118 0.25315
#
# Static dielectric constant tensor:
#      x y z
#    x 1.896080 0.000000 -0.017410 
#    y 0.000000 1.941370 0.000000 
#    z -0.017410 0.000000 1.945580 
# 
# From -- ./inp_files/159792.got.cif
#   From: 2010.05.17/outbox.cif.g08.bks.cpg/sg15_80_cif.got.tgz:159792.got - 2010.06.03 18:47:42.
