data_PCOD9268843
_publ_section_title
;
Structure prediction by ZEFSAII (Michael W. Deem and Ramdas Pophale) SiO2 
 PCOD9268843
Probable space group: C 2/C
;
_chemical_formula_sum "Si O2"
_cell_formula_units_Z 56
_cell_length_a 8.896038
_cell_length_b 23.776547
_cell_length_c 15.034297
_cell_angle_alpha 90.000000
_cell_angle_beta 122.850045
_cell_angle_gamma 90.000000
_cell_volume 2671.504871
_symmetry_space_group_name_H-M "C 2/C"
_symmetry_group_IT_number 15
_symmetry_cell_setting 'monoclinic'
loop_
_space_group_symop_operation_xyz
x,y,z
-x,y,1/2-z
-x,-y,-z
x,-y,1/2+z
1/2+x,1/2+y,z
1/2-x,1/2+y,1/2-z
1/2-x,1/2-y,-z
1/2+x,1/2-y,1/2+z
loop_
_atom_site_type_symbol
_atom_site_label
_atom_site_fract_x
_atom_site_fract_y
_atom_site_fract_z
Si Si1 0.812695 0.800266 0.456144
Si Si2 0.973174 0.864391 0.839405
Si Si3 0.881205 0.846979 0.298181
Si Si4 0.002742 0.606032 0.851206
Si Si5 0.331583 0.951784 0.759460
Si Si6 0.986154 0.031838 0.899788
Si Si7 0.787152 0.459189 0.940883
O O1 0.750000 0.750000 0.500000
O O2 0.980751 0.825076 0.563957
O O3 0.858314 0.797906 0.365304
O O4 0.649409 0.844667 0.404068
O O5 0.124508 0.913535 0.888468
O O6 0.000000 0.837402 0.750000
O O7 0.784390 0.894926 0.790427
O O8 0.690583 0.867030 0.197513
O O9 0.000000 0.834116 0.250000
O O10 0.953567 0.901730 0.377630
O O11 0.000000 0.584034 0.750000
O O12 0.077682 0.558285 0.939100
O O13 0.500000 0.954315 0.750000
O O14 0.384513 0.953119 0.879089
O O15 0.185200 0.001294 0.699003
O O16 0.175371 0.016275 0.915590
O O17 0.000000 0.000000 0.000000
#
# Coordination Sequence:
#
# PCOD9268843 Si02
#       7
#     8   8   8   8   8   8   8
#     4  10  21  39  63  85 107 149 204 253 312 383
#     4   8  16  33  56  81 111 148 194 247 297 348
#     4  11  23  39  59  90 129 160 197 261 319 360
#     4   9  19  37  60  87 118 157 205 251 296 364
#     4  10  20  33  53  86 123 160 202 241 283 347
#     4  11  21  36  57  84 125 175 211 239 285 353
#     4   9  18  35  55  79 118 163 203 238 278 343
#
# _framework density 20.961967999999999
#
# number of rings (size 3 to 8) (size 9 to 14) (size 15 to 20)
#    0.000    2.286    0.000    5.571    0.000    6.857 
#    0.000    2.857    0.000    8.571    0.000    0.000 
#    0.000    0.000    0.000    0.000    0.000    0.000 
#
# Total GULP energy -156290.749703 kJ/mol
# GULP energy per Si atom -5581.812489 kJ/mol
# Density = 2.091426 g / cm^3
# Si number density = 20.961968 Si / 1000 Ang^3
#
#
#
# Elastic Constant Matrix: (Units=GPa)
#
#
# Indices 1 2 3 4 5 6 
#
# 1 156.6977 31.6587 63.8500 0.0000 -16.8194 0.0000
# 2 31.6587 49.8665 40.9211 0.0000 -14.4669 0.0000
# 3 63.8500 40.9211 146.3622 0.0000 -10.1744 0.0000
# 4 0.0000 0.0000 0.0000 14.9261 0.0000 -3.7419
# 5 -16.8194 -14.4669 -10.1744 0.0000 28.6348 0.0000
# 6 0.0000 0.0000 0.0000 -3.7419 0.0000 21.5046
#
#
#
# Elastic Compliance Matrix: (Units=1/GPa)
#
#
# Indices 1 2 3 4 5 6 
#
# 1 0.008256 -0.002127 -0.002814 0.000000 0.002775 0.000000
# 2 -0.002127 0.030320 -0.006738 0.000000 0.011675 0.000000
# 3 -0.002814 -0.006738 0.009835 0.000000 -0.001562 0.000000
# 4 0.000000 0.000000 0.000000 0.070052 0.000000 0.012189
# 5 0.002775 0.011675 -0.001562 0.000000 0.041896 0.000000
# 6 0.000000 0.000000 0.000000 0.012189 0.000000 0.048623
#
#
# Mechanical properties :
#
#
# Convention : Reuss Voigt Hill
#
# Bulk Modulus (GPa) = 39.91457 69.53179 54.72318
# Shear Modulus (GPa) = 20.77356 27.44621 24.10989
#
# Velocity S-wave (km/s) = 3.15145 3.62240 3.39510
# Velocity P-wave (km/s) = 5.68550 7.12307 6.44450
#
# Compressibility (1/GPa) = 0.02505351
#
# Stress axis : x y z
#
# Youngs Moduli (GPa) = 121.12469 32.98155 101.67679
#
# Poissons Ratio (x) = 0.07016 0.28612
# Poissons Ratio (y) = 0.25766 0.68505
# Poissons Ratio (z) = 0.34084 0.22221
#
# Static dielectric constant tensor:
#      x y z
#    x 1.781690 0.000000 -0.028700 
#    y 0.000000 1.793280 0.000000 
#    z -0.028700 0.000000 1.795740 
# 
# From -- ./inp_files/137990.got.cif
#   From: 2010.05.17/outbox.cif.g08.bks.cpg/sg15_69_cif.got.tgz:137990.got - 2010.06.03 18:47:42.
