data_PCOD9268903
_publ_section_title
;
Structure prediction by ZEFSAII (Michael W. Deem and Ramdas Pophale) SiO2 
 PCOD9268903
Probable space group: C 2/C
;
_chemical_formula_sum "Si O2"
_cell_formula_units_Z 56
_cell_length_a 24.293593
_cell_length_b 5.339366
_cell_length_c 22.010837
_cell_angle_alpha 90.000000
_cell_angle_beta 98.953763
_cell_angle_gamma 90.000000
_cell_volume 2820.286911
_symmetry_space_group_name_H-M "C 2/C"
_symmetry_group_IT_number 15
_symmetry_cell_setting 'monoclinic'
loop_
_space_group_symop_operation_xyz
x,y,z
-x,y,1/2-z
-x,-y,-z
x,-y,1/2+z
1/2+x,1/2+y,z
1/2-x,1/2+y,1/2-z
1/2-x,1/2-y,-z
1/2+x,1/2-y,1/2+z
loop_
_atom_site_type_symbol
_atom_site_label
_atom_site_fract_x
_atom_site_fract_y
_atom_site_fract_z
Si Si1 0.152044 0.379199 0.061054
Si Si2 0.260956 0.505260 0.406230
Si Si3 0.337686 0.220268 0.546791
Si Si4 0.683270 0.678100 0.805890
Si Si5 0.033034 0.248397 0.988231
Si Si6 0.293886 0.879730 0.818108
Si Si7 0.106295 0.782344 0.393743
O O1 0.199263 0.182442 0.048061
O O2 0.169720 0.434422 0.133555
O O3 0.158034 0.631635 0.022118
O O4 0.091439 0.271609 0.035443
O O5 0.224231 0.308268 0.437153
O O6 0.216953 0.680922 0.364504
O O7 0.293799 0.371250 0.357810
O O8 0.362774 0.487299 0.566902
O O9 0.371974 0.997147 0.586368
O O10 0.681801 0.835641 0.744036
O O11 0.727961 0.454802 0.800577
O O12 0.622593 0.650804 0.826737
O O13 0.047236 0.226046 0.918554
O O14 0.000000 0.500000 0.000000
O O15 0.000000 0.000000 0.000000
#
# Coordination Sequence:
#
# PCOD9268903 Si02
#       7
#     8   8   8   8   8   8   8
#     4  10  24  35  57  91 117 163 204 256 317 367
#     4  10  20  33  55  85 129 165 195 240 288 375
#     4  10  20  36  56  89 129 158 193 238 302 376
#     4  10  20  36  54  90 123 169 205 227 290 363
#     4  11  24  44  66  88 115 153 206 273 328 366
#     4  11  20  34  57  85 130 166 201 235 286 373
#     4  10  21  38  63  88 118 159 202 254 303 369
#
# _framework density 19.856135999999999
#
# number of rings (size 3 to 8) (size 9 to 14) (size 15 to 20)
#    0.000    1.714    2.857    2.143    6.000    1.714 
#    0.000    0.000    0.000    0.857    0.000    0.000 
#    0.000    0.000    0.000    0.000    0.000    0.000 
#
# Total GULP energy -155989.951158 kJ/mol
# GULP energy per Si atom -5571.069684 kJ/mol
# Density = 1.981094 g / cm^3
# Si number density = 19.856136 Si / 1000 Ang^3
#
#
#
# Elastic Constant Matrix: (Units=GPa)
#
#
# Indices 1 2 3 4 5 6 
#
# 1 98.9598 24.7029 34.0766 0.0000 -28.4925 0.0000
# 2 24.7029 87.5527 11.9192 0.0000 -6.4444 0.0000
# 3 34.0766 11.9192 72.4479 0.0000 -27.3465 0.0000
# 4 0.0000 0.0000 0.0000 20.7706 0.0000 -3.6915
# 5 -28.4925 -6.4444 -27.3465 0.0000 40.8124 0.0000
# 6 0.0000 0.0000 0.0000 -3.6915 0.0000 39.0886
#
#
#
# Elastic Compliance Matrix: (Units=1/GPa)
#
#
# Indices 1 2 3 4 5 6 
#
# 1 0.014067 -0.002979 -0.003476 0.000000 0.007021 0.000000
# 2 -0.002979 0.012331 -0.000907 0.000000 -0.000740 0.000000
# 3 -0.003476 -0.000907 0.019566 0.000000 0.010540 0.000000
# 4 0.000000 0.000000 0.000000 0.048967 0.000000 0.004624
# 5 0.007021 -0.000740 0.010540 0.000000 0.036350 0.000000
# 6 0.000000 0.000000 0.000000 0.004624 0.000000 0.026020
#
#
# Mechanical properties :
#
#
# Convention : Reuss Voigt Hill
#
# Bulk Modulus (GPa) = 32.01062 44.48421 38.24741
# Shear Modulus (GPa) = 27.40648 32.68509 30.04578
#
# Velocity S-wave (km/s) = 3.71921 4.06161 3.89417
# Velocity P-wave (km/s) = 5.88214 6.66689 6.28677
#
# Compressibility (1/GPa) = 0.03123964
#
# Stress axis : x y z
#
# Youngs Moduli (GPa) = 71.08642 81.09507 51.10945
#
# Poissons Ratio (x) = 0.24158 0.17768
# Poissons Ratio (y) = 0.21177 0.04636
# Poissons Ratio (z) = 0.24712 0.07355
#
# Static dielectric constant tensor:
#      x y z
#    x 1.763010 0.000000 -0.031850 
#    y 0.000000 1.772400 0.000000 
#    z -0.031850 0.000000 1.753990 
# 
# From -- ./inp_files/254387.got.cif
#   From: 2010.05.17/outbox.cif.g08.bks.cpg/sg15_128_cif.got.tgz:254387.got - 2010.06.03 18:47:42.
