data_PCOD9268681
_publ_section_title
;
Structure prediction by ZEFSAII (Michael W. Deem and Ramdas Pophale) SiO2 
 PCOD9268681
Probable space group: C 2/C
;
_chemical_formula_sum "Si O2"
_cell_formula_units_Z 48
_cell_length_a 9.261093
_cell_length_b 12.648724
_cell_length_c 30.858808
_cell_angle_alpha 90.000000
_cell_angle_beta 148.275294
_cell_angle_gamma 90.000000
_cell_volume 1900.817694
_symmetry_space_group_name_H-M "C 2/C"
_symmetry_group_IT_number 15
_symmetry_cell_setting 'monoclinic'
loop_
_space_group_symop_operation_xyz
x,y,z
-x,y,1/2-z
-x,-y,-z
x,-y,1/2+z
1/2+x,1/2+y,z
1/2-x,1/2+y,1/2-z
1/2-x,1/2-y,-z
1/2+x,1/2-y,1/2+z
loop_
_atom_site_type_symbol
_atom_site_label
_atom_site_fract_x
_atom_site_fract_y
_atom_site_fract_z
Si Si1 0.630088 0.851069 0.047683
Si Si2 0.211967 0.331011 0.164825
Si Si3 0.367380 0.094926 0.174981
Si Si4 0.867911 0.045649 0.530174
Si Si5 0.450431 0.846269 0.863131
Si Si6 0.725056 0.761518 0.383611
O O1 0.593199 0.872752 0.089007
O O2 0.748614 0.944528 0.048170
O O3 0.851364 0.754743 0.097669
O O4 0.353206 0.809519 0.954598
O O5 0.500000 0.384896 0.250000
O O6 0.274997 0.208674 0.169103
O O7 0.031163 0.322549 0.161728
O O8 0.500000 0.035041 0.250000
O O9 0.597726 0.107223 0.196706
O O10 0.089798 0.046553 0.084054
O O11 0.628427 0.066087 0.434450
O O12 0.051147 0.149842 0.569508
O O13 0.223030 0.806459 0.839064
#
# Coordination Sequence:
#
# PCOD9268681 Si02
#       6
#     8   8   8   8   8   8
#     4   8  16  32  53  77 102 128 170 216 255 307
#     4  10  20  33  48  72 107 141 167 204 261 318
#     4  10  20  33  47  71 108 140 165 206 262 315
#     4   9  17  32  56  78  97 129 173 219 257 303
#     4   8  16  33  54  75  99 133 176 210 253 317
#     4   9  17  33  57  77  94 131 180 219 251 298
#
# _framework density 25.252289999999999
#
# number of rings (size 3 to 8) (size 9 to 14) (size 15 to 20)
#    0.000    3.000    0.000    3.000    0.000    1.333 
#    0.000   17.500    0.000    0.000    0.000    0.000 
#    0.000    0.000    0.000    0.000    0.000    0.000 
#
# Total GULP energy -134060.089141 kJ/mol
# GULP energy per Si atom -5585.837048 kJ/mol
# Density = 2.519482 g / cm^3
# Si number density = 25.252290 Si / 1000 Ang^3
#
#
#
# Elastic Constant Matrix: (Units=GPa)
#
#
# Indices 1 2 3 4 5 6 
#
# 1 219.1575 13.6797 59.9287 0.0000 -14.6199 0.0000
# 2 13.6797 50.7386 -8.4132 0.0001 -10.5277 0.0000
# 3 59.9287 -8.4132 65.6395 0.0003 -25.4359 0.0000
# 4 0.0000 0.0001 0.0003 3.5051 0.0001 0.2343
# 5 -14.6199 -10.5277 -25.4359 0.0001 35.9874 0.0000
# 6 0.0000 0.0000 0.0000 0.2343 0.0000 30.4820
#
#
#
# Elastic Compliance Matrix: (Units=1/GPa)
#
#
# Indices 1 2 3 4 5 6 
#
# 1 0.006859 -0.004192 -0.008532 0.000001 -0.004470 0.000000
# 2 -0.004192 0.026155 0.013062 -0.000002 0.015180 0.000000
# 3 -0.008532 0.013062 0.034205 -0.000004 0.024531 0.000000
# 4 0.000001 -0.000002 -0.000004 0.285441 -0.000004 -0.002194
# 5 -0.004470 0.015180 0.024531 -0.000004 0.047751 0.000000
# 6 0.000000 0.000000 0.000000 -0.002194 0.000000 0.032823
#
#
# Mechanical properties :
#
#
# Convention : Reuss Voigt Hill
#
# Bulk Modulus (GPa) = 14.72867 51.76954 33.24911
# Shear Modulus (GPa) = 10.98444 32.01760 21.50102
#
# Velocity S-wave (km/s) = 2.08790 3.56463 2.92112
# Velocity P-wave (km/s) = 3.41434 6.12271 4.95708
#
# Compressibility (1/GPa) = 0.06789480
#
# Stress axis : x y z
#
# Youngs Moduli (GPa) = 145.78352 38.23419 29.23585
#
# Poissons Ratio (x) = 0.16026 0.24944
# Poissons Ratio (y) = 0.61107 -0.38187
# Poissons Ratio (z) = 1.24384 -0.49941
#
# Static dielectric constant tensor:
#      x y z
#    x 2.049590 0.000000 0.026040 
#    y 0.000000 2.019650 0.000000 
#    z 0.026040 0.000000 2.103750 
# 
# From -- ./inp_files/232498.got.cif
#   From: 2010.05.17/outbox.cif.g08.bks.cpg/sg15_117_cif.got.tgz:232498.got - 2010.06.03 18:47:42.
