data_PCOD9268871
_publ_section_title
;
Structure prediction by ZEFSAII (Michael W. Deem and Ramdas Pophale) SiO2 
 PCOD9268871
Probable space group: C 2/C
;
_chemical_formula_sum "Si O2"
_cell_formula_units_Z 40
_cell_length_a 10.996466
_cell_length_b 8.578330
_cell_length_c 20.108774
_cell_angle_alpha 90.000000
_cell_angle_beta 51.208120
_cell_angle_gamma 90.000000
_cell_volume 1478.484549
_symmetry_space_group_name_H-M "C 2/C"
_symmetry_group_IT_number 15
_symmetry_cell_setting 'monoclinic'
loop_
_space_group_symop_operation_xyz
x,y,z
-x,y,1/2-z
-x,-y,-z
x,-y,1/2+z
1/2+x,1/2+y,z
1/2-x,1/2+y,1/2-z
1/2-x,1/2-y,-z
1/2+x,1/2-y,1/2+z
loop_
_atom_site_type_symbol
_atom_site_label
_atom_site_fract_x
_atom_site_fract_y
_atom_site_fract_z
Si Si1 0.775752 0.872312 0.648476
Si Si2 0.444339 0.065293 0.876699
Si Si3 0.165997 0.357560 0.473929
Si Si4 0.152895 0.866719 0.651458
Si Si5 0.211329 0.158909 0.785503
O O1 0.885642 0.764380 0.564981
O O2 0.678601 0.758737 0.731189
O O3 0.660334 0.964994 0.638901
O O4 0.869158 0.002448 0.659503
O O5 0.376182 0.239577 0.895913
O O6 0.617128 0.089720 0.789586
O O7 0.440505 0.975387 0.947549
O O8 0.250000 0.250000 0.500000
O O9 0.287671 0.471463 0.396180
O O10 0.274589 0.781119 0.659469
O O11 0.000000 0.884379 0.750000
#
# Coordination Sequence:
#
# PCOD9268871 Si02
#       5
#     8   8   8   8   8
#     4  10  20  35  55  83 115 152 198 247 295 355
#     4   9  20  37  58  83 115 157 199 247 308 358
#     4  10  20  33  54  83 119 158 196 244 304 363
#     4   9  18  34  58  83 110 152 202 246 295 358
#     4  10  20  37  60  85 114 153 203 250 299 357
#
# _framework density 27.054729999999999
#
# number of rings (size 3 to 8) (size 9 to 14) (size 15 to 20)
#    0.000    2.400    0.000    3.600    0.000    4.000 
#    0.000    0.000    0.000   39.600    0.000    0.000 
#    0.000    0.000    0.000    0.000    0.000    0.000 
#
# Total GULP energy -112022.095686 kJ/mol
# GULP energy per Si atom -5601.104784 kJ/mol
# Density = 2.699315 g / cm^3
# Si number density = 27.054730 Si / 1000 Ang^3
#
#
#
# Elastic Constant Matrix: (Units=GPa)
#
#
# Indices 1 2 3 4 5 6 
#
# 1 64.4335 46.7917 23.0343 0.0000 18.2446 0.0000
# 2 46.7917 212.8810 83.3427 0.0000 22.9605 0.0000
# 3 23.0343 83.3427 120.8171 0.0000 26.1783 0.0000
# 4 0.0000 0.0000 0.0000 58.5523 0.0000 5.3049
# 5 18.2446 22.9605 26.1783 0.0000 39.6124 0.0000
# 6 0.0000 0.0000 0.0000 5.3049 0.0000 45.9459
#
#
#
# Elastic Compliance Matrix: (Units=1/GPa)
#
#
# Indices 1 2 3 4 5 6 
#
# 1 0.020229 -0.003791 0.000351 0.000000 -0.007352 0.000000
# 2 -0.003791 0.007175 -0.004323 0.000000 0.000444 0.000000
# 3 0.000351 -0.004323 0.012470 0.000000 -0.005897 0.000000
# 4 0.000000 0.000000 0.000000 0.017259 0.000000 -0.001993
# 5 -0.007352 0.000444 -0.005897 0.000000 0.032270 0.000000
# 6 0.000000 0.000000 0.000000 -0.001993 0.000000 0.021995
#
#
# Mechanical properties :
#
#
# Convention : Reuss Voigt Hill
#
# Bulk Modulus (GPa) = 41.07001 78.27433 59.67217
# Shear Modulus (GPa) = 37.02589 45.15299 41.08944
#
# Velocity S-wave (km/s) = 3.70341 4.08971 3.90135
# Velocity P-wave (km/s) = 5.78795 7.16210 6.51137
#
# Compressibility (1/GPa) = 0.02434867
#
# Stress axis : x y z
#
# Youngs Moduli (GPa) = 49.43401 139.36584 80.19279
#
# Poissons Ratio (x) = 0.52833 -0.02818
# Poissons Ratio (y) = 0.18740 0.34669
# Poissons Ratio (z) = -0.01737 0.60250
#
# Static dielectric constant tensor:
#      x y z
#    x 2.152590 0.000000 0.042100 
#    y 0.000000 2.149900 0.000000 
#    z 0.042100 0.000000 2.101230 
# 
# From -- ./inp_files/202208.got.cif
#   From: 2010.05.17/outbox.cif.g08.bks.cpg/sg15_102_cif.got.tgz:202208.got - 2010.06.03 18:47:42.
