data_PCOD9268850
_publ_section_title
;
Structure prediction by ZEFSAII (Michael W. Deem and Ramdas Pophale) SiO2 
 PCOD9268850
Probable space group: C 2/C
;
_chemical_formula_sum "Si O2"
_cell_formula_units_Z 56
_cell_length_a 26.913377
_cell_length_b 17.430261
_cell_length_c 8.306645
_cell_angle_alpha 90.000000
_cell_angle_beta 127.527036
_cell_angle_gamma 90.000000
_cell_volume 3090.345710
_symmetry_space_group_name_H-M "C 2/C"
_symmetry_group_IT_number 15
_symmetry_cell_setting 'monoclinic'
loop_
_space_group_symop_operation_xyz
x,y,z
-x,y,1/2-z
-x,-y,-z
x,-y,1/2+z
1/2+x,1/2+y,z
1/2-x,1/2+y,1/2-z
1/2-x,1/2-y,-z
1/2+x,1/2-y,1/2+z
loop_
_atom_site_type_symbol
_atom_site_label
_atom_site_fract_x
_atom_site_fract_y
_atom_site_fract_z
Si Si1 0.652885 0.297559 0.751830
Si Si2 0.269757 0.141918 0.617371
Si Si3 0.428110 0.089904 0.565403
Si Si4 0.649707 0.003505 0.820912
Si Si5 0.573273 0.725314 0.412821
Si Si6 0.732407 0.142083 0.529951
Si Si7 0.649374 0.708380 0.878332
O O1 0.686941 0.214839 0.836147
O O2 0.607053 0.301887 0.814535
O O3 0.625733 0.298891 0.516006
O O4 0.710164 0.358182 0.882313
O O5 0.242031 0.155260 0.740101
O O6 0.314623 0.068504 0.711196
O O7 0.500000 0.072827 0.750000
O O8 0.407551 0.046463 0.363167
O O9 0.420927 0.181696 0.558996
O O10 0.379148 0.051794 0.591165
O O11 0.702310 0.940624 0.958615
O O12 0.500000 0.707526 0.250000
O O13 0.602421 0.693452 0.637628
O O14 0.678268 0.206296 0.406815
O O15 0.788603 0.156269 0.518623
#
# Coordination Sequence:
#
# PCOD9268850 Si02
#       7
#     8   8   8   8   8   8   8
#     4  10  21  36  56  82 108 145 184 236 284 330
#     4  10  20  33  54  78 111 144 183 233 287 325
#     4  11  24  37  50  74 118 160 193 226 261 321
#     4  12  21  34  54  80 109 152 190 226 276 334
#     4  11  22  39  58  80 114 152 191 230 273 331
#     4  10  20  33  54  78 111 144 183 233 287 325
#     4  10  21  36  56  82 108 145 184 236 284 330
#
# _framework density 18.120950000000001
#
# number of rings (size 3 to 8) (size 9 to 14) (size 15 to 20)
#    0.000    1.429    5.714    0.429    4.000    0.571 
#    0.000    0.000    0.000    0.000    0.000    1.000 
#    0.000    0.000    0.000    0.000    0.000    0.000 
#
# Total GULP energy -155956.544807 kJ/mol
# GULP energy per Si atom -5569.876600 kJ/mol
# Density = 1.807971 g / cm^3
# Si number density = 18.120950 Si / 1000 Ang^3
#
#
#
# Elastic Constant Matrix: (Units=GPa)
#
#
# Indices 1 2 3 4 5 6 
#
# 1 79.0397 6.2705 40.3907 0.0000 -7.3627 0.0000
# 2 6.2705 25.9931 0.5552 0.0000 10.1028 0.0000
# 3 40.3907 0.5552 102.9972 0.0000 -9.3431 0.0000
# 4 0.0000 0.0000 0.0000 4.5150 0.0000 15.3556
# 5 -7.3627 10.1028 -9.3431 0.0000 20.8736 0.0000
# 6 0.0000 0.0000 0.0000 15.3556 0.0000 12.1756
#
#
#
# Elastic Compliance Matrix: (Units=1/GPa)
#
#
# Indices 1 2 3 4 5 6 
#
# 1 0.016806 -0.006393 -0.005981 0.000000 0.006345 0.000000
# 2 -0.006393 0.050411 -0.000190 0.000000 -0.026739 0.000000
# 3 -0.005981 -0.000190 0.012375 0.000000 0.003522 0.000000
# 4 0.000000 0.000000 0.000000 -0.067335 0.000000 0.084922
# 5 0.006345 -0.026739 0.003522 0.000000 0.064663 0.000000
# 6 0.000000 0.000000 0.000000 0.084922 0.000000 -0.024970
#
#
# Mechanical properties :
#
#
# Convention : Reuss Voigt Hill
#
# Bulk Modulus (GPa) = 18.36063 33.60697 25.98380
# Shear Modulus (GPa) = 52.50332 18.23375 35.36853
#
# Velocity S-wave (km/s) = 5.38857 3.17555 4.42271
# Velocity P-wave (km/s) = 6.99070 5.65965 6.36009
#
# Compressibility (1/GPa) = 0.05446437
#
# Stress axis : x y z
#
# Youngs Moduli (GPa) = 59.50151 19.83708 80.80955
#
# Poissons Ratio (x) = 0.12681 0.48329
# Poissons Ratio (y) = 0.38038 0.01538
# Poissons Ratio (z) = 0.35585 0.00378
#
# Static dielectric constant tensor:
#      x y z
#    x 1.635580 0.000000 -0.047050 
#    y 0.000000 1.606440 0.000000 
#    z -0.047050 0.000000 1.684130 
# 
# From -- ./inp_files/63283.got.cif
#   From: 2010.05.17/outbox.cif.g08.bks.cpg/sg15_32_cif.got.tgz:63283.got - 2010.06.03 18:47:42.
