data_PCOD9268845
_publ_section_title
;
Structure prediction by ZEFSAII (Michael W. Deem and Ramdas Pophale) SiO2 
 PCOD9268845
Probable space group: C 2/C
;
_chemical_formula_sum "Si O2"
_cell_formula_units_Z 64
_cell_length_a 21.616581
_cell_length_b 21.929190
_cell_length_c 8.976678
_cell_angle_alpha 90.000000
_cell_angle_beta 125.268759
_cell_angle_gamma 90.000000
_cell_volume 3474.211008
_symmetry_space_group_name_H-M "C 2/C"
_symmetry_group_IT_number 15
_symmetry_cell_setting 'monoclinic'
loop_
_space_group_symop_operation_xyz
x,y,z
-x,y,1/2-z
-x,-y,-z
x,-y,1/2+z
1/2+x,1/2+y,z
1/2-x,1/2+y,1/2-z
1/2-x,1/2-y,-z
1/2+x,1/2-y,1/2+z
loop_
_atom_site_type_symbol
_atom_site_label
_atom_site_fract_x
_atom_site_fract_y
_atom_site_fract_z
Si Si1 0.394412 0.834327 0.688539
Si Si2 0.276875 0.679997 0.546600
Si Si3 0.368685 0.930882 0.429775
Si Si4 0.255906 0.664682 0.842187
Si Si5 0.087898 0.539221 0.829548
Si Si6 0.648225 0.730851 0.311432
Si Si7 0.079364 0.797886 0.422617
Si Si8 0.918037 0.670328 0.564155
O O1 0.304820 0.851437 0.587874
O O2 0.416738 0.882124 0.592160
O O3 0.409803 0.768495 0.638712
O O4 0.425995 0.831610 0.898136
O O5 0.250000 0.750000 0.500000
O O6 0.301707 0.669981 0.751612
O O7 0.344814 0.667279 0.528041
O O8 0.297804 0.893525 0.260731
O O9 0.410319 0.957838 0.345170
O O10 0.358923 0.987019 0.528601
O O11 0.201882 0.724549 0.786858
O O12 0.308461 0.672732 0.059400
O O13 0.113562 0.605111 0.927170
O O14 0.000000 0.528809 0.750000
O O15 0.626314 0.773543 0.421765
O O16 0.583263 0.711005 0.106126
O O17 0.000000 0.822655 0.250000
O O18 0.000000 0.674263 0.750000
#
# Coordination Sequence:
#
# PCOD9268845 Si02
#       8
#     8   8   8   8   8   8   8   8
#     4  10  20  34  53  68 102 147 190 234 264 321
#     4   9  16  32  46  69  96 139 184 213 274 325
#     4  11  21  40  52  77  98 142 193 233 275 319
#     4  10  20  33  54  73 101 141 190 231 274 332
#     4  11  23  36  52  74 108 149 189 232 274 321
#     4  11  19  33  52  76 106 142 189 232 275 333
#     4  11  20  30  48  77 107 143 182 230 273 327
#     4  11  22  35  51  81 111 151 194 230 278 328
#
# _framework density 18.421448999999999
#
# number of rings (size 3 to 8) (size 9 to 14) (size 15 to 20)
#    0.000    1.500    5.000    3.375    1.750    2.500 
#    0.000    0.000    0.000    0.000    0.000    0.000 
#    0.000    0.000    0.000  140.625    0.000    1.125 
#
# Total GULP energy -178275.682041 kJ/mol
# GULP energy per Si atom -5571.115064 kJ/mol
# Density = 1.837952 g / cm^3
# Si number density = 18.421449 Si / 1000 Ang^3
#
#
#
# Elastic Constant Matrix: (Units=GPa)
#
#
# Indices 1 2 3 4 5 6 
#
# 1 47.9662 23.1086 25.8780 0.0000 -8.1005 0.0000
# 2 23.1086 46.6698 31.3507 0.0000 -2.8491 0.0000
# 3 25.8780 31.3507 143.2924 0.0000 -14.5055 0.0000
# 4 0.0000 0.0000 0.0000 28.7164 0.0000 -2.5210
# 5 -8.1005 -2.8491 -14.5055 0.0000 36.3544 0.0000
# 6 0.0000 0.0000 0.0000 -2.5210 0.0000 13.4396
#
#
#
# Elastic Compliance Matrix: (Units=1/GPa)
#
#
# Indices 1 2 3 4 5 6 
#
# 1 0.028785 -0.012653 -0.001960 0.000000 0.004640 0.000000
# 2 -0.012653 0.030682 -0.004658 0.000000 -0.002273 0.000000
# 3 -0.001960 -0.004658 0.008619 0.000000 0.002637 0.000000
# 4 0.000000 0.000000 0.000000 0.035406 0.000000 0.006641
# 5 0.004640 -0.002273 0.002637 0.000000 0.029415 0.000000
# 6 0.000000 0.000000 0.000000 0.006641 0.000000 0.075653
#
#
# Mechanical properties :
#
#
# Convention : Reuss Voigt Hill
#
# Bulk Modulus (GPa) = 33.84801 44.28923 39.06862
# Shear Modulus (GPa) = 19.45899 26.20816 22.83357
#
# Velocity S-wave (km/s) = 3.25364 3.77596 3.52449
# Velocity P-wave (km/s) = 5.70342 6.56543 6.14955
#
# Compressibility (1/GPa) = 0.02954384
#
# Stress axis : x y z
#
# Youngs Moduli (GPa) = 34.74034 32.59200 116.02450
#
# Poissons Ratio (x) = 0.41238 0.22746
# Poissons Ratio (y) = 0.43956 0.54045
# Poissons Ratio (z) = 0.06811 0.15182
#
# Static dielectric constant tensor:
#      x y z
#    x 1.411550 0.000000 -0.105970 
#    y 0.000000 1.663380 0.000000 
#    z -0.105970 0.000000 1.644330 
# 
# From -- ./inp_files/63436.got.cif
#   From: 2010.05.17/outbox.cif.g08.bks.cpg/sg15_32_cif.got.tgz:63436.got - 2010.06.03 18:47:42.
