data_PCOD9268182
_publ_section_title
;
Structure prediction by ZEFSAII (Michael W. Deem and Ramdas Pophale) SiO2 
 PCOD9268182
Probable space group: C 2/C
;
_chemical_formula_sum "Si O2"
_cell_formula_units_Z 56
_cell_length_a 14.172857
_cell_length_b 25.035560
_cell_length_c 12.291780
_cell_angle_alpha 90.000000
_cell_angle_beta 37.824231
_cell_angle_gamma 90.000000
_cell_volume 2674.612028
_symmetry_space_group_name_H-M "C 2/C"
_symmetry_group_IT_number 15
_symmetry_cell_setting 'monoclinic'
loop_
_space_group_symop_operation_xyz
x,y,z
-x,y,1/2-z
-x,-y,-z
x,-y,1/2+z
1/2+x,1/2+y,z
1/2-x,1/2+y,1/2-z
1/2-x,1/2-y,-z
1/2+x,1/2-y,1/2+z
loop_
_atom_site_type_symbol
_atom_site_label
_atom_site_fract_x
_atom_site_fract_y
_atom_site_fract_z
Si Si1 0.403765 0.082729 0.091194
Si Si2 0.799933 0.644305 0.730761
Si Si3 0.173859 0.100332 0.631924
Si Si4 0.610646 0.006384 0.055601
Si Si5 0.971147 0.257004 0.979430
Si Si6 0.773667 0.673073 0.358501
Si Si7 0.633697 0.710203 0.044909
O O1 0.538032 0.114449 0.905833
O O2 0.330871 0.040196 0.076333
O O3 0.498130 0.047412 0.093076
O O4 0.297021 0.125684 0.248653
O O5 0.695410 0.611956 0.740290
O O6 0.844477 0.700056 0.632229
O O7 0.720321 0.659396 0.915546
O O8 0.249552 0.043474 0.534267
O O9 0.271643 0.144566 0.476562
O O10 0.000000 0.103264 0.750000
O O11 0.500000 0.984417 0.250000
O O12 0.087951 0.285865 0.790885
O O13 0.883628 0.205731 0.012851
O O14 0.059849 0.240341 0.008497
O O15 0.500000 0.695443 0.250000
O O16 0.750000 0.750000 0.000000
#
# Coordination Sequence:
#
# PCOD9268182 Si02
#       7
#     8   8   8   8   8   8   8
#     4   9  21  39  72  92 125 170 222 273 330 400
#     4  10  22  41  60  96 127 174 225 265 320 405
#     4  11  24  41  70  96 138 168 214 281 345 393
#     4  10  19  43  68  95 124 167 222 278 334 394
#     4  11  22  39  62  92 134 175 225 259 318 392
#     4  11  22  42  63 100 137 178 214 271 329 403
#     4  12  22  40  60  81 127 181 218 269 314 370
#
# _framework density 20.937615999999998
#
# number of rings (size 3 to 8) (size 9 to 14) (size 15 to 20)
#    0.000    1.429    4.286    0.857    0.000    0.571 
#   10.286    0.714    3.143    0.000    0.000    0.000 
#    0.000    0.000    0.000    0.000    0.000    0.000 
#
# Total GULP energy -156511.780675 kJ/mol
# GULP energy per Si atom -5589.706453 kJ/mol
# Density = 2.088996 g / cm^3
# Si number density = 20.937616 Si / 1000 Ang^3
#
#
#
# Elastic Constant Matrix: (Units=GPa)
#
#
# Indices 1 2 3 4 5 6 
#
# 1 48.6273 24.7103 26.5510 0.0000 1.7241 0.0000
# 2 24.7103 92.7263 33.0262 0.0000 3.1954 0.0000
# 3 26.5510 33.0262 119.4485 -0.0001 10.4157 0.0000
# 4 0.0000 0.0000 -0.0001 19.7694 0.0000 5.4680
# 5 1.7241 3.1954 10.4157 0.0000 17.9812 0.0000
# 6 0.0000 0.0000 0.0000 5.4680 0.0000 36.5364
#
#
#
# Elastic Compliance Matrix: (Units=1/GPa)
#
#
# Indices 1 2 3 4 5 6 
#
# 1 0.025581 -0.005319 -0.004301 0.000000 0.000984 0.000000
# 2 -0.005319 0.013069 -0.002394 0.000000 -0.000426 0.000000
# 3 -0.004301 -0.002394 0.010444 0.000000 -0.005212 0.000000
# 4 0.000000 0.000000 0.000000 0.052767 0.000000 -0.007897
# 5 0.000984 -0.000426 -0.005212 0.000000 0.058614 0.000000
# 6 0.000000 0.000000 0.000000 -0.007897 0.000000 0.028552
#
#
# Mechanical properties :
#
#
# Convention : Reuss Voigt Hill
#
# Bulk Modulus (GPa) = 39.89473 47.70855 43.80164
# Shear Modulus (GPa) = 22.58233 26.62504 24.60369
#
# Velocity S-wave (km/s) = 3.28770 3.56987 3.43168
# Velocity P-wave (km/s) = 5.78856 6.31090 6.05536
#
# Compressibility (1/GPa) = 0.02506597
#
# Stress axis : x y z
#
# Youngs Moduli (GPa) = 39.09139 76.51577 95.74568
#
# Poissons Ratio (x) = 0.40698 0.41183
# Poissons Ratio (y) = 0.20792 0.22922
# Poissons Ratio (z) = 0.16815 0.18318
#
# Static dielectric constant tensor:
#      x y z
#    x 1.770840 0.000000 -0.000120 
#    y 0.000000 1.765060 0.000000 
#    z -0.000120 0.000000 1.760290 
# 
# From -- ./inp_files/101091.got.cif
#   From: 2010.05.17/outbox.cif.g08.bks.cpg/sg15_51_cif.got.tgz:101091.got - 2010.06.03 18:47:42.
