data_PCOD9268022
_publ_section_title
;
Structure prediction by ZEFSAII (Michael W. Deem and Ramdas Pophale) SiO2 
 PCOD9268022
Probable space group: C 2/C
;
_chemical_formula_sum "Si O2"
_cell_formula_units_Z 52
_cell_length_a 17.061739
_cell_length_b 16.215475
_cell_length_c 10.156303
_cell_angle_alpha 90.000000
_cell_angle_beta 125.544394
_cell_angle_gamma 90.000000
_cell_volume 2286.306394
_symmetry_space_group_name_H-M "C 2/C"
_symmetry_group_IT_number 15
_symmetry_cell_setting 'monoclinic'
loop_
_space_group_symop_operation_xyz
x,y,z
-x,y,1/2-z
-x,-y,-z
x,-y,1/2+z
1/2+x,1/2+y,z
1/2-x,1/2+y,1/2-z
1/2-x,1/2-y,-z
1/2+x,1/2-y,1/2+z
loop_
_atom_site_type_symbol
_atom_site_label
_atom_site_fract_x
_atom_site_fract_y
_atom_site_fract_z
Si Si1 0.270754 0.372429 0.892954
Si Si2 0.270127 0.389294 0.400680
Si Si3 0.435669 0.526619 0.558881
Si Si4 0.500000 0.228676 0.250000
Si Si5 0.644983 0.903199 0.018123
Si Si6 0.371127 0.752611 0.856305
Si Si7 0.854706 0.414902 0.964112
O O1 0.227161 0.284013 0.811992
O O2 0.218353 0.426950 0.729502
O O3 0.383338 0.385431 0.990280
O O4 0.231662 0.399138 0.996285
O O5 0.345591 0.464330 0.483645
O O6 0.192730 0.392396 0.206760
O O7 0.339199 0.312451 0.432764
O O8 0.208987 0.386548 0.474545
O O9 0.500000 0.524583 0.750000
O O10 0.500000 0.500000 0.500000
O O11 0.572384 0.166813 0.398198
O O12 0.560904 0.274679 0.196695
O O13 0.599744 0.995821 0.965752
O O14 0.413211 0.835473 0.968190
#
# Coordination Sequence:
#
# PCOD9268022 Si02
#       7
#     8   8   8   4   8   8   8
#     4   9  20  41  63  89 130 172 216 259 328 393
#     4  12  22  42  68  95 130 179 213 268 344 391
#     4  12  23  39  64 100 129 170 223 275 319 389
#     4  10  24  44  62 102 130 166 226 282 316 390
#     4  11  20  41  71  92 127 174 228 262 322 402
#     4   9  23  43  66  91 136 171 218 269 337 404
#     4  10  19  41  66  94 122 170 221 259 325 399
#
# _framework density 22.744109000000002
#
# number of rings (size 3 to 8) (size 9 to 14) (size 15 to 20)
#    0.923    0.615    3.077    2.308    0.000    3.077 
#    6.923    0.000    0.000    0.000    0.000    0.000 
#    0.000    0.000    0.000    0.000    0.000    0.000 
#
# Total GULP energy -145156.264983 kJ/mol
# GULP energy per Si atom -5582.933269 kJ/mol
# Density = 2.269234 g / cm^3
# Si number density = 22.744109 Si / 1000 Ang^3
#
#
#
# Elastic Constant Matrix: (Units=GPa)
#
#
# Indices 1 2 3 4 5 6 
#
# 1 83.3808 -18.4044 -1.4514 0.0000 -13.9324 0.0000
# 2 -18.4044 41.6719 -25.3666 0.0000 7.3499 0.0000
# 3 -1.4514 -25.3666 41.6340 0.0000 9.7065 0.0000
# 4 0.0000 0.0000 0.0000 110.8572 0.0000 -38.5325
# 5 -13.9324 7.3499 9.7065 0.0000 42.1396 0.0000
# 6 0.0000 0.0000 0.0000 -38.5325 0.0000 50.6301
#
#
#
# Elastic Compliance Matrix: (Units=1/GPa)
#
#
# Indices 1 2 3 4 5 6 
#
# 1 0.014557 0.009859 0.006122 0.000000 0.001683 0.000000
# 2 0.009859 0.052538 0.035645 0.000000 -0.014114 0.000000
# 3 0.006122 0.035645 0.049590 0.000000 -0.015616 0.000000
# 4 0.000000 0.000000 0.000000 0.012265 0.000000 0.009335
# 5 0.001683 -0.014114 -0.015616 0.000000 0.030346 0.000000
# 6 0.000000 0.000000 0.000000 0.009335 0.000000 0.026855
#
#
# Mechanical properties :
#
#
# Convention : Reuss Voigt Hill
#
# Bulk Modulus (GPa) = 4.54679 8.47131 6.50905
# Shear Modulus (GPa) = 32.00738 54.85263 43.43000
#
# Velocity S-wave (km/s) = 3.75545 4.91626 4.37453
# Velocity P-wave (km/s) = 4.56157 5.99657 5.32761
#
# Compressibility (1/GPa) = 0.21993523
#
# Stress axis : x y z
#
# Youngs Moduli (GPa) = 68.69510 19.03377 20.16524
#
# Poissons Ratio (x) = -0.18765 -0.12344
# Poissons Ratio (y) = -0.67724 -0.71878
# Poissons Ratio (z) = -0.42053 -0.67845
#
# Static dielectric constant tensor:
#      x y z
#    x 1.821090 0.000000 0.032560 
#    y 0.000000 1.969990 0.000000 
#    z 0.032560 0.000000 1.797940 
# 
# From -- ./inp_files/49213.got.cif
#   From: 2010.05.17/outbox.cif.g08.bks.cpg/sg15_25_cif.got.tgz:49213.got - 2010.06.03 18:47:42.
