data_PCOD9268130
_publ_section_title
;
Structure prediction by ZEFSAII (Michael W. Deem and Ramdas Pophale) SiO2 
 PCOD9268130
Probable space group: C 2/C
;
_chemical_formula_sum "Si O2"
_cell_formula_units_Z 60
_cell_length_a 24.445427
_cell_length_b 21.174847
_cell_length_c 8.578444
_cell_angle_alpha 90.000000
_cell_angle_beta 140.639391
_cell_angle_gamma 90.000000
_cell_volume 2816.125825
_symmetry_space_group_name_H-M "C 2/C"
_symmetry_group_IT_number 15
_symmetry_cell_setting 'monoclinic'
loop_
_space_group_symop_operation_xyz
x,y,z
-x,y,1/2-z
-x,-y,-z
x,-y,1/2+z
1/2+x,1/2+y,z
1/2-x,1/2+y,1/2-z
1/2-x,1/2-y,-z
1/2+x,1/2-y,1/2+z
loop_
_atom_site_type_symbol
_atom_site_label
_atom_site_fract_x
_atom_site_fract_y
_atom_site_fract_z
Si Si1 0.598547 0.946017 0.499539
Si Si2 0.475801 0.607046 0.869544
Si Si3 0.915301 0.023836 0.172437
Si Si4 0.000000 0.648898 0.250000
Si Si5 0.215313 0.878928 0.161696
Si Si6 0.351727 0.925692 0.239987
Si Si7 0.867782 0.670935 0.209396
Si Si8 0.087241 0.789611 0.018870
O O1 0.500000 0.966443 0.250000
O O2 0.640403 0.928657 0.427048
O O3 0.596660 0.885313 0.605491
O O4 0.647461 0.003376 0.690505
O O5 0.500000 0.630533 0.750000
O O6 0.407805 0.549151 0.700692
O O7 0.441126 0.659577 0.911584
O O8 0.557789 0.569066 0.123813
O O9 0.000000 0.028615 0.250000
O O10 0.832540 0.054821 0.911982
O O11 0.938236 0.686183 0.231205
O O12 0.064573 0.607220 0.497680
O O13 0.269070 0.888517 0.122656
O O14 0.283405 0.856966 0.441265
O O15 0.140720 0.826880 0.005908
O O16 0.857259 0.733620 0.286380
O O17 0.000000 0.763301 0.750000
#
# Coordination Sequence:
#
# PCOD9268130 Si02
#       8
#     8   8   8   4   8   8   8   8
#     4  12  22  44  66 100 133 178 233 278 355 423
#     4  10  21  37  69 100 123 175 238 275 335 405
#     4  10  19  42  67  94 134 178 218 285 348 412
#     4  10  20  42  64  96 128 178 224 286 340 414
#     4  11  23  45  63  99 138 175 220 286 349 398
#     4  11  23  38  69  96 135 172 220 297 353 404
#     4  11  26  41  71  97 136 184 232 278 345 416
#     4  12  24  47  69  93 139 194 231 281 339 413
#
# _framework density 21.305866999999999
#
# number of rings (size 3 to 8) (size 9 to 14) (size 15 to 20)
#    0.000    1.067    4.667    2.800    0.933    2.133 
#    2.400    0.667    0.000    0.000    0.000    0.000 
#    0.000    0.000    0.000    0.000    0.000    0.000 
#
# Total GULP energy -167665.152448 kJ/mol
# GULP energy per Si atom -5588.838415 kJ/mol
# Density = 2.125737 g / cm^3
# Si number density = 21.305867 Si / 1000 Ang^3
#
#
#
# Elastic Constant Matrix: (Units=GPa)
#
#
# Indices 1 2 3 4 5 6 
#
# 1 100.4878 1.8431 26.3590 0.0000 -3.1613 0.0000
# 2 1.8431 58.3285 14.2785 0.0000 5.3814 0.0000
# 3 26.3590 14.2785 59.4391 0.0000 7.4243 0.0000
# 4 0.0000 0.0000 0.0000 27.1833 0.0000 -0.3892
# 5 -3.1613 5.3814 7.4243 0.0000 29.9727 0.0000
# 6 0.0000 0.0000 0.0000 -0.3892 0.0000 12.8351
#
#
#
# Elastic Compliance Matrix: (Units=1/GPa)
#
#
# Indices 1 2 3 4 5 6 
#
# 1 0.011479 0.000778 -0.005584 0.000000 0.002454 0.000000
# 2 0.000778 0.018417 -0.004506 0.000000 -0.002109 0.000000
# 3 -0.005584 -0.004506 0.021005 0.000000 -0.004983 0.000000
# 4 0.000000 0.000000 0.000000 0.036803 0.000000 0.001116
# 5 0.002454 -0.002109 -0.004983 0.000000 0.035235 0.000000
# 6 0.000000 0.000000 0.000000 0.001116 0.000000 0.077945
#
#
# Mechanical properties :
#
#
# Convention : Reuss Voigt Hill
#
# Bulk Modulus (GPa) = 30.98131 33.69071 32.33601
# Shear Modulus (GPa) = 21.71380 25.71655 23.71518
#
# Velocity S-wave (km/s) = 3.19587 3.47798 3.33991
# Velocity P-wave (km/s) = 5.30951 5.65471 5.48483
#
# Compressibility (1/GPa) = 0.03227752
#
# Stress axis : x y z
#
# Youngs Moduli (GPa) = 87.11458 54.29702 47.60773
#
# Poissons Ratio (x) = -0.04223 0.26584
# Poissons Ratio (y) = -0.06776 0.21451
# Poissons Ratio (z) = 0.48644 0.24465
#
# Static dielectric constant tensor:
#      x y z
#    x 1.785260 0.000000 0.013390 
#    y 0.000000 1.748780 0.000000 
#    z 0.013390 0.000000 1.806740 
# 
# From -- ./inp_files/63527.got.cif
#   From: 2010.05.17/outbox.cif.g08.bks.cpg/sg15_32_cif.got.tgz:63527.got - 2010.06.03 18:47:42.
