data_PCOD9268851
_publ_section_title
;
Structure prediction by ZEFSAII (Michael W. Deem and Ramdas Pophale) SiO2 
 PCOD9268851
Probable space group: C 2/C
;
_chemical_formula_sum "Si O2"
_cell_formula_units_Z 56
_cell_length_a 15.860733
_cell_length_b 16.005465
_cell_length_c 10.962319
_cell_angle_alpha 90.000000
_cell_angle_beta 114.463192
_cell_angle_gamma 90.000000
_cell_volume 2533.051000
_symmetry_space_group_name_H-M "C 2/C"
_symmetry_group_IT_number 15
_symmetry_cell_setting 'monoclinic'
loop_
_space_group_symop_operation_xyz
x,y,z
-x,y,1/2-z
-x,-y,-z
x,-y,1/2+z
1/2+x,1/2+y,z
1/2-x,1/2+y,1/2-z
1/2-x,1/2-y,-z
1/2+x,1/2-y,1/2+z
loop_
_atom_site_type_symbol
_atom_site_label
_atom_site_fract_x
_atom_site_fract_y
_atom_site_fract_z
Si Si1 0.382567 0.170466 0.475460
Si Si2 0.930461 0.148160 0.089581
Si Si3 0.102000 0.455131 0.287393
Si Si4 0.786406 0.067955 0.163638
Si Si5 0.586950 0.169740 0.549390
Si Si6 0.899614 0.135195 0.440490
Si Si7 0.269411 0.081518 0.016508
O O1 0.385487 0.263204 0.530134
O O2 0.387558 0.108064 0.593027
O O3 0.288629 0.140849 0.356761
O O4 0.477190 0.161715 0.455404
O O5 0.847665 0.089113 0.080682
O O6 0.000000 0.156516 0.250000
O O7 0.990615 0.119864 0.008453
O O8 0.101634 0.396275 0.168374
O O9 0.181620 0.524411 0.349711
O O10 0.000000 0.493914 0.250000
O O11 0.856788 0.073215 0.315516
O O12 0.741868 0.980479 0.105142
O O13 0.605572 0.266047 0.597767
O O14 0.655045 0.148604 0.480141
O O15 0.830818 0.119185 0.511324
#
# Coordination Sequence:
#
# PCOD9268851 Si02
#       7
#     8   8   8   8   8   8   8
#     4   9  17  31  54  81 103 131 172 213 255 304
#     4   9  17  32  53  75 102 135 172 215 255 295
#     4   9  18  32  53  79 107 134 166 213 261 299
#     4  10  20  33  54  79 102 129 173 220 255 297
#     4  10  20  36  54  75 107 140 169 204 255 313
#     4  10  21  37  54  73 104 142 173 207 253 305
#     4  11  22  33  52  80 107 138 170 206 256 308
#
# _framework density 22.107728000000002
#
# number of rings (size 3 to 8) (size 9 to 14) (size 15 to 20)
#    0.000    2.286    0.000    4.714    0.000    8.000 
#    0.000    0.000    0.000    3.429    0.000    0.000 
#    0.000    0.000    0.000    0.000    0.000    0.000 
#
# Total GULP energy -156099.763521 kJ/mol
# GULP energy per Si atom -5574.991554 kJ/mol
# Density = 2.205741 g / cm^3
# Si number density = 22.107728 Si / 1000 Ang^3
#
#
#
# Elastic Constant Matrix: (Units=GPa)
#
#
# Indices 1 2 3 4 5 6 
#
# 1 86.6237 28.5190 -9.8411 0.0000 -2.8835 0.0000
# 2 28.5190 51.3994 0.6010 0.0000 3.5246 0.0000
# 3 -9.8411 0.6010 9.5225 0.0000 1.5297 0.0000
# 4 0.0000 0.0000 0.0000 8.8762 0.0000 -5.4795
# 5 -2.8835 3.5246 1.5297 0.0000 20.3481 0.0000
# 6 0.0000 0.0000 0.0000 -5.4795 0.0000 44.3095
#
#
#
# Elastic Compliance Matrix: (Units=1/GPa)
#
#
# Indices 1 2 3 4 5 6 
#
# 1 0.016838 -0.009737 0.017574 0.000000 0.002752 0.000000
# 2 -0.009737 0.025324 -0.010866 0.000000 -0.004950 0.000000
# 3 0.017574 -0.010866 0.124665 0.000000 -0.004999 0.000000
# 4 0.000000 0.000000 0.000000 0.121972 0.000000 0.015084
# 5 0.002752 -0.004950 -0.004999 0.000000 0.050768 0.000000
# 6 0.000000 0.000000 0.000000 0.015084 0.000000 0.024434
#
#
# Mechanical properties :
#
#
# Convention : Reuss Voigt Hill
#
# Bulk Modulus (GPa) = 6.22006 20.67817 13.44911
# Shear Modulus (GPa) = 11.80223 23.25787 17.53005
#
# Velocity S-wave (km/s) = 2.31303 3.24701 2.81897
# Velocity P-wave (km/s) = 3.15485 4.84057 4.08560
#
# Compressibility (1/GPa) = 0.16077027
#
# Stress axis : x y z
#
# Youngs Moduli (GPa) = 59.38992 39.48771 8.02147
#
# Poissons Ratio (x) = 0.38448 -0.14097
# Poissons Ratio (y) = 0.57826 0.08716
# Poissons Ratio (z) = -1.04371 0.42907
#
# Static dielectric constant tensor:
#      x y z
#    x 1.888800 0.000000 -0.016150 
#    y 0.000000 1.766030 0.000000 
#    z -0.016150 0.000000 1.837260 
# 
# From -- ./inp_files/98383.got.cif
#   From: 2010.05.17/outbox.cif.g08.bks.cpg/sg15_50_cif.got.tgz:98383.got - 2010.06.03 18:47:42.
