data_PCOD9268957
_publ_section_title
;
Structure prediction by ZEFSAII (Michael W. Deem and Ramdas Pophale) SiO2 
 PCOD9268957
Probable space group: C 2/C
;
_chemical_formula_sum "Si O2"
_cell_formula_units_Z 48
_cell_length_a 16.153760
_cell_length_b 9.596465
_cell_length_c 14.955790
_cell_angle_alpha 90.000000
_cell_angle_beta 108.837642
_cell_angle_gamma 90.000000
_cell_volume 2194.250127
_symmetry_space_group_name_H-M "C 2/C"
_symmetry_group_IT_number 15
_symmetry_cell_setting 'monoclinic'
loop_
_space_group_symop_operation_xyz
x,y,z
-x,y,1/2-z
-x,-y,-z
x,-y,1/2+z
1/2+x,1/2+y,z
1/2-x,1/2+y,1/2-z
1/2-x,1/2-y,-z
1/2+x,1/2-y,1/2+z
loop_
_atom_site_type_symbol
_atom_site_label
_atom_site_fract_x
_atom_site_fract_y
_atom_site_fract_z
Si Si1 0.093856 0.842118 0.045904
Si Si2 0.604622 0.355025 0.538137
Si Si3 0.410887 0.194761 0.782487
Si Si4 0.333345 0.815122 0.076877
Si Si5 0.883967 0.364667 0.602834
Si Si6 0.903514 0.375452 0.809548
O O1 0.130424 0.730253 0.128101
O O2 0.142985 0.989215 0.055643
O O3 0.090181 0.762793 0.950749
O O4 0.993561 0.873715 0.036282
O O5 0.596609 0.296473 0.635802
O O6 0.645168 0.244300 0.483094
O O7 0.500000 0.187931 0.750000
O O8 0.339420 0.225899 0.681894
O O9 0.389443 0.040445 0.812207
O O10 0.348520 0.980073 0.072221
O O11 0.250000 0.750000 0.000000
O O12 0.865813 0.329302 0.700127
O O13 0.990360 0.370420 0.643160
#
# Coordination Sequence:
#
# PCOD9268957 Si02
#       6
#     8   8   8   8   8   8
#     4  10  20  34  53  87 115 145 182 236 288 325
#     4  10  20  33  57  84 115 144 186 237 282 333
#     4  11  18  35  56  83 106 146 194 230 276 334
#     4  11  22  37  56  81 114 147 188 234 282 340
#     4   9  17  34  56  85 108 149 186 231 281 328
#     4   9  16  32  58  84 110 141 194 237 267 328
#
# _framework density 21.875354999999999
#
# number of rings (size 3 to 8) (size 9 to 14) (size 15 to 20)
#    0.000    2.000    5.000    1.000    0.000    4.000 
#    3.000    5.833    0.000    0.000    0.000    0.000 
#    0.000    0.000    0.000    0.000    0.000    0.000 
#
# Total GULP energy -133731.512490 kJ/mol
# GULP energy per Si atom -5572.146354 kJ/mol
# Density = 2.182557 g / cm^3
# Si number density = 21.875355 Si / 1000 Ang^3
#
#
#
# Elastic Constant Matrix: (Units=GPa)
#
#
# Indices 1 2 3 4 5 6 
#
# 1 43.9863 19.7087 14.0598 0.0000 5.2347 0.0000
# 2 19.7087 160.1981 119.7864 0.0000 -22.6567 0.0000
# 3 14.0598 119.7864 152.3196 0.0000 -12.6261 0.0000
# 4 0.0000 0.0000 0.0000 7.5054 0.0000 -12.4026
# 5 5.2347 -22.6567 -12.6261 0.0000 22.4944 0.0000
# 6 0.0000 0.0000 0.0000 -12.4026 0.0000 -1.9605
#
#
#
# Elastic Compliance Matrix: (Units=1/GPa)
#
#
# Indices 1 2 3 4 5 6 
#
# 1 0.026228 -0.005587 0.001049 0.000000 -0.011142 0.000000
# 2 -0.005587 0.018301 -0.012838 0.000000 0.012527 0.000000
# 3 0.001049 -0.012838 0.016227 0.000000 -0.004066 0.000000
# 4 0.000000 0.000000 0.000000 0.011632 0.000000 -0.073589
# 5 -0.011142 0.012527 -0.004066 0.000000 0.057384 0.000000
# 6 0.000000 0.000000 0.000000 -0.073589 0.000000 -0.044532
#
#
# Mechanical properties :
#
#
# Convention : Reuss Voigt Hill
#
# Bulk Modulus (GPa) = 38.45471 73.73486 56.09478
# Shear Modulus (GPa) = 38.86229 19.13779 29.00004
#
# Velocity S-wave (km/s) = 4.21947 2.96101 3.64496
# Velocity P-wave (km/s) = 6.43084 6.74315 6.58885
#
# Compressibility (1/GPa) = 0.02600462
#
# Stress axis : x y z
#
# Youngs Moduli (GPa) = 38.12665 54.64283 61.62551
#
# Poissons Ratio (x) = 0.30530 -0.06466
# Poissons Ratio (y) = 0.21302 0.79114
# Poissons Ratio (z) = -0.04001 0.70149
#
# Static dielectric constant tensor:
#      x y z
#    x 1.965490 0.000000 0.021870 
#    y 0.000000 1.791350 0.000000 
#    z 0.021870 0.000000 1.787130 
# 
# From -- ./inp_files/166411.got.cif
#   From: 2010.05.17/outbox.cif.g08.bks.cpg/sg15_84_cif.got.tgz:166411.got - 2010.06.03 18:47:42.
