data_PCOD9268342
_publ_section_title
;
Structure prediction by ZEFSAII (Michael W. Deem and Ramdas Pophale) SiO2 
 PCOD9268342
Probable space group: C 2/C
;
_chemical_formula_sum "Si O2"
_cell_formula_units_Z 32
_cell_length_a 20.516369
_cell_length_b 19.853695
_cell_length_c 5.114086
_cell_angle_alpha 90.000000
_cell_angle_beta 123.757546
_cell_angle_gamma 90.000000
_cell_volume 1731.880938
_symmetry_space_group_name_H-M "C 2/C"
_symmetry_group_IT_number 15
_symmetry_cell_setting 'monoclinic'
loop_
_space_group_symop_operation_xyz
x,y,z
-x,y,1/2-z
-x,-y,-z
x,-y,1/2+z
1/2+x,1/2+y,z
1/2-x,1/2+y,1/2-z
1/2-x,1/2-y,-z
1/2+x,1/2-y,1/2+z
loop_
_atom_site_type_symbol
_atom_site_label
_atom_site_fract_x
_atom_site_fract_y
_atom_site_fract_z
Si Si1 0.500000 0.238665 0.250000
Si Si2 0.623317 0.844273 0.374862
Si Si3 0.500000 0.047303 0.750000
Si Si4 0.122715 0.792620 0.162442
Si Si5 0.714122 0.675355 0.379939
O O1 0.566612 0.192410 0.534969
O O2 0.537656 0.284575 0.106687
O O3 0.574551 0.903562 0.396231
O O4 0.639670 0.785811 0.625963
O O5 0.706201 0.867722 0.440254
O O6 0.500000 0.000000 0.500000
O O7 0.174916 0.822855 0.510179
O O8 0.148489 0.832113 0.958124
O O9 0.750000 0.750000 0.500000
#
# Coordination Sequence:
#
# PCOD9268342 Si02
#       5
#     4   8   4   8   8
#     4  12  19  30  52  72 108 136 166 205 262 304
#     4  11  22  35  52  68 103 141 178 222 255 293
#     4  12  27  38  52  74 100 144 196 225 248 280
#     4  11  20  32  49  77  95 135 173 207 258 324
#     4  10  20  31  50  71  97 127 183 202 257 324
#
# _framework density 18.477022000000002
#
# number of rings (size 3 to 8) (size 9 to 14) (size 15 to 20)
#    0.000    1.000    7.500    3.750    0.000    0.000 
#    0.000    0.000    0.000    0.000    0.000    0.000 
#    0.000    0.000    0.000   22.500    0.000    0.000 
#
# Total GULP energy -89128.303320 kJ/mol
# GULP energy per Si atom -5570.518957 kJ/mol
# Density = 1.843497 g / cm^3
# Si number density = 18.477022 Si / 1000 Ang^3
#
#
#
# Elastic Constant Matrix: (Units=GPa)
#
#
# Indices 1 2 3 4 5 6 
#
# 1 182.5936 47.5759 52.7716 0.0000 -10.9127 0.0000
# 2 47.5759 37.2746 19.0344 0.0000 3.1135 0.0000
# 3 52.7716 19.0344 114.9061 0.0000 -14.6929 0.0000
# 4 0.0000 0.0000 0.0000 6.8073 0.0000 -1.7488
# 5 -10.9127 3.1135 -14.6929 0.0000 33.0577 0.0000
# 6 0.0000 0.0000 0.0000 -1.7488 0.0000 24.8646
#
#
#
# Elastic Compliance Matrix: (Units=1/GPa)
#
#
# Indices 1 2 3 4 5 6 
#
# 1 0.009047 -0.010806 -0.001965 0.000000 0.003131 0.000000
# 2 -0.010806 0.043086 -0.003339 0.000000 -0.009109 0.000000
# 3 -0.001965 -0.003339 0.010725 0.000000 0.004433 0.000000
# 4 0.000000 0.000000 0.000000 0.149604 0.000000 0.010522
# 5 0.003131 -0.009109 0.004433 0.000000 0.034112 0.000000
# 6 0.000000 0.000000 0.000000 0.010522 0.000000 0.040958
#
#
# Mechanical properties :
#
#
# Convention : Reuss Voigt Hill
#
# Bulk Modulus (GPa) = 32.63848 63.72643 48.18246
# Shear Modulus (GPa) = 15.15315 27.30541 21.22928
#
# Velocity S-wave (km/s) = 2.86686 3.84839 3.39330
# Velocity P-wave (km/s) = 5.35362 7.36962 6.44098
#
# Compressibility (1/GPa) = 0.03063868
#
# Stress axis : x y z
#
# Youngs Moduli (GPa) = 110.53369 23.20942 93.23981
#
# Poissons Ratio (x) = 0.25079 0.18318
# Poissons Ratio (y) = 1.19438 0.31137
# Poissons Ratio (z) = 0.21715 0.07751
#
# Static dielectric constant tensor:
#      x y z
#    x 1.816160 0.000000 0.016940 
#    y 0.000000 1.631510 0.000000 
#    z 0.016940 0.000000 1.716300 
# 
# From -- ./inp_files/15256.got.cif
#   From: 2010.05.17/outbox.cif.g08.bks.cpg/sg15_8_cif.got.tgz:15256.got - 2010.06.03 18:47:42.
