data_PCOD9268349
_publ_section_title
;
Structure prediction by ZEFSAII (Michael W. Deem and Ramdas Pophale) SiO2 
 PCOD9268349
Probable space group: C 2/C
;
_chemical_formula_sum "Si O2"
_cell_formula_units_Z 52
_cell_length_a 16.550993
_cell_length_b 21.016975
_cell_length_c 23.558164
_cell_angle_alpha 90.000000
_cell_angle_beta 160.779413
_cell_angle_gamma 90.000000
_cell_volume 2697.760427
_symmetry_space_group_name_H-M "C 2/C"
_symmetry_group_IT_number 15
_symmetry_cell_setting 'monoclinic'
loop_
_space_group_symop_operation_xyz
x,y,z
-x,y,1/2-z
-x,-y,-z
x,-y,1/2+z
1/2+x,1/2+y,z
1/2-x,1/2+y,1/2-z
1/2-x,1/2-y,-z
1/2+x,1/2-y,1/2+z
loop_
_atom_site_type_symbol
_atom_site_label
_atom_site_fract_x
_atom_site_fract_y
_atom_site_fract_z
Si Si1 0.873121 0.473165 0.223602
Si Si2 0.497113 0.066483 0.465222
Si Si3 0.746072 0.671790 0.109669
Si Si4 0.559230 0.615103 0.687523
Si Si5 0.688287 0.500313 0.919166
Si Si6 0.875252 0.089714 0.372205
Si Si7 0.000000 0.205461 0.750000
O O1 0.741746 0.530812 0.169633
O O2 0.000000 0.495603 0.250000
O O3 0.104517 0.455748 0.416959
O O4 0.666063 0.421917 0.070305
O O5 0.238817 0.085920 0.266561
O O6 0.651046 0.113303 0.607315
O O7 0.500000 0.000000 0.500000
O O8 0.670878 0.052633 0.526168
O O9 0.717100 0.651734 0.155391
O O10 0.778282 0.746624 0.118854
O O11 0.000000 0.645994 0.250000
O O12 0.524835 0.639630 0.928763
O O13 0.454365 0.543867 0.629494
O O14 0.447470 0.662643 0.660516
O O15 0.500000 0.469072 0.750000
#
# Coordination Sequence:
#
# PCOD9268349 Si02
#       7
#     8   8   8   8   8   8   4
#     4  10  20  31  51  70 104 140 179 216 273 319
#     4  10  21  31  49  70 105 143 176 221 264 320
#     4  10  22  32  55  73 109 141 183 221 279 312
#     4  11  19  36  52  76 107 145 185 217 269 330
#     4   9  18  30  49  68 102 134 179 210 261 316
#     4  10  21  35  47  77 104 142 187 224 268 338
#     4  10  22  34  56  80 108 150 182 226 276 332
#
# _framework density 19.275248000000001
#
# number of rings (size 3 to 8) (size 9 to 14) (size 15 to 20)
#    0.462    1.538    2.308    3.692   10.769    0.000 
#    0.000    0.000    0.000    0.000    0.000    0.000 
#    0.000    8.615    0.000    0.000    0.000    0.000 
#
# Total GULP energy -144858.607369 kJ/mol
# GULP energy per Si atom -5571.484899 kJ/mol
# Density = 1.923138 g / cm^3
# Si number density = 19.275248 Si / 1000 Ang^3
#
#
#
# Elastic Constant Matrix: (Units=GPa)
#
#
# Indices 1 2 3 4 5 6 
#
# 1 28.0476 15.5359 22.4204 0.0538 -9.7527 0.0573
# 2 15.5359 53.1069 30.3457 0.1029 -3.1604 -0.0115
# 3 22.4204 30.3457 172.0826 0.1219 -19.0169 0.0071
# 4 0.0538 0.1029 0.1219 18.1022 0.0486 1.2369
# 5 -9.7527 -3.1604 -19.0169 0.0486 26.9603 0.0357
# 6 0.0573 -0.0115 0.0071 1.2369 0.0357 22.8232
#
#
#
# Elastic Compliance Matrix: (Units=1/GPa)
#
#
# Indices 1 2 3 4 5 6 
#
# 1 0.049602 -0.012089 -0.002716 -0.000089 0.014611 -0.000148
# 2 -0.012089 0.023887 -0.003049 -0.000073 -0.003723 0.000053
# 3 -0.002716 -0.003049 0.007109 -0.000032 0.003674 -0.000001
# 4 -0.000089 -0.000073 -0.000032 0.055449 -0.000160 -0.003005
# 5 0.014611 -0.003723 0.003674 -0.000160 0.044533 -0.000101
# 6 -0.000148 0.000053 -0.000001 -0.003005 -0.000101 0.043978
#
#
# Mechanical properties :
#
#
# Convention : Reuss Voigt Hill
#
# Bulk Modulus (GPa) = 22.27650 43.31569 32.79609
# Shear Modulus (GPa) = 18.16673 25.90613 22.03643
#
# Velocity S-wave (km/s) = 3.07333 3.67005 3.38487
# Velocity P-wave (km/s) = 4.91690 6.36239 5.68577
#
# Compressibility (1/GPa) = 0.04489035
#
# Stress axis : x y z
#
# Youngs Moduli (GPa) = 20.16049 41.86363 140.67190
#
# Poissons Ratio (x) = 0.50609 0.38207
# Poissons Ratio (y) = 0.24372 0.42887
# Poissons Ratio (z) = 0.05476 0.12763
#
# Static dielectric constant tensor:
#      x y z
#    x 1.717920 0.000010 -0.005330 
#    y 0.000010 1.661900 -0.000070 
#    z -0.005330 -0.000070 1.784720 
# 
# From -- ./inp_files/278184.got.cif
#   From: 2010.05.17/outbox.cif.g08.bks.cpg/sg15_140_cif.got.tgz:278184.got - 2010.06.03 18:47:42.
