data_PCOD9268939
_publ_section_title
;
Structure prediction by ZEFSAII (Michael W. Deem and Ramdas Pophale) SiO2 
 PCOD9268939
Probable space group: C 2/C
;
_chemical_formula_sum "Si O2"
_cell_formula_units_Z 44
_cell_length_a 11.532178
_cell_length_b 7.530031
_cell_length_c 19.173871
_cell_angle_alpha 90.000000
_cell_angle_beta 112.000262
_cell_angle_gamma 90.000000
_cell_volume 1543.771292
_symmetry_space_group_name_H-M "C 2/C"
_symmetry_group_IT_number 15
_symmetry_cell_setting 'monoclinic'
loop_
_space_group_symop_operation_xyz
x,y,z
-x,y,1/2-z
-x,-y,-z
x,-y,1/2+z
1/2+x,1/2+y,z
1/2-x,1/2+y,1/2-z
1/2-x,1/2-y,-z
1/2+x,1/2-y,1/2+z
loop_
_atom_site_type_symbol
_atom_site_label
_atom_site_fract_x
_atom_site_fract_y
_atom_site_fract_z
Si Si1 0.127374 0.106958 0.811336
Si Si2 0.109877 0.713536 0.997156
Si Si3 0.000000 0.424767 0.250000
Si Si4 0.369417 0.890856 0.588411
Si Si5 0.607351 0.484584 0.593980
Si Si6 0.720271 0.664758 0.254399
O O1 0.115232 0.183978 0.885895
O O2 0.166763 0.260330 0.765481
O O3 0.232690 0.957450 0.825559
O O4 0.000000 0.035446 0.750000
O O5 0.095931 0.505448 0.972064
O O6 0.007774 0.846164 0.937575
O O7 0.250000 0.750000 0.000000
O O8 0.096333 0.808210 0.069898
O O9 0.049870 0.516992 0.331865
O O10 0.119870 0.312290 0.252049
O O11 0.220458 0.915616 0.569521
O O12 0.658668 0.461404 0.682159
#
# Coordination Sequence:
#
# PCOD9268939 Si02
#       6
#     8   8   4   8   8   8
#     4  11  23  38  57  89 124 163 206 257 319 385
#     4   9  17  32  56  89 122 164 217 261 310 381
#     4  12  20  36  60  90 126 166 206 266 330 390
#     4  10  20  33  56  87 123 163 208 261 321 383
#     4   9  18  33  55  86 124 164 214 259 316 380
#     4  11  22  37  58  88 124 166 207 258 322 384
#
# _framework density 28.501629999999999
#
# number of rings (size 3 to 8) (size 9 to 14) (size 15 to 20)
#    0.000    1.818    3.636    2.182    0.000    0.000 
#    0.000    0.000    0.000    1.091    0.000   99.273 
#    0.000    0.000    0.000    0.000    0.000    0.000 
#
# Total GULP energy -122875.910475 kJ/mol
# GULP energy per Si atom -5585.268658 kJ/mol
# Density = 2.843676 g / cm^3
# Si number density = 28.501630 Si / 1000 Ang^3
#
#
#
# Elastic Constant Matrix: (Units=GPa)
#
#
# Indices 1 2 3 4 5 6 
#
# 1 177.2671 22.6747 29.7573 0.0000 -20.7372 0.0000
# 2 22.6747 85.1341 19.6816 0.0000 9.3555 0.0000
# 3 29.7573 19.6816 54.4804 0.0000 3.2305 0.0000
# 4 0.0000 0.0000 0.0000 41.7892 0.0000 -7.3091
# 5 -20.7372 9.3555 3.2305 0.0000 44.1741 0.0000
# 6 0.0000 0.0000 0.0000 -7.3091 0.0000 61.1683
#
#
#
# Elastic Compliance Matrix: (Units=1/GPa)
#
#
# Indices 1 2 3 4 5 6 
#
# 1 0.006844 -0.001442 -0.003441 0.000000 0.003770 0.000000
# 2 -0.001442 0.013376 -0.003853 0.000000 -0.003228 0.000000
# 3 -0.003441 -0.003853 0.021769 0.000000 -0.002391 0.000000
# 4 0.000000 0.000000 0.000000 0.024440 0.000000 0.002920
# 5 0.003770 -0.003228 -0.002391 0.000000 0.025266 0.000000
# 6 0.000000 0.000000 0.000000 0.002920 0.000000 0.016697
#
#
# Mechanical properties :
#
#
# Convention : Reuss Voigt Hill
#
# Bulk Modulus (GPa) = 40.78887 51.23430 46.01158
# Shear Modulus (GPa) = 37.30329 45.74418 41.52373
#
# Velocity S-wave (km/s) = 3.62168 4.01055 3.82106
# Velocity P-wave (km/s) = 5.64188 6.28180 5.97042
#
# Compressibility (1/GPa) = 0.02451649
#
# Stress axis : x y z
#
# Youngs Moduli (GPa) = 146.10742 74.76267 45.93775
#
# Poissons Ratio (x) = 0.10778 0.15808
# Poissons Ratio (y) = 0.21064 0.17701
# Poissons Ratio (z) = 0.50277 0.28808
#
# Static dielectric constant tensor:
#      x y z
#    x 2.218680 0.000000 0.034350 
#    y 0.000000 2.395230 0.000000 
#    z 0.034350 0.000000 2.185760 
# 
# From -- ./inp_files/267846.got.cif
#   From: 2010.05.17/outbox.cif.g08.bks.cpg/sg15_134_cif.got.tgz:267846.got - 2010.06.03 18:47:42.
