data_PCOD9268393
_publ_section_title
;
Structure prediction by ZEFSAII (Michael W. Deem and Ramdas Pophale) SiO2 
 PCOD9268393
Probable space group: C 2/C
;
_chemical_formula_sum "Si O2"
_cell_formula_units_Z 56
_cell_length_a 18.212332
_cell_length_b 23.033316
_cell_length_c 10.276004
_cell_angle_alpha 90.000000
_cell_angle_beta 138.832356
_cell_angle_gamma 90.000000
_cell_volume 2837.570706
_symmetry_space_group_name_H-M "C 2/C"
_symmetry_group_IT_number 15
_symmetry_cell_setting 'monoclinic'
loop_
_space_group_symop_operation_xyz
x,y,z
-x,y,1/2-z
-x,-y,-z
x,-y,1/2+z
1/2+x,1/2+y,z
1/2-x,1/2+y,1/2-z
1/2-x,1/2-y,-z
1/2+x,1/2-y,1/2+z
loop_
_atom_site_type_symbol
_atom_site_label
_atom_site_fract_x
_atom_site_fract_y
_atom_site_fract_z
Si Si1 0.433682 0.417579 0.474615
Si Si2 0.354712 0.599410 0.399557
Si Si3 0.398585 0.971607 0.287191
Si Si4 0.263709 0.988673 0.364029
Si Si5 0.000000 0.628722 0.750000
Si Si6 0.869577 0.811274 0.561272
Si Si7 0.000000 0.981581 0.250000
Si Si8 0.221943 0.694898 0.128000
O O1 0.530761 0.386656 0.523719
O O2 0.339558 0.445513 0.259214
O O3 0.379866 0.373596 0.506102
O O4 0.493745 0.471948 0.624806
O O5 0.279070 0.554783 0.214358
O O6 0.398255 0.560799 0.576923
O O7 0.284079 0.657712 0.321803
O O8 0.652177 0.008099 0.402140
O O9 0.445238 0.912771 0.286327
O O10 0.500000 0.000000 0.500000
O O11 0.310486 0.968110 0.286348
O O12 0.898035 0.666158 0.559204
O O13 0.803346 0.762943 0.389400
O O14 0.801691 0.812949 0.606655
O O15 0.000000 0.793289 0.750000
#
# Coordination Sequence:
#
# PCOD9268393 Si02
#       8
#     8   8   8   8   4   8   4   8
#     4  11  22  36  58  93 126 156 204 263 329 381
#     4  11  22  37  58  90 125 160 203 259 323 383
#     4  12  22  40  56  87 127 172 211 247 306 384
#     4  11  24  35  62  89 129 167 206 262 320 380
#     4  12  22  39  58  90 125 168 212 254 306 380
#     4  11  21  38  63  89 125 158 208 275 323 371
#     4  10  20  31  58  88 123 158 190 256 318 380
#     4  11  22  38  61  91 120 162 211 263 320 379
#
# _framework density 19.735191
#
# number of rings (size 3 to 8) (size 9 to 14) (size 15 to 20)
#    0.000    0.857    5.714    2.571    8.000    0.000 
#    0.000    0.000    0.000    0.857   11.143    0.000 
#    0.000    0.000    0.000    0.000    0.000    0.000 
#
# Total GULP energy -156127.377437 kJ/mol
# GULP energy per Si atom -5575.977766 kJ/mol
# Density = 1.969027 g / cm^3
# Si number density = 19.735191 Si / 1000 Ang^3
#
#
#
# Elastic Constant Matrix: (Units=GPa)
#
#
# Indices 1 2 3 4 5 6 
#
# 1 95.9147 21.3092 22.5813 0.0000 3.7627 0.0000
# 2 21.3092 101.5814 48.2207 0.0000 0.3339 0.0000
# 3 22.5813 48.2207 109.6270 0.0000 -0.8286 0.0000
# 4 0.0000 0.0000 0.0000 38.5232 0.0000 2.8390
# 5 3.7627 0.3339 -0.8286 0.0000 32.3599 0.0000
# 6 0.0000 0.0000 0.0000 2.8390 0.0000 9.5888
#
#
#
# Elastic Compliance Matrix: (Units=1/GPa)
#
#
# Indices 1 2 3 4 5 6 
#
# 1 0.011211 -0.001575 -0.001626 0.000000 -0.001329 0.000000
# 2 -0.001575 0.012666 -0.005247 0.000000 -0.000082 0.000000
# 3 -0.001626 -0.005247 0.011769 0.000000 0.000545 0.000000
# 4 0.000000 0.000000 0.000000 0.026537 0.000000 -0.007857
# 5 -0.001329 -0.000082 0.000545 0.000000 0.031072 0.000000
# 6 0.000000 0.000000 0.000000 -0.007857 0.000000 0.106615
#
#
# Mechanical properties :
#
#
# Convention : Reuss Voigt Hill
#
# Bulk Modulus (GPa) = 53.33969 54.59395 53.96682
# Shear Modulus (GPa) = 22.41976 30.42852 26.42414
#
# Velocity S-wave (km/s) = 3.37416 3.93089 3.66312
# Velocity P-wave (km/s) = 6.50126 6.95168 6.73023
#
# Compressibility (1/GPa) = 0.01874777
#
# Stress axis : x y z
#
# Youngs Moduli (GPa) = 89.19849 78.95155 84.96833
#
# Poissons Ratio (x) = 0.12438 0.13819
# Poissons Ratio (y) = 0.14052 0.44586
# Poissons Ratio (z) = 0.14507 0.41429
#
# Static dielectric constant tensor:
#      x y z
#    x 1.923880 0.000000 0.048190 
#    y 0.000000 1.702280 0.000000 
#    z 0.048190 0.000000 1.720760 
# 
# From -- ./inp_files/107997.got.cif
#   From: 2010.05.17/outbox.cif.g08.bks.cpg/sg15_54_cif.got.tgz:107997.got - 2010.06.03 18:47:42.
