data_PCOD9268986
_publ_section_title
;
Structure prediction by ZEFSAII (Michael W. Deem and Ramdas Pophale) SiO2 
 PCOD9268986
Probable space group: C 2/C
;
_chemical_formula_sum "Si O2"
_cell_formula_units_Z 56
_cell_length_a 16.876944
_cell_length_b 14.702156
_cell_length_c 21.717534
_cell_angle_alpha 90.000000
_cell_angle_beta 148.614560
_cell_angle_gamma 90.000000
_cell_volume 2806.404338
_symmetry_space_group_name_H-M "C 2/C"
_symmetry_group_IT_number 15
_symmetry_cell_setting 'monoclinic'
loop_
_space_group_symop_operation_xyz
x,y,z
-x,y,1/2-z
-x,-y,-z
x,-y,1/2+z
1/2+x,1/2+y,z
1/2-x,1/2+y,1/2-z
1/2-x,1/2-y,-z
1/2+x,1/2-y,1/2+z
loop_
_atom_site_type_symbol
_atom_site_label
_atom_site_fract_x
_atom_site_fract_y
_atom_site_fract_z
Si Si1 0.364990 0.675316 0.006895
Si Si2 0.797479 0.921902 0.905863
Si Si3 0.671207 0.536169 0.835940
Si Si4 0.404473 0.478692 0.847219
Si Si5 0.815923 0.761304 0.114075
Si Si6 0.355387 0.880240 0.025282
Si Si7 0.617669 0.084352 0.781778
O O1 0.385179 0.782140 0.015412
O O2 0.274052 0.639813 0.886366
O O3 0.516566 0.617634 0.116428
O O4 0.258990 0.645478 0.994141
O O5 0.802518 0.953510 0.838149
O O6 0.761921 0.818806 0.897949
O O7 0.665361 0.988284 0.843526
O O8 0.957177 0.955155 0.040102
O O9 0.500000 0.525870 0.750000
O O10 0.668078 0.523012 0.760601
O O11 0.723731 0.636577 0.890793
O O12 0.772108 0.455988 0.930639
O O13 0.000000 0.752744 0.250000
O O14 0.750000 0.750000 0.000000
O O15 0.517196 0.919122 0.154876
O O16 0.500000 0.133789 0.750000
#
# Coordination Sequence:
#
# PCOD9268986 Si02
#       7
#     8   8   8   8   8   8   8
#     4   9  19  34  58  84 115 160 197 248 306 372
#     4  10  21  41  64  86 121 167 206 254 314 386
#     4  11  22  38  61  94 128 160 204 265 314 374
#     4  10  21  41  62  88 125 164 205 253 322 386
#     4  11  25  41  70  99 129 171 223 272 323 385
#     4  10  20  33  58  88 119 148 203 256 303 360
#     4   9  19  33  58  85 110 151 205 251 297 363
#
# _framework density 19.954357999999999
#
# number of rings (size 3 to 8) (size 9 to 14) (size 15 to 20)
#    0.000    2.000    1.429    2.143    8.000    0.571 
#    2.571    3.571    0.000    0.000    0.000    0.000 
#    0.000    0.000    0.000    0.000    0.000    0.000 
#
# Total GULP energy -156013.491439 kJ/mol
# GULP energy per Si atom -5571.910409 kJ/mol
# Density = 1.990894 g / cm^3
# Si number density = 19.954358 Si / 1000 Ang^3
#
#
#
# Elastic Constant Matrix: (Units=GPa)
#
#
# Indices 1 2 3 4 5 6 
#
# 1 48.3513 31.7964 28.1519 -0.0001 -18.1750 -0.0001
# 2 31.7964 167.9414 58.7519 -0.0009 -15.2229 -0.0004
# 3 28.1519 58.7519 114.1127 -0.0004 -28.9657 -0.0003
# 4 -0.0001 -0.0009 -0.0004 17.6931 -0.0001 -5.8875
# 5 -18.1750 -15.2229 -28.9657 -0.0001 27.5057 -0.0001
# 6 -0.0001 -0.0004 -0.0003 -5.8875 -0.0001 17.6482
#
#
#
# Elastic Compliance Matrix: (Units=1/GPa)
#
#
# Indices 1 2 3 4 5 6 
#
# 1 0.030086 -0.003744 -0.001330 0.000000 0.016407 0.000000
# 2 -0.003744 0.007729 -0.003545 0.000000 -0.001930 0.000000
# 3 -0.001330 -0.003545 0.013915 0.000000 0.011813 0.000000
# 4 0.000000 0.000000 0.000000 0.063577 0.000001 0.021209
# 5 0.016407 -0.001930 0.011813 0.000001 0.058569 0.000001
# 6 0.000000 0.000000 0.000000 0.021209 0.000001 0.063738
#
#
# Mechanical properties :
#
#
# Convention : Reuss Voigt Hill
#
# Bulk Modulus (GPa) = 28.99292 63.08954 46.04123
# Shear Modulus (GPa) = 18.77236 26.68309 22.72773
#
# Velocity S-wave (km/s) = 3.07052 3.66075 3.37855
# Velocity P-wave (km/s) = 5.20883 7.03944 6.19216
#
# Compressibility (1/GPa) = 0.03449118
#
# Stress axis : x y z
#
# Youngs Moduli (GPa) = 33.23850 129.38907 71.86329
#
# Poissons Ratio (x) = 0.48438 0.09559
# Poissons Ratio (y) = 0.12443 0.25479
# Poissons Ratio (z) = 0.04421 0.45875
#
# Static dielectric constant tensor:
#      x y z
#    x 1.791170 0.000000 -0.016120 
#    y 0.000000 1.714450 0.000000 
#    z -0.016120 0.000000 1.739930 
# 
# From -- ./inp_files/249290.got.cif
#   From: 2010.05.17/outbox.cif.g08.bks.cpg/sg15_125_cif.got.tgz:249290.got - 2010.06.03 18:47:42.
