data_PCOD9268794
_publ_section_title
;
Structure prediction by ZEFSAII (Michael W. Deem and Ramdas Pophale) SiO2 
 PCOD9268794
Probable space group: C 2/C
;
_chemical_formula_sum "Si O2"
_cell_formula_units_Z 44
_cell_length_a 14.556134
_cell_length_b 22.512622
_cell_length_c 13.931502
_cell_angle_alpha 90.000000
_cell_angle_beta 150.049729
_cell_angle_gamma 90.000000
_cell_volume 2279.221523
_symmetry_space_group_name_H-M "C 2/C"
_symmetry_group_IT_number 15
_symmetry_cell_setting 'monoclinic'
loop_
_space_group_symop_operation_xyz
x,y,z
-x,y,1/2-z
-x,-y,-z
x,-y,1/2+z
1/2+x,1/2+y,z
1/2-x,1/2+y,1/2-z
1/2-x,1/2-y,-z
1/2+x,1/2-y,1/2+z
loop_
_atom_site_type_symbol
_atom_site_label
_atom_site_fract_x
_atom_site_fract_y
_atom_site_fract_z
Si Si1 0.500000 0.019847 0.250000
Si Si2 0.504717 0.417018 0.551386
Si Si3 0.081944 0.200609 0.217242
Si Si4 0.581888 0.050837 0.008535
Si Si5 0.892274 0.033515 0.551585
Si Si6 0.499066 0.831458 0.134054
O O1 0.678707 0.053550 0.369705
O O2 0.408616 0.978106 0.087425
O O3 0.475585 0.349265 0.559206
O O4 0.389673 0.466010 0.506793
O O5 0.500659 0.429464 0.433985
O O6 0.715890 0.433340 0.771118
O O7 0.287766 0.179080 0.416073
O O8 0.000000 0.202386 0.250000
O O9 0.090408 0.268755 0.191222
O O10 0.453702 0.109052 0.881115
O O11 0.500000 0.000000 0.000000
O O12 0.000000 0.035570 0.750000
O O13 0.500000 0.841030 0.250000
#
# Coordination Sequence:
#
# PCOD9268794 Si02
#       6
#     4   8   8   8   8   8
#     4  12  22  34  58  80 120 146 194 226 286 342
#     4  10  22  36  54  81 118 149 192 236 288 343
#     4  10  20  34  53  79 115 148 182 226 284 342
#     4  11  21  36  55  87 117 151 189 238 285 342
#     4  11  22  37  55  83 114 155 188 242 289 335
#     4  10  20  33  52  81 113 150 185 227 283 343
#
# _framework density 19.304836999999999
#
# number of rings (size 3 to 8) (size 9 to 14) (size 15 to 20)
#    0.000    1.455    4.545    2.727    2.545    1.455 
#    0.000    0.000    0.000    0.000    2.364    3.818 
#    0.000    0.000    0.000    0.000    0.000    0.000 
#
# Total GULP energy -122775.865036 kJ/mol
# GULP energy per Si atom -5580.721138 kJ/mol
# Density = 1.926090 g / cm^3
# Si number density = 19.304837 Si / 1000 Ang^3
#
#
#
# Elastic Constant Matrix: (Units=GPa)
#
#
# Indices 1 2 3 4 5 6 
#
# 1 78.3430 36.6832 23.6759 0.0000 -15.1434 0.0000
# 2 36.6832 136.9090 13.4652 0.0000 -11.8422 0.0000
# 3 23.6759 13.4652 62.6231 0.0000 -10.3026 0.0000
# 4 0.0000 0.0000 0.0000 29.0104 0.0000 -2.9564
# 5 -15.1434 -11.8422 -10.3026 0.0000 36.3978 0.0000
# 6 0.0000 0.0000 0.0000 -2.9564 0.0000 19.9722
#
#
#
# Elastic Compliance Matrix: (Units=1/GPa)
#
#
# Indices 1 2 3 4 5 6 
#
# 1 0.016786 -0.003639 -0.004835 0.000000 0.004431 0.000000
# 2 -0.003639 0.008402 -0.000242 0.000000 0.001151 0.000000
# 3 -0.004835 -0.000242 0.018359 0.000000 0.003107 0.000000
# 4 0.000000 0.000000 0.000000 0.034998 0.000000 0.005181
# 5 0.004431 0.001151 0.003107 0.000000 0.030572 0.000000
# 6 0.000000 0.000000 0.000000 0.005181 0.000000 0.050837
#
#
# Mechanical properties :
#
#
# Convention : Reuss Voigt Hill
#
# Bulk Modulus (GPa) = 38.28832 47.28039 42.78435
# Shear Modulus (GPa) = 26.86862 30.67945 28.77404
#
# Velocity S-wave (km/s) = 3.73474 3.99082 3.86490
# Velocity P-wave (km/s) = 6.20277 6.76610 6.49055
#
# Compressibility (1/GPa) = 0.02611763
#
# Stress axis : x y z
#
# Youngs Moduli (GPa) = 59.57384 119.01289 54.46779
#
# Poissons Ratio (x) = 0.43306 0.26334
# Poissons Ratio (y) = 0.21678 0.01316
# Poissons Ratio (z) = 0.28803 0.02875
#
# Static dielectric constant tensor:
#      x y z
#    x 1.719100 0.000000 0.026760 
#    y 0.000000 1.763640 0.000000 
#    z 0.026760 0.000000 1.732020 
# 
# From -- ./inp_files/49909.got.cif
#   From: 2010.05.17/outbox.cif.g08.bks.cpg/sg15_25_cif.got.tgz:49909.got - 2010.06.03 18:47:42.
