data_PCOD9268538
_publ_section_title
;
Structure prediction by ZEFSAII (Michael W. Deem and Ramdas Pophale) SiO2 
 PCOD9268538
Probable space group: C 2/C
;
_chemical_formula_sum "Si O2"
_cell_formula_units_Z 64
_cell_length_a 24.293619
_cell_length_b 17.096297
_cell_length_c 18.285872
_cell_angle_alpha 90.000000
_cell_angle_beta 156.353036
_cell_angle_gamma 90.000000
_cell_volume 3046.229558
_symmetry_space_group_name_H-M "C 2/C"
_symmetry_group_IT_number 15
_symmetry_cell_setting 'monoclinic'
loop_
_space_group_symop_operation_xyz
x,y,z
-x,y,1/2-z
-x,-y,-z
x,-y,1/2+z
1/2+x,1/2+y,z
1/2-x,1/2+y,1/2-z
1/2-x,1/2-y,-z
1/2+x,1/2-y,1/2+z
loop_
_atom_site_type_symbol
_atom_site_label
_atom_site_fract_x
_atom_site_fract_y
_atom_site_fract_z
Si Si1 0.092228 0.789800 0.216482
Si Si2 0.940974 0.908928 0.840681
Si Si3 0.409476 0.430991 0.978378
Si Si4 0.145285 0.223633 0.608590
Si Si5 0.149402 0.617695 0.455742
Si Si6 0.892731 0.592920 0.420781
Si Si7 0.417111 0.147472 0.966966
Si Si8 0.636597 0.942065 0.451466
O O1 0.122140 0.792326 0.166251
O O2 0.231346 0.822451 0.421679
O O3 0.030585 0.703280 0.143439
O O4 0.975864 0.853485 0.094015
O O5 0.929652 0.920013 0.915174
O O6 0.783774 0.900286 0.623881
O O7 0.038174 0.835476 0.940776
O O8 0.012608 0.990214 0.903157
O O9 0.246663 0.432801 0.789533
O O10 0.122644 0.315656 0.573197
O O11 0.303270 0.200282 0.787246
O O12 0.161345 0.527768 0.445487
O O13 0.000000 0.645129 0.250000
O O14 0.155155 0.610048 0.551071
O O15 0.014049 0.592409 0.509267
O O16 0.901099 0.550407 0.508420
O O17 0.500000 0.906069 0.250000
#
# Coordination Sequence:
#
# PCOD9268538 Si02
#       8
#     8   8   8   8   8   8   8   8
#     4   9  16  31  52  76 106 135 175 213 258 314
#     4   9  17  30  54  74 103 137 185 219 255 321
#     4   9  15  28  50  81  98 132 176 223 258 305
#     4   9  18  31  51  80 107 136 173 223 276 309
#     4  10  21  36  54  77 108 146 181 215 260 322
#     4  10  20  32  54  82 111 136 173 232 272 312
#     4  10  20  33  52  82 113 136 168 227 275 314
#     4  10  21  37  56  79 105 144 187 219 259 316
#
# _framework density 21.009578999999999
#
# number of rings (size 3 to 8) (size 9 to 14) (size 15 to 20)
#    0.000    2.500    2.500    0.000    7.000    1.000 
#    0.000    0.625    0.000    0.000    0.000    0.000 
#    0.000    0.000    0.000    0.000    0.000    0.000 
#
# Total GULP energy -178216.527785 kJ/mol
# GULP energy per Si atom -5569.266493 kJ/mol
# Density = 2.096176 g / cm^3
# Si number density = 21.009579 Si / 1000 Ang^3
#
#
#
# Elastic Constant Matrix: (Units=GPa)
#
#
# Indices 1 2 3 4 5 6 
#
# 1 30.0518 1.6808 3.6534 0.0001 10.1823 0.0000
# 2 1.6808 57.0300 20.0432 0.0000 -2.2521 0.0000
# 3 3.6534 20.0432 113.6919 0.0001 -1.2095 0.0001
# 4 0.0001 0.0000 0.0001 22.9244 0.0000 7.2274
# 5 10.1823 -2.2521 -1.2095 0.0000 17.6519 0.0000
# 6 0.0000 0.0000 0.0001 7.2274 0.0000 15.0411
#
#
#
# Elastic Compliance Matrix: (Units=1/GPa)
#
#
# Indices 1 2 3 4 5 6 
#
# 1 0.041807 -0.001741 -0.001296 0.000000 -0.024427 0.000000
# 2 -0.001741 0.018848 -0.003233 0.000000 0.003188 0.000000
# 3 -0.001296 -0.003233 0.009418 0.000000 0.000981 0.000000
# 4 0.000000 0.000000 0.000000 0.051410 0.000000 -0.024703
# 5 -0.024427 0.003188 0.000981 0.000000 0.071216 0.000000
# 6 0.000000 0.000000 0.000000 -0.024703 0.000000 0.078355
#
#
# Mechanical properties :
#
#
# Convention : Reuss Voigt Hill
#
# Bulk Modulus (GPa) = 17.38156 27.94761 22.66458
# Shear Modulus (GPa) = 16.51410 22.81655 19.66532
#
# Velocity S-wave (km/s) = 2.80666 3.29904 3.06276
# Velocity P-wave (km/s) = 4.33523 5.27662 4.82892
#
# Compressibility (1/GPa) = 0.05753223
#
# Stress axis : x y z
#
# Youngs Moduli (GPa) = 23.91920 53.05592 106.18262
#
# Poissons Ratio (x) = 0.09238 0.13765
# Poissons Ratio (y) = 0.04165 0.34328
# Poissons Ratio (z) = 0.03101 0.17153
#
# Static dielectric constant tensor:
#      x y z
#    x 1.756290 0.000000 0.018500 
#    y 0.000000 1.816110 0.000000 
#    z 0.018500 0.000000 1.797840 
# 
# From -- ./inp_files/258086.got.cif
#   From: 2010.05.17/outbox.cif.g08.bks.cpg/sg15_130_cif.got.tgz:258086.got - 2010.06.03 18:47:42.
