data_PCOD9268477
_publ_section_title
;
Structure prediction by ZEFSAII (Michael W. Deem and Ramdas Pophale) SiO2 
 PCOD9268477
Probable space group: C 2/C
;
_chemical_formula_sum "Si O2"
_cell_formula_units_Z 48
_cell_length_a 5.287385
_cell_length_b 17.970435
_cell_length_c 21.658434
_cell_angle_alpha 90.000000
_cell_angle_beta 118.918311
_cell_angle_gamma 90.000000
_cell_volume 1801.310092
_symmetry_space_group_name_H-M "C 2/C"
_symmetry_group_IT_number 15
_symmetry_cell_setting 'monoclinic'
loop_
_space_group_symop_operation_xyz
x,y,z
-x,y,1/2-z
-x,-y,-z
x,-y,1/2+z
1/2+x,1/2+y,z
1/2-x,1/2+y,1/2-z
1/2-x,1/2-y,-z
1/2+x,1/2-y,1/2+z
loop_
_atom_site_type_symbol
_atom_site_label
_atom_site_fract_x
_atom_site_fract_y
_atom_site_fract_z
Si Si1 0.606390 0.471971 0.432380
Si Si2 0.838820 0.853212 0.556902
Si Si3 0.729162 0.298576 0.089841
Si Si4 0.478141 0.021735 0.094841
Si Si5 0.491099 0.150171 0.180042
Si Si6 0.416049 0.682330 0.674585
O O1 0.726526 0.559835 0.443108
O O2 0.266528 0.481123 0.390792
O O3 0.745519 0.449614 0.514232
O O4 0.804696 0.454148 0.397068
O O5 0.655756 0.789462 0.570796
O O6 0.822119 0.833108 0.483311
O O7 0.163329 0.845206 0.618375
O O8 0.530447 0.338211 0.118361
O O9 0.072717 0.304455 0.139902
O O10 0.624174 0.087596 0.151825
O O11 0.500000 0.120324 0.250000
O O12 0.586850 0.236175 0.195454
O O13 0.500000 0.644838 0.750000
#
# Coordination Sequence:
#
# PCOD9268477 Si02
#       6
#     8   8   8   8   8   8
#     4   9  17  30  49  70  95 124 160 203 242 293
#     4   9  19  32  50  77 105 135 175 211 255 302
#     4  10  20  32  51  75 104 136 171 217 251 298
#     4   9  17  30  48  71  95 123 158 198 246 296
#     4   9  18  32  51  75 104 133 164 209 260 307
#     4  10  20  34  51  73 101 135 171 209 260 309
#
# _framework density 26.647273999999999
#
# number of rings (size 3 to 8) (size 9 to 14) (size 15 to 20)
#    0.000    2.667    0.000    1.500    0.000    8.667 
#    0.000    8.333    0.000    2.000    0.000    0.000 
#    0.000    0.000    0.000    0.000    0.000    0.000 
#
# Total GULP energy -133879.583002 kJ/mol
# GULP energy per Si atom -5578.315958 kJ/mol
# Density = 2.658662 g / cm^3
# Si number density = 26.647274 Si / 1000 Ang^3
#
#
#
# Elastic Constant Matrix: (Units=GPa)
#
#
# Indices 1 2 3 4 5 6 
#
# 1 62.0124 -104.0510 -42.2502 0.0000 29.4536 0.0000
# 2 -104.0510 -106.5534 -127.7962 0.0000 64.0657 0.0000
# 3 -42.2502 -127.7962 76.6000 0.0000 32.7811 0.0000
# 4 0.0000 0.0000 0.0000 19.8745 0.0000 -0.1460
# 5 29.4536 64.0657 32.7811 0.0000 11.6516 0.0000
# 6 0.0000 0.0000 0.0000 -0.1460 0.0000 29.9614
#
#
#
# Elastic Compliance Matrix: (Units=1/GPa)
#
#
# Indices 1 2 3 4 5 6 
#
# 1 0.007885 -0.003091 -0.002205 0.000000 0.003267 0.000000
# 2 -0.003091 0.001390 -0.002647 0.000000 0.007620 0.000000
# 3 -0.002205 -0.002647 0.005847 0.000000 0.003679 0.000000
# 4 0.000000 0.000000 0.000000 0.050318 0.000000 0.000245
# 5 0.003267 0.007620 0.003679 0.000000 0.025318 0.000000
# 6 0.000000 0.000000 0.000000 0.000245 0.000000 0.033377
#
#
# Mechanical properties :
#
#
# Convention : Reuss Voigt Hill
#
# Bulk Modulus (GPa) = -1307.85413 -57.34842 -682.60127
# Shear Modulus (GPa) = 35.77359 32.70793 34.24076
#
# Velocity S-wave (km/s) = 3.66797 3.50728 3.58853
# Velocity P-wave (km/s) = 21.76991 2.27302 15.47733
#
# Compressibility (1/GPa) = -0.00076461
#
# Stress axis : x y z
#
# Youngs Moduli (GPa) = 126.81725 719.57176 171.01829
#
# Poissons Ratio (x) = 2.22412 0.37717
# Poissons Ratio (y) = 0.39198 0.45272
# Poissons Ratio (z) = 0.27969 1.90485
#
# Static dielectric constant tensor:
#      x y z
#    x 3.048470 0.000000 -0.625020 
#    y 0.000000 2.426670 0.000000 
#    z -0.625020 0.000000 2.315590 
# 
# From -- ./inp_files/185539.got.cif
#   From: 2010.05.17/outbox.cif.g08.bks.cpg/sg15_93_cif.got.tgz:185539.got - 2010.06.03 18:47:42.
