data_PCOD9268117
_publ_section_title
;
Structure prediction by ZEFSAII (Michael W. Deem and Ramdas Pophale) SiO2 
 PCOD9268117
Probable space group: C 2/C
;
_chemical_formula_sum "Si O2"
_cell_formula_units_Z 36
_cell_length_a 8.306712
_cell_length_b 19.430882
_cell_length_c 9.174174
_cell_angle_alpha 90.000000
_cell_angle_beta 92.872703
_cell_angle_gamma 90.000000
_cell_volume 1478.912706
_symmetry_space_group_name_H-M "C 2/C"
_symmetry_group_IT_number 15
_symmetry_cell_setting 'monoclinic'
loop_
_space_group_symop_operation_xyz
x,y,z
-x,y,1/2-z
-x,-y,-z
x,-y,1/2+z
1/2+x,1/2+y,z
1/2-x,1/2+y,1/2-z
1/2-x,1/2-y,-z
1/2+x,1/2-y,1/2+z
loop_
_atom_site_type_symbol
_atom_site_label
_atom_site_fract_x
_atom_site_fract_y
_atom_site_fract_z
Si Si1 0.834587 0.172288 0.166668
Si Si2 0.000000 0.518385 0.250000
Si Si3 0.000000 0.693120 0.750000
Si Si4 0.519493 0.346909 0.410640
Si Si5 0.000000 0.290015 0.750000
Si Si6 0.349963 0.084682 0.953974
O O1 0.861315 0.254499 0.191017
O O2 0.654320 0.165012 0.213853
O O3 0.000000 0.144971 0.250000
O O4 0.863700 0.147620 0.004257
O O5 0.862707 0.471942 0.325114
O O6 0.076776 0.554771 0.394868
O O7 0.052974 0.646988 0.617282
O O8 0.500000 0.377479 0.250000
O O9 0.544501 0.264905 0.380707
O O10 0.675520 0.383837 0.480073
#
# Coordination Sequence:
#
# PCOD9268117 Si02
#       6
#     8   4   4   8   4   8
#     4  10  21  39  61  99 144 193 227 270 324 416
#     4   9  22  40  73  96 130 176 233 307 358 400
#     4   9  18  36  64  92 146 180 214 275 332 410
#     4  10  21  39  64  95 141 186 228 276 343 409
#     4  10  20  36  63  90 140 188 227 266 328 404
#     4  10  19  42  66 101 132 177 235 289 357 410
#
# _framework density 24.342209
#
# number of rings (size 3 to 8) (size 9 to 14) (size 15 to 20)
#    1.333    0.889    2.222    0.667    0.000    3.556 
#    2.000   13.333    0.000    0.000    0.000    0.000 
#    0.000    1.778    0.000    0.000    0.000    0.000 
#
# Total GULP energy -100443.581311 kJ/mol
# GULP energy per Si atom -5580.198962 kJ/mol
# Density = 2.428680 g / cm^3
# Si number density = 24.342209 Si / 1000 Ang^3
#
#
#
# Elastic Constant Matrix: (Units=GPa)
#
#
# Indices 1 2 3 4 5 6 
#
# 1 174.8530 26.5841 80.5928 0.0000 -38.2642 0.0000
# 2 26.5841 46.8489 59.2474 0.0000 -1.6696 0.0000
# 3 80.5928 59.2474 133.1393 0.0000 -19.8617 0.0000
# 4 0.0000 0.0000 0.0000 73.1424 0.0000 63.2078
# 5 -38.2642 -1.6696 -19.8617 0.0000 50.7029 0.0000
# 6 0.0000 0.0000 0.0000 63.2078 0.0000 86.0105
#
#
#
# Elastic Compliance Matrix: (Units=1/GPa)
#
#
# Indices 1 2 3 4 5 6 
#
# 1 0.009076 0.002497 -0.005917 0.000000 0.004614 0.000000
# 2 0.002497 0.052215 -0.025712 0.000000 -0.006468 0.000000
# 3 -0.005917 -0.025712 0.023092 0.000000 0.003733 0.000000
# 4 0.000000 0.000000 0.000000 0.037464 0.000000 -0.027532
# 5 0.004614 -0.006468 0.003733 0.000000 0.024454 0.000000
# 6 0.000000 0.000000 0.000000 -0.027532 0.000000 0.031859
#
#
# Mechanical properties :
#
#
# Convention : Reuss Voigt Hill
#
# Bulk Modulus (GPa) = 38.28710 76.40997 57.34853
# Shear Modulus (GPa) = 20.39724 54.53229 37.46476
#
# Velocity S-wave (km/s) = 2.89785 4.73825 3.92738
# Velocity P-wave (km/s) = 5.19226 7.83535 6.64651
#
# Compressibility (1/GPa) = 0.02611846
#
# Stress axis : x y z
#
# Youngs Moduli (GPa) = 110.17478 19.15172 43.30563
#
# Poissons Ratio (x) = -0.04783 0.25625
# Poissons Ratio (y) = -0.27513 1.11348
# Poissons Ratio (z) = 0.65192 0.49243
#
# Static dielectric constant tensor:
#      x y z
#    x 1.967020 0.000000 0.059380 
#    y 0.000000 1.953320 0.000000 
#    z 0.059380 0.000000 2.051860 
# 
# From -- ./inp_files/23121.got.cif
#   From: 2010.05.17/outbox.cif.g08.bks.cpg/sg15_12_cif.got.tgz:23121.got - 2010.06.03 18:47:42.
