data_PCOD9268074
_publ_section_title
;
Structure prediction by ZEFSAII (Michael W. Deem and Ramdas Pophale) SiO2 
 PCOD9268074
Probable space group: C 2/C
;
_chemical_formula_sum "Si O2"
_cell_formula_units_Z 56
_cell_length_a 10.032050
_cell_length_b 27.748711
_cell_length_c 10.945126
_cell_angle_alpha 90.000000
_cell_angle_beta 62.723981
_cell_angle_gamma 90.000000
_cell_volume 2708.081749
_symmetry_space_group_name_H-M "C 2/C"
_symmetry_group_IT_number 15
_symmetry_cell_setting 'monoclinic'
loop_
_space_group_symop_operation_xyz
x,y,z
-x,y,1/2-z
-x,-y,-z
x,-y,1/2+z
1/2+x,1/2+y,z
1/2-x,1/2+y,1/2-z
1/2-x,1/2-y,-z
1/2+x,1/2-y,1/2+z
loop_
_atom_site_type_symbol
_atom_site_label
_atom_site_fract_x
_atom_site_fract_y
_atom_site_fract_z
Si Si1 0.146934 0.420433 0.750292
Si Si2 0.197673 0.836004 0.969239
Si Si3 0.198395 0.338291 0.295918
Si Si4 0.117947 0.342051 0.962343
Si Si5 0.849913 0.742230 0.244559
Si Si6 0.118974 0.128925 0.987802
Si Si7 0.539239 0.468841 0.865497
O O1 0.206961 0.378055 0.636181
O O2 0.107580 0.391704 0.890235
O O3 0.285217 0.455949 0.708967
O O4 0.000000 0.442320 0.750000
O O5 0.253818 0.786454 0.886215
O O6 0.231309 0.840964 0.097693
O O7 0.026172 0.843932 0.003477
O O8 0.254691 0.285682 0.228899
O O9 0.269969 0.377158 0.174518
O O10 0.020505 0.340449 0.386895
O O11 0.105397 0.297194 0.875469
O O12 0.280482 0.342589 0.956820
O O13 0.000000 0.759704 0.250000
O O14 0.055551 0.080665 0.077093
O O15 0.500000 0.490747 0.750000
O O16 0.500000 0.500000 0.000000
#
# Coordination Sequence:
#
# PCOD9268074 Si02
#       7
#     8   8   8   8   8   8   8
#     4  10  19  41  71  95 124 174 216 259 328 403
#     4  10  20  37  63  87 124 179 229 274 326 382
#     4  12  23  38  60  91 132 177 232 281 320 389
#     4  11  22  42  60  88 134 178 223 269 336 382
#     4  11  22  37  61  87 129 182 239 287 318 371
#     4  11  25  41  64  94 129 173 214 274 340 393
#     4  11  25  48  77 104 136 167 212 276 343 421
#
# _framework density 20.678844000000002
#
# number of rings (size 3 to 8) (size 9 to 14) (size 15 to 20)
#    0.000    1.143    4.286    3.000    2.000    2.857 
#    2.571    2.143    0.000    0.000    0.000    0.000 
#    0.000    0.000    0.000    0.000    0.000    0.000 
#
# Total GULP energy -156522.782629 kJ/mol
# GULP energy per Si atom -5590.099380 kJ/mol
# Density = 2.063178 g / cm^3
# Si number density = 20.678844 Si / 1000 Ang^3
#
#
#
# Elastic Constant Matrix: (Units=GPa)
#
#
# Indices 1 2 3 4 5 6 
#
# 1 118.5087 24.6011 24.0857 0.0000 -15.2655 0.0000
# 2 24.6011 25.8045 13.3789 0.0000 -5.4826 0.0000
# 3 24.0857 13.3789 97.7821 0.0000 -4.5107 0.0000
# 4 0.0000 0.0000 0.0000 13.1776 0.0000 12.5191
# 5 -15.2655 -5.4826 -4.5107 0.0000 40.5311 0.0000
# 6 0.0000 0.0000 0.0000 12.5191 0.0000 8.8233
#
#
#
# Elastic Compliance Matrix: (Units=1/GPa)
#
#
# Indices 1 2 3 4 5 6 
#
# 1 0.010967 -0.009190 -0.001317 0.000000 0.002741 0.000000
# 2 -0.009190 0.050460 -0.004508 0.000000 0.002863 0.000000
# 3 -0.001317 -0.004508 0.011175 0.000000 0.000138 0.000000
# 4 0.000000 0.000000 0.000000 -0.218083 0.000000 0.309431
# 5 0.002741 0.002863 0.000138 0.000000 0.026107 0.000000
# 6 0.000000 0.000000 0.000000 0.309431 0.000000 -0.325707
#
#
# Mechanical properties :
#
#
# Convention : Reuss Voigt Hill
#
# Bulk Modulus (GPa) = 23.49089 40.69185 32.09137
# Shear Modulus (GPa) = -12.47320 24.50836 6.01758
#
# Velocity S-wave (km/s) = -2.45865 3.44639 1.70773
# Velocity P-wave (km/s) = 1.82334 5.96302 4.40920
#
# Compressibility (1/GPa) = 0.04256970
#
# Stress axis : x y z
#
# Youngs Moduli (GPa) = 91.18496 19.81766 89.48908
#
# Poissons Ratio (x) = 0.18212 0.11790
# Poissons Ratio (y) = 0.83798 0.40345
# Poissons Ratio (z) = 0.12014 0.08935
#
# Static dielectric constant tensor:
#      x y z
#    x 1.743390 0.000000 0.008380 
#    y 0.000000 1.715620 0.000000 
#    z 0.008380 0.000000 1.775310 
# 
# From -- ./inp_files/82453.got.cif
#   From: 2010.05.17/outbox.cif.g08.bks.cpg/sg15_42_cif.got.tgz:82453.got - 2010.06.03 18:47:42.
