data_PCOD9268931
_publ_section_title
;
Structure prediction by ZEFSAII (Michael W. Deem and Ramdas Pophale) SiO2 
 PCOD9268931
Probable space group: C 2/C
;
_chemical_formula_sum "Si O2"
_cell_formula_units_Z 56
_cell_length_a 11.117245
_cell_length_b 27.105988
_cell_length_c 9.602710
_cell_angle_alpha 90.000000
_cell_angle_beta 68.499515
_cell_angle_gamma 90.000000
_cell_volume 2692.357248
_symmetry_space_group_name_H-M "C 2/C"
_symmetry_group_IT_number 15
_symmetry_cell_setting 'monoclinic'
loop_
_space_group_symop_operation_xyz
x,y,z
-x,y,1/2-z
-x,-y,-z
x,-y,1/2+z
1/2+x,1/2+y,z
1/2-x,1/2+y,1/2-z
1/2-x,1/2-y,-z
1/2+x,1/2-y,1/2+z
loop_
_atom_site_type_symbol
_atom_site_label
_atom_site_fract_x
_atom_site_fract_y
_atom_site_fract_z
Si Si1 0.515229 0.220796 0.027546
Si Si2 0.241261 0.691723 0.465318
Si Si3 0.000000 0.196842 0.750000
Si Si4 0.738077 0.150922 0.973858
Si Si5 0.648518 0.114268 0.723875
Si Si6 0.626509 0.559802 0.502165
Si Si7 0.344320 0.463781 0.187217
Si Si8 0.000000 0.778872 0.750000
O O1 0.389625 0.186030 0.069092
O O2 0.470712 0.267740 0.133723
O O3 0.641551 0.196454 0.046268
O O4 0.539461 0.242529 0.861698
O O5 0.250000 0.750000 0.500000
O O6 0.220350 0.656716 0.605557
O O7 0.378229 0.686247 0.333321
O O8 0.126646 0.167759 0.651275
O O9 0.660033 0.126197 0.881422
O O10 0.786453 0.108509 0.058196
O O11 0.500000 0.113146 0.750000
O O12 0.721853 0.063065 0.672826
O O13 0.644052 0.518600 0.377334
O O14 0.661667 0.538868 0.642229
O O15 0.471866 0.566924 0.584751
#
# Coordination Sequence:
#
# PCOD9268931 Si02
#       8
#     8   8   4   8   8   8   8   4
#     4  11  21  37  55  83 120 163 204 249 296 354
#     4  10  20  33  56  85 118 156 202 250 289 343
#     4  12  24  36  56  85 122 165 204 248 298 356
#     4  11  20  36  59  84 118 163 203 244 302 364
#     4  11  20  37  63  90 118 160 205 244 300 369
#     4   9  19  37  64  88 118 149 197 251 302 359
#     4   9  19  38  61  91 114 152 194 250 303 360
#     4  10  20  36  58  83 116 161 210 254 290 344
#
# _framework density 20.799616
#
# number of rings (size 3 to 8) (size 9 to 14) (size 15 to 20)
#    0.000    1.714    1.429    6.429    1.000    0.000 
#    0.000    8.571    1.571    0.000    0.000    0.000 
#    0.000    0.000    0.000    0.000    0.000    0.000 
#
# Total GULP energy -156207.891247 kJ/mol
# GULP energy per Si atom -5578.853259 kJ/mol
# Density = 2.075228 g / cm^3
# Si number density = 20.799616 Si / 1000 Ang^3
#
#
#
# Elastic Constant Matrix: (Units=GPa)
#
#
# Indices 1 2 3 4 5 6 
#
# 1 110.2487 28.5921 12.8780 0.0000 -24.6668 0.0000
# 2 28.5921 42.9562 7.2786 0.0000 -6.7210 0.0000
# 3 12.8780 7.2786 39.4140 0.0000 -5.7440 0.0000
# 4 0.0000 0.0000 0.0000 23.9791 0.0000 6.9411
# 5 -24.6668 -6.7210 -5.7440 0.0000 30.6044 0.0000
# 6 0.0000 0.0000 0.0000 6.9411 0.0000 33.0039
#
#
#
# Elastic Compliance Matrix: (Units=1/GPa)
#
#
# Indices 1 2 3 4 5 6 
#
# 1 0.013024 -0.007030 -0.001699 0.000000 0.008634 0.000000
# 2 -0.007030 0.028464 -0.002955 0.000000 0.000030 0.000000
# 3 -0.001699 -0.002955 0.026915 0.000000 0.003033 0.000000
# 4 0.000000 0.000000 0.000000 0.044406 0.000000 -0.009339
# 5 0.008634 0.000030 0.003033 0.000000 0.040210 0.000000
# 6 0.000000 0.000000 0.000000 -0.009339 0.000000 0.032264
#
#
# Mechanical properties :
#
#
# Convention : Reuss Voigt Hill
#
# Bulk Modulus (GPa) = 22.20508 32.23514 27.22011
# Shear Modulus (GPa) = 22.35514 27.10882 24.73198
#
# Velocity S-wave (km/s) = 3.28195 3.61409 3.45201
# Velocity P-wave (km/s) = 5.00604 5.73996 5.38552
#
# Compressibility (1/GPa) = 0.04503474
#
# Stress axis : x y z
#
# Youngs Moduli (GPa) = 76.78221 35.13179 37.15469
#
# Poissons Ratio (x) = 0.24698 0.06312
# Poissons Ratio (y) = 0.53978 0.10980
# Poissons Ratio (z) = 0.13044 0.10382
#
# Static dielectric constant tensor:
#      x y z
#    x 1.822940 0.000000 -0.038130 
#    y 0.000000 1.776580 0.000000 
#    z -0.038130 0.000000 1.880450 
# 
# From -- ./inp_files/34253.got.cif
#   From: 2010.05.17/outbox.cif.g08.bks.cpg/sg15_18_cif.got.tgz:34253.got - 2010.06.03 18:47:42.
