data_PCOD9268738
_publ_section_title
;
Structure prediction by ZEFSAII (Michael W. Deem and Ramdas Pophale) SiO2 
 PCOD9268738
Probable space group: C 2/C
;
_chemical_formula_sum "Si O2"
_cell_formula_units_Z 48
_cell_length_a 15.704972
_cell_length_b 10.895883
_cell_length_c 25.199470
_cell_angle_alpha 90.000000
_cell_angle_beta 25.644678
_cell_angle_gamma 90.000000
_cell_volume 1866.238156
_symmetry_space_group_name_H-M "C 2/C"
_symmetry_group_IT_number 15
_symmetry_cell_setting 'monoclinic'
loop_
_space_group_symop_operation_xyz
x,y,z
-x,y,1/2-z
-x,-y,-z
x,-y,1/2+z
1/2+x,1/2+y,z
1/2-x,1/2+y,1/2-z
1/2-x,1/2-y,-z
1/2+x,1/2-y,1/2+z
loop_
_atom_site_type_symbol
_atom_site_label
_atom_site_fract_x
_atom_site_fract_y
_atom_site_fract_z
Si Si1 0.759032 0.456446 0.468419
Si Si2 0.765632 0.296781 0.371345
Si Si3 0.277664 0.045068 0.169117
Si Si4 0.770619 0.551291 0.570097
Si Si5 0.733301 0.020242 0.204640
Si Si6 0.765184 0.322692 0.890125
O O1 0.703211 0.334722 0.466605
O O2 0.687749 0.470854 0.568651
O O3 0.693023 0.569265 0.468746
O O4 0.996014 0.488600 0.338308
O O5 0.721753 0.173890 0.363176
O O6 0.700138 0.404932 0.368195
O O7 0.000000 0.297819 0.250000
O O8 0.181737 0.957086 0.179079
O O9 0.199159 0.038555 0.272938
O O10 0.504525 0.006966 0.050010
O O11 0.784772 0.696111 0.553125
O O12 0.792984 0.141416 0.137416
O O13 0.000000 0.326009 0.750000
#
# Coordination Sequence:
#
# PCOD9268738 Si02
#       6
#     8   8   8   8   8   8
#     4   8  16  34  54  75 100 139 172 210 259 312
#     4   9  18  35  58  75 103 141 180 210 251 309
#     4  10  21  33  51  77 108 141 167 209 265 311
#     4  10  20  33  51  76 110 136 171 210 264 310
#     4   8  17  33  53  77 101 136 175 209 261 309
#     4   9  17  32  57  76  97 134 179 218 250 301
#
# _framework density 25.720189999999999
#
# number of rings (size 3 to 8) (size 9 to 14) (size 15 to 20)
#    0.000    3.000    0.000    2.500    2.333    1.333 
#    0.000    3.333    7.333    0.000    0.000    0.000 
#    0.000    0.000    0.000    0.000    0.000    0.000 
#
# Total GULP energy -133839.471695 kJ/mol
# GULP energy per Si atom -5576.644654 kJ/mol
# Density = 2.566165 g / cm^3
# Si number density = 25.720190 Si / 1000 Ang^3
#
#
#
# Elastic Constant Matrix: (Units=GPa)
#
#
# Indices 1 2 3 4 5 6 
#
# 1 203.7830 37.4628 48.2298 -0.0023 43.9730 0.0026
# 2 37.4628 93.5832 -12.9150 0.0021 25.1673 0.0006
# 3 48.2298 -12.9150 89.6151 -0.0026 8.9400 0.0079
# 4 -0.0023 0.0021 -0.0026 15.6390 0.0056 3.3426
# 5 43.9730 25.1673 8.9400 0.0056 49.1892 -0.0023
# 6 0.0026 0.0006 0.0079 3.3426 -0.0023 32.2492
#
#
#
# Elastic Compliance Matrix: (Units=1/GPa)
#
#
# Indices 1 2 3 4 5 6 
#
# 1 0.007182 -0.002135 -0.003709 0.000002 -0.004654 0.000000
# 2 -0.002135 0.013583 0.003676 0.000001 -0.005709 -0.000001
# 3 -0.003709 0.003676 0.013791 0.000002 -0.001072 -0.000003
# 4 0.000002 0.000001 0.000002 0.065391 -0.000011 -0.006778
# 5 -0.004654 -0.005709 -0.001072 -0.000011 0.027606 0.000004
# 6 0.000000 -0.000001 -0.000003 -0.006778 0.000004 0.031711
#
#
# Mechanical properties :
#
#
# Convention : Reuss Voigt Hill
#
# Bulk Modulus (GPa) = 33.08940 59.17071 46.13005
# Shear Modulus (GPa) = 28.78977 40.36239 34.57608
#
# Velocity S-wave (km/s) = 3.34929 3.96572 3.67047
# Velocity P-wave (km/s) = 5.27732 6.63512 5.99478
#
# Compressibility (1/GPa) = 0.03022116
#
# Stress axis : x y z
#
# Youngs Moduli (GPa) = 139.24528 73.62082 72.50850
#
# Poissons Ratio (x) = 0.15720 0.26890
# Poissons Ratio (y) = 0.29732 -0.26656
# Poissons Ratio (z) = 0.51639 -0.27065
#
# Static dielectric constant tensor:
#      x y z
#    x 2.058500 0.000000 -0.037980 
#    y 0.000000 2.012320 0.000000 
#    z -0.037980 0.000000 2.103790 
# 
# From -- ./inp_files/151923.got.cif
#   From: 2010.05.17/outbox.cif.g08.bks.cpg/sg15_76_cif.got.tgz:151923.got - 2010.06.03 18:47:42.
