data_PCOD9268161
_publ_section_title
;
Structure prediction by ZEFSAII (Michael W. Deem and Ramdas Pophale) SiO2 
 PCOD9268161
Probable space group: C 2/C
;
_chemical_formula_sum "Si O2"
_cell_formula_units_Z 44
_cell_length_a 7.627271
_cell_length_b 12.259946
_cell_length_c 22.374243
_cell_angle_alpha 90.000000
_cell_angle_beta 58.593610
_cell_angle_gamma 90.000000
_cell_volume 1785.689269
_symmetry_space_group_name_H-M "C 2/C"
_symmetry_group_IT_number 15
_symmetry_cell_setting 'monoclinic'
loop_
_space_group_symop_operation_xyz
x,y,z
-x,y,1/2-z
-x,-y,-z
x,-y,1/2+z
1/2+x,1/2+y,z
1/2-x,1/2+y,1/2-z
1/2-x,1/2-y,-z
1/2+x,1/2-y,1/2+z
loop_
_atom_site_type_symbol
_atom_site_label
_atom_site_fract_x
_atom_site_fract_y
_atom_site_fract_z
Si Si1 0.513896 0.846759 0.637498
Si Si2 0.385248 0.886254 0.528664
Si Si3 0.978129 0.847580 0.525826
Si Si4 0.500000 0.787426 0.250000
Si Si5 0.344010 0.576876 0.227721
Si Si6 0.897345 0.112637 0.631780
O O1 0.381242 0.864903 0.600413
O O2 0.508487 0.714890 0.645808
O O3 0.832328 0.119079 0.465882
O O4 0.391391 0.917019 0.708154
O O5 0.513673 0.784477 0.479750
O O6 0.500000 0.000000 0.500000
O O7 0.896736 0.794453 0.719972
O O8 0.027439 0.887069 0.449610
O O9 0.747860 0.879818 0.584651
O O10 0.338956 0.854584 0.316371
O O11 0.500000 0.531603 0.250000
O O12 0.403800 0.503626 0.161923
#
# Coordination Sequence:
#
# PCOD9268161 Si02
#       6
#     8   8   8   4   8   8
#     4  10  22  44  72 108 149 184 255 309 362 457
#     4  10  22  42  73 106 148 193 233 301 381 447
#     4  10  23  44  72 110 145 190 243 317 374 433
#     4   8  20  40  66  96 138 188 246 294 358 456
#     4   9  21  42  70  98 141 202 238 296 382 435
#     4  10  19  42  74  99 146 190 242 308 369 442
#
# _framework density 24.640346000000001
#
# number of rings (size 3 to 8) (size 9 to 14) (size 15 to 20)
#    0.545    1.818    0.000    2.182    0.000    5.091 
#    0.000   10.909   24.000    0.000    0.000    0.000 
#    0.000    0.000    0.000    0.000    0.000    0.000 
#
# Total GULP energy -122994.955008 kJ/mol
# GULP energy per Si atom -5590.679773 kJ/mol
# Density = 2.458426 g / cm^3
# Si number density = 24.640346 Si / 1000 Ang^3
#
#
#
# Elastic Constant Matrix: (Units=GPa)
#
#
# Indices 1 2 3 4 5 6 
#
# 1 135.0371 44.1095 82.8887 -0.0001 -18.1312 0.0001
# 2 44.1095 117.6916 64.8025 0.0000 0.1478 0.0000
# 3 82.8887 64.8025 118.9176 0.0000 -19.3775 0.0001
# 4 -0.0001 0.0000 0.0000 -16.4506 0.0001 -27.3257
# 5 -18.1312 0.1478 -19.3775 0.0001 48.8644 -0.0001
# 6 0.0001 0.0000 0.0001 -27.3257 -0.0001 25.6697
#
#
#
# Elastic Compliance Matrix: (Units=1/GPa)
#
#
# Indices 1 2 3 4 5 6 
#
# 1 0.013022 -0.000004 -0.008860 0.000000 0.001318 0.000000
# 2 -0.000004 0.012520 -0.007298 0.000000 -0.002933 0.000000
# 3 -0.008860 -0.007298 0.019275 0.000000 0.004378 0.000000
# 4 0.000000 0.000000 0.000000 -0.021959 0.000000 -0.023376
# 5 0.001318 -0.002933 0.004378 0.000000 0.022699 0.000000
# 6 0.000000 0.000000 0.000000 -0.023376 0.000000 0.014073
#
#
# Mechanical properties :
#
#
# Convention : Reuss Voigt Hill
#
# Bulk Modulus (GPa) = 80.03816 83.91643 81.97729
# Shear Modulus (GPa) = 52.01948 23.60640 37.81294
#
# Velocity S-wave (km/s) = 4.59971 3.09858 3.92164
# Velocity P-wave (km/s) = 7.79505 6.85070 7.33808
#
# Compressibility (1/GPa) = 0.01249404
#
# Stress axis : x y z
#
# Youngs Moduli (GPa) = 76.79366 79.87008 51.88065
#
# Poissons Ratio (x) = 0.00031 0.45964
# Poissons Ratio (y) = 0.00030 0.37863
# Poissons Ratio (z) = 0.68036 0.58290
#
# Static dielectric constant tensor:
#      x y z
#    x 2.000820 0.000000 0.022560 
#    y 0.000000 2.021930 0.000000 
#    z 0.022560 0.000000 1.971200 
# 
# From -- ./inp_files/196457.got.cif
#   From: 2010.05.17/outbox.cif.g08.bks.cpg/sg15_99_cif.got.tgz:196457.got - 2010.06.03 18:47:42.
