data_PCOD9268041
_publ_section_title
;
Structure prediction by ZEFSAII (Michael W. Deem and Ramdas Pophale) SiO2 
 PCOD9268041
Probable space group: C 2/C
;
_chemical_formula_sum "Si O2"
_cell_formula_units_Z 60
_cell_length_a 11.747124
_cell_length_b 9.631839
_cell_length_c 30.681138
_cell_angle_alpha 90.000000
_cell_angle_beta 127.938802
_cell_angle_gamma 90.000000
_cell_volume 2737.829472
_symmetry_space_group_name_H-M "C 2/C"
_symmetry_group_IT_number 15
_symmetry_cell_setting 'monoclinic'
loop_
_space_group_symop_operation_xyz
x,y,z
-x,y,1/2-z
-x,-y,-z
x,-y,1/2+z
1/2+x,1/2+y,z
1/2-x,1/2+y,1/2-z
1/2-x,1/2-y,-z
1/2+x,1/2-y,1/2+z
loop_
_atom_site_type_symbol
_atom_site_label
_atom_site_fract_x
_atom_site_fract_y
_atom_site_fract_z
Si Si1 0.637359 0.167757 0.733850
Si Si2 0.189861 0.389005 0.556981
Si Si3 0.000000 0.087859 0.250000
Si Si4 0.837102 0.963265 0.344462
Si Si5 0.800162 0.732234 0.841935
Si Si6 0.836518 0.606338 0.614155
Si Si7 0.526601 0.987467 0.433559
Si Si8 0.096187 0.892578 0.352617
O O1 0.619792 0.308096 0.757949
O O2 0.699265 0.052635 0.780372
O O3 0.740896 0.185449 0.716472
O O4 0.481422 0.133059 0.676674
O O5 0.284867 0.250989 0.580770
O O6 0.114354 0.415274 0.493155
O O7 0.289213 0.521875 0.591521
O O8 0.064626 0.390284 0.564946
O O9 0.056104 0.996063 0.303155
O O10 0.788273 0.930514 0.381376
O O11 0.958913 0.869512 0.350866
O O12 0.881339 0.123349 0.354699
O O13 0.668361 0.736977 0.844779
O O14 0.907579 0.619023 0.886899
O O15 0.870840 0.495300 0.584261
#
# Coordination Sequence:
#
# PCOD9268041 Si02
#       8
#     8   8   4   8   8   8   8   8
#     4  11  21  40  59  81 117 163 206 256 300 371
#     4  10  19  41  68  89 116 158 215 261 312 379
#     4  12  18  40  60  82 112 156 212 246 298 374
#     4  12  23  39  56  88 130 162 204 252 319 385
#     4  10  23  40  59  88 125 156 209 260 308 376
#     4  11  21  38  60  86 121 160 201 257 312 368
#     4   9  21  39  67  93 113 158 215 264 310 376
#     4  11  22  38  61  88 119 164 202 255 318 373
#
# _framework density 21.915171000000001
#
# number of rings (size 3 to 8) (size 9 to 14) (size 15 to 20)
#    0.000    1.333    4.000    2.000    0.000    1.067 
#    9.600    2.667    0.000    4.800    0.000    0.000 
#    0.000    0.000    0.000    0.000    0.000    0.000 
#
# Total GULP energy -167533.294192 kJ/mol
# GULP energy per Si atom -5584.443140 kJ/mol
# Density = 2.186529 g / cm^3
# Si number density = 21.915171 Si / 1000 Ang^3
#
#
#
# Elastic Constant Matrix: (Units=GPa)
#
#
# Indices 1 2 3 4 5 6 
#
# 1 158.6331 2.9616 36.4708 0.0000 -29.6481 0.0000
# 2 2.9616 14.7823 1.3576 0.0000 -3.1313 0.0000
# 3 36.4708 1.3576 58.1844 0.0000 -18.7936 0.0000
# 4 0.0000 0.0000 0.0000 11.0991 0.0000 -4.5578
# 5 -29.6481 -3.1313 -18.7936 0.0000 20.1888 0.0000
# 6 0.0000 0.0000 0.0000 -4.5578 0.0000 23.5117
#
#
#
# Elastic Compliance Matrix: (Units=1/GPa)
#
#
# Indices 1 2 3 4 5 6 
#
# 1 0.008846 0.000806 -0.001898 0.000000 0.011350 0.000000
# 2 0.000806 0.070313 0.002515 0.000000 0.014431 0.000000
# 3 -0.001898 0.002515 0.025086 0.000000 0.020956 0.000000
# 4 0.000000 0.000000 0.000000 0.097889 0.000000 0.018976
# 5 0.011350 0.014431 0.020956 0.000000 0.087946 0.000000
# 6 0.000000 0.000000 0.000000 0.018976 0.000000 0.046211
#
#
# Mechanical properties :
#
#
# Convention : Reuss Voigt Hill
#
# Bulk Modulus (GPa) = 9.33771 34.79775 22.06773
# Shear Modulus (GPa) = 13.54493 23.68057 18.61275
#
# Velocity S-wave (km/s) = 2.48878 3.29075 2.91745
# Velocity P-wave (km/s) = 3.53961 5.50922 4.63035
#
# Compressibility (1/GPa) = 0.10709267
#
# Stress axis : x y z
#
# Youngs Moduli (GPa) = 113.04098 14.22216 39.86222
#
# Poissons Ratio (x) = -0.01147 0.07565
# Poissons Ratio (y) = -0.09113 -0.10027
# Poissons Ratio (z) = 0.21454 -0.03577
#
# Static dielectric constant tensor:
#      x y z
#    x 1.922380 0.000000 0.007160 
#    y 0.000000 1.794700 0.000000 
#    z 0.007160 0.000000 1.759310 
# 
# From -- ./inp_files/310830.got.cif
#   From: 2010.05.17/outbox.cif.g08.bks.cpg/sg15_156_cif.got.tgz:310830.got - 2010.06.03 18:47:42.
