data_PCOD9268762
_publ_section_title
;
Structure prediction by ZEFSAII (Michael W. Deem and Ramdas Pophale) SiO2 
 PCOD9268762
Probable space group: C 2/C
;
_chemical_formula_sum "Si O2"
_cell_formula_units_Z 56
_cell_length_a 19.923970
_cell_length_b 10.381892
_cell_length_c 13.422969
_cell_angle_alpha 90.000000
_cell_angle_beta 85.362340
_cell_angle_gamma 90.000000
_cell_volume 2767.430596
_symmetry_space_group_name_H-M "C 2/C"
_symmetry_group_IT_number 15
_symmetry_cell_setting 'monoclinic'
loop_
_space_group_symop_operation_xyz
x,y,z
-x,y,1/2-z
-x,-y,-z
x,-y,1/2+z
1/2+x,1/2+y,z
1/2-x,1/2+y,1/2-z
1/2-x,1/2-y,-z
1/2+x,1/2-y,1/2+z
loop_
_atom_site_type_symbol
_atom_site_label
_atom_site_fract_x
_atom_site_fract_y
_atom_site_fract_z
Si Si1 0.195831 0.495263 0.472125
Si Si2 0.923130 0.931594 0.424211
Si Si3 0.861205 0.306777 0.379047
Si Si4 0.620740 0.154947 0.840803
Si Si5 0.683162 0.476815 0.692483
Si Si6 0.995862 0.797868 0.936297
Si Si7 0.697536 0.394993 0.905579
O O1 0.187906 0.624373 0.537681
O O2 0.127272 0.451649 0.426275
O O3 0.248840 0.503115 0.376271
O O4 0.231935 0.399315 0.545875
O O5 0.863766 0.942102 0.515632
O O6 0.969464 0.816263 0.459519
O O7 0.877546 0.927752 0.331297
O O8 0.970579 0.057674 0.412118
O O9 0.870137 0.385445 0.274632
O O10 0.840386 0.165357 0.341984
O O11 0.930841 0.288858 0.429680
O O12 0.679196 0.254016 0.867997
O O13 0.553156 0.239466 0.858464
O O14 0.697036 0.481329 0.807217
#
# Coordination Sequence:
#
# PCOD9268762 Si02
#       7
#     8   8   8   8   8   8   8
#     4  11  20  32  50  76 108 139 172 212 258 307
#     4   8  16  31  56  79  98 126 168 218 260 300
#     4  10  20  33  52  74  99 137 177 214 258 310
#     4  10  20  33  52  74  99 137 177 214 258 310
#     4   9  18  33  53  77 102 131 172 218 264 310
#     4   9  17  33  51  73 102 129 165 209 253 302
#     4   9  18  33  53  77 102 131 172 218 264 310
#
# _framework density 20.235375999999999
#
# number of rings (size 3 to 8) (size 9 to 14) (size 15 to 20)
#    0.000    2.571    0.000    2.143    0.000    1.714 
#    0.000    2.143    0.000   10.286    0.000    0.000 
#    0.000    0.000    0.000    0.000    0.000    0.000 
#
# Total GULP energy -155888.727766 kJ/mol
# GULP energy per Si atom -5567.454563 kJ/mol
# Density = 2.018932 g / cm^3
# Si number density = 20.235376 Si / 1000 Ang^3
#
#
#
# Elastic Constant Matrix: (Units=GPa)
#
#
# Indices 1 2 3 4 5 6 
#
# 1 67.4781 16.0303 22.8870 0.0000 11.7663 0.0000
# 2 16.0303 19.5080 18.6607 0.0000 5.8774 0.0000
# 3 22.8870 18.6607 88.7698 0.0000 21.5465 0.0000
# 4 0.0000 0.0000 0.0000 27.3427 0.0000 5.0662
# 5 11.7663 5.8774 21.5465 0.0000 17.0203 0.0000
# 6 0.0000 0.0000 0.0000 5.0662 0.0000 15.1904
#
#
#
# Elastic Compliance Matrix: (Units=1/GPa)
#
#
# Indices 1 2 3 4 5 6 
#
# 1 0.019551 -0.013315 -0.000111 0.000000 -0.008777 0.000000
# 2 -0.013315 0.073872 -0.011748 0.000000 -0.001432 0.000000
# 3 -0.000111 -0.011748 0.018420 0.000000 -0.019185 0.000000
# 4 0.000000 0.000000 0.000000 0.038982 0.000000 -0.013001
# 5 -0.008777 -0.001432 -0.019185 0.000000 0.089602 0.000000
# 6 0.000000 0.000000 0.000000 -0.013001 0.000000 0.070167
#
#
# Mechanical properties :
#
#
# Convention : Reuss Voigt Hill
#
# Bulk Modulus (GPa) = 16.26188 32.32355 24.29271
# Shear Modulus (GPa) = 13.10822 19.78920 16.44871
#
# Velocity S-wave (km/s) = 2.54793 3.13061 2.85418
# Velocity P-wave (km/s) = 4.08775 5.39223 4.78465
#
# Compressibility (1/GPa) = 0.06149351
#
# Stress axis : x y z
#
# Youngs Moduli (GPa) = 51.14848 13.53699 54.28861
#
# Poissons Ratio (x) = 0.18024 0.00605
# Poissons Ratio (y) = 0.68102 0.63781
# Poissons Ratio (z) = 0.00570 0.15904
#
# Static dielectric constant tensor:
#      x y z
#    x 1.752000 0.000000 0.028730 
#    y 0.000000 1.772100 0.000000 
#    z 0.028730 0.000000 1.740310 
# 
# From -- ./inp_files/111050.got.cif
#   From: 2010.05.17/outbox.cif.g08.bks.cpg/sg15_56_cif.got.tgz:111050.got - 2010.06.03 18:47:42.
