data_PCOD9268434
_publ_section_title
;
Structure prediction by ZEFSAII (Michael W. Deem and Ramdas Pophale) SiO2 
 PCOD9268434
Probable space group: C 2/C
;
_chemical_formula_sum "Si O2"
_cell_formula_units_Z 60
_cell_length_a 15.264815
_cell_length_b 27.737939
_cell_length_c 9.336363
_cell_angle_alpha 90.000000
_cell_angle_beta 117.233239
_cell_angle_gamma 90.000000
_cell_volume 3514.948832
_symmetry_space_group_name_H-M "C 2/C"
_symmetry_group_IT_number 15
_symmetry_cell_setting 'monoclinic'
loop_
_space_group_symop_operation_xyz
x,y,z
-x,y,1/2-z
-x,-y,-z
x,-y,1/2+z
1/2+x,1/2+y,z
1/2-x,1/2+y,1/2-z
1/2-x,1/2-y,-z
1/2+x,1/2-y,1/2+z
loop_
_atom_site_type_symbol
_atom_site_label
_atom_site_fract_x
_atom_site_fract_y
_atom_site_fract_z
Si Si1 0.000000 0.241926 0.750000
Si Si2 0.190139 0.660465 0.122974
Si Si3 0.438254 0.073293 0.345742
Si Si4 0.654242 0.269227 0.154800
Si Si5 0.416210 0.970068 0.306418
Si Si6 0.874488 0.284975 0.406237
Si Si7 0.109929 0.371824 0.272201
Si Si8 0.892791 0.198289 0.200671
O O1 0.065207 0.212350 0.685717
O O2 0.924577 0.271853 0.593346
O O3 0.131902 0.616324 0.153172
O O4 0.146464 0.711114 0.143763
O O5 0.308969 0.666779 0.218128
O O6 0.167546 0.655978 0.937673
O O7 0.500000 0.086382 0.250000
O O8 0.523358 0.053809 0.517370
O O9 0.373978 0.023533 0.290202
O O10 0.756605 0.281204 0.308642
O O11 0.648912 0.286251 0.986568
O O12 0.500000 0.978161 0.250000
O O13 0.347247 0.925584 0.211603
O O14 0.898491 0.338842 0.373168
O O15 0.909377 0.246051 0.311686
O O16 0.000000 0.377799 0.250000
O O17 0.000000 0.176133 0.250000
#
# Coordination Sequence:
#
# PCOD9268434 Si02
#       8
#     4   8   8   8   8   8   8   8
#     4  12  24  32  50  72 116 150 162 228 278 316
#     4  11  20  33  56  78 102 142 187 221 261 317
#     4  10  20  32  48  78 115 139 169 214 263 332
#     4  11  22  36  52  79 104 146 184 228 261 325
#     4   9  18  31  50  73 108 147 173 201 259 327
#     4  11  21  35  52  78 108 141 188 216 270 315
#     4  11  17  30  54  76 100 142 179 210 253 326
#     4  11  20  38  59  74 101 143 196 236 256 305
#
# _framework density 17.069951
#
# number of rings (size 3 to 8) (size 9 to 14) (size 15 to 20)
#    0.000    1.333    6.667    2.400    0.933    0.000 
#    0.000    0.000    0.000    0.000    0.000    0.933 
#    2.000    0.000    0.000    0.000    0.000    0.000 
#
# Total GULP energy -167071.193727 kJ/mol
# GULP energy per Si atom -5569.039791 kJ/mol
# Density = 1.703110 g / cm^3
# Si number density = 17.069951 Si / 1000 Ang^3
#
#
#
# Elastic Constant Matrix: (Units=GPa)
#
#
# Indices 1 2 3 4 5 6 
#
# 1 79.8794 33.9353 22.3157 0.0000 -5.4211 0.0000
# 2 33.9353 90.7972 15.2399 0.0000 -3.2497 0.0000
# 3 22.3157 15.2399 87.0230 0.0000 -6.1425 0.0000
# 4 0.0000 0.0000 0.0000 11.2480 0.0000 -5.2768
# 5 -5.4211 -3.2497 -6.1425 0.0000 27.0299 0.0000
# 6 0.0000 0.0000 0.0000 -5.2768 0.0000 20.6854
#
#
#
# Elastic Compliance Matrix: (Units=1/GPa)
#
#
# Indices 1 2 3 4 5 6 
#
# 1 0.015733 -0.005315 -0.002974 0.000000 0.001841 0.000000
# 2 -0.005315 0.013166 -0.000921 0.000000 0.000308 0.000000
# 3 -0.002974 -0.000921 0.012567 0.000000 0.002149 0.000000
# 4 0.000000 0.000000 0.000000 0.100991 0.000000 0.025763
# 5 0.001841 0.000308 0.002149 0.000000 0.037891 0.000000
# 6 0.000000 0.000000 0.000000 0.025763 0.000000 0.054915
#
#
# Mechanical properties :
#
#
# Convention : Reuss Voigt Hill
#
# Bulk Modulus (GPa) = 43.39229 44.52018 43.95623
# Shear Modulus (GPa) = 19.13051 24.20657 21.66854
#
# Velocity S-wave (km/s) = 3.35134 3.76983 3.56672
# Velocity P-wave (km/s) = 6.36009 6.71464 6.53977
#
# Compressibility (1/GPa) = 0.02304557
#
# Stress axis : x y z
#
# Youngs Moduli (GPa) = 63.56262 75.95539 79.57536
#
# Poissons Ratio (x) = 0.40370 0.23663
# Poissons Ratio (y) = 0.33784 0.07329
# Poissons Ratio (z) = 0.18901 0.06995
#
# Static dielectric constant tensor:
#      x y z
#    x 1.625630 0.000000 -0.004790 
#    y 0.000000 1.662840 0.000000 
#    z -0.004790 0.000000 1.679540 
# 
# From -- ./inp_files/44305.got.cif
#   From: 2010.05.17/outbox.cif.g08.bks.cpg/sg15_23_cif.got.tgz:44305.got - 2010.06.03 18:47:42.
