data_PCOD9268886
_publ_section_title
;
Structure prediction by ZEFSAII (Michael W. Deem and Ramdas Pophale) SiO2 
 PCOD9268886
Probable space group: C 2/C
;
_chemical_formula_sum "Si O2"
_cell_formula_units_Z 60
_cell_length_a 25.309838
_cell_length_b 18.035572
_cell_length_c 5.404925
_cell_angle_alpha 90.000000
_cell_angle_beta 84.545296
_cell_angle_gamma 90.000000
_cell_volume 2456.053701
_symmetry_space_group_name_H-M "C 2/C"
_symmetry_group_IT_number 15
_symmetry_cell_setting 'monoclinic'
loop_
_space_group_symop_operation_xyz
x,y,z
-x,y,1/2-z
-x,-y,-z
x,-y,1/2+z
1/2+x,1/2+y,z
1/2-x,1/2+y,1/2-z
1/2-x,1/2-y,-z
1/2+x,1/2-y,1/2+z
loop_
_atom_site_type_symbol
_atom_site_label
_atom_site_fract_x
_atom_site_fract_y
_atom_site_fract_z
Si Si1 0.146598 0.467686 0.899552
Si Si2 0.000000 0.181461 0.250000
Si Si3 0.552401 0.792469 0.616602
Si Si4 0.095103 0.835385 0.425364
Si Si5 0.247524 0.568810 0.863614
Si Si6 0.795577 0.195848 0.574368
Si Si7 0.135192 0.958938 0.046647
Si Si8 0.837616 0.674799 0.354299
O O1 0.121543 0.499102 0.657474
O O2 0.206138 0.502609 0.843455
O O3 0.150000 0.378915 0.886909
O O4 0.032212 0.235464 0.419875
O O5 0.956383 0.134134 0.413762
O O6 0.500000 0.833248 0.750000
O O7 0.574209 0.743284 0.835039
O O8 0.607701 0.830072 0.514895
O O9 0.146996 0.820681 0.572197
O O10 0.111509 0.885127 0.182913
O O11 0.270829 0.615233 0.622917
O O12 0.300611 0.548135 0.985353
O O13 0.210901 0.632254 0.000321
O O14 0.750000 0.250000 0.500000
O O15 0.817052 0.243048 0.802265
O O16 0.121009 0.017223 0.274932
#
# Coordination Sequence:
#
# PCOD9268886 Si02
#       8
#     8   4   8   8   8   8   8   8
#     4  10  20  36  56  83 118 168 208 246 303 381
#     4  10  20  40  70  84 124 164 216 276 344 396
#     4   9  20  40  63  93 122 159 218 275 344 381
#     4   9  22  39  61  94 124 173 209 276 333 388
#     4  10  21  36  56  88 129 175 211 252 324 395
#     4  10  20  33  54  93 130 163 211 269 321 389
#     4  11  24  41  63  93 132 173 220 262 317 394
#     4  10  20  36  60  90 128 167 219 268 320 393
#
# _framework density 24.429435000000002
#
# number of rings (size 3 to 8) (size 9 to 14) (size 15 to 20)
#    0.000    2.133    0.000    2.800    3.733    3.200 
#    7.200    0.667    0.000    3.200    0.000    0.000 
#    0.000    0.000    0.000    0.000    0.000    0.000 
#
# Total GULP energy -167253.297307 kJ/mol
# GULP energy per Si atom -5575.109910 kJ/mol
# Density = 2.437383 g / cm^3
# Si number density = 24.429435 Si / 1000 Ang^3
#
#
#
# Elastic Constant Matrix: (Units=GPa)
#
#
# Indices 1 2 3 4 5 6 
#
# 1 109.0360 25.3354 37.7202 0.0000 -5.8837 0.0000
# 2 25.3354 94.2293 3.6979 0.0000 3.6832 0.0000
# 3 37.7202 3.6979 80.4127 0.0000 -6.0177 0.0000
# 4 0.0000 0.0000 0.0000 33.3830 0.0000 3.5182
# 5 -5.8837 3.6832 -6.0177 0.0000 32.8809 0.0000
# 6 0.0000 0.0000 0.0000 3.5182 0.0000 18.9233
#
#
#
# Elastic Compliance Matrix: (Units=1/GPa)
#
#
# Indices 1 2 3 4 5 6 
#
# 1 0.011777 -0.003017 -0.005275 0.000000 0.001480 0.000000
# 2 -0.003017 0.011460 0.000762 0.000000 -0.001684 0.000000
# 3 -0.005275 0.000762 0.015004 0.000000 0.001717 0.000000
# 4 0.000000 0.000000 0.000000 0.030554 0.000000 -0.005681
# 5 0.001480 -0.001684 0.001717 0.000000 0.031180 0.000000
# 6 0.000000 0.000000 0.000000 -0.005681 0.000000 0.053901
#
#
# Mechanical properties :
#
#
# Convention : Reuss Voigt Hill
#
# Bulk Modulus (GPa) = 43.13968 46.35389 44.74678
# Shear Modulus (GPa) = 28.30256 31.49906 29.90081
#
# Velocity S-wave (km/s) = 3.40743 3.59470 3.50232
# Velocity P-wave (km/s) = 5.76004 6.02038 5.89165
#
# Compressibility (1/GPa) = 0.02318052
#
# Stress axis : x y z
#
# Youngs Moduli (GPa) = 84.91088 87.26323 66.65063
#
# Poissons Ratio (x) = 0.26330 0.35157
# Poissons Ratio (y) = 0.25620 -0.05081
# Poissons Ratio (z) = 0.44790 -0.06653
#
# Static dielectric constant tensor:
#      x y z
#    x 2.055400 0.000000 -0.043250 
#    y 0.000000 1.997570 0.000000 
#    z -0.043250 0.000000 2.123090 
# 
# From -- ./inp_files/15842.got.cif
#   From: 2010.05.17/outbox.cif.g08.bks.cpg/sg15_8_cif.got.tgz:15842.got - 2010.06.03 18:47:42.
