data_PCOD9268304
_publ_section_title
;
Structure prediction by ZEFSAII (Michael W. Deem and Ramdas Pophale) SiO2 
 PCOD9268304
Probable space group: C 2/C
;
_chemical_formula_sum "Si O2"
_cell_formula_units_Z 52
_cell_length_a 12.625185
_cell_length_b 13.119937
_cell_length_c 21.732967
_cell_angle_alpha 90.000000
_cell_angle_beta 44.825850
_cell_angle_gamma 90.000000
_cell_volume 2537.753693
_symmetry_space_group_name_H-M "C 2/C"
_symmetry_group_IT_number 15
_symmetry_cell_setting 'monoclinic'
loop_
_space_group_symop_operation_xyz
x,y,z
-x,y,1/2-z
-x,-y,-z
x,-y,1/2+z
1/2+x,1/2+y,z
1/2-x,1/2+y,1/2-z
1/2-x,1/2-y,-z
1/2+x,1/2-y,1/2+z
loop_
_atom_site_type_symbol
_atom_site_label
_atom_site_fract_x
_atom_site_fract_y
_atom_site_fract_z
Si Si1 0.493904 0.900050 0.961253
Si Si2 0.656575 0.832630 0.783533
Si Si3 0.942047 0.109444 0.648810
Si Si4 0.753075 0.914996 0.545126
Si Si5 0.345361 0.030915 0.799440
Si Si6 0.210651 0.733203 0.879042
Si Si7 0.000000 0.913581 0.250000
O O1 0.641530 0.876187 0.859090
O O2 0.361582 0.912466 0.964627
O O3 0.440840 0.812812 0.030503
O O4 0.500000 0.000000 0.000000
O O5 0.557069 0.728779 0.831431
O O6 0.611303 0.928259 0.758107
O O7 0.794734 0.786853 0.685959
O O8 0.971925 0.037705 0.695650
O O9 0.076840 0.087107 0.547801
O O10 0.780006 0.087849 0.687743
O O11 0.723614 0.003525 0.606056
O O12 0.734284 0.814960 0.594243
O O13 0.500000 0.087455 0.750000
O O14 0.343380 0.649336 0.822316
#
# Coordination Sequence:
#
# PCOD9268304 Si02
#       7
#     8   8   8   8   8   8   4
#     4  12  23  35  62  97 129 161 210 269 321 369
#     4  10  23  38  62  93 124 163 212 263 316 372
#     4  11  22  38  64  90 124 161 216 261 320 373
#     4  11  20  38  59  89 122 160 210 260 313 378
#     4  11  24  39  63  89 128 169 211 258 320 382
#     4  10  20  36  59  90 126 156 205 268 316 366
#     4  10  20  30  58  94 118 150 202 266 322 350
#
# _framework density 20.490562000000001
#
# number of rings (size 3 to 8) (size 9 to 14) (size 15 to 20)
#    0.000    1.231    4.615    2.769    9.692    0.000 
#    0.000    0.000    5.077    0.923    0.000    0.000 
#    0.000    0.000    0.000    0.000    0.000    0.000 
#
# Total GULP energy -144740.703390 kJ/mol
# GULP energy per Si atom -5566.950130 kJ/mol
# Density = 2.044392 g / cm^3
# Si number density = 20.490562 Si / 1000 Ang^3
#
#
#
# Elastic Constant Matrix: (Units=GPa)
#
#
# Indices 1 2 3 4 5 6 
#
# 1 68.9729 21.9435 47.2676 0.0000 -4.1909 0.0000
# 2 21.9435 39.2429 27.1154 0.0000 9.4502 0.0000
# 3 47.2676 27.1154 163.5338 0.0000 26.5120 0.0000
# 4 0.0000 0.0000 0.0000 19.5018 0.0000 10.8543
# 5 -4.1909 9.4502 26.5120 0.0000 30.0246 0.0000
# 6 0.0000 0.0000 0.0000 10.8543 0.0000 21.2666
#
#
#
# Elastic Compliance Matrix: (Units=1/GPa)
#
#
# Indices 1 2 3 4 5 6 
#
# 1 0.023897 -0.011635 -0.007133 0.000000 0.013297 0.000000
# 2 -0.011635 0.035291 -0.000495 0.000000 -0.012295 0.000000
# 3 -0.007133 -0.000495 0.009798 0.000000 -0.009491 0.000000
# 4 0.000000 0.000000 0.000000 0.071624 0.000000 -0.036556
# 5 0.013297 -0.012295 -0.009491 0.000000 0.047413 0.000000
# 6 0.000000 0.000000 0.000000 -0.036556 0.000000 0.065680
#
#
# Mechanical properties :
#
#
# Convention : Reuss Voigt Hill
#
# Bulk Modulus (GPa) = 32.83283 51.60030 42.21656
# Shear Modulus (GPa) = 16.53531 25.85350 21.19441
#
# Velocity S-wave (km/s) = 2.84381 3.55593 3.21962
# Velocity P-wave (km/s) = 5.18085 6.48820 5.87102
#
# Compressibility (1/GPa) = 0.03045732
#
# Stress axis : x y z
#
# Youngs Moduli (GPa) = 41.84666 28.33548 102.06537
#
# Poissons Ratio (x) = 0.32969 0.72808
# Poissons Ratio (y) = 0.48690 0.05056
# Poissons Ratio (z) = 0.29851 0.01404
#
# Static dielectric constant tensor:
#      x y z
#    x 1.734030 0.000000 0.003730 
#    y 0.000000 1.776460 0.000000 
#    z 0.003730 0.000000 1.810270 
# 
# From -- ./inp_files/238635.got.cif
#   From: 2010.05.17/outbox.cif.g08.bks.cpg/sg15_120_cif.got.tgz:238635.got - 2010.06.03 18:47:42.
