data_PCOD9268370
_publ_section_title
;
Structure prediction by ZEFSAII (Michael W. Deem and Ramdas Pophale) SiO2 
 PCOD9268370
Probable space group: C 2/C
;
_chemical_formula_sum "Si O2"
_cell_formula_units_Z 40
_cell_length_a 9.000629
_cell_length_b 24.239056
_cell_length_c 10.408036
_cell_angle_alpha 90.000000
_cell_angle_beta 43.815476
_cell_angle_gamma 90.000000
_cell_volume 1572.083397
_symmetry_space_group_name_H-M "C 2/C"
_symmetry_group_IT_number 15
_symmetry_cell_setting 'monoclinic'
loop_
_space_group_symop_operation_xyz
x,y,z
-x,y,1/2-z
-x,-y,-z
x,-y,1/2+z
1/2+x,1/2+y,z
1/2-x,1/2+y,1/2-z
1/2-x,1/2-y,-z
1/2+x,1/2-y,1/2+z
loop_
_atom_site_type_symbol
_atom_site_label
_atom_site_fract_x
_atom_site_fract_y
_atom_site_fract_z
Si Si1 0.832404 0.045629 0.972739
Si Si2 0.279737 0.336757 0.532223
Si Si3 0.914402 0.702501 0.093119
Si Si4 0.120967 0.927967 0.541030
Si Si5 0.253721 0.677140 0.684765
O O1 0.000000 0.044279 0.750000
O O2 0.737682 0.983948 0.032826
O O3 0.701138 0.102108 0.038795
O O4 0.951854 0.056176 0.033844
O O5 0.244502 0.327305 0.707811
O O6 0.372893 0.205293 0.448464
O O7 0.535386 0.333450 0.357462
O O8 0.801944 0.759125 0.120063
O O9 0.029736 0.675913 0.899255
O O10 0.230012 0.872604 0.424457
O O11 0.000000 0.918276 0.750000
#
# Coordination Sequence:
#
# PCOD9268370 Si02
#       5
#     8   8   8   8   8
#     4   9  17  35  61  87 111 146 198 247 289 336
#     4  10  20  31  54  86 119 148 189 245 295 341
#     4  11  21  31  53  86 119 152 191 236 295 338
#     4   9  19  35  59  84 114 155 196 236 288 348
#     4  11  20  34  52  78 116 155 191 232 286 346
#
# _framework density 25.443943000000001
#
# number of rings (size 3 to 8) (size 9 to 14) (size 15 to 20)
#    0.000    2.000    2.000    3.600    2.800    0.000 
#    0.000    2.000    0.000    4.800    0.000    0.000 
#    0.000    0.000    0.000    0.000    0.000    0.000 
#
# Total GULP energy -111586.384633 kJ/mol
# GULP energy per Si atom -5579.319232 kJ/mol
# Density = 2.538603 g / cm^3
# Si number density = 25.443943 Si / 1000 Ang^3
#
#
#
# Elastic Constant Matrix: (Units=GPa)
#
#
# Indices 1 2 3 4 5 6 
#
# 1 67.8927 18.0143 21.0062 0.0000 10.2512 0.0000
# 2 18.0143 193.4276 80.0494 0.0000 18.0538 0.0000
# 3 21.0062 80.0494 173.4871 0.0000 28.3206 0.0000
# 4 0.0000 0.0000 0.0000 327.8162 0.0000 -41.3186
# 5 10.2512 18.0538 28.3206 0.0000 25.5643 0.0000
# 6 0.0000 0.0000 0.0000 -41.3186 0.0000 -5.1334
#
#
#
# Elastic Compliance Matrix: (Units=1/GPa)
#
#
# Indices 1 2 3 4 5 6 
#
# 1 0.015914 -0.000686 -0.000791 0.000000 -0.005021 0.000000
# 2 -0.000686 0.006469 -0.002687 0.000000 -0.001317 0.000000
# 3 -0.000791 -0.002687 0.008226 0.000000 -0.006898 0.000000
# 4 0.000000 0.000000 0.000000 0.001514 0.000000 -0.012188
# 5 -0.005021 -0.001317 -0.006898 0.000000 0.049702 0.000000
# 6 0.000000 0.000000 0.000000 -0.012188 0.000000 -0.096700
#
#
# Mechanical properties :
#
#
# Convention : Reuss Voigt Hill
#
# Bulk Modulus (GPa) = 44.88127 74.77192 59.82660
# Shear Modulus (GPa) = 5690.99244 90.69858 2890.84551
#
# Velocity S-wave (km/s) = 47.34484 5.97694 33.74358
# Velocity P-wave (km/s) = 54.83056 8.77966 39.26495
#
# Compressibility (1/GPa) = 0.02228101
#
# Stress axis : x y z
#
# Youngs Moduli (GPa) = 62.83795 154.59390 121.57202
#
# Poissons Ratio (x) = 0.10609 0.09612
# Poissons Ratio (y) = 0.04312 0.32662
# Poissons Ratio (z) = 0.04968 0.41534
#
# Static dielectric constant tensor:
#      x y z
#    x 2.011510 0.000000 0.051320 
#    y 0.000000 2.125020 0.000000 
#    z 0.051320 0.000000 2.063340 
# 
# From -- ./inp_files/108207.got.cif
#   From: 2010.05.17/outbox.cif.g08.bks.cpg/sg15_55_cif.got.tgz:108207.got - 2010.06.03 18:47:42.
