data_PCOD9268502
_publ_section_title
;
Structure prediction by ZEFSAII (Michael W. Deem and Ramdas Pophale) SiO2 
 PCOD9268502
Probable space group: C 2/C
;
_chemical_formula_sum "Si O2"
_cell_formula_units_Z 52
_cell_length_a 14.472785
_cell_length_b 27.747673
_cell_length_c 5.671337
_cell_angle_alpha 90.000000
_cell_angle_beta 67.800984
_cell_angle_gamma 90.000000
_cell_volume 2108.712941
_symmetry_space_group_name_H-M "C 2/C"
_symmetry_group_IT_number 15
_symmetry_cell_setting 'monoclinic'
loop_
_space_group_symop_operation_xyz
x,y,z
-x,y,1/2-z
-x,-y,-z
x,-y,1/2+z
1/2+x,1/2+y,z
1/2-x,1/2+y,1/2-z
1/2-x,1/2-y,-z
1/2+x,1/2-y,1/2+z
loop_
_atom_site_type_symbol
_atom_site_label
_atom_site_fract_x
_atom_site_fract_y
_atom_site_fract_z
Si Si1 0.145225 0.014887 0.227859
Si Si2 0.612142 0.280868 0.534086
Si Si3 0.107280 0.122444 0.262008
Si Si4 0.123156 0.673834 0.627168
Si Si5 0.000000 0.818023 0.250000
Si Si6 0.614038 0.133707 0.134258
Si Si7 0.870094 0.521208 0.481855
O O1 0.163564 0.072314 0.220871
O O2 0.097560 0.998292 0.521221
O O3 0.251554 0.988005 0.113812
O O4 0.500000 0.283513 0.750000
O O5 0.654217 0.332540 0.574113
O O6 0.652159 0.229824 0.572708
O O7 0.582180 0.283651 0.291158
O O8 0.071609 0.145882 0.538704
O O9 0.000000 0.109395 0.250000
O O10 0.155528 0.647227 0.352868
O O11 0.000000 0.670424 0.750000
O O12 0.157453 0.655295 0.850447
O O13 0.500000 0.151589 0.250000
O O14 0.612970 0.076636 0.095826
O O15 0.905763 0.507692 0.712635
#
# Coordination Sequence:
#
# PCOD9268502 Si02
#       7
#     8   8   8   8   4   8   8
#     4  10  23  38  55  77 102 144 193 226 273 322
#     4   8  16  27  47  75 113 152 171 208 264 326
#     4   9  19  32  50  80 113 144 181 225 266 316
#     4   9  18  29  49  80 117 144 172 207 271 327
#     4   8  16  28  48  74 116 142 176 214 270 312
#     4  10  20  32  52  84 113 139 178 228 267 316
#     4  10  21  39  57  75 103 143 190 228 275 322
#
# _framework density 24.659590999999999
#
# number of rings (size 3 to 8) (size 9 to 14) (size 15 to 20)
#    0.000    3.077    0.000    0.923   11.846    1.231 
#    0.000    0.000    0.000    0.000    0.000   25.846 
#    0.000    0.000    0.000    0.000    0.000    0.615 
#
# Total GULP energy -145054.676059 kJ/mol
# GULP energy per Si atom -5579.026002 kJ/mol
# Density = 2.460346 g / cm^3
# Si number density = 24.659591 Si / 1000 Ang^3
#
#
#
# Elastic Constant Matrix: (Units=GPa)
#
#
# Indices 1 2 3 4 5 6 
#
# 1 67.9628 14.4457 52.0051 0.0000 14.9123 0.0000
# 2 14.4457 179.6689 74.7836 0.0000 26.9811 0.0000
# 3 52.0051 74.7836 186.4074 0.0000 31.2218 0.0000
# 4 0.0000 0.0000 0.0000 244.2659 0.0000 230.2809
# 5 14.9123 26.9811 31.2218 0.0000 39.9232 0.0000
# 6 0.0000 0.0000 0.0000 230.2809 0.0000 242.5152
#
#
#
# Elastic Compliance Matrix: (Units=1/GPa)
#
#
# Indices 1 2 3 4 5 6 
#
# 1 0.019312 0.001210 -0.005211 0.000000 -0.003956 0.000000
# 2 0.001210 0.007038 -0.002634 0.000000 -0.003149 0.000000
# 3 -0.005211 -0.002634 0.008344 0.000000 -0.002799 0.000000
# 4 0.000000 0.000000 0.000000 0.039059 0.000000 -0.037089
# 5 -0.003956 -0.003149 -0.002799 0.000000 0.030843 0.000000
# 6 0.000000 0.000000 0.000000 -0.037089 0.000000 0.039341
#
#
# Mechanical properties :
#
#
# Convention : Reuss Voigt Hill
#
# Bulk Modulus (GPa) = 46.67408 79.61198 63.14303
# Shear Modulus (GPa) = 30.42366 124.86120 77.64243
#
# Velocity S-wave (km/s) = 3.51628 7.12347 5.61730
# Velocity P-wave (km/s) = 5.95433 10.00065 8.23004
#
# Compressibility (1/GPa) = 0.02142517
#
# Stress axis : x y z
#
# Youngs Moduli (GPa) = 51.78130 142.09589 119.85155
#
# Poissons Ratio (x) = -0.17197 0.62450
# Poissons Ratio (y) = -0.06267 0.31564
# Poissons Ratio (z) = 0.26981 0.37423
#
# Static dielectric constant tensor:
#      x y z
#    x 1.509210 0.000000 0.905000 
#    y 0.000000 1.879820 0.000000 
#    z 0.905000 0.000000 3.498490 
# 
# From -- ./inp_files/11449.got.cif
#   From: 2010.05.17/outbox.cif.g08.bks.cpg/sg15_6_cif.got.tgz:11449.got - 2010.06.03 18:47:42.
