data_PCOD9268485
_publ_section_title
;
Structure prediction by ZEFSAII (Michael W. Deem and Ramdas Pophale) SiO2 
 PCOD9268485
Probable space group: C 2/C
;
_chemical_formula_sum "Si O2"
_cell_formula_units_Z 56
_cell_length_a 11.907108
_cell_length_b 10.843010
_cell_length_c 26.859383
_cell_angle_alpha 90.000000
_cell_angle_beta 121.851771
_cell_angle_gamma 90.000000
_cell_volume 2945.592897
_symmetry_space_group_name_H-M "C 2/C"
_symmetry_group_IT_number 15
_symmetry_cell_setting 'monoclinic'
loop_
_space_group_symop_operation_xyz
x,y,z
-x,y,1/2-z
-x,-y,-z
x,-y,1/2+z
1/2+x,1/2+y,z
1/2-x,1/2+y,1/2-z
1/2-x,1/2-y,-z
1/2+x,1/2-y,1/2+z
loop_
_atom_site_type_symbol
_atom_site_label
_atom_site_fract_x
_atom_site_fract_y
_atom_site_fract_z
Si Si1 0.627493 0.267050 0.009766
Si Si2 0.843463 0.438657 0.903209
Si Si3 0.759263 0.046520 0.881859
Si Si4 0.113240 0.371292 0.922333
Si Si5 0.296150 0.602602 0.562163
Si Si6 0.091145 0.778813 0.818777
Si Si7 0.485364 0.609393 0.393473
O O1 0.504445 0.308467 0.947545
O O2 0.750000 0.250000 0.000000
O O3 0.615906 0.141710 0.038261
O O4 0.658589 0.371867 0.058260
O O5 0.793497 0.569793 0.911137
O O6 0.717279 0.370237 0.849891
O O7 0.969868 0.428903 0.898100
O O8 0.655919 0.143255 0.834874
O O9 0.683087 0.943659 0.894838
O O10 0.855966 0.975038 0.867034
O O11 0.117068 0.225459 0.912827
O O12 0.200937 0.387185 0.992520
O O13 0.392792 0.487007 0.577129
O O14 0.000000 0.797801 0.750000
O O15 0.008875 0.808458 0.849994
#
# Coordination Sequence:
#
# PCOD9268485 Si02
#       7
#     8   8   8   8   8   8   8
#     4  11  17  34  59  89 119 154 196 237 295 365
#     4  10  21  36  57  83 122 157 191 244 294 355
#     4  11  22  36  61  89 121 155 195 252 296 360
#     4  11  22  32  51  90 129 155 179 229 304 371
#     4  10  20  32  51  85 126 158 186 225 292 369
#     4  10  23  45  66  81 107 156 217 258 297 349
#     4  11  21  37  63  88 116 158 207 244 300 360
#
# _framework density 19.011451000000001
#
# number of rings (size 3 to 8) (size 9 to 14) (size 15 to 20)
#    0.000    1.429    5.714    2.571    4.000    1.143 
#    2.571    0.000    0.000    0.857    0.000    0.000 
#    0.000    0.000    0.000    0.000    0.000    0.000 
#
# Total GULP energy -156407.233001 kJ/mol
# GULP energy per Si atom -5585.972607 kJ/mol
# Density = 1.896818 g / cm^3
# Si number density = 19.011451 Si / 1000 Ang^3
#
#
#
# Elastic Constant Matrix: (Units=GPa)
#
#
# Indices 1 2 3 4 5 6 
#
# 1 105.3242 24.7557 18.8667 0.0000 13.6098 0.0000
# 2 24.7557 52.5423 20.4159 0.0000 5.1758 0.0000
# 3 18.8667 20.4159 83.7345 0.0000 -0.2695 0.0000
# 4 0.0000 0.0000 0.0000 7.6922 0.0000 4.9928
# 5 13.6098 5.1758 -0.2695 0.0000 9.1489 0.0000
# 6 0.0000 0.0000 0.0000 4.9928 0.0000 30.8241
#
#
#
# Elastic Compliance Matrix: (Units=1/GPa)
#
#
# Indices 1 2 3 4 5 6 
#
# 1 0.012947 -0.003580 -0.002100 0.000000 -0.017296 0.000000
# 2 -0.003580 0.023431 -0.004932 0.000000 -0.008075 0.000000
# 3 -0.002100 -0.004932 0.013639 0.000000 0.006316 0.000000
# 4 0.000000 0.000000 0.000000 0.145276 0.000000 -0.023532
# 5 -0.017296 -0.008075 0.006316 0.000000 0.139786 0.000000
# 6 0.000000 0.000000 0.000000 -0.023532 0.000000 0.036254
#
#
# Mechanical properties :
#
#
# Convention : Reuss Voigt Hill
#
# Bulk Modulus (GPa) = 34.73207 41.07530 37.90369
# Shear Modulus (GPa) = 12.43301 21.37056 16.90178
#
# Velocity S-wave (km/s) = 2.56007 3.35638 2.98490
# Velocity P-wave (km/s) = 5.20070 6.05581 5.64447
#
# Compressibility (1/GPa) = 0.02879183
#
# Stress axis : x y z
#
# Youngs Moduli (GPa) = 77.23686 42.67833 73.32177
#
# Poissons Ratio (x) = 0.15281 0.15397
# Poissons Ratio (y) = 0.27654 0.36164
# Poissons Ratio (z) = 0.16219 0.21050
#
# Static dielectric constant tensor:
#      x y z
#    x 1.695730 0.000000 0.013310 
#    y 0.000000 1.695920 0.000000 
#    z 0.013310 0.000000 1.622360 
# 
# From -- ./inp_files/292304.got.cif
#   From: 2010.05.17/outbox.cif.g08.bks.cpg/sg15_147_cif.got.tgz:292304.got - 2010.06.03 18:47:42.
