data_PCOD9268438
_publ_section_title
;
Structure prediction by ZEFSAII (Michael W. Deem and Ramdas Pophale) SiO2 
 PCOD9268438
Probable space group: C 2/C
;
_chemical_formula_sum "Si O2"
_cell_formula_units_Z 64
_cell_length_a 23.279799
_cell_length_b 17.068168
_cell_length_c 9.444683
_cell_angle_alpha 90.000000
_cell_angle_beta 106.266225
_cell_angle_gamma 90.000000
_cell_volume 3602.561819
_symmetry_space_group_name_H-M "C 2/C"
_symmetry_group_IT_number 15
_symmetry_cell_setting 'monoclinic'
loop_
_space_group_symop_operation_xyz
x,y,z
-x,y,1/2-z
-x,-y,-z
x,-y,1/2+z
1/2+x,1/2+y,z
1/2-x,1/2+y,1/2-z
1/2-x,1/2-y,-z
1/2+x,1/2-y,1/2+z
loop_
_atom_site_type_symbol
_atom_site_label
_atom_site_fract_x
_atom_site_fract_y
_atom_site_fract_z
Si Si1 0.785466 0.984084 0.666424
Si Si2 0.183211 0.405114 0.005186
Si Si3 0.237347 0.331515 0.786302
Si Si4 0.305755 0.813440 0.210595
Si Si5 0.127698 0.730286 0.026253
Si Si6 0.945061 0.451019 0.602106
Si Si7 0.521106 0.123809 0.923928
Si Si8 0.319552 0.394992 0.426919
O O1 0.763438 0.913773 0.750626
O O2 0.826111 0.948636 0.569971
O O3 0.726685 0.020919 0.552332
O O4 0.814907 0.051478 0.783824
O O5 0.219590 0.342597 0.937066
O O6 0.120057 0.425840 0.890602
O O7 0.171656 0.372825 0.154545
O O8 0.284236 0.264705 0.776338
O O9 0.176750 0.308977 0.662173
O O10 0.245330 0.851652 0.103299
O O11 0.351338 0.792731 0.118153
O O12 0.133888 0.823731 0.048629
O O13 0.063152 0.693024 0.006850
O O14 0.941977 0.541759 0.552776
O O15 0.000000 0.446694 0.750000
O O16 0.965785 0.396612 0.486740
O O17 0.500000 0.139561 0.750000
#
# Coordination Sequence:
#
# PCOD9268438 Si02
#       8
#     8   8   8   8   8   8   8   8
#     4  11  19  32  50  76 108 139 177 211 257 326
#     4  11  22  31  51  74 105 146 174 209 269 306
#     4  11  19  32  48  73 107 141 170 213 259 320
#     4  10  20  32  49  74 107 135 180 210 256 324
#     4  11  19  34  55  72 104 144 176 219 272 304
#     4  10  21  36  49  74 105 140 181 218 247 304
#     4  10  21  35  53  74 102 133 183 224 252 299
#     4  10  20  33  49  78 103 139 174 216 258 324
#
# _framework density 17.765135999999998
#
# number of rings (size 3 to 8) (size 9 to 14) (size 15 to 20)
#    0.000    1.500    3.750    3.375    0.000    2.000 
#    0.000    0.000    0.000    0.000    0.000    0.875 
#    0.000    0.000    0.000    0.375    0.000    0.000 
#
# Total GULP energy -178639.974806 kJ/mol
# GULP energy per Si atom -5582.499213 kJ/mol
# Density = 1.772470 g / cm^3
# Si number density = 17.765136 Si / 1000 Ang^3
#
#
#
# Elastic Constant Matrix: (Units=GPa)
#
#
# Indices 1 2 3 4 5 6 
#
# 1 34.3927 27.2099 3.4068 0.0000 4.8627 0.0000
# 2 27.2099 92.5356 14.2874 0.0000 4.7882 0.0000
# 3 3.4068 14.2874 43.4638 0.0000 -3.9460 0.0000
# 4 0.0000 0.0000 0.0000 27.1333 0.0000 -5.6290
# 5 4.8627 4.7882 -3.9460 0.0000 19.1839 0.0000
# 6 0.0000 0.0000 0.0000 -5.6290 0.0000 19.5826
#
#
#
# Elastic Compliance Matrix: (Units=1/GPa)
#
#
# Indices 1 2 3 4 5 6 
#
# 1 0.038818 -0.011038 -0.000058 0.000000 -0.007096 0.000000
# 2 -0.011038 0.014784 -0.004153 0.000000 -0.001746 0.000000
# 3 -0.000058 -0.004153 0.024939 0.000000 0.006181 0.000000
# 4 0.000000 0.000000 0.000000 0.039192 0.000000 0.011266
# 5 -0.007096 -0.001746 0.006181 0.000000 0.055633 0.000000
# 6 0.000000 0.000000 0.000000 0.011266 0.000000 0.054304
#
#
# Mechanical properties :
#
#
# Convention : Reuss Voigt Hill
#
# Bulk Modulus (GPa) = 20.81551 28.91116 24.86333
# Shear Modulus (GPa) = 18.23601 21.54585 19.89093
#
# Velocity S-wave (km/s) = 3.20739 3.48633 3.34976
# Velocity P-wave (km/s) = 5.04569 5.70223 5.38397
#
# Compressibility (1/GPa) = 0.04804111
#
# Stress axis : x y z
#
# Youngs Moduli (GPa) = 25.76128 67.64073 40.09849
#
# Poissons Ratio (x) = 0.74663 0.00234
# Poissons Ratio (y) = 0.28436 0.16654
# Poissons Ratio (z) = 0.00151 0.28092
#
# Static dielectric constant tensor:
#      x y z
#    x 1.581420 0.000000 -0.010220 
#    y 0.000000 1.612570 0.000000 
#    z -0.010220 0.000000 1.644780 
# 
# From -- ./inp_files/66259.got.cif
#   From: 2010.05.17/outbox.cif.g08.bks.cpg/sg15_34_cif.got.tgz:66259.got - 2010.06.03 18:47:42.
