data_PCOD9268078
_publ_section_title
;
Structure prediction by ZEFSAII (Michael W. Deem and Ramdas Pophale) SiO2 
 PCOD9268078
Probable space group: C 2/C
;
_chemical_formula_sum "Si O2"
_cell_formula_units_Z 44
_cell_length_a 18.533322
_cell_length_b 10.611499
_cell_length_c 12.439168
_cell_angle_alpha 90.000000
_cell_angle_beta 47.018249
_cell_angle_gamma 90.000000
_cell_volume 1789.689767
_symmetry_space_group_name_H-M "C 2/C"
_symmetry_group_IT_number 15
_symmetry_cell_setting 'monoclinic'
loop_
_space_group_symop_operation_xyz
x,y,z
-x,y,1/2-z
-x,-y,-z
x,-y,1/2+z
1/2+x,1/2+y,z
1/2-x,1/2+y,1/2-z
1/2-x,1/2-y,-z
1/2+x,1/2-y,1/2+z
loop_
_atom_site_type_symbol
_atom_site_label
_atom_site_fract_x
_atom_site_fract_y
_atom_site_fract_z
Si Si1 0.000000 0.257867 0.750000
Si Si2 0.867291 0.295282 0.462273
Si Si3 0.722312 0.883362 0.222430
Si Si4 0.379075 0.569828 0.748880
Si Si5 0.060804 0.216496 0.347413
Si Si6 0.813776 0.444102 0.929470
O O1 0.030888 0.163382 0.816037
O O2 0.098217 0.344946 0.642114
O O3 0.779587 0.201676 0.577228
O O4 0.908285 0.263444 0.303329
O O5 0.837449 0.440017 0.486320
O O6 0.949939 0.264754 0.466588
O O7 0.803288 0.906214 0.229565
O O8 0.633507 0.793443 0.350794
O O9 0.683791 0.004485 0.196104
O O10 0.424304 0.432509 0.677250
O O11 0.301489 0.583454 0.927979
#
# Coordination Sequence:
#
# PCOD9268078 Si02
#       6
#     4   8   8   8   8   8
#     4  12  28  44  64 102 142 180 212 274 354 390
#     4  10  19  41  73  95 123 174 224 278 325 401
#     4  11  23  41  72  99 125 182 231 273 328 400
#     4  12  26  43  69  96 142 177 221 279 334 399
#     4  10  20  41  66  99 128 166 231 274 332 390
#     4  11  23  48  69  95 140 177 218 278 338 396
#
# _framework density 24.585266000000001
#
# number of rings (size 3 to 8) (size 9 to 14) (size 15 to 20)
#    0.000    1.091    3.636    4.909    2.545    2.182 
#    0.000    2.727    0.000    0.000    0.000    0.000 
#    0.000    0.000    0.000    0.000    0.000    0.000 
#
# Total GULP energy -122922.316412 kJ/mol
# GULP energy per Si atom -5587.378019 kJ/mol
# Density = 2.452931 g / cm^3
# Si number density = 24.585266 Si / 1000 Ang^3
#
#
#
# Elastic Constant Matrix: (Units=GPa)
#
#
# Indices 1 2 3 4 5 6 
#
# 1 153.4817 52.6979 11.9649 0.0000 -20.9014 0.0000
# 2 52.6979 109.9441 17.1814 0.0000 -11.5310 0.0000
# 3 11.9649 17.1814 35.9158 0.0000 -13.4611 0.0000
# 4 0.0000 0.0000 0.0000 27.8026 0.0000 -19.6544
# 5 -20.9014 -11.5310 -13.4611 0.0000 43.5183 0.0000
# 6 0.0000 0.0000 0.0000 -19.6544 0.0000 38.7184
#
#
#
# Elastic Compliance Matrix: (Units=1/GPa)
#
#
# Indices 1 2 3 4 5 6 
#
# 1 0.008155 -0.003615 0.000138 0.000000 0.003001 0.000000
# 2 -0.003615 0.011499 -0.004304 0.000000 -0.000021 0.000000
# 3 0.000138 -0.004304 0.033316 0.000000 0.009231 0.000000
# 4 0.000000 0.000000 0.000000 0.056099 0.000000 0.028477
# 5 0.003001 -0.000021 0.009231 0.000000 0.027270 0.000000
# 6 0.000000 0.000000 0.000000 0.028477 0.000000 0.040283
#
#
# Mechanical properties :
#
#
# Convention : Reuss Voigt Hill
#
# Bulk Modulus (GPa) = 26.73399 51.44779 39.09089
# Shear Modulus (GPa) = 24.43141 36.50768 30.46954
#
# Velocity S-wave (km/s) = 3.15579 3.85767 3.52425
# Velocity P-wave (km/s) = 4.91693 6.38858 5.70045
#
# Compressibility (1/GPa) = 0.03740557
#
# Stress axis : x y z
#
# Youngs Moduli (GPa) = 122.62740 86.96462 30.01576
#
# Poissons Ratio (x) = 0.31442 -0.00414
# Poissons Ratio (y) = 0.44336 0.12920
# Poissons Ratio (z) = -0.01689 0.37432
#
# Static dielectric constant tensor:
#      x y z
#    x 1.946460 0.000000 0.075140 
#    y 0.000000 1.951950 0.000000 
#    z 0.075140 0.000000 1.921380 
# 
# From -- ./inp_files/160722.got.cif
#   From: 2010.05.17/outbox.cif.g08.bks.cpg/sg15_81_cif.got.tgz:160722.got - 2010.06.03 18:47:42.
