data_PCOD9268913
_publ_section_title
;
Structure prediction by ZEFSAII (Michael W. Deem and Ramdas Pophale) SiO2 
 PCOD9268913
Probable space group: C 2/C
;
_chemical_formula_sum "Si O2"
_cell_formula_units_Z 60
_cell_length_a 11.253070
_cell_length_b 20.665086
_cell_length_c 14.429383
_cell_angle_alpha 90.000000
_cell_angle_beta 67.776786
_cell_angle_gamma 90.000000
_cell_volume 3106.235909
_symmetry_space_group_name_H-M "C 2/C"
_symmetry_group_IT_number 15
_symmetry_cell_setting 'monoclinic'
loop_
_space_group_symop_operation_xyz
x,y,z
-x,y,1/2-z
-x,-y,-z
x,-y,1/2+z
1/2+x,1/2+y,z
1/2-x,1/2+y,1/2-z
1/2-x,1/2-y,-z
1/2+x,1/2-y,1/2+z
loop_
_atom_site_type_symbol
_atom_site_label
_atom_site_fract_x
_atom_site_fract_y
_atom_site_fract_z
Si Si1 0.645547 0.040208 0.216128
Si Si2 0.751013 0.345494 0.927151
Si Si3 0.640000 0.997707 0.409939
Si Si4 0.262209 0.800402 0.131039
Si Si5 0.260927 0.937264 0.451989
Si Si6 0.496880 0.426270 0.041866
Si Si7 0.472384 0.123944 0.650160
Si Si8 0.500000 0.377663 0.250000
O O1 0.500000 0.018064 0.250000
O O2 0.659269 0.105034 0.153718
O O3 0.669102 0.047140 0.318088
O O4 0.722659 0.983643 0.142287
O O5 0.753037 0.276080 0.878120
O O6 0.788821 0.331736 0.021970
O O7 0.615204 0.382858 0.972186
O O8 0.739954 0.012330 0.461574
O O9 0.500000 0.000000 0.500000
O O10 0.627549 0.930290 0.359094
O O11 0.391433 0.812805 0.150770
O O12 0.129828 0.833511 0.206191
O O13 0.133079 0.898951 0.466981
O O14 0.386615 0.892961 0.432099
O O15 0.493649 0.418534 0.155278
O O16 0.500000 0.500000 0.000000
O O17 0.500000 0.121807 0.750000
#
# Coordination Sequence:
#
# PCOD9268913 Si02
#       8
#     8   8   8   8   8   8   8   4
#     4  12  20  35  60  92 124 155 205 265 317 372
#     4  10  24  43  62  89 128 167 216 265 311 379
#     4  10  20  33  55  94 124 151 199 259 322 367
#     4  10  23  43  64  89 124 172 217 261 309 374
#     4  11  21  36  58  95 128 162 198 265 328 379
#     4  11  23  42  64  95 134 166 210 267 327 387
#     4  11  19  35  60  88 123 159 207 258 304 375
#     4  10  24  40  68  94 120 178 220 254 324 386
#
# _framework density 19.315984
#
# number of rings (size 3 to 8) (size 9 to 14) (size 15 to 20)
#    0.000    1.333    5.333    1.600    4.667    0.000 
#    0.000    2.000    0.000    0.000    0.000    0.000 
#    0.000    0.000    0.000    0.000    0.000    0.000 
#
# Total GULP energy -167145.656851 kJ/mol
# GULP energy per Si atom -5571.521895 kJ/mol
# Density = 1.927202 g / cm^3
# Si number density = 19.315984 Si / 1000 Ang^3
#
#
#
# Elastic Constant Matrix: (Units=GPa)
#
#
# Indices 1 2 3 4 5 6 
#
# 1 105.4336 25.2632 19.3635 0.0000 6.7090 0.0000
# 2 25.2632 73.0058 28.3025 0.0000 -1.6311 0.0000
# 3 19.3635 28.3025 82.4899 0.0000 4.6779 0.0000
# 4 0.0000 0.0000 0.0000 18.1095 0.0000 1.6498
# 5 6.7090 -1.6311 4.6779 0.0000 22.7279 0.0000
# 6 0.0000 0.0000 0.0000 1.6498 0.0000 21.5151
#
#
#
# Elastic Compliance Matrix: (Units=1/GPa)
#
#
# Indices 1 2 3 4 5 6 
#
# 1 0.010698 -0.003308 -0.001198 0.000000 -0.003149 0.000000
# 2 -0.003308 0.016939 -0.005221 0.000000 0.003267 0.000000
# 3 -0.001198 -0.005221 0.014364 0.000000 -0.002978 0.000000
# 4 0.000000 0.000000 0.000000 0.055608 0.000000 -0.004264
# 5 -0.003149 0.003267 -0.002978 0.000000 0.045776 0.000000
# 6 0.000000 0.000000 0.000000 -0.004264 0.000000 0.046806
#
#
# Mechanical properties :
#
#
# Convention : Reuss Voigt Hill
#
# Bulk Modulus (GPa) = 44.34922 45.19863 44.77392
# Shear Modulus (GPa) = 23.02464 25.00382 24.01423
#
# Velocity S-wave (km/s) = 3.45628 3.60177 3.52977
# Velocity P-wave (km/s) = 6.23999 6.38337 6.31209
#
# Compressibility (1/GPa) = 0.02254831
#
# Stress axis : x y z
#
# Youngs Moduli (GPa) = 93.47921 59.03505 69.61900
#
# Poissons Ratio (x) = 0.19528 0.08338
# Poissons Ratio (y) = 0.30922 0.36345
# Poissons Ratio (z) = 0.11195 0.30820
#
# Static dielectric constant tensor:
#      x y z
#    x 1.756630 0.000000 0.069650 
#    y 0.000000 1.698520 0.000000 
#    z 0.069650 0.000000 1.947000 
# 
# From -- ./inp_files/146047.got.cif
#   From: 2010.05.17/outbox.cif.g08.bks.cpg/sg15_74_cif.got.tgz:146047.got - 2010.06.03 18:47:42.
