data_PCOD9268361
_publ_section_title
;
Structure prediction by ZEFSAII (Michael W. Deem and Ramdas Pophale) SiO2 
 PCOD9268361
Probable space group: C 2/C
;
_chemical_formula_sum "Si O2"
_cell_formula_units_Z 52
_cell_length_a 19.929583
_cell_length_b 6.599706
_cell_length_c 23.531974
_cell_angle_alpha 90.000000
_cell_angle_beta 100.847735
_cell_angle_gamma 90.000000
_cell_volume 3039.838353
_symmetry_space_group_name_H-M "C 2/C"
_symmetry_group_IT_number 15
_symmetry_cell_setting 'monoclinic'
loop_
_space_group_symop_operation_xyz
x,y,z
-x,y,1/2-z
-x,-y,-z
x,-y,1/2+z
1/2+x,1/2+y,z
1/2-x,1/2+y,1/2-z
1/2-x,1/2-y,-z
1/2+x,1/2-y,1/2+z
loop_
_atom_site_type_symbol
_atom_site_label
_atom_site_fract_x
_atom_site_fract_y
_atom_site_fract_z
Si Si1 0.469084 0.804966 0.524717
Si Si2 0.500000 0.968530 0.250000
Si Si3 0.719731 0.445025 0.026072
Si Si4 0.443536 0.409324 0.805899
Si Si5 0.662056 0.237766 0.424877
Si Si6 0.418979 0.652352 0.693406
Si Si7 0.088354 0.985444 0.075825
O O1 0.407709 0.848353 0.558415
O O2 0.438577 0.659865 0.470901
O O3 0.530459 0.686675 0.565069
O O4 0.500000 0.000000 0.500000
O O5 0.538687 0.816467 0.212934
O O6 0.552822 0.122900 0.288151
O O7 0.780118 0.567302 0.066781
O O8 0.658597 0.403899 0.060363
O O9 0.750000 0.250000 0.000000
O O10 0.689180 0.589389 0.971846
O O11 0.404816 0.532957 0.749839
O O12 0.517110 0.524175 0.821789
O O13 0.406816 0.426645 0.860135
O O14 0.641398 0.330068 0.361101
#
# Coordination Sequence:
#
# PCOD9268361 Si02
#       7
#     8   4   8   8   8   8   8
#     4  10  20  31  53  82 107 136 169 220 277 317
#     4   8  18  30  52  84 102 144 168 206 282 314
#     4  10  22  37  54  75 108 146 179 219 273 325
#     4   9  18  32  52  79 109 132 172 225 260 311
#     4  10  20  36  53  77 107 141 180 219 267 330
#     4   9  18  33  52  78 109 135 174 218 262 319
#     4  10  20  34  52  81 109 134 179 226 263 322
#
# _framework density 17.106172000000001
#
# number of rings (size 3 to 8) (size 9 to 14) (size 15 to 20)
#    0.000    2.769    1.538    0.923    2.154    2.462 
#    0.000    0.000    6.769    0.000    0.000    0.000 
#    0.000    0.000    0.000    0.000    0.000    0.000 
#
# Total GULP energy -144920.746689 kJ/mol
# GULP energy per Si atom -5573.874873 kJ/mol
# Density = 1.706724 g / cm^3
# Si number density = 17.106172 Si / 1000 Ang^3
#
#
#
# Elastic Constant Matrix: (Units=GPa)
#
#
# Indices 1 2 3 4 5 6 
#
# 1 93.3031 15.1157 21.9750 0.0000 -3.1283 0.0000
# 2 15.1157 60.0815 -11.5814 0.0000 1.5563 0.0000
# 3 21.9750 -11.5814 52.7172 0.0000 3.6203 0.0000
# 4 0.0000 0.0000 0.0000 3.8698 0.0000 -7.4162
# 5 -3.1283 1.5563 3.6203 0.0000 30.6309 0.0000
# 6 0.0000 0.0000 0.0000 -7.4162 0.0000 10.6401
#
#
#
# Elastic Compliance Matrix: (Units=1/GPa)
#
#
# Indices 1 2 3 4 5 6 
#
# 1 0.013115 -0.004642 -0.006649 0.000000 0.002361 0.000000
# 2 -0.004642 0.019079 0.006277 0.000000 -0.002185 0.000000
# 3 -0.006649 0.006277 0.023378 0.000000 -0.003761 0.000000
# 4 0.000000 0.000000 0.000000 -0.769678 0.000000 -0.536465
# 5 0.002361 -0.002185 -0.003761 0.000000 0.033443 0.000000
# 6 0.000000 0.000000 0.000000 -0.536465 0.000000 -0.279931
#
#
# Mechanical properties :
#
#
# Convention : Reuss Voigt Hill
#
# Bulk Modulus (GPa) = 21.95780 28.56892 25.26336
# Shear Modulus (GPa) = -5.34539 21.06767 7.86114
#
# Velocity S-wave (km/s) = -1.76964 3.51320 2.14604
# Velocity P-wave (km/s) = 2.94764 5.76142 4.57616
#
# Compressibility (1/GPa) = 0.04554191
#
# Stress axis : x y z
#
# Youngs Moduli (GPa) = 76.24851 52.41494 42.77537
#
# Poissons Ratio (x) = 0.24333 0.28441
# Poissons Ratio (y) = 0.35398 -0.26848
# Poissons Ratio (z) = 0.50697 -0.32899
#
# Static dielectric constant tensor:
#      x y z
#    x 1.572020 0.000000 -0.003600 
#    y 0.000000 1.571720 0.000000 
#    z -0.003600 0.000000 1.591910 
# 
# From -- ./inp_files/278709.got.cif
#   From: 2010.05.17/outbox.cif.g08.bks.cpg/sg15_140_cif.got.tgz:278709.got - 2010.06.03 18:47:42.
