data_PCOD9268326
_publ_section_title
;
Structure prediction by ZEFSAII (Michael W. Deem and Ramdas Pophale) SiO2 
 PCOD9268326
Probable space group: C 2/C
;
_chemical_formula_sum "Si O2"
_cell_formula_units_Z 40
_cell_length_a 16.259050
_cell_length_b 16.095003
_cell_length_c 17.938651
_cell_angle_alpha 90.000000
_cell_angle_beta 153.105981
_cell_angle_gamma 90.000000
_cell_volume 2123.452508
_symmetry_space_group_name_H-M "C 2/C"
_symmetry_group_IT_number 15
_symmetry_cell_setting 'monoclinic'
loop_
_space_group_symop_operation_xyz
x,y,z
-x,y,1/2-z
-x,-y,-z
x,-y,1/2+z
1/2+x,1/2+y,z
1/2-x,1/2+y,1/2-z
1/2-x,1/2-y,-z
1/2+x,1/2-y,1/2+z
loop_
_atom_site_type_symbol
_atom_site_label
_atom_site_fract_x
_atom_site_fract_y
_atom_site_fract_z
Si Si1 0.500000 0.553217 0.250000
Si Si2 0.719652 0.786768 0.249971
Si Si3 0.000000 0.636840 0.750000
Si Si4 0.107501 0.518480 0.970025
Si Si5 0.039493 0.374551 0.561276
Si Si6 0.109851 0.819894 0.966376
O O1 0.313535 0.503786 0.109910
O O2 0.474377 0.611835 0.156421
O O3 0.650693 0.838537 0.124325
O O4 0.843402 0.837560 0.408539
O O5 0.533764 0.754745 0.140779
O O6 0.828449 0.702990 0.318024
O O7 0.987258 0.575292 0.668830
O O8 0.815183 0.689619 0.601467
O O9 0.998201 0.435404 0.900856
O O10 0.114568 0.570884 0.052787
#
# Coordination Sequence:
#
# PCOD9268326 Si02
#       6
#     4   8   4   8   8   8
#     4  10  20  35  52  81 110 144 180 222 272 323
#     4  10  20  35  52  81 110 144 180 222 272 323
#     4  10  20  35  52  81 110 144 180 222 272 323
#     4  10  20  38  57  79 113 147 182 223 269 326
#     4  10  20  38  57  79 113 147 182 223 269 326
#     4  10  20  31  47  78 108 146 171 217 270 334
#
# _framework density 18.837247999999999
#
# number of rings (size 3 to 8) (size 9 to 14) (size 15 to 20)
#    0.000    2.000    4.000    0.000    0.000    2.400 
#    0.000   10.000    0.000    3.600    0.000    0.000 
#    0.000    0.000    0.000    0.000    0.000    0.000 
#
# Total GULP energy -111454.449494 kJ/mol
# GULP energy per Si atom -5572.722475 kJ/mol
# Density = 1.879437 g / cm^3
# Si number density = 18.837248 Si / 1000 Ang^3
#
#
#
# Elastic Constant Matrix: (Units=GPa)
#
#
# Indices 1 2 3 4 5 6 
#
# 1 60.5555 35.5341 28.4740 0.0000 2.1842 0.0009
# 2 35.5341 59.0809 26.9543 0.0064 1.1423 0.0046
# 3 28.4740 26.9543 90.1761 0.0027 4.5711 0.0029
# 4 0.0000 0.0064 0.0027 21.9062 0.0002 -4.0242
# 5 2.1842 1.1423 4.5711 0.0002 19.6999 0.0013
# 6 0.0009 0.0046 0.0029 -4.0242 0.0013 32.3034
#
#
#
# Elastic Compliance Matrix: (Units=1/GPa)
#
#
# Indices 1 2 3 4 5 6 
#
# 1 0.026871 -0.014236 -0.004169 0.000005 -0.001186 0.000002
# 2 -0.014236 0.027142 -0.003661 -0.000008 0.000854 -0.000004
# 3 -0.004169 -0.003661 0.013626 -0.000001 -0.002487 -0.000001
# 4 0.000005 -0.000008 -0.000001 0.046718 -0.000001 0.005820
# 5 -0.001186 0.000854 -0.002487 -0.000001 0.051421 -0.000002
# 6 0.000002 -0.000004 -0.000001 0.005820 -0.000002 0.031682
#
#
# Mechanical properties :
#
#
# Convention : Reuss Voigt Hill
#
# Bulk Modulus (GPa) = 42.54230 43.52639 43.03435
# Shear Modulus (GPa) = 20.04580 22.70524 21.37552
#
# Velocity S-wave (km/s) = 3.26568 3.47556 3.37226
# Velocity P-wave (km/s) = 6.07065 6.26600 6.16910
#
# Compressibility (1/GPa) = 0.02350602
#
# Stress axis : x y z
#
# Youngs Moduli (GPa) = 37.21480 36.84306 73.38761
#
# Poissons Ratio (x) = 0.52451 0.30597
# Poissons Ratio (y) = 0.52981 0.26867
# Poissons Ratio (z) = 0.15516 0.13488
#
# Static dielectric constant tensor:
#      x y z
#    x 1.697510 0.000000 -0.009640 
#    y 0.000000 1.636710 0.000000 
#    z -0.009640 0.000000 1.680200 
# 
# From -- ./inp_files/38007.got.cif
#   From: 2010.05.17/outbox.cif.g08.bks.cpg/sg15_20_cif.got.tgz:38007.got - 2010.06.03 18:47:42.
