data_PCOD9268891
_publ_section_title
;
Structure prediction by ZEFSAII (Michael W. Deem and Ramdas Pophale) SiO2 
 PCOD9268891
Probable space group: C 2/C
;
_chemical_formula_sum "Si O2"
_cell_formula_units_Z 48
_cell_length_a 9.899282
_cell_length_b 23.729641
_cell_length_c 10.817552
_cell_angle_alpha 90.000000
_cell_angle_beta 80.718027
_cell_angle_gamma 90.000000
_cell_volume 2507.840263
_symmetry_space_group_name_H-M "C 2/C"
_symmetry_group_IT_number 15
_symmetry_cell_setting 'monoclinic'
loop_
_space_group_symop_operation_xyz
x,y,z
-x,y,1/2-z
-x,-y,-z
x,-y,1/2+z
1/2+x,1/2+y,z
1/2-x,1/2+y,1/2-z
1/2-x,1/2-y,-z
1/2+x,1/2-y,1/2+z
loop_
_atom_site_type_symbol
_atom_site_label
_atom_site_fract_x
_atom_site_fract_y
_atom_site_fract_z
Si Si1 0.722403 0.672384 0.854771
Si Si2 0.693371 0.729909 0.313244
Si Si3 0.468629 0.254736 0.425399
Si Si4 0.668195 0.053765 0.723306
Si Si5 0.350847 0.024474 0.049457
Si Si6 0.177493 0.347651 0.885314
O O1 0.817352 0.722586 0.789726
O O2 0.568879 0.695730 0.866642
O O3 0.763957 0.615343 0.779536
O O4 0.750542 0.663767 0.994825
O O5 0.572473 0.731972 0.428210
O O6 0.829822 0.747721 0.369230
O O7 0.725239 0.671160 0.241411
O O8 0.550576 0.195911 0.400738
O O9 0.500000 0.059093 0.750000
O O10 0.709951 0.029735 0.580950
O O11 0.709555 0.015474 0.834255
O O12 0.362085 0.087106 0.105190
O O13 0.500000 0.000000 0.000000
#
# Coordination Sequence:
#
# PCOD9268891 Si02
#       6
#     8   8   8   8   8   8
#     4  10  20  33  55  79 109 141 176 226 267 332
#     4  10  21  34  53  79 109 146 177 222 270 335
#     4  10  21  35  51  83 110 142 183 216 280 327
#     4   9  19  34  53  83 110 140 183 229 281 331
#     4   9  19  33  52  81 109 141 179 230 278 322
#     4  10  20  34  54  81 110 138 178 229 271 328
#
# _framework density 19.139976000000001
#
# number of rings (size 3 to 8) (size 9 to 14) (size 15 to 20)
#    0.000    2.333    0.000    4.000    7.000    6.000 
#    3.000    0.000    0.000    1.000    4.333    0.000 
#    0.000    0.000    0.000    0.000    0.000    0.000 
#
# Total GULP energy -133779.706759 kJ/mol
# GULP energy per Si atom -5574.154448 kJ/mol
# Density = 1.909641 g / cm^3
# Si number density = 19.139976 Si / 1000 Ang^3
#
#
#
# Elastic Constant Matrix: (Units=GPa)
#
#
# Indices 1 2 3 4 5 6 
#
# 1 41.9880 27.3294 15.2226 0.0000 1.4118 0.0000
# 2 27.3294 129.4329 61.6540 0.0000 -7.2825 0.0000
# 3 15.2226 61.6540 125.2323 0.0000 -22.2319 0.0000
# 4 0.0000 0.0000 0.0000 37.2597 0.0000 -0.5658
# 5 1.4118 -7.2825 -22.2319 0.0000 19.7364 0.0000
# 6 0.0000 0.0000 0.0000 -0.5658 0.0000 17.3832
#
#
#
# Elastic Compliance Matrix: (Units=1/GPa)
#
#
# Indices 1 2 3 4 5 6 
#
# 1 0.028219 -0.005424 -0.001842 0.000000 -0.006095 0.000000
# 2 -0.005424 0.011223 -0.005077 0.000000 -0.001190 0.000000
# 3 -0.001842 -0.005077 0.012999 0.000000 0.012901 0.000000
# 4 0.000000 0.000000 0.000000 0.026852 0.000000 0.000874
# 5 -0.006095 -0.001190 0.012901 0.000000 0.065197 0.000000
# 6 0.000000 0.000000 0.000000 0.000874 0.000000 0.057555
#
#
# Mechanical properties :
#
#
# Convention : Reuss Voigt Hill
#
# Bulk Modulus (GPa) = 36.02944 56.11833 46.07389
# Shear Modulus (GPa) = 21.18802 27.70566 24.44684
#
# Velocity S-wave (km/s) = 3.33078 3.80877 3.57776
# Velocity P-wave (km/s) = 5.80148 6.98039 6.41806
#
# Compressibility (1/GPa) = 0.02775508
#
# Stress axis : x y z
#
# Youngs Moduli (GPa) = 35.43657 89.10481 76.93028
#
# Poissons Ratio (x) = 0.48331 0.14169
# Poissons Ratio (y) = 0.19221 0.39058
# Poissons Ratio (z) = 0.06527 0.45239
#
# Static dielectric constant tensor:
#      x y z
#    x 1.717250 0.000000 0.014630 
#    y 0.000000 1.654350 0.000000 
#    z 0.014630 0.000000 1.731040 
# 
# From -- ./inp_files/88356.got.cif
#   From: 2010.05.17/outbox.cif.g08.bks.cpg/sg15_45_cif.got.tgz:88356.got - 2010.06.03 18:47:42.
