data_PCOD9268232
_publ_section_title
;
Structure prediction by ZEFSAII (Michael W. Deem and Ramdas Pophale) SiO2 
 PCOD9268232
Probable space group: C 2/C
;
_chemical_formula_sum "Si O2"
_cell_formula_units_Z 44
_cell_length_a 30.781239
_cell_length_b 13.252836
_cell_length_c 5.554067
_cell_angle_alpha 90.000000
_cell_angle_beta 70.206311
_cell_angle_gamma 90.000000
_cell_volume 2131.855903
_symmetry_space_group_name_H-M "C 2/C"
_symmetry_group_IT_number 15
_symmetry_cell_setting 'monoclinic'
loop_
_space_group_symop_operation_xyz
x,y,z
-x,y,1/2-z
-x,-y,-z
x,-y,1/2+z
1/2+x,1/2+y,z
1/2-x,1/2+y,1/2-z
1/2-x,1/2-y,-z
1/2+x,1/2-y,1/2+z
loop_
_atom_site_type_symbol
_atom_site_label
_atom_site_fract_x
_atom_site_fract_y
_atom_site_fract_z
Si Si1 0.709324 0.242591 0.886691
Si Si2 0.101865 0.878025 0.032214
Si Si3 0.234877 0.088025 0.015013
Si Si4 0.000000 0.934752 0.250000
Si Si5 0.323235 0.956241 0.898391
Si Si6 0.861695 0.893528 0.033760
O O1 0.726817 0.170465 0.636009
O O2 0.707933 0.355844 0.784466
O O3 0.674249 0.163729 0.075708
O O4 0.750000 0.250000 0.000000
O O5 0.046988 0.870869 0.159154
O O6 0.126494 0.843949 0.232814
O O7 0.113171 0.998091 0.999741
O O8 0.119249 0.837516 0.740593
O O9 0.192413 0.082435 0.906115
O O10 0.268526 0.993125 0.001027
O O11 0.000000 0.000000 0.500000
O O12 0.342150 0.008002 0.105682
#
# Coordination Sequence:
#
# PCOD9268232 Si02
#       6
#     8   8   8   4   8   8
#     4  10  20  33  45  65  83 119 149 188 256 282
#     4  10  20  29  44  65  84 114 151 178 236 261
#     4  10  22  32  46  64  92 113 152 206 238 276
#     4  12  16  32  42  62  92 114 142 196 214 278
#     4  10  20  31  47  62  80 112 140 189 235 274
#     4  10  20  28  42  64  81 111 147 185 231 261
#
# _framework density 20.639294
#
# number of rings (size 3 to 8) (size 9 to 14) (size 15 to 20)
#    0.000    1.818    5.455    0.000   12.727    0.000 
#    0.000    0.000    0.000    0.000    0.000    0.000 
#    0.000    0.000    0.000    0.000    0.000    0.000 
#
# Total GULP energy -122495.776303 kJ/mol
# GULP energy per Si atom -5567.989832 kJ/mol
# Density = 2.059232 g / cm^3
# Si number density = 20.639294 Si / 1000 Ang^3
#
#
#
# Elastic Constant Matrix: (Units=GPa)
#
#
# Indices 1 2 3 4 5 6 
#
# 1 56.3898 16.4191 22.6587 0.0000 3.9973 0.0000
# 2 16.4191 86.7065 12.8276 0.0000 7.1242 0.0000
# 3 22.6587 12.8276 147.2279 0.0000 29.6075 0.0000
# 4 0.0000 0.0000 0.0000 17.6508 0.0000 2.8539
# 5 3.9973 7.1242 29.6075 0.0000 35.7010 0.0000
# 6 0.0000 0.0000 0.0000 2.8539 0.0000 10.4053
#
#
#
# Elastic Compliance Matrix: (Units=1/GPa)
#
#
# Indices 1 2 3 4 5 6 
#
# 1 0.019839 -0.003396 -0.002937 0.000000 0.000892 0.000000
# 2 -0.003396 0.012361 -0.000162 0.000000 -0.001952 0.000000
# 3 -0.002937 -0.000162 0.008624 0.000000 -0.006791 0.000000
# 4 0.000000 0.000000 0.000000 0.059283 0.000000 -0.016260
# 5 0.000892 -0.001952 -0.006791 0.000000 0.033932 0.000000
# 6 0.000000 0.000000 0.000000 -0.016260 0.000000 0.100564
#
#
# Mechanical properties :
#
#
# Convention : Reuss Voigt Hill
#
# Bulk Modulus (GPa) = 35.92562 43.79277 39.85919
# Shear Modulus (GPa) = 19.46507 28.64602 24.05555
#
# Velocity S-wave (km/s) = 3.07434 3.72954 3.41768
# Velocity P-wave (km/s) = 5.48145 6.30953 5.91001
#
# Compressibility (1/GPa) = 0.02783529
#
# Stress axis : x y z
#
# Youngs Moduli (GPa) = 50.40503 80.90285 115.95679
#
# Poissons Ratio (x) = 0.27472 0.34054
# Poissons Ratio (y) = 0.17116 0.01876
# Poissons Ratio (z) = 0.14803 0.01309
#
# Static dielectric constant tensor:
#      x y z
#    x 1.767960 0.000000 0.040930 
#    y 0.000000 1.740840 0.000000 
#    z 0.040930 0.000000 1.986050 
# 
# From -- ./inp_files/16858.got.cif
#   From: 2010.05.17/outbox.cif.g08.bks.cpg/sg15_9_cif.got.tgz:16858.got - 2010.06.03 18:47:42.
