data_PCOD9268399
_publ_section_title
;
Structure prediction by ZEFSAII (Michael W. Deem and Ramdas Pophale) SiO2 
 PCOD9268399
Probable space group: C 2/C
;
_chemical_formula_sum "Si O2"
_cell_formula_units_Z 56
_cell_length_a 8.647599
_cell_length_b 25.767570
_cell_length_c 13.528300
_cell_angle_alpha 90.000000
_cell_angle_beta 61.817244
_cell_angle_gamma 90.000000
_cell_volume 2657.099167
_symmetry_space_group_name_H-M "C 2/C"
_symmetry_group_IT_number 15
_symmetry_cell_setting 'monoclinic'
loop_
_space_group_symop_operation_xyz
x,y,z
-x,y,1/2-z
-x,-y,-z
x,-y,1/2+z
1/2+x,1/2+y,z
1/2-x,1/2+y,1/2-z
1/2-x,1/2-y,-z
1/2+x,1/2-y,1/2+z
loop_
_atom_site_type_symbol
_atom_site_label
_atom_site_fract_x
_atom_site_fract_y
_atom_site_fract_z
Si Si1 0.698964 0.843954 0.176639
Si Si2 0.901763 0.974192 0.383011
Si Si3 0.012183 0.332543 0.890613
Si Si4 0.886942 0.926292 0.998374
Si Si5 0.733120 0.132452 0.891011
Si Si6 0.197831 0.848738 0.844825
Si Si7 0.965631 0.214530 0.947811
O O1 0.500000 0.828517 0.250000
O O2 0.758289 0.862762 0.267356
O O3 0.830345 0.798614 0.108250
O O4 0.737734 0.889096 0.086337
O O5 0.770385 0.926375 0.410010
O O6 0.000000 0.981485 0.250000
O O7 0.033739 0.954490 0.428541
O O8 0.826760 0.028968 0.442350
O O9 0.206198 0.341211 0.789220
O O10 0.958523 0.271884 0.906948
O O11 0.865743 0.360271 0.865280
O O12 0.960810 0.351544 0.014556
O O13 0.046042 0.891842 0.902812
O O14 0.866162 0.172545 0.907187
O O15 0.114696 0.796791 0.919324
#
# Coordination Sequence:
#
# PCOD9268399 Si02
#       7
#     8   8   8   8   8   8   8
#     4  11  23  40  60  87 129 161 203 261 304 363
#     4  11  19  38  66  92 112 164 211 247 315 380
#     4  10  20  31  61  97 121 153 206 258 295 356
#     4  10  21  39  63  86 125 159 202 262 311 367
#     4  11  19  38  63  92 119 157 211 253 303 372
#     4   9  18  34  53  92 127 149 197 256 306 341
#     4  10  20  35  63  91 120 164 205 246 303 371
#
# _framework density 21.075617000000001
#
# number of rings (size 3 to 8) (size 9 to 14) (size 15 to 20)
#    0.000    1.714    5.714    2.143    6.000    0.000 
#    2.571    4.286    0.000    0.000    0.000    0.000 
#    0.000    0.000    0.000    0.000    0.000    0.000 
#
# Total GULP energy -156154.339032 kJ/mol
# GULP energy per Si atom -5576.940680 kJ/mol
# Density = 2.102765 g / cm^3
# Si number density = 21.075617 Si / 1000 Ang^3
#
#
#
# Elastic Constant Matrix: (Units=GPa)
#
#
# Indices 1 2 3 4 5 6 
#
# 1 39.1682 15.0176 26.6565 0.0000 -23.3125 0.0000
# 2 15.0176 78.7584 47.9197 0.0000 1.0689 0.0000
# 3 26.6565 47.9197 163.4373 0.0000 -32.8597 0.0000
# 4 0.0000 0.0000 0.0000 6.9157 0.0000 -0.7769
# 5 -23.3125 1.0689 -32.8597 0.0000 27.0418 0.0000
# 6 0.0000 0.0000 0.0000 -0.7769 0.0000 7.9599
#
#
#
# Elastic Compliance Matrix: (Units=1/GPa)
#
#
# Indices 1 2 3 4 5 6 
#
# 1 0.069528 -0.019534 0.008726 0.000000 0.071314 0.000000
# 2 -0.019534 0.022408 -0.009194 0.000000 -0.028898 0.000000
# 3 0.008726 -0.009194 0.011879 0.000000 0.022320 0.000000
# 4 0.000000 0.000000 0.000000 0.146201 0.000000 0.014269
# 5 0.071314 -0.028898 0.022320 0.000000 0.126723 0.000000
# 6 0.000000 0.000000 0.000000 0.014269 0.000000 0.127022
#
#
# Mechanical properties :
#
#
# Convention : Reuss Voigt Hill
#
# Bulk Modulus (GPa) = 15.67185 51.17239 33.42212
# Shear Modulus (GPa) = 8.84899 21.16816 15.00857
#
# Velocity S-wave (km/s) = 2.05129 3.17265 2.67147
# Velocity P-wave (km/s) = 3.61422 6.14443 5.04066
#
# Compressibility (1/GPa) = 0.06380866
#
# Stress axis : x y z
#
# Youngs Moduli (GPa) = 14.38276 44.62669 84.18475
#
# Poissons Ratio (x) = 0.87175 -0.73455
# Poissons Ratio (y) = 0.28096 0.77401
# Poissons Ratio (z) = -0.12550 0.41030
#
# Static dielectric constant tensor:
#      x y z
#    x 1.801630 0.000000 0.005000 
#    y 0.000000 1.754560 0.000000 
#    z 0.005000 0.000000 1.805130 
# 
# From -- ./inp_files/138527.got.cif
#   From: 2010.05.17/outbox.cif.g08.bks.cpg/sg15_70_cif.got.tgz:138527.got - 2010.06.03 18:47:42.
