data_PCOD9268096
_publ_section_title
;
Structure prediction by ZEFSAII (Michael W. Deem and Ramdas Pophale) SiO2 
 PCOD9268096
Probable space group: C 2/C
;
_chemical_formula_sum "Si O2"
_cell_formula_units_Z 36
_cell_length_a 5.546103
_cell_length_b 30.413711
_cell_length_c 8.079190
_cell_angle_alpha 90.000000
_cell_angle_beta 90.697270
_cell_angle_gamma 90.000000
_cell_volume 1362.677255
_symmetry_space_group_name_H-M "C 2/C"
_symmetry_group_IT_number 15
_symmetry_cell_setting 'monoclinic'
loop_
_space_group_symop_operation_xyz
x,y,z
-x,y,1/2-z
-x,-y,-z
x,-y,1/2+z
1/2+x,1/2+y,z
1/2-x,1/2+y,1/2-z
1/2-x,1/2-y,-z
1/2+x,1/2-y,1/2+z
loop_
_atom_site_type_symbol
_atom_site_label
_atom_site_fract_x
_atom_site_fract_y
_atom_site_fract_z
Si Si1 0.500000 0.552093 0.750000
Si Si2 0.657060 0.607562 0.481728
Si Si3 0.000000 0.651589 0.750000
Si Si4 0.500000 0.242842 0.250000
Si Si5 0.244020 0.486838 0.587793
Si Si6 0.631720 0.692830 0.016021
O O1 0.462712 0.584109 0.596901
O O2 0.272176 0.520163 0.740894
O O3 0.744876 0.565761 0.374371
O O4 0.525031 0.651514 0.426062
O O5 0.859674 0.622381 0.613877
O O6 0.180330 0.679186 0.631007
O O7 0.540889 0.273838 0.088484
O O8 0.717235 0.213582 0.329978
O O9 0.500000 0.500000 0.500000
O O10 0.000000 0.500000 0.500000
#
# Coordination Sequence:
#
# PCOD9268096 Si02
#       6
#     4   8   4   4   8   8
#     4  10  19  42  62  91 134 188 229 292 361 432
#     4  11  21  40  65  95 136 179 241 284 372 428
#     4  12  20  38  72  96 128 186 242 284 366 432
#     4  10  23  48  66  97 156 170 249 292 389 420
#     4  10  23  38  62  96 134 181 235 297 352 432
#     4  11  23  44  69 103 134 197 224 315 353 462
#
# _framework density 26.418579999999999
#
# number of rings (size 3 to 8) (size 9 to 14) (size 15 to 20)
#    0.000    1.333    4.444    1.333    3.111    3.556 
#    4.000    0.000    0.000    0.000    0.000    0.000 
#    0.000    0.000    0.000    0.000    0.000    0.000 
#
# Total GULP energy -100288.819816 kJ/mol
# GULP energy per Si atom -5571.601101 kJ/mol
# Density = 2.635845 g / cm^3
# Si number density = 26.418580 Si / 1000 Ang^3
#
#
#
# Elastic Constant Matrix: (Units=GPa)
#
#
# Indices 1 2 3 4 5 6 
#
# 1 120.7786 49.4421 66.0981 0.0000 15.6820 0.0000
# 2 49.4421 223.9535 84.2241 0.0000 36.6905 0.0000
# 3 66.0981 84.2241 157.3441 0.0000 55.9601 0.0000
# 4 0.0000 0.0000 0.0000 32.1851 0.0000 33.8432
# 5 15.6820 36.6905 55.9601 0.0000 65.8302 0.0000
# 6 0.0000 0.0000 0.0000 33.8432 0.0000 11.7371
#
#
#
# Elastic Compliance Matrix: (Units=1/GPa)
#
#
# Indices 1 2 3 4 5 6 
#
# 1 0.011065 -0.000946 -0.004862 0.000000 0.002024 0.000000
# 2 -0.000946 0.005703 -0.002300 0.000000 -0.000998 0.000000
# 3 -0.004862 -0.002300 0.012558 0.000000 -0.008235 0.000000
# 4 0.000000 0.000000 0.000000 -0.015291 0.000000 0.044090
# 5 0.002024 -0.000998 -0.008235 0.000000 0.022265 0.000000
# 6 0.000000 0.000000 0.000000 0.044090 0.000000 -0.041929
#
#
# Mechanical properties :
#
#
# Convention : Reuss Voigt Hill
#
# Bulk Modulus (GPa) = 76.28222 100.17830 88.23026
# Shear Modulus (GPa) = 334.33186 42.10461 188.21824
#
# Velocity S-wave (km/s) = 11.26173 3.99651 8.44981
# Velocity P-wave (km/s) = 14.07264 7.70053 11.34322
#
# Compressibility (1/GPa) = 0.01310922
#
# Stress axis : x y z
#
# Youngs Moduli (GPa) = 90.37786 175.35869 79.63138
#
# Poissons Ratio (x) = 0.16589 0.38714
# Poissons Ratio (y) = 0.08550 0.18318
# Poissons Ratio (z) = 0.43938 0.40338
#
# Static dielectric constant tensor:
#      x y z
#    x 1.726780 0.000000 -0.507940 
#    y 0.000000 2.211070 0.000000 
#    z -0.507940 0.000000 -18.754670 
# 
# From -- ./inp_files/73444.got.cif
#   From: 2010.05.17/outbox.cif.g08.bks.cpg/sg15_37_cif.got.tgz:73444.got - 2010.06.03 18:47:42.
