data_PCOD9268145
_publ_section_title
;
Structure prediction by ZEFSAII (Michael W. Deem and Ramdas Pophale) SiO2 
 PCOD9268145
Probable space group: C 2/C
;
_chemical_formula_sum "Si O2"
_cell_formula_units_Z 44
_cell_length_a 16.167955
_cell_length_b 7.211369
_cell_length_c 23.784481
_cell_angle_alpha 90.000000
_cell_angle_beta 131.362763
_cell_angle_gamma 90.000000
_cell_volume 2081.329019
_symmetry_space_group_name_H-M "C 2/C"
_symmetry_group_IT_number 15
_symmetry_cell_setting 'monoclinic'
loop_
_space_group_symop_operation_xyz
x,y,z
-x,y,1/2-z
-x,-y,-z
x,-y,1/2+z
1/2+x,1/2+y,z
1/2-x,1/2+y,1/2-z
1/2-x,1/2-y,-z
1/2+x,1/2-y,1/2+z
loop_
_atom_site_type_symbol
_atom_site_label
_atom_site_fract_x
_atom_site_fract_y
_atom_site_fract_z
Si Si1 0.490906 0.750311 0.163059
Si Si2 0.000000 0.920337 0.250000
Si Si3 0.384102 0.421800 0.880476
Si Si4 0.910716 0.174490 0.520804
Si Si5 0.816505 0.482817 0.560032
Si Si6 0.635089 0.925571 0.786691
O O1 0.461926 0.567431 0.185978
O O2 0.572797 0.704149 0.149831
O O3 0.376972 0.823031 0.086337
O O4 0.556527 0.911685 0.227367
O O5 0.916956 0.778924 0.244406
O O6 0.466021 0.599032 0.915071
O O7 0.255415 0.460151 0.815734
O O8 0.397985 0.322935 0.947528
O O9 0.876081 0.357241 0.539597
O O10 0.814907 0.035302 0.500131
O O11 0.846607 0.421236 0.637444
#
# Coordination Sequence:
#
# PCOD9268145 Si02
#       6
#     8   4   8   8   8   8
#     4  12  24  39  66 101 122 173 214 265 329 387
#     4  12  22  42  64  92 124 174 208 260 332 382
#     4  10  24  40  63  98 134 165 215 264 327 379
#     4   9  21  43  67  91 130 182 208 267 318 373
#     4  10  19  42  69  90 130 166 226 258 306 394
#     4  11  23  43  63  98 131 165 213 272 320 386
#
# _framework density 21.140338
#
# number of rings (size 3 to 8) (size 9 to 14) (size 15 to 20)
#    0.000    1.455    3.636    1.091    2.545    1.455 
#    0.000    0.000    0.000    0.000    0.000    0.000 
#    0.000    0.000    0.000    0.000    0.000    0.000 
#
# Total GULP energy -122568.492104 kJ/mol
# GULP energy per Si atom -5571.295096 kJ/mol
# Density = 2.109222 g / cm^3
# Si number density = 21.140338 Si / 1000 Ang^3
#
#
#
# Elastic Constant Matrix: (Units=GPa)
#
#
# Indices 1 2 3 4 5 6 
#
# 1 122.4919 23.8215 16.5786 0.0000 2.6885 0.0000
# 2 23.8215 103.6395 33.0216 0.0000 -3.4905 0.0000
# 3 16.5786 33.0216 33.9310 0.0000 6.2283 0.0000
# 4 0.0000 0.0000 0.0000 20.0255 0.0000 -14.3182
# 5 2.6885 -3.4905 6.2283 0.0000 50.5645 0.0000
# 6 0.0000 0.0000 0.0000 -14.3182 0.0000 23.3166
#
#
#
# Elastic Compliance Matrix: (Units=1/GPa)
#
#
# Indices 1 2 3 4 5 6 
#
# 1 0.008806 -0.000963 -0.003343 0.000000 -0.000123 0.000000
# 2 -0.000963 0.014461 -0.014115 0.000000 0.002788 0.000000
# 3 -0.003343 -0.014115 0.046028 0.000000 -0.006466 0.000000
# 4 0.000000 0.000000 0.000000 0.089024 0.000000 0.054668
# 5 -0.000123 0.002788 -0.006466 0.000000 0.020772 0.000000
# 6 0.000000 0.000000 0.000000 0.054668 0.000000 0.076459
#
#
# Mechanical properties :
#
#
# Convention : Reuss Voigt Hill
#
# Bulk Modulus (GPa) = 30.81266 45.21176 38.01221
# Shear Modulus (GPa) = 16.49016 31.22402 23.85709
#
# Velocity S-wave (km/s) = 2.79594 3.84733 3.36298
# Velocity P-wave (km/s) = 5.00299 6.41629 5.75321
#
# Compressibility (1/GPa) = 0.03245419
#
# Stress axis : x y z
#
# Youngs Moduli (GPa) = 113.55581 69.14935 21.72568
#
# Poissons Ratio (x) = 0.06660 0.07262
# Poissons Ratio (y) = 0.10937 0.30666
# Poissons Ratio (z) = 0.37959 0.97605
#
# Static dielectric constant tensor:
#      x y z
#    x 1.762600 0.000000 -0.000490 
#    y 0.000000 1.795370 0.000000 
#    z -0.000490 0.000000 1.826390 
# 
# From -- ./inp_files/297876.got.cif
#   From: 2010.05.17/outbox.cif.g08.bks.cpg/sg15_149_cif.got.tgz:297876.got - 2010.06.03 18:47:42.
