data_PCOD9268004
_publ_section_title
;
Structure prediction by ZEFSAII (Michael W. Deem and Ramdas Pophale) SiO2 
 PCOD9268004
Probable space group: C 2/C
;
_chemical_formula_sum "Si O2"
_cell_formula_units_Z 44
_cell_length_a 10.021679
_cell_length_b 10.270541
_cell_length_c 25.867977
_cell_angle_alpha 90.000000
_cell_angle_beta 52.545801
_cell_angle_gamma 90.000000
_cell_volume 2113.630652
_symmetry_space_group_name_H-M "C 2/C"
_symmetry_group_IT_number 15
_symmetry_cell_setting 'monoclinic'
loop_
_space_group_symop_operation_xyz
x,y,z
-x,y,1/2-z
-x,-y,-z
x,-y,1/2+z
1/2+x,1/2+y,z
1/2-x,1/2+y,1/2-z
1/2-x,1/2-y,-z
1/2+x,1/2-y,1/2+z
loop_
_atom_site_type_symbol
_atom_site_label
_atom_site_fract_x
_atom_site_fract_y
_atom_site_fract_z
Si Si1 0.500000 0.863791 0.250000
Si Si2 0.108685 0.523482 0.086672
Si Si3 0.406608 0.884895 0.552038
Si Si4 0.211331 0.970165 0.846439
Si Si5 0.447284 0.390858 0.471463
Si Si6 0.447694 0.267544 0.872289
O O1 0.659886 0.958065 0.221851
O O2 0.535207 0.778326 0.191142
O O3 0.175986 0.554384 0.128350
O O4 0.093941 0.366900 0.087752
O O5 0.936772 0.583424 0.105812
O O6 0.249246 0.587425 0.015983
O O7 0.496529 0.747444 0.520441
O O8 0.212247 0.862434 0.584888
O O9 0.500000 0.000000 0.500000
O O10 0.064151 0.073488 0.895588
O O11 0.114406 0.841674 0.851403
O O12 0.500000 0.500000 0.500000
#
# Coordination Sequence:
#
# PCOD9268004 Si02
#       6
#     4   8   8   8   8   8
#     4  10  22  46  64  92 126 178 228 272 328 380
#     4  10  23  40  66  98 138 168 212 264 334 396
#     4  12  24  38  68 106 137 174 216 270 334 401
#     4  10  22  43  70  88 129 180 215 272 331 385
#     4  10  19  41  65  95 139 174 206 263 333 396
#     4  11  24  45  68  95 134 173 220 280 327 390
#
# _framework density 20.817260999999998
#
# number of rings (size 3 to 8) (size 9 to 14) (size 15 to 20)
#    0.000    1.455    5.455    1.636    5.091    4.364 
#    0.000    0.000    0.000    0.000    0.000    0.000 
#    0.000    0.000    0.000    0.000    0.000    0.000 
#
# Total GULP energy -122743.732778 kJ/mol
# GULP energy per Si atom -5579.260581 kJ/mol
# Density = 2.076988 g / cm^3
# Si number density = 20.817261 Si / 1000 Ang^3
#
#
#
# Elastic Constant Matrix: (Units=GPa)
#
#
# Indices 1 2 3 4 5 6 
#
# 1 96.7726 53.0746 0.7148 0.0000 -0.5282 0.0000
# 2 53.0746 140.1718 33.7821 0.0000 -6.7956 0.0000
# 3 0.7148 33.7821 75.4169 0.0000 -16.5674 0.0000
# 4 0.0000 0.0000 0.0000 26.1344 0.0000 -1.5322
# 5 -0.5282 -6.7956 -16.5674 0.0000 23.5496 0.0000
# 6 0.0000 0.0000 0.0000 -1.5322 0.0000 43.5620
#
#
#
# Elastic Compliance Matrix: (Units=1/GPa)
#
#
# Indices 1 2 3 4 5 6 
#
# 1 0.013425 -0.005666 0.002505 0.000000 0.000428 0.000000
# 2 -0.005666 0.010390 -0.004695 0.000000 -0.000432 0.000000
# 3 0.002505 -0.004695 0.017806 0.000000 0.011228 0.000000
# 4 0.000000 0.000000 0.000000 0.038343 0.000000 0.001349
# 5 0.000428 -0.000432 0.011228 0.000000 0.050247 0.000000
# 6 0.000000 0.000000 0.000000 0.001349 0.000000 0.023003
#
#
# Mechanical properties :
#
#
# Convention : Reuss Voigt Hill
#
# Bulk Modulus (GPa) = 38.59885 54.16716 46.38301
# Shear Modulus (GPa) = 28.15903 33.63519 30.89711
#
# Velocity S-wave (km/s) = 3.68187 4.02398 3.85672
# Velocity P-wave (km/s) = 6.05449 6.90411 6.49321
#
# Compressibility (1/GPa) = 0.02590750
#
# Stress axis : x y z
#
# Youngs Moduli (GPa) = 74.48840 96.24464 56.16215
#
# Poissons Ratio (x) = 0.54534 -0.14068
# Poissons Ratio (y) = 0.42206 0.26370
# Poissons Ratio (z) = -0.18659 0.45191
#
# Static dielectric constant tensor:
#      x y z
#    x 1.827020 0.000000 -0.005670 
#    y 0.000000 1.739740 0.000000 
#    z -0.005670 0.000000 1.830140 
# 
# From -- ./inp_files/309859.got.cif
#   From: 2010.05.17/outbox.cif.g08.bks.cpg/sg15_155_cif.got.tgz:309859.got - 2010.06.03 18:47:42.
