data_PCOD9268837
_publ_section_title
;
Structure prediction by ZEFSAII (Michael W. Deem and Ramdas Pophale) SiO2 
 PCOD9268837
Probable space group: C 2/C
;
_chemical_formula_sum "Si O2"
_cell_formula_units_Z 44
_cell_length_a 10.807617
_cell_length_b 21.519830
_cell_length_c 16.335304
_cell_angle_alpha 90.000000
_cell_angle_beta 139.280452
_cell_angle_gamma 90.000000
_cell_volume 2478.456756
_symmetry_space_group_name_H-M "C 2/C"
_symmetry_group_IT_number 15
_symmetry_cell_setting 'monoclinic'
loop_
_space_group_symop_operation_xyz
x,y,z
-x,y,1/2-z
-x,-y,-z
x,-y,1/2+z
1/2+x,1/2+y,z
1/2-x,1/2+y,1/2-z
1/2-x,1/2-y,-z
1/2+x,1/2-y,1/2+z
loop_
_atom_site_type_symbol
_atom_site_label
_atom_site_fract_x
_atom_site_fract_y
_atom_site_fract_z
Si Si1 0.000000 0.957543 0.750000
Si Si2 0.577248 0.417796 0.616949
Si Si3 0.851299 0.538138 0.978461
Si Si4 0.697657 0.982965 0.374295
Si Si5 0.226677 0.309091 0.881206
Si Si6 0.291874 0.669081 0.606856
O O1 0.084110 0.917858 0.718178
O O2 0.154687 0.003759 0.863288
O O3 0.361588 0.435067 0.482995
O O4 0.705797 0.474364 0.646694
O O5 0.656340 0.355423 0.617056
O O6 0.838493 0.609184 0.943845
O O7 0.865986 0.529036 0.083534
O O8 0.000000 0.500000 0.000000
O O9 0.500000 0.951904 0.250000
O O10 0.269177 0.236030 0.889076
O O11 0.000000 0.317320 0.750000
O O12 0.285907 0.323493 0.004949
O O13 0.500000 0.656706 0.750000
#
# Coordination Sequence:
#
# PCOD9268837 Si02
#       6
#     4   8   8   8   8   8
#     4  10  22  34  52  86 112 146 192 232 290 340
#     4  10  20  35  57  83 117 151 192 243 285 350
#     4  11  21  33  55  85 116 148 182 241 284 342
#     4  10  20  33  53  84 117 154 187 238 296 339
#     4  10  21  37  62  87 115 153 190 241 294 347
#     4  10  21  37  57  91 118 145 196 242 291 336
#
# _framework density 17.752983
#
# number of rings (size 3 to 8) (size 9 to 14) (size 15 to 20)
#    0.000    1.818    2.727    1.636    2.545    1.455 
#    0.000    0.000    0.000    4.364    9.455    0.000 
#    0.000    0.000    0.000    0.000    0.000    0.000 
#
# Total GULP energy -122624.622135 kJ/mol
# GULP energy per Si atom -5573.846461 kJ/mol
# Density = 1.771258 g / cm^3
# Si number density = 17.752983 Si / 1000 Ang^3
#
#
#
# Elastic Constant Matrix: (Units=GPa)
#
#
# Indices 1 2 3 4 5 6 
#
# 1 74.3499 36.9785 23.3549 0.0002 -14.0605 0.0003
# 2 36.9785 126.8078 18.1737 0.0002 -2.2787 0.0004
# 3 23.3549 18.1737 91.9349 0.0007 2.8931 0.0013
# 4 0.0002 0.0002 0.0007 14.1213 0.0004 3.0430
# 5 -14.0605 -2.2787 2.8931 0.0004 32.6560 0.0006
# 6 0.0003 0.0004 0.0013 3.0430 0.0006 25.8994
#
#
#
# Elastic Compliance Matrix: (Units=1/GPa)
#
#
# Indices 1 2 3 4 5 6 
#
# 1 0.018571 -0.004692 -0.004043 0.000000 0.008027 0.000000
# 2 -0.004692 0.009318 -0.000609 0.000000 -0.001316 0.000000
# 3 -0.004043 -0.000609 0.012115 0.000000 -0.002856 0.000000
# 4 0.000000 0.000000 0.000000 0.072654 -0.000001 -0.008536
# 5 0.008027 -0.001316 -0.002856 -0.000001 0.034240 -0.000001
# 6 0.000000 0.000000 0.000000 -0.008536 -0.000001 0.039614
#
#
# Mechanical properties :
#
#
# Convention : Reuss Voigt Hill
#
# Bulk Modulus (GPa) = 46.91145 50.01186 48.46165
# Shear Modulus (GPa) = 23.55112 28.84104 26.19608
#
# Velocity S-wave (km/s) = 3.64620 4.03497 3.84550
# Velocity P-wave (km/s) = 6.64893 7.06683 6.86107
#
# Compressibility (1/GPa) = 0.02131676
#
# Stress axis : x y z
#
# Youngs Moduli (GPa) = 53.84596 107.32198 82.54557
#
# Poissons Ratio (x) = 0.50355 0.33373
# Poissons Ratio (y) = 0.25264 0.05024
# Poissons Ratio (z) = 0.21770 0.06531
#
# Static dielectric constant tensor:
#      x y z
#    x 1.594490 0.000000 -0.027660 
#    y 0.000000 1.597050 0.000000 
#    z -0.027660 0.000000 1.687550 
# 
# From -- ./inp_files/88122.got.cif
#   From: 2010.05.17/outbox.cif.g08.bks.cpg/sg15_45_cif.got.tgz:88122.got - 2010.06.03 18:47:42.
