data_PCOD9268873
_publ_section_title
;
Structure prediction by ZEFSAII (Michael W. Deem and Ramdas Pophale) SiO2 
 PCOD9268873
Probable space group: C 2/C
;
_chemical_formula_sum "Si O2"
_cell_formula_units_Z 56
_cell_length_a 14.908962
_cell_length_b 25.677445
_cell_length_c 8.159955
_cell_angle_alpha 90.000000
_cell_angle_beta 114.710991
_cell_angle_gamma 90.000000
_cell_volume 2837.771951
_symmetry_space_group_name_H-M "C 2/C"
_symmetry_group_IT_number 15
_symmetry_cell_setting 'monoclinic'
loop_
_space_group_symop_operation_xyz
x,y,z
-x,y,1/2-z
-x,-y,-z
x,-y,1/2+z
1/2+x,1/2+y,z
1/2-x,1/2+y,1/2-z
1/2-x,1/2-y,-z
1/2+x,1/2-y,1/2+z
loop_
_atom_site_type_symbol
_atom_site_label
_atom_site_fract_x
_atom_site_fract_y
_atom_site_fract_z
Si Si1 0.738551 0.591693 0.878231
Si Si2 0.616303 0.975022 0.810871
Si Si3 0.786835 0.674348 0.651690
Si Si4 0.115042 0.782841 0.804612
Si Si5 0.370059 0.385813 0.861322
Si Si6 0.041757 0.053876 0.599081
Si Si7 0.696168 0.926914 0.535827
O O1 0.769274 0.643023 0.804678
O O2 0.658550 0.561287 0.704104
O O3 0.833218 0.559471 0.008223
O O4 0.681096 0.603433 0.003622
O O5 0.500000 0.980654 0.750000
O O6 0.638857 0.947014 0.654566
O O7 0.669431 0.030757 0.877607
O O8 0.856850 0.724019 0.717997
O O9 0.683205 0.697922 0.507436
O O10 0.825943 0.630615 0.552364
O O11 0.140828 0.825418 0.687153
O O12 0.000000 0.786423 0.750000
O O13 0.309899 0.420799 0.683131
O O14 0.484491 0.401841 0.954055
O O15 0.000000 0.057797 0.750000
O O16 0.000000 0.000000 0.500000
#
# Coordination Sequence:
#
# PCOD9268873 Si02
#       7
#     8   8   8   8   8   8   8
#     4  10  21  37  56  82 115 147 186 232 278 335
#     4  11  22  36  56  81 113 152 188 226 276 330
#     4  10  22  38  59  83 111 146 186 234 282 330
#     4  10  21  38  59  82 109 146 187 231 283 334
#     4   9  20  37  57  82 112 145 185 234 284 338
#     4  10  20  33  54  84 115 146 181 224 281 339
#     4  10  21  37  55  80 113 145 186 230 275 333
#
# _framework density 19.733792999999999
#
# number of rings (size 3 to 8) (size 9 to 14) (size 15 to 20)
#    0.000    2.000    0.000    3.000    0.000    7.429 
#    0.000    0.000    0.000    2.571    0.000    0.000 
#    0.000    0.000    0.000    0.000    0.000    0.000 
#
# Total GULP energy -156293.201765 kJ/mol
# GULP energy per Si atom -5581.900063 kJ/mol
# Density = 1.968888 g / cm^3
# Si number density = 19.733793 Si / 1000 Ang^3
#
#
#
# Elastic Constant Matrix: (Units=GPa)
#
#
# Indices 1 2 3 4 5 6 
#
# 1 89.6066 38.8570 51.8170 0.0000 21.8780 0.0000
# 2 38.8570 134.7540 54.5059 0.0000 19.7188 0.0000
# 3 51.8170 54.5059 92.0984 0.0000 13.0961 0.0000
# 4 0.0000 0.0000 0.0000 30.9346 0.0000 -3.6341
# 5 21.8780 19.7188 13.0961 0.0000 18.7490 0.0000
# 6 0.0000 0.0000 0.0000 -3.6341 0.0000 25.9599
#
#
#
# Elastic Compliance Matrix: (Units=1/GPa)
#
#
# Indices 1 2 3 4 5 6 
#
# 1 0.020860 0.000464 -0.009416 0.000000 -0.018253 0.000000
# 2 0.000464 0.010647 -0.005433 0.000000 -0.007945 0.000000
# 3 -0.009416 -0.005433 0.018870 0.000000 0.003520 0.000000
# 4 0.000000 0.000000 0.000000 0.032867 0.000000 0.004601
# 5 -0.018253 -0.007945 0.003520 0.000000 0.080532 0.000000
# 6 0.000000 0.000000 0.000000 0.004601 0.000000 0.039165
#
#
# Mechanical properties :
#
#
# Convention : Reuss Voigt Hill
#
# Bulk Modulus (GPa) = 46.27690 67.42434 56.85062
# Shear Modulus (GPa) = 20.92822 26.54731 23.73776
#
# Velocity S-wave (km/s) = 3.26011 3.67177 3.47205
# Velocity P-wave (km/s) = 6.13780 7.22613 6.70409
#
# Compressibility (1/GPa) = 0.02160905
#
# Stress axis : x y z
#
# Youngs Moduli (GPa) = 47.93902 93.92265 52.99378
#
# Poissons Ratio (x) = -0.04362 0.49897
# Poissons Ratio (y) = -0.02226 0.28790
# Poissons Ratio (z) = 0.45138 0.51025
#
# Static dielectric constant tensor:
#      x y z
#    x 1.681370 0.000000 -0.005520 
#    y 0.000000 1.649930 0.000000 
#    z -0.005520 0.000000 1.737400 
# 
# From -- ./inp_files/43615.got.cif
#   From: 2010.05.17/outbox.cif.g08.bks.cpg/sg15_22_cif.got.tgz:43615.got - 2010.06.03 18:47:42.
