data_PCOD9268761
_publ_section_title
;
Structure prediction by ZEFSAII (Michael W. Deem and Ramdas Pophale) SiO2 
 PCOD9268761
Probable space group: C 2/C
;
_chemical_formula_sum "Si O2"
_cell_formula_units_Z 52
_cell_length_a 27.654315
_cell_length_b 19.921404
_cell_length_c 8.384389
_cell_angle_alpha 90.000000
_cell_angle_beta 145.877922
_cell_angle_gamma 90.000000
_cell_volume 2591.102773
_symmetry_space_group_name_H-M "C 2/C"
_symmetry_group_IT_number 15
_symmetry_cell_setting 'monoclinic'
loop_
_space_group_symop_operation_xyz
x,y,z
-x,y,1/2-z
-x,-y,-z
x,-y,1/2+z
1/2+x,1/2+y,z
1/2-x,1/2+y,1/2-z
1/2-x,1/2-y,-z
1/2+x,1/2-y,1/2+z
loop_
_atom_site_type_symbol
_atom_site_label
_atom_site_fract_x
_atom_site_fract_y
_atom_site_fract_z
Si Si1 0.184817 0.188490 0.789756
Si Si2 0.624527 0.723736 0.274899
Si Si3 0.456169 0.232495 0.455464
Si Si4 0.873875 0.541028 0.652195
Si Si5 0.240401 0.351170 0.511746
Si Si6 0.500000 0.994454 0.250000
Si Si7 0.175699 0.614094 0.478847
O O1 0.141460 0.194310 0.497458
O O2 0.108750 0.203734 0.705355
O O3 0.250000 0.250000 0.000000
O O4 0.248828 0.125871 0.946460
O O5 0.527988 0.751127 0.020076
O O6 0.660190 0.671328 0.240752
O O7 0.687769 0.787302 0.431331
O O8 0.500000 0.223316 0.750000
O O9 0.401166 0.166121 0.267154
O O10 0.793402 0.587841 0.472101
O O11 0.848433 0.463161 0.579842
O O12 0.928907 0.551595 0.642620
O O13 0.946976 0.542845 0.988175
O O14 0.209319 0.366395 0.246766
#
# Coordination Sequence:
#
# PCOD9268761 Si02
#       7
#     8   8   8   8   8   4   8
#     4   8  16  33  50  77 103 132 172 213 265 309
#     4   9  19  33  54  72 101 140 177 219 255 308
#     4   9  18  31  54  80 102 135 176 225 264 310
#     4  11  22  36  50  75 109 143 171 214 259 327
#     4  10  21  37  49  73 107 144 178 209 263 317
#     4  10  24  34  48  76 104 140 178 204 258 322
#     4  10  20  33  52  74 110 141 170 214 267 317
#
# _framework density 20.068674999999999
#
# number of rings (size 3 to 8) (size 9 to 14) (size 15 to 20)
#    0.000    2.462    1.538    0.000    5.385    3.077 
#    0.000    0.000    0.000    0.923    0.000    0.000 
#    0.000    0.000    0.000    0.000    0.000    0.000 
#
# Total GULP energy -144932.633730 kJ/mol
# GULP energy per Si atom -5574.332067 kJ/mol
# Density = 2.002300 g / cm^3
# Si number density = 20.068675 Si / 1000 Ang^3
#
#
#
# Elastic Constant Matrix: (Units=GPa)
#
#
# Indices 1 2 3 4 5 6 
#
# 1 137.2426 55.4814 22.1016 0.0000 37.3460 0.0000
# 2 55.4814 83.8311 18.3358 0.0000 28.7125 0.0000
# 3 22.1016 18.3358 30.3463 0.0000 8.0241 0.0000
# 4 0.0000 0.0000 0.0000 4.9905 0.0000 11.3703
# 5 37.3460 28.7125 8.0241 0.0000 40.5021 0.0000
# 6 0.0000 0.0000 0.0000 11.3703 0.0000 35.8608
#
#
#
# Elastic Compliance Matrix: (Units=1/GPa)
#
#
# Indices 1 2 3 4 5 6 
#
# 1 0.011558 -0.004498 -0.003931 0.000000 -0.006690 0.000000
# 2 -0.004498 0.019018 -0.006064 0.000000 -0.008133 0.000000
# 3 -0.003931 -0.006064 0.039452 0.000000 0.000108 0.000000
# 4 0.000000 0.000000 0.000000 0.721864 0.000000 -0.228879
# 5 -0.006690 -0.008133 0.000108 0.000000 0.036603 0.000000
# 6 0.000000 0.000000 0.000000 -0.228879 0.000000 0.100456
#
#
# Mechanical properties :
#
#
# Convention : Reuss Voigt Hill
#
# Bulk Modulus (GPa) = 24.36632 49.25084 36.80858
# Shear Modulus (GPa) = 5.14606 26.63743 15.89174
#
# Velocity S-wave (km/s) = 1.60306 3.64718 2.81707
# Velocity P-wave (km/s) = 3.94895 6.50618 5.38166
#
# Compressibility (1/GPa) = 0.04104026
#
# Stress axis : x y z
#
# Youngs Moduli (GPa) = 86.51698 52.58236 25.34745
#
# Poissons Ratio (x) = 0.23654 0.09964
# Poissons Ratio (y) = 0.38920 0.15371
# Poissons Ratio (z) = 0.34011 0.31887
#
# Static dielectric constant tensor:
#      x y z
#    x 1.815080 0.000000 -0.014720 
#    y 0.000000 1.700250 0.000000 
#    z -0.014720 0.000000 1.774490 
# 
# From -- ./inp_files/67458.got.cif
#   From: 2010.05.17/outbox.cif.g08.bks.cpg/sg15_34_cif.got.tgz:67458.got - 2010.06.03 18:47:42.
