data_PCOD9268198
_publ_section_title
;
Structure prediction by ZEFSAII (Michael W. Deem and Ramdas Pophale) SiO2 
 PCOD9268198
Probable space group: C 2/C
;
_chemical_formula_sum "Si O2"
_cell_formula_units_Z 40
_cell_length_a 31.292219
_cell_length_b 9.317872
_cell_length_c 14.624929
_cell_angle_alpha 90.000000
_cell_angle_beta 156.876597
_cell_angle_gamma 90.000000
_cell_volume 1674.641762
_symmetry_space_group_name_H-M "C 2/C"
_symmetry_group_IT_number 15
_symmetry_cell_setting 'monoclinic'
loop_
_space_group_symop_operation_xyz
x,y,z
-x,y,1/2-z
-x,-y,-z
x,-y,1/2+z
1/2+x,1/2+y,z
1/2-x,1/2+y,1/2-z
1/2-x,1/2-y,-z
1/2+x,1/2-y,1/2+z
loop_
_atom_site_type_symbol
_atom_site_label
_atom_site_fract_x
_atom_site_fract_y
_atom_site_fract_z
Si Si1 0.266728 0.092662 0.995155
Si Si2 0.361792 0.657043 0.233421
Si Si3 0.424695 0.935053 0.431524
Si Si4 0.617393 0.338450 0.934654
Si Si5 0.824526 0.507205 0.417968
O O1 0.337045 0.073666 0.040824
O O2 0.160152 0.996822 0.765549
O O3 0.250000 0.250000 0.000000
O O4 0.314607 0.007500 0.175508
O O5 0.430920 0.764446 0.431425
O O6 0.405172 0.642523 0.217082
O O7 0.250000 0.750000 0.000000
O O8 0.414133 0.974680 0.516308
O O9 0.500000 0.000000 0.500000
O O10 0.500000 0.346846 0.750000
O O11 0.708856 0.448389 0.151763
O O12 0.667966 0.177710 0.048370
#
# Coordination Sequence:
#
# PCOD9268198 Si02
#       5
#     8   8   8   8   8
#     4  11  23  41  66  99 138 181 235 295 351 425
#     4  10  19  44  64  87 142 177 215 295 349 402
#     4  11  22  41  70 100 133 188 234 285 366 433
#     4  12  25  45  73 104 139 192 237 286 367 435
#     4  12  23  42  73 101 143 187 235 300 356 423
#
# _framework density 23.885705000000002
#
# number of rings (size 3 to 8) (size 9 to 14) (size 15 to 20)
#    0.000    0.800    8.000    2.400    0.000    0.000 
#    0.000    7.000    0.000    0.000    0.000    0.000 
#    0.000    0.000    0.000    0.000    0.000    0.000 
#
# Total GULP energy -111608.873926 kJ/mol
# GULP energy per Si atom -5580.443696 kJ/mol
# Density = 2.383134 g / cm^3
# Si number density = 23.885705 Si / 1000 Ang^3
#
#
#
# Elastic Constant Matrix: (Units=GPa)
#
#
# Indices 1 2 3 4 5 6 
#
# 1 232.1427 54.0219 29.7573 0.0000 3.7768 0.0000
# 2 54.0219 157.3866 25.6630 0.0000 16.8620 0.0000
# 3 29.7573 25.6630 63.2587 0.0000 -2.5980 0.0000
# 4 0.0000 0.0000 0.0000 10.4148 0.0000 -5.5383
# 5 3.7768 16.8620 -2.5980 0.0000 43.8035 0.0000
# 6 0.0000 0.0000 0.0000 -5.5383 0.0000 27.5989
#
#
#
# Elastic Compliance Matrix: (Units=1/GPa)
#
#
# Indices 1 2 3 4 5 6 
#
# 1 0.004850 -0.001386 -0.001719 0.000000 0.000013 0.000000
# 2 -0.001386 0.007558 -0.002535 0.000000 -0.002940 0.000000
# 3 -0.001719 -0.002535 0.017734 0.000000 0.002176 0.000000
# 4 0.000000 0.000000 0.000000 0.107487 0.000000 0.021569
# 5 0.000013 -0.002940 0.002176 0.000000 0.024089 0.000000
# 6 0.000000 0.000000 0.000000 0.021569 0.000000 0.040562
#
#
# Mechanical properties :
#
#
# Convention : Reuss Voigt Hill
#
# Bulk Modulus (GPa) = 53.01331 74.63027 63.82179
# Shear Modulus (GPa) = 22.74308 39.25317 30.99812
#
# Velocity S-wave (km/s) = 3.08906 4.05825 3.60636
# Velocity P-wave (km/s) = 5.91319 7.29875 6.64220
#
# Compressibility (1/GPa) = 0.01886319
#
# Stress axis : x y z
#
# Youngs Moduli (GPa) = 206.17099 132.31263 56.38779
#
# Poissons Ratio (x) = 0.18339 0.09692
# Poissons Ratio (y) = 0.28576 0.14294
# Poissons Ratio (z) = 0.35437 0.33539
#
# Static dielectric constant tensor:
#      x y z
#    x 1.912190 0.000000 0.035540 
#    y 0.000000 2.046780 0.000000 
#    z 0.035540 0.000000 2.353310 
# 
# From -- ./inp_files/181281.got.cif
#   From: 2010.05.17/outbox.cif.g08.bks.cpg/sg15_91_cif.got.tgz:181281.got - 2010.06.03 18:47:42.
