data_PCOD9268179
_publ_section_title
;
Structure prediction by ZEFSAII (Michael W. Deem and Ramdas Pophale) SiO2 
 PCOD9268179
Probable space group: C 2/C
;
_chemical_formula_sum "Si O2"
_cell_formula_units_Z 48
_cell_length_a 26.591728
_cell_length_b 8.957032
_cell_length_c 15.571630
_cell_angle_alpha 90.000000
_cell_angle_beta 144.299866
_cell_angle_gamma 90.000000
_cell_volume 2164.301236
_symmetry_space_group_name_H-M "C 2/C"
_symmetry_group_IT_number 15
_symmetry_cell_setting 'monoclinic'
loop_
_space_group_symop_operation_xyz
x,y,z
-x,y,1/2-z
-x,-y,-z
x,-y,1/2+z
1/2+x,1/2+y,z
1/2-x,1/2+y,1/2-z
1/2-x,1/2-y,-z
1/2+x,1/2-y,1/2+z
loop_
_atom_site_type_symbol
_atom_site_label
_atom_site_fract_x
_atom_site_fract_y
_atom_site_fract_z
Si Si1 0.568442 0.061263 0.023157
Si Si2 0.757977 0.949891 0.338671
Si Si3 0.268799 0.926067 0.513595
Si Si4 0.494421 0.674723 0.489632
Si Si5 0.802405 0.873848 0.740958
Si Si6 0.465111 0.846680 0.784023
O O1 0.549084 0.236080 0.995084
O O2 0.538072 0.973226 0.898065
O O3 0.500000 0.000000 0.000000
O O4 0.663235 0.013619 0.180810
O O5 0.758690 0.770581 0.331021
O O6 0.767733 0.993786 0.451716
O O7 0.815433 0.037839 0.348681
O O8 0.250000 0.750000 0.500000
O O9 0.372663 0.925165 0.653436
O O10 0.231002 0.008987 0.377006
O O11 0.500000 0.500000 0.500000
O O12 0.392566 0.701511 0.338405
O O13 0.531031 0.737164 0.629904
O O14 0.500000 0.760275 0.750000
#
# Coordination Sequence:
#
# PCOD9268179 Si02
#       6
#     8   8   8   8   8   8
#     4  10  19  43  68  86 125 180 218 261 342 405
#     4  12  24  44  67 100 138 180 226 286 350 414
#     4  12  25  42  67 102 138 175 225 288 347 407
#     4  11  23  43  68  96 134 179 222 279 345 405
#     4  12  26  42  69 103 138 179 233 284 349 420
#     4  11  22  42  69  94 128 176 228 272 332 417
#
# _framework density 22.178058
#
# number of rings (size 3 to 8) (size 9 to 14) (size 15 to 20)
#    0.000    0.667    6.667    3.500    4.667    0.000 
#    0.000    0.833    0.000    0.000    0.000    0.000 
#    0.000    0.000    0.000    0.000    0.000    0.000 
#
# Total GULP energy -134017.329074 kJ/mol
# GULP energy per Si atom -5584.055378 kJ/mol
# Density = 2.212758 g / cm^3
# Si number density = 22.178058 Si / 1000 Ang^3
#
#
#
# Elastic Constant Matrix: (Units=GPa)
#
#
# Indices 1 2 3 4 5 6 
#
# 1 65.5140 24.3968 25.5174 0.0000 -16.4322 0.0000
# 2 24.3968 140.5027 -13.4304 0.0000 -12.6087 0.0000
# 3 25.5174 -13.4304 47.3490 0.0000 2.8914 0.0000
# 4 0.0000 0.0000 0.0000 38.7484 0.0000 0.6309
# 5 -16.4322 -12.6087 2.8914 0.0000 34.5620 0.0000
# 6 0.0000 0.0000 0.0000 0.6309 0.0000 28.9204
#
#
#
# Elastic Compliance Matrix: (Units=1/GPa)
#
#
# Indices 1 2 3 4 5 6 
#
# 1 0.026695 -0.005125 -0.016586 0.000000 0.012210 0.000000
# 2 -0.005125 0.008522 0.005165 0.000000 0.000240 0.000000
# 3 -0.016586 0.005165 0.032053 0.000000 -0.008683 0.000000
# 4 0.000000 0.000000 0.000000 0.025817 0.000000 -0.000563
# 5 0.012210 0.000240 -0.008683 0.000000 0.035553 0.000000
# 6 0.000000 0.000000 0.000000 -0.000563 0.000000 0.034590
#
#
# Mechanical properties :
#
#
# Convention : Reuss Voigt Hill
#
# Bulk Modulus (GPa) = 29.25811 36.25924 32.75868
# Shear Modulus (GPa) = 24.07146 34.90496 29.48821
#
# Velocity S-wave (km/s) = 3.29807 3.97148 3.65034
# Velocity P-wave (km/s) = 5.26536 6.11677 5.70697
#
# Compressibility (1/GPa) = 0.03417855
#
# Stress axis : x y z
#
# Youngs Moduli (GPa) = 37.46033 117.33717 31.19802
#
# Poissons Ratio (x) = 0.60135 0.51744
# Poissons Ratio (y) = 0.19198 -0.16113
# Poissons Ratio (z) = 0.62131 -0.60600
#
# Static dielectric constant tensor:
#      x y z
#    x 1.986300 0.000000 -0.054520 
#    y 0.000000 1.889050 0.000000 
#    z -0.054520 0.000000 1.912330 
# 
# From -- ./inp_files/177001.got.cif
#   From: 2010.05.17/outbox.cif.g08.bks.cpg/sg15_89_cif.got.tgz:177001.got - 2010.06.03 18:47:42.
