data_PCOD9268874
_publ_section_title
;
Structure prediction by ZEFSAII (Michael W. Deem and Ramdas Pophale) SiO2 
 PCOD9268874
Probable space group: C 2/C
;
_chemical_formula_sum "Si O2"
_cell_formula_units_Z 56
_cell_length_a 5.353334
_cell_length_b 36.844945
_cell_length_c 18.044965
_cell_angle_alpha 90.000000
_cell_angle_beta 51.559203
_cell_angle_gamma 90.000000
_cell_volume 2787.784771
_symmetry_space_group_name_H-M "C 2/C"
_symmetry_group_IT_number 15
_symmetry_cell_setting 'monoclinic'
loop_
_space_group_symop_operation_xyz
x,y,z
-x,y,1/2-z
-x,-y,-z
x,-y,1/2+z
1/2+x,1/2+y,z
1/2-x,1/2+y,1/2-z
1/2-x,1/2-y,-z
1/2+x,1/2-y,1/2+z
loop_
_atom_site_type_symbol
_atom_site_label
_atom_site_fract_x
_atom_site_fract_y
_atom_site_fract_z
Si Si1 0.243823 0.387807 0.541656
Si Si2 0.883106 0.547164 0.186825
Si Si3 0.008689 0.606096 0.575697
Si Si4 0.727360 0.308259 0.969757
Si Si5 0.508957 0.822126 0.160249
Si Si6 0.609696 0.762046 0.418177
Si Si7 0.381115 0.966907 0.187061
O O1 0.607690 0.389748 0.504040
O O2 0.123929 0.346743 0.578842
O O3 0.042427 0.419755 0.614893
O O4 0.195999 0.392790 0.461919
O O5 0.500000 0.549436 0.250000
O O6 0.989525 0.506921 0.140099
O O7 0.000000 0.549236 0.250000
O O8 0.889944 0.640107 0.647250
O O9 0.981784 0.567710 0.621482
O O10 0.787881 0.275910 0.899998
O O11 0.358986 0.317216 0.058509
O O12 0.834880 0.291135 0.027270
O O13 0.500000 0.824699 0.250000
O O14 0.343878 0.784789 0.164588
O O15 0.250000 0.750000 0.500000
O O16 0.500000 0.962744 0.250000
O O17 0.000000 0.967727 0.250000
#
# Coordination Sequence:
#
# PCOD9268874 Si02
#       7
#     8   8   8   8   8   8   8
#     4  11  22  38  62  86 118 150 202 248 287 355
#     4  10  22  41  63  85 112 157 198 245 304 343
#     4  11  22  36  56  93 118 158 196 233 298 351
#     4   9  19  35  57  80 107 155 190 234 290 342
#     4  10  20  33  54  84 118 152 189 236 286 350
#     4   9  17  35  57  74 106 150 190 227 287 353
#     4  10  21  38  58  84 125 161 192 236 292 351
#
# _framework density 20.087636
#
# number of rings (size 3 to 8) (size 9 to 14) (size 15 to 20)
#    0.000    2.000    1.429    2.143    0.000    2.857 
#    0.000    0.000    9.429    0.000    0.000    0.000 
#    0.000    0.000    0.000    0.000    0.000    0.000 
#
# Total GULP energy -156038.568669 kJ/mol
# GULP energy per Si atom -5572.806024 kJ/mol
# Density = 2.004192 g / cm^3
# Si number density = 20.087636 Si / 1000 Ang^3
#
#
#
# Elastic Constant Matrix: (Units=GPa)
#
#
# Indices 1 2 3 4 5 6 
#
# 1 65.0080 -2.0206 -1.9969 0.0000 4.0762 0.0000
# 2 -2.0206 170.9229 37.4552 0.0000 11.8527 0.0000
# 3 -1.9969 37.4552 36.4464 0.0000 13.3963 0.0000
# 4 0.0000 0.0000 0.0000 -221.2646 0.0000 247.5818
# 5 4.0762 11.8527 13.3963 0.0000 28.7219 0.0000
# 6 0.0000 0.0000 0.0000 247.5818 0.0000 -226.3130
#
#
#
# Elastic Compliance Matrix: (Units=1/GPa)
#
#
# Indices 1 2 3 4 5 6 
#
# 1 0.015643 -0.000049 0.002072 0.000000 -0.003166 0.000000
# 2 -0.000049 0.007560 -0.007999 0.000000 0.000618 0.000000
# 3 0.002072 -0.007999 0.041839 0.000000 -0.016507 0.000000
# 4 0.000000 0.000000 0.000000 0.020167 0.000000 0.022063
# 5 -0.003166 0.000618 -0.016507 0.000000 0.042710 0.000000
# 6 0.000000 0.000000 0.000000 0.022063 0.000000 0.019718
#
#
# Mechanical properties :
#
#
# Convention : Reuss Voigt Hill
#
# Bulk Modulus (GPa) = 18.83654 37.69474 28.26564
# Shear Modulus (GPa) = 28.20274 -67.84181 -19.81954
#
# Velocity S-wave (km/s) = 3.75104 -5.81775 -3.14451
# Velocity P-wave (km/s) = 5.30641 5.13054 0.95800
#
# Compressibility (1/GPa) = 0.05308832
#
# Stress axis : x y z
#
# Youngs Moduli (GPa) = 63.92495 132.27415 23.90109
#
# Poissons Ratio (x) = 0.00655 -0.04951
# Poissons Ratio (y) = 0.00316 0.19119
# Poissons Ratio (z) = -0.13243 1.05809
#
# Static dielectric constant tensor:
#      x y z
#    x 1.596430 0.000000 0.146770 
#    y 0.000000 3.282740 0.000000 
#    z 0.146770 0.000000 1.557890 
# 
# From -- ./inp_files/186645.got.cif
#   From: 2010.05.17/outbox.cif.g08.bks.cpg/sg15_94_cif.got.tgz:186645.got - 2010.06.03 18:47:42.
