data_PCOD9268398
_publ_section_title
;
Structure prediction by ZEFSAII (Michael W. Deem and Ramdas Pophale) SiO2 
 PCOD9268398
Probable space group: C 2/C
;
_chemical_formula_sum "Si O2"
_cell_formula_units_Z 44
_cell_length_a 28.643648
_cell_length_b 9.272088
_cell_length_c 16.266480
_cell_angle_alpha 90.000000
_cell_angle_beta 21.666557
_cell_angle_gamma 90.000000
_cell_volume 1595.020567
_symmetry_space_group_name_H-M "C 2/C"
_symmetry_group_IT_number 15
_symmetry_cell_setting 'monoclinic'
loop_
_space_group_symop_operation_xyz
x,y,z
-x,y,1/2-z
-x,-y,-z
x,-y,1/2+z
1/2+x,1/2+y,z
1/2-x,1/2+y,1/2-z
1/2-x,1/2-y,-z
1/2+x,1/2-y,1/2+z
loop_
_atom_site_type_symbol
_atom_site_label
_atom_site_fract_x
_atom_site_fract_y
_atom_site_fract_z
Si Si1 0.000000 0.658297 0.750000
Si Si2 0.561311 0.584037 0.975096
Si Si3 0.856044 0.428892 0.874720
Si Si4 0.781954 0.115266 0.649875
Si Si5 0.629342 0.820909 0.253475
Si Si6 0.629491 0.395789 0.128288
O O1 0.914234 0.549789 0.837862
O O2 0.893850 0.767123 0.958120
O O3 0.705825 0.586678 0.771854
O O4 0.494869 0.736499 0.068978
O O5 0.492019 0.494632 0.160828
O O6 0.500000 0.500000 0.000000
O O7 0.893801 0.512487 0.729318
O O8 0.900313 0.271941 0.828845
O O9 0.710534 0.406667 0.081873
O O10 0.667253 0.189621 0.787278
O O11 0.802728 0.970828 0.560802
O O12 0.750000 0.750000 0.000000
#
# Coordination Sequence:
#
# PCOD9268398 Si02
#       6
#     4   8   8   8   8   8
#     4  12  16  28  60  94 104 148 206 252 294 362
#     4  12  23  38  60  91 125 163 200 258 318 367
#     4  10  20  31  61  91 116 148 208 263 298 350
#     4  11  19  36  63  84 115 162 209 250 302 380
#     4  11  18  39  63  88 117 158 217 253 292 378
#     4  10  20  38  56  90 121 153 205 264 303 359
#
# _framework density 27.585851000000002
#
# number of rings (size 3 to 8) (size 9 to 14) (size 15 to 20)
#    0.000    1.091    9.091    0.000    2.545    0.000 
#    0.000    6.364    4.000    0.000    0.000    0.000 
#    0.000    0.000    0.000    0.000    0.000    0.000 
#
# Total GULP energy -122556.490234 kJ/mol
# GULP energy per Si atom -5570.749556 kJ/mol
# Density = 2.752306 g / cm^3
# Si number density = 27.585851 Si / 1000 Ang^3
#
#
#
# Elastic Constant Matrix: (Units=GPa)
#
#
# Indices 1 2 3 4 5 6 
#
# 1 250.9206 57.2568 15.0012 0.0000 -44.1033 0.0000
# 2 57.2568 214.1523 20.2028 0.0000 -15.6801 0.0000
# 3 15.0012 20.2028 49.4404 0.0000 -10.0203 0.0000
# 4 0.0000 0.0000 0.0000 13.8777 0.0000 -5.8117
# 5 -44.1033 -15.6801 -10.0203 0.0000 26.6761 0.0000
# 6 0.0000 0.0000 0.0000 -5.8117 0.0000 46.6417
#
#
#
# Elastic Compliance Matrix: (Units=1/GPa)
#
#
# Indices 1 2 3 4 5 6 
#
# 1 0.005784 -0.000918 0.000486 0.000000 0.009205 0.000000
# 2 -0.000918 0.005135 -0.001640 0.000000 0.000884 0.000000
# 3 0.000486 -0.001640 0.022424 0.000000 0.008262 0.000000
# 4 0.000000 0.000000 0.000000 0.076025 0.000000 0.009473
# 5 0.009205 0.000884 0.008262 0.000000 0.056328 0.000000
# 6 0.000000 0.000000 0.000000 0.009473 0.000000 0.022620
#
#
# Mechanical properties :
#
#
# Convention : Reuss Voigt Hill
#
# Bulk Modulus (GPa) = 34.25054 77.71499 55.98277
# Shear Modulus (GPa) = 24.72876 45.57593 35.15235
#
# Velocity S-wave (km/s) = 2.99729 4.06907 3.57359
# Velocity P-wave (km/s) = 4.94179 7.09293 6.11273
#
# Compressibility (1/GPa) = 0.02919662
#
# Stress axis : x y z
#
# Youngs Moduli (GPa) = 172.89903 194.75947 44.59556
#
# Poissons Ratio (x) = 0.17883 -0.02167
# Poissons Ratio (y) = 0.15876 0.07315
# Poissons Ratio (z) = -0.08402 0.31948
#
# Static dielectric constant tensor:
#      x y z
#    x 2.361800 0.000000 0.129050 
#    y 0.000000 2.004360 0.000000 
#    z 0.129050 0.000000 2.660670 
# 
# From -- ./inp_files/224368.got.cif
#   From: 2010.05.17/outbox.cif.g08.bks.cpg/sg15_113_cif.got.tgz:224368.got - 2010.06.03 18:47:42.
