data_PCOD9268101
_publ_section_title
;
Structure prediction by ZEFSAII (Michael W. Deem and Ramdas Pophale) SiO2 
 PCOD9268101
Probable space group: C 2/C
;
_chemical_formula_sum "Si O2"
_cell_formula_units_Z 48
_cell_length_a 14.338990
_cell_length_b 21.521902
_cell_length_c 11.663848
_cell_angle_alpha 90.000000
_cell_angle_beta 41.540966
_cell_angle_gamma 90.000000
_cell_volume 2387.021646
_symmetry_space_group_name_H-M "C 2/C"
_symmetry_group_IT_number 15
_symmetry_cell_setting 'monoclinic'
loop_
_space_group_symop_operation_xyz
x,y,z
-x,y,1/2-z
-x,-y,-z
x,-y,1/2+z
1/2+x,1/2+y,z
1/2-x,1/2+y,1/2-z
1/2-x,1/2-y,-z
1/2+x,1/2-y,1/2+z
loop_
_atom_site_type_symbol
_atom_site_label
_atom_site_fract_x
_atom_site_fract_y
_atom_site_fract_z
Si Si1 0.076249 0.240853 0.460974
Si Si2 0.428458 0.342253 0.927931
Si Si3 0.000000 0.945189 0.250000
Si Si4 0.607320 0.462520 0.820761
Si Si5 0.231756 0.118711 0.382528
Si Si6 0.153556 0.697685 0.656133
Si Si7 0.500000 0.825957 0.750000
O O1 0.191520 0.187299 0.374635
O O2 0.128866 0.283545 0.309625
O O3 0.947531 0.202740 0.519768
O O4 0.042595 0.280571 0.604653
O O5 0.500000 0.311344 0.750000
O O6 0.521931 0.402042 0.861260
O O7 0.267418 0.357634 0.051366
O O8 0.904351 0.902526 0.418955
O O9 0.886501 0.990091 0.290821
O O10 0.734662 0.432895 0.777618
O O11 0.500000 0.500000 0.000000
O O12 0.371325 0.130527 0.327101
O O13 0.250000 0.750000 0.500000
O O14 0.000000 0.682362 0.750000
#
# Coordination Sequence:
#
# PCOD9268101 Si02
#       7
#     8   8   4   8   8   8   4
#     4  11  22  38  61  87 131 168 203 234 303 373
#     4  11  20  37  63  90 120 160 211 255 301 357
#     4  10  19  42  64  88 110 162 211 264 306 364
#     4   9  20  37  64  86 113 152 212 258 304 356
#     4  10  23  38  63  90 122 162 207 250 309 370
#     4  12  22  37  60  91 130 166 202 249 301 365
#     4  12  25  40  58  94 136 168 195 250 306 372
#
# _framework density 20.108740999999998
#
# number of rings (size 3 to 8) (size 9 to 14) (size 15 to 20)
#    0.000    1.333    4.167    2.000    0.000    4.000 
#    0.000    0.833    7.333    0.000    0.000    0.000 
#    0.000    0.000    0.000    0.000    0.000    0.000 
#
# Total GULP energy -133632.573712 kJ/mol
# GULP energy per Si atom -5568.023905 kJ/mol
# Density = 2.006297 g / cm^3
# Si number density = 20.108741 Si / 1000 Ang^3
#
#
#
# Elastic Constant Matrix: (Units=GPa)
#
#
# Indices 1 2 3 4 5 6 
#
# 1 149.8356 29.6743 46.4322 0.0001 -15.5430 -0.0001
# 2 29.6743 43.7034 7.5675 0.0000 5.1571 0.0000
# 3 46.4322 7.5675 63.6907 0.0001 5.6663 -0.0001
# 4 0.0001 0.0000 0.0001 8.0071 -0.0001 2.5909
# 5 -15.5430 5.1571 5.6663 -0.0001 47.0010 0.0001
# 6 -0.0001 0.0000 -0.0001 2.5909 0.0001 14.1352
#
#
#
# Elastic Compliance Matrix: (Units=1/GPa)
#
#
# Indices 1 2 3 4 5 6 
#
# 1 0.010912 -0.006710 -0.007626 0.000000 0.005264 0.000000
# 2 -0.006710 0.027727 0.002088 0.000000 -0.005513 0.000000
# 3 -0.007626 0.002088 0.021488 0.000000 -0.005342 0.000000
# 4 0.000000 0.000000 0.000000 0.132763 0.000000 -0.024335
# 5 0.005264 -0.005513 -0.005342 0.000000 0.024266 0.000000
# 6 0.000000 0.000000 0.000000 -0.024335 0.000000 0.075206
#
#
# Mechanical properties :
#
#
# Convention : Reuss Voigt Hill
#
# Bulk Modulus (GPa) = 28.06652 47.17529 37.62090
# Shear Modulus (GPa) = 15.20981 25.39904 20.30442
#
# Velocity S-wave (km/s) = 2.75322 3.55785 3.18107
# Velocity P-wave (km/s) = 4.90863 6.35521 5.67817
#
# Compressibility (1/GPa) = 0.03562964
#
# Stress axis : x y z
#
# Youngs Moduli (GPa) = 91.63966 36.06645 46.53777
#
# Poissons Ratio (x) = 0.24201 0.35492
# Poissons Ratio (y) = 0.61490 -0.09717
# Poissons Ratio (z) = 0.69889 -0.07530
#
# Static dielectric constant tensor:
#      x y z
#    x 1.856280 0.000000 0.030880 
#    y 0.000000 1.934890 0.000000 
#    z 0.030880 0.000000 1.668030 
# 
# From -- ./inp_files/100025.got.cif
#   From: 2010.05.17/outbox.cif.g08.bks.cpg/sg15_51_cif.got.tgz:100025.got - 2010.06.03 18:47:42.
