data_PCOD9268292
_publ_section_title
;
Structure prediction by ZEFSAII (Michael W. Deem and Ramdas Pophale) SiO2 
 PCOD9268292
Probable space group: C 2/C
;
_chemical_formula_sum "Si O2"
_cell_formula_units_Z 56
_cell_length_a 8.087238
_cell_length_b 18.479744
_cell_length_c 16.367348
_cell_angle_alpha 90.000000
_cell_angle_beta 56.128169
_cell_angle_gamma 90.000000
_cell_volume 2030.964879
_symmetry_space_group_name_H-M "C 2/C"
_symmetry_group_IT_number 15
_symmetry_cell_setting 'monoclinic'
loop_
_space_group_symop_operation_xyz
x,y,z
-x,y,1/2-z
-x,-y,-z
x,-y,1/2+z
1/2+x,1/2+y,z
1/2-x,1/2+y,1/2-z
1/2-x,1/2-y,-z
1/2+x,1/2-y,1/2+z
loop_
_atom_site_type_symbol
_atom_site_label
_atom_site_fract_x
_atom_site_fract_y
_atom_site_fract_z
Si Si1 0.816224 0.043098 0.903545
Si Si2 0.225844 0.312101 0.387788
Si Si3 0.040578 0.543849 0.369866
Si Si4 0.593257 0.892928 0.141893
Si Si5 0.334157 0.788352 0.561054
Si Si6 0.576753 0.599036 0.063655
Si Si7 0.217751 0.685060 0.246226
O O1 0.880081 0.125009 0.869189
O O2 0.741535 0.998275 0.844560
O O3 0.950307 0.985899 0.914864
O O4 0.618803 0.054446 0.013291
O O5 0.311567 0.246708 0.313128
O O6 0.060313 0.355518 0.379289
O O7 0.071991 0.280419 0.497454
O O8 0.074449 0.618600 0.312956
O O9 0.931981 0.479293 0.351712
O O10 0.500000 0.865555 0.250000
O O11 0.824710 0.882378 0.051411
O O12 0.250000 0.750000 0.500000
O O13 0.259350 0.871207 0.569343
O O14 0.250321 0.774141 0.674969
O O15 0.397859 0.642350 0.152320
#
# Coordination Sequence:
#
# PCOD9268292 Si02
#       7
#     8   8   8   8   8   8   8
#     4   9  16  36  47  72 109 155 187 208 267 361
#     4  10  21  29  50  77 114 143 175 219 282 335
#     4   9  17  32  53  71 104 146 187 218 269 331
#     4   9  20  35  51  74 108 148 177 218 278 345
#     4  11  20  29  43  77 118 143 169 218 291 326
#     4  10  20  30  54  77 109 145 191 219 271 339
#     4  12  21  31  52  89 111 140 183 243 272 324
#
# _framework density 27.573101999999999
#
# number of rings (size 3 to 8) (size 9 to 14) (size 15 to 20)
#    0.000    2.000    4.286    2.143    4.000    0.000 
#    0.000    0.714    0.000    0.000    7.429    3.000 
#    0.000    0.143    0.000    0.000    0.000    0.000 
#
# Total GULP energy -156172.481060 kJ/mol
# GULP energy per Si atom -5577.588609 kJ/mol
# Density = 2.751034 g / cm^3
# Si number density = 27.573102 Si / 1000 Ang^3
#
#
#
# Elastic Constant Matrix: (Units=GPa)
#
#
# Indices 1 2 3 4 5 6 
#
# 1 55.0756 32.6866 38.1698 0.0000 -10.1081 0.0000
# 2 32.6866 216.0302 66.0326 0.0000 -25.0677 0.0000
# 3 38.1698 66.0326 197.6618 0.0000 -23.4345 0.0000
# 4 0.0000 0.0000 0.0000 51.7593 0.0000 -4.2731
# 5 -10.1081 -25.0677 -23.4345 0.0000 19.2745 0.0000
# 6 0.0000 0.0000 0.0000 -4.2731 0.0000 16.8781
#
#
#
# Elastic Compliance Matrix: (Units=1/GPa)
#
#
# Indices 1 2 3 4 5 6 
#
# 1 0.022379 -0.001793 -0.003047 0.000000 0.005699 0.000000
# 2 -0.001793 0.005827 -0.000950 0.000000 0.005482 0.000000
# 3 -0.003047 -0.000950 0.006577 0.000000 0.005163 0.000000
# 4 0.000000 0.000000 0.000000 0.019733 0.000000 0.004996
# 5 0.005699 0.005482 0.005163 0.000000 0.068278 0.000000
# 6 0.000000 0.000000 0.000000 0.004996 0.000000 0.060513
#
#
# Mechanical properties :
#
#
# Convention : Reuss Voigt Hill
#
# Bulk Modulus (GPa) = 43.09981 82.50505 62.80243
# Shear Modulus (GPa) = 24.67657 39.70763 32.19210
#
# Velocity S-wave (km/s) = 2.99482 3.79896 3.42060
# Velocity P-wave (km/s) = 5.25582 7.01642 6.19894
#
# Compressibility (1/GPa) = 0.02320196
#
# Stress axis : x y z
#
# Youngs Moduli (GPa) = 44.68538 171.61546 152.04410
#
# Poissons Ratio (x) = 0.30778 0.46322
# Poissons Ratio (y) = 0.08014 0.14449
# Poissons Ratio (z) = 0.13614 0.16309
#
# Static dielectric constant tensor:
#      x y z
#    x 2.288050 0.000000 0.063680 
#    y 0.000000 2.203010 0.000000 
#    z 0.063680 0.000000 2.236410 
# 
# From -- ./inp_files/199429.got.cif
#   From: 2010.05.17/outbox.cif.g08.bks.cpg/sg15_100_cif.got.tgz:199429.got - 2010.06.03 18:47:42.
