data_PCOD9268083
_publ_section_title
;
Structure prediction by ZEFSAII (Michael W. Deem and Ramdas Pophale) SiO2 
 PCOD9268083
Probable space group: C 2/C
;
_chemical_formula_sum "Si O2"
_cell_formula_units_Z 40
_cell_length_a 11.468221
_cell_length_b 8.361836
_cell_length_c 22.208813
_cell_angle_alpha 90.000000
_cell_angle_beta 135.608459
_cell_angle_gamma 90.000000
_cell_volume 1489.864186
_symmetry_space_group_name_H-M "C 2/C"
_symmetry_group_IT_number 15
_symmetry_cell_setting 'monoclinic'
loop_
_space_group_symop_operation_xyz
x,y,z
-x,y,1/2-z
-x,-y,-z
x,-y,1/2+z
1/2+x,1/2+y,z
1/2-x,1/2+y,1/2-z
1/2-x,1/2-y,-z
1/2+x,1/2-y,1/2+z
loop_
_atom_site_type_symbol
_atom_site_label
_atom_site_fract_x
_atom_site_fract_y
_atom_site_fract_z
Si Si1 0.076236 0.396797 0.711789
Si Si2 0.619532 0.346578 0.995568
Si Si3 0.150596 0.171759 0.339468
Si Si4 0.941410 0.953356 0.354248
Si Si5 0.927196 0.554997 0.908046
O O1 0.256932 0.475174 0.788483
O O2 0.991962 0.501618 0.626006
O O3 0.000000 0.382464 0.750000
O O4 0.074333 0.221429 0.680171
O O5 0.711227 0.300750 0.091090
O O6 0.750000 0.250000 0.000000
O O7 0.561966 0.524268 0.957818
O O8 0.450657 0.242954 0.923370
O O9 0.000000 0.255830 0.250000
O O10 0.053057 0.069331 0.353132
O O11 0.249943 0.032282 0.341257
O O12 0.000000 0.500000 0.000000
#
# Coordination Sequence:
#
# PCOD9268083 Si02
#       5
#     8   8   8   8   8
#     4  12  27  48  79 121 157 214 276 332 401 493
#     4   9  21  42  72 112 156 206 258 322 405 476
#     4  10  19  41  79 107 151 216 258 326 410 472
#     4  11  24  45  75 112 166 204 271 338 409 471
#     4  10  22  47  78 114 161 210 260 333 406 477
#
# _framework density 26.848087
#
# number of rings (size 3 to 8) (size 9 to 14) (size 15 to 20)
#    0.000    1.600    2.000    1.800    2.800    0.000 
#   14.400   14.000    0.000    0.000    0.000    0.000 
#    0.000    0.000    0.000    0.000    0.000    0.000 
#
# Total GULP energy -111681.073728 kJ/mol
# GULP energy per Si atom -5584.053686 kJ/mol
# Density = 2.678698 g / cm^3
# Si number density = 26.848087 Si / 1000 Ang^3
#
#
#
# Elastic Constant Matrix: (Units=GPa)
#
#
# Indices 1 2 3 4 5 6 
#
# 1 124.5614 36.7539 48.3118 0.0000 -2.6621 0.0000
# 2 36.7539 140.2303 86.0561 0.0000 0.0143 0.0000
# 3 48.3118 86.0561 178.2986 0.0000 -13.2111 0.0000
# 4 0.0000 0.0000 0.0000 54.9743 0.0000 -4.4251
# 5 -2.6621 0.0143 -13.2111 0.0000 43.7730 0.0000
# 6 0.0000 0.0000 0.0000 -4.4251 0.0000 40.3687
#
#
#
# Elastic Compliance Matrix: (Units=1/GPa)
#
#
# Indices 1 2 3 4 5 6 
#
# 1 0.009121 -0.001241 -0.001873 0.000000 -0.000010 0.000000
# 2 -0.001241 0.010400 -0.004796 0.000000 -0.001526 0.000000
# 3 -0.001873 -0.004796 0.008615 0.000000 0.002488 0.000000
# 4 0.000000 0.000000 0.000000 0.018352 0.000000 0.002012
# 5 -0.000010 -0.001526 0.002488 0.000000 0.023596 0.000000
# 6 0.000000 0.000000 0.000000 0.002012 0.000000 0.024992
#
#
# Mechanical properties :
#
#
# Convention : Reuss Voigt Hill
#
# Bulk Modulus (GPa) = 81.20172 87.25932 84.23052
# Shear Modulus (GPa) = 43.47733 45.95442 44.71588
#
# Velocity S-wave (km/s) = 4.02852 4.14169 4.08550
# Velocity P-wave (km/s) = 7.20758 7.44602 7.32777
#
# Compressibility (1/GPa) = 0.01231501
#
# Stress axis : x y z
#
# Youngs Moduli (GPa) = 109.64159 96.15388 116.07060
#
# Poissons Ratio (x) = 0.11933 0.21741
# Poissons Ratio (y) = 0.13606 0.55672
# Poissons Ratio (z) = 0.20537 0.46119
#
# Static dielectric constant tensor:
#      x y z
#    x 2.365940 0.000000 -0.252090 
#    y 0.000000 2.065830 0.000000 
#    z -0.252090 0.000000 2.271430 
# 
# From -- ./inp_files/292470.got.cif
#   From: 2010.05.17/outbox.cif.g08.bks.cpg/sg15_147_cif.got.tgz:292470.got - 2010.06.03 18:47:42.
