data_PCOD9268185
_publ_section_title
;
Structure prediction by ZEFSAII (Michael W. Deem and Ramdas Pophale) SiO2 
 PCOD9268185
Probable space group: C 2/C
;
_chemical_formula_sum "Si O2"
_cell_formula_units_Z 56
_cell_length_a 13.829149
_cell_length_b 12.526483
_cell_length_c 25.177170
_cell_angle_alpha 90.000000
_cell_angle_beta 33.664778
_cell_angle_gamma 90.000000
_cell_volume 2417.698642
_symmetry_space_group_name_H-M "C 2/C"
_symmetry_group_IT_number 15
_symmetry_cell_setting 'monoclinic'
loop_
_space_group_symop_operation_xyz
x,y,z
-x,y,1/2-z
-x,-y,-z
x,-y,1/2+z
1/2+x,1/2+y,z
1/2-x,1/2+y,1/2-z
1/2-x,1/2-y,-z
1/2+x,1/2-y,1/2+z
loop_
_atom_site_type_symbol
_atom_site_label
_atom_site_fract_x
_atom_site_fract_y
_atom_site_fract_z
Si Si1 0.827326 0.491511 0.044235
Si Si2 0.639520 0.707445 0.642672
Si Si3 0.490876 0.849655 0.624933
Si Si4 0.770412 0.234604 0.428119
Si Si5 0.916630 0.170762 0.077842
Si Si6 0.341962 0.234934 0.731339
Si Si7 0.655903 0.989867 0.220928
O O1 0.674159 0.417126 0.136064
O O2 0.772500 0.611806 0.061274
O O3 0.000000 0.500000 0.000000
O O4 0.883527 0.421510 0.967613
O O5 0.500000 0.744654 0.750000
O O6 0.573753 0.746395 0.615666
O O7 0.818091 0.766503 0.576316
O O8 0.313728 0.810598 0.677475
O O9 0.432132 0.926621 0.698922
O O10 0.750000 0.250000 0.500000
O O11 0.623324 0.315247 0.473037
O O12 0.973102 0.250805 0.324493
O O13 0.871586 0.232871 0.155012
O O14 0.827116 0.054186 0.121780
O O15 0.294106 0.113387 0.766968
O O16 0.500000 0.967244 0.250000
#
# Coordination Sequence:
#
# PCOD9268185 Si02
#       7
#     8   8   8   8   8   8   8
#     4  12  27  42  71 103 140 181 234 286 356 412
#     4  12  22  44  72  98 135 181 236 287 340 415
#     4  11  23  44  68 100 136 181 232 287 338 424
#     4  10  22  44  65  97 139 180 221 288 348 405
#     4  10  19  43  69  95 133 180 228 282 343 410
#     4  10  23  39  71  98 140 171 232 285 350 408
#     4  11  21  40  70  97 131 185 226 282 349 409
#
# _framework density 23.162523
#
# number of rings (size 3 to 8) (size 9 to 14) (size 15 to 20)
#    0.000    1.143    5.714    2.143    0.000    5.714 
#    0.000    2.143    0.000    0.000    0.000    0.000 
#    0.000    0.000    0.000    0.000    0.000    0.000 
#
# Total GULP energy -156428.616963 kJ/mol
# GULP energy per Si atom -5586.736320 kJ/mol
# Density = 2.310980 g / cm^3
# Si number density = 23.162523 Si / 1000 Ang^3
#
#
#
# Elastic Constant Matrix: (Units=GPa)
#
#
# Indices 1 2 3 4 5 6 
#
# 1 77.0746 35.6286 34.2725 0.0000 -21.4527 0.0000
# 2 35.6286 133.4035 14.4156 0.0000 -9.3091 0.0000
# 3 34.2725 14.4156 76.0877 -0.0003 -25.1429 0.0000
# 4 0.0000 0.0000 -0.0003 35.6543 0.0000 -9.4136
# 5 -21.4527 -9.3091 -25.1429 0.0000 34.5941 0.0000
# 6 0.0000 0.0000 0.0000 -9.4136 0.0000 40.9316
#
#
#
# Elastic Compliance Matrix: (Units=1/GPa)
#
#
# Indices 1 2 3 4 5 6 
#
# 1 0.019245 -0.004057 -0.005682 0.000000 0.006713 0.000000
# 2 -0.004057 0.008554 0.000179 0.000000 -0.000084 0.000000
# 3 -0.005682 0.000179 0.019109 0.000000 0.010413 0.000000
# 4 0.000000 0.000000 0.000000 0.029860 0.000000 0.006867
# 5 0.006713 -0.000084 0.010413 0.000000 0.040615 0.000000
# 6 0.000000 0.000000 0.000000 0.006867 0.000000 0.026010
#
#
# Mechanical properties :
#
#
# Convention : Reuss Voigt Hill
#
# Bulk Modulus (GPa) = 35.98578 50.57767 43.28172
# Shear Modulus (GPa) = 29.10751 35.71928 32.41340
#
# Velocity S-wave (km/s) = 3.54879 3.93124 3.74490
# Velocity P-wave (km/s) = 5.68875 6.51840 6.11765
#
# Compressibility (1/GPa) = 0.02778876
#
# Stress axis : x y z
#
# Youngs Moduli (GPa) = 51.96180 116.89796 52.33134
#
# Poissons Ratio (x) = 0.47430 0.29732
# Poissons Ratio (y) = 0.21083 -0.00937
# Poissons Ratio (z) = 0.29522 -0.02094
#
# Static dielectric constant tensor:
#      x y z
#    x 1.888440 0.000000 -0.000570 
#    y 0.000000 1.838650 0.000000 
#    z -0.000570 0.000000 1.936280 
# 
# From -- ./inp_files/313692.got.cif
#   From: 2010.05.17/outbox.cif.g08.bks.cpg/sg15_157_cif.got.tgz:313692.got - 2010.06.03 18:47:42.
