data_PCOD9268831
_publ_section_title
;
Structure prediction by ZEFSAII (Michael W. Deem and Ramdas Pophale) SiO2 
 PCOD9268831
Probable space group: C 2/C
;
_chemical_formula_sum "Si O2"
_cell_formula_units_Z 40
_cell_length_a 9.706572
_cell_length_b 14.295167
_cell_length_c 22.754849
_cell_angle_alpha 90.000000
_cell_angle_beta 25.648968
_cell_angle_gamma 90.000000
_cell_volume 1366.698945
_symmetry_space_group_name_H-M "C 2/C"
_symmetry_group_IT_number 15
_symmetry_cell_setting 'monoclinic'
loop_
_space_group_symop_operation_xyz
x,y,z
-x,y,1/2-z
-x,-y,-z
x,-y,1/2+z
1/2+x,1/2+y,z
1/2-x,1/2+y,1/2-z
1/2-x,1/2-y,-z
1/2+x,1/2-y,1/2+z
loop_
_atom_site_type_symbol
_atom_site_label
_atom_site_fract_x
_atom_site_fract_y
_atom_site_fract_z
Si Si1 0.673741 0.880819 0.828826
Si Si2 0.464156 0.185817 0.530457
Si Si3 0.769363 0.099040 0.767401
Si Si4 0.487134 0.444722 0.067712
Si Si5 0.642079 0.359670 0.862659
O O1 0.818022 0.821002 0.719183
O O2 0.762577 0.990877 0.791705
O O3 0.682838 0.846314 0.892544
O O4 0.298447 0.883100 0.955801
O O5 0.470308 0.148821 0.595220
O O6 0.494217 0.295384 0.533270
O O7 0.111860 0.148516 0.647182
O O8 0.722102 0.099853 0.714466
O O9 0.520866 0.542660 0.088885
O O10 0.500000 0.500000 0.000000
O O11 0.000000 0.380497 0.750000
#
# Coordination Sequence:
#
# PCOD9268831 Si02
#       5
#     8   8   8   8   8
#     4  10  21  36  59  82 113 148 184 232 276 331
#     4  10  20  37  58  84 111 144 192 230 278 327
#     4   9  19  34  55  81 108 147 187 227 269 337
#     4  10  20  33  53  82 112 148 182 224 283 332
#     4  11  20  34  56  83 110 140 188 229 272 325
#
# _framework density 29.267600999999999
#
# number of rings (size 3 to 8) (size 9 to 14) (size 15 to 20)
#    0.000    2.000    4.000    0.600    0.000    2.400 
#    0.000    1.000    0.000    0.000    0.000    8.400 
#    0.000    0.000    0.000    0.000    0.000    0.000 
#
# Total GULP energy -111458.024069 kJ/mol
# GULP energy per Si atom -5572.901203 kJ/mol
# Density = 2.920099 g / cm^3
# Si number density = 29.267601 Si / 1000 Ang^3
#
#
#
# Elastic Constant Matrix: (Units=GPa)
#
#
# Indices 1 2 3 4 5 6 
#
# 1 144.6556 -6.3229 50.4636 -0.1065 48.9739 0.1256
# 2 -6.3229 67.1417 13.5677 -0.0572 18.0531 0.0047
# 3 50.4636 13.5677 145.6120 0.0887 68.9020 -0.0754
# 4 -0.1065 -0.0572 0.0887 43.0830 0.0127 9.9085
# 5 48.9739 18.0531 68.9020 0.0127 61.9553 -0.0062
# 6 0.1256 0.0047 -0.0754 9.9085 -0.0062 40.2602
#
#
#
# Elastic Compliance Matrix: (Units=1/GPa)
#
#
# Indices 1 2 3 4 5 6 
#
# 1 0.010149 0.003474 0.000916 0.000040 -0.010054 -0.000042
# 2 0.003474 0.017511 0.001854 0.000035 -0.009910 -0.000020
# 3 0.000916 0.001854 0.014724 -0.000027 -0.017640 0.000028
# 4 0.000040 0.000035 -0.000027 0.024604 -0.000018 -0.006056
# 5 -0.010054 -0.009910 -0.017640 -0.000018 0.046593 0.000011
# 6 -0.000042 -0.000020 0.000028 -0.006056 0.000011 0.026329
#
#
# Mechanical properties :
#
#
# Convention : Reuss Voigt Hill
#
# Bulk Modulus (GPa) = 18.22398 52.53623 35.38011
# Shear Modulus (GPa) = 34.31402 49.03976 41.67689
#
# Velocity S-wave (km/s) = 3.42778 4.09781 3.77768
# Velocity P-wave (km/s) = 4.68043 6.35442 5.58055
#
# Compressibility (1/GPa) = 0.05487274
#
# Stress axis : x y z
#
# Youngs Moduli (GPa) = 98.53194 57.10653 67.91538
#
# Poissons Ratio (x) = -0.19838 -0.06224
# Poissons Ratio (y) = -0.34229 -0.12591
# Poissons Ratio (z) = -0.09030 -0.10587
#
# Static dielectric constant tensor:
#      x y z
#    x 2.376360 -0.000070 0.021620 
#    y -0.000070 2.295330 0.000270 
#    z 0.021620 0.000270 2.607180 
# 
# From -- ./inp_files/143124.got.cif
#   From: 2010.05.17/outbox.cif.g08.bks.cpg/sg15_72_cif.got.tgz:143124.got - 2010.06.03 18:47:42.
