data_PCOD9268930
_publ_section_title
;
Structure prediction by ZEFSAII (Michael W. Deem and Ramdas Pophale) SiO2 
 PCOD9268930
Probable space group: C 2/C
;
_chemical_formula_sum "Si O2"
_cell_formula_units_Z 52
_cell_length_a 11.796537
_cell_length_b 22.595604
_cell_length_c 20.991326
_cell_angle_alpha 90.000000
_cell_angle_beta 151.370614
_cell_angle_gamma 90.000000
_cell_volume 2680.912822
_symmetry_space_group_name_H-M "C 2/C"
_symmetry_group_IT_number 15
_symmetry_cell_setting 'monoclinic'
loop_
_space_group_symop_operation_xyz
x,y,z
-x,y,1/2-z
-x,-y,-z
x,-y,1/2+z
1/2+x,1/2+y,z
1/2-x,1/2+y,1/2-z
1/2-x,1/2-y,-z
1/2+x,1/2-y,1/2+z
loop_
_atom_site_type_symbol
_atom_site_label
_atom_site_fract_x
_atom_site_fract_y
_atom_site_fract_z
Si Si1 0.328681 0.654007 0.368758
Si Si2 0.770189 0.668430 0.446240
Si Si3 0.500000 0.532405 0.750000
Si Si4 0.141440 0.300971 0.379712
Si Si5 0.104751 0.933175 0.705689
Si Si6 0.341053 0.812324 0.573532
Si Si7 0.579650 0.108378 0.499447
O O1 0.582910 0.683668 0.488830
O O2 0.357182 0.588679 0.349319
O O3 0.258231 0.664033 0.407731
O O4 0.125353 0.686333 0.226524
O O5 0.931782 0.671827 0.589187
O O6 0.631859 0.730151 0.375836
O O7 0.577733 0.616720 0.358479
O O8 0.941596 0.657834 0.472008
O O9 0.500710 0.492878 0.685469
O O10 0.264163 0.571646 0.631434
O O11 0.000000 0.324421 0.250000
O O12 0.364611 0.929724 0.864895
O O13 0.250000 0.750000 0.500000
O O14 0.288449 0.860394 0.493583
#
# Coordination Sequence:
#
# PCOD9268930 Si02
#       7
#     8   8   4   8   8   8   8
#     4   9  21  38  57  83 119 163 194 231 301 373
#     4  10  20  35  56  83 115 151 191 235 303 355
#     4  12  24  36  60  90 112 152 208 260 296 332
#     4  10  20  33  56  85 116 154 190 234 291 367
#     4  10  20  39  59  77 113 155 197 244 299 348
#     4  10  21  38  61  86 124 157 188 238 304 368
#     4  11  22  36  58  88 114 148 197 248 291 351
#
# _framework density 19.396379
#
# number of rings (size 3 to 8) (size 9 to 14) (size 15 to 20)
#    0.000    1.846    1.538    2.308    0.000    8.615 
#    0.000    0.769    0.000    0.000    0.000    0.000 
#    0.000    0.000    0.000    0.000    0.000    0.000 
#
# Total GULP energy -144805.948997 kJ/mol
# GULP energy per Si atom -5569.459577 kJ/mol
# Density = 1.935223 g / cm^3
# Si number density = 19.396379 Si / 1000 Ang^3
#
#
#
# Elastic Constant Matrix: (Units=GPa)
#
#
# Indices 1 2 3 4 5 6 
#
# 1 98.0758 17.0832 20.8100 -0.0007 -20.0494 -0.0006
# 2 17.0832 49.7250 22.0598 -0.0041 -0.6210 -0.0006
# 3 20.8100 22.0598 74.2931 -0.0203 -13.6003 -0.0022
# 4 -0.0007 -0.0041 -0.0203 19.9776 -0.0020 -13.6991
# 5 -20.0494 -0.6210 -13.6003 -0.0020 27.8042 0.0005
# 6 -0.0006 -0.0006 -0.0022 -13.6991 0.0005 12.5911
#
#
#
# Elastic Compliance Matrix: (Units=1/GPa)
#
#
# Indices 1 2 3 4 5 6 
#
# 1 0.012851 -0.003940 -0.000823 -0.000002 0.008776 -0.000002
# 2 -0.003940 0.024620 -0.007278 -0.000012 -0.005851 -0.000013
# 3 -0.000823 -0.007278 0.017259 0.000072 0.007686 0.000081
# 4 -0.000002 -0.000012 0.000072 0.197119 0.000044 0.214465
# 5 0.008776 -0.005851 0.007686 0.000044 0.045923 0.000047
# 6 -0.000002 -0.000013 0.000081 0.214465 0.000047 0.312758
#
#
# Mechanical properties :
#
#
# Convention : Reuss Voigt Hill
#
# Bulk Modulus (GPa) = 32.62910 37.99998 35.31454
# Shear Modulus (GPa) = 7.75399 22.88398 15.31898
#
# Velocity S-wave (km/s) = 2.00158 3.43856 2.81336
# Velocity P-wave (km/s) = 4.71175 5.94968 5.36653
#
# Compressibility (1/GPa) = 0.03064749
#
# Stress axis : x y z
#
# Youngs Moduli (GPa) = 77.81311 40.61741 57.94139
#
# Poissons Ratio (x) = 0.16005 0.04769
# Poissons Ratio (y) = 0.30661 0.42169
# Poissons Ratio (z) = 0.06405 0.29561
#
# Static dielectric constant tensor:
#      x y z
#    x 1.759800 0.000000 -0.029210 
#    y 0.000000 1.693230 0.000000 
#    z -0.029210 0.000000 1.682570 
# 
# From -- ./inp_files/240540.got.cif
#   From: 2010.05.17/outbox.cif.g08.bks.cpg/sg15_121_cif.got.tgz:240540.got - 2010.06.03 18:47:42.
