data_PCOD9268252
_publ_section_title
;
Structure prediction by ZEFSAII (Michael W. Deem and Ramdas Pophale) SiO2 
 PCOD9268252
Probable space group: C 2/C
;
_chemical_formula_sum "Si O2"
_cell_formula_units_Z 40
_cell_length_a 10.764800
_cell_length_b 29.056781
_cell_length_c 5.233190
_cell_angle_alpha 90.000000
_cell_angle_beta 87.665794
_cell_angle_gamma 90.000000
_cell_volume 1635.533585
_symmetry_space_group_name_H-M "C 2/C"
_symmetry_group_IT_number 15
_symmetry_cell_setting 'monoclinic'
loop_
_space_group_symop_operation_xyz
x,y,z
-x,y,1/2-z
-x,-y,-z
x,-y,1/2+z
1/2+x,1/2+y,z
1/2-x,1/2+y,1/2-z
1/2-x,1/2-y,-z
1/2+x,1/2-y,1/2+z
loop_
_atom_site_type_symbol
_atom_site_label
_atom_site_fract_x
_atom_site_fract_y
_atom_site_fract_z
Si Si1 0.584667 0.916676 0.494888
Si Si2 0.643588 0.682495 0.071877
Si Si3 0.322689 0.472400 0.560686
Si Si4 0.655786 0.627577 0.575533
Si Si5 0.573508 0.212552 0.496931
O O1 0.500000 0.908152 0.750000
O O2 0.693099 0.878653 0.443625
O O3 0.674646 0.960526 0.545203
O O4 0.500000 0.921742 0.250000
O O5 0.621046 0.663489 0.357403
O O6 0.585439 0.732032 0.018199
O O7 0.617698 0.644923 0.856688
O O8 0.790458 0.692043 0.034188
O O9 0.351294 0.508977 0.338083
O O10 0.386777 0.423705 0.493850
O O11 0.500000 0.196070 0.750000
O O12 0.500000 0.201475 0.250000
#
# Coordination Sequence:
#
# PCOD9268252 Si02
#       5
#     8   8   8   8   8
#     4  10  20  30  44  68 101 146 190 230 270 318
#     4  11  22  41  59  84 121 149 185 245 284 328
#     4  10  20  33  48  71 108 150 195 234 275 328
#     4  10  22  34  53  77 109 152 188 234 274 332
#     4  11  24  40  63  88 114 151 189 231 292 354
#
# _framework density 24.456848000000001
#
# number of rings (size 3 to 8) (size 9 to 14) (size 15 to 20)
#    1.200    0.400    0.000    6.000    0.000   10.400 
#    0.000    0.000    0.000    0.000    0.000    0.000 
#    0.000   56.000    0.000    0.000    0.000    0.000 
#
# Total GULP energy -112050.926181 kJ/mol
# GULP energy per Si atom -5602.546309 kJ/mol
# Density = 2.440118 g / cm^3
# Si number density = 24.456848 Si / 1000 Ang^3
#
#
#
# Elastic Constant Matrix: (Units=GPa)
#
#
# Indices 1 2 3 4 5 6 
#
# 1 89.4783 1.7747 24.6651 0.0000 -11.6780 0.0000
# 2 1.7747 93.8972 8.3839 0.0000 -5.5935 0.0000
# 3 24.6651 8.3839 147.7301 0.0000 -23.3502 0.0000
# 4 0.0000 0.0000 0.0000 128.8166 0.0000 -21.4944
# 5 -11.6780 -5.5935 -23.3502 0.0000 37.9891 0.0000
# 6 0.0000 0.0000 0.0000 -21.4944 0.0000 35.3604
#
#
#
# Elastic Compliance Matrix: (Units=1/GPa)
#
#
# Indices 1 2 3 4 5 6 
#
# 1 0.011963 0.000076 -0.001571 0.000000 0.002723 0.000000
# 2 0.000076 0.010766 -0.000409 0.000000 0.001357 0.000000
# 3 -0.001571 -0.000409 0.007719 0.000000 0.004201 0.000000
# 4 0.000000 0.000000 0.000000 0.008639 0.000000 0.005251
# 5 0.002723 0.001357 0.004201 0.000000 0.029942 0.000000
# 6 0.000000 0.000000 0.000000 0.005251 0.000000 0.031472
#
#
# Mechanical properties :
#
#
# Convention : Reuss Voigt Hill
#
# Bulk Modulus (GPa) = 37.53865 44.52812 41.03339
# Shear Modulus (GPa) = 44.17373 60.18535 52.17954
#
# Velocity S-wave (km/s) = 4.25454 4.96611 4.62403
# Velocity P-wave (km/s) = 6.28626 7.15047 6.73225
#
# Compressibility (1/GPa) = 0.02663921
#
# Stress axis : x y z
#
# Youngs Moduli (GPa) = 83.59194 92.88605 129.55575
#
# Poissons Ratio (x) = -0.00710 0.20357
# Poissons Ratio (y) = -0.00639 0.05302
# Poissons Ratio (z) = 0.13135 0.03801
#
# Static dielectric constant tensor:
#      x y z
#    x 2.160420 0.000000 0.037180 
#    y 0.000000 1.924860 0.000000 
#    z 0.037180 0.000000 1.838750 
# 
# From -- ./inp_files/5007.got.cif
#   From: 2010.05.17/outbox.cif.g08.bks.cpg/sg15_3_cif.got.tgz:5007.got - 2010.06.03 18:47:42.
