data_PCOD9268767
_publ_section_title
;
Structure prediction by ZEFSAII (Michael W. Deem and Ramdas Pophale) SiO2 
 PCOD9268767
Probable space group: C 2/C
;
_chemical_formula_sum "Si O2"
_cell_formula_units_Z 52
_cell_length_a 22.460432
_cell_length_b 23.602631
_cell_length_c 5.367578
_cell_angle_alpha 90.000000
_cell_angle_beta 68.807131
_cell_angle_gamma 90.000000
_cell_volume 2653.045016
_symmetry_space_group_name_H-M "C 2/C"
_symmetry_group_IT_number 15
_symmetry_cell_setting 'monoclinic'
loop_
_space_group_symop_operation_xyz
x,y,z
-x,y,1/2-z
-x,-y,-z
x,-y,1/2+z
1/2+x,1/2+y,z
1/2-x,1/2+y,1/2-z
1/2-x,1/2-y,-z
1/2+x,1/2-y,1/2+z
loop_
_atom_site_type_symbol
_atom_site_label
_atom_site_fract_x
_atom_site_fract_y
_atom_site_fract_z
Si Si1 0.763657 0.525628 0.788149
Si Si2 0.561176 0.130451 0.279438
Si Si3 0.500000 0.781561 0.250000
Si Si4 0.249921 0.154926 0.981435
Si Si5 0.406773 0.979733 0.529585
Si Si6 0.698531 0.699950 0.562047
Si Si7 0.376244 0.779377 0.150537
O O1 0.734476 0.488281 0.059413
O O2 0.765593 0.590563 0.877960
O O3 0.836463 0.506812 0.622677
O O4 0.500000 0.100765 0.250000
O O5 0.530724 0.178792 0.493750
O O6 0.598279 0.085501 0.386990
O O7 0.602478 0.162042 0.012506
O O8 0.435652 0.756220 0.223726
O O9 0.200681 0.174321 0.835994
O O10 0.310538 0.199102 0.881940
O O11 0.221802 0.158757 0.302950
O O12 0.436879 0.987033 0.215308
O O13 0.750000 0.750000 0.500000
O O14 0.638071 0.732936 0.540366
#
# Coordination Sequence:
#
# PCOD9268767 Si02
#       7
#     8   8   4   8   8   8   8
#     4  10  20  33  52  77 102 142 179 220 277 319
#     4  10  23  37  50  73 103 145 192 230 271 313
#     4  10  24  34  56  74 106 148 184 238 276 312
#     4  11  22  36  58  81 109 141 188 238 273 334
#     4  10  22  34  50  69  94 136 185 229 272 303
#     4  10  22  36  57  83 104 140 182 237 286 331
#     4  10  21  36  55  77 107 141 186 227 284 333
#
# _framework density 19.600117999999998
#
# number of rings (size 3 to 8) (size 9 to 14) (size 15 to 20)
#    0.000    1.846    0.000    4.615   15.077    0.615 
#    0.000    0.000    0.000    0.000    0.000    0.000 
#    0.000    0.000    0.000   13.846    0.000    1.538 
#
# Total GULP energy -144927.856496 kJ/mol
# GULP energy per Si atom -5574.148327 kJ/mol
# Density = 1.955551 g / cm^3
# Si number density = 19.600118 Si / 1000 Ang^3
#
#
#
# Elastic Constant Matrix: (Units=GPa)
#
#
# Indices 1 2 3 4 5 6 
#
# 1 99.7689 18.7397 11.8263 0.0000 16.4431 0.0000
# 2 18.7397 52.2468 10.1957 0.0000 -6.2569 0.0000
# 3 11.8263 10.1957 89.1867 0.0000 23.6729 0.0000
# 4 0.0000 0.0000 0.0000 25.2185 0.0000 10.9483
# 5 16.4431 -6.2569 23.6729 0.0000 24.7013 0.0000
# 6 0.0000 0.0000 0.0000 10.9483 0.0000 29.6773
#
#
#
# Elastic Compliance Matrix: (Units=1/GPa)
#
#
# Indices 1 2 3 4 5 6 
#
# 1 0.013089 -0.006685 0.002402 0.000000 -0.012708 0.000000
# 2 -0.006685 0.024819 -0.006439 0.000000 0.016907 0.000000
# 3 0.002402 -0.006439 0.016748 0.000000 -0.019280 0.000000
# 4 0.000000 0.000000 0.000000 0.047215 0.000000 -0.017418
# 5 -0.012708 0.016907 -0.019280 0.000000 0.071703 0.000000
# 6 0.000000 0.000000 0.000000 -0.017418 0.000000 0.040121
#
#
# Mechanical properties :
#
#
# Convention : Reuss Voigt Hill
#
# Bulk Modulus (GPa) = 30.11033 35.85842 32.98438
# Shear Modulus (GPa) = 20.30797 29.28216 24.79507
#
# Velocity S-wave (km/s) = 3.22237 3.86940 3.56061
# Velocity P-wave (km/s) = 5.40745 6.18851 5.81112
#
# Compressibility (1/GPa) = 0.03321119
#
# Stress axis : x y z
#
# Youngs Moduli (GPa) = 76.40276 40.29191 59.71035
#
# Poissons Ratio (x) = 0.26935 -0.14341
# Poissons Ratio (y) = 0.51076 0.38445
# Poissons Ratio (z) = -0.18350 0.25942
#
# Static dielectric constant tensor:
#      x y z
#    x 1.772040 0.000000 0.088470 
#    y 0.000000 1.713200 0.000000 
#    z 0.088470 0.000000 1.773490 
# 
# From -- ./inp_files/13768.got.cif
#   From: 2010.05.17/outbox.cif.g08.bks.cpg/sg15_7_cif.got.tgz:13768.got - 2010.06.03 18:47:42.
