data_PCOD9268941
_publ_section_title
;
Structure prediction by ZEFSAII (Michael W. Deem and Ramdas Pophale) SiO2 
 PCOD9268941
Probable space group: C 2/C
;
_chemical_formula_sum "Si O2"
_cell_formula_units_Z 52
_cell_length_a 31.387973
_cell_length_b 11.989274
_cell_length_c 11.885684
_cell_angle_alpha 90.000000
_cell_angle_beta 142.631529
_cell_angle_gamma 90.000000
_cell_volume 2714.720294
_symmetry_space_group_name_H-M "C 2/C"
_symmetry_group_IT_number 15
_symmetry_cell_setting 'monoclinic'
loop_
_space_group_symop_operation_xyz
x,y,z
-x,y,1/2-z
-x,-y,-z
x,-y,1/2+z
1/2+x,1/2+y,z
1/2-x,1/2+y,1/2-z
1/2-x,1/2-y,-z
1/2+x,1/2-y,1/2+z
loop_
_atom_site_type_symbol
_atom_site_label
_atom_site_fract_x
_atom_site_fract_y
_atom_site_fract_z
Si Si1 0.238746 0.219751 0.107994
Si Si2 0.847778 0.377953 0.423858
Si Si3 0.181972 0.451939 0.449441
Si Si4 0.061186 0.494031 0.536122
Si Si5 0.641615 0.278820 0.960271
Si Si6 0.500000 0.805664 0.250000
Si Si7 0.778589 0.036651 0.976217
O O1 0.172473 0.280013 0.031531
O O2 0.306697 0.259443 0.323401
O O3 0.227185 0.086892 0.085253
O O4 0.250000 0.250000 0.000000
O O5 0.836159 0.489593 0.472271
O O6 0.920124 0.401074 0.507744
O O7 0.784669 0.383488 0.201598
O O8 0.161204 0.323805 0.419027
O O9 0.261201 0.467877 0.572568
O O10 0.132601 0.516516 0.256803
O O11 0.040838 0.388531 0.419630
O O12 0.000000 0.500000 0.500000
O O13 0.560727 0.265290 0.820932
O O14 0.655320 0.395691 0.928004
#
# Coordination Sequence:
#
# PCOD9268941 Si02
#       7
#     8   8   8   8   8   4   8
#     4  11  21  37  61  90 120 155 194 255 310 358
#     4  10  20  33  56  89 118 146 199 249 298 352
#     4  11  18  35  57  87 120 145 199 250 305 342
#     4  11  20  34  55  83 121 156 191 246 299 352
#     4  11  22  37  58  89 120 157 203 246 296 365
#     4  12  22  38  58  86 126 162 198 240 298 368
#     4  10  21  35  56  88 121 155 191 249 303 355
#
# _framework density 19.154827000000001
#
# number of rings (size 3 to 8) (size 9 to 14) (size 15 to 20)
#    0.000    1.231    6.154    1.385    0.000    0.000 
#    0.000    0.000    0.000    3.692    0.000    0.000 
#    0.000    0.000    0.000    0.000    0.000    0.000 
#
# Total GULP energy -144813.747975 kJ/mol
# GULP energy per Si atom -5569.759538 kJ/mol
# Density = 1.911123 g / cm^3
# Si number density = 19.154827 Si / 1000 Ang^3
#
#
#
# Elastic Constant Matrix: (Units=GPa)
#
#
# Indices 1 2 3 4 5 6 
#
# 1 161.6308 56.6406 27.0806 0.0000 17.7029 0.0000
# 2 56.6406 91.3185 10.2987 0.0000 13.7719 0.0000
# 3 27.0806 10.2987 53.8574 0.0000 0.0270 0.0000
# 4 0.0000 0.0000 0.0000 11.4035 0.0000 10.9021
# 5 17.7029 13.7719 0.0270 0.0000 30.2831 0.0000
# 6 0.0000 0.0000 0.0000 10.9021 0.0000 34.4298
#
#
#
# Elastic Compliance Matrix: (Units=1/GPa)
#
#
# Indices 1 2 3 4 5 6 
#
# 1 0.008696 -0.004544 -0.003502 0.000000 -0.003014 0.000000
# 2 -0.004544 0.014410 -0.000468 0.000000 -0.003896 0.000000
# 3 -0.003502 -0.000468 0.020417 0.000000 0.002242 0.000000
# 4 0.000000 0.000000 0.000000 0.125765 0.000000 -0.039823
# 5 -0.003014 -0.003896 0.002242 0.000000 0.036553 0.000000
# 6 0.000000 0.000000 0.000000 -0.039823 0.000000 0.041654
#
#
# Mechanical properties :
#
#
# Convention : Reuss Voigt Hill
#
# Bulk Modulus (GPa) = 37.74594 54.98294 46.36444
# Shear Modulus (GPa) = 18.29112 29.40907 23.85010
#
# Velocity S-wave (km/s) = 3.09351 3.92259 3.53246
# Velocity P-wave (km/s) = 5.70160 7.02014 6.39494
#
# Compressibility (1/GPa) = 0.02649292
#
# Stress axis : x y z
#
# Youngs Moduli (GPa) = 114.99096 69.39726 48.97880
#
# Poissons Ratio (x) = 0.31537 0.17153
# Poissons Ratio (y) = 0.52257 0.02295
# Poissons Ratio (z) = 0.40272 0.03251
#
# Static dielectric constant tensor:
#      x y z
#    x 1.806040 0.000000 -0.010560 
#    y 0.000000 1.683500 0.000000 
#    z -0.010560 0.000000 1.721140 
# 
# From -- ./inp_files/126489.got.cif
#   From: 2010.05.17/outbox.cif.g08.bks.cpg/sg15_64_cif.got.tgz:126489.got - 2010.06.03 18:47:42.
