data_PCOD9268661
_publ_section_title
;
Structure prediction by ZEFSAII (Michael W. Deem and Ramdas Pophale) SiO2 
 PCOD9268661
Probable space group: C 2/C
;
_chemical_formula_sum "Si O2"
_cell_formula_units_Z 44
_cell_length_a 8.785821
_cell_length_b 15.535386
_cell_length_c 15.095860
_cell_angle_alpha 90.000000
_cell_angle_beta 54.075540
_cell_angle_gamma 90.000000
_cell_volume 1668.535046
_symmetry_space_group_name_H-M "C 2/C"
_symmetry_group_IT_number 15
_symmetry_cell_setting 'monoclinic'
loop_
_space_group_symop_operation_xyz
x,y,z
-x,y,1/2-z
-x,-y,-z
x,-y,1/2+z
1/2+x,1/2+y,z
1/2-x,1/2+y,1/2-z
1/2-x,1/2-y,-z
1/2+x,1/2-y,1/2+z
loop_
_atom_site_type_symbol
_atom_site_label
_atom_site_fract_x
_atom_site_fract_y
_atom_site_fract_z
Si Si1 0.654309 0.636769 0.121646
Si Si2 0.715754 0.466984 0.045748
Si Si3 0.352852 0.704417 0.872418
Si Si4 0.275719 0.490647 0.164088
Si Si5 0.500000 0.874858 0.750000
Si Si6 0.638862 0.685568 0.926350
O O1 0.500000 0.626239 0.250000
O O2 0.786604 0.553356 0.067511
O O3 0.756789 0.725048 0.108453
O O4 0.588147 0.654251 0.042253
O O5 0.781869 0.378024 0.067940
O O6 0.486432 0.484102 0.130725
O O7 0.735239 0.472923 0.933162
O O8 0.500000 0.668365 0.750000
O O9 0.353598 0.803672 0.840475
O O10 0.454359 0.704009 0.932458
O O11 0.236913 0.388964 0.163084
O O12 0.132572 0.557319 0.258526
#
# Coordination Sequence:
#
# PCOD9268661 Si02
#       6
#     8   8   8   8   4   8
#     4  10  20  32  63  88 106 151 189 248 282 341
#     4   9  18  37  60  81 113 149 207 232 281 344
#     4   9  20  37  54  85 116 154 188 243 274 356
#     4   9  19  36  58  81 116 161 182 243 290 352
#     4  10  22  34  54  86 122 154 190 230 308 336
#     4   9  20  39  54  86 122 139 201 238 290 345
#
# _framework density 26.370436000000002
#
# number of rings (size 3 to 8) (size 9 to 14) (size 15 to 20)
#    0.545    2.182    0.000    1.636    3.818    0.727 
#    0.000    0.000    0.000    9.818    0.000    0.000 
#    0.000    0.000    0.000    0.000    0.000    0.000 
#
# Total GULP energy -122528.388370 kJ/mol
# GULP energy per Si atom -5569.472199 kJ/mol
# Density = 2.631042 g / cm^3
# Si number density = 26.370436 Si / 1000 Ang^3
#
#
#
# Elastic Constant Matrix: (Units=GPa)
#
#
# Indices 1 2 3 4 5 6 
#
# 1 47.1310 27.9060 23.0104 0.0000 -6.9414 0.0000
# 2 27.9060 271.1929 24.0669 0.0000 -5.6892 0.0000
# 3 23.0104 24.0669 84.3433 0.0000 10.7051 0.0000
# 4 0.0000 0.0000 0.0000 18.9845 0.0000 17.0138
# 5 -6.9414 -5.6892 10.7051 0.0000 27.0515 0.0000
# 6 0.0000 0.0000 0.0000 17.0138 0.0000 -7.0368
#
#
#
# Elastic Compliance Matrix: (Units=1/GPa)
#
#
# Indices 1 2 3 4 5 6 
#
# 1 0.027909 -0.001920 -0.008343 0.000000 0.010059 0.000000
# 2 -0.001920 0.003958 -0.000683 0.000000 0.000610 0.000000
# 3 -0.008343 -0.000683 0.015390 0.000000 -0.008375 0.000000
# 4 0.000000 0.000000 0.000000 0.016633 0.000000 0.040216
# 5 0.010059 0.000610 -0.008375 0.000000 0.042990 0.000000
# 6 0.000000 0.000000 0.000000 0.040216 0.000000 -0.044874
#
#
# Mechanical properties :
#
#
# Convention : Reuss Voigt Hill
#
# Bulk Modulus (GPa) = 39.42409 61.40373 50.41391
# Shear Modulus (GPa) = 54.13913 29.64543 41.89228
#
# Velocity S-wave (km/s) = 4.53595 3.35653 3.99006
# Velocity P-wave (km/s) = 6.51273 6.19333 6.35504
#
# Compressibility (1/GPa) = 0.02536520
#
# Stress axis : x y z
#
# Youngs Moduli (GPa) = 35.83047 252.62479 64.97628
#
# Poissons Ratio (x) = 0.48516 0.54209
# Poissons Ratio (y) = 0.06881 0.04438
# Poissons Ratio (z) = 0.29893 0.17254
#
# Static dielectric constant tensor:
#      x y z
#    x 2.132820 0.000000 -0.074620 
#    y 0.000000 2.192700 0.000000 
#    z -0.074620 0.000000 2.267560 
# 
# From -- ./inp_files/197625.got.cif
#   From: 2010.05.17/outbox.cif.g08.bks.cpg/sg15_99_cif.got.tgz:197625.got - 2010.06.03 18:47:42.
