data_PCOD9268335
_publ_section_title
;
Structure prediction by ZEFSAII (Michael W. Deem and Ramdas Pophale) SiO2 
 PCOD9268335
Probable space group: C 2/C
;
_chemical_formula_sum "Si O2"
_cell_formula_units_Z 64
_cell_length_a 22.149536
_cell_length_b 6.174025
_cell_length_c 26.088046
_cell_angle_alpha 90.000000
_cell_angle_beta 105.319388
_cell_angle_gamma 90.000000
_cell_volume 3440.823722
_symmetry_space_group_name_H-M "C 2/C"
_symmetry_group_IT_number 15
_symmetry_cell_setting 'monoclinic'
loop_
_space_group_symop_operation_xyz
x,y,z
-x,y,1/2-z
-x,-y,-z
x,-y,1/2+z
1/2+x,1/2+y,z
1/2-x,1/2+y,1/2-z
1/2-x,1/2-y,-z
1/2+x,1/2-y,1/2+z
loop_
_atom_site_type_symbol
_atom_site_label
_atom_site_fract_x
_atom_site_fract_y
_atom_site_fract_z
Si Si1 0.215937 0.129275 0.115333
Si Si2 0.683541 0.709156 0.785865
Si Si3 0.637772 0.523564 0.183595
Si Si4 0.687670 0.821776 0.425009
Si Si5 0.988509 0.793830 0.308183
Si Si6 0.911790 0.590093 0.765960
Si Si7 0.281287 0.937238 0.473237
Si Si8 0.095615 0.104283 0.330274
O O1 0.253278 0.226221 0.172172
O O2 0.158833 0.008295 0.129840
O O3 0.193983 0.315708 0.071447
O O4 0.265863 0.976477 0.097398
O O5 0.688328 0.592508 0.732084
O O6 0.636425 0.911470 0.767450
O O7 0.649636 0.539124 0.815795
O O8 0.572988 0.404234 0.182573
O O9 0.624183 0.766180 0.200207
O O10 0.727626 0.605599 0.444734
O O11 0.626880 0.758400 0.379345
O O12 0.674847 0.934867 0.476944
O O13 0.970031 0.539406 0.304386
O O14 0.000000 0.829446 0.250000
O O15 0.047312 0.928589 0.342661
O O16 0.928648 0.747670 0.722377
O O17 0.250000 0.750000 0.500000
#
# Coordination Sequence:
#
# PCOD9268335 Si02
#       8
#     8   8   8   8   8   8   8   8
#     4  11  21  35  56  83 119 149 186 230 295 358
#     4  10  20  31  48  81 110 147 187 223 273 347
#     4  10  24  34  50  80 118 160 188 224 280 347
#     4  10  20  36  60  86 109 147 187 246 300 334
#     4  11  21  35  51  75 113 152 199 230 265 333
#     4  10  20  35  49  75 111 156 185 230 275 319
#     4   9  20  37  57  84 116 143 189 240 298 350
#     4  11  20  34  58  81 110 147 200 235 280 335
#
# _framework density 18.600197999999999
#
# number of rings (size 3 to 8) (size 9 to 14) (size 15 to 20)
#    0.000    1.750    6.250    0.000    3.500    2.000 
#    0.000    0.000    0.000    0.750    0.000    8.750 
#    0.000    0.000    0.000    0.000    0.000    0.000 
#
# Total GULP energy -178301.654203 kJ/mol
# GULP energy per Si atom -5571.926694 kJ/mol
# Density = 1.855786 g / cm^3
# Si number density = 18.600198 Si / 1000 Ang^3
#
#
#
# Elastic Constant Matrix: (Units=GPa)
#
#
# Indices 1 2 3 4 5 6 
#
# 1 45.9292 11.3339 18.5835 0.0000 -5.6742 0.0000
# 2 11.3339 79.3826 14.6149 -0.0002 2.9341 0.0001
# 3 18.5835 14.6149 55.0302 -0.0001 -3.4698 0.0000
# 4 0.0000 -0.0002 -0.0001 21.7955 0.0000 8.8122
# 5 -5.6742 2.9341 -3.4698 0.0000 18.4075 0.0000
# 6 0.0000 0.0001 0.0000 8.8122 0.0000 25.6408
#
#
#
# Elastic Compliance Matrix: (Units=1/GPa)
#
#
# Indices 1 2 3 4 5 6 
#
# 1 0.026444 -0.002604 -0.007791 0.000000 0.007098 0.000000
# 2 -0.002604 0.013646 -0.002968 0.000000 -0.003537 0.000000
# 3 -0.007791 -0.002968 0.021728 0.000000 0.002167 0.000000
# 4 0.000000 0.000000 0.000000 0.053285 0.000000 -0.018313
# 5 0.007098 -0.003537 0.002167 0.000000 0.057486 0.000000
# 6 0.000000 0.000000 0.000000 -0.018313 0.000000 0.045294
#
#
# Mechanical properties :
#
#
# Convention : Reuss Voigt Hill
#
# Bulk Modulus (GPa) = 28.49579 29.93408 29.21493
# Shear Modulus (GPa) = 19.50788 22.22273 20.86531
#
# Velocity S-wave (km/s) = 3.24203 3.46028 3.35293
# Velocity P-wave (km/s) = 5.41920 5.66507 5.54350
#
# Compressibility (1/GPa) = 0.03509291
#
# Stress axis : x y z
#
# Youngs Moduli (GPa) = 37.81509 73.28096 46.02402
#
# Poissons Ratio (x) = 0.19079 0.35858
# Poissons Ratio (y) = 0.09845 0.13660
# Poissons Ratio (z) = 0.29462 0.21749
#
# Static dielectric constant tensor:
#      x y z
#    x 1.683040 0.000000 0.013090 
#    y 0.000000 1.707490 0.000000 
#    z 0.013090 0.000000 1.653850 
# 
# From -- ./inp_files/301605.got.cif
#   From: 2010.05.17/outbox.cif.g08.bks.cpg/sg15_151_cif.got.tgz:301605.got - 2010.06.03 18:47:42.
