data_PCOD9268899
_publ_section_title
;
Structure prediction by ZEFSAII (Michael W. Deem and Ramdas Pophale) SiO2 
 PCOD9268899
Probable space group: C 2/C
;
_chemical_formula_sum "Si O2"
_cell_formula_units_Z 64
_cell_length_a 16.150865
_cell_length_b 30.745673
_cell_length_c 12.047294
_cell_angle_alpha 90.000000
_cell_angle_beta 140.149642
_cell_angle_gamma 90.000000
_cell_volume 3833.376161
_symmetry_space_group_name_H-M "C 2/C"
_symmetry_group_IT_number 15
_symmetry_cell_setting 'monoclinic'
loop_
_space_group_symop_operation_xyz
x,y,z
-x,y,1/2-z
-x,-y,-z
x,-y,1/2+z
1/2+x,1/2+y,z
1/2-x,1/2+y,1/2-z
1/2-x,1/2-y,-z
1/2+x,1/2-y,1/2+z
loop_
_atom_site_type_symbol
_atom_site_label
_atom_site_fract_x
_atom_site_fract_y
_atom_site_fract_z
Si Si1 0.768721 0.358519 0.328607
Si Si2 0.663297 0.919311 0.289018
Si Si3 0.758665 0.652491 0.208702
Si Si4 0.649325 0.084575 0.033543
Si Si5 0.003887 0.293158 0.620360
Si Si6 0.641856 0.987646 0.695828
Si Si7 0.991224 0.191792 0.874785
Si Si8 0.649361 0.913828 0.883615
O O1 0.770828 0.380629 0.210432
O O2 0.891178 0.325844 0.464831
O O3 0.642297 0.330463 0.225989
O O4 0.785153 0.398951 0.433292
O O5 0.683899 0.920303 0.441393
O O6 0.704540 0.965783 0.281323
O O7 0.507045 0.914484 0.113627
O O8 0.795184 0.628775 0.359559
O O9 0.787779 0.617450 0.142462
O O10 0.858970 0.690597 0.284213
O O11 0.612444 0.667063 0.051101
O O12 0.697403 0.044513 0.159443
O O13 0.000000 0.295486 0.750000
O O14 0.992728 0.242554 0.578567
O O15 0.643353 0.960858 0.814658
O O16 0.500000 0.000000 0.500000
O O17 0.000000 0.188845 0.750000
O O18 0.500000 0.902687 0.750000
#
# Coordination Sequence:
#
# PCOD9268899 Si02
#       8
#     8   8   8   8   8   8   8   8
#     4  12  20  35  55  86 116 149 189 230 284 342
#     4  10  20  33  55  83 112 149 184 236 277 336
#     4  11  18  36  53  78 113 151 180 224 285 336
#     4   9  19  34  53  79 112 148 183 223 288 329
#     4  11  19  34  56  84 116 142 187 239 292 334
#     4   9  19  29  50  84 117 137 176 238 288 326
#     4  11  23  34  54  85 116 150 185 233 287 347
#     4  11  18  29  53  80 112 144 177 227 283 338
#
# _framework density 16.695466
#
# number of rings (size 3 to 8) (size 9 to 14) (size 15 to 20)
#    0.000    1.500    5.000    2.250    5.250    2.000 
#    0.000    0.625    0.000    7.500    6.500    0.000 
#    0.000    0.000    0.000    0.000    0.000    0.000 
#
# Total GULP energy -178296.409151 kJ/mol
# GULP energy per Si atom -5571.762786 kJ/mol
# Density = 1.665747 g / cm^3
# Si number density = 16.695466 Si / 1000 Ang^3
#
#
#
# Elastic Constant Matrix: (Units=GPa)
#
#
# Indices 1 2 3 4 5 6 
#
# 1 63.3301 30.0483 22.1313 0.0000 -7.7941 0.0000
# 2 30.0483 84.3216 22.9449 0.0000 -11.6082 0.0000
# 3 22.1313 22.9449 53.4200 0.0000 -4.5001 0.0000
# 4 0.0000 0.0000 0.0000 3.0570 0.0000 -11.2111
# 5 -7.7941 -11.6082 -4.5001 0.0000 23.6924 0.0000
# 6 0.0000 0.0000 0.0000 -11.2111 0.0000 16.7582
#
#
#
# Elastic Compliance Matrix: (Units=1/GPa)
#
#
# Indices 1 2 3 4 5 6 
#
# 1 0.020828 -0.005346 -0.006073 0.000000 0.003079 0.000000
# 2 -0.005346 0.015566 -0.004042 0.000000 0.005101 0.000000
# 3 -0.006073 -0.004042 0.023005 0.000000 0.000391 0.000000
# 4 0.000000 0.000000 0.000000 -0.225069 0.000000 -0.150569
# 5 0.003079 0.005101 0.000391 0.000000 0.045794 0.000000
# 6 0.000000 0.000000 0.000000 -0.150569 0.000000 -0.041057
#
#
# Mechanical properties :
#
#
# Convention : Reuss Voigt Hill
#
# Bulk Modulus (GPa) = 35.11542 39.03562 37.07552
# Shear Modulus (GPa) = -41.48708 17.09802 -12.19453
#
# Velocity S-wave (km/s) = -4.99032 3.20365 -2.70554
# Velocity P-wave (km/s) = 3.48221 6.09231 3.53486
#
# Compressibility (1/GPa) = 0.02847752
#
# Stress axis : x y z
#
# Youngs Moduli (GPa) = 48.01243 64.24156 43.46946
#
# Poissons Ratio (x) = 0.34341 0.26401
# Poissons Ratio (y) = 0.25666 0.17569
# Poissons Ratio (z) = 0.29160 0.25965
#
# Static dielectric constant tensor:
#      x y z
#    x 1.552060 0.000000 -0.016730 
#    y 0.000000 1.596960 0.000000 
#    z -0.016730 0.000000 1.559780 
# 
# From -- ./inp_files/101656.got.cif
#   From: 2010.05.17/outbox.cif.g08.bks.cpg/sg15_51_cif.got.tgz:101656.got - 2010.06.03 18:47:42.
