data_PCOD9268672
_publ_section_title
;
Structure prediction by ZEFSAII (Michael W. Deem and Ramdas Pophale) SiO2 
 PCOD9268672
Probable space group: C 2/C
;
_chemical_formula_sum "Si O2"
_cell_formula_units_Z 52
_cell_length_a 28.106844
_cell_length_b 13.991461
_cell_length_c 7.601189
_cell_angle_alpha 90.000000
_cell_angle_beta 79.511701
_cell_angle_gamma 90.000000
_cell_volume 2939.268309
_symmetry_space_group_name_H-M "C 2/C"
_symmetry_group_IT_number 15
_symmetry_cell_setting 'monoclinic'
loop_
_space_group_symop_operation_xyz
x,y,z
-x,y,1/2-z
-x,-y,-z
x,-y,1/2+z
1/2+x,1/2+y,z
1/2-x,1/2+y,1/2-z
1/2-x,1/2-y,-z
1/2+x,1/2-y,1/2+z
loop_
_atom_site_type_symbol
_atom_site_label
_atom_site_fract_x
_atom_site_fract_y
_atom_site_fract_z
Si Si1 0.207379 0.794780 0.410836
Si Si2 0.905981 0.644531 0.438214
Si Si3 0.805132 0.365238 0.850402
Si Si4 0.000000 0.346166 0.750000
Si Si5 0.222235 0.563057 0.746549
Si Si6 0.543998 0.934675 0.076576
Si Si7 0.634149 0.820889 0.162546
O O1 0.250000 0.750000 0.500000
O O2 0.206884 0.735239 0.229450
O O3 0.273680 0.598874 0.638855
O O4 0.158198 0.768612 0.546742
O O5 0.863329 0.630574 0.327571
O O6 0.928950 0.538257 0.455533
O O7 0.882970 0.691398 0.625537
O O8 0.952205 0.705718 0.348701
O O9 0.784273 0.450052 0.744598
O O10 0.785685 0.388956 0.057822
O O11 0.978043 0.404177 0.596649
O O12 0.177809 0.601955 0.655423
O O13 0.500000 0.926703 0.250000
O O14 0.587375 0.863857 0.099087
#
# Coordination Sequence:
#
# PCOD9268672 Si02
#       7
#     8   8   8   4   8   8   8
#     4  10  21  36  50  71  99 132 177 221 261 306
#     4  11  21  31  47  69  98 139 179 216 246 299
#     4  11  21  34  54  74 100 135 181 209 264 319
#     4  12  22  28  46  68 102 138 188 222 248 286
#     4  10  20  34  54  73  97 134 179 220 263 311
#     4  12  21  34  45  70 104 138 185 226 248 295
#     4  10  20  33  46  65  98 136 176 216 257 297
#
# _framework density 17.691478
#
# number of rings (size 3 to 8) (size 9 to 14) (size 15 to 20)
#    0.000    1.231    3.846    4.615    4.308    0.000 
#    2.769    0.000    0.000    0.000    0.000    0.000 
#    0.000    0.000    0.000   12.462   33.538   26.462 
#
# Total GULP energy -144866.276311 kJ/mol
# GULP energy per Si atom -5571.779858 kJ/mol
# Density = 1.765121 g / cm^3
# Si number density = 17.691478 Si / 1000 Ang^3
#
#
#
# Elastic Constant Matrix: (Units=GPa)
#
#
# Indices 1 2 3 4 5 6 
#
# 1 105.8852 33.1931 37.2603 0.0000 -8.9362 0.0000
# 2 33.1931 30.2813 15.1904 0.0000 -5.1851 0.0000
# 3 37.2603 15.1904 99.1300 0.0000 -9.6644 0.0000
# 4 0.0000 0.0000 0.0000 14.4777 0.0000 -2.5027
# 5 -8.9362 -5.1851 -9.6644 0.0000 43.9087 0.0000
# 6 0.0000 0.0000 0.0000 -2.5027 0.0000 16.0934
#
#
#
# Elastic Compliance Matrix: (Units=1/GPa)
#
#
# Indices 1 2 3 4 5 6 
#
# 1 0.015434 -0.015094 -0.003429 0.000000 0.000604 0.000000
# 2 -0.015094 0.050949 -0.001887 0.000000 0.002529 0.000000
# 3 -0.003429 -0.001887 0.011830 0.000000 0.001683 0.000000
# 4 0.000000 0.000000 0.000000 0.070980 0.000000 0.011038
# 5 0.000604 0.002529 0.001683 0.000000 0.023567 0.000000
# 6 0.000000 0.000000 0.000000 0.011038 0.000000 0.063854
#
#
# Mechanical properties :
#
#
# Convention : Reuss Voigt Hill
#
# Bulk Modulus (GPa) = 26.74404 45.17600 35.96002
# Shear Modulus (GPa) = 17.24750 24.87282 21.06016
#
# Velocity S-wave (km/s) = 3.12573 3.75363 3.45398
# Velocity P-wave (km/s) = 5.30817 6.66162 6.02303
#
# Compressibility (1/GPa) = 0.03739151
#
# Stress axis : x y z
#
# Youngs Moduli (GPa) = 64.79384 19.62751 84.53079
#
# Poissons Ratio (x) = 0.29626 0.28988
# Poissons Ratio (y) = 0.97800 0.15953
# Poissons Ratio (z) = 0.22219 0.03704
#
# Static dielectric constant tensor:
#      x y z
#    x 1.645270 0.000000 -0.022920 
#    y 0.000000 1.584700 0.000000 
#    z -0.022920 0.000000 1.720750 
# 
# From -- ./inp_files/66591.got.cif
#   From: 2010.05.17/outbox.cif.g08.bks.cpg/sg15_34_cif.got.tgz:66591.got - 2010.06.03 18:47:42.
