data_PCOD9268476
_publ_section_title
;
Structure prediction by ZEFSAII (Michael W. Deem and Ramdas Pophale) SiO2 
 PCOD9268476
Probable space group: C 2/C
;
_chemical_formula_sum "Si O2"
_cell_formula_units_Z 40
_cell_length_a 13.436297
_cell_length_b 29.213500
_cell_length_c 5.324261
_cell_angle_alpha 90.000000
_cell_angle_beta 55.874999
_cell_angle_gamma 90.000000
_cell_volume 1730.039987
_symmetry_space_group_name_H-M "C 2/C"
_symmetry_group_IT_number 15
_symmetry_cell_setting 'monoclinic'
loop_
_space_group_symop_operation_xyz
x,y,z
-x,y,1/2-z
-x,-y,-z
x,-y,1/2+z
1/2+x,1/2+y,z
1/2-x,1/2+y,1/2-z
1/2-x,1/2-y,-z
1/2+x,1/2-y,1/2+z
loop_
_atom_site_type_symbol
_atom_site_label
_atom_site_fract_x
_atom_site_fract_y
_atom_site_fract_z
Si Si1 0.356534 0.790836 0.594323
Si Si2 0.628719 0.938907 0.190457
Si Si3 0.119712 0.804150 0.203164
Si Si4 0.296655 0.514017 0.159580
Si Si5 0.845109 0.657276 0.600269
O O1 0.406578 0.741607 0.600510
O O2 0.376625 0.809250 0.288212
O O3 0.212473 0.788021 0.852321
O O4 0.393775 0.826948 0.759548
O O5 0.500000 0.946167 0.250000
O O6 0.735930 0.938290 0.827306
O O7 0.624856 0.893329 0.357503
O O8 0.679556 0.980630 0.284808
O O9 0.200887 0.837381 0.257209
O O10 0.000000 0.823157 0.250000
O O11 0.361631 0.508629 0.805055
#
# Coordination Sequence:
#
# PCOD9268476 Si02
#       5
#     8   8   8   8   8
#     4   9  21  37  50  78 107 131 179 211 250 311
#     4  10  20  32  51  74 106 139 171 211 254 308
#     4   9  20  37  58  73 105 142 170 213 259 302
#     4   8  19  31  47  69  98 135 171 201 252 313
#     4  10  21  35  49  79 107 130 176 215 246 307
#
# _framework density 23.120853
#
# number of rings (size 3 to 8) (size 9 to 14) (size 15 to 20)
#    2.400    0.400    0.000    1.200    2.800    2.400 
#    0.000    0.000    0.000    0.000    0.000    1.400 
#    0.000    0.000    0.000    0.000    0.000    0.000 
#
# Total GULP energy -111451.463017 kJ/mol
# GULP energy per Si atom -5572.573151 kJ/mol
# Density = 2.306823 g / cm^3
# Si number density = 23.120853 Si / 1000 Ang^3
#
#
#
# Elastic Constant Matrix: (Units=GPa)
#
#
# Indices 1 2 3 4 5 6 
#
# 1 88.7610 7.5034 40.6763 0.0000 16.4258 0.0000
# 2 7.5034 50.1338 11.0365 0.0000 -1.0756 0.0000
# 3 40.6763 11.0365 136.7159 0.0000 17.6981 0.0000
# 4 0.0000 0.0000 0.0000 16.5080 0.0000 24.6036
# 5 16.4258 -1.0756 17.6981 0.0000 32.1411 0.0000
# 6 0.0000 0.0000 0.0000 24.6036 0.0000 9.0756
#
#
#
# Elastic Compliance Matrix: (Units=1/GPa)
#
#
# Indices 1 2 3 4 5 6 
#
# 1 0.013900 -0.001462 -0.003329 0.000000 -0.005319 0.000000
# 2 -0.001462 0.020548 -0.001518 0.000000 0.002270 0.000000
# 3 -0.003329 -0.001518 0.008844 0.000000 -0.003219 0.000000
# 4 0.000000 0.000000 0.000000 -0.019924 0.000000 0.054012
# 5 -0.005319 0.002270 -0.003219 0.000000 0.035680 0.000000
# 6 0.000000 0.000000 0.000000 0.054012 0.000000 -0.036240
#
#
# Mechanical properties :
#
#
# Convention : Reuss Voigt Hill
#
# Bulk Modulus (GPa) = 32.59942 43.78256 38.19099
# Shear Modulus (GPa) = 109.52841 25.97123 67.74982
#
# Velocity S-wave (km/s) = 6.89021 3.35518 5.41905
# Velocity P-wave (km/s) = 8.79944 5.82985 7.46382
#
# Compressibility (1/GPa) = 0.03067539
#
# Stress axis : x y z
#
# Youngs Moduli (GPa) = 71.94410 48.66596 113.06899
#
# Poissons Ratio (x) = 0.07113 0.37639
# Poissons Ratio (y) = 0.10516 0.17162
# Poissons Ratio (z) = 0.23949 0.07387
#
# Static dielectric constant tensor:
#      x y z
#    x 1.905790 0.000000 -0.019010 
#    y 0.000000 1.816120 0.000000 
#    z -0.019010 0.000000 2.005100 
# 
# From -- ./inp_files/8381.got.cif
#   From: 2010.05.17/outbox.cif.g08.bks.cpg/sg15_5_cif.got.tgz:8381.got - 2010.06.03 18:47:42.
