data_PCOD9268662
_publ_section_title
;
Structure prediction by ZEFSAII (Michael W. Deem and Ramdas Pophale) SiO2 
 PCOD9268662
Probable space group: C 2/C
;
_chemical_formula_sum "Si O2"
_cell_formula_units_Z 60
_cell_length_a 25.742793
_cell_length_b 11.003600
_cell_length_c 8.549822
_cell_angle_alpha 90.000000
_cell_angle_beta 53.642808
_cell_angle_gamma 90.000000
_cell_volume 1950.406576
_symmetry_space_group_name_H-M "C 2/C"
_symmetry_group_IT_number 15
_symmetry_cell_setting 'monoclinic'
loop_
_space_group_symop_operation_xyz
x,y,z
-x,y,1/2-z
-x,-y,-z
x,-y,1/2+z
1/2+x,1/2+y,z
1/2-x,1/2+y,1/2-z
1/2-x,1/2-y,-z
1/2+x,1/2-y,1/2+z
loop_
_atom_site_type_symbol
_atom_site_label
_atom_site_fract_x
_atom_site_fract_y
_atom_site_fract_z
Si Si1 0.000000 0.563544 0.750000
Si Si2 0.119452 0.595607 0.179953
Si Si3 0.397794 0.608681 0.458936
Si Si4 0.206869 0.273686 0.762094
Si Si5 0.321815 0.582897 0.019633
Si Si6 0.971298 0.234809 0.564663
Si Si7 0.712303 0.089335 0.567462
Si Si8 0.886850 0.772430 0.660868
O O1 0.941749 0.483515 0.777927
O O2 0.976574 0.647947 0.936365
O O3 0.155080 0.631247 0.284206
O O4 0.088889 0.730161 0.216746
O O5 0.180151 0.516421 0.019364
O O6 0.332544 0.646695 0.672700
O O7 0.388026 0.489921 0.372695
O O8 0.454855 0.624433 0.478154
O O9 0.399553 0.711115 0.323526
O O10 0.278092 0.299092 0.563063
O O11 0.222246 0.306028 0.917468
O O12 0.269817 0.477086 0.058442
O O13 0.345427 0.621895 0.154582
O O14 0.039284 0.225468 0.523750
O O15 0.654243 0.147879 0.776623
#
# Coordination Sequence:
#
# PCOD9268662 Si02
#       8
#     4   8   8   8   8   8   8   8
#     4  12  18  34  58  96 118 148 184 248 292 350
#     4  10  20  32  63  93 121 144 189 241 305 346
#     4  10  20  39  62  86 115 154 201 246 283 349
#     4   9  20  39  61  87 115 153 199 242 290 346
#     4  11  22  33  60  87 114 155 202 244 285 330
#     4  11  21  37  61  90 121 156 197 239 287 354
#     4  10  20  39  60  89 116 152 201 247 287 347
#     4  11  21  38  62  88 115 154 200 243 287 348
#
# _framework density 30.762816000000001
#
# number of rings (size 3 to 8) (size 9 to 14) (size 15 to 20)
#    0.000    1.600    2.667    3.600    0.000    2.667 
#    0.000    0.000   11.733   13.600    0.000    0.000 
#    0.000    0.000    0.000    0.000    0.000    0.000 
#
# Total GULP energy -167019.146044 kJ/mol
# GULP energy per Si atom -5567.304868 kJ/mol
# Density = 3.069280 g / cm^3
# Si number density = 30.762816 Si / 1000 Ang^3
#
#
#
# Elastic Constant Matrix: (Units=GPa)
#
#
# Indices 1 2 3 4 5 6 
#
# 1 276.3390 55.3094 44.4765 0.0000 32.1046 0.0000
# 2 55.3094 122.7497 9.5043 0.0000 24.6056 0.0000
# 3 44.4765 9.5043 59.7290 0.0000 -12.1698 0.0000
# 4 0.0000 0.0000 0.0000 40.2410 0.0000 19.1100
# 5 32.1046 24.6056 -12.1698 0.0000 48.6986 0.0000
# 6 0.0000 0.0000 0.0000 19.1100 0.0000 78.9859
#
#
#
# Elastic Compliance Matrix: (Units=1/GPa)
#
#
# Indices 1 2 3 4 5 6 
#
# 1 0.004979 -0.001155 -0.004292 0.000000 -0.003771 0.000000
# 2 -0.001155 0.009702 -0.001609 0.000000 -0.004543 0.000000
# 3 -0.004292 -0.001609 0.022060 0.000000 0.009155 0.000000
# 4 0.000000 0.000000 0.000000 0.028076 0.000000 -0.006793
# 5 -0.003771 -0.004543 0.009155 0.000000 0.027604 0.000000
# 6 0.000000 0.000000 0.000000 -0.006793 0.000000 0.014304
#
#
# Mechanical properties :
#
#
# Convention : Reuss Voigt Hill
#
# Bulk Modulus (GPa) = 44.19296 75.26644 59.72970
# Shear Modulus (GPa) = 38.94659 56.88693 47.91676
#
# Velocity S-wave (km/s) = 3.56199 4.30491 3.95095
# Velocity P-wave (km/s) = 5.59588 7.01637 6.34600
#
# Compressibility (1/GPa) = 0.02262804
#
# Stress axis : x y z
#
# Youngs Moduli (GPa) = 200.84808 103.06736 45.33125
#
# Poissons Ratio (x) = 0.11906 0.19456
# Poissons Ratio (y) = 0.23200 0.07295
# Poissons Ratio (z) = 0.86205 0.16587
#
# Static dielectric constant tensor:
#      x y z
#    x 2.213850 0.000000 -0.050790 
#    y 0.000000 2.583260 0.000000 
#    z -0.050790 0.000000 2.859330 
# 
# From -- ./inp_files/117532.got.cif
#   From: 2010.05.17/outbox.cif.g08.bks.cpg/sg15_59_cif.got.tgz:117532.got - 2010.06.03 18:47:42.
