data_PCOD9268048
_publ_section_title
;
Structure prediction by ZEFSAII (Michael W. Deem and Ramdas Pophale) SiO2 
 PCOD9268048
Probable space group: C 2/C
;
_chemical_formula_sum "Si O2"
_cell_formula_units_Z 56
_cell_length_a 11.421943
_cell_length_b 28.028397
_cell_length_c 8.861132
_cell_angle_alpha 90.000000
_cell_angle_beta 72.903801
_cell_angle_gamma 90.000000
_cell_volume 2711.441067
_symmetry_space_group_name_H-M "C 2/C"
_symmetry_group_IT_number 15
_symmetry_cell_setting 'monoclinic'
loop_
_space_group_symop_operation_xyz
x,y,z
-x,y,1/2-z
-x,-y,-z
x,-y,1/2+z
1/2+x,1/2+y,z
1/2-x,1/2+y,1/2-z
1/2-x,1/2-y,-z
1/2+x,1/2-y,1/2+z
loop_
_atom_site_type_symbol
_atom_site_label
_atom_site_fract_x
_atom_site_fract_y
_atom_site_fract_z
Si Si1 0.420438 0.348704 0.506529
Si Si2 0.500000 0.902677 0.750000
Si Si3 0.870374 0.521365 0.496730
Si Si4 0.682351 0.170859 0.304309
Si Si5 0.772813 0.949381 0.157005
Si Si6 0.500000 0.571031 0.750000
Si Si7 0.163408 0.230537 0.667313
Si Si8 0.197029 0.839882 0.430925
O O1 0.301126 0.345442 0.658094
O O2 0.422148 0.393887 0.390899
O O3 0.424219 0.302010 0.399934
O O4 0.553762 0.346299 0.531840
O O5 0.596717 0.936675 0.630951
O O6 0.422416 0.868924 0.668855
O O7 0.778052 0.483491 0.455005
O O8 0.811947 0.541457 0.668657
O O9 0.000000 0.500000 0.500000
O O10 0.630118 0.220768 0.263376
O O11 0.728163 0.178671 0.455795
O O12 0.909893 0.957186 0.172217
O O13 0.763605 0.894040 0.117361
O O14 0.250000 0.250000 0.500000
O O15 0.212130 0.194014 0.778487
#
# Coordination Sequence:
#
# PCOD9268048 Si02
#       8
#     8   4   8   8   8   4   8   8
#     4  10  19  41  68  93 134 174 213 265 339 392
#     4  12  26  41  68  94 136 180 223 276 332 392
#     4  12  24  46  67  94 132 179 224 276 334 404
#     4  11  25  39  65 101 133 178 228 267 325 402
#     4  11  24  42  72  93 131 171 223 278 345 400
#     4  10  20  41  70 100 122 172 213 282 340 402
#     4  10  21  39  65  96 135 175 212 266 331 400
#     4  11  22  42  69  99 132 172 224 281 334 392
#
# _framework density 20.653223000000001
#
# number of rings (size 3 to 8) (size 9 to 14) (size 15 to 20)
#    0.000    1.143    4.286    2.571    4.000    0.571 
#    0.000    0.000    0.000    0.000    0.000    0.000 
#    0.000    0.000    0.000    0.000    0.000    0.000 
#
# Total GULP energy -156230.359233 kJ/mol
# GULP energy per Si atom -5579.655687 kJ/mol
# Density = 2.060622 g / cm^3
# Si number density = 20.653223 Si / 1000 Ang^3
#
#
#
# Elastic Constant Matrix: (Units=GPa)
#
#
# Indices 1 2 3 4 5 6 
#
# 1 109.4486 50.1930 20.6334 0.0000 19.6314 0.0000
# 2 50.1930 102.3215 20.9326 0.0000 6.8788 0.0000
# 3 20.6334 20.9326 71.7503 0.0000 3.2950 0.0000
# 4 0.0000 0.0000 0.0000 22.3147 0.0000 -2.7200
# 5 19.6314 6.8788 3.2950 0.0000 36.7768 0.0000
# 6 0.0000 0.0000 0.0000 -2.7200 0.0000 38.3218
#
#
#
# Elastic Compliance Matrix: (Units=1/GPa)
#
#
# Indices 1 2 3 4 5 6 
#
# 1 0.013123 -0.005669 -0.001854 0.000000 -0.005778 0.000000
# 2 -0.005669 0.012947 -0.002184 0.000000 0.000800 0.000000
# 3 -0.001854 -0.002184 0.015105 0.000000 0.000045 0.000000
# 4 0.000000 0.000000 0.000000 0.045205 0.000000 0.003209
# 5 -0.005778 0.000800 0.000045 0.000000 0.030122 0.000000
# 6 0.000000 0.000000 0.000000 0.003209 0.000000 0.026323
#
#
# Mechanical properties :
#
#
# Convention : Reuss Voigt Hill
#
# Bulk Modulus (GPa) = 45.95476 51.89316 48.92396
# Shear Modulus (GPa) = 29.49979 32.26674 30.88327
#
# Velocity S-wave (km/s) = 3.78344 3.95689 3.87114
# Velocity P-wave (km/s) = 6.43310 6.78649 6.61216
#
# Compressibility (1/GPa) = 0.02176053
#
# Stress axis : x y z
#
# Youngs Moduli (GPa) = 76.20359 77.23720 66.20118
#
# Poissons Ratio (x) = 0.43789 0.12276
# Poissons Ratio (y) = 0.43203 0.14456
# Poissons Ratio (z) = 0.14131 0.16865
#
# Static dielectric constant tensor:
#      x y z
#    x 1.696850 0.000000 0.003620 
#    y 0.000000 1.751740 0.000000 
#    z 0.003620 0.000000 1.731530 
# 
# From -- ./inp_files/34256.got.cif
#   From: 2010.05.17/outbox.cif.g08.bks.cpg/sg15_18_cif.got.tgz:34256.got - 2010.06.03 18:47:42.
