data_PCOD9268869
_publ_section_title
;
Structure prediction by ZEFSAII (Michael W. Deem and Ramdas Pophale) SiO2 
 PCOD9268869
Probable space group: C 2/C
;
_chemical_formula_sum "Si O2"
_cell_formula_units_Z 56
_cell_length_a 11.163694
_cell_length_b 19.897047
_cell_length_c 14.072695
_cell_angle_alpha 90.000000
_cell_angle_beta 59.484188
_cell_angle_gamma 90.000000
_cell_volume 2692.920872
_symmetry_space_group_name_H-M "C 2/C"
_symmetry_group_IT_number 15
_symmetry_cell_setting 'monoclinic'
loop_
_space_group_symop_operation_xyz
x,y,z
-x,y,1/2-z
-x,-y,-z
x,-y,1/2+z
1/2+x,1/2+y,z
1/2-x,1/2+y,1/2-z
1/2-x,1/2-y,-z
1/2+x,1/2-y,1/2+z
loop_
_atom_site_type_symbol
_atom_site_label
_atom_site_fract_x
_atom_site_fract_y
_atom_site_fract_z
Si Si1 0.909591 0.098179 0.019449
Si Si2 0.400651 0.117328 0.366525
Si Si3 0.304370 0.352929 0.841311
Si Si4 0.013434 0.350739 0.480679
Si Si5 0.489081 0.290201 0.601714
Si Si6 0.629911 0.527430 0.068581
Si Si7 0.946122 0.533863 0.873843
O O1 0.749077 0.101010 0.115533
O O2 0.967282 0.173537 0.008419
O O3 0.007216 0.060292 0.056109
O O4 0.902374 0.052220 0.927293
O O5 0.500000 0.151298 0.250000
O O6 0.381997 0.154524 0.473557
O O7 0.472291 0.045994 0.365687
O O8 0.139872 0.347520 0.910789
O O9 0.376353 0.320420 0.720984
O O10 0.366997 0.312637 0.907062
O O11 0.350326 0.430604 0.842398
O O12 0.021441 0.421182 0.422096
O O13 0.025362 0.288755 0.404679
O O14 0.779725 0.540247 0.957016
O O15 0.000000 0.557457 0.750000
#
# Coordination Sequence:
#
# PCOD9268869 Si02
#       7
#     8   8   8   8   8   8   8
#     4   9  17  33  52  78 106 142 185 218 270 328
#     4  10  20  35  56  79 108 151 188 224 272 333
#     4   9  19  35  53  81 108 138 188 226 283 328
#     4  11  21  34  54  82 113 147 176 235 278 330
#     4  10  20  33  54  83 107 144 181 227 278 339
#     4   8  16  33  57  76 103 144 179 235 272 315
#     4   9  19  34  56  85 110 138 185 236 284 322
#
# _framework density 20.795262999999998
#
# number of rings (size 3 to 8) (size 9 to 14) (size 15 to 20)
#    0.000    2.571    0.000    1.714    2.000    0.571 
#    0.000    0.000    0.000    0.857   14.857    0.000 
#    0.000    0.000    0.000    0.000    0.000    0.000 
#
# Total GULP energy -155923.222294 kJ/mol
# GULP energy per Si atom -5568.686510 kJ/mol
# Density = 2.074793 g / cm^3
# Si number density = 20.795263 Si / 1000 Ang^3
#
#
#
# Elastic Constant Matrix: (Units=GPa)
#
#
# Indices 1 2 3 4 5 6 
#
# 1 45.4567 10.0914 28.1361 0.0000 4.3132 0.0000
# 2 10.0914 55.1353 -2.1079 0.0000 18.1240 0.0000
# 3 28.1361 -2.1079 59.9001 0.0000 3.9706 0.0000
# 4 0.0000 0.0000 0.0000 22.9885 0.0000 7.9918
# 5 4.3132 18.1240 3.9706 0.0000 25.0048 0.0000
# 6 0.0000 0.0000 0.0000 7.9918 0.0000 13.5840
#
#
#
# Elastic Compliance Matrix: (Units=1/GPa)
#
#
# Indices 1 2 3 4 5 6 
#
# 1 0.033412 -0.007453 -0.016102 0.000000 0.002195 0.000000
# 2 -0.007453 0.025713 0.005615 0.000000 -0.018243 0.000000
# 3 -0.016102 0.005615 0.024802 0.000000 -0.005231 0.000000
# 4 0.000000 0.000000 0.000000 0.054684 0.000000 -0.032172
# 5 0.002195 -0.018243 -0.005231 0.000000 0.053667 0.000000
# 6 0.000000 0.000000 0.000000 -0.032172 0.000000 0.092543
#
#
# Mechanical properties :
#
#
# Convention : Reuss Voigt Hill
#
# Bulk Modulus (GPa) = 20.81285 25.85901 23.33593
# Shear Modulus (GPa) = 14.84933 20.60699 17.72816
#
# Velocity S-wave (km/s) = 2.67511 3.15135 2.92294
# Velocity P-wave (km/s) = 4.42401 5.06985 4.75790
#
# Compressibility (1/GPa) = 0.04804725
#
# Stress axis : x y z
#
# Youngs Moduli (GPa) = 29.92979 38.89123 40.31928
#
# Poissons Ratio (x) = 0.28984 0.64921
# Poissons Ratio (y) = 0.22305 -0.22638
# Poissons Ratio (z) = 0.48192 -0.21836
#
# Static dielectric constant tensor:
#      x y z
#    x 1.762190 0.000000 0.037470 
#    y 0.000000 1.791770 0.000000 
#    z 0.037470 0.000000 1.798560 
# 
# From -- ./inp_files/146674.got.cif
#   From: 2010.05.17/outbox.cif.g08.bks.cpg/sg15_74_cif.got.tgz:146674.got - 2010.06.03 18:47:42.
