data_PCOD9268244
_publ_section_title
;
Structure prediction by ZEFSAII (Michael W. Deem and Ramdas Pophale) SiO2 
 PCOD9268244
Probable space group: C 2/C
;
_chemical_formula_sum "Si O2"
_cell_formula_units_Z 48
_cell_length_a 24.083997
_cell_length_b 16.601537
_cell_length_c 7.806183
_cell_angle_alpha 90.000000
_cell_angle_beta 58.144145
_cell_angle_gamma 90.000000
_cell_volume 2651.043764
_symmetry_space_group_name_H-M "C 2/C"
_symmetry_group_IT_number 15
_symmetry_cell_setting 'monoclinic'
loop_
_space_group_symop_operation_xyz
x,y,z
-x,y,1/2-z
-x,-y,-z
x,-y,1/2+z
1/2+x,1/2+y,z
1/2-x,1/2+y,1/2-z
1/2-x,1/2-y,-z
1/2+x,1/2-y,1/2+z
loop_
_atom_site_type_symbol
_atom_site_label
_atom_site_fract_x
_atom_site_fract_y
_atom_site_fract_z
Si Si1 0.241690 0.119612 0.947800
Si Si2 0.067241 0.319308 0.541097
Si Si3 0.930303 0.504963 0.953310
Si Si4 0.144410 0.259721 0.109831
Si Si5 0.789065 0.466001 0.031352
Si Si6 0.131984 0.649569 0.279572
O O1 0.176213 0.171658 0.056178
O O2 0.243181 0.039936 0.060432
O O3 0.299743 0.178750 0.913783
O O4 0.261450 0.085848 0.730668
O O5 0.068296 0.413243 0.481094
O O6 0.086363 0.268970 0.342715
O O7 0.118850 0.312845 0.614313
O O8 0.000000 0.301574 0.750000
O O9 0.000000 0.516021 0.750000
O O10 0.861289 0.502965 0.960512
O O11 0.922107 0.580740 0.092320
O O12 0.130009 0.289897 0.940740
O O13 0.802802 0.404290 0.852382
#
# Coordination Sequence:
#
# PCOD9268244 Si02
#       6
#     8   8   8   8   8   8
#     4  11  21  36  55  77 114 143 191 228 271 322
#     4  10  23  36  53  81 113 147 187 221 267 325
#     4  10  20  29  50  79 110 153 187 206 246 318
#     4  11  22  37  52  81 111 149 180 231 274 318
#     4  11  19  37  52  78 109 152 184 227 262 316
#     4  11  21  34  53  78 115 146 187 215 265 319
#
# _framework density 18.106076999999999
#
# number of rings (size 3 to 8) (size 9 to 14) (size 15 to 20)
#    0.000    1.333    6.667    0.000    4.667    4.000 
#    3.000    0.000    0.000    0.000    0.000    1.167 
#    0.000    0.000    0.000    0.000    0.000    0.000 
#
# Total GULP energy -133826.789601 kJ/mol
# GULP energy per Si atom -5576.116233 kJ/mol
# Density = 1.806487 g / cm^3
# Si number density = 18.106077 Si / 1000 Ang^3
#
#
#
# Elastic Constant Matrix: (Units=GPa)
#
#
# Indices 1 2 3 4 5 6 
#
# 1 50.8200 35.3516 30.8549 0.0000 12.9169 0.0000
# 2 35.3516 74.5358 41.0876 0.0000 3.7561 0.0000
# 3 30.8549 41.0876 73.7009 0.0000 18.3631 0.0000
# 4 0.0000 0.0000 0.0000 15.7674 0.0000 -5.2601
# 5 12.9169 3.7561 18.3631 0.0000 21.4918 0.0000
# 6 0.0000 0.0000 0.0000 -5.2601 0.0000 16.5136
#
#
#
# Elastic Compliance Matrix: (Units=1/GPa)
#
#
# Indices 1 2 3 4 5 6 
#
# 1 0.035687 -0.014634 -0.002636 0.000000 -0.016638 0.000000
# 2 -0.014634 0.026348 -0.012205 0.000000 0.014618 0.000000
# 3 -0.002636 -0.012205 0.026108 0.000000 -0.018590 0.000000
# 4 0.000000 0.000000 0.000000 0.070963 0.000000 0.022604
# 5 -0.016638 0.014618 -0.018590 0.000000 0.069857 0.000000
# 6 0.000000 0.000000 0.000000 0.022604 0.000000 0.067756
#
#
# Mechanical properties :
#
#
# Convention : Reuss Voigt Hill
#
# Bulk Modulus (GPa) = 34.25537 45.96056 40.10797
# Shear Modulus (GPa) = 13.68364 16.87207 15.27785
#
# Velocity S-wave (km/s) = 2.75207 3.05593 2.90797
# Velocity P-wave (km/s) = 5.39063 6.15555 5.78574
#
# Compressibility (1/GPa) = 0.02919250
#
# Stress axis : x y z
#
# Youngs Moduli (GPa) = 28.02170 37.95319 38.30274
#
# Poissons Ratio (x) = 0.55541 0.10098
# Poissons Ratio (y) = 0.41007 0.46747
# Poissons Ratio (z) = 0.07388 0.46320
#
# Static dielectric constant tensor:
#      x y z
#    x 1.702340 0.000000 0.051750 
#    y 0.000000 1.613590 0.000000 
#    z 0.051750 0.000000 1.691220 
# 
# From -- ./inp_files/66654.got.cif
#   From: 2010.05.17/outbox.cif.g08.bks.cpg/sg15_34_cif.got.tgz:66654.got - 2010.06.03 18:47:42.
