data_PCOD9268924
_publ_section_title
;
Structure prediction by ZEFSAII (Michael W. Deem and Ramdas Pophale) SiO2 
 PCOD9268924
Probable space group: C 2/C
;
_chemical_formula_sum "Si O2"
_cell_formula_units_Z 64
_cell_length_a 25.229678
_cell_length_b 19.490560
_cell_length_c 19.628794
_cell_angle_alpha 90.000000
_cell_angle_beta 19.369085
_cell_angle_gamma 90.000000
_cell_volume 3201.197432
_symmetry_space_group_name_H-M "C 2/C"
_symmetry_group_IT_number 15
_symmetry_cell_setting 'monoclinic'
loop_
_space_group_symop_operation_xyz
x,y,z
-x,y,1/2-z
-x,-y,-z
x,-y,1/2+z
1/2+x,1/2+y,z
1/2-x,1/2+y,1/2-z
1/2-x,1/2-y,-z
1/2+x,1/2-y,1/2+z
loop_
_atom_site_type_symbol
_atom_site_label
_atom_site_fract_x
_atom_site_fract_y
_atom_site_fract_z
Si Si1 0.260714 0.667081 0.044445
Si Si2 0.563455 0.706610 0.931101
Si Si3 0.087021 0.625859 0.572293
Si Si4 0.987824 0.773286 0.165568
Si Si5 0.694732 0.934377 0.737001
Si Si6 0.900427 0.069849 0.123492
Si Si7 0.236699 0.232767 0.846658
Si Si8 0.623896 0.093183 0.801939
O O1 0.094007 0.699573 0.222705
O O2 0.244387 0.597260 0.104863
O O3 0.344647 0.716775 0.999630
O O4 0.377489 0.670957 0.838751
O O5 0.536904 0.717039 0.883957
O O6 0.710515 0.733285 0.796586
O O7 0.533128 0.626677 0.978165
O O8 0.415182 0.744226 0.146616
O O9 0.252632 0.583733 0.355504
O O10 0.129206 0.707159 0.509764
O O11 0.000000 0.616206 0.750000
O O12 0.964542 0.600826 0.662915
O O13 0.815985 0.918202 0.651970
O O14 0.682365 0.016160 0.744884
O O15 0.523685 0.899919 0.964860
O O16 0.000000 0.000000 0.000000
O O17 0.240635 0.152094 0.859840
#
# Coordination Sequence:
#
# PCOD9268924 Si02
#       8
#     8   8   8   8   8   8   8   8
#     4  10  20  36  54  85 122 162 191 256 310 370
#     4  11  20  34  60  89 117 156 210 266 306 382
#     4  10  23  43  63  92 133 165 211 278 332 383
#     4  10  20  33  56  83 121 154 198 247 313 356
#     4  10  20  39  63  84 128 163 214 258 319 394
#     4  10  21  39  62  91 122 165 214 269 315 386
#     4  11  21  37  64  93 119 159 219 264 325 386
#     4  10  21  39  64  90 116 175 207 262 325 390
#
# _framework density 19.992519000000001
#
# number of rings (size 3 to 8) (size 9 to 14) (size 15 to 20)
#    0.000    1.750    2.500    2.250    1.750    0.500 
#    2.250    0.000    5.500    0.000    0.000    0.000 
#    0.000    0.000    0.000    0.000    0.000    0.000 
#
# Total GULP energy -178180.303373 kJ/mol
# GULP energy per Si atom -5568.134480 kJ/mol
# Density = 1.994701 g / cm^3
# Si number density = 19.992519 Si / 1000 Ang^3
#
#
#
# Elastic Constant Matrix: (Units=GPa)
#
#
# Indices 1 2 3 4 5 6 
#
# 1 58.7982 2.6823 28.1110 -0.0016 8.1284 0.0017
# 2 2.6823 78.6342 31.8831 -0.0053 -2.1594 0.0027
# 3 28.1110 31.8831 50.2349 -0.0070 7.0552 0.0004
# 4 -0.0016 -0.0053 -0.0070 21.6913 0.0018 -5.4908
# 5 8.1284 -2.1594 7.0552 0.0018 37.2437 -0.0015
# 6 0.0017 0.0027 0.0004 -5.4908 -0.0015 30.1758
#
#
#
# Elastic Compliance Matrix: (Units=1/GPa)
#
#
# Indices 1 2 3 4 5 6 
#
# 1 0.025666 0.006460 -0.018213 -0.000003 -0.001777 -0.000002
# 2 0.006460 0.019114 -0.016133 -0.000001 0.002754 -0.000002
# 3 -0.018213 -0.016133 0.041002 0.000009 -0.004727 0.000003
# 4 -0.000003 -0.000001 0.000009 0.048327 -0.000003 0.008794
# 5 -0.001777 0.002754 -0.004727 -0.000003 0.028293 0.000001
# 6 -0.000002 -0.000002 0.000003 0.008794 0.000001 0.034739
#
#
# Mechanical properties :
#
#
# Convention : Reuss Voigt Hill
#
# Bulk Modulus (GPa) = 33.32268 34.78000 34.05134
# Shear Modulus (GPa) = 19.01748 26.15488 22.58618
#
# Velocity S-wave (km/s) = 3.08755 3.62087 3.36479
# Velocity P-wave (km/s) = 5.42350 5.90891 5.67140
#
# Compressibility (1/GPa) = 0.03000959
#
# Stress axis : x y z
#
# Youngs Moduli (GPa) = 38.96235 52.31838 24.38921
#
# Poissons Ratio (x) = -0.33800 0.44420
# Poissons Ratio (y) = -0.25171 0.39347
# Poissons Ratio (z) = 0.70963 0.84406
#
# Static dielectric constant tensor:
#      x y z
#    x 1.688890 0.000000 0.019270 
#    y 0.000000 1.753990 0.000000 
#    z 0.019270 0.000000 1.756410 
# 
# From -- ./inp_files/258052.got.cif
#   From: 2010.05.17/outbox.cif.g08.bks.cpg/sg15_130_cif.got.tgz:258052.got - 2010.06.03 18:47:42.
