data_PCOD9268421
_publ_section_title
;
Structure prediction by ZEFSAII (Michael W. Deem and Ramdas Pophale) SiO2 
 PCOD9268421
Probable space group: C 2/C
;
_chemical_formula_sum "Si O2"
_cell_formula_units_Z 56
_cell_length_a 9.815950
_cell_length_b 18.409708
_cell_length_c 17.480449
_cell_angle_alpha 90.000000
_cell_angle_beta 124.752191
_cell_angle_gamma 90.000000
_cell_volume 2595.407414
_symmetry_space_group_name_H-M "C 2/C"
_symmetry_group_IT_number 15
_symmetry_cell_setting 'monoclinic'
loop_
_space_group_symop_operation_xyz
x,y,z
-x,y,1/2-z
-x,-y,-z
x,-y,1/2+z
1/2+x,1/2+y,z
1/2-x,1/2+y,1/2-z
1/2-x,1/2-y,-z
1/2+x,1/2-y,1/2+z
loop_
_atom_site_type_symbol
_atom_site_label
_atom_site_fract_x
_atom_site_fract_y
_atom_site_fract_z
Si Si1 0.260758 0.543703 0.264894
Si Si2 0.972834 0.593756 0.074274
Si Si3 0.961192 0.073912 0.033486
Si Si4 0.500000 0.063633 0.750000
Si Si5 0.850229 0.186049 0.478968
Si Si6 0.362408 0.710638 0.649971
Si Si7 0.916143 0.579682 0.556156
Si Si8 0.500000 0.564998 0.750000
O O1 0.137974 0.597483 0.179890
O O2 0.395590 0.584199 0.358459
O O3 0.369459 0.487641 0.248977
O O4 0.153853 0.490861 0.285634
O O5 0.807361 0.631481 0.055316
O O6 0.954377 0.506356 0.068169
O O7 0.006281 0.613778 0.995965
O O8 0.989309 0.138715 0.984688
O O9 0.781883 0.080009 0.011968
O O10 0.000000 0.000000 0.000000
O O11 0.474349 0.104378 0.660278
O O12 0.805185 0.243352 0.398097
O O13 0.896113 0.226060 0.572207
O O14 0.500000 0.741720 0.750000
O O15 0.385285 0.623605 0.667161
#
# Coordination Sequence:
#
# PCOD9268421 Si02
#       8
#     8   8   8   4   8   8   8   4
#     4  11  21  34  57  90 122 158 190 246 314 358
#     4  10  22  35  58  87 126 154 191 245 309 374
#     4  12  20  34  59  90 126 153 191 259 312 361
#     4  10  20  32  47  80 117 146 188 218 300 360
#     4  11  22  41  62  91 119 159 214 249 297 368
#     4   9  24  39  63  84 114 171 211 254 282 346
#     4  10  21  33  50  89 119 155 179 233 318 358
#     4  10  22  38  63  86 125 154 210 240 290 374
#
# _framework density 21.576574999999998
#
# number of rings (size 3 to 8) (size 9 to 14) (size 15 to 20)
#    0.429    1.143    2.857    2.571    8.000    0.000 
#    0.000    0.000    0.000    5.143    0.000    0.000 
#    0.000    0.000    0.000    0.000    0.000    0.000 
#
# Total GULP energy -155950.581460 kJ/mol
# GULP energy per Si atom -5569.663624 kJ/mol
# Density = 2.152747 g / cm^3
# Si number density = 21.576575 Si / 1000 Ang^3
#
#
#
# Elastic Constant Matrix: (Units=GPa)
#
#
# Indices 1 2 3 4 5 6 
#
# 1 82.8585 -9.6302 13.2950 0.0000 4.2303 0.0000
# 2 -9.6302 31.1702 -7.0025 0.0000 -3.5086 0.0000
# 3 13.2950 -7.0025 120.5780 0.0000 -0.9817 0.0000
# 4 0.0000 0.0000 0.0000 12.7495 0.0000 5.3183
# 5 4.2303 -3.5086 -0.9817 0.0000 28.7933 0.0000
# 6 0.0000 0.0000 0.0000 5.3183 0.0000 20.6844
#
#
#
# Elastic Compliance Matrix: (Units=1/GPa)
#
#
# Indices 1 2 3 4 5 6 
#
# 1 0.012746 0.003498 -0.001214 0.000000 -0.001488 0.000000
# 2 0.003498 0.033939 0.001615 0.000000 0.003677 0.000000
# 3 -0.001214 0.001615 0.008527 0.000000 0.000666 0.000000
# 4 0.000000 0.000000 0.000000 0.087857 0.000000 -0.022589
# 5 -0.001488 0.003677 0.000666 0.000000 0.035420 0.000000
# 6 0.000000 0.000000 0.000000 -0.022589 0.000000 0.054154
#
#
# Mechanical properties :
#
#
# Convention : Reuss Voigt Hill
#
# Bulk Modulus (GPa) = 15.87070 25.32570 20.59820
# Shear Modulus (GPa) = 20.33774 28.30839 24.32306
#
# Velocity S-wave (km/s) = 3.07348 3.62608 3.36116
# Velocity P-wave (km/s) = 4.46840 5.41242 4.96291
#
# Compressibility (1/GPa) = 0.06300917
#
# Stress axis : x y z
#
# Youngs Moduli (GPa) = 78.45533 29.46431 117.28122
#
# Poissons Ratio (x) = -0.10306 0.14242
# Poissons Ratio (y) = -0.27441 -0.18944
# Poissons Ratio (z) = 0.09527 -0.04759
#
# Static dielectric constant tensor:
#      x y z
#    x 1.947430 0.000000 -0.054270 
#    y 0.000000 1.874740 0.000000 
#    z -0.054270 0.000000 1.903040 
# 
# From -- ./inp_files/192267.got.cif
#   From: 2010.05.17/outbox.cif.g08.bks.cpg/sg15_97_cif.got.tgz:192267.got - 2010.06.03 18:47:42.
