data_PCOD9268933
_publ_section_title
;
Structure prediction by ZEFSAII (Michael W. Deem and Ramdas Pophale) SiO2 
 PCOD9268933
Probable space group: C 2/C
;
_chemical_formula_sum "Si O2"
_cell_formula_units_Z 48
_cell_length_a 18.170596
_cell_length_b 17.058907
_cell_length_c 14.094587
_cell_angle_alpha 90.000000
_cell_angle_beta 155.414328
_cell_angle_gamma 90.000000
_cell_volume 1817.698339
_symmetry_space_group_name_H-M "C 2/C"
_symmetry_group_IT_number 15
_symmetry_cell_setting 'monoclinic'
loop_
_space_group_symop_operation_xyz
x,y,z
-x,y,1/2-z
-x,-y,-z
x,-y,1/2+z
1/2+x,1/2+y,z
1/2-x,1/2+y,1/2-z
1/2-x,1/2-y,-z
1/2+x,1/2-y,1/2+z
loop_
_atom_site_type_symbol
_atom_site_label
_atom_site_fract_x
_atom_site_fract_y
_atom_site_fract_z
Si Si1 0.835072 0.130352 0.253178
Si Si2 0.500000 0.252198 0.250000
Si Si3 0.809338 0.411719 0.124158
Si Si4 0.185305 0.865881 0.340430
Si Si5 0.981444 0.260311 0.113172
Si Si6 0.000000 0.006080 0.750000
Si Si7 0.365209 0.005192 0.929471
O O1 0.004301 0.182998 0.433207
O O2 0.772293 0.105829 0.074511
O O3 0.692188 0.193630 0.117760
O O4 0.801711 0.054295 0.275986
O O5 0.661484 0.192214 0.447115
O O6 0.519402 0.307708 0.177856
O O7 0.867424 0.326327 0.229405
O O8 0.985780 0.464407 0.327776
O O9 0.641991 0.454435 0.975662
O O10 0.127619 0.940129 0.336689
O O11 0.280923 0.913184 0.364973
O O12 0.000000 0.246186 0.250000
O O13 0.500000 0.000000 0.000000
#
# Coordination Sequence:
#
# PCOD9268933 Si02
#       7
#     8   4   8   8   8   4   8
#     4  10  20  33  56  86 113 152 196 238 280 336
#     4   9  20  38  64  91 108 140 210 273 300 334
#     4  10  20  33  56  91 115 153 193 239 287 341
#     4  10  20  36  60  88 113 145 195 260 310 342
#     4   9  18  29  50  84 121 140 182 234 277 335
#     4  11  20  30  64  91 114 144 198 255 298 344
#     4  11  23  40  57  82 126 161 190 239 309 371
#
# _framework density 26.407022000000001
#
# number of rings (size 3 to 8) (size 9 to 14) (size 15 to 20)
#    0.000    2.000    1.667    4.500    3.500    0.000 
#    0.000    4.167    0.000    0.000    0.000    0.000 
#    0.000    0.000    0.000    0.000    0.000    0.000 
#
# Total GULP energy -133624.348334 kJ/mol
# GULP energy per Si atom -5567.681181 kJ/mol
# Density = 2.634692 g / cm^3
# Si number density = 26.407022 Si / 1000 Ang^3
#
#
#
# Elastic Constant Matrix: (Units=GPa)
#
#
# Indices 1 2 3 4 5 6 
#
# 1 120.5512 69.3034 18.7188 0.0000 25.2486 0.0000
# 2 69.3034 186.0209 64.7463 0.0000 29.6067 0.0000
# 3 18.7188 64.7463 87.0790 0.0000 25.5561 0.0000
# 4 0.0000 0.0000 0.0000 61.4020 0.0000 39.4444
# 5 25.2486 29.6067 25.5561 0.0000 25.2254 0.0000
# 6 0.0000 0.0000 0.0000 39.4444 0.0000 24.6597
#
#
#
# Elastic Compliance Matrix: (Units=1/GPa)
#
#
# Indices 1 2 3 4 5 6 
#
# 1 0.012487 -0.004136 0.003749 0.000000 -0.011443 0.000000
# 2 -0.004136 0.008972 -0.005560 0.000000 -0.000758 0.000000
# 3 0.003749 -0.005560 0.019921 0.000000 -0.017410 0.000000
# 4 0.000000 0.000000 0.000000 -0.591345 0.000000 0.945883
# 5 -0.011443 -0.000758 -0.017410 0.000000 0.069624 0.000000
# 6 0.000000 0.000000 0.000000 0.945883 0.000000 -1.472430
#
#
# Mechanical properties :
#
#
# Convention : Reuss Voigt Hill
#
# Bulk Modulus (GPa) = 33.91193 77.68757 55.79975
# Shear Modulus (GPa) = -2.58927 38.31626 17.86350
#
# Velocity S-wave (km/s) = -0.99129 3.81332 2.60372
# Velocity P-wave (km/s) = 3.39995 6.99083 5.49688
#
# Compressibility (1/GPa) = 0.02948815
#
# Stress axis : x y z
#
# Youngs Moduli (GPa) = 80.08041 111.45232 50.19797
#
# Poissons Ratio (x) = 0.46097 -0.18820
# Poissons Ratio (y) = 0.33121 0.27908
# Poissons Ratio (z) = -0.30024 0.61964
#
# Static dielectric constant tensor:
#      x y z
#    x 1.717290 0.000000 0.483640 
#    y 0.000000 2.096780 0.000000 
#    z 0.483640 0.000000 1.789270 
# 
# From -- ./inp_files/211638.got.cif
#   From: 2010.05.17/outbox.cif.g08.bks.cpg/sg15_106_cif.got.tgz:211638.got - 2010.06.03 18:47:42.
