data_PCOD9268045
_publ_section_title
;
Structure prediction by ZEFSAII (Michael W. Deem and Ramdas Pophale) SiO2 
 PCOD9268045
Probable space group: C 2/C
;
_chemical_formula_sum "Si O2"
_cell_formula_units_Z 64
_cell_length_a 18.129910
_cell_length_b 12.933818
_cell_length_c 15.062821
_cell_angle_alpha 90.000000
_cell_angle_beta 68.768377
_cell_angle_gamma 90.000000
_cell_volume 3292.322965
_symmetry_space_group_name_H-M "C 2/C"
_symmetry_group_IT_number 15
_symmetry_cell_setting 'monoclinic'
loop_
_space_group_symop_operation_xyz
x,y,z
-x,y,1/2-z
-x,-y,-z
x,-y,1/2+z
1/2+x,1/2+y,z
1/2-x,1/2+y,1/2-z
1/2-x,1/2-y,-z
1/2+x,1/2-y,1/2+z
loop_
_atom_site_type_symbol
_atom_site_label
_atom_site_fract_x
_atom_site_fract_y
_atom_site_fract_z
Si Si1 0.266761 0.985015 0.319814
Si Si2 0.362337 0.495580 0.977129
Si Si3 0.243439 0.732332 0.610296
Si Si4 0.425588 0.056293 0.985925
Si Si5 0.040833 0.187385 0.637101
Si Si6 0.088517 0.403836 0.671079
Si Si7 0.250189 0.452565 0.861174
Si Si8 0.577260 0.286561 0.473786
O O1 0.191033 0.015191 0.412417
O O2 0.338822 0.066209 0.296853
O O3 0.239968 0.978889 0.229824
O O4 0.296329 0.874351 0.345105
O O5 0.414501 0.589806 0.922145
O O6 0.297240 0.483349 0.928311
O O7 0.416156 0.392763 0.971835
O O8 0.250000 0.750000 0.500000
O O9 0.215923 0.836608 0.668528
O O10 0.333584 0.719417 0.600668
O O11 0.343398 0.050762 0.076449
O O12 0.439963 0.179407 0.966540
O O13 0.500000 0.000000 0.000000
O O14 0.410323 0.990200 0.905145
O O15 0.095396 0.288201 0.629322
O O16 0.000000 0.164542 0.750000
O O17 0.978220 0.213680 0.587449
O O18 0.000000 0.406572 0.750000
#
# Coordination Sequence:
#
# PCOD9268045 Si02
#       8
#     8   8   8   8   8   8   8   8
#     4  11  23  40  67  98 129 166 216 278 327 386
#     4  11  24  44  66  93 129 169 225 269 313 391
#     4  10  19  41  68  90 125 170 217 261 325 402
#     4  11  20  40  67  94 129 165 214 265 323 390
#     4  11  26  42  65  89 129 178 215 261 332 397
#     4  11  23  41  61  97 132 169 213 261 334 395
#     4  11  23  39  66  98 125 171 215 266 330 385
#     4  10  21  40  66  89 123 172 210 263 323 386
#
# _framework density 19.439162
#
# number of rings (size 3 to 8) (size 9 to 14) (size 15 to 20)
#    0.000    1.250    5.000    1.875    8.750    0.500 
#    2.250    0.625    0.000    0.000    0.000    0.000 
#    0.000    0.000    0.000    0.000    0.000    0.000 
#
# Total GULP energy -178356.921595 kJ/mol
# GULP energy per Si atom -5573.653800 kJ/mol
# Density = 1.939492 g / cm^3
# Si number density = 19.439162 Si / 1000 Ang^3
#
#
#
# Elastic Constant Matrix: (Units=GPa)
#
#
# Indices 1 2 3 4 5 6 
#
# 1 30.2947 3.7064 -9.1867 0.0000 6.7691 0.0000
# 2 3.7064 99.0247 37.5591 0.0000 -11.2370 0.0000
# 3 -9.1867 37.5591 85.4008 0.0000 9.3811 0.0000
# 4 0.0000 0.0000 0.0000 24.6670 0.0000 0.1931
# 5 6.7691 -11.2370 9.3811 0.0000 24.2050 0.0000
# 6 0.0000 0.0000 0.0000 0.1931 0.0000 29.3568
#
#
#
# Elastic Compliance Matrix: (Units=1/GPa)
#
#
# Indices 1 2 3 4 5 6 
#
# 1 0.040994 -0.007314 0.009670 0.000000 -0.018608 0.000000
# 2 -0.007314 0.015132 -0.008813 0.000000 0.012486 0.000000
# 3 0.009670 -0.008813 0.018145 0.000000 -0.013828 0.000000
# 4 0.000000 0.000000 0.000000 0.040542 0.000000 -0.000267
# 5 -0.018608 0.012486 -0.013828 0.000000 0.057674 0.000000
# 6 0.000000 0.000000 0.000000 -0.000267 0.000000 0.034065
#
#
# Mechanical properties :
#
#
# Convention : Reuss Voigt Hill
#
# Bulk Modulus (GPa) = 16.29794 30.98644 23.64219
# Shear Modulus (GPa) = 20.84046 27.82185 24.33115
#
# Velocity S-wave (km/s) = 3.27783 3.78726 3.54171
# Velocity P-wave (km/s) = 4.76737 5.92446 5.37713
#
# Compressibility (1/GPa) = 0.06135744
#
# Stress axis : x y z
#
# Youngs Moduli (GPa) = 24.39374 66.08543 55.11204
#
# Poissons Ratio (x) = 0.48334 -0.53296
# Poissons Ratio (y) = 0.17841 0.48572
# Poissons Ratio (z) = -0.23590 0.58243
#
# Static dielectric constant tensor:
#      x y z
#    x 1.739110 0.000000 0.011060 
#    y 0.000000 1.753900 0.000000 
#    z 0.011060 0.000000 1.684130 
# 
# From -- ./inp_files/167628.got.cif
#   From: 2010.05.17/outbox.cif.g08.bks.cpg/sg15_84_cif.got.tgz:167628.got - 2010.06.03 18:47:42.
