data_PCOD9268107
_publ_section_title
;
Structure prediction by ZEFSAII (Michael W. Deem and Ramdas Pophale) SiO2 
 PCOD9268107
Probable space group: C 2/C
;
_chemical_formula_sum "Si O2"
_cell_formula_units_Z 56
_cell_length_a 15.535627
_cell_length_b 10.644850
_cell_length_c 21.297066
_cell_angle_alpha 90.000000
_cell_angle_beta 44.670010
_cell_angle_gamma 90.000000
_cell_volume 2476.038357
_symmetry_space_group_name_H-M "C 2/C"
_symmetry_group_IT_number 15
_symmetry_cell_setting 'monoclinic'
loop_
_space_group_symop_operation_xyz
x,y,z
-x,y,1/2-z
-x,-y,-z
x,-y,1/2+z
1/2+x,1/2+y,z
1/2-x,1/2+y,1/2-z
1/2-x,1/2-y,-z
1/2+x,1/2-y,1/2+z
loop_
_atom_site_type_symbol
_atom_site_label
_atom_site_fract_x
_atom_site_fract_y
_atom_site_fract_z
Si Si1 0.901256 0.446780 0.667699
Si Si2 0.119871 0.768290 0.410372
Si Si3 0.784453 0.078521 0.815973
Si Si4 0.448635 0.512372 0.122821
Si Si5 0.367338 0.065641 0.002974
Si Si6 0.722018 0.580117 0.959486
Si Si7 0.728964 0.868971 0.654988
O O1 0.845893 0.319908 0.665481
O O2 0.820940 0.561012 0.682549
O O3 0.885736 0.430928 0.749056
O O4 0.035718 0.464166 0.571029
O O5 0.043056 0.882888 0.422137
O O6 0.066030 0.670257 0.488899
O O7 0.227465 0.832795 0.394792
O O8 0.901344 0.026474 0.716739
O O9 0.736467 0.994295 0.898662
O O10 0.791064 0.220722 0.835754
O O11 0.580015 0.576764 0.053704
O O12 0.345758 0.592975 0.138780
O O13 0.307165 0.120024 0.971919
O O14 0.753897 0.439688 0.919427
#
# Coordination Sequence:
#
# PCOD9268107 Si02
#       7
#     8   8   8   8   8   8   8
#     4  10  22  38  65  90 117 157 211 244 293 353
#     4  10  19  42  65  85 117 159 206 249 280 354
#     4  10  21  39  64  88 118 159 207 249 289 353
#     4  10  22  38  65  90 117 157 211 244 293 353
#     4  11  25  39  60  94 127 157 192 247 313 358
#     4  11  25  39  60  94 127 157 192 247 313 358
#     4  10  21  39  64  88 118 159 207 249 289 353
#
# _framework density 22.616772999999998
#
# number of rings (size 3 to 8) (size 9 to 14) (size 15 to 20)
#    0.000    1.714    1.429    3.857    8.000    1.714 
#    0.000    1.429    0.000    6.857    0.000    0.000 
#    0.000    0.000    0.000    0.000    0.000    0.000 
#
# Total GULP energy -156317.447060 kJ/mol
# GULP energy per Si atom -5582.765966 kJ/mol
# Density = 2.256530 g / cm^3
# Si number density = 22.616773 Si / 1000 Ang^3
#
#
#
# Elastic Constant Matrix: (Units=GPa)
#
#
# Indices 1 2 3 4 5 6 
#
# 1 52.8217 -4.4319 19.4195 0.0000 1.2642 0.0000
# 2 -4.4319 79.2998 26.5719 0.0000 -1.9783 0.0000
# 3 19.4195 26.5719 109.2771 0.0000 10.2367 0.0000
# 4 0.0000 0.0000 0.0000 25.6926 0.0000 3.6491
# 5 1.2642 -1.9783 10.2367 0.0000 8.0446 0.0000
# 6 0.0000 0.0000 0.0000 3.6491 0.0000 12.4744
#
#
#
# Elastic Compliance Matrix: (Units=1/GPa)
#
#
# Indices 1 2 3 4 5 6 
#
# 1 0.020817 0.002825 -0.004706 0.000000 0.003412 0.000000
# 2 0.002825 0.014665 -0.004955 0.000000 0.009467 0.000000
# 3 -0.004706 -0.004955 0.012758 0.000000 -0.016713 0.000000
# 4 0.000000 0.000000 0.000000 0.040609 0.000000 -0.011879
# 5 0.003412 0.009467 -0.016713 0.000000 0.147366 0.000000
# 6 0.000000 0.000000 0.000000 -0.011879 0.000000 0.083639
#
#
# Mechanical properties :
#
#
# Convention : Reuss Voigt Hill
#
# Bulk Modulus (GPa) = 28.92781 36.05752 32.49267
# Shear Modulus (GPa) = 14.49074 22.56492 18.52783
#
# Velocity S-wave (km/s) = 2.53397 3.16208 2.86528
# Velocity P-wave (km/s) = 4.62380 5.41379 5.03431
#
# Compressibility (1/GPa) = 0.03456881
#
# Stress axis : x y z
#
# Youngs Moduli (GPa) = 48.03724 68.19084 78.38337
#
# Poissons Ratio (x) = -0.19267 0.36888
# Poissons Ratio (y) = -0.13573 0.38838
# Poissons Ratio (z) = 0.22607 0.33788
#
# Static dielectric constant tensor:
#      x y z
#    x 1.819450 0.000000 0.002530 
#    y 0.000000 1.907550 0.000000 
#    z 0.002530 0.000000 1.859600 
# 
# From -- ./inp_files/277037.got.cif
#   From: 2010.05.17/outbox.cif.g08.bks.cpg/sg15_139_cif.got.tgz:277037.got - 2010.06.03 18:47:42.
