data_PCOD9268223
_publ_section_title
;
Structure prediction by ZEFSAII (Michael W. Deem and Ramdas Pophale) SiO2 
 PCOD9268223
Probable space group: C 2/C
;
_chemical_formula_sum "Si O2"
_cell_formula_units_Z 40
_cell_length_a 9.489961
_cell_length_b 11.340764
_cell_length_c 15.985409
_cell_angle_alpha 90.000000
_cell_angle_beta 88.238589
_cell_angle_gamma 90.000000
_cell_volume 1719.591286
_symmetry_space_group_name_H-M "C 2/C"
_symmetry_group_IT_number 15
_symmetry_cell_setting 'monoclinic'
loop_
_space_group_symop_operation_xyz
x,y,z
-x,y,1/2-z
-x,-y,-z
x,-y,1/2+z
1/2+x,1/2+y,z
1/2-x,1/2+y,1/2-z
1/2-x,1/2-y,-z
1/2+x,1/2-y,1/2+z
loop_
_atom_site_type_symbol
_atom_site_label
_atom_site_fract_x
_atom_site_fract_y
_atom_site_fract_z
Si Si1 0.640720 0.709587 0.573688
Si Si2 0.911042 0.526992 0.420840
Si Si3 0.000000 0.547322 0.250000
Si Si4 0.500000 0.359031 0.750000
Si Si5 0.283867 0.259490 0.243655
Si Si6 0.100177 0.045976 0.885887
O O1 0.750000 0.750000 0.500000
O O2 0.564009 0.833486 0.590373
O O3 0.712429 0.686284 0.662492
O O4 0.527029 0.606665 0.559297
O O5 0.745405 0.493542 0.428513
O O6 0.000000 0.500000 0.500000
O O7 0.972405 0.474195 0.334104
O O8 0.132603 0.635038 0.257794
O O9 0.370938 0.277849 0.778209
O O10 0.545856 0.439841 0.828122
O O11 0.355185 0.351095 0.180098
#
# Coordination Sequence:
#
# PCOD9268223 Si02
#       6
#     8   8   4   4   8   8
#     4  11  24  43  66 103 145 180 242 305 353 431
#     4  11  26  45  70 108 142 194 243 292 371 433
#     4  10  19  47  70  94 148 184 233 307 344 436
#     4  12  23  41  78 106 130 186 247 285 364 428
#     4  11  22  44  72 103 137 186 247 288 358 445
#     4  12  23  47  75  97 145 193 231 304 365 423
#
# _framework density 23.261341000000002
#
# number of rings (size 3 to 8) (size 9 to 14) (size 15 to 20)
#    0.000    0.800   10.000    0.000    0.000    7.200 
#    3.600    0.000    0.000    0.000    0.000    0.000 
#    0.000    0.000    0.000    0.000    0.000    0.000 
#
# Total GULP energy -111794.214476 kJ/mol
# GULP energy per Si atom -5589.710724 kJ/mol
# Density = 2.320840 g / cm^3
# Si number density = 23.261341 Si / 1000 Ang^3
#
#
#
# Elastic Constant Matrix: (Units=GPa)
#
#
# Indices 1 2 3 4 5 6 
#
# 1 159.3419 39.0128 78.8230 0.0000 9.1972 0.0000
# 2 39.0128 84.1917 30.9216 0.0000 11.0791 0.0000
# 3 78.8230 30.9216 125.4301 0.0000 -6.5801 0.0000
# 4 0.0000 0.0000 0.0000 11.5363 0.0000 0.9257
# 5 9.1972 11.0791 -6.5801 0.0000 49.3435 0.0000
# 6 0.0000 0.0000 0.0000 0.9257 0.0000 49.5611
#
#
#
# Elastic Compliance Matrix: (Units=1/GPa)
#
#
# Indices 1 2 3 4 5 6 
#
# 1 0.009744 -0.002144 -0.005704 0.000000 -0.002095 0.000000
# 2 -0.002144 0.014119 -0.002295 0.000000 -0.003076 0.000000
# 3 -0.005704 -0.002295 0.012292 0.000000 0.003218 0.000000
# 4 0.000000 0.000000 0.000000 0.086813 0.000000 -0.001622
# 5 -0.002095 -0.003076 0.003218 0.000000 0.021776 0.000000
# 6 0.000000 0.000000 0.000000 -0.001622 0.000000 0.020207
#
#
# Mechanical properties :
#
#
# Convention : Reuss Voigt Hill
#
# Bulk Modulus (GPa) = 63.02038 74.05316 68.53677
# Shear Modulus (GPa) = 26.24300 36.76860 31.50580
#
# Velocity S-wave (km/s) = 3.36248 3.98008 3.68425
# Velocity P-wave (km/s) = 6.49817 7.28188 6.90116
#
# Compressibility (1/GPa) = 0.01586788
#
# Stress axis : x y z
#
# Youngs Moduli (GPa) = 102.63177 70.82756 81.35494
#
# Poissons Ratio (x) = 0.15186 0.46408
# Poissons Ratio (y) = 0.22006 0.18668
# Poissons Ratio (z) = 0.58545 0.16252
#
# Static dielectric constant tensor:
#      x y z
#    x 1.830590 0.000000 -0.015480 
#    y 0.000000 1.909290 0.000000 
#    z -0.015480 0.000000 2.057050 
# 
# From -- ./inp_files/187939.got.cif
#   From: 2010.05.17/outbox.cif.g08.bks.cpg/sg15_94_cif.got.tgz:187939.got - 2010.06.03 18:47:42.
