data_PCOD9268245
_publ_section_title
;
Structure prediction by ZEFSAII (Michael W. Deem and Ramdas Pophale) SiO2 
 PCOD9268245
Probable space group: C 2/C
;
_chemical_formula_sum "Si O2"
_cell_formula_units_Z 44
_cell_length_a 24.362394
_cell_length_b 14.296891
_cell_length_c 18.251684
_cell_angle_alpha 90.000000
_cell_angle_beta 21.474870
_cell_angle_gamma 90.000000
_cell_volume 2327.319799
_symmetry_space_group_name_H-M "C 2/C"
_symmetry_group_IT_number 15
_symmetry_cell_setting 'monoclinic'
loop_
_space_group_symop_operation_xyz
x,y,z
-x,y,1/2-z
-x,-y,-z
x,-y,1/2+z
1/2+x,1/2+y,z
1/2-x,1/2+y,1/2-z
1/2-x,1/2-y,-z
1/2+x,1/2-y,1/2+z
loop_
_atom_site_type_symbol
_atom_site_label
_atom_site_fract_x
_atom_site_fract_y
_atom_site_fract_z
Si Si1 0.207682 0.828155 0.464036
Si Si2 0.113683 0.441226 0.459073
Si Si3 0.000000 0.520436 0.250000
Si Si4 0.470284 0.140330 0.989800
Si Si5 0.407568 0.354036 0.051839
Si Si6 0.722562 0.619589 0.104883
O O1 0.147100 0.868777 0.463973
O O2 0.192082 0.716235 0.482347
O O3 0.153938 0.865550 0.608511
O O4 0.385451 0.847840 0.241586
O O5 0.117916 0.551299 0.431961
O O6 0.283709 0.405132 0.254561
O O7 0.015431 0.426144 0.653988
O O8 0.032428 0.388452 0.492518
O O9 0.847308 0.459624 0.443611
O O10 0.398520 0.242869 0.079650
O O11 0.580937 0.386723 0.835872
#
# Coordination Sequence:
#
# PCOD9268245 Si02
#       6
#     8   8   4   8   8   8
#     4   9  17  30  53  84 113 136 167 224 294 343
#     4  10  21  36  58  78 111 151 185 225 280 324
#     4  12  22  36  52  80 116 152 188 228 266 334
#     4   9  18  37  56  83 112 148 183 223 277 341
#     4  10  20  35  56  83 110 143 187 230 274 330
#     4  10  20  29  51  83 114 139 172 225 287 337
#
# _framework density 18.905867000000001
#
# number of rings (size 3 to 8) (size 9 to 14) (size 15 to 20)
#    0.000    2.182    1.818    1.636    5.091    0.727 
#    0.000    0.909    0.000    0.000    0.000    0.000 
#    0.000    0.000    0.000    0.000    0.000    0.000 
#
# Total GULP energy -122641.350172 kJ/mol
# GULP energy per Si atom -5574.606826 kJ/mol
# Density = 1.886284 g / cm^3
# Si number density = 18.905867 Si / 1000 Ang^3
#
#
#
# Elastic Constant Matrix: (Units=GPa)
#
#
# Indices 1 2 3 4 5 6 
#
# 1 53.8615 3.3447 21.7482 -0.0001 18.2845 0.0001
# 2 3.3447 69.3897 53.6838 -0.0002 3.6135 0.0002
# 3 21.7482 53.6838 121.8731 -0.0003 14.0938 0.0003
# 4 -0.0001 -0.0002 -0.0003 30.5488 0.0002 2.0963
# 5 18.2845 3.6135 14.0938 0.0002 30.1408 -0.0002
# 6 0.0001 0.0002 0.0003 2.0963 -0.0002 18.2757
#
#
#
# Elastic Compliance Matrix: (Units=1/GPa)
#
#
# Indices 1 2 3 4 5 6 
#
# 1 0.024539 0.002588 -0.003977 0.000000 -0.013337 0.000000
# 2 0.002588 0.022248 -0.010330 0.000000 0.000593 0.000000
# 3 -0.003977 -0.010330 0.013789 0.000000 -0.002797 0.000000
# 4 0.000000 0.000000 0.000000 0.032994 0.000000 -0.003785
# 5 -0.013337 0.000593 -0.002797 0.000000 0.042505 0.000001
# 6 0.000000 0.000000 0.000000 -0.003785 0.000001 0.055152
#
#
# Mechanical properties :
#
#
# Convention : Reuss Voigt Hill
#
# Bulk Modulus (GPa) = 26.92680 44.74197 35.83439
# Shear Modulus (GPa) = 22.02224 26.88289 24.45256
#
# Velocity S-wave (km/s) = 3.41667 3.77494 3.60027
# Velocity P-wave (km/s) = 5.46245 6.53585 6.02311
#
# Compressibility (1/GPa) = 0.03713772
#
# Stress axis : x y z
#
# Youngs Moduli (GPa) = 40.75201 44.94797 72.52265
#
# Poissons Ratio (x) = -0.11634 0.28840
# Poissons Ratio (y) = -0.10548 0.74919
# Poissons Ratio (z) = 0.16206 0.46433
#
# Static dielectric constant tensor:
#      x y z
#    x 1.736430 0.000000 -0.033360 
#    y 0.000000 1.671610 0.000000 
#    z -0.033360 0.000000 1.677740 
# 
# From -- ./inp_files/95679.got.cif
#   From: 2010.05.17/outbox.cif.g08.bks.cpg/sg15_48_cif.got.tgz:95679.got - 2010.06.03 18:47:42.
