data_PCOD9268849
_publ_section_title
;
Structure prediction by ZEFSAII (Michael W. Deem and Ramdas Pophale) SiO2 
 PCOD9268849
Probable space group: C 2/C
;
_chemical_formula_sum "Si O2"
_cell_formula_units_Z 56
_cell_length_a 16.860991
_cell_length_b 25.667988
_cell_length_c 9.201052
_cell_angle_alpha 90.000000
_cell_angle_beta 54.351193
_cell_angle_gamma 90.000000
_cell_volume 3235.874576
_symmetry_space_group_name_H-M "C 2/C"
_symmetry_group_IT_number 15
_symmetry_cell_setting 'monoclinic'
loop_
_space_group_symop_operation_xyz
x,y,z
-x,y,1/2-z
-x,-y,-z
x,-y,1/2+z
1/2+x,1/2+y,z
1/2-x,1/2+y,1/2-z
1/2-x,1/2-y,-z
1/2+x,1/2-y,1/2+z
loop_
_atom_site_type_symbol
_atom_site_label
_atom_site_fract_x
_atom_site_fract_y
_atom_site_fract_z
Si Si1 0.119097 0.430292 0.121762
Si Si2 0.261283 0.207646 0.358415
Si Si3 0.604663 0.977800 0.836311
Si Si4 0.092530 0.229042 0.343002
Si Si5 0.176653 0.655646 0.762231
Si Si6 0.368667 0.716052 0.537117
Si Si7 0.107258 0.377593 0.634075
O O1 0.152376 0.473564 0.203278
O O2 0.158119 0.374673 0.132483
O O3 0.000000 0.427155 0.250000
O O4 0.149446 0.451088 0.931339
O O5 0.250000 0.250000 0.500000
O O6 0.156797 0.199917 0.394785
O O7 0.325943 0.232892 0.161142
O O8 0.315090 0.157976 0.365472
O O9 0.595753 0.932366 0.726874
O O10 0.500000 0.000000 0.000000
O O11 0.113880 0.290931 0.340819
O O12 0.980047 0.212554 0.469783
O O13 0.128958 0.219337 0.139740
O O14 0.289361 0.671950 0.660391
O O15 0.140846 0.619417 0.932004
O O16 0.000000 0.351914 0.750000
#
# Coordination Sequence:
#
# PCOD9268849 Si02
#       7
#     8   8   8   8   8   8   8
#     4  10  20  33  54  76 110 140 183 225 283 336
#     4  11  21  35  52  85 112 153 200 234 279 348
#     4  10  21  36  53  80 111 148 182 234 282 348
#     4  10  22  38  55  77 120 152 196 241 286 330
#     4  11  21  36  52  84 108 153 196 228 282 348
#     4  10  22  37  55  75 115 151 194 247 279 337
#     4  12  22  34  55  79 118 155 187 230 285 339
#
# _framework density 17.305986000000001
#
# number of rings (size 3 to 8) (size 9 to 14) (size 15 to 20)
#    0.000    1.429    2.857    6.429    6.000    0.000 
#    0.000    0.000    0.000    0.000    0.000    1.000 
#    0.000    0.000    0.000    0.000    0.000    0.000 
#
# Total GULP energy -156195.970352 kJ/mol
# GULP energy per Si atom -5578.427513 kJ/mol
# Density = 1.726660 g / cm^3
# Si number density = 17.305986 Si / 1000 Ang^3
#
#
#
# Elastic Constant Matrix: (Units=GPa)
#
#
# Indices 1 2 3 4 5 6 
#
# 1 117.1646 33.1578 33.7111 0.0000 -0.1890 0.0000
# 2 33.1578 72.7859 16.4032 0.0000 -0.7485 0.0000
# 3 33.7111 16.4032 75.0133 0.0000 -1.8321 0.0000
# 4 0.0000 0.0000 0.0000 31.7533 0.0000 16.7012
# 5 -0.1890 -0.7485 -1.8321 0.0000 22.1566 0.0000
# 6 0.0000 0.0000 0.0000 16.7012 0.0000 26.9724
#
#
#
# Elastic Compliance Matrix: (Units=1/GPa)
#
#
# Indices 1 2 3 4 5 6 
#
# 1 0.010825 -0.004036 -0.003991 0.000000 -0.000374 0.000000
# 2 -0.004036 0.015957 -0.001667 0.000000 0.000367 0.000000
# 3 -0.003991 -0.001667 0.015518 0.000000 0.001193 0.000000
# 4 0.000000 0.000000 0.000000 0.046703 0.000000 -0.028918
# 5 -0.000374 0.000367 0.001193 0.000000 0.045241 0.000000
# 6 0.000000 0.000000 0.000000 -0.028918 0.000000 0.054981
#
#
# Mechanical properties :
#
#
# Convention : Reuss Voigt Hill
#
# Bulk Modulus (GPa) = 43.64427 47.94532 45.79480
# Shear Modulus (GPa) = 23.12137 28.28924 25.70531
#
# Velocity S-wave (km/s) = 3.65914 4.04747 3.85819
# Velocity P-wave (km/s) = 6.56707 7.04324 6.80932
#
# Compressibility (1/GPa) = 0.02291251
#
# Stress axis : x y z
#
# Youngs Moduli (GPa) = 92.37948 62.66937 64.44012
#
# Poissons Ratio (x) = 0.25291 0.25721
# Poissons Ratio (y) = 0.37281 0.10740
# Poissons Ratio (z) = 0.36872 0.10445
#
# Static dielectric constant tensor:
#      x y z
#    x 1.610350 0.000000 0.025210 
#    y 0.000000 1.603770 0.000000 
#    z 0.025210 0.000000 1.612600 
# 
# From -- ./inp_files/51327.got.cif
#   From: 2010.05.17/outbox.cif.g08.bks.cpg/sg15_26_cif.got.tgz:51327.got - 2010.06.03 18:47:42.
