data_PCOD9268760
_publ_section_title
;
Structure prediction by ZEFSAII (Michael W. Deem and Ramdas Pophale) SiO2 
 PCOD9268760
Probable space group: C 2/C
;
_chemical_formula_sum "Si O2"
_cell_formula_units_Z 48
_cell_length_a 16.224395
_cell_length_b 29.842841
_cell_length_c 10.737689
_cell_angle_alpha 90.000000
_cell_angle_beta 147.763347
_cell_angle_gamma 90.000000
_cell_volume 2773.235486
_symmetry_space_group_name_H-M "C 2/C"
_symmetry_group_IT_number 15
_symmetry_cell_setting 'monoclinic'
loop_
_space_group_symop_operation_xyz
x,y,z
-x,y,1/2-z
-x,-y,-z
x,-y,1/2+z
1/2+x,1/2+y,z
1/2-x,1/2+y,1/2-z
1/2-x,1/2-y,-z
1/2+x,1/2-y,1/2+z
loop_
_atom_site_type_symbol
_atom_site_label
_atom_site_fract_x
_atom_site_fract_y
_atom_site_fract_z
Si Si1 0.612908 0.873163 0.004083
Si Si2 0.599710 0.430018 0.120741
Si Si3 0.000000 0.876533 0.750000
Si Si4 0.759877 0.691045 0.623758
Si Si5 0.546690 0.035670 0.165690
Si Si6 0.500000 0.760947 0.250000
Si Si7 0.125790 0.016834 0.006211
O O1 0.768674 0.897949 0.156011
O O2 0.665461 0.833788 0.162545
O O3 0.500000 0.857858 0.750000
O O4 0.522958 0.915194 0.953056
O O5 0.460873 0.443434 0.032954
O O6 0.537283 0.404893 0.919334
O O7 0.667161 0.477675 0.157288
O O8 0.848470 0.846181 0.580750
O O9 0.631258 0.729817 0.484159
O O10 0.897475 0.710290 0.714852
O O11 0.500000 0.025346 0.250000
O O12 0.730780 0.034230 0.388102
O O13 0.500000 0.000000 0.000000
O O14 0.000000 0.997494 0.750000
#
# Coordination Sequence:
#
# PCOD9268760 Si02
#       7
#     8   8   4   8   8   4   8
#     4  10  20  38  54  78 114 151 186 229 285 334
#     4  10  20  33  52  74 104 146 189 236 274 326
#     4   9  18  34  54  82 110 138 182 230 288 332
#     4   9  19  35  60  83 109 143 170 233 286 352
#     4  11  23  37  53  77 115 157 198 243 283 329
#     4   9  18  38  60  86 112 130 182 228 300 346
#     4  11  21  33  51  72 102 148 198 236 279 321
#
# _framework density 17.308302999999999
#
# number of rings (size 3 to 8) (size 9 to 14) (size 15 to 20)
#    0.000    2.000    2.500    2.000    2.333    1.333 
#    1.500    0.833    0.000    0.000    0.000    0.000 
#    0.000    0.000    0.000    0.000    0.000    0.000 
#
# Total GULP energy -133676.432052 kJ/mol
# GULP energy per Si atom -5569.851336 kJ/mol
# Density = 1.726891 g / cm^3
# Si number density = 17.308303 Si / 1000 Ang^3
#
#
#
# Elastic Constant Matrix: (Units=GPa)
#
#
# Indices 1 2 3 4 5 6 
#
# 1 128.7515 57.6709 59.7679 0.0000 23.6018 0.0000
# 2 57.6709 91.3205 58.3076 0.0000 3.5358 0.0000
# 3 59.7679 58.3076 126.4389 0.0000 4.7079 0.0000
# 4 0.0000 0.0000 0.0000 3.2263 0.0000 -4.6982
# 5 23.6018 3.5358 4.7079 0.0000 32.1243 0.0000
# 6 0.0000 0.0000 0.0000 -4.6982 0.0000 23.1417
#
#
#
# Elastic Compliance Matrix: (Units=1/GPa)
#
#
# Indices 1 2 3 4 5 6 
#
# 1 0.013707 -0.006217 -0.003281 0.000000 -0.008906 0.000000
# 2 -0.006217 0.018354 -0.005651 0.000000 0.003375 0.000000
# 3 -0.003281 -0.005651 0.012018 0.000000 0.001271 0.000000
# 4 0.000000 0.000000 0.000000 0.440045 0.000000 0.089338
# 5 -0.008906 0.003375 0.001271 0.000000 0.037114 0.000000
# 6 0.000000 0.000000 0.000000 0.089338 0.000000 0.061349
#
#
# Mechanical properties :
#
#
# Convention : Reuss Voigt Hill
#
# Bulk Modulus (GPa) = 72.55703 77.55597 75.05650
# Shear Modulus (GPa) = 8.09744 23.08276 15.59010
#
# Velocity S-wave (km/s) = 2.16530 3.65584 3.00447
# Velocity P-wave (km/s) = 6.94714 7.91998 7.44946
#
# Compressibility (1/GPa) = 0.01378226
#
# Stress axis : x y z
#
# Youngs Moduli (GPa) = 72.95538 54.48464 83.20508
#
# Poissons Ratio (x) = 0.33871 0.27299
# Poissons Ratio (y) = 0.45353 0.47019
# Poissons Ratio (z) = 0.23936 0.30789
#
# Static dielectric constant tensor:
#      x y z
#    x 1.569320 0.000000 0.005390 
#    y 0.000000 1.598720 0.000000 
#    z 0.005390 0.000000 1.653540 
# 
# From -- ./inp_files/108518.got.cif
#   From: 2010.05.17/outbox.cif.g08.bks.cpg/sg15_55_cif.got.tgz:108518.got - 2010.06.03 18:47:42.
