data_PCOD9268833
_publ_section_title
;
Structure prediction by ZEFSAII (Michael W. Deem and Ramdas Pophale) SiO2 
 PCOD9268833
Probable space group: C 2/C
;
_chemical_formula_sum "Si O2"
_cell_formula_units_Z 64
_cell_length_a 8.208010
_cell_length_b 13.677554
_cell_length_c 27.680699
_cell_angle_alpha 90.000000
_cell_angle_beta 89.750774
_cell_angle_gamma 90.000000
_cell_volume 3107.558115
_symmetry_space_group_name_H-M "C 2/C"
_symmetry_group_IT_number 15
_symmetry_cell_setting 'monoclinic'
loop_
_space_group_symop_operation_xyz
x,y,z
-x,y,1/2-z
-x,-y,-z
x,-y,1/2+z
1/2+x,1/2+y,z
1/2-x,1/2+y,1/2-z
1/2-x,1/2-y,-z
1/2+x,1/2-y,1/2+z
loop_
_atom_site_type_symbol
_atom_site_label
_atom_site_fract_x
_atom_site_fract_y
_atom_site_fract_z
Si Si1 0.149617 0.325568 0.925108
Si Si2 0.196239 0.852453 0.360222
Si Si3 0.794437 0.653052 0.470322
Si Si4 0.892497 0.878552 0.294934
Si Si5 0.217068 0.925067 0.667645
Si Si6 0.341854 0.510957 0.467563
Si Si7 0.080388 0.050221 0.390072
Si Si8 0.679177 0.253546 0.730126
O O1 0.202268 0.218352 0.906685
O O2 0.169487 0.391745 0.876708
O O3 0.268749 0.380482 0.962690
O O4 0.969744 0.330733 0.946358
O O5 0.315563 0.815175 0.318008
O O6 0.019076 0.841686 0.334883
O O7 0.205377 0.966687 0.373385
O O8 0.750000 0.750000 0.500000
O O9 0.785747 0.564110 0.509326
O O10 0.667322 0.623034 0.427541
O O11 0.789348 0.794022 0.271024
O O12 0.000000 0.921160 0.250000
O O13 0.781189 0.963259 0.316817
O O14 0.252900 0.855451 0.712317
O O15 0.026952 0.901951 0.652118
O O16 0.500000 0.500000 0.500000
O O17 0.429728 0.491750 0.416342
O O18 0.500000 0.264873 0.750000
#
# Coordination Sequence:
#
# PCOD9268833 Si02
#       8
#     8   8   8   8   8   8   8   8
#     4  10  20  36  57  83 110 140 184 231 274 324
#     4   9  19  37  57  78 107 146 184 221 272 330
#     4  11  22  36  56  83 111 141 181 232 281 323
#     4   9  18  35  57  78 109 147 182 225 275 326
#     4   9  19  37  57  77 108 149 185 219 269 333
#     4   9  19  38  57  78 108 144 181 220 272 332
#     4   9  19  38  59  78 106 146 184 220 274 336
#     4  10  20  33  53  83 110 139 182 226 270 322
#
# _framework density 20.594949
#
# number of rings (size 3 to 8) (size 9 to 14) (size 15 to 20)
#    0.000    2.500    0.000    1.500    0.000    2.000 
#    0.000   26.250    0.000    0.000    0.000    0.000 
#    0.000    0.000    0.000    0.000    0.000    0.000 
#
# Total GULP energy -178282.806514 kJ/mol
# GULP energy per Si atom -5571.337704 kJ/mol
# Density = 2.054807 g / cm^3
# Si number density = 20.594949 Si / 1000 Ang^3
#
#
#
# Elastic Constant Matrix: (Units=GPa)
#
#
# Indices 1 2 3 4 5 6 
#
# 1 61.2346 23.4771 36.6634 0.0000 -16.2240 0.0000
# 2 23.4771 81.8385 44.8578 0.0000 11.4606 0.0000
# 3 36.6634 44.8578 65.2025 0.0000 7.0257 0.0000
# 4 0.0000 0.0000 0.0000 45.0813 0.0000 3.6173
# 5 -16.2240 11.4606 7.0257 0.0000 37.8258 0.0000
# 6 0.0000 0.0000 0.0000 3.6173 0.0000 16.5168
#
#
#
# Elastic Compliance Matrix: (Units=1/GPa)
#
#
# Indices 1 2 3 4 5 6 
#
# 1 0.033819 -0.001264 -0.020155 0.000000 0.018632 0.000000
# 2 -0.001264 0.020130 -0.012677 0.000000 -0.004287 0.000000
# 3 -0.020155 -0.012677 0.036642 0.000000 -0.011610 0.000000
# 4 0.000000 0.000000 0.000000 0.022579 0.000000 -0.004945
# 5 0.018632 -0.004287 -0.011610 0.000000 0.037884 0.000000
# 6 0.000000 0.000000 0.000000 -0.004945 0.000000 0.061628
#
#
# Mechanical properties :
#
#
# Convention : Reuss Voigt Hill
#
# Bulk Modulus (GPa) = 44.64033 46.47468 45.55751
# Shear Modulus (GPa) = 17.34070 26.76993 22.05532
#
# Velocity S-wave (km/s) = 2.90485 3.60923 3.27602
# Velocity P-wave (km/s) = 5.74224 6.32327 6.03975
#
# Compressibility (1/GPa) = 0.02240127
#
# Stress axis : x y z
#
# Youngs Moduli (GPa) = 29.56930 49.67587 27.29092
#
# Poissons Ratio (x) = 0.06277 0.55004
# Poissons Ratio (y) = 0.03736 0.34597
# Poissons Ratio (z) = 0.59596 0.62974
#
# Static dielectric constant tensor:
#      x y z
#    x 1.743850 0.000000 0.036410 
#    y 0.000000 1.776200 0.000000 
#    z 0.036410 0.000000 1.863470 
# 
# From -- ./inp_files/307493.got.cif
#   From: 2010.05.17/outbox.cif.g08.bks.cpg/sg15_154_cif.got.tgz:307493.got - 2010.06.03 18:47:42.
