data_PCOD9268529
_publ_section_title
;
Structure prediction by ZEFSAII (Michael W. Deem and Ramdas Pophale) SiO2 
 PCOD9268529
Probable space group: C 2/C
;
_chemical_formula_sum "Si O2"
_cell_formula_units_Z 28
_cell_length_a 15.706046
_cell_length_b 15.059061
_cell_length_c 9.608866
_cell_angle_alpha 90.000000
_cell_angle_beta 151.754594
_cell_angle_gamma 90.000000
_cell_volume 1075.540162
_symmetry_space_group_name_H-M "C 2/C"
_symmetry_group_IT_number 15
_symmetry_cell_setting 'monoclinic'
loop_
_space_group_symop_operation_xyz
x,y,z
-x,y,1/2-z
-x,-y,-z
x,-y,1/2+z
1/2+x,1/2+y,z
1/2-x,1/2+y,1/2-z
1/2-x,1/2-y,-z
1/2+x,1/2-y,1/2+z
loop_
_atom_site_type_symbol
_atom_site_label
_atom_site_fract_x
_atom_site_fract_y
_atom_site_fract_z
Si Si1 0.881931 0.824280 0.358762
Si Si2 0.627924 0.008927 0.815150
Si Si3 0.500000 0.528677 0.250000
Si Si4 0.500000 0.748426 0.750000
Si Si5 0.000000 0.679629 0.750000
O O1 0.998546 0.809937 0.388160
O O2 0.920087 0.910349 0.509043
O O3 0.925351 0.741580 0.522650
O O4 0.678653 0.807932 0.016082
O O5 0.500000 0.971397 0.750000
O O6 0.643876 0.112395 0.887144
O O7 0.500000 0.000000 0.500000
O O8 0.827192 0.978254 0.064148
#
# Coordination Sequence:
#
# PCOD9268529 Si02
#       5
#     8   8   4   4   4
#     4  10  20  38  64 100 131 165 203 256 343 378
#     4  10  24  45  64  95 123 172 226 261 310 377
#     4  11  22  44  73  88 131 181 200 264 336 389
#     4  10  20  32  54 104 140 150 206 258 302 404
#     4   9  20  42  63  90 133 173 206 262 320 395
#
# _framework density 26.033431
#
# number of rings (size 3 to 8) (size 9 to 14) (size 15 to 20)
#    0.857    1.143    0.000    3.429    0.000    5.714 
#   15.429    1.429    0.000    0.000    0.000    0.000 
#    0.000    0.000    0.000    0.000    0.000    0.000 
#
# Total GULP energy -78383.346040 kJ/mol
# GULP energy per Si atom -5598.810431 kJ/mol
# Density = 2.597418 g / cm^3
# Si number density = 26.033431 Si / 1000 Ang^3
#
#
#
# Elastic Constant Matrix: (Units=GPa)
#
#
# Indices 1 2 3 4 5 6 
#
# 1 227.8917 38.7063 90.5568 0.0000 1.2730 0.0000
# 2 38.7063 86.6862 22.3323 0.0000 1.6339 0.0000
# 3 90.5568 22.3323 122.0184 0.0000 11.6736 0.0000
# 4 0.0000 0.0000 0.0000 28.2295 0.0000 5.2106
# 5 1.2730 1.6339 11.6736 0.0000 72.0847 0.0000
# 6 0.0000 0.0000 0.0000 5.2106 0.0000 5.9929
#
#
#
# Elastic Compliance Matrix: (Units=1/GPa)
#
#
# Indices 1 2 3 4 5 6 
#
# 1 0.006493 -0.001736 -0.004565 0.000000 0.000664 0.000000
# 2 -0.001736 0.012571 -0.001004 0.000000 -0.000092 0.000000
# 3 -0.004565 -0.001004 0.011942 0.000000 -0.001831 0.000000
# 4 0.000000 0.000000 0.000000 0.042196 0.000000 -0.036687
# 5 0.000664 -0.000092 -0.001831 0.000000 0.014159 0.000000
# 6 0.000000 0.000000 0.000000 -0.036687 0.000000 0.198762
#
#
# Mechanical properties :
#
#
# Convention : Reuss Voigt Hill
#
# Bulk Modulus (GPa) = 60.98403 82.19856 71.59130
# Shear Modulus (GPa) = 16.32931 40.26148 28.29540
#
# Velocity S-wave (km/s) = 2.50720 3.93686 3.30037
# Velocity P-wave (km/s) = 5.64425 7.23242 6.48712
#
# Compressibility (1/GPa) = 0.01639773
#
# Stress axis : x y z
#
# Youngs Moduli (GPa) = 154.01217 79.54669 83.73787
#
# Poissons Ratio (x) = 0.13807 0.38223
# Poissons Ratio (y) = 0.26733 0.08406
# Poissons Ratio (z) = 0.70301 0.07985
#
# Static dielectric constant tensor:
#      x y z
#    x 2.018690 0.000000 0.032600 
#    y 0.000000 2.045270 0.000000 
#    z 0.032600 0.000000 2.014400 
# 
# From -- ./inp_files/21919.got.cif
#   From: 2010.05.17/outbox.cif.g08.bks.cpg/sg15_11_cif.got.tgz:21919.got - 2010.06.03 18:47:42.
