data_PCOD9268491
_publ_section_title
;
Structure prediction by ZEFSAII (Michael W. Deem and Ramdas Pophale) SiO2 
 PCOD9268491
Probable space group: C 2/C
;
_chemical_formula_sum "Si O2"
_cell_formula_units_Z 56
_cell_length_a 6.877721
_cell_length_b 13.530304
_cell_length_c 27.627006
_cell_angle_alpha 90.000000
_cell_angle_beta 73.525536
_cell_angle_gamma 90.000000
_cell_volume 2465.359079
_symmetry_space_group_name_H-M "C 2/C"
_symmetry_group_IT_number 15
_symmetry_cell_setting 'monoclinic'
loop_
_space_group_symop_operation_xyz
x,y,z
-x,y,1/2-z
-x,-y,-z
x,-y,1/2+z
1/2+x,1/2+y,z
1/2-x,1/2+y,1/2-z
1/2-x,1/2-y,-z
1/2+x,1/2-y,1/2+z
loop_
_atom_site_type_symbol
_atom_site_label
_atom_site_fract_x
_atom_site_fract_y
_atom_site_fract_z
Si Si1 0.053311 0.318299 0.454771
Si Si2 0.688251 0.223208 0.435786
Si Si3 0.000000 0.402914 0.250000
Si Si4 0.885088 0.561166 0.179359
Si Si5 0.500000 0.427729 0.750000
Si Si6 0.087794 0.908031 0.323268
Si Si7 0.800547 0.995053 0.910215
Si Si8 0.105615 0.730009 0.132331
O O1 0.167167 0.423827 0.448212
O O2 0.203104 0.247216 0.414605
O O3 0.843473 0.309466 0.439370
O O4 0.991080 0.281364 0.512106
O O5 0.589073 0.234219 0.390183
O O6 0.798808 0.115411 0.431927
O O7 0.917444 0.471582 0.212798
O O8 0.802044 0.360768 0.291721
O O9 0.701048 0.624386 0.216251
O O10 0.819676 0.521113 0.131875
O O11 0.085029 0.626895 0.160556
O O12 0.443218 0.500031 0.710018
O O13 0.017268 0.955931 0.380173
O O14 0.921712 0.821387 0.329639
#
# Coordination Sequence:
#
# PCOD9268491 Si02
#       8
#     8   8   4   8   4   8   8   8
#     4  10  21  37  58  83 112 147 185 231 283 336
#     4  10  21  37  58  83 112 147 185 231 283 336
#     4  10  20  32  52  78 106 140 180 222 274 334
#     4   9  19  33  53  76 105 142 177 225 275 326
#     4   8  16  36  50  70 106 140 178 222 274 332
#     4   9  19  33  53  76 105 142 177 225 275 326
#     4   9  19  37  57  78 112 148 185 229 281 341
#     4  10  21  36  54  82 108 140 184 230 273 332
#
# _framework density 22.714744
#
# number of rings (size 3 to 8) (size 9 to 14) (size 15 to 20)
#    0.000    2.571    0.000    0.857    4.000    1.143 
#    0.000    0.000    0.000    8.571    0.000    0.000 
#    0.000    0.000    0.000    0.000    0.000    0.000 
#
# Total GULP energy -155906.331478 kJ/mol
# GULP energy per Si atom -5568.083267 kJ/mol
# Density = 2.266304 g / cm^3
# Si number density = 22.714744 Si / 1000 Ang^3
#
#
#
# Elastic Constant Matrix: (Units=GPa)
#
#
# Indices 1 2 3 4 5 6 
#
# 1 35.7453 13.6317 21.7923 0.0000 -17.2710 0.0000
# 2 13.6317 68.5722 20.2251 0.0000 -22.9613 0.0000
# 3 21.7923 20.2251 93.2859 0.0000 -33.2485 0.0000
# 4 0.0000 0.0000 0.0000 37.5991 0.0000 14.3815
# 5 -17.2710 -22.9613 -33.2485 0.0000 38.1599 0.0000
# 6 0.0000 0.0000 0.0000 14.3815 0.0000 46.0337
#
#
#
# Elastic Compliance Matrix: (Units=1/GPa)
#
#
# Indices 1 2 3 4 5 6 
#
# 1 0.036993 -0.002173 -0.003872 0.000000 0.012062 0.000000
# 2 -0.002173 0.018391 0.000165 0.000000 0.010226 0.000000
# 3 -0.003872 0.000165 0.015953 0.000000 0.012247 0.000000
# 4 0.000000 0.000000 0.000000 0.030206 0.000000 -0.009437
# 5 0.012062 0.010226 0.012247 0.000000 0.048489 0.000000
# 6 0.000000 0.000000 0.000000 -0.009437 0.000000 0.024671
#
#
# Mechanical properties :
#
#
# Convention : Reuss Voigt Hill
#
# Bulk Modulus (GPa) = 16.78470 34.32237 25.55353
# Shear Modulus (GPa) = 24.23403 33.82216 29.02810
#
# Velocity S-wave (km/s) = 3.26986 3.86294 3.57871
# Velocity P-wave (km/s) = 4.65418 5.91940 5.32451
#
# Compressibility (1/GPa) = 0.05957808
#
# Stress axis : x y z
#
# Youngs Moduli (GPa) = 27.03232 54.37528 62.68221
#
# Poissons Ratio (x) = 0.11816 0.24268
# Poissons Ratio (y) = 0.05874 -0.01036
# Poissons Ratio (z) = 0.10466 -0.00898
#
# Static dielectric constant tensor:
#      x y z
#    x 1.893390 0.000000 -0.011400 
#    y 0.000000 1.924160 0.000000 
#    z -0.011400 0.000000 1.792260 
# 
# From -- ./inp_files/307753.got.cif
#   From: 2010.05.17/outbox.cif.g08.bks.cpg/sg15_154_cif.got.tgz:307753.got - 2010.06.03 18:47:42.
