data_PCOD9268695
_publ_section_title
;
Structure prediction by ZEFSAII (Michael W. Deem and Ramdas Pophale) SiO2 
 PCOD9268695
Probable space group: C 2/C
;
_chemical_formula_sum "Si O2"
_cell_formula_units_Z 48
_cell_length_a 6.798934
_cell_length_b 7.964673
_cell_length_c 31.693332
_cell_angle_alpha 90.000000
_cell_angle_beta 106.316563
_cell_angle_gamma 90.000000
_cell_volume 1647.111820
_symmetry_space_group_name_H-M "C 2/C"
_symmetry_group_IT_number 15
_symmetry_cell_setting 'monoclinic'
loop_
_space_group_symop_operation_xyz
x,y,z
-x,y,1/2-z
-x,-y,-z
x,-y,1/2+z
1/2+x,1/2+y,z
1/2-x,1/2+y,1/2-z
1/2-x,1/2-y,-z
1/2+x,1/2-y,1/2+z
loop_
_atom_site_type_symbol
_atom_site_label
_atom_site_fract_x
_atom_site_fract_y
_atom_site_fract_z
Si Si1 0.871831 0.693829 0.318574
Si Si2 0.028118 0.188504 0.151785
Si Si3 0.208149 0.001336 0.985322
Si Si4 0.452826 0.653973 0.598824
Si Si5 0.294892 0.153747 0.765790
Si Si6 0.863343 0.345318 0.068327
O O1 0.671676 0.740711 0.333760
O O2 0.038784 0.695385 0.366522
O O3 0.880699 0.825399 0.280140
O O4 0.823786 0.519187 0.292585
O O5 0.044015 0.313927 0.112718
O O6 0.205724 0.205040 0.197159
O O7 0.969142 0.008705 0.129822
O O8 0.184672 0.829735 0.957844
O O9 0.378333 0.984094 0.032372
O O10 0.210751 0.144563 0.949474
O O11 0.000000 0.000000 0.000000
O O12 0.660936 0.633069 0.584200
O O13 0.500000 0.176413 0.750000
#
# Coordination Sequence:
#
# PCOD9268695 Si02
#       6
#     8   8   8   8   8   8
#     4  10  20  33  49  70  95 124 159 199 242 292
#     4   9  18  32  48  69  96 125 159 200 243 290
#     4   8  13  23  43  72 100 130 167 203 242 289
#     4   9  16  28  47  71  98 127 162 202 245 292
#     4  10  21  35  51  71  96 126 162 201 243 293
#     4   8  14  25  44  71  99 128 165 203 241 290
#
# _framework density 29.141922999999998
#
# number of rings (size 3 to 8) (size 9 to 14) (size 15 to 20)
#    0.000    3.000    0.000    1.000    0.000    1.333 
#    0.000    0.000    0.000    1.000    0.000  105.000 
#    0.000    0.000    0.000    0.000    0.000    0.000 
#
# Total GULP energy -134270.722362 kJ/mol
# GULP energy per Si atom -5594.613432 kJ/mol
# Density = 2.907559 g / cm^3
# Si number density = 29.141923 Si / 1000 Ang^3
#
#
#
# Elastic Constant Matrix: (Units=GPa)
#
#
# Indices 1 2 3 4 5 6 
#
# 1 84.7464 -16.6503 44.5099 0.0000 16.6330 0.0000
# 2 -16.6503 117.6425 52.4041 0.0000 -6.2119 0.0000
# 3 44.5099 52.4041 217.1034 0.0000 -18.3168 0.0000
# 4 0.0000 0.0000 0.0000 56.2947 0.0000 -12.5808
# 5 16.6330 -6.2119 -18.3168 0.0000 52.5528 0.0000
# 6 0.0000 0.0000 0.0000 -12.5808 0.0000 26.5467
#
#
#
# Elastic Compliance Matrix: (Units=1/GPa)
#
#
# Indices 1 2 3 4 5 6 
#
# 1 0.016478 0.004189 -0.004933 0.000000 -0.006439 0.000000
# 2 0.004189 0.010595 -0.003526 0.000000 -0.001303 0.000000
# 3 -0.004933 -0.003526 0.006764 0.000000 0.003502 0.000000
# 4 0.000000 0.000000 0.000000 0.019868 0.000000 0.009416
# 5 -0.006439 -0.001303 0.003502 0.000000 0.022133 0.000000
# 6 0.000000 0.000000 0.000000 0.009416 0.000000 0.042132
#
#
# Mechanical properties :
#
#
# Convention : Reuss Voigt Hill
#
# Bulk Modulus (GPa) = 39.52936 64.44662 51.98799
# Shear Modulus (GPa) = 37.05321 49.69407 43.37364
#
# Velocity S-wave (km/s) = 3.56964 4.13394 3.86211
# Velocity P-wave (km/s) = 5.53025 6.70438 6.14542
#
# Compressibility (1/GPa) = 0.02529765
#
# Stress axis : x y z
#
# Youngs Moduli (GPa) = 60.68882 94.38184 147.84169
#
# Poissons Ratio (x) = -0.39540 0.72925
# Poissons Ratio (y) = -0.25425 0.52133
# Poissons Ratio (z) = 0.29936 0.33281
#
# Static dielectric constant tensor:
#      x y z
#    x 2.339510 0.000000 0.130410 
#    y 0.000000 2.288050 0.000000 
#    z 0.130410 0.000000 2.291200 
# 
# From -- ./inp_files/290825.got.cif
#   From: 2010.05.17/outbox.cif.g08.bks.cpg/sg15_146_cif.got.tgz:290825.got - 2010.06.03 18:47:42.
