data_PCOD9268251
_publ_section_title
;
Structure prediction by ZEFSAII (Michael W. Deem and Ramdas Pophale) SiO2 
 PCOD9268251
Probable space group: C 2/C
;
_chemical_formula_sum "Si O2"
_cell_formula_units_Z 56
_cell_length_a 18.451558
_cell_length_b 28.310341
_cell_length_c 14.849747
_cell_angle_alpha 90.000000
_cell_angle_beta 157.019922
_cell_angle_gamma 90.000000
_cell_volume 3028.442199
_symmetry_space_group_name_H-M "C 2/C"
_symmetry_group_IT_number 15
_symmetry_cell_setting 'monoclinic'
loop_
_space_group_symop_operation_xyz
x,y,z
-x,y,1/2-z
-x,-y,-z
x,-y,1/2+z
1/2+x,1/2+y,z
1/2-x,1/2+y,1/2-z
1/2-x,1/2-y,-z
1/2+x,1/2-y,1/2+z
loop_
_atom_site_type_symbol
_atom_site_label
_atom_site_fract_x
_atom_site_fract_y
_atom_site_fract_z
Si Si1 0.087725 0.718225 0.446310
Si Si2 0.115993 0.461583 0.523941
Si Si3 0.130099 0.081616 0.036193
Si Si4 0.443703 0.518538 0.286969
Si Si5 0.472144 0.119206 0.326070
Si Si6 0.701822 0.941276 0.220674
Si Si7 0.987520 0.816964 0.344458
O O1 0.960888 0.675215 0.337251
O O2 0.283347 0.695843 0.645390
O O3 0.000000 0.730355 0.250000
O O4 0.099910 0.769866 0.504015
O O5 0.229665 0.468381 0.561858
O O6 0.129542 0.513530 0.582389
O O7 0.912379 0.442233 0.315261
O O8 0.248137 0.430017 0.737671
O O9 0.036690 0.132141 0.939335
O O10 0.996232 0.036893 0.864732
O O11 0.286241 0.090032 0.137269
O O12 0.500000 0.528408 0.250000
O O13 0.584635 0.548414 0.511952
O O14 0.500000 0.115682 0.250000
O O15 0.635383 0.100079 0.578268
O O16 0.000000 0.823679 0.250000
#
# Coordination Sequence:
#
# PCOD9268251 Si02
#       7
#     8   8   8   8   8   8   8
#     4  10  20  30  44  66  95 133 164 210 237 288
#     4   9  20  36  51  69 103 128 173 212 257 294
#     4  10  20  34  48  72  95 136 169 207 245 298
#     4  11  23  34  52  76 101 134 175 214 257 306
#     4  10  20  32  52  73  98 136 178 201 246 299
#     4   9  19  36  52  71 102 138 161 222 250 291
#     4  11  19  30  46  64  98 130 169 203 243 289
#
# _framework density 18.491354999999999
#
# number of rings (size 3 to 8) (size 9 to 14) (size 15 to 20)
#    0.000    2.000    0.000    7.286    6.000    0.571 
#    0.000    0.000    0.000    0.000    0.000    0.000 
#    0.000    1.143    0.571    0.286    0.000    0.143 
#
# Total GULP energy -155952.277687 kJ/mol
# GULP energy per Si atom -5569.724203 kJ/mol
# Density = 1.844927 g / cm^3
# Si number density = 18.491355 Si / 1000 Ang^3
#
#
#
# Elastic Constant Matrix: (Units=GPa)
#
#
# Indices 1 2 3 4 5 6 
#
# 1 83.9065 14.9689 13.1700 0.0000 24.3182 0.0000
# 2 14.9689 102.8958 27.1200 0.0000 -4.5170 0.0000
# 3 13.1700 27.1200 41.2944 0.0001 19.5641 0.0001
# 4 0.0000 0.0000 0.0001 23.8659 0.0001 -2.8043
# 5 24.3182 -4.5170 19.5641 0.0001 32.2628 0.0000
# 6 0.0000 0.0000 0.0001 -2.8043 0.0000 19.3814
#
#
#
# Elastic Compliance Matrix: (Units=1/GPa)
#
#
# Indices 1 2 3 4 5 6 
#
# 1 0.016681 -0.004629 0.005590 0.000000 -0.016611 0.000000
# 2 -0.004629 0.015179 -0.015648 0.000000 0.015104 0.000000
# 3 0.005590 -0.015648 0.050153 0.000000 -0.036817 0.000000
# 4 0.000000 0.000000 0.000000 0.042626 0.000000 0.006168
# 5 -0.016611 0.015104 -0.036817 0.000000 0.067957 0.000000
# 6 0.000000 0.000000 0.000000 0.006168 0.000000 0.052488
#
#
# Mechanical properties :
#
#
# Convention : Reuss Voigt Hill
#
# Bulk Modulus (GPa) = 18.99738 37.62382 28.31060
# Shear Modulus (GPa) = 17.12300 26.62454 21.87377
#
# Velocity S-wave (km/s) = 3.04633 3.79864 3.44309
# Velocity P-wave (km/s) = 4.76124 6.29527 5.58121
#
# Compressibility (1/GPa) = 0.05263884
#
# Stress axis : x y z
#
# Youngs Moduli (GPa) = 59.94923 65.87871 19.93885
#
# Poissons Ratio (x) = 0.30497 -0.11146
# Poissons Ratio (y) = 0.27752 0.31201
# Poissons Ratio (z) = -0.33512 1.03089
#
# Static dielectric constant tensor:
#      x y z
#    x 1.691890 0.000000 0.053000 
#    y 0.000000 1.713130 0.000000 
#    z 0.053000 0.000000 1.707580 
# 
# From -- ./inp_files/217098.got.cif
#   From: 2010.05.17/outbox.cif.g08.bks.cpg/sg15_109_cif.got.tgz:217098.got - 2010.06.03 18:47:42.
