data_PCOD9268883
_publ_section_title
;
Structure prediction by ZEFSAII (Michael W. Deem and Ramdas Pophale) SiO2 
 PCOD9268883
Probable space group: C 2/C
;
_chemical_formula_sum "Si O2"
_cell_formula_units_Z 40
_cell_length_a 28.689885
_cell_length_b 10.772910
_cell_length_c 25.450383
_cell_angle_alpha 90.000000
_cell_angle_beta 14.270270
_cell_angle_gamma 90.000000
_cell_volume 1938.948785
_symmetry_space_group_name_H-M "C 2/C"
_symmetry_group_IT_number 15
_symmetry_cell_setting 'monoclinic'
loop_
_space_group_symop_operation_xyz
x,y,z
-x,y,1/2-z
-x,-y,-z
x,-y,1/2+z
1/2+x,1/2+y,z
1/2-x,1/2+y,1/2-z
1/2-x,1/2-y,-z
1/2+x,1/2-y,1/2+z
loop_
_atom_site_type_symbol
_atom_site_label
_atom_site_fract_x
_atom_site_fract_y
_atom_site_fract_z
Si Si1 0.366578 0.022036 0.020625
Si Si2 0.392564 0.879829 0.096001
Si Si3 0.989580 0.131490 0.040058
Si Si4 0.735401 0.625357 0.943940
Si Si5 0.307709 0.412881 0.888901
O O1 0.205552 0.119369 0.215855
O O2 0.294907 0.996103 0.039871
O O3 0.366480 0.909944 0.062679
O O4 0.573980 0.082700 0.793005
O O5 0.492208 0.750744 0.999635
O O6 0.500000 0.000000 0.000000
O O7 0.193341 0.132628 0.844295
O O8 0.000000 0.000000 0.000000
O O9 0.740665 0.568114 0.997169
O O10 0.535917 0.587636 0.136170
O O11 0.735821 0.773755 0.952987
#
# Coordination Sequence:
#
# PCOD9268883 Si02
#       5
#     8   8   8   8   8
#     4  11  23  36  63  86 127 175 207 256 332 375
#     4  11  25  41  61  93 126 167 215 268 310 378
#     4  10  23  41  60  89 126 167 215 258 304 377
#     4  10  20  33  55  89 128 166 211 270 310 395
#     4  10  20  33  54  90 127 165 218 256 327 378
#
# _framework density 20.629733999999999
#
# number of rings (size 3 to 8) (size 9 to 14) (size 15 to 20)
#    0.000    1.600    2.000    3.000    8.400    0.000 
#    0.000    0.000    0.000    0.000    0.000   22.400 
#    0.000    0.000    0.000    0.000    0.000    0.000 
#
# Total GULP energy -111555.847134 kJ/mol
# GULP energy per Si atom -5577.792357 kJ/mol
# Density = 2.058278 g / cm^3
# Si number density = 20.629734 Si / 1000 Ang^3
#
#
#
# Elastic Constant Matrix: (Units=GPa)
#
#
# Indices 1 2 3 4 5 6 
#
# 1 96.8714 32.9413 19.3779 0.0042 -5.6062 0.0008
# 2 32.9413 89.0550 22.1331 0.0250 -3.7004 -0.0147
# 3 19.3779 22.1331 149.9988 0.0062 -8.0341 -0.0021
# 4 0.0042 0.0250 0.0062 24.7307 -0.0026 -8.3389
# 5 -5.6062 -3.7004 -8.0341 -0.0026 33.1452 0.0005
# 6 0.0008 -0.0147 -0.0021 -8.3389 0.0005 37.6665
#
#
#
# Elastic Compliance Matrix: (Units=1/GPa)
#
#
# Indices 1 2 3 4 5 6 
#
# 1 0.011990 -0.004165 -0.000862 0.000002 0.001354 -0.000001
# 2 -0.004165 0.013129 -0.001376 -0.000011 0.000428 0.000003
# 3 -0.000862 -0.001376 0.007057 0.000000 0.001411 0.000000
# 4 0.000002 -0.000011 0.000000 0.043697 0.000002 0.009674
# 5 0.001354 0.000428 0.001411 0.000002 0.030789 0.000000
# 6 -0.000001 0.000003 0.000000 0.009674 0.000000 0.028690
#
#
# Mechanical properties :
#
#
# Convention : Reuss Voigt Hill
#
# Bulk Modulus (GPa) = 51.62551 53.86997 52.74774
# Shear Modulus (GPa) = 32.33829 36.54003 34.43916
#
# Velocity S-wave (km/s) = 3.96353 4.21317 4.09025
# Velocity P-wave (km/s) = 6.78419 7.05954 6.92324
#
# Compressibility (1/GPa) = 0.01937027
#
# Stress axis : x y z
#
# Youngs Moduli (GPa) = 83.40345 76.16537 141.70854
#
# Poissons Ratio (x) = 0.31720 0.12214
# Poissons Ratio (y) = 0.34734 0.19504
# Poissons Ratio (z) = 0.07189 0.10483
#
# Static dielectric constant tensor:
#      x y z
#    x 1.840730 0.000000 -0.006330 
#    y 0.000000 1.642440 0.000010 
#    z -0.006330 0.000010 1.848210 
# 
# From -- ./inp_files/252200.got.cif
#   From: 2010.05.17/outbox.cif.g08.bks.cpg/sg15_127_cif.got.tgz:252200.got - 2010.06.03 18:47:42.
