data_PCOD9268821
_publ_section_title
;
Structure prediction by ZEFSAII (Michael W. Deem and Ramdas Pophale) SiO2 
 PCOD9268821
Probable space group: C 2/C
;
_chemical_formula_sum "Si O2"
_cell_formula_units_Z 60
_cell_length_a 13.588736
_cell_length_b 15.296752
_cell_length_c 18.111983
_cell_angle_alpha 90.000000
_cell_angle_beta 48.638759
_cell_angle_gamma 90.000000
_cell_volume 2825.717205
_symmetry_space_group_name_H-M "C 2/C"
_symmetry_group_IT_number 15
_symmetry_cell_setting 'monoclinic'
loop_
_space_group_symop_operation_xyz
x,y,z
-x,y,1/2-z
-x,-y,-z
x,-y,1/2+z
1/2+x,1/2+y,z
1/2-x,1/2+y,1/2-z
1/2-x,1/2-y,-z
1/2+x,1/2-y,1/2+z
loop_
_atom_site_type_symbol
_atom_site_label
_atom_site_fract_x
_atom_site_fract_y
_atom_site_fract_z
Si Si1 0.849548 0.688568 0.817292
Si Si2 0.971541 0.823437 0.118955
Si Si3 0.858254 0.501630 0.610749
Si Si4 0.859962 0.685115 0.055084
Si Si5 0.732384 0.528389 0.829107
Si Si6 0.863499 0.312547 0.137739
Si Si7 0.500000 0.222327 0.250000
Si Si8 0.223743 0.149489 0.414128
O O1 0.760654 0.754348 0.906588
O O2 0.809271 0.588702 0.849983
O O3 0.820262 0.696242 0.743658
O O4 0.000000 0.706619 0.750000
O O5 0.930104 0.743326 0.084830
O O6 0.890108 0.911686 0.138612
O O7 0.947915 0.785240 0.211369
O O8 0.127183 0.841717 0.031748
O O9 0.805114 0.408472 0.609076
O O10 0.831237 0.502349 0.712793
O O11 0.810526 0.601334 0.620913
O O12 0.000000 0.500000 0.500000
O O13 0.978426 0.673987 0.939142
O O14 0.691850 0.440935 0.889726
O O15 0.825222 0.226062 0.115140
O O16 0.380142 0.164640 0.342565
#
# Coordination Sequence:
#
# PCOD9268821 Si02
#       8
#     8   8   8   8   8   8   4   8
#     4  10  20  33  53  80 114 145 190 246 287 331
#     4  10  22  39  59  88 121 157 193 248 302 362
#     4   9  16  30  56  84 108 140 194 242 283 343
#     4   9  18  35  57  81 108 151 195 229 287 358
#     4  10  20  37  60  81 116 160 202 236 293 361
#     4   9  19  35  57  80 109 151 191 235 285 349
#     4  12  22  36  62  94 124 150 192 262 312 344
#     4  11  22  38  63  87 117 157 203 238 299 368
#
# _framework density 21.233547000000002
#
# number of rings (size 3 to 8) (size 9 to 14) (size 15 to 20)
#    0.000    2.133    0.000    4.800    0.933    0.533 
#    0.000    1.333   19.067    0.000    0.000    0.000 
#    0.000    0.000    0.000    0.000    0.000    0.000 
#
# Total GULP energy -167013.258916 kJ/mol
# GULP energy per Si atom -5567.108631 kJ/mol
# Density = 2.118522 g / cm^3
# Si number density = 21.233547 Si / 1000 Ang^3
#
#
#
# Elastic Constant Matrix: (Units=GPa)
#
#
# Indices 1 2 3 4 5 6 
#
# 1 33.3387 5.1801 10.0560 0.0000 -14.7890 0.0000
# 2 5.1801 126.9290 26.0107 0.0000 -3.0478 0.0000
# 3 10.0560 26.0107 117.3893 0.0000 -19.7374 0.0000
# 4 0.0000 0.0000 0.0000 29.1443 0.0000 -4.2970
# 5 -14.7890 -3.0478 -19.7374 0.0000 34.8676 0.0000
# 6 0.0000 0.0000 0.0000 -4.2970 0.0000 10.2693
#
#
#
# Elastic Compliance Matrix: (Units=1/GPa)
#
#
# Indices 1 2 3 4 5 6 
#
# 1 0.037122 -0.001073 -0.000343 0.000000 0.015457 0.000000
# 2 -0.001073 0.008288 -0.001878 0.000000 -0.000794 0.000000
# 3 -0.000343 -0.001878 0.009850 0.000000 0.005266 0.000000
# 4 0.000000 0.000000 0.000000 0.036568 0.000000 0.015301
# 5 0.015457 -0.000794 0.005266 0.000000 0.038147 0.000000
# 6 0.000000 0.000000 0.000000 0.015301 0.000000 0.103781
#
#
# Mechanical properties :
#
#
# Convention : Reuss Voigt Hill
#
# Bulk Modulus (GPa) = 20.54634 40.01674 30.28154
# Shear Modulus (GPa) = 19.48794 30.61690 25.05242
#
# Velocity S-wave (km/s) = 3.03279 3.80137 3.43862
# Velocity P-wave (km/s) = 4.68627 6.17690 5.48248
#
# Compressibility (1/GPa) = 0.04867047
#
# Stress axis : x y z
#
# Youngs Moduli (GPa) = 26.93793 120.65638 101.52761
#
# Poissons Ratio (x) = 0.12952 0.03485
# Poissons Ratio (y) = 0.02892 0.19066
# Poissons Ratio (z) = 0.00925 0.22659
#
# Static dielectric constant tensor:
#      x y z
#    x 1.802560 0.000000 -0.052750 
#    y 0.000000 1.768490 0.000000 
#    z -0.052750 0.000000 1.828870 
# 
# From -- ./inp_files/244701.got.cif
#   From: 2010.05.17/outbox.cif.g08.bks.cpg/sg15_123_cif.got.tgz:244701.got - 2010.06.03 18:47:42.
