data_PCOD9268052
_publ_section_title
;
Structure prediction by ZEFSAII (Michael W. Deem and Ramdas Pophale) SiO2 
 PCOD9268052
Probable space group: C 2/C
;
_chemical_formula_sum "Si O2"
_cell_formula_units_Z 36
_cell_length_a 5.163759
_cell_length_b 13.634671
_cell_length_c 27.079992
_cell_angle_alpha 90.000000
_cell_angle_beta 136.458389
_cell_angle_gamma 90.000000
_cell_volume 1313.419592
_symmetry_space_group_name_H-M "C 2/C"
_symmetry_group_IT_number 15
_symmetry_cell_setting 'monoclinic'
loop_
_space_group_symop_operation_xyz
x,y,z
-x,y,1/2-z
-x,-y,-z
x,-y,1/2+z
1/2+x,1/2+y,z
1/2-x,1/2+y,1/2-z
1/2-x,1/2-y,-z
1/2+x,1/2-y,1/2+z
loop_
_atom_site_type_symbol
_atom_site_label
_atom_site_fract_x
_atom_site_fract_y
_atom_site_fract_z
Si Si1 0.871259 0.510978 0.828401
Si Si2 0.603075 0.811881 0.860509
Si Si3 0.610419 0.145261 0.463878
Si Si4 0.558830 0.115903 0.949974
Si Si5 0.000000 0.197123 0.750000
O O1 0.500000 0.469462 0.750000
O O2 0.854140 0.539822 0.884303
O O3 0.858378 0.621821 0.804281
O O4 0.176307 0.427555 0.858491
O O5 0.381151 0.831264 0.881748
O O6 0.913590 0.727440 0.917043
O O7 0.437958 0.762404 0.789302
O O8 0.750000 0.250000 0.500000
O O9 0.486273 0.100835 0.498226
O O10 0.006868 0.101707 0.501953
#
# Coordination Sequence:
#
# PCOD9268052 Si02
#       5
#     8   8   8   8   4
#     4   9  21  44  65 101 142 187 241 282 357 418
#     4  10  19  41  68  97 136 189 227 288 352 414
#     4  10  21  41  71 102 135 179 229 286 360 412
#     4  10  22  45  67 103 142 172 229 299 344 418
#     4   8  20  42  60  94 150 176 244 292 344 412
#
# _framework density 27.409365000000001
#
# number of rings (size 3 to 8) (size 9 to 14) (size 15 to 20)
#    0.667    1.778    0.000    2.667    0.000    1.778 
#   24.000    0.000    0.000    0.000    0.000    0.000 
#    0.000    0.000    0.000    0.000    0.000    0.000 
#
# Total GULP energy -100224.344990 kJ/mol
# GULP energy per Si atom -5568.019166 kJ/mol
# Density = 2.734698 g / cm^3
# Si number density = 27.409365 Si / 1000 Ang^3
#
#
#
# Elastic Constant Matrix: (Units=GPa)
#
#
# Indices 1 2 3 4 5 6 
#
# 1 118.0498 54.5243 76.9957 0.0010 -27.7152 0.0014
# 2 54.5243 263.9413 83.6459 0.0002 -19.6789 0.0004
# 3 76.9957 83.6459 256.1638 0.0005 -33.3413 0.0005
# 4 0.0010 0.0002 0.0005 20.6113 0.0005 -2.5198
# 5 -27.7152 -19.6789 -33.3413 0.0005 38.4290 0.0008
# 6 0.0014 0.0004 0.0005 -2.5198 0.0008 4.9677
#
#
#
# Elastic Compliance Matrix: (Units=1/GPa)
#
#
# Indices 1 2 3 4 5 6 
#
# 1 0.012034 -0.001274 -0.002431 -0.000001 0.005918 -0.000005
# 2 -0.001274 0.004402 -0.000993 0.000000 0.000474 0.000000
# 3 -0.002431 -0.000993 0.005258 0.000000 0.002300 0.000000
# 4 -0.000001 0.000000 0.000000 0.051725 -0.000002 0.026237
# 5 0.005918 0.000474 0.002300 -0.000002 0.032528 -0.000008
# 6 -0.000005 0.000000 0.000000 0.026237 -0.000008 0.214609
#
#
# Mechanical properties :
#
#
# Convention : Reuss Voigt Hill
#
# Bulk Modulus (GPa) = 81.31149 118.72073 100.01611
# Shear Modulus (GPa) = 14.96775 41.00087 27.98431
#
# Velocity S-wave (km/s) = 2.33937 3.87184 3.19874
# Velocity P-wave (km/s) = 6.08497 7.96217 7.08601
#
# Compressibility (1/GPa) = 0.01229838
#
# Stress axis : x y z
#
# Youngs Moduli (GPa) = 83.09484 227.17485 190.18894
#
# Poissons Ratio (x) = 0.28953 0.46232
# Poissons Ratio (y) = 0.10590 0.18879
# Poissons Ratio (z) = 0.20199 0.22550
#
# Static dielectric constant tensor:
#      x y z
#    x 2.253770 -0.000010 0.096190 
#    y -0.000010 2.312200 -0.000020 
#    z 0.096190 -0.000020 2.300140 
# 
# From -- ./inp_files/229600.got.cif
#   From: 2010.05.17/outbox.cif.g08.bks.cpg/sg15_115_cif.got.tgz:229600.got - 2010.06.03 18:47:42.
