data_PCOD9268825
_publ_section_title
;
Structure prediction by ZEFSAII (Michael W. Deem and Ramdas Pophale) SiO2 
 PCOD9268825
Probable space group: C 2/C
;
_chemical_formula_sum "Si O2"
_cell_formula_units_Z 40
_cell_length_a 21.039463
_cell_length_b 14.769561
_cell_length_c 20.988925
_cell_angle_alpha 90.000000
_cell_angle_beta 19.750553
_cell_angle_gamma 90.000000
_cell_volume 2204.011146
_symmetry_space_group_name_H-M "C 2/C"
_symmetry_group_IT_number 15
_symmetry_cell_setting 'monoclinic'
loop_
_space_group_symop_operation_xyz
x,y,z
-x,y,1/2-z
-x,-y,-z
x,-y,1/2+z
1/2+x,1/2+y,z
1/2-x,1/2+y,1/2-z
1/2-x,1/2-y,-z
1/2+x,1/2-y,1/2+z
loop_
_atom_site_type_symbol
_atom_site_label
_atom_site_fract_x
_atom_site_fract_y
_atom_site_fract_z
Si Si1 0.283037 0.956731 0.653943
Si Si2 0.460170 0.419448 0.185463
Si Si3 0.284712 0.142476 0.471338
Si Si4 0.538791 0.663767 0.473946
Si Si5 0.131486 0.633649 0.848444
O O1 0.463819 0.900002 0.461007
O O2 0.113149 0.982078 0.767322
O O3 0.353790 0.054190 0.612727
O O4 0.197147 0.899354 0.793500
O O5 0.285523 0.382343 0.391776
O O6 0.505702 0.362679 0.078623
O O7 0.643010 0.409347 0.057201
O O8 0.500000 0.123638 0.250000
O O9 0.250000 0.250000 0.500000
O O10 0.342282 0.642172 0.623700
O O11 0.585420 0.768746 0.421256
#
# Coordination Sequence:
#
# PCOD9268825 Si02
#       5
#     8   8   8   8   8
#     4  10  22  37  53  85 117 151 197 227 284 351
#     4  10  23  36  55  81 116 154 186 238 273 339
#     4  11  23  37  54  81 111 149 200 231 280 338
#     4  11  21  35  57  86 119 158 186 228 291 340
#     4  10  20  33  53  81 118 151 189 226 276 343
#
# _framework density 18.148728999999999
#
# number of rings (size 3 to 8) (size 9 to 14) (size 15 to 20)
#    0.000    1.600    4.000    2.400    5.600    6.400 
#    0.000    0.000    0.000    0.000    0.000    5.600 
#    0.000    0.000    0.000    0.000    0.000    0.000 
#
# Total GULP energy -111394.881632 kJ/mol
# GULP energy per Si atom -5569.744082 kJ/mol
# Density = 1.810742 g / cm^3
# Si number density = 18.148729 Si / 1000 Ang^3
#
#
#
# Elastic Constant Matrix: (Units=GPa)
#
#
# Indices 1 2 3 4 5 6 
#
# 1 58.5798 39.3055 32.4211 -0.0061 -6.5438 -0.0002
# 2 39.3055 89.7894 35.7325 -0.0103 0.4023 -0.0101
# 3 32.4211 35.7325 128.7285 -0.0258 -12.7071 -0.0048
# 4 -0.0061 -0.0103 -0.0258 39.9122 0.0026 -11.8382
# 5 -6.5438 0.4023 -12.7071 0.0026 30.9934 0.0032
# 6 -0.0002 -0.0101 -0.0048 -11.8382 0.0032 15.9241
#
#
#
# Elastic Compliance Matrix: (Units=1/GPa)
#
#
# Indices 1 2 3 4 5 6 
#
# 1 0.026230 -0.010164 -0.003361 -0.000004 0.004292 -0.000011
# 2 -0.010164 0.016541 -0.002360 0.000006 -0.003328 0.000015
# 3 -0.003361 -0.002360 0.009591 0.000007 0.003253 0.000006
# 4 -0.000004 0.000006 0.000007 0.032142 -0.000003 0.023895
# 5 0.004292 -0.003328 0.003253 -0.000003 0.034548 -0.000010
# 6 -0.000011 0.000015 0.000006 0.023895 -0.000010 0.080562
#
#
# Mechanical properties :
#
#
# Convention : Reuss Voigt Hill
#
# Bulk Modulus (GPa) = 48.56395 54.66844 51.61619
# Shear Modulus (GPa) = 20.98653 28.67519 24.83086
#
# Velocity S-wave (km/s) = 3.40422 3.97925 3.70291
# Velocity P-wave (km/s) = 6.50143 7.16243 6.83992
#
# Compressibility (1/GPa) = 0.02059141
#
# Stress axis : x y z
#
# Youngs Moduli (GPa) = 38.12405 60.45751 104.26351
#
# Poissons Ratio (x) = 0.61448 0.35046
# Poissons Ratio (y) = 0.38749 0.24607
# Poissons Ratio (z) = 0.12815 0.14268
#
# Static dielectric constant tensor:
#      x y z
#    x 1.679080 0.000000 -0.061490 
#    y 0.000000 1.625690 0.000010 
#    z -0.061490 0.000010 1.678500 
# 
# From -- ./inp_files/249337.got.cif
#   From: 2010.05.17/outbox.cif.g08.bks.cpg/sg15_125_cif.got.tgz:249337.got - 2010.06.03 18:47:42.
