data_PCOD9268357
_publ_section_title
;
Structure prediction by ZEFSAII (Michael W. Deem and Ramdas Pophale) SiO2 
 PCOD9268357
Probable space group: C 2/C
;
_chemical_formula_sum "Si O2"
_cell_formula_units_Z 32
_cell_length_a 16.945063
_cell_length_b 9.330740
_cell_length_c 14.909160
_cell_angle_alpha 90.000000
_cell_angle_beta 148.427407
_cell_angle_gamma 90.000000
_cell_volume 1234.224596
_symmetry_space_group_name_H-M "C 2/C"
_symmetry_group_IT_number 15
_symmetry_cell_setting 'monoclinic'
loop_
_space_group_symop_operation_xyz
x,y,z
-x,y,1/2-z
-x,-y,-z
x,-y,1/2+z
1/2+x,1/2+y,z
1/2-x,1/2+y,1/2-z
1/2-x,1/2-y,-z
1/2+x,1/2-y,1/2+z
loop_
_atom_site_type_symbol
_atom_site_label
_atom_site_fract_x
_atom_site_fract_y
_atom_site_fract_z
Si Si1 0.078414 0.809160 0.414007
Si Si2 0.705328 0.929026 0.359879
Si Si3 0.357363 0.012781 0.509563
Si Si4 0.636860 0.605166 0.652523
O O1 0.206185 0.919928 0.567744
O O2 0.135331 0.651715 0.446728
O O3 0.000000 0.873488 0.250000
O O4 0.948690 0.788183 0.363220
O O5 0.713389 0.902625 0.474572
O O6 0.790631 0.832912 0.368072
O O7 0.529047 0.936241 0.164700
O O8 0.261027 0.986328 0.327347
O O9 0.500000 0.500000 0.500000
#
# Coordination Sequence:
#
# PCOD9268357 Si02
#       4
#     8   8   8   8
#     4  11  18  33  55  83 113 141 178 227 278 316
#     4  10  20  31  51  83 114 145 174 226 278 319
#     4  11  19  33  56  80 111 140 184 230 271 316
#     4  10  22  33  49  81 117 144 177 222 281 326
#
# _framework density 25.927209999999999
#
# number of rings (size 3 to 8) (size 9 to 14) (size 15 to 20)
#    0.000    1.500    5.000    3.000    0.000    0.000 
#    0.000    0.000    0.000    0.000    0.000   59.500 
#    0.000    0.000    0.000    0.000    0.000    0.000 
#
# Total GULP energy -89450.672064 kJ/mol
# GULP energy per Si atom -5590.667004 kJ/mol
# Density = 2.586820 g / cm^3
# Si number density = 25.927210 Si / 1000 Ang^3
#
#
#
# Elastic Constant Matrix: (Units=GPa)
#
#
# Indices 1 2 3 4 5 6 
#
# 1 236.1578 9.6050 19.2856 0.0000 -16.4396 0.0000
# 2 9.6050 53.0051 -9.7110 0.0000 6.3714 0.0000
# 3 19.2856 -9.7110 142.5728 0.0000 -9.8539 0.0000
# 4 0.0000 0.0000 0.0000 18.5578 0.0000 3.5353
# 5 -16.4396 6.3714 -9.8539 0.0000 35.3668 0.0000
# 6 0.0000 0.0000 0.0000 3.5353 0.0000 24.1447
#
#
#
# Elastic Compliance Matrix: (Units=1/GPa)
#
#
# Indices 1 2 3 4 5 6 
#
# 1 0.004475 -0.001167 -0.000537 0.000000 0.002141 0.000000
# 2 -0.001167 0.019757 0.001244 0.000000 -0.003755 0.000000
# 3 -0.000537 0.001244 0.007279 0.000000 0.001554 0.000000
# 4 0.000000 0.000000 0.000000 0.055432 0.000000 -0.008116
# 5 0.002141 -0.003755 0.001554 0.000000 0.030380 0.000000
# 6 0.000000 0.000000 0.000000 -0.008116 0.000000 0.042605
#
#
# Mechanical properties :
#
#
# Convention : Reuss Voigt Hill
#
# Bulk Modulus (GPa) = 32.68878 52.23274 42.46076
# Shear Modulus (GPa) = 29.23239 43.11759 36.17499
#
# Velocity S-wave (km/s) = 3.36144 4.08244 3.73936
# Velocity P-wave (km/s) = 5.26317 6.51241 5.92083
#
# Compressibility (1/GPa) = 0.03059154
#
# Stress axis : x y z
#
# Youngs Moduli (GPa) = 223.47611 50.61560 137.38653
#
# Poissons Ratio (x) = 0.05904 0.07375
# Poissons Ratio (y) = 0.26069 -0.17090
# Poissons Ratio (z) = 0.11996 -0.06296
#
# Static dielectric constant tensor:
#      x y z
#    x 2.157630 0.000000 -0.082920 
#    y 0.000000 1.972590 0.000000 
#    z -0.082920 0.000000 2.034380 
# 
# From -- ./inp_files/28630.got.cif
#   From: 2010.05.17/outbox.cif.g08.bks.cpg/sg15_15_cif.got.tgz:28630.got - 2010.06.03 18:47:42.
