data_PCOD9268676
_publ_section_title
;
Structure prediction by ZEFSAII (Michael W. Deem and Ramdas Pophale) SiO2 
 PCOD9268676
Probable space group: C 2/C
;
_chemical_formula_sum "Si O2"
_cell_formula_units_Z 64
_cell_length_a 6.939944
_cell_length_b 23.793198
_cell_length_c 16.251060
_cell_angle_alpha 90.000000
_cell_angle_beta 102.134924
_cell_angle_gamma 90.000000
_cell_volume 2623.470775
_symmetry_space_group_name_H-M "C 2/C"
_symmetry_group_IT_number 15
_symmetry_cell_setting 'monoclinic'
loop_
_space_group_symop_operation_xyz
x,y,z
-x,y,1/2-z
-x,-y,-z
x,-y,1/2+z
1/2+x,1/2+y,z
1/2-x,1/2+y,1/2-z
1/2-x,1/2-y,-z
1/2+x,1/2-y,1/2+z
loop_
_atom_site_type_symbol
_atom_site_label
_atom_site_fract_x
_atom_site_fract_y
_atom_site_fract_z
Si Si1 0.609698 0.859676 0.100588
Si Si2 0.364657 0.622571 0.380587
Si Si3 0.280800 0.955186 0.769328
Si Si4 0.792259 0.084553 0.763255
Si Si5 0.948056 0.867224 0.436420
Si Si6 0.371285 0.751182 0.864528
Si Si7 0.309854 0.746220 0.324123
Si Si8 0.923279 0.623615 0.420459
O O1 0.627692 0.887249 0.191566
O O2 0.827536 0.866864 0.079763
O O3 0.577468 0.793863 0.115008
O O4 0.460035 0.884392 0.020639
O O5 0.355610 0.578201 0.306767
O O6 0.518925 0.612699 0.467625
O O7 0.391659 0.684407 0.345632
O O8 0.144142 0.622560 0.400323
O O9 0.500000 0.954558 0.750000
O O10 0.303781 0.922323 0.857454
O O11 0.217856 0.019634 0.762941
O O12 0.000000 0.109784 0.750000
O O13 0.813624 0.096469 0.862056
O O14 0.876791 0.802602 0.424112
O O15 0.222922 0.741358 0.775079
O O16 0.589732 0.753130 0.843356
O O17 0.344891 0.813128 0.898983
#
# Coordination Sequence:
#
# PCOD9268676 Si02
#       8
#     8   8   8   8   8   8   8   8
#     4   9  16  26  42  65  92 119 146 182 229 274
#     4   9  16  26  42  65  92 119 146 182 229 274
#     4  10  20  33  47  65  91 122 157 190 220 260
#     4  10  20  33  47  65  91 122 157 190 220 260
#     4   9  16  26  42  65  92 119 146 182 229 274
#     4   9  13  21  39  64  93 118 140 176 230 280
#     4   9  13  21  39  64  93 118 140 176 230 280
#     4   9  16  26  42  65  92 119 146 182 229 274
#
# _framework density 24.395164999999999
#
# number of rings (size 3 to 8) (size 9 to 14) (size 15 to 20)
#    0.000    2.750    2.500    0.750    0.000    4.000 
#    0.000    0.000    0.000    0.000    0.000    3.500 
#    0.000    4.000    0.000    0.000    0.000    0.000 
#
# Total GULP energy -179053.572968 kJ/mol
# GULP energy per Si atom -5595.424155 kJ/mol
# Density = 2.433964 g / cm^3
# Si number density = 24.395165 Si / 1000 Ang^3
#
#
#
# Elastic Constant Matrix: (Units=GPa)
#
#
# Indices 1 2 3 4 5 6 
#
# 1 102.3322 -14.9179 24.7909 0.0000 14.4706 0.0000
# 2 -14.9179 98.3511 34.9296 0.0000 14.1265 0.0000
# 3 24.7909 34.9296 153.4853 0.0000 21.8924 0.0000
# 4 0.0000 0.0000 0.0000 13.3337 0.0000 7.7081
# 5 14.4706 14.1265 21.8924 0.0000 45.6975 0.0000
# 6 0.0000 0.0000 0.0000 7.7081 0.0000 11.6297
#
#
#
# Elastic Compliance Matrix: (Units=1/GPa)
#
#
# Indices 1 2 3 4 5 6 
#
# 1 0.011162 0.002891 -0.001963 0.000000 -0.003488 0.000000
# 2 0.002891 0.012056 -0.002735 0.000000 -0.003332 0.000000
# 3 -0.001963 -0.002735 0.007777 0.000000 -0.002258 0.000000
# 4 0.000000 0.000000 0.000000 0.121585 0.000000 -0.080586
# 5 -0.003488 -0.003332 -0.002258 0.000000 0.025099 0.000000
# 6 0.000000 0.000000 0.000000 -0.080586 0.000000 0.139399
#
#
# Mechanical properties :
#
#
# Convention : Reuss Voigt Hill
#
# Bulk Modulus (GPa) = 36.52185 49.30819 42.91502
# Shear Modulus (GPa) = 15.15975 34.75659 24.95817
#
# Velocity S-wave (km/s) = 2.49554 3.77866 3.20203
# Velocity P-wave (km/s) = 4.82774 6.26848 5.59468
#
# Compressibility (1/GPa) = 0.02738087
#
# Stress axis : x y z
#
# Youngs Moduli (GPa) = 89.58568 82.94386 128.58293
#
# Poissons Ratio (x) = -0.23983 0.25247
# Poissons Ratio (y) = -0.25903 0.35174
# Poissons Ratio (z) = 0.17590 0.22689
#
# Static dielectric constant tensor:
#      x y z
#    x 2.065470 0.000000 -0.019940 
#    y 0.000000 1.847320 0.000000 
#    z -0.019940 0.000000 1.898440 
# 
# From -- ./inp_files/107298.got.cif
#   From: 2010.05.17/outbox.cif.g08.bks.cpg/sg15_54_cif.got.tgz:107298.got - 2010.06.03 18:47:42.
