data_PCOD9268490
_publ_section_title
;
Structure prediction by ZEFSAII (Michael W. Deem and Ramdas Pophale) SiO2 
 PCOD9268490
Probable space group: C 2/C
;
_chemical_formula_sum "Si O2"
_cell_formula_units_Z 36
_cell_length_a 25.568039
_cell_length_b 11.679809
_cell_length_c 14.694208
_cell_angle_alpha 90.000000
_cell_angle_beta 160.502232
_cell_angle_gamma 90.000000
_cell_volume 1464.626278
_symmetry_space_group_name_H-M "C 2/C"
_symmetry_group_IT_number 15
_symmetry_cell_setting 'monoclinic'
loop_
_space_group_symop_operation_xyz
x,y,z
-x,y,1/2-z
-x,-y,-z
x,-y,1/2+z
1/2+x,1/2+y,z
1/2-x,1/2+y,1/2-z
1/2-x,1/2-y,-z
1/2+x,1/2-y,1/2+z
loop_
_atom_site_type_symbol
_atom_site_label
_atom_site_fract_x
_atom_site_fract_y
_atom_site_fract_z
Si Si1 0.042018 0.559187 0.226114
Si Si2 0.298079 0.170770 0.161317
Si Si3 0.000000 0.029872 0.750000
Si Si4 0.858525 0.023214 0.333867
Si Si5 0.631850 0.182941 0.033588
O O1 0.055718 0.607538 0.147768
O O2 0.214778 0.520312 0.537459
O O3 0.000000 0.630406 0.250000
O O4 0.932422 0.446587 0.047593
O O5 0.348627 0.236116 0.335631
O O6 0.250000 0.250000 0.000000
O O7 0.144037 0.098514 0.937887
O O8 0.908975 0.973076 0.515412
O O9 0.000000 0.000000 0.500000
O O10 0.798488 0.153455 0.260080
O O11 0.500000 0.231036 0.750000
#
# Coordination Sequence:
#
# PCOD9268490 Si02
#       5
#     8   8   4   8   8
#     4   9  18  33  54  79 104 137 183 220 260 323
#     4  11  21  32  54  77 110 140 176 221 270 325
#     4  10  20  32  52  78 104 140 170 218 280 308
#     4   9  15  30  52  76 103 131 175 226 264 301
#     4   8  18  34  54  77 101 143 183 218 266 321
#
# _framework density 24.579649
#
# number of rings (size 3 to 8) (size 9 to 14) (size 15 to 20)
#    0.000    3.111    2.222    0.667    1.556    0.000 
#    0.000    0.000    2.444   12.000    0.000    0.000 
#    0.000    0.000    0.000    0.000    0.000    0.000 
#
# Total GULP energy -100204.110938 kJ/mol
# GULP energy per Si atom -5566.895052 kJ/mol
# Density = 2.452370 g / cm^3
# Si number density = 24.579649 Si / 1000 Ang^3
#
#
#
# Elastic Constant Matrix: (Units=GPa)
#
#
# Indices 1 2 3 4 5 6 
#
# 1 205.7433 25.8944 40.5140 0.0000 -7.3683 0.0000
# 2 25.8944 34.0856 1.9228 0.0000 -2.4513 0.0000
# 3 40.5140 1.9228 105.5182 0.0000 -3.1180 0.0000
# 4 0.0000 0.0000 0.0000 22.4835 0.0000 -13.2195
# 5 -7.3683 -2.4513 -3.1180 0.0000 68.9879 0.0000
# 6 0.0000 0.0000 0.0000 -13.2195 0.0000 32.3550
#
#
#
# Elastic Compliance Matrix: (Units=1/GPa)
#
#
# Indices 1 2 3 4 5 6 
#
# 1 0.005837 -0.004286 -0.002152 0.000000 0.000374 0.000000
# 2 -0.004286 0.032587 0.001074 0.000000 0.000749 0.000000
# 3 -0.002152 0.001074 0.010292 0.000000 0.000273 0.000000
# 4 0.000000 0.000000 0.000000 0.058540 0.000000 0.023918
# 5 0.000374 0.000749 0.000273 0.000000 0.014574 0.000000
# 6 0.000000 0.000000 0.000000 0.023918 0.000000 0.040680
#
#
# Mechanical properties :
#
#
# Convention : Reuss Voigt Hill
#
# Bulk Modulus (GPa) = 26.32416 53.55660 39.94038
# Shear Modulus (GPa) = 26.89605 43.23300 35.06453
#
# Velocity S-wave (km/s) = 3.31152 4.19847 3.78109
# Velocity P-wave (km/s) = 5.03533 6.73343 5.94532
#
# Compressibility (1/GPa) = 0.03798792
#
# Stress axis : x y z
#
# Youngs Moduli (GPa) = 171.32082 30.68687 97.16460
#
# Poissons Ratio (x) = 0.13152 0.20910
# Poissons Ratio (y) = 0.73428 -0.10435
# Poissons Ratio (z) = 0.36868 -0.03296
#
# Static dielectric constant tensor:
#      x y z
#    x 2.056710 0.000000 0.070350 
#    y 0.000000 2.217220 0.000000 
#    z 0.070350 0.000000 2.031720 
# 
# From -- ./inp_files/174029.got.cif
#   From: 2010.05.17/outbox.cif.g08.bks.cpg/sg15_88_cif.got.tgz:174029.got - 2010.06.03 18:47:42.
