data_PCOD9268909
_publ_section_title
;
Structure prediction by ZEFSAII (Michael W. Deem and Ramdas Pophale) SiO2 
 PCOD9268909
Probable space group: C 2/C
;
_chemical_formula_sum "Si O2"
_cell_formula_units_Z 48
_cell_length_a 13.956090
_cell_length_b 23.911018
_cell_length_c 15.151032
_cell_angle_alpha 90.000000
_cell_angle_beta 29.917808
_cell_angle_gamma 90.000000
_cell_volume 2521.698625
_symmetry_space_group_name_H-M "C 2/C"
_symmetry_group_IT_number 15
_symmetry_cell_setting 'monoclinic'
loop_
_space_group_symop_operation_xyz
x,y,z
-x,y,1/2-z
-x,-y,-z
x,-y,1/2+z
1/2+x,1/2+y,z
1/2-x,1/2+y,1/2-z
1/2-x,1/2-y,-z
1/2+x,1/2-y,1/2+z
loop_
_atom_site_type_symbol
_atom_site_label
_atom_site_fract_x
_atom_site_fract_y
_atom_site_fract_z
Si Si1 0.217888 0.685161 0.044397
Si Si2 0.775637 0.570486 0.831623
Si Si3 0.784015 0.576356 0.570141
Si Si4 0.784941 0.545953 0.219295
Si Si5 0.214135 0.541788 0.487582
Si Si6 0.503559 0.615590 0.565014
O O1 0.000000 0.679179 0.250000
O O2 0.250000 0.750000 0.000000
O O3 0.222398 0.638515 0.963937
O O4 0.386585 0.666155 0.976404
O O5 0.745126 0.513063 0.800261
O O6 0.694839 0.566049 0.995814
O O7 0.679115 0.620811 0.854630
O O8 0.004665 0.570172 0.654218
O O9 0.786866 0.525665 0.497588
O O10 0.591530 0.577080 0.782748
O O11 0.987982 0.562768 0.455858
O O12 0.662659 0.587804 0.375929
O O13 0.727326 0.546103 0.162113
#
# Coordination Sequence:
#
# PCOD9268909 Si02
#       6
#     8   8   8   8   8   8
#     4  12  26  45  65  91 122 159 214 272 330 377
#     4  10  20  33  55  88 123 169 210 247 301 364
#     4  11  21  39  58  87 125 165 206 256 309 361
#     4  11  20  37  56  84 132 167 213 248 297 381
#     4  10  20  35  58  88 135 174 203 248 298 378
#     4  12  22  37  60  85 120 163 207 255 310 372
#
# _framework density 19.034789
#
# number of rings (size 3 to 8) (size 9 to 14) (size 15 to 20)
#    0.000    1.000    5.000    4.000    2.333    0.667 
#    0.000    0.000    0.000    0.000    0.000    1.167 
#    5.000    0.167    0.000    0.000    0.000    0.000 
#
# Total GULP energy -133610.630821 kJ/mol
# GULP energy per Si atom -5567.109618 kJ/mol
# Density = 1.899147 g / cm^3
# Si number density = 19.034789 Si / 1000 Ang^3
#
#
#
# Elastic Constant Matrix: (Units=GPa)
#
#
# Indices 1 2 3 4 5 6 
#
# 1 132.4147 55.3763 48.7585 -0.0193 4.2610 0.0341
# 2 55.3763 86.8163 16.7915 0.0189 -2.5675 0.0120
# 3 48.7585 16.7915 97.8984 0.0447 -11.8486 -0.0043
# 4 -0.0193 0.0189 0.0447 12.3342 -0.0245 3.1363
# 5 4.2610 -2.5675 -11.8486 -0.0245 39.0801 -0.0125
# 6 0.0341 0.0120 -0.0043 3.1363 -0.0125 19.3745
#
#
#
# Elastic Compliance Matrix: (Units=1/GPa)
#
#
# Indices 1 2 3 4 5 6 
#
# 1 0.012676 -0.007122 -0.005518 0.000051 -0.003523 -0.000030
# 2 -0.007122 0.015917 0.001077 -0.000038 0.002149 0.000010
# 3 -0.005518 0.001077 0.013349 -0.000055 0.004720 0.000024
# 4 0.000051 -0.000038 -0.000055 0.084556 0.000024 -0.013688
# 5 -0.003523 0.002149 0.004720 0.000024 0.027545 0.000020
# 6 -0.000030 0.000010 0.000024 -0.013688 0.000020 0.053830
#
#
# Mechanical properties :
#
#
# Convention : Reuss Voigt Hill
#
# Bulk Modulus (GPa) = 53.14615 62.10911 57.62763
# Shear Modulus (GPa) = 21.07293 27.23796 24.15544
#
# Velocity S-wave (km/s) = 3.33088 3.78690 3.56619
# Velocity P-wave (km/s) = 6.54020 7.19868 6.87732
#
# Compressibility (1/GPa) = 0.01881604
#
# Stress axis : x y z
#
# Youngs Moduli (GPa) = 78.88999 62.82679 74.90967
#
# Poissons Ratio (x) = 0.44747 0.41335
# Poissons Ratio (y) = 0.56188 -0.08070
# Poissons Ratio (z) = 0.43532 -0.06769
#
# Static dielectric constant tensor:
#      x y z
#    x 1.775170 -0.000100 0.003460 
#    y -0.000100 1.845950 0.000050 
#    z 0.003460 0.000050 1.756990 
# 
# From -- ./inp_files/156740.got.cif
#   From: 2010.05.17/outbox.cif.g08.bks.cpg/sg15_79_cif.got.tgz:156740.got - 2010.06.03 18:47:42.
