data_PCOD9268321
_publ_section_title
;
Structure prediction by ZEFSAII (Michael W. Deem and Ramdas Pophale) SiO2 
 PCOD9268321
Probable space group: C 2/C
;
_chemical_formula_sum "Si O2"
_cell_formula_units_Z 40
_cell_length_a 13.140089
_cell_length_b 11.526660
_cell_length_c 12.318181
_cell_angle_alpha 90.000000
_cell_angle_beta 117.938519
_cell_angle_gamma 90.000000
_cell_volume 1648.279144
_symmetry_space_group_name_H-M "C 2/C"
_symmetry_group_IT_number 15
_symmetry_cell_setting 'monoclinic'
loop_
_space_group_symop_operation_xyz
x,y,z
-x,y,1/2-z
-x,-y,-z
x,-y,1/2+z
1/2+x,1/2+y,z
1/2-x,1/2+y,1/2-z
1/2-x,1/2-y,-z
1/2+x,1/2-y,1/2+z
loop_
_atom_site_type_symbol
_atom_site_label
_atom_site_fract_x
_atom_site_fract_y
_atom_site_fract_z
Si Si1 0.304071 0.599632 0.215821
Si Si2 0.484034 0.349690 0.513853
Si Si3 0.865195 0.569551 0.178575
Si Si4 0.851405 0.065343 0.549381
Si Si5 0.613998 0.193873 0.878444
O O1 0.407699 0.625958 0.351394
O O2 0.190617 0.579738 0.230027
O O3 0.334853 0.486710 0.160014
O O4 0.303084 0.707990 0.131400
O O5 0.392968 0.451426 0.497848
O O6 0.538855 0.353955 0.422248
O O7 0.429167 0.230104 0.524374
O O8 0.855773 0.438094 0.126988
O O9 0.000000 0.600921 0.250000
O O10 0.766491 0.623998 0.051708
O O11 0.500000 0.209110 0.750000
#
# Coordination Sequence:
#
# PCOD9268321 Si02
#       5
#     8   8   8   8   8
#     4   9  17  30  49  70  96 122 154 196 234 271
#     4   8  15  28  48  73  93 115 152 196 234 269
#     4  10  20  31  47  69  96 129 159 186 228 283
#     4   9  16  28  49  71  95 121 151 193 239 275
#     4   8  15  30  50  69  92 119 154 195 231 272
#
# _framework density 24.267734000000001
#
# number of rings (size 3 to 8) (size 9 to 14) (size 15 to 20)
#    0.000    3.200    0.000    1.800    0.000    4.000 
#    0.000    0.000    0.000   34.800    0.000    0.000 
#    0.000    0.000    0.000    0.000    0.000    0.000 
#
# Total GULP energy -111487.504676 kJ/mol
# GULP energy per Si atom -5574.375234 kJ/mol
# Density = 2.421250 g / cm^3
# Si number density = 24.267734 Si / 1000 Ang^3
#
#
#
# Elastic Constant Matrix: (Units=GPa)
#
#
# Indices 1 2 3 4 5 6 
#
# 1 193.3605 36.4294 61.4950 0.0000 17.8933 0.0000
# 2 36.4294 71.6366 18.0116 0.0000 -16.0893 0.0000
# 3 61.4950 18.0116 62.3117 0.0000 2.7412 0.0000
# 4 0.0000 0.0000 0.0000 24.0981 0.0000 -3.3817
# 5 17.8933 -16.0893 2.7412 0.0000 43.4568 0.0000
# 6 0.0000 0.0000 0.0000 -3.3817 0.0000 21.8659
#
#
#
# Elastic Compliance Matrix: (Units=1/GPa)
#
#
# Indices 1 2 3 4 5 6 
#
# 1 0.008528 -0.003501 -0.007213 0.000000 -0.004352 0.000000
# 2 -0.003501 0.018144 -0.002155 0.000000 0.008295 0.000000
# 3 -0.007213 -0.002155 0.023760 0.000000 0.000673 0.000000
# 4 0.000000 0.000000 0.000000 0.042418 0.000000 0.006560
# 5 -0.004352 0.008295 0.000673 0.000000 0.027832 0.000000
# 6 0.000000 0.000000 0.000000 0.006560 0.000000 0.046748
#
#
# Mechanical properties :
#
#
# Convention : Reuss Voigt Hill
#
# Bulk Modulus (GPa) = 40.49321 62.13119 51.31220
# Shear Modulus (GPa) = 24.82644 31.97568 28.40106
#
# Velocity S-wave (km/s) = 3.20194 3.63384 3.42471
# Velocity P-wave (km/s) = 5.51291 6.57757 6.06863
#
# Compressibility (1/GPa) = 0.02469550
#
# Stress axis : x y z
#
# Youngs Moduli (GPa) = 117.26238 55.11343 42.08795
#
# Poissons Ratio (x) = 0.19294 0.30357
# Poissons Ratio (y) = 0.41050 0.09069
# Poissons Ratio (z) = 0.84578 0.11876
#
# Static dielectric constant tensor:
#      x y z
#    x 1.957200 0.000000 0.024050 
#    y 0.000000 2.019270 0.000000 
#    z 0.024050 0.000000 2.017760 
# 
# From -- ./inp_files/142498.got.cif
#   From: 2010.05.17/outbox.cif.g08.bks.cpg/sg15_72_cif.got.tgz:142498.got - 2010.06.03 18:47:42.
