data_PCOD9268971
_publ_section_title
;
Structure prediction by ZEFSAII (Michael W. Deem and Ramdas Pophale) SiO2 
 PCOD9268971
Probable space group: C 2/C
;
_chemical_formula_sum "Si O2"
_cell_formula_units_Z 56
_cell_length_a 5.946617
_cell_length_b 16.819445
_cell_length_c 29.975385
_cell_angle_alpha 90.000000
_cell_angle_beta 123.356248
_cell_angle_gamma 90.000000
_cell_volume 2504.218559
_symmetry_space_group_name_H-M "C 2/C"
_symmetry_group_IT_number 15
_symmetry_cell_setting 'monoclinic'
loop_
_space_group_symop_operation_xyz
x,y,z
-x,y,1/2-z
-x,-y,-z
x,-y,1/2+z
1/2+x,1/2+y,z
1/2-x,1/2+y,1/2-z
1/2-x,1/2-y,-z
1/2+x,1/2-y,1/2+z
loop_
_atom_site_type_symbol
_atom_site_label
_atom_site_fract_x
_atom_site_fract_y
_atom_site_fract_z
Si Si1 0.466777 0.950865 0.116706
Si Si2 0.982450 0.177370 0.950197
Si Si3 0.681751 0.042961 0.224917
Si Si4 0.923693 0.810194 0.605954
Si Si5 0.701721 0.395537 0.564526
Si Si6 0.160879 0.175745 0.876396
Si Si7 0.810538 0.310377 0.831771
O O1 0.247165 0.881503 0.093767
O O2 0.742722 0.909763 0.129986
O O3 0.522730 0.994057 0.169376
O O4 0.325464 0.017685 0.070570
O O5 0.845140 0.263701 0.939063
O O6 0.196398 0.177724 0.933646
O O7 0.085817 0.143660 0.007718
O O8 0.500000 0.032730 0.250000
O O9 0.685716 0.136595 0.211549
O O10 0.000000 0.019755 0.250000
O O11 0.927147 0.827731 0.659100
O O12 0.984171 0.884880 0.580804
O O13 0.143966 0.741552 0.623234
O O14 0.948850 0.346449 0.611887
O O15 0.871032 0.216413 0.833862
#
# Coordination Sequence:
#
# PCOD9268971 Si02
#       7
#     8   8   8   8   8   8   8
#     4  10  23  39  61  90 128 173 205 276 326 406
#     4  10  20  35  58  89 132 176 214 259 321 394
#     4  11  27  46  75  98 123 163 224 283 346 401
#     4   9  19  35  58  86 128 167 218 262 319 377
#     4  10  20  33  57  93 128 170 223 257 319 385
#     4   9  20  37  60  85 132 167 210 257 330 390
#     4   9  21  39  64  90 121 166 210 280 322 393
#
# _framework density 22.362266999999999
#
# number of rings (size 3 to 8) (size 9 to 14) (size 15 to 20)
#    0.000    2.286    0.000    0.857    8.000    9.143 
#    0.000    0.714    0.000    0.000    0.000    0.000 
#    0.000    0.000    0.000    0.000    0.000    0.000 
#
# Total GULP energy -155875.671749 kJ/mol
# GULP energy per Si atom -5566.988277 kJ/mol
# Density = 2.231137 g / cm^3
# Si number density = 22.362267 Si / 1000 Ang^3
#
#
#
# Elastic Constant Matrix: (Units=GPa)
#
#
# Indices 1 2 3 4 5 6 
#
# 1 80.4469 14.2584 35.8815 0.0001 -20.5674 0.0001
# 2 14.2584 75.2410 3.1485 0.0000 3.2890 0.0000
# 3 35.8815 3.1485 83.8545 0.0000 -4.9926 0.0000
# 4 0.0001 0.0000 0.0000 25.9072 0.0000 -0.6339
# 5 -20.5674 3.2890 -4.9926 0.0000 30.4787 0.0001
# 6 0.0001 0.0000 0.0000 -0.6339 0.0001 32.1408
#
#
#
# Elastic Compliance Matrix: (Units=1/GPa)
#
#
# Indices 1 2 3 4 5 6 
#
# 1 0.019680 -0.003960 -0.007530 0.000000 0.012474 0.000000
# 2 -0.003960 0.014180 0.000921 0.000000 -0.004051 0.000000
# 3 -0.007530 0.000921 0.014950 0.000000 -0.002732 0.000000
# 4 0.000000 0.000000 0.000000 0.038618 0.000000 0.000762
# 5 0.012474 -0.004051 -0.002732 0.000000 0.041217 0.000000
# 6 0.000000 0.000000 0.000000 0.000762 0.000000 0.031128
#
#
# Mechanical properties :
#
#
# Convention : Reuss Voigt Hill
#
# Bulk Modulus (GPa) = 36.13699 38.45768 37.29733
# Shear Modulus (GPa) = 26.29717 30.12228 28.20972
#
# Velocity S-wave (km/s) = 3.43295 3.67415 3.55560
# Velocity P-wave (km/s) = 5.64875 5.93583 5.79407
#
# Compressibility (1/GPa) = 0.02767248
#
# Stress axis : x y z
#
# Youngs Moduli (GPa) = 50.81299 70.52405 66.88874
#
# Poissons Ratio (x) = 0.27925 0.50365
# Poissons Ratio (y) = 0.20120 -0.06159
# Poissons Ratio (z) = 0.38261 -0.06493
#
# Static dielectric constant tensor:
#      x y z
#    x 2.060840 0.000000 0.008130 
#    y 0.000000 1.897800 0.000000 
#    z 0.008130 0.000000 1.820420 
# 
# From -- ./inp_files/286126.got.cif
#   From: 2010.05.17/outbox.cif.g08.bks.cpg/sg15_144_cif.got.tgz:286126.got - 2010.06.03 18:47:42.
