data_PCOD9268253
_publ_section_title
;
Structure prediction by ZEFSAII (Michael W. Deem and Ramdas Pophale) SiO2 
 PCOD9268253
Probable space group: C 2/C
;
_chemical_formula_sum "Si O2"
_cell_formula_units_Z 52
_cell_length_a 13.991193
_cell_length_b 27.499488
_cell_length_c 12.996799
_cell_angle_alpha 90.000000
_cell_angle_beta 148.448639
_cell_angle_gamma 90.000000
_cell_volume 2616.589033
_symmetry_space_group_name_H-M "C 2/C"
_symmetry_group_IT_number 15
_symmetry_cell_setting 'monoclinic'
loop_
_space_group_symop_operation_xyz
x,y,z
-x,y,1/2-z
-x,-y,-z
x,-y,1/2+z
1/2+x,1/2+y,z
1/2-x,1/2+y,1/2-z
1/2-x,1/2-y,-z
1/2+x,1/2-y,1/2+z
loop_
_atom_site_type_symbol
_atom_site_label
_atom_site_fract_x
_atom_site_fract_y
_atom_site_fract_z
Si Si1 0.663747 0.522705 0.557378
Si Si2 0.787624 0.143586 0.580687
Si Si3 0.599178 0.940999 0.033943
Si Si4 0.936445 0.268948 0.572283
Si Si5 0.818302 0.070993 0.312477
Si Si6 0.237457 0.828438 0.661041
Si Si7 0.000000 0.509120 0.750000
O O1 0.466897 0.547994 0.371263
O O2 0.646348 0.463927 0.554375
O O3 0.813388 0.535962 0.609710
O O4 0.762345 0.537926 0.754877
O O5 0.697471 0.104818 0.572516
O O6 0.740830 0.196421 0.584178
O O7 0.700737 0.143710 0.386865
O O8 0.000000 0.135894 0.750000
O O9 0.401062 0.931496 0.904750
O O10 0.554228 0.976886 0.898515
O O11 0.082245 0.299499 0.639465
O O12 0.000000 0.266324 0.750000
O O13 0.892578 0.216088 0.489048
O O14 0.852461 0.128430 0.357627
#
# Coordination Sequence:
#
# PCOD9268253 Si02
#       7
#     8   8   8   8   8   8   4
#     4  10  22  37  57  80 106 143 182 228 269 323
#     4  11  19  29  47  73 102 148 187 212 258 312
#     4  11  21  37  55  79 110 147 185 224 264 322
#     4  10  20  30  44  69 106 143 185 219 252 309
#     4  10  20  37  53  74 107 142 182 223 266 312
#     4  11  19  32  47  69 108 146 182 216 259 313
#     4  10  20  36  56  78 110 140 182 224 280 314
#
# _framework density 19.873201000000002
#
# number of rings (size 3 to 8) (size 9 to 14) (size 15 to 20)
#    0.000    1.538    1.538    7.846    1.077    1.231 
#    0.000    5.385    0.000    0.000    0.000    0.000 
#    0.000    4.923    0.923    0.154    0.000    0.000 
#
# Total GULP energy -144999.601130 kJ/mol
# GULP energy per Si atom -5576.907736 kJ/mol
# Density = 1.982797 g / cm^3
# Si number density = 19.873201 Si / 1000 Ang^3
#
#
#
# Elastic Constant Matrix: (Units=GPa)
#
#
# Indices 1 2 3 4 5 6 
#
# 1 92.7610 42.9239 39.5532 0.0000 43.3832 0.0000
# 2 42.9239 137.3628 33.9775 0.0000 25.5541 0.0000
# 3 39.5532 33.9775 83.9065 0.0000 32.3596 0.0000
# 4 0.0000 0.0000 0.0000 20.1249 0.0000 8.6336
# 5 43.3832 25.5541 32.3596 0.0000 45.5162 0.0000
# 6 0.0000 0.0000 0.0000 8.6336 0.0000 35.4360
#
#
#
# Elastic Compliance Matrix: (Units=1/GPa)
#
#
# Indices 1 2 3 4 5 6 
#
# 1 0.020864 -0.002861 -0.002241 0.000000 -0.016687 0.000000
# 2 -0.002861 0.008802 -0.001876 0.000000 -0.000881 0.000000
# 3 -0.002241 -0.001876 0.017228 0.000000 -0.009059 0.000000
# 4 0.000000 0.000000 0.000000 0.055490 0.000000 -0.013519
# 5 -0.016687 -0.000881 -0.009059 0.000000 0.044810 0.000000
# 6 0.000000 0.000000 0.000000 -0.013519 0.000000 0.031514
#
#
# Mechanical properties :
#
#
# Convention : Reuss Voigt Hill
#
# Bulk Modulus (GPa) = 30.36055 60.77105 45.56580
# Shear Modulus (GPa) = 24.55285 33.38714 28.97000
#
# Velocity S-wave (km/s) = 3.51875 4.10324 3.82218
# Velocity P-wave (km/s) = 5.64084 7.28660 6.51589
#
# Compressibility (1/GPa) = 0.03293748
#
# Stress axis : x y z
#
# Youngs Moduli (GPa) = 47.92915 113.61141 58.04606
#
# Poissons Ratio (x) = 0.32505 0.13010
# Poissons Ratio (y) = 0.13713 0.10888
# Poissons Ratio (z) = 0.10742 0.21311
#
# Static dielectric constant tensor:
#      x y z
#    x 1.746090 0.000000 0.055390 
#    y 0.000000 1.764110 0.000000 
#    z 0.055390 0.000000 1.816110 
# 
# From -- ./inp_files/92663.got.cif
#   From: 2010.05.17/outbox.cif.g08.bks.cpg/sg15_47_cif.got.tgz:92663.got - 2010.06.03 18:47:42.
