data_PCOD9268988
_publ_section_title
;
Structure prediction by ZEFSAII (Michael W. Deem and Ramdas Pophale) SiO2 
 PCOD9268988
Probable space group: C 2/C
;
_chemical_formula_sum "Si O2"
_cell_formula_units_Z 64
_cell_length_a 18.724349
_cell_length_b 20.947290
_cell_length_c 10.842166
_cell_angle_alpha 90.000000
_cell_angle_beta 58.686720
_cell_angle_gamma 90.000000
_cell_volume 3633.126741
_symmetry_space_group_name_H-M "C 2/C"
_symmetry_group_IT_number 15
_symmetry_cell_setting 'monoclinic'
loop_
_space_group_symop_operation_xyz
x,y,z
-x,y,1/2-z
-x,-y,-z
x,-y,1/2+z
1/2+x,1/2+y,z
1/2-x,1/2+y,1/2-z
1/2-x,1/2-y,-z
1/2+x,1/2-y,1/2+z
loop_
_atom_site_type_symbol
_atom_site_label
_atom_site_fract_x
_atom_site_fract_y
_atom_site_fract_z
Si Si1 0.185632 0.356581 0.368026
Si Si2 0.412776 0.968493 0.758842
Si Si3 0.260067 0.869125 0.586193
Si Si4 0.589300 0.834830 0.228517
Si Si5 0.320872 0.003037 0.595574
Si Si6 0.407206 0.691029 0.354966
Si Si7 0.176572 0.243844 0.832892
Si Si8 0.594563 0.178876 0.197711
O O1 0.103752 0.356787 0.354239
O O2 0.220713 0.428386 0.341240
O O3 0.253117 0.308589 0.253117
O O4 0.153747 0.331516 0.527216
O O5 0.500000 0.983509 0.750000
O O6 0.409938 0.892124 0.739859
O O7 0.389460 0.996765 0.645471
O O8 0.351135 0.988657 0.926103
O O9 0.333949 0.864185 0.417863
O O10 0.168575 0.855179 0.613793
O O11 0.281127 0.807944 0.651378
O O12 0.268717 0.937465 0.644039
O O13 0.500000 0.852160 0.250000
O O14 0.596725 0.757916 0.217060
O O15 0.500000 0.664632 0.250000
O O16 0.388607 0.715703 0.509767
O O17 0.131237 0.267273 0.751820
O O18 0.500000 0.195768 0.250000
#
# Coordination Sequence:
#
# PCOD9268988 Si02
#       8
#     8   8   8   8   8   8   8   8
#     4  11  22  37  54  85 117 159 191 233 289 351
#     4  10  21  37  53  83 121 162 194 228 279 351
#     4  11  20  37  59  85 114 152 190 243 289 342
#     4  10  20  33  58  89 117 148 189 234 282 346
#     4  11  23  35  57  81 118 157 195 237 288 345
#     4  10  21  36  62  91 108 143 195 254 301 332
#     4  11  20  39  60  80 119 148 197 241 289 345
#     4  10  23  35  55  82 118 159 196 230 283 347
#
# _framework density 17.615680999999999
#
# number of rings (size 3 to 8) (size 9 to 14) (size 15 to 20)
#    0.000    1.500    3.750    2.250    5.250    3.000 
#    0.000    0.000    0.000    1.500    0.000    0.000 
#    0.000    0.000    0.000    0.000    0.000    0.000 
#
# Total GULP energy -178403.477106 kJ/mol
# GULP energy per Si atom -5575.108660 kJ/mol
# Density = 1.757559 g / cm^3
# Si number density = 17.615681 Si / 1000 Ang^3
#
#
#
# Elastic Constant Matrix: (Units=GPa)
#
#
# Indices 1 2 3 4 5 6 
#
# 1 111.0947 51.2639 42.6751 0.0000 -3.4925 0.0000
# 2 51.2639 103.6013 35.1486 0.0000 0.5485 0.0000
# 3 42.6751 35.1486 57.0167 0.0000 -6.1992 0.0000
# 4 0.0000 0.0000 0.0000 10.6272 0.0000 6.7846
# 5 -3.4925 0.5485 -6.1992 0.0000 23.3783 0.0000
# 6 0.0000 0.0000 0.0000 6.7846 0.0000 21.5779
#
#
#
# Elastic Compliance Matrix: (Units=1/GPa)
#
#
# Indices 1 2 3 4 5 6 
#
# 1 0.013976 -0.004263 -0.007820 0.000000 0.000114 0.000000
# 2 -0.004263 0.013632 -0.005475 0.000000 -0.002408 0.000000
# 3 -0.007820 -0.005475 0.027445 0.000000 0.006238 0.000000
# 4 0.000000 0.000000 0.000000 0.117730 0.000000 -0.037017
# 5 0.000114 -0.002408 0.006238 0.000000 0.044502 0.000000
# 6 0.000000 0.000000 0.000000 -0.037017 0.000000 0.057983
#
#
# Mechanical properties :
#
#
# Convention : Reuss Voigt Hill
#
# Bulk Modulus (GPa) = 50.15753 58.87642 54.51698
# Shear Modulus (GPa) = 15.77138 20.62503 18.19821
#
# Velocity S-wave (km/s) = 2.99541 3.42546 3.21763
# Velocity P-wave (km/s) = 6.36383 7.01001 6.69472
#
# Compressibility (1/GPa) = 0.01993719
#
# Stress axis : x y z
#
# Youngs Moduli (GPa) = 71.55083 73.35691 36.43649
#
# Poissons Ratio (x) = 0.31273 0.28494
# Poissons Ratio (y) = 0.30503 0.19948
# Poissons Ratio (z) = 0.55954 0.40161
#
# Static dielectric constant tensor:
#      x y z
#    x 1.618250 0.000000 0.023700 
#    y 0.000000 1.606380 0.000000 
#    z 0.023700 0.000000 1.632680 
# 
# From -- ./inp_files/107310.got.cif
#   From: 2010.05.17/outbox.cif.g08.bks.cpg/sg15_54_cif.got.tgz:107310.got - 2010.06.03 18:47:42.
