data_PCOD9268520
_publ_section_title
;
Structure prediction by ZEFSAII (Michael W. Deem and Ramdas Pophale) SiO2 
 PCOD9268520
Probable space group: C 2/C
;
_chemical_formula_sum "Si O2"
_cell_formula_units_Z 56
_cell_length_a 14.164293
_cell_length_b 30.324243
_cell_length_c 8.895307
_cell_angle_alpha 90.000000
_cell_angle_beta 35.471171
_cell_angle_gamma 90.000000
_cell_volume 2217.141091
_symmetry_space_group_name_H-M "C 2/C"
_symmetry_group_IT_number 15
_symmetry_cell_setting 'monoclinic'
loop_
_space_group_symop_operation_xyz
x,y,z
-x,y,1/2-z
-x,-y,-z
x,-y,1/2+z
1/2+x,1/2+y,z
1/2-x,1/2+y,1/2-z
1/2-x,1/2-y,-z
1/2+x,1/2-y,1/2+z
loop_
_atom_site_type_symbol
_atom_site_label
_atom_site_fract_x
_atom_site_fract_y
_atom_site_fract_z
Si Si1 0.647209 0.390077 0.637415
Si Si2 0.693996 0.702451 0.515607
Si Si3 0.676559 0.861868 0.393197
Si Si4 0.790383 0.048506 0.864563
Si Si5 0.682663 0.544635 0.325059
Si Si6 0.055493 0.295930 0.342173
Si Si7 0.143518 0.201988 0.245722
O O1 0.500000 0.417047 0.750000
O O2 0.752615 0.374691 0.362012
O O3 0.744013 0.417534 0.634051
O O4 0.572030 0.346808 0.815042
O O5 0.500000 0.700086 0.750000
O O6 0.750000 0.750000 0.500000
O O7 0.740692 0.666143 0.579820
O O8 0.744395 0.699177 0.272188
O O9 0.678205 0.911305 0.456565
O O10 0.540588 0.827180 0.506853
O O11 0.986934 0.055491 0.587272
O O12 0.771398 0.002099 0.805822
O O13 0.759304 0.044790 0.081212
O O14 0.025048 0.243843 0.410080
O O15 0.000000 0.312598 0.250000
O O16 0.250166 0.291783 0.043990
#
# Coordination Sequence:
#
# PCOD9268520 Si02
#       7
#     8   8   8   8   8   8   8
#     4  11  19  32  53  79 114 154 198 245 302 375
#     4  12  26  40  59  88 123 168 217 269 321 377
#     4  11  22  37  56  87 113 165 204 252 314 381
#     4  10  20  33  52  82 121 152 202 236 317 383
#     4  10  20  32  53  84 118 161 185 254 303 379
#     4  10  22  40  61  84 117 158 217 266 317 377
#     4  10  22  37  58  84 115 161 208 258 319 368
#
# _framework density 25.257750000000001
#
# number of rings (size 3 to 8) (size 9 to 14) (size 15 to 20)
#    0.000    1.429    2.857    3.000    6.000    0.000 
#    0.000    0.000    0.000    0.000    0.000    9.000 
#    0.000    4.571    0.000    0.857    0.000    0.000 
#
# Total GULP energy -156179.703995 kJ/mol
# GULP energy per Si atom -5577.846571 kJ/mol
# Density = 2.520026 g / cm^3
# Si number density = 25.257750 Si / 1000 Ang^3
#
#
#
# Elastic Constant Matrix: (Units=GPa)
#
#
# Indices 1 2 3 4 5 6 
#
# 1 152.0177 75.9452 37.5640 0.0000 50.6242 0.0000
# 2 75.9452 176.6721 47.7173 0.0000 30.0171 0.0000
# 3 37.5640 47.7173 104.7179 0.0000 49.4949 0.0000
# 4 0.0000 0.0000 0.0000 7.8336 0.0000 27.6317
# 5 50.6242 30.0171 49.4949 0.0000 46.3036 0.0000
# 6 0.0000 0.0000 0.0000 27.6317 0.0000 48.4993
#
#
#
# Elastic Compliance Matrix: (Units=1/GPa)
#
#
# Indices 1 2 3 4 5 6 
#
# 1 0.013123 -0.004141 0.005441 0.000000 -0.017480 0.000000
# 2 -0.004141 0.007864 -0.003695 0.000000 0.003379 0.000000
# 3 0.005441 -0.003695 0.022153 0.000000 -0.027234 0.000000
# 4 0.000000 0.000000 0.000000 -0.126436 0.000000 0.072035
# 5 -0.017480 0.003379 -0.027234 0.000000 0.067627 0.000000
# 6 0.000000 0.000000 0.000000 0.072035 0.000000 -0.020422
#
#
# Mechanical properties :
#
#
# Convention : Reuss Voigt Hill
#
# Bulk Modulus (GPa) = 26.07524 83.98452 55.02988
# Shear Modulus (GPa) = -270.03304 38.67273 -115.68015
#
# Velocity S-wave (km/s) = -10.35099 3.91720 -6.77490
# Velocity P-wave (km/s) = 11.51136 7.33365 6.27411
#
# Compressibility (1/GPa) = 0.03835055
#
# Stress axis : x y z
#
# Youngs Moduli (GPa) = 76.19969 127.15856 45.13974
#
# Poissons Ratio (x) = 0.52657 -0.24561
# Poissons Ratio (y) = 0.31555 0.16680
# Poissons Ratio (z) = -0.41461 0.46989
#
# Static dielectric constant tensor:
#      x y z
#    x 2.166670 0.000000 -0.229530 
#    y 0.000000 2.010150 0.000000 
#    z -0.229530 0.000000 2.482640 
# 
# From -- ./inp_files/44493.got.cif
#   From: 2010.05.17/outbox.cif.g08.bks.cpg/sg15_23_cif.got.tgz:44493.got - 2010.06.03 18:47:42.
