data_PCOD9268846
_publ_section_title
;
Structure prediction by ZEFSAII (Michael W. Deem and Ramdas Pophale) SiO2 
 PCOD9268846
Probable space group: C 2/C
;
_chemical_formula_sum "Si O2"
_cell_formula_units_Z 36
_cell_length_a 15.930491
_cell_length_b 16.760704
_cell_length_c 8.454341
_cell_angle_alpha 90.000000
_cell_angle_beta 52.742200
_cell_angle_gamma 90.000000
_cell_volume 1796.678515
_symmetry_space_group_name_H-M "C 2/C"
_symmetry_group_IT_number 15
_symmetry_cell_setting 'monoclinic'
loop_
_space_group_symop_operation_xyz
x,y,z
-x,y,1/2-z
-x,-y,-z
x,-y,1/2+z
1/2+x,1/2+y,z
1/2-x,1/2+y,1/2-z
1/2-x,1/2-y,-z
1/2+x,1/2-y,1/2+z
loop_
_atom_site_type_symbol
_atom_site_label
_atom_site_fract_x
_atom_site_fract_y
_atom_site_fract_z
Si Si1 0.626874 0.804890 0.206664
Si Si2 0.299832 0.400427 0.131910
Si Si3 0.681242 0.031643 0.052364
Si Si4 0.425522 0.100641 0.029835
Si Si5 0.000000 0.158933 0.250000
O O1 0.738537 0.818797 0.158011
O O2 0.545311 0.867824 0.383177
O O3 0.573265 0.718790 0.269655
O O4 0.630580 0.834789 0.020406
O O5 0.246768 0.467079 0.079517
O O6 0.265258 0.423759 0.346460
O O7 0.421551 0.390845 0.949637
O O8 0.620517 0.088706 0.243948
O O9 0.600110 0.982333 0.032511
#
# Coordination Sequence:
#
# PCOD9268846 Si02
#       5
#     8   8   8   8   4
#     4   9  19  33  51  73  97 133 167 203 244 289
#     4  10  20  33  54  74 100 131 165 208 246 294
#     4   9  18  31  51  80 101 127 161 206 258 288
#     4   8  16  29  48  75 103 123 159 206 247 291
#     4  10  20  36  52  70 100 138 172 196 238 302
#
# _framework density 20.036973
#
# number of rings (size 3 to 8) (size 9 to 14) (size 15 to 20)
#    0.000    3.111    0.000    0.667    0.000   17.778 
#    0.000    4.444    0.000   16.000    0.000    0.000 
#    0.000    0.000    0.000    0.000    0.000    0.000 
#
# Total GULP energy -100370.515112 kJ/mol
# GULP energy per Si atom -5576.139728 kJ/mol
# Density = 1.999137 g / cm^3
# Si number density = 20.036973 Si / 1000 Ang^3
#
#
#
# Elastic Constant Matrix: (Units=GPa)
#
#
# Indices 1 2 3 4 5 6 
#
# 1 26.8974 14.4221 49.3614 0.0000 -2.5009 0.0000
# 2 14.4221 46.8089 49.4276 0.0000 -11.3093 0.0000
# 3 49.3614 49.4276 208.3270 0.0000 -10.8276 0.0000
# 4 0.0000 0.0000 0.0000 33.6702 0.0000 -13.6105
# 5 -2.5009 -11.3093 -10.8276 0.0000 26.8661 0.0000
# 6 0.0000 0.0000 0.0000 -13.6105 0.0000 11.2282
#
#
#
# Elastic Compliance Matrix: (Units=1/GPa)
#
#
# Indices 1 2 3 4 5 6 
#
# 1 0.066803 -0.005672 -0.014589 0.000000 -0.002049 0.000000
# 2 -0.005672 0.031559 -0.005598 0.000000 0.010501 0.000000
# 3 -0.014589 -0.005598 0.009593 0.000000 0.000152 0.000000
# 4 0.000000 0.000000 0.000000 0.058235 0.000000 0.070590
# 5 -0.002049 0.010501 0.000152 0.000000 0.041512 0.000000
# 6 0.000000 0.000000 0.000000 0.070590 0.000000 0.174629
#
#
# Mechanical properties :
#
#
# Convention : Reuss Voigt Hill
#
# Bulk Modulus (GPa) = 17.78203 56.49506 37.13854
# Shear Modulus (GPa) = 11.04255 25.60771 18.32513
#
# Velocity S-wave (km/s) = 2.35012 3.57882 3.02746
# Velocity P-wave (km/s) = 4.03211 6.73305 5.54941
#
# Compressibility (1/GPa) = 0.05623655
#
# Stress axis : x y z
#
# Youngs Moduli (GPa) = 14.96950 31.68634 104.24289
#
# Poissons Ratio (x) = 0.17973 1.52081
# Poissons Ratio (y) = 0.08491 0.58356
# Poissons Ratio (z) = 0.21839 0.17738
#
# Static dielectric constant tensor:
#      x y z
#    x 1.740770 0.000000 -0.018150 
#    y 0.000000 1.764380 0.000000 
#    z -0.018150 0.000000 1.721110 
# 
# From -- ./inp_files/47851.got.cif
#   From: 2010.05.17/outbox.cif.g08.bks.cpg/sg15_24_cif.got.tgz:47851.got - 2010.06.03 18:47:42.
