data_PCOD9268500
_publ_section_title
;
Structure prediction by ZEFSAII (Michael W. Deem and Ramdas Pophale) SiO2 
 PCOD9268500
Probable space group: C 2/C
;
_chemical_formula_sum "Si O2"
_cell_formula_units_Z 44
_cell_length_a 19.394417
_cell_length_b 18.833496
_cell_length_c 8.873752
_cell_angle_alpha 90.000000
_cell_angle_beta 42.470430
_cell_angle_gamma 90.000000
_cell_volume 2188.535408
_symmetry_space_group_name_H-M "C 2/C"
_symmetry_group_IT_number 15
_symmetry_cell_setting 'monoclinic'
loop_
_space_group_symop_operation_xyz
x,y,z
-x,y,1/2-z
-x,-y,-z
x,-y,1/2+z
1/2+x,1/2+y,z
1/2-x,1/2+y,1/2-z
1/2-x,1/2-y,-z
1/2+x,1/2-y,1/2+z
loop_
_atom_site_type_symbol
_atom_site_label
_atom_site_fract_x
_atom_site_fract_y
_atom_site_fract_z
Si Si1 0.420054 0.031517 0.512440
Si Si2 0.323956 0.889624 0.736153
Si Si3 0.684283 0.681987 0.663705
Si Si4 0.680516 0.765898 0.968477
Si Si5 0.500000 0.283400 0.250000
Si Si6 0.550531 0.174048 0.924535
O O1 0.500000 0.046697 0.250000
O O2 0.381951 0.105775 0.639428
O O3 0.500000 0.000000 0.500000
O O4 0.340541 0.966649 0.633786
O O5 0.278865 0.834771 0.687457
O O6 0.433960 0.854215 0.600375
O O7 0.254608 0.884532 0.998310
O O8 0.750000 0.750000 0.500000
O O9 0.666753 0.703064 0.867261
O O10 0.579944 0.678496 0.733494
O O11 0.750000 0.750000 0.000000
O O12 0.581199 0.792646 0.217776
O O13 0.439099 0.231079 0.460260
#
# Coordination Sequence:
#
# PCOD9268500 Si02
#       6
#     8   8   8   8   4   8
#     4  10  20  32  52  82 116 157 192 235 300 362
#     4  10  20  37  51  78 119 155 205 235 298 369
#     4  10  21  37  53  81 117 164 198 252 302 358
#     4  11  22  34  52  80 120 159 200 247 299 361
#     4  12  20  34  62  80 124 154 204 248 314 360
#     4  11  20  33  55  83 118 155 191 245 305 366
#
# _framework density 20.104769999999998
#
# number of rings (size 3 to 8) (size 9 to 14) (size 15 to 20)
#    0.000    1.455    4.545    4.909    0.000    0.000 
#    0.000    0.000    0.000    0.000    0.000    0.000 
#   10.909   21.455    1.091    0.000    0.000    1.091 
#
# Total GULP energy -122494.274737 kJ/mol
# GULP energy per Si atom -5567.921579 kJ/mol
# Density = 2.005901 g / cm^3
# Si number density = 20.104770 Si / 1000 Ang^3
#
#
#
# Elastic Constant Matrix: (Units=GPa)
#
#
# Indices 1 2 3 4 5 6 
#
# 1 118.7965 28.1365 38.2632 0.0000 12.2758 0.0000
# 2 28.1365 65.0983 45.3280 0.0000 -3.7349 0.0000
# 3 38.2632 45.3280 126.8397 0.0000 27.2333 0.0000
# 4 0.0000 0.0000 0.0000 -27.4499 0.0000 -24.5723
# 5 12.2758 -3.7349 27.2333 0.0000 33.8974 0.0000
# 6 0.0000 0.0000 0.0000 -24.5723 0.0000 5.6581
#
#
#
# Elastic Compliance Matrix: (Units=1/GPa)
#
#
# Indices 1 2 3 4 5 6 
#
# 1 0.009968 -0.003855 -0.000922 0.000000 -0.003294 0.000000
# 2 -0.003855 0.025057 -0.010494 0.000000 0.012588 0.000000
# 3 -0.000922 -0.010494 0.014609 0.000000 -0.012559 0.000000
# 4 0.000000 0.000000 0.000000 -0.007454 0.000000 -0.032370
# 5 -0.003294 0.012588 -0.012559 0.000000 0.042171 0.000000
# 6 0.000000 0.000000 0.000000 -0.032370 0.000000 0.036160
#
#
# Mechanical properties :
#
#
# Convention : Reuss Voigt Hill
#
# Bulk Modulus (GPa) = 52.38092 59.35443 55.86767
# Shear Modulus (GPa) = 31.76242 15.68825 23.72534
#
# Velocity S-wave (km/s) = 3.97904 2.79646 3.43896
# Velocity P-wave (km/s) = 6.87174 6.32563 6.60433
#
# Compressibility (1/GPa) = 0.01909092
#
# Stress axis : x y z
#
# Youngs Moduli (GPa) = 100.31844 39.90888 68.45133
#
# Poissons Ratio (x) = 0.15386 0.06312
# Poissons Ratio (y) = 0.38677 0.71834
# Poissons Ratio (z) = 0.09250 0.41881
#
# Static dielectric constant tensor:
#      x y z
#    x 1.831720 0.000000 -0.074110 
#    y 0.000000 1.806800 0.000000 
#    z -0.074110 0.000000 2.109590 
# 
# From -- ./inp_files/57184.got.cif
#   From: 2010.05.17/outbox.cif.g08.bks.cpg/sg15_29_cif.got.tgz:57184.got - 2010.06.03 18:47:42.
