data_PCOD9268409
_publ_section_title
;
Structure prediction by ZEFSAII (Michael W. Deem and Ramdas Pophale) SiO2 
 PCOD9268409
Probable space group: C 2/C
;
_chemical_formula_sum "Si O2"
_cell_formula_units_Z 40
_cell_length_a 15.802549
_cell_length_b 28.129399
_cell_length_c 8.880021
_cell_angle_alpha 90.000000
_cell_angle_beta 148.797790
_cell_angle_gamma 90.000000
_cell_volume 2044.945107
_symmetry_space_group_name_H-M "C 2/C"
_symmetry_group_IT_number 15
_symmetry_cell_setting 'monoclinic'
loop_
_space_group_symop_operation_xyz
x,y,z
-x,y,1/2-z
-x,-y,-z
x,-y,1/2+z
1/2+x,1/2+y,z
1/2-x,1/2+y,1/2-z
1/2-x,1/2-y,-z
1/2+x,1/2-y,1/2+z
loop_
_atom_site_type_symbol
_atom_site_label
_atom_site_fract_x
_atom_site_fract_y
_atom_site_fract_z
Si Si1 0.000000 0.025511 0.750000
Si Si2 0.000000 0.798479 0.750000
Si Si3 0.903872 0.939866 0.405392
Si Si4 0.217135 0.113150 0.517999
Si Si5 0.000000 0.363190 0.250000
Si Si6 0.000000 0.259329 0.750000
Si Si7 0.850589 0.716239 0.323047
O O1 0.103820 0.054965 0.785712
O O2 0.898358 0.990652 0.483690
O O3 0.144331 0.833371 0.913888
O O4 0.931137 0.763574 0.517965
O O5 0.780599 0.906001 0.307546
O O6 0.080232 0.917321 0.719631
O O7 0.386363 0.108863 0.691277
O O8 0.116464 0.328249 0.521611
O O9 0.055243 0.290118 0.690990
O O10 0.840612 0.227003 0.481074
#
# Coordination Sequence:
#
# PCOD9268409 Si02
#       7
#     4   4   8   8   4   4   8
#     4   8  13  30  58  78  96 126 166 194 235 296
#     4   9  17  34  52  68  90 133 182 211 250 306
#     4   8  16  30  53  78 100 128 162 200 237 295
#     4   9  18  30  47  74 101 126 167 211 245 289
#     4  11  20  34  51  68 100 145 174 201 251 308
#     4  10  20  32  45  72  94 112 174 238 262 284
#     4  10  20  33  51  67  93 135 177 215 256 300
#
# _framework density 19.560428000000002
#
# number of rings (size 3 to 8) (size 9 to 14) (size 15 to 20)
#    0.000    3.200    0.000    2.400    0.000    3.200 
#    0.000   15.000    0.000   19.200    0.000    0.000 
#    0.000    0.000    0.000    0.000    0.000    0.000 
#
# Total GULP energy -111439.327221 kJ/mol
# GULP energy per Si atom -5571.966361 kJ/mol
# Density = 1.951591 g / cm^3
# Si number density = 19.560428 Si / 1000 Ang^3
#
#
#
# Elastic Constant Matrix: (Units=GPa)
#
#
# Indices 1 2 3 4 5 6 
#
# 1 192.5381 37.2601 42.1123 0.0000 8.4380 0.0000
# 2 37.2601 47.5588 6.4354 0.0000 0.2555 0.0000
# 3 42.1123 6.4354 32.4172 0.0000 1.5862 0.0000
# 4 0.0000 0.0000 0.0000 -4.3298 0.0000 -2.6644
# 5 8.4380 0.2555 1.5862 0.0000 33.0051 0.0000
# 6 0.0000 0.0000 0.0000 -2.6644 0.0000 25.0438
#
#
#
# Elastic Compliance Matrix: (Units=1/GPa)
#
#
# Indices 1 2 3 4 5 6 
#
# 1 0.008436 -0.005270 -0.009833 0.000000 -0.001643 0.000000
# 2 -0.005270 0.024899 0.001851 0.000000 0.001066 0.000000
# 3 -0.009833 0.001851 0.043233 0.000000 0.000422 0.000000
# 4 0.000000 0.000000 0.000000 -0.216765 0.000000 -0.023061
# 5 -0.001643 0.001066 0.000422 0.000000 0.030690 0.000000
# 6 0.000000 0.000000 0.000000 -0.023061 0.000000 0.037477
#
#
# Mechanical properties :
#
#
# Convention : Reuss Voigt Hill
#
# Bulk Modulus (GPa) = 19.97393 49.34776 34.66084
# Shear Modulus (GPa) = -173.38369 23.19091 -75.09639
#
# Velocity S-wave (km/s) = -9.42510 3.44699 -6.20285
# Velocity P-wave (km/s) = 10.40239 6.41292 5.79156
#
# Compressibility (1/GPa) = 0.05006526
#
# Stress axis : x y z
#
# Youngs Moduli (GPa) = 118.53516 40.16179 23.13040
#
# Poissons Ratio (x) = 0.21166 0.22744
# Poissons Ratio (y) = 0.62469 -0.04282
# Poissons Ratio (z) = 1.16553 -0.07434
#
# Static dielectric constant tensor:
#      x y z
#    x 1.739300 0.000000 -0.022460 
#    y 0.000000 1.713320 0.000000 
#    z -0.022460 0.000000 1.690730 
# 
# From -- ./inp_files/34912.got.cif
#   From: 2010.05.17/outbox.cif.g08.bks.cpg/sg15_18_cif.got.tgz:34912.got - 2010.06.03 18:47:42.
