data_PCOD9268272
_publ_section_title
;
Structure prediction by ZEFSAII (Michael W. Deem and Ramdas Pophale) SiO2 
 PCOD9268272
Probable space group: C 2/C
;
_chemical_formula_sum "Si O2"
_cell_formula_units_Z 52
_cell_length_a 19.380289
_cell_length_b 26.207180
_cell_length_c 16.932626
_cell_angle_alpha 90.000000
_cell_angle_beta 23.144072
_cell_angle_gamma 90.000000
_cell_volume 3380.232800
_symmetry_space_group_name_H-M "C 2/C"
_symmetry_group_IT_number 15
_symmetry_cell_setting 'monoclinic'
loop_
_space_group_symop_operation_xyz
x,y,z
-x,y,1/2-z
-x,-y,-z
x,-y,1/2+z
1/2+x,1/2+y,z
1/2-x,1/2+y,1/2-z
1/2-x,1/2-y,-z
1/2+x,1/2-y,1/2+z
loop_
_atom_site_type_symbol
_atom_site_label
_atom_site_fract_x
_atom_site_fract_y
_atom_site_fract_z
Si Si1 0.000000 0.971739 0.750000
Si Si2 0.997273 0.308439 0.346731
Si Si3 0.829485 0.406320 0.595771
Si Si4 0.554768 0.412047 0.531377
Si Si5 0.408496 0.307530 0.933409
Si Si6 0.404958 0.947301 0.073400
Si Si7 0.653355 0.004399 0.028282
O O1 0.061709 0.937060 0.611429
O O2 0.163403 0.001876 0.616664
O O3 0.870388 0.351057 0.516171
O O4 0.944550 0.250380 0.421293
O O5 0.000000 0.313113 0.250000
O O6 0.200260 0.316033 0.152830
O O7 0.885019 0.448642 0.471253
O O8 0.946222 0.408780 0.551940
O O9 0.628202 0.423872 0.820289
O O10 0.532274 0.351926 0.570807
O O11 0.726288 0.431748 0.306166
O O12 0.500000 0.313254 0.750000
O O13 0.355454 0.955842 0.034621
O O14 0.500000 0.000000 0.000000
O O15 0.500000 0.015906 0.250000
#
# Coordination Sequence:
#
# PCOD9268272 Si02
#       7
#     4   8   8   8   8   8   8
#     4  10  20  30  50  70  96 132 170 206 248 292
#     4  11  20  30  47  71 105 140 182 209 241 288
#     4  10  20  33  51  71 101 139 170 207 253 295
#     4  11  20  33  50  72 102 137 176 208 249 300
#     4  11  20  31  46  72 104 140 180 211 241 290
#     4  10  21  35  50  71  97 134 172 216 258 302
#     4  10  21  33  51  70  96 128 171 211 258 302
#
# _framework density 15.383556
#
# number of rings (size 3 to 8) (size 9 to 14) (size 15 to 20)
#    0.000    1.538    2.308    6.000    2.154    6.769 
#    0.000    0.000    0.000    0.000    0.000    0.000 
#    0.000    1.231    0.000    0.154    0.000    0.000 
#
# Total GULP energy -144743.072831 kJ/mol
# GULP energy per Si atom -5567.041263 kJ/mol
# Density = 1.534854 g / cm^3
# Si number density = 15.383556 Si / 1000 Ang^3
#
#
#
# Elastic Constant Matrix: (Units=GPa)
#
#
# Indices 1 2 3 4 5 6 
#
# 1 99.8019 30.9483 49.3243 -0.0071 -13.1705 0.0056
# 2 30.9483 59.5483 34.5194 -0.0088 10.5992 0.0052
# 3 49.3243 34.5194 95.5401 -0.0616 -16.2949 0.0163
# 4 -0.0071 -0.0088 -0.0616 25.3227 0.0033 2.8874
# 5 -13.1705 10.5992 -16.2949 0.0033 19.7856 -0.0002
# 6 0.0056 0.0052 0.0163 2.8874 -0.0002 9.5348
#
#
#
# Elastic Compliance Matrix: (Units=1/GPa)
#
#
# Indices 1 2 3 4 5 6 
#
# 1 0.015902 -0.009072 -0.002673 -0.000007 0.013244 0.000003
# 2 -0.009072 0.037337 -0.015413 -0.000024 -0.038734 0.000018
# 3 -0.002673 -0.015413 0.021547 0.000048 0.024223 -0.000041
# 4 -0.000007 -0.000024 0.000048 0.040903 0.000040 -0.012387
# 5 0.013244 -0.038734 0.024223 0.000040 0.100057 -0.000038
# 6 0.000003 0.000018 -0.000041 -0.012387 -0.000038 0.108630
#
#
# Mechanical properties :
#
#
# Convention : Reuss Voigt Hill
#
# Bulk Modulus (GPa) = 48.85239 53.83048 51.34144
# Shear Modulus (GPa) = 12.96963 20.26851 16.61907
#
# Velocity S-wave (km/s) = 2.90674 3.63374 3.29038
# Velocity P-wave (km/s) = 6.56435 7.25766 6.91969
#
# Compressibility (1/GPa) = 0.02046983
#
# Stress axis : x y z
#
# Youngs Moduli (GPa) = 62.88538 26.78290 46.41041
#
# Poissons Ratio (x) = 0.24299 0.12405
# Poissons Ratio (y) = 0.57052 0.71532
# Poissons Ratio (z) = 0.16808 0.41280
#
# Static dielectric constant tensor:
#      x y z
#    x 1.582580 0.000450 -0.078100 
#    y 0.000450 1.516810 -0.000460 
#    z -0.078100 -0.000460 1.556870 
# 
# From -- ./inp_files/216805.got.cif
#   From: 2010.05.17/outbox.cif.g08.bks.cpg/sg15_109_cif.got.tgz:216805.got - 2010.06.03 18:47:42.
