data_PCOD9268402
_publ_section_title
;
Structure prediction by ZEFSAII (Michael W. Deem and Ramdas Pophale) SiO2 
 PCOD9268402
Probable space group: C 2/C
;
_chemical_formula_sum "Si O2"
_cell_formula_units_Z 48
_cell_length_a 10.072394
_cell_length_b 15.717628
_cell_length_c 19.363062
_cell_angle_alpha 90.000000
_cell_angle_beta 38.557647
_cell_angle_gamma 90.000000
_cell_volume 1910.698126
_symmetry_space_group_name_H-M "C 2/C"
_symmetry_group_IT_number 15
_symmetry_cell_setting 'monoclinic'
loop_
_space_group_symop_operation_xyz
x,y,z
-x,y,1/2-z
-x,-y,-z
x,-y,1/2+z
1/2+x,1/2+y,z
1/2-x,1/2+y,1/2-z
1/2-x,1/2-y,-z
1/2+x,1/2-y,1/2+z
loop_
_atom_site_type_symbol
_atom_site_label
_atom_site_fract_x
_atom_site_fract_y
_atom_site_fract_z
Si Si1 0.611662 0.119049 0.336737
Si Si2 0.924804 0.175798 0.384691
Si Si3 0.397226 0.597147 0.606289
Si Si4 0.500000 0.235262 0.250000
Si Si5 0.500000 0.186440 0.750000
Si Si6 0.060191 0.736189 0.973111
Si Si7 0.263894 0.978158 0.474449
O O1 0.868220 0.124560 0.227694
O O2 0.551336 0.173843 0.293543
O O3 0.531421 0.165499 0.438290
O O4 0.482140 0.030636 0.385864
O O5 0.875179 0.249833 0.350544
O O6 0.983107 0.227363 0.430132
O O7 0.746935 0.106633 0.475670
O O8 0.544324 0.676340 0.524216
O O9 0.558732 0.535527 0.579105
O O10 0.301059 0.550390 0.577029
O O11 0.174998 0.636371 0.723801
O O12 0.698885 0.289190 0.143711
#
# Coordination Sequence:
#
# PCOD9268402 Si02
#       7
#     8   8   8   4   4   8   8
#     4  11  21  41  69  98 139 174 220 286 334 395
#     4  10  25  44  67 101 133 181 230 277 338 408
#     4  10  22  40  65  98 127 174 224 271 325 411
#     4  10  20  31  65  98 134 164 216 272 326 395
#     4  12  24  45  71  90 138 184 234 268 336 419
#     4  10  20  39  64 101 130 170 223 274 332 399
#     4  10  23  40  66 100 138 167 225 282 342 389
#
# _framework density 25.121708000000002
#
# number of rings (size 3 to 8) (size 9 to 14) (size 15 to 20)
#    0.000    1.667    3.333    0.500    4.667    2.667 
#    0.000    3.333    3.667    0.000    0.000    0.000 
#    0.000    0.000    0.000    0.000    0.000    0.000 
#
# Total GULP energy -134105.633208 kJ/mol
# GULP energy per Si atom -5587.734717 kJ/mol
# Density = 2.506453 g / cm^3
# Si number density = 25.121708 Si / 1000 Ang^3
#
#
#
# Elastic Constant Matrix: (Units=GPa)
#
#
# Indices 1 2 3 4 5 6 
#
# 1 56.8366 25.5650 31.2067 -0.0001 2.3899 0.0004
# 2 25.5650 113.0992 56.9845 0.0011 1.7399 0.0003
# 3 31.2067 56.9845 159.3974 0.0024 -15.2557 0.0001
# 4 -0.0001 0.0011 0.0024 50.9676 -0.0003 -7.8609
# 5 2.3899 1.7399 -15.2557 -0.0003 41.7985 0.0000
# 6 0.0004 0.0003 0.0001 -7.8609 0.0000 35.6330
#
#
#
# Elastic Compliance Matrix: (Units=1/GPa)
#
#
# Indices 1 2 3 4 5 6 
#
# 1 0.020819 -0.003062 -0.003195 0.000000 -0.002229 0.000000
# 2 -0.003062 0.011386 -0.003626 0.000000 -0.001622 0.000000
# 3 -0.003195 -0.003626 0.008525 0.000000 0.003445 0.000000
# 4 0.000000 0.000000 0.000000 0.020311 0.000000 0.004481
# 5 -0.002229 -0.001622 0.003445 0.000000 0.025377 0.000000
# 6 0.000000 0.000000 0.000000 0.004481 0.000000 0.029052
#
#
# Mechanical properties :
#
#
# Convention : Reuss Voigt Hill
#
# Bulk Modulus (GPa) = 47.69958 61.87172 54.78565
# Shear Modulus (GPa) = 35.15548 40.05161 37.60355
#
# Velocity S-wave (km/s) = 3.74492 3.99720 3.87312
# Velocity P-wave (km/s) = 6.14230 6.78128 6.46969
#
# Compressibility (1/GPa) = 0.02096454
#
# Stress axis : x y z
#
# Youngs Moduli (GPa) = 48.03211 87.82723 117.29951
#
# Poissons Ratio (x) = 0.26894 0.37473
# Poissons Ratio (y) = 0.14708 0.42536
# Poissons Ratio (z) = 0.15344 0.31848
#
# Static dielectric constant tensor:
#      x y z
#    x 2.083690 0.000000 -0.106230 
#    y 0.000000 1.984710 0.000000 
#    z -0.106230 0.000000 2.056470 
# 
# From -- ./inp_files/274289.got.cif
#   From: 2010.05.17/outbox.cif.g08.bks.cpg/sg15_138_cif.got.tgz:274289.got - 2010.06.03 18:47:42.
