data_PCOD9268449
_publ_section_title
;
Structure prediction by ZEFSAII (Michael W. Deem and Ramdas Pophale) SiO2 
 PCOD9268449
Probable space group: C 2/C
;
_chemical_formula_sum "Si O2"
_cell_formula_units_Z 48
_cell_length_a 14.068676
_cell_length_b 23.539352
_cell_length_c 16.752660
_cell_angle_alpha 90.000000
_cell_angle_beta 150.919153
_cell_angle_gamma 90.000000
_cell_volume 2696.537326
_symmetry_space_group_name_H-M "C 2/C"
_symmetry_group_IT_number 15
_symmetry_cell_setting 'monoclinic'
loop_
_space_group_symop_operation_xyz
x,y,z
-x,y,1/2-z
-x,-y,-z
x,-y,1/2+z
1/2+x,1/2+y,z
1/2-x,1/2+y,1/2-z
1/2-x,1/2-y,-z
1/2+x,1/2-y,1/2+z
loop_
_atom_site_type_symbol
_atom_site_label
_atom_site_fract_x
_atom_site_fract_y
_atom_site_fract_z
Si Si1 0.841069 0.542990 0.697244
Si Si2 0.740107 0.396956 0.280134
Si Si3 0.203089 0.210608 0.850772
Si Si4 0.418802 0.831989 0.774491
Si Si5 0.973190 0.997240 0.824591
Si Si6 0.880545 0.439238 0.843247
O O1 0.778879 0.589795 0.716366
O O2 0.655425 0.522825 0.510439
O O3 0.917556 0.489441 0.806316
O O4 0.000000 0.562194 0.750000
O O5 0.703907 0.332197 0.276865
O O6 0.565118 0.436786 0.182855
O O7 0.927707 0.421218 0.466830
O O8 0.214296 0.276961 0.837816
O O9 0.000000 0.203360 0.750000
O O10 0.388622 0.191736 0.039076
O O11 0.500000 0.854658 0.750000
O O12 0.321689 0.882565 0.752330
O O13 0.785964 0.962698 0.720355
O O14 0.000000 0.989717 0.750000
#
# Coordination Sequence:
#
# PCOD9268449 Si02
#       6
#     8   8   8   8   8   8
#     4  11  21  33  51  74 100 132 164 201 245 291
#     4  10  20  34  51  74 101 130 164 203 244 291
#     4  10  20  32  50  73 100 131 163 200 242 287
#     4  10  20  32  50  73 100 131 163 200 242 287
#     4  11  21  33  51  74 100 132 164 201 245 291
#     4  10  20  34  51  74 101 130 164 203 244 291
#
# _framework density 17.800606999999999
#
# number of rings (size 3 to 8) (size 9 to 14) (size 15 to 20)
#    0.000    1.667    0.000    9.000    0.000    8.000 
#    0.000    0.000    0.000    1.000    0.000    7.000 
#    0.000    0.000    0.000    0.000    0.000    0.000 
#
# Total GULP energy -134074.579965 kJ/mol
# GULP energy per Si atom -5586.440832 kJ/mol
# Density = 1.776009 g / cm^3
# Si number density = 17.800607 Si / 1000 Ang^3
#
#
#
# Elastic Constant Matrix: (Units=GPa)
#
#
# Indices 1 2 3 4 5 6 
#
# 1 99.8207 38.8999 12.0703 -0.0002 -33.2776 -0.0003
# 2 38.8999 57.7117 -12.9232 0.0000 -14.2987 0.0000
# 3 12.0703 -12.9232 40.7698 -0.0004 -14.5440 -0.0002
# 4 -0.0002 0.0000 -0.0004 15.4577 -0.0002 -7.7125
# 5 -33.2776 -14.2987 -14.5440 -0.0002 27.8248 -0.0003
# 6 -0.0003 0.0000 -0.0002 -7.7125 -0.0003 -21.2555
#
#
#
# Elastic Compliance Matrix: (Units=1/GPa)
#
#
# Indices 1 2 3 4 5 6 
#
# 1 0.019963 -0.009778 -0.002809 0.000000 0.017382 -0.000001
# 2 -0.009778 0.031230 0.017636 0.000000 0.013573 0.000000
# 3 -0.002809 0.017636 0.040545 0.000001 0.026896 -0.000001
# 4 0.000000 0.000000 0.000001 0.054776 0.000001 -0.019875
# 5 0.017382 0.013573 0.026896 0.000001 0.077761 -0.000002
# 6 -0.000001 0.000000 -0.000001 -0.019875 -0.000002 -0.039835
#
#
# Mechanical properties :
#
#
# Convention : Reuss Voigt Hill
#
# Bulk Modulus (GPa) = 9.81970 30.48847 20.15408
# Shear Modulus (GPa) = 24.00535 15.08908 19.54721
#
# Velocity S-wave (km/s) = 3.67627 2.91464 3.31739
# Velocity P-wave (km/s) = 4.85267 5.33777 5.10099
#
# Compressibility (1/GPa) = 0.10183615
#
# Stress axis : x y z
#
# Youngs Moduli (GPa) = 50.09336 32.02007 24.66413
#
# Poissons Ratio (x) = 0.31310 0.06928
# Poissons Ratio (y) = 0.48982 -0.43498
# Poissons Ratio (z) = 0.14071 -0.56471
#
# Static dielectric constant tensor:
#      x y z
#    x 1.588280 0.000000 0.004580 
#    y 0.000000 1.604820 0.000000 
#    z 0.004580 0.000000 1.663880 
# 
# From -- ./inp_files/58531.got.cif
#   From: 2010.05.17/outbox.cif.g08.bks.cpg/sg15_30_cif.got.tgz:58531.got - 2010.06.03 18:47:42.
