data_PCOD9268683
_publ_section_title
;
Structure prediction by ZEFSAII (Michael W. Deem and Ramdas Pophale) SiO2 
 PCOD9268683
Probable space group: C 2/C
;
_chemical_formula_sum "Si O2"
_cell_formula_units_Z 56
_cell_length_a 22.461168
_cell_length_b 19.095355
_cell_length_c 5.479227
_cell_angle_alpha 90.000000
_cell_angle_beta 105.843210
_cell_angle_gamma 90.000000
_cell_volume 2260.788973
_symmetry_space_group_name_H-M "C 2/C"
_symmetry_group_IT_number 15
_symmetry_cell_setting 'monoclinic'
loop_
_space_group_symop_operation_xyz
x,y,z
-x,y,1/2-z
-x,-y,-z
x,-y,1/2+z
1/2+x,1/2+y,z
1/2-x,1/2+y,1/2-z
1/2-x,1/2-y,-z
1/2+x,1/2-y,1/2+z
loop_
_atom_site_type_symbol
_atom_site_label
_atom_site_fract_x
_atom_site_fract_y
_atom_site_fract_z
Si Si1 0.744496 0.315936 0.249198
Si Si2 0.141914 0.518825 0.637664
Si Si3 0.721940 0.341345 0.722349
Si Si4 0.065714 0.979336 0.404175
Si Si5 0.429365 0.891099 0.756904
Si Si6 0.081954 0.169092 0.068621
Si Si7 0.102510 0.242319 0.591225
O O1 0.753328 0.359611 0.503544
O O2 0.782954 0.244395 0.295854
O O3 0.673242 0.287172 0.164515
O O4 0.755699 0.355241 0.011322
O O5 0.175277 0.509095 0.931901
O O6 0.084695 0.462844 0.610332
O O7 0.113044 0.593650 0.531398
O O8 0.651754 0.363409 0.654892
O O9 0.048248 0.902308 0.477534
O O10 0.000000 0.011602 0.250000
O O11 0.097611 0.019242 0.669221
O O12 0.500000 0.882615 0.750000
O O13 0.405154 0.825470 0.886890
O O14 0.072890 0.210881 0.310376
O O15 0.075643 0.214882 0.818163
#
# Coordination Sequence:
#
# PCOD9268683 Si02
#       7
#     8   8   8   8   8   8   8
#     4   8  14  27  43  70  98 129 160 188 239 301
#     4   8  19  32  50  64  84 124 182 218 223 269
#     4   8  14  26  48  68  97 127 156 195 237 296
#     4  10  21  38  59  75  95 134 179 213 251 318
#     4  10  20  33  48  69  95 133 175 212 248 287
#     4  10  20  35  51  79 105 127 162 213 265 311
#     4  10  21  31  49  77 110 131 161 213 266 315
#
# _framework density 24.770116000000002
#
# number of rings (size 3 to 8) (size 9 to 14) (size 15 to 20)
#    0.857    2.000    0.000    1.286    2.000    0.571 
#    0.000    1.429    0.000    0.000    3.714    0.000 
#    0.000    0.000    0.000    0.000    0.000    0.000 
#
# Total GULP energy -155974.237279 kJ/mol
# GULP energy per Si atom -5570.508474 kJ/mol
# Density = 2.471374 g / cm^3
# Si number density = 24.770116 Si / 1000 Ang^3
#
#
#
# Elastic Constant Matrix: (Units=GPa)
#
#
# Indices 1 2 3 4 5 6 
#
# 1 48.1730 30.5152 28.5651 0.0000 10.3233 0.0000
# 2 30.5152 98.5083 33.0394 0.0000 -11.3725 0.0000
# 3 28.5651 33.0394 214.8414 0.0000 -63.9558 0.0000
# 4 0.0000 0.0000 0.0000 28.7694 0.0000 -5.8546
# 5 10.3233 -11.3725 -63.9558 0.0000 11.3001 0.0000
# 6 0.0000 0.0000 0.0000 -5.8546 0.0000 10.8127
#
#
#
# Elastic Compliance Matrix: (Units=1/GPa)
#
#
# Indices 1 2 3 4 5 6 
#
# 1 0.011788 -0.002815 0.007569 0.000000 0.029237 0.000000
# 2 -0.002815 0.011341 -0.004079 0.000000 -0.009101 0.000000
# 3 0.007569 -0.004079 -0.001453 0.000000 -0.019243 0.000000
# 4 0.000000 0.000000 0.000000 0.039063 0.000000 0.021151
# 5 0.029237 -0.009101 -0.019243 0.000000 -0.056285 0.000000
# 6 0.000000 0.000000 0.000000 0.021151 0.000000 0.103936
#
#
# Mechanical properties :
#
#
# Convention : Reuss Voigt Hill
#
# Bulk Modulus (GPa) = 43.42853 60.64022 52.03437
# Shear Modulus (GPa) = 43.58584 28.13663 35.86124
#
# Velocity S-wave (km/s) = 4.19933 3.37398 3.80907
# Velocity P-wave (km/s) = 6.40961 6.30180 6.35594
#
# Compressibility (1/GPa) = 0.02302634
#
# Stress axis : x y z
#
# Youngs Moduli (GPa) = 84.83147 88.17684 -688.26712
#
# Poissons Ratio (x) = 0.24821 5.20953
# Poissons Ratio (y) = 0.23880 -2.80740
# Poissons Ratio (z) = -0.64209 0.35967
#
# Static dielectric constant tensor:
#      x y z
#    x 1.967460 0.000000 -0.003630 
#    y 0.000000 1.906390 0.000000 
#    z -0.003630 0.000000 2.167870 
# 
# From -- ./inp_files/18386.got.cif
#   From: 2010.05.17/outbox.cif.g08.bks.cpg/sg15_10_cif.got.tgz:18386.got - 2010.06.03 18:47:42.
