data_PCOD9268475
_publ_section_title
;
Structure prediction by ZEFSAII (Michael W. Deem and Ramdas Pophale) SiO2 
 PCOD9268475
Probable space group: C 2/C
;
_chemical_formula_sum "Si O2"
_cell_formula_units_Z 60
_cell_length_a 22.933409
_cell_length_b 5.290837
_cell_length_c 27.216136
_cell_angle_alpha 90.000000
_cell_angle_beta 122.413770
_cell_angle_gamma 90.000000
_cell_volume 2787.817645
_symmetry_space_group_name_H-M "C 2/C"
_symmetry_group_IT_number 15
_symmetry_cell_setting 'monoclinic'
loop_
_space_group_symop_operation_xyz
x,y,z
-x,y,1/2-z
-x,-y,-z
x,-y,1/2+z
1/2+x,1/2+y,z
1/2-x,1/2+y,1/2-z
1/2-x,1/2-y,-z
1/2+x,1/2-y,1/2+z
loop_
_atom_site_type_symbol
_atom_site_label
_atom_site_fract_x
_atom_site_fract_y
_atom_site_fract_z
Si Si1 0.044946 0.748050 0.009829
Si Si2 0.000000 0.185554 0.750000
Si Si3 0.561998 0.933531 0.200622
Si Si4 0.955245 0.079186 0.096351
Si Si5 0.089466 0.203845 0.630699
Si Si6 0.137228 0.070479 0.860289
Si Si7 0.222997 0.945076 0.711430
Si Si8 0.316557 0.089374 0.666482
O O1 0.101369 0.746426 0.078647
O O2 0.065523 0.766734 0.962050
O O3 0.000000 0.500000 0.000000
O O4 0.000000 0.000000 0.000000
O O5 0.979994 0.357047 0.787266
O O6 0.932359 0.037022 0.703915
O O7 0.504207 0.742511 0.154808
O O8 0.623106 0.863977 0.265610
O O9 0.598365 0.059717 0.170049
O O10 0.890638 0.972141 0.097271
O O11 0.009375 0.867856 0.102605
O O12 0.140702 0.986412 0.672411
O O13 0.162672 0.351586 0.858454
O O14 0.188318 0.847929 0.866313
O O15 0.251174 0.172936 0.758859
O O16 0.252435 0.005837 0.670741
#
# Coordination Sequence:
#
# PCOD9268475 Si02
#       8
#     8   4   8   8   8   8   8   8
#     4  10  22  38  59  88 121 154 199 250 308 364
#     4  10  20  32  50  86 118 154 182 234 298 368
#     4  11  19  34  54  84 122 153 191 238 301 364
#     4  11  21  37  62  88 121 153 199 249 315 362
#     4  11  23  38  60  88 121 157 200 252 303 356
#     4  11  22  36  56  82 119 154 191 244 295 361
#     4  12  25  41  62  85 123 167 206 247 296 362
#     4  11  24  37  54  86 118 159 199 233 294 359
#
# _framework density 21.522210000000001
#
# number of rings (size 3 to 8) (size 9 to 14) (size 15 to 20)
#    0.000    1.067    4.000    4.000    3.733    0.533 
#    0.000    0.000    0.000    1.600    0.000    0.000 
#    0.000    0.000    0.000    0.000    0.000    0.000 
#
# Total GULP energy -167519.602709 kJ/mol
# GULP energy per Si atom -5583.986757 kJ/mol
# Density = 2.147322 g / cm^3
# Si number density = 21.522210 Si / 1000 Ang^3
#
#
#
# Elastic Constant Matrix: (Units=GPa)
#
#
# Indices 1 2 3 4 5 6 
#
# 1 68.6059 8.2290 16.5913 0.0020 -17.2932 0.0029
# 2 8.2290 71.1539 35.9288 0.0014 -18.2685 -0.0009
# 3 16.5913 35.9288 69.3030 -0.0012 -25.1837 0.0024
# 4 0.0020 0.0014 -0.0012 -5.0929 0.0005 -7.1187
# 5 -17.2932 -18.2685 -25.1837 0.0005 21.1298 -0.0001
# 6 0.0029 -0.0009 0.0024 -7.1187 -0.0001 31.9222
#
#
#
# Elastic Compliance Matrix: (Units=1/GPa)
#
#
# Indices 1 2 3 4 5 6 
#
# 1 0.018696 0.001962 0.001206 0.000009 0.018435 0.000000
# 2 0.001962 0.020103 -0.007042 0.000006 0.010593 0.000002
# 3 0.001206 -0.007042 0.028114 -0.000001 0.028406 -0.000003
# 4 0.000009 0.000006 -0.000001 -0.149691 0.000014 -0.033381
# 5 0.018435 0.010593 0.028406 0.000014 0.105429 0.000000
# 6 0.000000 0.000002 -0.000003 -0.033381 0.000000 0.023882
#
#
# Mechanical properties :
#
#
# Convention : Reuss Voigt Hill
#
# Bulk Modulus (GPa) = 16.90223 36.72900 26.81562
# Shear Modulus (GPa) = 67.56526 19.47940 43.52233
#
# Velocity S-wave (km/s) = 5.60905 3.01172 4.50177
# Velocity P-wave (km/s) = 7.05826 5.40339 6.28553
#
# Compressibility (1/GPa) = 0.05916379
#
# Stress axis : x y z
#
# Youngs Moduli (GPa) = 53.48795 49.74433 35.56955
#
# Poissons Ratio (x) = -0.09760 -0.04290
# Poissons Ratio (y) = -0.10494 0.25049
# Poissons Ratio (z) = -0.06450 0.35031
#
# Static dielectric constant tensor:
#      x y z
#    x 1.833710 -0.000010 -0.007820 
#    y -0.000010 1.809440 0.000000 
#    z -0.007820 0.000000 1.827610 
# 
# From -- ./inp_files/300126.got.cif
#   From: 2010.05.17/outbox.cif.g08.bks.cpg/sg15_151_cif.got.tgz:300126.got - 2010.06.03 18:47:42.
