data_PCOD9268623
_publ_section_title
;
Structure prediction by ZEFSAII (Michael W. Deem and Ramdas Pophale) SiO2 
 PCOD9268623
Probable space group: C 2/C
;
_chemical_formula_sum "Si O2"
_cell_formula_units_Z 60
_cell_length_a 14.357792
_cell_length_b 11.078069
_cell_length_c 28.248963
_cell_angle_alpha 90.000000
_cell_angle_beta 147.442362
_cell_angle_gamma 90.000000
_cell_volume 2417.997092
_symmetry_space_group_name_H-M "C 2/C"
_symmetry_group_IT_number 15
_symmetry_cell_setting 'monoclinic'
loop_
_space_group_symop_operation_xyz
x,y,z
-x,y,1/2-z
-x,-y,-z
x,-y,1/2+z
1/2+x,1/2+y,z
1/2-x,1/2+y,1/2-z
1/2-x,1/2-y,-z
1/2+x,1/2-y,1/2+z
loop_
_atom_site_type_symbol
_atom_site_label
_atom_site_fract_x
_atom_site_fract_y
_atom_site_fract_z
Si Si1 0.890326 0.638794 0.420327
Si Si2 0.803942 0.554295 0.001798
Si Si3 0.000000 0.525779 0.250000
Si Si4 0.726344 0.586319 0.067040
Si Si5 0.922881 0.823888 0.505087
Si Si6 0.183564 0.475844 0.186822
Si Si7 0.676325 0.819041 0.266519
Si Si8 0.500658 0.628477 0.355487
O O1 0.795214 0.518331 0.359171
O O2 0.820403 0.744759 0.356065
O O3 0.092619 0.617500 0.496153
O O4 0.867073 0.693317 0.462025
O O5 0.724920 0.627205 0.012253
O O6 0.974791 0.492205 0.100273
O O7 0.647644 0.473228 0.915791
O O8 0.097040 0.606057 0.329771
O O9 0.127792 0.437057 0.275623
O O10 0.579398 0.638029 0.037862
O O11 0.701132 0.439983 0.052799
O O12 0.971812 0.816798 0.580726
O O13 0.225831 0.355341 0.233989
O O14 0.311491 0.567887 0.268878
O O15 0.509439 0.732478 0.188488
#
# Coordination Sequence:
#
# PCOD9268623 Si02
#       8
#     8   8   4   8   8   8   8   8
#     4   9  20  38  59  89 126 163 205 256 329 373
#     4   9  20  38  58  91 124 160 206 261 321 372
#     4  12  18  34  60  92 116 148 208 272 314 358
#     4  10  20  32  59  91 115 152 204 263 310 364
#     4  10  20  36  57  88 122 159 202 257 315 371
#     4   9  20  39  57  89 127 161 201 261 315 369
#     4  11  21  37  64  85 122 164 208 261 317 381
#     4  10  22  39  62  89 123 166 214 255 316 382
#
# _framework density 24.813925000000001
#
# number of rings (size 3 to 8) (size 9 to 14) (size 15 to 20)
#    0.800    1.333    2.667    0.800    3.733    1.067 
#    0.000    0.667    5.867    0.000    0.000    0.000 
#    0.000    0.000    0.000    0.000    0.000    0.000 
#
# Total GULP energy -167276.318139 kJ/mol
# GULP energy per Si atom -5575.877271 kJ/mol
# Density = 2.475745 g / cm^3
# Si number density = 24.813925 Si / 1000 Ang^3
#
#
#
# Elastic Constant Matrix: (Units=GPa)
#
#
# Indices 1 2 3 4 5 6 
#
# 1 53.9345 23.3423 23.7291 0.0000 0.4518 0.0000
# 2 23.3423 42.7552 24.9430 0.0000 0.7001 0.0000
# 3 23.7291 24.9430 96.8439 0.0001 -2.7724 0.0001
# 4 0.0000 0.0000 0.0001 35.5650 0.0000 -4.6159
# 5 0.4518 0.7001 -2.7724 0.0000 22.7572 0.0000
# 6 0.0000 0.0000 0.0001 -4.6159 0.0000 42.7618
#
#
#
# Elastic Compliance Matrix: (Units=1/GPa)
#
#
# Indices 1 2 3 4 5 6 
#
# 1 0.025038 -0.011855 -0.003096 0.000000 -0.000510 0.000000
# 2 -0.011855 0.033205 -0.005690 0.000000 -0.001479 0.000000
# 3 -0.003096 -0.005690 0.012601 0.000000 0.001772 0.000000
# 4 0.000000 0.000000 0.000000 0.028517 0.000000 0.003078
# 5 -0.000510 -0.001479 0.001772 0.000000 0.044214 0.000000
# 6 0.000000 0.000000 0.000000 0.003078 0.000000 0.023718
#
#
# Mechanical properties :
#
#
# Convention : Reuss Voigt Hill
#
# Bulk Modulus (GPa) = 33.82753 37.50697 35.66725
# Shear Modulus (GPa) = 22.89083 28.31806 25.60445
#
# Velocity S-wave (km/s) = 3.04056 3.38185 3.21574
# Velocity P-wave (km/s) = 5.09792 5.51338 5.30971
#
# Compressibility (1/GPa) = 0.02956172
#
# Stress axis : x y z
#
# Youngs Moduli (GPa) = 39.93892 30.11609 79.36058
#
# Poissons Ratio (x) = 0.35703 0.24572
# Poissons Ratio (y) = 0.47348 0.45154
# Poissons Ratio (z) = 0.12366 0.17135
#
# Static dielectric constant tensor:
#      x y z
#    x 1.991390 0.000000 0.004570 
#    y 0.000000 2.064160 0.000000 
#    z 0.004570 0.000000 1.955140 
# 
# From -- ./inp_files/316081.got.cif
#   From: 2010.05.17/outbox.cif.g08.bks.cpg/sg15_159_cif.got.tgz:316081.got - 2010.06.03 18:47:42.
