data_PCOD9268480
_publ_section_title
;
Structure prediction by ZEFSAII (Michael W. Deem and Ramdas Pophale) SiO2 
 PCOD9268480
Probable space group: C 2/C
;
_chemical_formula_sum "Si O2"
_cell_formula_units_Z 60
_cell_length_a 26.979386
_cell_length_b 18.090277
_cell_length_c 8.311607
_cell_angle_alpha 90.000000
_cell_angle_beta 130.760672
_cell_angle_gamma 90.000000
_cell_volume 3072.645499
_symmetry_space_group_name_H-M "C 2/C"
_symmetry_group_IT_number 15
_symmetry_cell_setting 'monoclinic'
loop_
_space_group_symop_operation_xyz
x,y,z
-x,y,1/2-z
-x,-y,-z
x,-y,1/2+z
1/2+x,1/2+y,z
1/2-x,1/2+y,1/2-z
1/2-x,1/2-y,-z
1/2+x,1/2-y,1/2+z
loop_
_atom_site_type_symbol
_atom_site_label
_atom_site_fract_x
_atom_site_fract_y
_atom_site_fract_z
Si Si1 0.718281 0.547268 0.570161
Si Si2 0.693195 0.303616 0.168419
Si Si3 0.412087 0.879036 0.813964
Si Si4 0.500000 0.060787 0.250000
Si Si5 0.665657 0.252605 0.476567
Si Si6 0.206561 0.895810 0.684464
Si Si7 0.354484 0.156939 0.521286
Si Si8 0.634335 0.030712 0.691177
O O1 0.687371 0.610352 0.617035
O O2 0.690978 0.465845 0.541699
O O3 0.708318 0.575223 0.368813
O O4 0.797041 0.539099 0.755293
O O5 0.677074 0.281509 0.317817
O O6 0.769948 0.285812 0.314800
O O7 0.654510 0.245109 0.973387
O O8 0.479981 0.899380 0.874075
O O9 0.386015 0.812363 0.648575
O O10 0.366515 0.952367 0.718070
O O11 0.406067 0.853772 0.986098
O O12 0.568199 0.023215 0.445443
O O13 0.657777 0.327470 0.559174
O O14 0.280978 0.867124 0.805069
O O15 0.369462 0.102038 0.699716
#
# Coordination Sequence:
#
# PCOD9268480 Si02
#       8
#     8   8   8   4   8   8   8   8
#     4  11  21  32  55  76 114 136 182 212 272 325
#     4   9  18  31  50  77 101 136 169 221 263 338
#     4  11  21  37  51  71 101 142 185 227 266 303
#     4  12  26  34  52  74 100 146 202 238 256 294
#     4   9  19  33  54  70 104 138 179 217 270 318
#     4  10  20  32  51  81 101 144 172 217 262 337
#     4   9  20  35  51  71 102 139 180 218 278 312
#     4  11  23  35  52  72 105 150 186 229 257 309
#
# _framework density 19.527148
#
# number of rings (size 3 to 8) (size 9 to 14) (size 15 to 20)
#    0.000    1.867    1.333    3.600    5.600    6.400 
#    0.000    0.000    0.000    0.000    0.000    0.000 
#    0.000   17.067    0.000    1.467    0.000    0.000 
#
# Total GULP energy -167195.849488 kJ/mol
# GULP energy per Si atom -5573.194983 kJ/mol
# Density = 1.948270 g / cm^3
# Si number density = 19.527148 Si / 1000 Ang^3
#
#
#
# Elastic Constant Matrix: (Units=GPa)
#
#
# Indices 1 2 3 4 5 6 
#
# 1 35.3130 -2.2470 -7.3059 0.0000 -0.5907 0.0000
# 2 -2.2470 108.5847 25.3690 0.0000 9.4556 0.0000
# 3 -7.3059 25.3690 46.9517 0.0000 -0.1312 0.0000
# 4 0.0000 0.0000 0.0000 24.5954 0.0000 -6.8500
# 5 -0.5907 9.4556 -0.1312 0.0000 10.9129 0.0000
# 6 0.0000 0.0000 0.0000 -6.8500 0.0000 15.7488
#
#
#
# Elastic Compliance Matrix: (Units=1/GPa)
#
#
# Indices 1 2 3 4 5 6 
#
# 1 0.029339 -0.000757 0.004981 0.000000 0.002304 0.000000
# 2 -0.000757 0.011572 -0.006399 0.000000 -0.010145 0.000000
# 3 0.004981 -0.006399 0.025548 0.000000 0.006121 0.000000
# 4 0.000000 0.000000 0.000000 0.046262 0.000000 0.020122
# 5 0.002304 -0.010145 0.006121 0.000000 0.100623 0.000000
# 6 0.000000 0.000000 0.000000 0.020122 0.000000 0.072249
#
#
# Mechanical properties :
#
#
# Convention : Reuss Voigt Hill
#
# Bulk Modulus (GPa) = 16.10078 24.72019 20.41049
# Shear Modulus (GPa) = 16.09548 21.92031 19.00789
#
# Velocity S-wave (km/s) = 2.87411 3.35409 3.12333
# Velocity P-wave (km/s) = 4.39059 5.26182 4.84582
#
# Compressibility (1/GPa) = 0.06210878
#
# Stress axis : x y z
#
# Youngs Moduli (GPa) = 34.08434 86.41466 39.14192
#
# Poissons Ratio (x) = 0.06543 -0.19496
# Poissons Ratio (y) = 0.02581 0.25046
# Poissons Ratio (z) = -0.16977 0.55295
#
# Static dielectric constant tensor:
#      x y z
#    x 1.685740 0.000000 -0.059330 
#    y 0.000000 1.739550 0.000000 
#    z -0.059330 0.000000 1.738330 
# 
# From -- ./inp_files/67040.got.cif
#   From: 2010.05.17/outbox.cif.g08.bks.cpg/sg15_34_cif.got.tgz:67040.got - 2010.06.03 18:47:42.
