data_PCOD9268442
_publ_section_title
;
Structure prediction by ZEFSAII (Michael W. Deem and Ramdas Pophale) SiO2 
 PCOD9268442
Probable space group: C 2/C
;
_chemical_formula_sum "Si O2"
_cell_formula_units_Z 48
_cell_length_a 9.605308
_cell_length_b 17.462388
_cell_length_c 21.361621
_cell_angle_alpha 90.000000
_cell_angle_beta 45.497009
_cell_angle_gamma 90.000000
_cell_volume 2555.458944
_symmetry_space_group_name_H-M "C 2/C"
_symmetry_group_IT_number 15
_symmetry_cell_setting 'monoclinic'
loop_
_space_group_symop_operation_xyz
x,y,z
-x,y,1/2-z
-x,-y,-z
x,-y,1/2+z
1/2+x,1/2+y,z
1/2-x,1/2+y,1/2-z
1/2-x,1/2-y,-z
1/2+x,1/2-y,1/2+z
loop_
_atom_site_type_symbol
_atom_site_label
_atom_site_fract_x
_atom_site_fract_y
_atom_site_fract_z
Si Si1 0.909212 0.132712 0.657946
Si Si2 0.602851 0.129585 0.854171
Si Si3 0.346376 0.242501 0.351875
Si Si4 0.651794 0.497971 0.155134
Si Si5 0.879608 0.096864 0.030807
Si Si6 0.720242 0.555408 0.002714
O O1 0.695510 0.137221 0.755725
O O2 0.028612 0.208605 0.638203
O O3 0.949932 0.113947 0.573558
O O4 0.018763 0.066154 0.662660
O O5 0.692405 0.199399 0.866906
O O6 0.372763 0.118116 0.930633
O O7 0.688582 0.050921 0.857481
O O8 0.500000 0.218044 0.250000
O O9 0.246279 0.171095 0.416006
O O10 0.500000 0.538800 0.250000
O O11 0.741567 0.546234 0.070539
O O12 0.756574 0.026339 0.040530
O O13 0.996233 0.074944 0.056637
#
# Coordination Sequence:
#
# PCOD9268442 Si02
#       6
#     8   8   8   8   8   8
#     4   8  16  32  55  73  97 134 178 207 247 309
#     4   9  17  32  56  76  94 140 182 212 245 306
#     4   9  18  35  55  74  97 134 181 217 250 302
#     4   8  15  31  51  72 100 134 174 214 246 300
#     4  10  20  34  48  77 111 137 163 214 264 314
#     4  10  20  32  49  78 110 135 169 210 267 313
#
# _framework density 18.783318000000001
#
# number of rings (size 3 to 8) (size 9 to 14) (size 15 to 20)
#    0.000    3.000    0.000    3.000    0.000    1.333 
#   12.000    0.000    3.667    0.000    0.000    0.000 
#    0.000    0.000    0.000    0.000    0.000    0.000 
#
# Total GULP energy -133655.136453 kJ/mol
# GULP energy per Si atom -5568.964019 kJ/mol
# Density = 1.874057 g / cm^3
# Si number density = 18.783318 Si / 1000 Ang^3
#
#
#
# Elastic Constant Matrix: (Units=GPa)
#
#
# Indices 1 2 3 4 5 6 
#
# 1 36.6802 3.6552 20.6181 -0.0003 1.8796 0.0006
# 2 3.6552 55.8234 43.0059 -0.0003 -5.5171 0.0004
# 3 20.6181 43.0059 68.6518 0.0001 -8.0197 0.0003
# 4 -0.0003 -0.0003 0.0001 25.8377 0.0001 -8.0774
# 5 1.8796 -5.5171 -8.0197 0.0001 19.7946 -0.0004
# 6 0.0006 0.0004 0.0003 -8.0774 -0.0004 11.2277
#
#
#
# Elastic Compliance Matrix: (Units=1/GPa)
#
#
# Indices 1 2 3 4 5 6 
#
# 1 0.037574 0.011907 -0.019705 0.000000 -0.008233 -0.000002
# 2 0.011907 0.038411 -0.027837 0.000000 -0.001703 -0.000001
# 3 -0.019705 -0.027837 0.039084 0.000000 0.009947 0.000001
# 4 0.000000 0.000000 0.000000 0.049933 0.000000 0.035922
# 5 -0.008233 -0.001703 0.009947 0.000000 0.054856 0.000003
# 6 -0.000002 -0.000001 0.000001 0.035922 0.000003 0.114908
#
#
# Mechanical properties :
#
#
# Convention : Reuss Voigt Hill
#
# Bulk Modulus (GPa) = 22.83153 32.85709 27.84431
# Shear Modulus (GPa) = 11.88673 17.63043 14.75858
#
# Velocity S-wave (km/s) = 2.51835 3.06702 2.80613
# Velocity P-wave (km/s) = 4.54288 5.48387 5.03540
#
# Compressibility (1/GPa) = 0.04379908
#
# Stress axis : x y z
#
# Youngs Moduli (GPa) = 26.61389 26.03427 25.58577
#
# Poissons Ratio (x) = -0.30998 0.50417
# Poissons Ratio (y) = -0.31688 0.71223
# Poissons Ratio (z) = 0.52443 0.72471
#
# Static dielectric constant tensor:
#      x y z
#    x 1.658300 0.000000 0.025700 
#    y 0.000000 1.646790 0.000000 
#    z 0.025700 0.000000 1.696930 
# 
# From -- ./inp_files/178919.got.cif
#   From: 2010.05.17/outbox.cif.g08.bks.cpg/sg15_90_cif.got.tgz:178919.got - 2010.06.03 18:47:42.
