data_PCOD9268513
_publ_section_title
;
Structure prediction by ZEFSAII (Michael W. Deem and Ramdas Pophale) SiO2 
 PCOD9268513
Probable space group: C 2/C
;
_chemical_formula_sum "Si O2"
_cell_formula_units_Z 40
_cell_length_a 7.401688
_cell_length_b 26.419729
_cell_length_c 11.964575
_cell_angle_alpha 90.000000
_cell_angle_beta 140.290833
_cell_angle_gamma 90.000000
_cell_volume 1494.800099
_symmetry_space_group_name_H-M "C 2/C"
_symmetry_group_IT_number 15
_symmetry_cell_setting 'monoclinic'
loop_
_space_group_symop_operation_xyz
x,y,z
-x,y,1/2-z
-x,-y,-z
x,-y,1/2+z
1/2+x,1/2+y,z
1/2-x,1/2+y,1/2-z
1/2-x,1/2-y,-z
1/2+x,1/2-y,1/2+z
loop_
_atom_site_type_symbol
_atom_site_label
_atom_site_fract_x
_atom_site_fract_y
_atom_site_fract_z
Si Si1 0.185059 0.682514 0.646297
Si Si2 0.906381 0.896881 0.865010
Si Si3 0.313194 0.541196 0.843981
Si Si4 0.961842 0.575552 0.504491
Si Si5 0.210444 0.712482 0.243744
O O1 0.500000 0.677642 0.750000
O O2 0.174168 0.731229 0.720246
O O3 0.078490 0.626774 0.619301
O O4 0.984686 0.700044 0.451792
O O5 0.619143 0.915686 0.664961
O O6 0.913888 0.836064 0.854598
O O7 0.985986 0.910806 0.029832
O O8 0.156033 0.925400 0.917348
O O9 0.000000 0.542179 0.750000
O O10 0.204219 0.536617 0.662392
O O11 0.500000 0.500000 0.000000
O O12 0.000000 0.713114 0.250000
#
# Coordination Sequence:
#
# PCOD9268513 Si02
#       5
#     8   8   8   8   8
#     4  10  20  33  52  81 116 155 188 236 280 329
#     4   9  20  38  59  82 113 154 183 238 289 332
#     4  10  22  40  62  86 113 148 189 242 295 346
#     4   9  20  39  58  81 116 147 194 234 284 347
#     4  10  20  32  53  81 117 154 191 233 276 338
#
# _framework density 26.759429000000001
#
# number of rings (size 3 to 8) (size 9 to 14) (size 15 to 20)
#    0.000    2.400    0.000    2.400    5.600    2.400 
#    3.600    0.000    0.000    0.000    0.000    0.000 
#    0.000    0.000    0.000    0.000    0.000    0.000 
#
# Total GULP energy -111484.762878 kJ/mol
# GULP energy per Si atom -5574.238144 kJ/mol
# Density = 2.669852 g / cm^3
# Si number density = 26.759429 Si / 1000 Ang^3
#
#
#
# Elastic Constant Matrix: (Units=GPa)
#
#
# Indices 1 2 3 4 5 6 
#
# 1 56.8782 2.6693 26.5080 0.0000 18.0634 0.0000
# 2 2.6693 90.0994 67.7743 0.0000 13.5606 0.0000
# 3 26.5080 67.7743 236.7886 0.0000 -10.5701 0.0000
# 4 0.0000 0.0000 0.0000 63.8845 0.0000 3.5190
# 5 18.0634 13.5606 -10.5701 0.0000 35.8900 0.0000
# 6 0.0000 0.0000 0.0000 3.5190 0.0000 24.3046
#
#
#
# Elastic Compliance Matrix: (Units=1/GPa)
#
#
# Indices 1 2 3 4 5 6 
#
# 1 0.024772 0.005483 -0.005058 0.000000 -0.016029 0.000000
# 2 0.005483 0.017104 -0.006000 0.000000 -0.010989 0.000000
# 3 -0.005058 -0.006000 0.006811 0.000000 0.006819 0.000000
# 4 0.000000 0.000000 0.000000 0.015779 0.000000 -0.002285
# 5 -0.016029 -0.010989 0.006819 0.000000 0.042091 0.000000
# 6 0.000000 0.000000 0.000000 -0.002285 0.000000 0.041475
#
#
# Mechanical properties :
#
#
# Convention : Reuss Voigt Hill
#
# Bulk Modulus (GPa) = 26.63998 64.18548 45.41273
# Shear Modulus (GPa) = 29.12167 43.93679 36.52923
#
# Velocity S-wave (km/s) = 3.30248 4.05645 3.69873
# Velocity P-wave (km/s) = 4.95165 6.78070 5.93704
#
# Compressibility (1/GPa) = 0.03753756
#
# Stress axis : x y z
#
# Youngs Moduli (GPa) = 40.36810 58.46744 146.81906
#
# Poissons Ratio (x) = -0.32061 0.74264
# Poissons Ratio (y) = -0.22136 0.88089
# Poissons Ratio (z) = 0.20419 0.35080
#
# Static dielectric constant tensor:
#      x y z
#    x 2.189610 0.000000 -0.156700 
#    y 0.000000 2.593820 0.000000 
#    z -0.156700 0.000000 2.169580 
# 
# From -- ./inp_files/43040.got.cif
#   From: 2010.05.17/outbox.cif.g08.bks.cpg/sg15_22_cif.got.tgz:43040.got - 2010.06.03 18:47:42.
