data_PCOD9268201
_publ_section_title
;
Structure prediction by ZEFSAII (Michael W. Deem and Ramdas Pophale) SiO2 
 PCOD9268201
Probable space group: C 2/C
;
_chemical_formula_sum "Si O2"
_cell_formula_units_Z 48
_cell_length_a 13.545248
_cell_length_b 11.798828
_cell_length_c 14.232962
_cell_angle_alpha 90.000000
_cell_angle_beta 54.432507
_cell_angle_gamma 90.000000
_cell_volume 1850.298459
_symmetry_space_group_name_H-M "C 2/C"
_symmetry_group_IT_number 15
_symmetry_cell_setting 'monoclinic'
loop_
_space_group_symop_operation_xyz
x,y,z
-x,y,1/2-z
-x,-y,-z
x,-y,1/2+z
1/2+x,1/2+y,z
1/2-x,1/2+y,1/2-z
1/2-x,1/2-y,-z
1/2+x,1/2-y,1/2+z
loop_
_atom_site_type_symbol
_atom_site_label
_atom_site_fract_x
_atom_site_fract_y
_atom_site_fract_z
Si Si1 0.598980 0.910837 0.480955
Si Si2 0.500000 0.296957 0.750000
Si Si3 0.168462 0.857217 0.510858
Si Si4 0.958809 0.845932 0.478656
Si Si5 0.500000 0.321179 0.250000
Si Si6 0.644631 0.902808 0.258598
Si Si7 0.176501 0.611195 0.142375
O O1 0.535869 0.790522 0.529402
O O2 0.686930 0.900781 0.342081
O O3 0.663603 0.936881 0.542798
O O4 0.500000 0.000000 0.500000
O O5 0.605215 0.374122 0.647995
O O6 0.447436 0.202743 0.704344
O O7 0.250000 0.750000 0.500000
O O8 0.260094 0.894467 0.377555
O O9 0.047835 0.874576 0.513496
O O10 0.995154 0.884032 0.353176
O O11 0.820045 0.876688 0.578931
O O12 0.615432 0.234797 0.181891
O O13 0.604857 0.031484 0.255785
#
# Coordination Sequence:
#
# PCOD9268201 Si02
#       7
#     8   4   8   8   4   8   8
#     4  11  22  41  70  97 131 177 230 287 339 419
#     4  10  19  44  65  96 128 178 240 297 346 427
#     4  10  24  39  69  94 132 181 232 282 356 417
#     4  11  24  42  66 100 135 174 227 287 358 410
#     4  10  21  40  71  88 130 172 218 273 344 425
#     4  11  22  41  66  95 136 173 231 291 348 424
#     4  11  25  41  63 105 132 174 231 289 356 413
#
# _framework density 25.941759999999999
#
# number of rings (size 3 to 8) (size 9 to 14) (size 15 to 20)
#    0.000    1.333    1.667    5.500    7.000    0.667 
#    3.000    0.833    0.000    0.000    0.000    0.000 
#    0.000    0.000    0.000    0.000    0.000    0.000 
#
# Total GULP energy -133736.853157 kJ/mol
# GULP energy per Si atom -5572.368882 kJ/mol
# Density = 2.588272 g / cm^3
# Si number density = 25.941760 Si / 1000 Ang^3
#
#
#
# Elastic Constant Matrix: (Units=GPa)
#
#
# Indices 1 2 3 4 5 6 
#
# 1 132.0215 15.5459 16.4889 0.0000 7.1701 0.0000
# 2 15.5459 66.8845 18.5467 0.0000 9.8335 0.0000
# 3 16.4889 18.5467 137.5549 0.0000 16.0516 0.0000
# 4 0.0000 0.0000 0.0000 32.7429 0.0000 -1.2432
# 5 7.1701 9.8335 16.0516 0.0000 50.4921 0.0000
# 6 0.0000 0.0000 0.0000 -1.2432 0.0000 21.9898
#
#
#
# Elastic Compliance Matrix: (Units=1/GPa)
#
#
# Indices 1 2 3 4 5 6 
#
# 1 0.007874 -0.001557 -0.000663 0.000000 -0.000604 0.000000
# 2 -0.001557 0.016137 -0.001712 0.000000 -0.002377 0.000000
# 3 -0.000663 -0.001712 0.007820 0.000000 -0.002059 0.000000
# 4 0.000000 0.000000 0.000000 0.030607 0.000000 0.001730
# 5 -0.000604 -0.002377 -0.002059 0.000000 0.021008 0.000000
# 6 0.000000 0.000000 0.000000 0.001730 0.000000 0.045573
#
#
# Mechanical properties :
#
#
# Convention : Reuss Voigt Hill
#
# Bulk Modulus (GPa) = 41.72500 48.62487 45.17493
# Shear Modulus (GPa) = 34.51297 40.10360 37.30829
#
# Velocity S-wave (km/s) = 3.65142 3.93607 3.79642
# Velocity P-wave (km/s) = 5.82205 6.28024 6.05548
#
# Compressibility (1/GPa) = 0.02396645
#
# Stress axis : x y z
#
# Youngs Moduli (GPa) = 127.00754 61.96825 127.87143
#
# Poissons Ratio (x) = 0.09650 0.08483
# Poissons Ratio (y) = 0.19779 0.21888
# Poissons Ratio (z) = 0.08425 0.10607
#
# Static dielectric constant tensor:
#      x y z
#    x 1.972980 0.000000 -0.020270 
#    y 0.000000 239.364150 0.000000 
#    z -0.020270 0.000000 2.081510 
# 
# From -- ./inp_files/153833.got.cif
#   From: 2010.05.17/outbox.cif.g08.bks.cpg/sg15_77_cif.got.tgz:153833.got - 2010.06.03 18:47:42.
