data_PCOD9268829
_publ_section_title
;
Structure prediction by ZEFSAII (Michael W. Deem and Ramdas Pophale) SiO2 
 PCOD9268829
Probable space group: C 2/C
;
_chemical_formula_sum "Si O2"
_cell_formula_units_Z 56
_cell_length_a 16.617496
_cell_length_b 20.689878
_cell_length_c 10.568594
_cell_angle_alpha 90.000000
_cell_angle_beta 57.878381
_cell_angle_gamma 90.000000
_cell_volume 3077.399008
_symmetry_space_group_name_H-M "C 2/C"
_symmetry_group_IT_number 15
_symmetry_cell_setting 'monoclinic'
loop_
_space_group_symop_operation_xyz
x,y,z
-x,y,1/2-z
-x,-y,-z
x,-y,1/2+z
1/2+x,1/2+y,z
1/2-x,1/2+y,1/2-z
1/2-x,1/2-y,-z
1/2+x,1/2-y,1/2+z
loop_
_atom_site_type_symbol
_atom_site_label
_atom_site_fract_x
_atom_site_fract_y
_atom_site_fract_z
Si Si1 0.094827 0.558561 0.115634
Si Si2 0.859553 0.305561 0.819120
Si Si3 0.325503 0.254748 0.624082
Si Si4 0.722462 0.310763 0.436061
Si Si5 0.159369 0.427095 0.073289
Si Si6 0.970667 0.758597 0.006759
Si Si7 0.016017 0.388954 0.417385
O O1 0.110058 0.621216 0.188956
O O2 0.176049 0.504238 0.058250
O O3 0.067453 0.585351 0.000521
O O4 0.000000 0.526005 0.250000
O O5 0.761402 0.302813 0.824716
O O6 0.931497 0.261214 0.678760
O O7 0.844614 0.278071 0.972244
O O8 0.285104 0.201904 0.756660
O O9 0.423964 0.287909 0.581083
O O10 0.750000 0.250000 0.500000
O O11 0.754054 0.376919 0.479330
O O12 0.611908 0.299474 0.491573
O O13 0.089896 0.418054 0.010401
O O14 0.088857 0.406791 0.246024
O O15 0.992828 0.687548 0.931246
#
# Coordination Sequence:
#
# PCOD9268829 Si02
#       7
#     8   8   8   8   8   8   8
#     4  12  20  31  53  78 108 139 171 215 274 327
#     4  10  20  33  53  82 105 136 176 221 272 315
#     4  10  20  35  52  76 110 134 177 229 261 308
#     4  11  22  34  51  76 104 146 177 213 259 319
#     4  11  23  34  49  75 114 142 169 213 268 325
#     4  11  19  33  58  73 110 138 179 217 262 314
#     4  11  20  34  50  77 106 141 169 212 270 316
#
# _framework density 18.197184
#
# number of rings (size 3 to 8) (size 9 to 14) (size 15 to 20)
#    0.000    1.143    7.143    0.857    0.000    0.571 
#    0.000    0.000    0.000    0.857    0.000    0.000 
#   12.857    0.000    0.000    0.000    0.000    0.000 
#
# Total GULP energy -156002.224757 kJ/mol
# GULP energy per Si atom -5571.508027 kJ/mol
# Density = 1.815577 g / cm^3
# Si number density = 18.197184 Si / 1000 Ang^3
#
#
#
# Elastic Constant Matrix: (Units=GPa)
#
#
# Indices 1 2 3 4 5 6 
#
# 1 128.4184 38.8659 14.1425 0.0000 -16.9190 0.0000
# 2 38.8659 79.1927 -2.9473 0.0000 0.6653 0.0000
# 3 14.1425 -2.9473 31.9502 0.0000 -0.2176 0.0000
# 4 0.0000 0.0000 0.0000 11.7777 0.0000 -7.1900
# 5 -16.9190 0.6653 -0.2176 0.0000 28.3340 0.0000
# 6 0.0000 0.0000 0.0000 -7.1900 0.0000 15.6816
#
#
#
# Elastic Compliance Matrix: (Units=1/GPa)
#
#
# Indices 1 2 3 4 5 6 
#
# 1 0.010950 -0.005628 -0.005321 0.000000 0.006630 0.000000
# 2 -0.005628 0.015566 0.003902 0.000000 -0.003696 0.000000
# 3 -0.005321 0.003902 0.033993 0.000000 -0.003008 0.000000
# 4 0.000000 0.000000 0.000000 0.117908 0.000000 0.054061
# 5 0.006630 -0.003696 -0.003008 0.000000 0.039316 0.000000
# 6 0.000000 0.000000 0.000000 0.054061 0.000000 0.088556
#
#
# Mechanical properties :
#
#
# Convention : Reuss Voigt Hill
#
# Bulk Modulus (GPa) = 21.54464 37.74263 29.64363
# Shear Modulus (GPa) = 14.88745 23.79200 19.33972
#
# Velocity S-wave (km/s) = 2.86338 3.61980 3.26358
# Velocity P-wave (km/s) = 4.77464 6.18519 5.52511
#
# Compressibility (1/GPa) = 0.04641526
#
# Stress axis : x y z
#
# Youngs Moduli (GPa) = 91.32745 64.24452 29.41758
#
# Poissons Ratio (x) = 0.36154 0.15652
# Poissons Ratio (y) = 0.51395 -0.11478
# Poissons Ratio (z) = 0.48593 -0.25066
#
# Static dielectric constant tensor:
#      x y z
#    x 1.699230 0.000000 0.033580 
#    y 0.000000 1.658720 0.000000 
#    z 0.033580 0.000000 1.674380 
# 
# From -- ./inp_files/107080.got.cif
#   From: 2010.05.17/outbox.cif.g08.bks.cpg/sg15_54_cif.got.tgz:107080.got - 2010.06.03 18:47:42.
