data_PCOD9268968
_publ_section_title
;
Structure prediction by ZEFSAII (Michael W. Deem and Ramdas Pophale) SiO2 
 PCOD9268968
Probable space group: C 2/C
;
_chemical_formula_sum "Si O2"
_cell_formula_units_Z 48
_cell_length_a 19.720769
_cell_length_b 11.686137
_cell_length_c 15.703816
_cell_angle_alpha 90.000000
_cell_angle_beta 145.011142
_cell_angle_gamma 90.000000
_cell_volume 2075.251229
_symmetry_space_group_name_H-M "C 2/C"
_symmetry_group_IT_number 15
_symmetry_cell_setting 'monoclinic'
loop_
_space_group_symop_operation_xyz
x,y,z
-x,y,1/2-z
-x,-y,-z
x,-y,1/2+z
1/2+x,1/2+y,z
1/2-x,1/2+y,1/2-z
1/2-x,1/2-y,-z
1/2+x,1/2-y,1/2+z
loop_
_atom_site_type_symbol
_atom_site_label
_atom_site_fract_x
_atom_site_fract_y
_atom_site_fract_z
Si Si1 0.264926 0.043254 0.808720
Si Si2 0.085583 0.510495 0.265299
Si Si3 0.992305 0.701821 0.061899
Si Si4 0.097790 0.674318 0.994426
Si Si5 0.983675 0.949757 0.386566
Si Si6 0.681241 0.593562 0.528319
O O1 0.229826 0.066287 0.674473
O O2 0.156724 0.065320 0.760693
O O3 0.306657 0.914826 0.871371
O O4 0.375417 0.125598 0.937903
O O5 0.087845 0.615586 0.201595
O O6 0.000000 0.558353 0.250000
O O7 0.214556 0.461883 0.420839
O O8 0.007979 0.402227 0.152784
O O9 0.965957 0.823111 0.075975
O O10 0.039475 0.733411 0.016673
O O11 0.156918 0.771254 0.997381
O O12 0.054284 0.032849 0.397088
O O13 0.000000 0.000000 0.500000
#
# Coordination Sequence:
#
# PCOD9268968 Si02
#       6
#     8   8   8   8   8   8
#     4  10  20  33  57  93 121 146 192 261 305 359
#     4  11  25  43  61  86 125 172 205 240 305 376
#     4  11  20  38  63  91 118 156 205 256 309 350
#     4  11  21  37  64  90 116 160 203 260 308 340
#     4  10  22  31  58  98 121 146 194 258 320 345
#     4  11  22  34  63  89 125 151 204 253 304 360
#
# _framework density 23.129731
#
# number of rings (size 3 to 8) (size 9 to 14) (size 15 to 20)
#    0.000    1.333    6.667    1.000    9.333    0.667 
#    0.000    0.833    0.000    0.000    0.000    0.000 
#    0.000    0.000    0.000    0.000    0.000    0.000 
#
# Total GULP energy -134019.693530 kJ/mol
# GULP energy per Si atom -5584.153897 kJ/mol
# Density = 2.307709 g / cm^3
# Si number density = 23.129731 Si / 1000 Ang^3
#
#
#
# Elastic Constant Matrix: (Units=GPa)
#
#
# Indices 1 2 3 4 5 6 
#
# 1 44.9778 0.8017 18.8447 0.0000 15.4903 0.0000
# 2 0.8017 127.8488 14.2016 0.0000 1.3101 0.0000
# 3 18.8447 14.2016 32.0102 0.0000 17.4994 0.0000
# 4 0.0000 0.0000 0.0000 13.6514 0.0000 10.5771
# 5 15.4903 1.3101 17.4994 0.0000 33.0385 0.0000
# 6 0.0000 0.0000 0.0000 10.5771 0.0000 6.6405
#
#
#
# Elastic Compliance Matrix: (Units=1/GPa)
#
#
# Indices 1 2 3 4 5 6 
#
# 1 0.030842 0.001579 -0.015368 0.000000 -0.006383 0.000000
# 2 0.001579 0.008430 -0.005746 0.000000 0.001969 0.000000
# 3 -0.015368 -0.005746 0.054576 0.000000 -0.021474 0.000000
# 4 0.000000 0.000000 0.000000 -0.312903 0.000000 0.498396
# 5 -0.006383 0.001969 -0.021474 0.000000 0.044556 0.000000
# 6 0.000000 0.000000 0.000000 0.498396 0.000000 -0.643261
#
#
# Mechanical properties :
#
#
# Convention : Reuss Voigt Hill
#
# Bulk Modulus (GPa) = 18.25540 30.28141 24.26840
# Shear Modulus (GPa) = -6.57523 22.06534 7.74506
#
# Velocity S-wave (km/s) = -1.68788 3.09201 1.83188
# Velocity P-wave (km/s) = 2.02760 5.08604 3.87162
#
# Compressibility (1/GPa) = 0.05477833
#
# Stress axis : x y z
#
# Youngs Moduli (GPa) = 32.42303 118.62498 18.32313
#
# Poissons Ratio (x) = -0.18732 0.28159
# Poissons Ratio (y) = -0.05120 0.10528
# Poissons Ratio (z) = 0.49828 0.68161
#
# Static dielectric constant tensor:
#      x y z
#    x 1.967420 0.000000 -0.019620 
#    y 0.000000 1.836990 0.000000 
#    z -0.019620 0.000000 1.912040 
# 
# From -- ./inp_files/111215.got.cif
#   From: 2010.05.17/outbox.cif.g08.bks.cpg/sg15_56_cif.got.tgz:111215.got - 2010.06.03 18:47:42.
