data_PCOD9268928
_publ_section_title
;
Structure prediction by ZEFSAII (Michael W. Deem and Ramdas Pophale) SiO2 
 PCOD9268928
Probable space group: C 2/C
;
_chemical_formula_sum "Si O2"
_cell_formula_units_Z 56
_cell_length_a 11.746584
_cell_length_b 8.704571
_cell_length_c 26.150003
_cell_angle_alpha 90.000000
_cell_angle_beta 108.400235
_cell_angle_gamma 90.000000
_cell_volume 2537.111645
_symmetry_space_group_name_H-M "C 2/C"
_symmetry_group_IT_number 15
_symmetry_cell_setting 'monoclinic'
loop_
_space_group_symop_operation_xyz
x,y,z
-x,y,1/2-z
-x,-y,-z
x,-y,1/2+z
1/2+x,1/2+y,z
1/2-x,1/2+y,1/2-z
1/2-x,1/2-y,-z
1/2+x,1/2-y,1/2+z
loop_
_atom_site_type_symbol
_atom_site_label
_atom_site_fract_x
_atom_site_fract_y
_atom_site_fract_z
Si Si1 0.564442 0.140890 0.112373
Si Si2 0.131474 0.897997 0.394175
Si Si3 0.893094 0.657881 0.929396
Si Si4 0.632384 0.566167 0.008965
Si Si5 0.016945 0.424554 0.194825
Si Si6 0.744083 0.586212 0.622166
Si Si7 0.434567 0.628131 0.344961
O O1 0.450111 0.249600 0.105579
O O2 0.674435 0.252229 0.114470
O O3 0.551295 0.010182 0.067157
O O4 0.581748 0.045967 0.167289
O O5 0.257889 0.858555 0.387645
O O6 0.163713 0.963925 0.454959
O O7 0.047283 0.016511 0.352493
O O8 0.877536 0.752613 0.979189
O O9 0.959988 0.772316 0.900063
O O10 0.717995 0.490179 0.063284
O O11 0.500000 0.500000 0.000000
O O12 0.883294 0.402738 0.153235
O O13 0.000000 0.477705 0.250000
O O14 0.080134 0.257660 0.199975
O O15 0.677270 0.478388 0.654834
#
# Coordination Sequence:
#
# PCOD9268928 Si02
#       7
#     8   8   8   8   8   8   8
#     4  10  21  38  61  86 118 150 196 248 287 348
#     4  11  20  38  60  85 122 158 194 234 287 350
#     4  10  20  33  56  84 117 158 192 232 286 335
#     4  11  19  38  59  86 125 164 191 236 287 348
#     4  11  24  41  62  88 113 149 199 248 300 351
#     4  10  21  41  60  83 123 155 191 241 292 344
#     4   9  20  39  60  81 119 151 189 242 290 349
#
# _framework density 22.072341999999999
#
# number of rings (size 3 to 8) (size 9 to 14) (size 15 to 20)
#    0.000    1.714    4.286    3.000    0.000    1.714 
#    0.000    8.571    0.000    0.000    0.000    0.000 
#    0.000    0.000    0.000    0.000    0.000    0.000 
#
# Total GULP energy -156409.046733 kJ/mol
# GULP energy per Si atom -5586.037383 kJ/mol
# Density = 2.202210 g / cm^3
# Si number density = 22.072342 Si / 1000 Ang^3
#
#
#
# Elastic Constant Matrix: (Units=GPa)
#
#
# Indices 1 2 3 4 5 6 
#
# 1 52.5829 20.5689 1.8309 0.0000 9.0225 0.0000
# 2 20.5689 119.0223 0.8429 0.0000 -3.3730 0.0000
# 3 1.8309 0.8429 37.2417 0.0000 -21.4699 0.0000
# 4 0.0000 0.0000 0.0000 14.1543 0.0000 -4.6970
# 5 9.0225 -3.3730 -21.4699 0.0000 23.4963 0.0000
# 6 0.0000 0.0000 0.0000 -4.6970 0.0000 27.8897
#
#
#
# Elastic Compliance Matrix: (Units=1/GPa)
#
#
# Indices 1 2 3 4 5 6 
#
# 1 0.025754 -0.005041 -0.015364 0.000000 -0.024652 0.000000
# 2 -0.005041 0.009443 0.004082 0.000000 0.007021 0.000000
# 3 -0.015364 0.004082 0.066045 0.000000 0.066835 0.000000
# 4 0.000000 0.000000 0.000000 0.074832 0.000000 0.012603
# 5 -0.024652 0.007021 0.066835 0.000000 0.114105 0.000000
# 6 0.000000 0.000000 0.000000 0.012603 0.000000 0.037978
#
#
# Mechanical properties :
#
#
# Convention : Reuss Voigt Hill
#
# Bulk Modulus (GPa) = 14.57813 28.37025 21.47419
# Shear Modulus (GPa) = 13.03205 25.48167 19.25686
#
# Velocity S-wave (km/s) = 2.43250 3.40142 2.95692
# Velocity P-wave (km/s) = 3.80900 5.32047 4.62687
#
# Compressibility (1/GPa) = 0.06859591
#
# Stress axis : x y z
#
# Youngs Moduli (GPa) = 38.82844 105.89927 15.14116
#
# Poissons Ratio (x) = 0.53379 0.23263
# Poissons Ratio (y) = 0.19572 -0.06180
# Poissons Ratio (z) = 0.59657 -0.43223
#
# Static dielectric constant tensor:
#      x y z
#    x 1.817190 0.000000 -0.027710 
#    y 0.000000 1.861110 0.000000 
#    z -0.027710 0.000000 1.808480 
# 
# From -- ./inp_files/310049.got.cif
#   From: 2010.05.17/outbox.cif.g08.bks.cpg/sg15_156_cif.got.tgz:310049.got - 2010.06.03 18:47:42.
