data_PCOD9268040
_publ_section_title
;
Structure prediction by ZEFSAII (Michael W. Deem and Ramdas Pophale) SiO2 
 PCOD9268040
Probable space group: C 2/C
;
_chemical_formula_sum "Si O2"
_cell_formula_units_Z 36
_cell_length_a 14.428367
_cell_length_b 4.962457
_cell_length_c 19.072495
_cell_angle_alpha 90.000000
_cell_angle_beta 65.371573
_cell_angle_gamma 90.000000
_cell_volume 1241.364741
_symmetry_space_group_name_H-M "C 2/C"
_symmetry_group_IT_number 15
_symmetry_cell_setting 'monoclinic'
loop_
_space_group_symop_operation_xyz
x,y,z
-x,y,1/2-z
-x,-y,-z
x,-y,1/2+z
1/2+x,1/2+y,z
1/2-x,1/2+y,1/2-z
1/2-x,1/2-y,-z
1/2+x,1/2-y,1/2+z
loop_
_atom_site_type_symbol
_atom_site_label
_atom_site_fract_x
_atom_site_fract_y
_atom_site_fract_z
Si Si1 0.366996 0.550888 0.171322
Si Si2 0.000000 0.053788 0.250000
Si Si3 0.464948 0.949560 0.378578
Si Si4 0.288180 0.778938 0.877623
Si Si5 0.657902 0.756209 0.949570
O O1 0.409797 0.432875 0.230175
O O2 0.419024 0.845213 0.151088
O O3 0.250534 0.591043 0.184920
O O4 0.407653 0.361861 0.095293
O O5 0.060980 0.252779 0.178652
O O6 0.414110 0.860632 0.466908
O O7 0.404410 0.209680 0.368218
O O8 0.233237 0.494578 0.903153
O O9 0.226613 0.994959 0.947044
#
# Coordination Sequence:
#
# PCOD9268040 Si02
#       5
#     8   4   8   8   8
#     4   8  21  40  68 102 136 190 241 296 380 440
#     4   8  20  42  66  98 144 198 238 302 384 460
#     4  10  19  41  68 103 143 189 241 310 372 454
#     4  10  22  40  68 102 136 179 247 306 368 441
#     4  10  21  41  70 103 137 181 248 308 368 436
#
# _framework density 29.000337999999999
#
# number of rings (size 3 to 8) (size 9 to 14) (size 15 to 20)
#    2.667    0.000    0.000    2.000    0.000    0.889 
#    4.000    3.333    9.778    0.000    0.000    0.000 
#    0.000    0.000    0.000    2.444    0.000    0.000 
#
# Total GULP energy -100429.696136 kJ/mol
# GULP energy per Si atom -5579.427563 kJ/mol
# Density = 2.893433 g / cm^3
# Si number density = 29.000338 Si / 1000 Ang^3
#
#
#
# Elastic Constant Matrix: (Units=GPa)
#
#
# Indices 1 2 3 4 5 6 
#
# 1 161.8517 36.8670 49.7469 0.0017 21.9756 0.0026
# 2 36.8670 138.2363 20.9940 0.0033 -3.4673 0.0061
# 3 49.7469 20.9940 126.2556 -0.0010 44.6547 0.0007
# 4 0.0017 0.0033 -0.0010 17.0385 0.0010 -6.8126
# 5 21.9756 -3.4673 44.6547 0.0010 41.3836 0.0010
# 6 0.0026 0.0061 0.0007 -6.8126 0.0010 49.0499
#
#
#
# Elastic Compliance Matrix: (Units=1/GPa)
#
#
# Indices 1 2 3 4 5 6 
#
# 1 0.007442 -0.001742 -0.001930 0.000000 -0.002016 0.000000
# 2 -0.001742 0.008094 -0.001983 -0.000002 0.003743 -0.000001
# 3 -0.001930 -0.001983 0.014081 0.000003 -0.014335 0.000001
# 4 0.000000 -0.000002 0.000003 0.062142 -0.000004 0.008631
# 5 -0.002016 0.003743 -0.014335 -0.000004 0.041016 -0.000002
# 6 0.000000 -0.000001 0.000001 0.008631 -0.000002 0.021586
#
#
# Mechanical properties :
#
#
# Convention : Reuss Voigt Hill
#
# Bulk Modulus (GPa) = 54.62715 71.28436 62.95575
# Shear Modulus (GPa) = 29.10810 42.74343 35.92577
#
# Velocity S-wave (km/s) = 3.17158 3.84330 3.52348
# Velocity P-wave (km/s) = 5.68239 6.65796 6.18943
#
# Compressibility (1/GPa) = 0.01830591
#
# Stress axis : x y z
#
# Youngs Moduli (GPa) = 134.36962 123.55197 71.01922
#
# Poissons Ratio (x) = 0.21526 0.13705
# Poissons Ratio (y) = 0.23411 0.14086
# Poissons Ratio (z) = 0.25929 0.24505
#
# Static dielectric constant tensor:
#      x y z
#    x 2.380310 0.000000 0.043770 
#    y 0.000000 2.280960 0.000000 
#    z 0.043770 0.000000 2.364270 
# 
# From -- ./inp_files/246084.got.cif
#   From: 2010.05.17/outbox.cif.g08.bks.cpg/sg15_124_cif.got.tgz:246084.got - 2010.06.03 18:47:42.
