data_PCOD9268036
_publ_section_title
;
Structure prediction by ZEFSAII (Michael W. Deem and Ramdas Pophale) SiO2 
 PCOD9268036
Probable space group: C 2/C
;
_chemical_formula_sum "Si O2"
_cell_formula_units_Z 36
_cell_length_a 4.882941
_cell_length_b 24.874634
_cell_length_c 13.031328
_cell_angle_alpha 90.000000
_cell_angle_beta 100.687241
_cell_angle_gamma 90.000000
_cell_volume 1555.347841
_symmetry_space_group_name_H-M "C 2/C"
_symmetry_group_IT_number 15
_symmetry_cell_setting 'monoclinic'
loop_
_space_group_symop_operation_xyz
x,y,z
-x,y,1/2-z
-x,-y,-z
x,-y,1/2+z
1/2+x,1/2+y,z
1/2-x,1/2+y,1/2-z
1/2-x,1/2-y,-z
1/2+x,1/2-y,1/2+z
loop_
_atom_site_type_symbol
_atom_site_label
_atom_site_fract_x
_atom_site_fract_y
_atom_site_fract_z
Si Si1 0.372835 0.923830 0.348023
Si Si2 0.021634 0.203090 0.971461
Si Si3 0.000000 0.826954 0.250000
Si Si4 0.000000 0.583999 0.250000
Si Si5 0.551823 0.137997 0.039605
Si Si6 0.000000 0.009005 0.250000
O O1 0.500000 0.943151 0.250000
O O2 0.576253 0.909204 0.455448
O O3 0.240502 0.866892 0.303968
O O4 0.139047 0.969414 0.345190
O O5 0.921216 0.205247 0.846270
O O6 0.250000 0.250000 0.000000
O O7 0.225793 0.152968 0.008293
O O8 0.753007 0.187931 0.021662
O O9 0.087372 0.618718 0.157406
O O10 0.269530 0.546801 0.286713
#
# Coordination Sequence:
#
# PCOD9268036 Si02
#       6
#     8   8   4   4   8   4
#     4  10  19  41  67  95 128 172 236 282 325 370
#     4  11  23  42  69 101 126 168 226 278 336 401
#     4   9  20  37  66  96 130 164 216 289 338 383
#     4  12  26  45  60  97 146 185 216 261 352 412
#     4  11  25  43  67  93 138 180 215 278 343 394
#     4  11  24  40  66  99 130 181 238 276 316 403
#
# _framework density 23.145949999999999
#
# number of rings (size 3 to 8) (size 9 to 14) (size 15 to 20)
#    0.000    1.333    3.333    2.000    0.000    2.667 
#    0.000    2.222    0.000    0.000    0.000    0.000 
#    0.000    0.000    0.000    0.000    0.000    0.000 
#
# Total GULP energy -100283.522343 kJ/mol
# GULP energy per Si atom -5571.306797 kJ/mol
# Density = 2.309327 g / cm^3
# Si number density = 23.145950 Si / 1000 Ang^3
#
#
#
# Elastic Constant Matrix: (Units=GPa)
#
#
# Indices 1 2 3 4 5 6 
#
# 1 123.1693 29.8797 33.2536 0.0000 -16.3163 0.0000
# 2 29.8797 61.7405 60.2552 0.0000 -7.5262 0.0000
# 3 33.2536 60.2552 162.9336 0.0000 -13.2025 0.0000
# 4 0.0000 0.0000 0.0000 2.3082 0.0000 -2.5322
# 5 -16.3163 -7.5262 -13.2025 0.0000 25.9341 0.0000
# 6 0.0000 0.0000 0.0000 -2.5322 0.0000 49.1786
#
#
#
# Elastic Compliance Matrix: (Units=1/GPa)
#
#
# Indices 1 2 3 4 5 6 
#
# 1 0.009777 -0.004027 -0.000107 0.000000 0.004928 0.000000
# 2 -0.004027 0.027184 -0.009176 0.000000 0.000684 0.000000
# 3 -0.000107 -0.009176 0.009733 0.000000 0.002225 0.000000
# 4 0.000000 0.000000 0.000000 0.459175 0.000000 0.023643
# 5 0.004928 0.000684 0.002225 0.000000 0.042991 0.000000
# 6 0.000000 0.000000 0.000000 0.023643 0.000000 0.021551
#
#
# Mechanical properties :
#
#
# Convention : Reuss Voigt Hill
#
# Bulk Modulus (GPa) = 49.81197 66.06891 57.94044
# Shear Modulus (GPa) = 8.28194 30.44784 19.36489
#
# Velocity S-wave (km/s) = 1.89365 3.63088 2.89562
# Velocity P-wave (km/s) = 5.13310 6.79589 6.02216
#
# Compressibility (1/GPa) = 0.02007549
#
# Stress axis : x y z
#
# Youngs Moduli (GPa) = 102.27566 36.78638 102.74416
#
# Poissons Ratio (x) = 0.14812 0.01100
# Poissons Ratio (y) = 0.41182 0.94276
# Poissons Ratio (z) = 0.01095 0.33754
#
# Static dielectric constant tensor:
#      x y z
#    x 2.040900 0.000000 -0.049860 
#    y 0.000000 1.973740 0.000000 
#    z -0.049860 0.000000 1.996650 
# 
# From -- ./inp_files/72731.got.cif
#   From: 2010.05.17/outbox.cif.g08.bks.cpg/sg15_37_cif.got.tgz:72731.got - 2010.06.03 18:47:42.
