data_PCOD9268641
_publ_section_title
;
Structure prediction by ZEFSAII (Michael W. Deem and Ramdas Pophale) SiO2 
 PCOD9268641
Probable space group: C 2/C
;
_chemical_formula_sum "Si O2"
_cell_formula_units_Z 60
_cell_length_a 5.006533
_cell_length_b 18.727818
_cell_length_c 29.800799
_cell_angle_alpha 90.000000
_cell_angle_beta 105.686447
_cell_angle_gamma 90.000000
_cell_volume 2690.099123
_symmetry_space_group_name_H-M "C 2/C"
_symmetry_group_IT_number 15
_symmetry_cell_setting 'monoclinic'
loop_
_space_group_symop_operation_xyz
x,y,z
-x,y,1/2-z
-x,-y,-z
x,-y,1/2+z
1/2+x,1/2+y,z
1/2-x,1/2+y,1/2-z
1/2-x,1/2-y,-z
1/2+x,1/2-y,1/2+z
loop_
_atom_site_type_symbol
_atom_site_label
_atom_site_fract_x
_atom_site_fract_y
_atom_site_fract_z
Si Si1 0.213759 0.129119 0.322784
Si Si2 0.906385 0.125865 0.043749
Si Si3 0.285937 0.938626 0.199278
Si Si4 0.302065 0.166246 0.990386
Si Si5 0.339264 0.286218 0.342352
Si Si6 0.764397 0.062211 0.367673
Si Si7 0.000000 0.971268 0.750000
Si Si8 0.940422 0.722620 0.903717
O O1 0.217144 0.213309 0.317036
O O2 0.482916 0.106041 0.363386
O O3 0.940108 0.103761 0.336982
O O4 0.230707 0.085232 0.277099
O O5 0.040905 0.126461 0.000306
O O6 0.036386 0.063741 0.080157
O O7 0.011603 0.199163 0.072683
O O8 0.577522 0.134532 0.026009
O O9 0.500000 0.950022 0.250000
O O10 0.248410 0.856459 0.187734
O O11 0.324038 0.985471 0.156221
O O12 0.017861 0.975252 0.209182
O O13 0.250000 0.250000 0.000000
O O14 0.369822 0.168453 0.940778
O O15 0.669978 0.278576 0.360178
O O16 0.211193 0.293030 0.386621
#
# Coordination Sequence:
#
# PCOD9268641 Si02
#       8
#     8   8   8   8   8   8   4   8
#     4  11  21  40  62  92 116 167 200 276 301 359
#     4  11  18  35  61  94 123 163 212 252 311 371
#     4  11  26  45  64  90 127 171 208 258 318 388
#     4  10  20  32  60  92 132 161 199 263 315 361
#     4  12  24  38  64  92 130 164 208 254 319 370
#     4  11  22  40  66  88 129 160 212 258 308 366
#     4  10  24  44  66  84 126 156 226 254 320 368
#     4  11  21  38  57  94 132 161 203 259 315 366
#
# _framework density 22.304010000000002
#
# number of rings (size 3 to 8) (size 9 to 14) (size 15 to 20)
#    0.000    1.067    4.000    4.800    2.800    0.000 
#    0.000    0.000    0.000    4.800    0.000    0.000 
#    0.000    0.000    0.000    0.000    0.000    0.000 
#
# Total GULP energy -167441.612246 kJ/mol
# GULP energy per Si atom -5581.387075 kJ/mol
# Density = 2.225324 g / cm^3
# Si number density = 22.304010 Si / 1000 Ang^3
#
#
#
# Elastic Constant Matrix: (Units=GPa)
#
#
# Indices 1 2 3 4 5 6 
#
# 1 86.0525 5.3951 -4.7028 0.0000 8.1770 0.0000
# 2 5.3951 105.5658 7.2527 0.0000 -5.5549 0.0000
# 3 -4.7028 7.2527 21.1884 0.0000 -7.8694 0.0000
# 4 0.0000 0.0000 0.0000 15.8099 0.0000 3.5258
# 5 8.1770 -5.5549 -7.8694 0.0000 33.5063 0.0000
# 6 0.0000 0.0000 0.0000 3.5258 0.0000 8.9759
#
#
#
# Elastic Compliance Matrix: (Units=1/GPa)
#
#
# Indices 1 2 3 4 5 6 
#
# 1 0.012035 -0.000890 0.002005 0.000000 -0.002614 0.000000
# 2 -0.000890 0.009792 -0.003140 0.000000 0.001103 0.000000
# 3 0.002005 -0.003140 0.052960 0.000000 0.011428 0.000000
# 4 0.000000 0.000000 0.000000 0.069324 0.000000 -0.027231
# 5 -0.002614 0.001103 0.011428 0.000000 0.033350 0.000000
# 6 0.000000 0.000000 0.000000 -0.027231 0.000000 0.122105
#
#
# Mechanical properties :
#
#
# Convention : Reuss Voigt Hill
#
# Bulk Modulus (GPa) = 14.13691 25.41076 19.77384
# Shear Modulus (GPa) = 15.28141 25.31587 20.29864
#
# Velocity S-wave (km/s) = 2.62036 3.37269 3.02004
# Velocity P-wave (km/s) = 3.93791 5.15600 4.58756
#
# Compressibility (1/GPa) = 0.07073682
#
# Stress axis : x y z
#
# Youngs Moduli (GPa) = 83.09398 102.12390 18.88219
#
# Poissons Ratio (x) = 0.09092 -0.03786
# Poissons Ratio (y) = 0.07398 0.05928
# Poissons Ratio (z) = -0.16661 0.32063
#
# Static dielectric constant tensor:
#      x y z
#    x 1.919700 0.000000 -0.045170 
#    y 0.000000 1.796840 0.000000 
#    z -0.045170 0.000000 1.920720 
# 
# From -- ./inp_files/305821.got.cif
#   From: 2010.05.17/outbox.cif.g08.bks.cpg/sg15_153_cif.got.tgz:305821.got - 2010.06.03 18:47:42.
