data_PCOD9268258
_publ_section_title
;
Structure prediction by ZEFSAII (Michael W. Deem and Ramdas Pophale) SiO2 
 PCOD9268258
Probable space group: C 2/C
;
_chemical_formula_sum "Si O2"
_cell_formula_units_Z 32
_cell_length_a 14.616965
_cell_length_b 23.314413
_cell_length_c 14.589253
_cell_angle_alpha 90.000000
_cell_angle_beta 160.114917
_cell_angle_gamma 90.000000
_cell_volume 1691.086146
_symmetry_space_group_name_H-M "C 2/C"
_symmetry_group_IT_number 15
_symmetry_cell_setting 'monoclinic'
loop_
_space_group_symop_operation_xyz
x,y,z
-x,y,1/2-z
-x,-y,-z
x,-y,1/2+z
1/2+x,1/2+y,z
1/2-x,1/2+y,1/2-z
1/2-x,1/2-y,-z
1/2+x,1/2-y,1/2+z
loop_
_atom_site_type_symbol
_atom_site_label
_atom_site_fract_x
_atom_site_fract_y
_atom_site_fract_z
Si Si1 0.780722 0.454812 0.180780
Si Si2 0.000000 0.791731 0.250000
Si Si3 0.763964 0.423750 0.772354
Si Si4 0.000000 0.010504 0.750000
Si Si5 0.657388 0.114375 0.495275
O O1 0.770510 0.514451 0.227827
O O2 0.069864 0.429153 0.476615
O O3 0.547463 0.413565 0.001096
O O4 0.689388 0.473442 0.994015
O O5 0.250000 0.750000 0.500000
O O6 0.116197 0.836652 0.284589
O O7 0.937320 0.384853 0.867391
O O8 0.185138 0.053646 0.863680
O O9 0.500000 0.120923 0.250000
#
# Coordination Sequence:
#
# PCOD9268258 Si02
#       5
#     8   4   8   4   8
#     4  10  20  30  46  65 101 127 173 204 233 269
#     4  11  24  38  52  72  94 124 164 212 260 299
#     4  10  20  32  44  69  93 132 166 210 233 274
#     4  11  20  30  46  74  96 140 172 202 232 275
#     4  11  21  33  52  70  96 131 174 201 241 294
#
# _framework density 18.922750000000001
#
# number of rings (size 3 to 8) (size 9 to 14) (size 15 to 20)
#    0.000    1.500    3.750    4.500    3.500    0.000 
#    0.000    0.000    0.000    0.000    0.000    0.000 
#    0.000    0.000    0.000   22.500    0.000    5.000 
#
# Total GULP energy -89268.942771 kJ/mol
# GULP energy per Si atom -5579.308923 kJ/mol
# Density = 1.887968 g / cm^3
# Si number density = 18.922750 Si / 1000 Ang^3
#
#
#
# Elastic Constant Matrix: (Units=GPa)
#
#
# Indices 1 2 3 4 5 6 
#
# 1 68.0142 33.8169 34.4863 -0.0010 -3.0016 -0.0004
# 2 33.8169 44.8285 20.2616 -0.0003 9.2668 -0.0002
# 3 34.4863 20.2616 125.9018 -0.0045 -3.1109 -0.0005
# 4 -0.0010 -0.0003 -0.0045 26.8331 -0.0009 13.6044
# 5 -3.0016 9.2668 -3.1109 -0.0009 45.9412 -0.0003
# 6 -0.0004 -0.0002 -0.0005 13.6044 -0.0003 12.7047
#
#
#
# Elastic Compliance Matrix: (Units=1/GPa)
#
#
# Indices 1 2 3 4 5 6 
#
# 1 0.026616 -0.019361 -0.004042 0.000000 0.005371 0.000000
# 2 -0.019361 0.039408 -0.001269 -0.000002 -0.009300 0.000002
# 3 -0.004042 -0.001269 0.009269 0.000003 0.000619 -0.000003
# 4 0.000000 -0.000002 0.000003 0.081531 0.000002 -0.087304
# 5 0.005371 -0.009300 0.000619 0.000002 0.024036 -0.000001
# 6 0.000000 0.000002 -0.000003 -0.087304 -0.000001 0.172197
#
#
# Mechanical properties :
#
#
# Convention : Reuss Voigt Hill
#
# Bulk Modulus (GPa) = 38.53548 46.20824 42.37186
# Shear Modulus (GPa) = 12.16397 27.10778 19.63587
#
# Velocity S-wave (km/s) = 2.53815 3.78901 3.22481
# Velocity P-wave (km/s) = 5.38502 6.60413 6.02549
#
# Compressibility (1/GPa) = 0.02595011
#
# Stress axis : x y z
#
# Youngs Moduli (GPa) = 37.57177 25.37527 107.88316
#
# Poissons Ratio (x) = 0.49130 0.43605
# Poissons Ratio (y) = 0.72744 0.13685
# Poissons Ratio (z) = 0.15186 0.03219
#
# Static dielectric constant tensor:
#      x y z
#    x 1.744570 0.000000 0.009980 
#    y 0.000000 1.665880 0.000000 
#    z 0.009980 0.000000 1.739810 
# 
# From -- ./inp_files/157415.got.cif
#   From: 2010.05.17/outbox.cif.g08.bks.cpg/sg15_79_cif.got.tgz:157415.got - 2010.06.03 18:47:42.
