data_PCOD9268446
_publ_section_title
;
Structure prediction by ZEFSAII (Michael W. Deem and Ramdas Pophale) SiO2 
 PCOD9268446
Probable space group: C 2/C
;
_chemical_formula_sum "Si O2"
_cell_formula_units_Z 52
_cell_length_a 18.108454
_cell_length_b 27.506513
_cell_length_c 5.617085
_cell_angle_alpha 90.000000
_cell_angle_beta 53.069926
_cell_angle_gamma 90.000000
_cell_volume 2236.533586
_symmetry_space_group_name_H-M "C 2/C"
_symmetry_group_IT_number 15
_symmetry_cell_setting 'monoclinic'
loop_
_space_group_symop_operation_xyz
x,y,z
-x,y,1/2-z
-x,-y,-z
x,-y,1/2+z
1/2+x,1/2+y,z
1/2-x,1/2+y,1/2-z
1/2-x,1/2-y,-z
1/2+x,1/2-y,1/2+z
loop_
_atom_site_type_symbol
_atom_site_label
_atom_site_fract_x
_atom_site_fract_y
_atom_site_fract_z
Si Si1 0.332083 0.331305 0.468601
Si Si2 0.881402 0.633615 0.127908
Si Si3 0.500000 0.778664 0.250000
Si Si4 0.103817 0.262607 0.453063
Si Si5 0.853974 0.377093 0.172414
Si Si6 0.102718 0.985325 0.582430
Si Si7 0.136849 0.876365 0.592320
O O1 0.226518 0.350359 0.668407
O O2 0.333319 0.273871 0.523268
O O3 0.376738 0.346803 0.129680
O O4 0.380902 0.352797 0.613424
O O5 0.895984 0.604970 0.343358
O O6 0.942969 0.682411 0.019423
O O7 0.898369 0.609696 0.838482
O O8 0.580180 0.749173 0.224596
O O9 0.139166 0.317721 0.361012
O O10 0.000000 0.256682 0.750000
O O11 0.746453 0.388394 0.385994
O O12 0.091772 0.928691 0.657002
O O13 0.000000 0.008015 0.750000
O O14 0.147806 0.992147 0.233727
#
# Coordination Sequence:
#
# PCOD9268446 Si02
#       7
#     8   8   4   8   8   8   8
#     4  10  23  34  53  73 110 148 182 227 267 296
#     4   9  18  33  47  69  90 138 176 230 269 302
#     4  10  20  32  50  64 100 134 194 240 254 308
#     4  11  22  34  49  72 103 150 195 224 260 307
#     4   9  19  33  51  70 102 138 177 222 260 297
#     4  10  21  38  63  86 108 137 167 210 271 332
#     4  10  21  38  55  79 106 138 174 223 264 320
#
# _framework density 23.250267999999998
#
# number of rings (size 3 to 8) (size 9 to 14) (size 15 to 20)
#    0.000    2.154    1.538    0.923    2.154    9.231 
#    0.000    0.000    0.000    0.000    0.000    0.000 
#    0.000    1.231    0.000    1.538    0.000    0.000 
#
# Total GULP energy -144889.735873 kJ/mol
# GULP energy per Si atom -5572.682149 kJ/mol
# Density = 2.319735 g / cm^3
# Si number density = 23.250268 Si / 1000 Ang^3
#
#
#
# Elastic Constant Matrix: (Units=GPa)
#
#
# Indices 1 2 3 4 5 6 
#
# 1 92.2114 14.6841 41.1784 0.0000 34.7616 0.0000
# 2 14.6841 30.1931 7.6026 0.0000 1.9786 0.0000
# 3 41.1784 7.6026 123.0257 0.0000 55.0171 0.0000
# 4 0.0000 0.0000 0.0000 24.3841 0.0000 -1.7535
# 5 34.7616 1.9786 55.0171 0.0000 53.0803 0.0000
# 6 0.0000 0.0000 0.0000 -1.7535 0.0000 20.7454
#
#
#
# Elastic Compliance Matrix: (Units=1/GPa)
#
#
# Indices 1 2 3 4 5 6 
#
# 1 0.015777 -0.006893 -0.000651 0.000000 -0.009400 0.000000
# 2 -0.006893 0.036736 -0.002552 0.000000 0.005790 0.000000
# 3 -0.000651 -0.002552 0.015417 0.000000 -0.015458 0.000000
# 4 0.000000 0.000000 0.000000 0.041261 0.000000 0.003488
# 5 -0.009400 0.005790 -0.015458 0.000000 0.040802 0.000000
# 6 0.000000 0.000000 0.000000 0.003488 0.000000 0.048498
#
#
# Mechanical properties :
#
#
# Convention : Reuss Voigt Hill
#
# Bulk Modulus (GPa) = 20.94821 41.37336 31.16079
# Shear Modulus (GPa) = 21.31333 31.77295 26.54314
#
# Velocity S-wave (km/s) = 3.03098 3.70072 3.38246
# Velocity P-wave (km/s) = 4.61287 6.00781 5.35595
#
# Compressibility (1/GPa) = 0.04773677
#
# Stress axis : x y z
#
# Youngs Moduli (GPa) = 63.38464 27.22147 64.86458
#
# Poissons Ratio (x) = 0.18764 0.04222
# Poissons Ratio (y) = 0.43691 0.16556
# Poissons Ratio (z) = 0.04125 0.06948
#
# Static dielectric constant tensor:
#      x y z
#    x 1.987930 0.000000 0.121550 
#    y 0.000000 1.820930 0.000000 
#    z 0.121550 0.000000 2.136070 
# 
# From -- ./inp_files/13861.got.cif
#   From: 2010.05.17/outbox.cif.g08.bks.cpg/sg15_7_cif.got.tgz:13861.got - 2010.06.03 18:47:42.
