data_PCOD9268737
_publ_section_title
;
Structure prediction by ZEFSAII (Michael W. Deem and Ramdas Pophale) SiO2 
 PCOD9268737
Probable space group: C 2/C
;
_chemical_formula_sum "Si O2"
_cell_formula_units_Z 64
_cell_length_a 22.442572
_cell_length_b 18.972664
_cell_length_c 8.692842
_cell_angle_alpha 90.000000
_cell_angle_beta 81.872091
_cell_angle_gamma 90.000000
_cell_volume 3664.191318
_symmetry_space_group_name_H-M "C 2/C"
_symmetry_group_IT_number 15
_symmetry_cell_setting 'monoclinic'
loop_
_space_group_symop_operation_xyz
x,y,z
-x,y,1/2-z
-x,-y,-z
x,-y,1/2+z
1/2+x,1/2+y,z
1/2-x,1/2+y,1/2-z
1/2-x,1/2-y,-z
1/2+x,1/2-y,1/2+z
loop_
_atom_site_type_symbol
_atom_site_label
_atom_site_fract_x
_atom_site_fract_y
_atom_site_fract_z
Si Si1 0.636339 0.478348 0.840366
Si Si2 0.281802 0.853825 0.601232
Si Si3 0.068169 0.146816 0.538896
Si Si4 0.661306 0.279059 0.550450
Si Si5 0.224003 0.009761 0.048814
Si Si6 0.844689 0.751599 0.583267
Si Si7 0.069718 0.120845 0.901065
Si Si8 0.240635 0.354890 0.523132
O O1 0.661844 0.467816 0.659977
O O2 0.588154 0.538817 0.888900
O O3 0.610925 0.407843 0.928811
O O4 0.699216 0.507047 0.885402
O O5 0.331933 0.795918 0.539808
O O6 0.224132 0.821979 0.530183
O O7 0.274182 0.857102 0.788794
O O8 0.277676 0.935506 0.554199
O O9 0.089309 0.225506 0.492074
O O10 0.075655 0.139682 0.718715
O O11 0.999340 0.130350 0.524374
O O12 0.654618 0.263209 0.734225
O O13 0.611904 0.329085 0.489165
O O14 0.242711 0.928686 0.060434
O O15 0.815222 0.678218 0.547667
O O16 0.799430 0.804490 0.505934
#
# Coordination Sequence:
#
# PCOD9268737 Si02
#       8
#     8   8   8   8   8   8   8   8
#     4  12  21  36  50  77 110 144 184 216 255 313
#     4  10  20  33  51  76 106 137 175 215 271 314
#     4  11  23  38  52  74 106 149 184 219 265 311
#     4  10  21  34  53  77 100 136 180 227 261 311
#     4  12  21  33  56  78 109 144 175 217 265 318
#     4  10  20  35  52  76 100 137 180 221 268 310
#     4  11  23  37  54  73 106 147 186 221 261 308
#     4  10  20  34  53  74 107 140 170 217 270 321
#
# _framework density 17.466336999999999
#
# number of rings (size 3 to 8) (size 9 to 14) (size 15 to 20)
#    0.000    1.250    5.000    1.875    1.750    2.500 
#    0.000    0.000    0.000    0.000    0.000    0.875 
#    0.000    0.000    0.000    0.000    0.000    0.000 
#
# Total GULP energy -178170.171104 kJ/mol
# GULP energy per Si atom -5567.817847 kJ/mol
# Density = 1.742658 g / cm^3
# Si number density = 17.466337 Si / 1000 Ang^3
#
#
#
# Elastic Constant Matrix: (Units=GPa)
#
#
# Indices 1 2 3 4 5 6 
#
# 1 57.0827 38.0404 19.9038 0.0000 4.4756 0.0000
# 2 38.0404 85.9171 28.2396 0.0000 -4.1094 0.0000
# 3 19.9038 28.2396 41.7037 0.0000 2.2189 0.0000
# 4 0.0000 0.0000 0.0000 28.5688 0.0000 -0.4110
# 5 4.4756 -4.1094 2.2189 0.0000 22.2821 0.0000
# 6 0.0000 0.0000 0.0000 -0.4110 0.0000 25.0886
#
#
#
# Elastic Compliance Matrix: (Units=1/GPa)
#
#
# Indices 1 2 3 4 5 6 
#
# 1 0.026906 -0.010465 -0.005393 0.000000 -0.006797 0.000000
# 2 -0.010465 0.019367 -0.008466 0.000000 0.006517 0.000000
# 3 -0.005393 -0.008466 0.032483 0.000000 -0.003713 0.000000
# 4 0.000000 0.000000 0.000000 0.035011 0.000000 0.000574
# 5 -0.006797 0.006517 -0.003713 0.000000 0.047816 0.000000
# 6 0.000000 0.000000 0.000000 0.000574 0.000000 0.039868
#
#
# Mechanical properties :
#
#
# Convention : Reuss Voigt Hill
#
# Bulk Modulus (GPa) = 33.21525 39.67457 36.44491
# Shear Modulus (GPa) = 19.22060 21.75589 20.48824
#
# Velocity S-wave (km/s) = 3.32088 3.53312 3.42864
# Velocity P-wave (km/s) = 5.81054 6.27759 6.04857
#
# Compressibility (1/GPa) = 0.03010666
#
# Stress axis : x y z
#
# Youngs Moduli (GPa) = 37.16635 51.63359 30.78512
#
# Poissons Ratio (x) = 0.54036 0.16603
# Poissons Ratio (y) = 0.38896 0.26064
# Poissons Ratio (z) = 0.20044 0.43715
#
# Static dielectric constant tensor:
#      x y z
#    x 1.610140 0.000000 0.001050 
#    y 0.000000 1.644950 0.000000 
#    z 0.001050 0.000000 1.620330 
# 
# From -- ./inp_files/56640.got.cif
#   From: 2010.05.17/outbox.cif.g08.bks.cpg/sg15_29_cif.got.tgz:56640.got - 2010.06.03 18:47:42.
