data_PCOD9268925
_publ_section_title
;
Structure prediction by ZEFSAII (Michael W. Deem and Ramdas Pophale) SiO2 
 PCOD9268925
Probable space group: C 2/C
;
_chemical_formula_sum "Si O2"
_cell_formula_units_Z 48
_cell_length_a 12.225824
_cell_length_b 31.264225
_cell_length_c 16.227246
_cell_angle_alpha 90.000000
_cell_angle_beta 154.833599
_cell_angle_gamma 90.000000
_cell_volume 2637.627947
_symmetry_space_group_name_H-M "C 2/C"
_symmetry_group_IT_number 15
_symmetry_cell_setting 'monoclinic'
loop_
_space_group_symop_operation_xyz
x,y,z
-x,y,1/2-z
-x,-y,-z
x,-y,1/2+z
1/2+x,1/2+y,z
1/2-x,1/2+y,1/2-z
1/2-x,1/2-y,-z
1/2+x,1/2-y,1/2+z
loop_
_atom_site_type_symbol
_atom_site_label
_atom_site_fract_x
_atom_site_fract_y
_atom_site_fract_z
Si Si1 0.344857 0.648182 0.838542
Si Si2 0.784366 0.622175 0.924439
Si Si3 0.500000 0.992171 0.750000
Si Si4 0.254231 0.799463 0.526273
Si Si5 0.719366 0.575132 0.165306
Si Si6 0.347809 0.438854 0.561053
Si Si7 0.500000 0.134969 0.750000
O O1 0.188989 0.628347 0.655231
O O2 0.170450 0.659111 0.798274
O O3 0.504245 0.686986 0.907935
O O4 0.551093 0.612395 0.007915
O O5 0.500000 0.603322 0.750000
O O6 0.777509 0.668396 0.964976
O O7 0.015362 0.595254 0.120013
O O8 0.706281 0.961767 0.847223
O O9 0.356635 0.022762 0.586933
O O10 0.500000 0.807941 0.750000
O O11 0.250000 0.750000 0.500000
O O12 0.552278 0.557112 0.126474
O O13 0.500000 0.437382 0.750000
O O14 0.188355 0.395906 0.431055
#
# Coordination Sequence:
#
# PCOD9268925 Si02
#       7
#     8   8   4   8   8   8   4
#     4  10  20  36  58  84 111 147 190 228 277 332
#     4  10  20  33  56  84 108 142 187 228 280 336
#     4  11  22  34  52  80 112 142 188 240 292 322
#     4  11  20  35  57  87 118 142 175 228 283 329
#     4  11  21  37  56  77 112 148 188 236 277 338
#     4  10  22  37  54  78 108 150 191 232 284 330
#     4   9  20  38  58  80 110 150 194 232 266 338
#
# _framework density 18.198169
#
# number of rings (size 3 to 8) (size 9 to 14) (size 15 to 20)
#    0.000    1.667    1.667    5.000    0.000    2.667 
#    0.000    0.000    0.000    4.000    0.000    0.000 
#    0.000    0.000    0.000    0.000    0.000    0.000 
#
# Total GULP energy -133994.100711 kJ/mol
# GULP energy per Si atom -5583.087530 kJ/mol
# Density = 1.815675 g / cm^3
# Si number density = 18.198169 Si / 1000 Ang^3
#
#
#
# Elastic Constant Matrix: (Units=GPa)
#
#
# Indices 1 2 3 4 5 6 
#
# 1 109.0714 24.4311 10.5630 0.0000 -3.7578 0.0001
# 2 24.4311 48.2046 9.3278 0.0000 1.9342 0.0001
# 3 10.5630 9.3278 102.0905 -0.0005 -21.9535 0.0007
# 4 0.0000 0.0000 -0.0005 8.0494 0.0000 5.8473
# 5 -3.7578 1.9342 -21.9535 0.0000 29.2777 0.0001
# 6 0.0001 0.0001 0.0007 5.8473 0.0001 0.3598
#
#
#
# Elastic Compliance Matrix: (Units=1/GPa)
#
#
# Indices 1 2 3 4 5 6 
#
# 1 0.010432 -0.005293 -0.000277 0.000000 0.001481 0.000000
# 2 -0.005293 0.024089 -0.002553 0.000000 -0.004185 0.000000
# 3 -0.000277 -0.002553 0.012025 -0.000002 0.009150 0.000004
# 4 0.000000 0.000000 -0.000002 -0.011498 -0.000002 0.186848
# 5 0.001481 -0.004185 0.009150 -0.000002 0.041483 0.000004
# 6 0.000000 0.000000 0.000004 0.186848 0.000004 -0.257216
#
#
# Mechanical properties :
#
#
# Convention : Reuss Voigt Hill
#
# Bulk Modulus (GPa) = 33.00455 38.66782 35.83618
# Shear Modulus (GPa) = -32.39634 21.87369 -5.26133
#
# Velocity S-wave (km/s) = -4.22382 3.47071 -1.70218
# Velocity P-wave (km/s) = 2.36895 6.11191 3.98393
#
# Compressibility (1/GPa) = 0.03029886
#
# Stress axis : x y z
#
# Youngs Moduli (GPa) = 95.86155 41.51204 83.16164
#
# Poissons Ratio (x) = 0.21971 0.02307
# Poissons Ratio (y) = 0.50737 0.21235
# Poissons Ratio (z) = 0.02659 0.10600
#
# Static dielectric constant tensor:
#      x y z
#    x 1.631820 0.000000 0.005870 
#    y 0.000000 1.616390 0.000000 
#    z 0.005870 0.000000 1.642300 
# 
# From -- ./inp_files/149131.got.cif
#   From: 2010.05.17/outbox.cif.g08.bks.cpg/sg15_75_cif.got.tgz:149131.got - 2010.06.03 18:47:42.
