data_PCOD9268226
_publ_section_title
;
Structure prediction by ZEFSAII (Michael W. Deem and Ramdas Pophale) SiO2 
 PCOD9268226
Probable space group: C 2/C
;
_chemical_formula_sum "Si O2"
_cell_formula_units_Z 60
_cell_length_a 24.784368
_cell_length_b 13.920933
_cell_length_c 11.188463
_cell_angle_alpha 90.000000
_cell_angle_beta 54.525045
_cell_angle_gamma 90.000000
_cell_volume 3143.677616
_symmetry_space_group_name_H-M "C 2/C"
_symmetry_group_IT_number 15
_symmetry_cell_setting 'monoclinic'
loop_
_space_group_symop_operation_xyz
x,y,z
-x,y,1/2-z
-x,-y,-z
x,-y,1/2+z
1/2+x,1/2+y,z
1/2-x,1/2+y,1/2-z
1/2-x,1/2-y,-z
1/2+x,1/2-y,1/2+z
loop_
_atom_site_type_symbol
_atom_site_label
_atom_site_fract_x
_atom_site_fract_y
_atom_site_fract_z
Si Si1 0.177668 0.718004 0.732248
Si Si2 0.200864 0.081252 0.508393
Si Si3 0.958862 0.199870 0.050496
Si Si4 0.900125 0.001819 0.026912
Si Si5 0.000000 0.115931 0.250000
Si Si6 0.253209 0.103032 0.052306
Si Si7 0.401046 0.676683 0.699369
Si Si8 0.788883 0.698505 0.239195
O O1 0.102041 0.725822 0.869800
O O2 0.194554 0.816081 0.633991
O O3 0.200116 0.631370 0.618930
O O4 0.230176 0.729052 0.772519
O O5 0.172461 0.025643 0.429027
O O6 0.141233 0.149361 0.629726
O O7 0.262609 0.144320 0.388998
O O8 0.222526 0.001133 0.574999
O O9 0.931093 0.100135 0.033588
O O10 0.980576 0.178814 0.159779
O O11 0.025471 0.219824 0.889507
O O12 0.905994 0.924390 0.123591
O O13 0.940489 0.954064 0.866103
O O14 0.292246 0.124421 0.124302
O O15 0.355390 0.745439 0.678356
#
# Coordination Sequence:
#
# PCOD9268226 Si02
#       8
#     8   8   8   8   4   8   8   8
#     4   9  18  37  54  78 110 140 196 224 279 326
#     4  12  20  35  56  79 112 151 191 229 289 336
#     4  11  21  34  51  85 111 155 181 226 288 341
#     4  11  19  33  50  80 117 147 179 216 279 352
#     4  10  20  26  50  74 112 142 180 210 274 342
#     4   9  20  34  58  78 108 151 193 231 271 327
#     4  11  23  33  53  83 120 146 185 234 285 348
#     4  10  21  37  53  80 110 147 192 238 277 333
#
# _framework density 19.085926000000001
#
# number of rings (size 3 to 8) (size 9 to 14) (size 15 to 20)
#    0.800    0.800    1.333    6.800    3.733    0.000 
#    0.000    0.000    0.000    0.800    0.000    1.867 
#    0.000    0.000    0.000    0.000    0.000    0.000 
#
# Total GULP energy -167337.000893 kJ/mol
# GULP energy per Si atom -5577.900030 kJ/mol
# Density = 1.904249 g / cm^3
# Si number density = 19.085926 Si / 1000 Ang^3
#
#
#
# Elastic Constant Matrix: (Units=GPa)
#
#
# Indices 1 2 3 4 5 6 
#
# 1 57.8632 11.9762 8.9922 0.0000 -19.1132 0.0000
# 2 11.9762 15.1994 20.8022 0.0000 -11.8764 0.0000
# 3 8.9922 20.8022 60.9942 0.0000 -19.5638 0.0000
# 4 0.0000 0.0000 0.0000 8.1550 0.0000 -2.1187
# 5 -19.1132 -11.8764 -19.5638 0.0000 35.3204 0.0000
# 6 0.0000 0.0000 0.0000 -2.1187 0.0000 30.3592
#
#
#
# Elastic Compliance Matrix: (Units=1/GPa)
#
#
# Indices 1 2 3 4 5 6 
#
# 1 0.023558 -0.019713 0.006339 0.000000 0.009631 0.000000
# 2 -0.019713 0.155920 -0.044843 0.000000 0.016922 0.000000
# 3 0.006339 -0.044843 0.032855 0.000000 0.006550 0.000000
# 4 0.000000 0.000000 0.000000 0.124889 0.000000 0.008716
# 5 0.009631 0.016922 0.006550 0.000000 0.042842 0.000000
# 6 0.000000 0.000000 0.000000 0.008716 0.000000 0.033547
#
#
# Mechanical properties :
#
#
# Convention : Reuss Voigt Hill
#
# Bulk Modulus (GPa) = 10.42747 24.17752 17.30250
# Shear Modulus (GPa) = 8.89660 20.91934 14.90797
#
# Velocity S-wave (km/s) = 2.16136 3.31427 2.79784
# Velocity P-wave (km/s) = 3.42110 5.22887 4.41843
#
# Compressibility (1/GPa) = 0.09590055
#
# Stress axis : x y z
#
# Youngs Moduli (GPa) = 42.44769 6.41353 30.43661
#
# Poissons Ratio (x) = 0.12643 -0.19294
# Poissons Ratio (y) = 0.83677 1.36486
# Poissons Ratio (z) = -0.26908 0.28760
#
# Static dielectric constant tensor:
#      x y z
#    x 1.677950 0.000000 0.010800 
#    y 0.000000 1.644610 0.000000 
#    z 0.010800 0.000000 1.744420 
# 
# From -- ./inp_files/123133.got.cif
#   From: 2010.05.17/outbox.cif.g08.bks.cpg/sg15_62_cif.got.tgz:123133.got - 2010.06.03 18:47:42.
