data_PCOD9268655
_publ_section_title
;
Structure prediction by ZEFSAII (Michael W. Deem and Ramdas Pophale) SiO2 
 PCOD9268655
Probable space group: C 2/C
;
_chemical_formula_sum "Si O2"
_cell_formula_units_Z 52
_cell_length_a 29.551600
_cell_length_b 9.982348
_cell_length_c 18.252893
_cell_angle_alpha 90.000000
_cell_angle_beta 152.023138
_cell_angle_gamma 90.000000
_cell_volume 2525.949690
_symmetry_space_group_name_H-M "C 2/C"
_symmetry_group_IT_number 15
_symmetry_cell_setting 'monoclinic'
loop_
_space_group_symop_operation_xyz
x,y,z
-x,y,1/2-z
-x,-y,-z
x,-y,1/2+z
1/2+x,1/2+y,z
1/2-x,1/2+y,1/2-z
1/2-x,1/2-y,-z
1/2+x,1/2-y,1/2+z
loop_
_atom_site_type_symbol
_atom_site_label
_atom_site_fract_x
_atom_site_fract_y
_atom_site_fract_z
Si Si1 0.798693 0.222892 0.190307
Si Si2 0.900433 0.474590 0.397878
Si Si3 0.667803 0.580207 0.402552
Si Si4 0.712071 0.839511 0.869900
Si Si5 0.500000 0.328432 0.750000
Si Si6 0.896874 0.666940 0.141514
Si Si7 0.380650 0.085016 0.524714
O O1 0.862527 0.326820 0.325430
O O2 0.850382 0.129647 0.205224
O O3 0.729779 0.130502 0.139770
O O4 0.728562 0.311952 0.037425
O O5 0.828019 0.582679 0.257676
O O6 0.910815 0.499416 0.498405
O O7 0.000000 0.500000 0.500000
O O8 0.727520 0.445924 0.495049
O O9 0.567122 0.577205 0.298944
O O10 0.622570 0.807655 0.798497
O O11 0.796024 0.733685 0.967620
O O12 0.440613 0.222268 0.615858
O O13 0.000000 0.710770 0.250000
O O14 0.891951 0.508357 0.112898
#
# Coordination Sequence:
#
# PCOD9268655 Si02
#       7
#     8   8   8   8   4   8   8
#     4   9  19  34  57  83 114 152 190 251 291 341
#     4  11  23  37  61  86 120 158 200 249 303 359
#     4   9  17  35  58  84 117 145 194 250 290 340
#     4  10  23  40  58  93 120 156 204 250 296 360
#     4  10  20  32  62  90 114 154 204 244 296 356
#     4  11  22  39  65  84 121 163 200 245 303 366
#     4  11  21  36  59  87 119 155 203 245 295 359
#
# _framework density 20.586317999999999
#
# number of rings (size 3 to 8) (size 9 to 14) (size 15 to 20)
#    0.000    1.846    2.308    1.846    5.385    0.000 
#    0.000    0.000    0.000    0.923    0.000    0.000 
#    0.000    0.000    0.000    0.000    0.000    0.000 
#
# Total GULP energy -144822.294126 kJ/mol
# GULP energy per Si atom -5570.088236 kJ/mol
# Density = 2.053946 g / cm^3
# Si number density = 20.586318 Si / 1000 Ang^3
#
#
#
# Elastic Constant Matrix: (Units=GPa)
#
#
# Indices 1 2 3 4 5 6 
#
# 1 115.0811 9.7845 33.2270 0.0000 29.5723 0.0000
# 2 9.7845 23.7464 8.1987 0.0000 11.9664 0.0000
# 3 33.2270 8.1987 52.0461 0.0000 19.1858 0.0000
# 4 0.0000 0.0000 0.0000 35.8500 0.0000 7.3458
# 5 29.5723 11.9664 19.1858 0.0000 42.8263 0.0000
# 6 0.0000 0.0000 0.0000 7.3458 0.0000 17.9209
#
#
#
# Elastic Compliance Matrix: (Units=1/GPa)
#
#
# Indices 1 2 3 4 5 6 
#
# 1 0.011700 -0.000125 -0.005371 0.000000 -0.005637 0.000000
# 2 -0.000125 0.049464 -0.003173 0.000000 -0.012313 0.000000
# 3 -0.005371 -0.003173 0.025691 0.000000 -0.006914 0.000000
# 4 0.000000 0.000000 0.000000 0.030452 0.000000 -0.012482
# 5 -0.005637 -0.012313 -0.006914 0.000000 0.033781 0.000000
# 6 0.000000 0.000000 0.000000 -0.012482 0.000000 0.060917
#
#
# Mechanical properties :
#
#
# Convention : Reuss Voigt Hill
#
# Bulk Modulus (GPa) = 14.38530 32.58824 23.48677
# Shear Modulus (GPa) = 19.80075 28.63032 24.21554
#
# Velocity S-wave (km/s) = 3.10472 3.73332 3.43343
# Velocity P-wave (km/s) = 4.45593 5.86924 5.21072
#
# Compressibility (1/GPa) = 0.06951539
#
# Stress axis : x y z
#
# Youngs Moduli (GPa) = 85.47229 20.21690 38.92348
#
# Poissons Ratio (x) = 0.00253 0.20907
# Poissons Ratio (y) = 0.01072 0.12350
# Poissons Ratio (z) = 0.45910 0.06415
#
# Static dielectric constant tensor:
#      x y z
#    x 1.762470 0.000000 0.024480 
#    y 0.000000 1.756860 0.000000 
#    z 0.024480 0.000000 1.768560 
# 
# From -- ./inp_files/222475.got.cif
#   From: 2010.05.17/outbox.cif.g08.bks.cpg/sg15_112_cif.got.tgz:222475.got - 2010.06.03 18:47:42.
