data_PCOD9268530
_publ_section_title
;
Structure prediction by ZEFSAII (Michael W. Deem and Ramdas Pophale) SiO2 
 PCOD9268530
Probable space group: C 2/C
;
_chemical_formula_sum "Si O2"
_cell_formula_units_Z 60
_cell_length_a 17.603857
_cell_length_b 32.257245
_cell_length_c 5.494305
_cell_angle_alpha 90.000000
_cell_angle_beta 102.752056
_cell_angle_gamma 90.000000
_cell_volume 3042.996209
_symmetry_space_group_name_H-M "C 2/C"
_symmetry_group_IT_number 15
_symmetry_cell_setting 'monoclinic'
loop_
_space_group_symop_operation_xyz
x,y,z
-x,y,1/2-z
-x,-y,-z
x,-y,1/2+z
1/2+x,1/2+y,z
1/2-x,1/2+y,1/2-z
1/2-x,1/2-y,-z
1/2+x,1/2-y,1/2+z
loop_
_atom_site_type_symbol
_atom_site_label
_atom_site_fract_x
_atom_site_fract_y
_atom_site_fract_z
Si Si1 0.407822 0.981152 0.659177
Si Si2 0.500000 0.325046 0.250000
Si Si3 0.914579 0.146061 0.075151
Si Si4 0.886746 0.224592 0.337015
Si Si5 0.751707 0.620342 0.442288
Si Si6 0.163206 0.394785 0.003623
Si Si7 0.774948 0.713097 0.337397
Si Si8 0.912721 0.304462 0.585459
O O1 0.500000 0.989145 0.750000
O O2 0.393141 0.933589 0.578934
O O3 0.375936 0.007267 0.405204
O O4 0.432557 0.354524 0.304296
O O5 0.543597 0.294634 0.460981
O O6 0.892129 0.194599 0.107380
O O7 0.000000 0.137169 0.250000
O O8 0.842054 0.119514 0.109382
O O9 0.802100 0.213360 0.389048
O O10 0.902150 0.273561 0.347303
O O11 0.782724 0.606450 0.200256
O O12 0.774946 0.669039 0.470833
O O13 0.790472 0.600399 0.709145
O O14 0.116951 0.351073 0.979848
O O15 0.750000 0.750000 0.500000
O O16 0.853782 0.715559 0.242153
O O17 0.000000 0.304630 0.750000
#
# Coordination Sequence:
#
# PCOD9268530 Si02
#       8
#     8   4   8   8   8   8   8   8
#     4  10  21  40  70  95 121 154 194 237 286 356
#     4  10  20  32  54  72 104 142 208 268 296 328
#     4   9  21  33  54  80 107 158 206 263 290 342
#     4  10  20  34  50  73 100 145 210 252 300 335
#     4  10  23  37  59  82 124 154 196 245 307 343
#     4  11  23  42  58  91 121 159 186 239 301 369
#     4  10  22  35  53  74 102 156 205 249 299 354
#     4  11  23  35  54  80 113 153 198 256 304 357
#
# _framework density 19.717410000000001
#
# number of rings (size 3 to 8) (size 9 to 14) (size 15 to 20)
#    0.000    1.867    0.667    2.400   11.200    1.067 
#    0.000    8.000    0.000    0.000    0.000    0.000 
#    0.000   10.667    0.000    0.000    0.000    0.000 
#
# Total GULP energy -167136.343674 kJ/mol
# GULP energy per Si atom -5571.211456 kJ/mol
# Density = 1.967253 g / cm^3
# Si number density = 19.717410 Si / 1000 Ang^3
#
#
#
# Elastic Constant Matrix: (Units=GPa)
#
#
# Indices 1 2 3 4 5 6 
#
# 1 94.8790 -17.7656 18.4210 0.0000 7.3827 0.0000
# 2 -17.7656 32.4419 17.9254 0.0000 5.7570 0.0000
# 3 18.4210 17.9254 85.0968 0.0000 2.5212 0.0000
# 4 0.0000 0.0000 0.0000 27.7667 0.0000 6.2332
# 5 7.3827 5.7570 2.5212 0.0000 21.7253 0.0000
# 6 0.0000 0.0000 0.0000 6.2332 0.0000 19.1654
#
#
#
# Elastic Compliance Matrix: (Units=1/GPa)
#
#
# Indices 1 2 3 4 5 6 
#
# 1 0.014508 0.012333 -0.005514 0.000000 -0.007558 0.000000
# 2 0.012333 0.046974 -0.012113 0.000000 -0.015233 0.000000
# 3 -0.005514 -0.012113 0.015399 0.000000 0.003297 0.000000
# 4 0.000000 0.000000 0.000000 0.038851 0.000000 -0.012636
# 5 -0.007558 -0.015233 0.003297 0.000000 0.052252 0.000000
# 6 0.000000 0.000000 0.000000 -0.012636 0.000000 0.056287
#
#
# Mechanical properties :
#
#
# Convention : Reuss Voigt Hill
#
# Bulk Modulus (GPa) = 15.08503 27.73103 21.40803
# Shear Modulus (GPa) = 19.45850 26.65395 23.05623
#
# Velocity S-wave (km/s) = 3.14486 3.68067 3.42326
# Velocity P-wave (km/s) = 4.56662 5.67079 5.14839
#
# Compressibility (1/GPa) = 0.06629088
#
# Stress axis : x y z
#
# Youngs Moduli (GPa) = 68.92877 21.28831 64.93929
#
# Poissons Ratio (x) = -0.26254 0.35810
# Poissons Ratio (y) = -0.85008 0.78663
# Poissons Ratio (z) = 0.38010 0.25787
#
# Static dielectric constant tensor:
#      x y z
#    x 1.758520 0.000000 -0.017950 
#    y 0.000000 1.677700 0.000000 
#    z -0.017950 0.000000 1.859760 
# 
# From -- ./inp_files/12051.got.cif
#   From: 2010.05.17/outbox.cif.g08.bks.cpg/sg15_7_cif.got.tgz:12051.got - 2010.06.03 18:47:42.
