data_PCOD9268685
_publ_section_title
;
Structure prediction by ZEFSAII (Michael W. Deem and Ramdas Pophale) SiO2 
 PCOD9268685
Probable space group: C 2/C
;
_chemical_formula_sum "Si O2"
_cell_formula_units_Z 44
_cell_length_a 21.732589
_cell_length_b 19.987213
_cell_length_c 5.314763
_cell_angle_alpha 90.000000
_cell_angle_beta 65.413876
_cell_angle_gamma 90.000000
_cell_volume 2099.289938
_symmetry_space_group_name_H-M "C 2/C"
_symmetry_group_IT_number 15
_symmetry_cell_setting 'monoclinic'
loop_
_space_group_symop_operation_xyz
x,y,z
-x,y,1/2-z
-x,-y,-z
x,-y,1/2+z
1/2+x,1/2+y,z
1/2-x,1/2+y,1/2-z
1/2-x,1/2-y,-z
1/2+x,1/2-y,1/2+z
loop_
_atom_site_type_symbol
_atom_site_label
_atom_site_fract_x
_atom_site_fract_y
_atom_site_fract_z
Si Si1 0.751918 0.461416 0.594561
Si Si2 0.588343 0.536148 0.385936
Si Si3 0.713987 0.322135 0.581557
Si Si4 0.826258 0.778297 0.350306
Si Si5 0.000000 0.856924 0.750000
Si Si6 0.961875 0.275503 0.560334
O O1 0.774226 0.495441 0.816020
O O2 0.669741 0.459864 0.735239
O O3 0.765905 0.382425 0.540539
O O4 0.571251 0.522056 0.707517
O O5 0.551371 0.598000 0.319486
O O6 0.750000 0.250000 0.500000
O O7 0.677187 0.329064 0.377126
O O8 0.663202 0.314606 0.902012
O O9 0.750000 0.750000 0.500000
O O10 0.880803 0.719654 0.215721
O O11 0.032139 0.804579 0.497340
O O12 0.000000 0.294498 0.750000
O O13 0.000000 0.304755 0.250000
#
# Coordination Sequence:
#
# PCOD9268685 Si02
#       6
#     8   8   8   8   4   8
#     4  10  20  33  48  70  99 135 175 229 277 319
#     4  10  21  30  42  59  85 125 172 216 259 294
#     4  10  20  34  55  77  99 133 186 232 275 333
#     4  10  20  35  54  75 101 135 181 233 275 338
#     4  10  22  30  46  58  94 122 172 222 272 290
#     4  10  22  32  48  72  96 128 173 221 285 320
#
# _framework density 20.959465999999999
#
# number of rings (size 3 to 8) (size 9 to 14) (size 15 to 20)
#    0.545    1.455    0.000    3.818    5.091    1.455 
#    0.000    0.000    0.000    0.000    0.000    0.000 
#    0.000    0.000    0.000    0.000    0.000 1018.182 
#
# Total GULP energy -122637.861875 kJ/mol
# GULP energy per Si atom -5574.448267 kJ/mol
# Density = 2.091176 g / cm^3
# Si number density = 20.959466 Si / 1000 Ang^3
#
#
#
# Elastic Constant Matrix: (Units=GPa)
#
#
# Indices 1 2 3 4 5 6 
#
# 1 61.4818 -9.1094 29.5590 0.0000 -10.7421 0.0000
# 2 -9.1094 72.0317 13.5812 0.0000 2.7213 0.0000
# 3 29.5590 13.5812 161.2590 0.0000 31.8799 0.0000
# 4 0.0000 0.0000 0.0000 10.5129 0.0000 -2.2892
# 5 -10.7421 2.7213 31.8799 0.0000 24.3564 0.0000
# 6 0.0000 0.0000 0.0000 -2.2892 0.0000 19.7072
#
#
#
# Elastic Compliance Matrix: (Units=1/GPa)
#
#
# Indices 1 2 3 4 5 6 
#
# 1 0.025681 0.004190 -0.009723 0.000000 0.023584 0.000000
# 2 0.004190 0.014790 -0.002769 0.000000 0.003819 0.000000
# 3 -0.009723 -0.002769 0.012146 0.000000 -0.019876 0.000000
# 4 0.000000 0.000000 0.000000 0.097590 0.000000 0.011336
# 5 0.023584 0.003819 -0.019876 0.000000 0.077047 0.000000
# 6 0.000000 0.000000 0.000000 0.011336 0.000000 0.052060
#
#
# Mechanical properties :
#
#
# Convention : Reuss Voigt Hill
#
# Bulk Modulus (GPa) = 27.76682 40.31491 34.04086
# Shear Modulus (GPa) = 16.23791 28.29809 22.26800
#
# Velocity S-wave (km/s) = 2.78642 3.67840 3.26303
# Velocity P-wave (km/s) = 4.86094 6.10879 5.52024
#
# Compressibility (1/GPa) = 0.03601421
#
# Stress axis : x y z
#
# Youngs Moduli (GPa) = 38.93986 67.61156 82.33184
#
# Poissons Ratio (x) = -0.28328 0.80047
# Poissons Ratio (y) = -0.16315 0.22795
# Poissons Ratio (z) = 0.37859 0.18719
#
# Static dielectric constant tensor:
#      x y z
#    x 1.731300 0.000000 -0.096660 
#    y 0.000000 1.710540 0.000000 
#    z -0.096660 0.000000 1.841250 
# 
# From -- ./inp_files/15284.got.cif
#   From: 2010.05.17/outbox.cif.g08.bks.cpg/sg15_8_cif.got.tgz:15284.got - 2010.06.03 18:47:42.
