data_PCOD9268224
_publ_section_title
;
Structure prediction by ZEFSAII (Michael W. Deem and Ramdas Pophale) SiO2 
 PCOD9268224
Probable space group: C 2/C
;
_chemical_formula_sum "Si O2"
_cell_formula_units_Z 56
_cell_length_a 10.074995
_cell_length_b 10.864449
_cell_length_c 23.106129
_cell_angle_alpha 90.000000
_cell_angle_beta 62.729231
_cell_angle_gamma 90.000000
_cell_volume 2248.064447
_symmetry_space_group_name_H-M "C 2/C"
_symmetry_group_IT_number 15
_symmetry_cell_setting 'monoclinic'
loop_
_space_group_symop_operation_xyz
x,y,z
-x,y,1/2-z
-x,-y,-z
x,-y,1/2+z
1/2+x,1/2+y,z
1/2-x,1/2+y,1/2-z
1/2-x,1/2-y,-z
1/2+x,1/2-y,1/2+z
loop_
_atom_site_type_symbol
_atom_site_label
_atom_site_fract_x
_atom_site_fract_y
_atom_site_fract_z
Si Si1 0.258302 0.197924 0.148670
Si Si2 0.170108 0.056537 0.274972
Si Si3 0.146210 0.014080 0.609511
Si Si4 0.330210 0.762031 0.076769
Si Si5 0.645679 0.286209 0.258339
Si Si6 0.192892 0.422594 0.526538
Si Si7 0.369469 0.812534 0.432839
O O1 0.155321 0.128045 0.216646
O O2 0.271918 0.087822 0.100196
O O3 0.383011 0.247669 0.167623
O O4 0.185211 0.300195 0.122502
O O5 0.272833 0.163070 0.283144
O O6 0.016217 0.025844 0.337868
O O7 0.231644 0.917984 0.249043
O O8 0.213709 0.137751 0.623456
O O9 0.158432 0.036536 0.538694
O O10 0.379040 0.826333 0.004727
O O11 0.473937 0.746967 0.086905
O O12 0.244079 0.642076 0.074323
O O13 0.500000 0.308862 0.250000
O O14 0.105050 0.545544 0.556890
O O15 0.250000 0.750000 0.500000
#
# Coordination Sequence:
#
# PCOD9268224 Si02
#       7
#     8   8   8   8   8   8   8
#     4  10  24  44  71 110 146 197 259 317 385 469
#     4  10  24  50  78 106 151 194 265 323 395 464
#     4  10  19  47  73 102 153 198 238 332 379 445
#     4   9  22  43  72 107 156 204 253 307 393 464
#     4  10  24  52  77 105 149 202 255 332 394 469
#     4   9  21  43  72 108 150 202 256 303 383 469
#     4  12  22  44  69 113 162 203 255 322 384 459
#
# _framework density 24.910319000000001
#
# number of rings (size 3 to 8) (size 9 to 14) (size 15 to 20)
#    1.714    0.286    1.429    1.714    0.000    1.714 
#   18.000    0.000    0.000    0.000    0.000    0.000 
#    0.000    0.000    0.000    0.000    0.000    0.000 
#
# Total GULP energy -155995.792707 kJ/mol
# GULP energy per Si atom -5571.278311 kJ/mol
# Density = 2.485362 g / cm^3
# Si number density = 24.910319 Si / 1000 Ang^3
#
#
#
# Elastic Constant Matrix: (Units=GPa)
#
#
# Indices 1 2 3 4 5 6 
#
# 1 88.3188 27.6375 30.0848 0.0000 10.5234 0.0000
# 2 27.6375 125.7647 13.3374 0.0000 -0.2940 0.0000
# 3 30.0848 13.3374 83.8388 0.0000 11.6568 0.0000
# 4 0.0000 0.0000 0.0000 42.7045 0.0000 1.7847
# 5 10.5234 -0.2940 11.6568 0.0000 34.0702 0.0000
# 6 0.0000 0.0000 0.0000 1.7847 0.0000 15.6818
#
#
#
# Elastic Compliance Matrix: (Units=1/GPa)
#
#
# Indices 1 2 3 4 5 6 
#
# 1 0.013908 -0.002621 -0.004172 0.000000 -0.002891 0.000000
# 2 -0.002621 0.008591 -0.000577 0.000000 0.001081 0.000000
# 3 -0.004172 -0.000577 0.014004 0.000000 -0.003508 0.000000
# 4 0.000000 0.000000 0.000000 0.023529 0.000000 -0.002678
# 5 -0.002891 0.001081 -0.003508 0.000000 0.031454 0.000000
# 6 0.000000 0.000000 0.000000 -0.002678 0.000000 0.064073
#
#
# Mechanical properties :
#
#
# Convention : Reuss Voigt Hill
#
# Bulk Modulus (GPa) = 45.94550 48.89353 47.41952
# Shear Modulus (GPa) = 28.16071 33.61546 30.88808
#
# Velocity S-wave (km/s) = 3.36591 3.67748 3.52514
# Velocity P-wave (km/s) = 5.79571 6.14022 5.97045
#
# Compressibility (1/GPa) = 0.02176492
#
# Stress axis : x y z
#
# Youngs Moduli (GPa) = 71.89922 116.40159 71.40731
#
# Poissons Ratio (x) = 0.30506 0.29791
# Poissons Ratio (y) = 0.18843 0.04117
# Poissons Ratio (z) = 0.29996 0.06711
#
# Static dielectric constant tensor:
#      x y z
#    x 2.013430 0.000000 0.050220 
#    y 0.000000 2.046390 0.000000 
#    z 0.050220 0.000000 2.157970 
# 
# From -- ./inp_files/237550.got.cif
#   From: 2010.05.17/outbox.cif.g08.bks.cpg/sg15_119_cif.got.tgz:237550.got - 2010.06.03 18:47:42.
