data_PCOD9268823
_publ_section_title
;
Structure prediction by ZEFSAII (Michael W. Deem and Ramdas Pophale) SiO2 
 PCOD9268823
Probable space group: C 2/C
;
_chemical_formula_sum "Si O2"
_cell_formula_units_Z 44
_cell_length_a 26.164094
_cell_length_b 8.911609
_cell_length_c 12.499549
_cell_angle_alpha 90.000000
_cell_angle_beta 124.268858
_cell_angle_gamma 90.000000
_cell_volume 2408.512048
_symmetry_space_group_name_H-M "C 2/C"
_symmetry_group_IT_number 15
_symmetry_cell_setting 'monoclinic'
loop_
_space_group_symop_operation_xyz
x,y,z
-x,y,1/2-z
-x,-y,-z
x,-y,1/2+z
1/2+x,1/2+y,z
1/2-x,1/2+y,1/2-z
1/2-x,1/2-y,-z
1/2+x,1/2-y,1/2+z
loop_
_atom_site_type_symbol
_atom_site_label
_atom_site_fract_x
_atom_site_fract_y
_atom_site_fract_z
Si Si1 0.895234 0.527785 0.488454
Si Si2 0.305014 0.039196 0.566719
Si Si3 0.392757 0.786800 0.770959
Si Si4 0.196114 0.712906 0.715821
Si Si5 0.699251 0.456265 0.287989
Si Si6 0.500000 0.116359 0.250000
O O1 0.847233 0.596844 0.517982
O O2 0.905718 0.633615 0.399627
O O3 0.860398 0.376930 0.405774
O O4 0.957694 0.484688 0.622587
O O5 0.300723 0.154038 0.658798
O O6 0.340738 0.891922 0.652831
O O7 0.239236 0.996529 0.440044
O O8 0.363627 0.625203 0.755845
O O9 0.452633 0.790510 0.766838
O O10 0.257735 0.658833 0.727745
O O11 0.190679 0.891263 0.711316
#
# Coordination Sequence:
#
# PCOD9268823 Si02
#       6
#     8   8   8   8   8   4
#     4   9  19  36  56  80 103 134 176 218 259 306
#     4   9  18  33  54  81 107 135 170 207 257 319
#     4  10  20  34  54  78 104 136 177 217 257 304
#     4  10  20  33  53  81 111 137 169 210 260 315
#     4  11  20  33  53  80 111 140 167 211 261 313
#     4  10  20  36  58  74  98 140 184 222 254 300
#
# _framework density 18.268540000000002
#
# number of rings (size 3 to 8) (size 9 to 14) (size 15 to 20)
#    0.000    2.182    0.000    4.909    0.000    2.909 
#    0.000    0.909    0.000   10.909    0.000    0.000 
#    0.000    0.000    0.000    0.000    0.000    0.000 
#
# Total GULP energy -122860.522110 kJ/mol
# GULP energy per Si atom -5584.569187 kJ/mol
# Density = 1.822696 g / cm^3
# Si number density = 18.268540 Si / 1000 Ang^3
#
#
#
# Elastic Constant Matrix: (Units=GPa)
#
#
# Indices 1 2 3 4 5 6 
#
# 1 93.9617 41.2449 50.0757 0.0000 0.6276 0.0000
# 2 41.2449 60.7866 17.2558 0.0000 0.7737 0.0000
# 3 50.0757 17.2558 110.9010 0.0000 1.0094 0.0000
# 4 0.0000 0.0000 0.0000 4.0369 0.0000 -4.7743
# 5 0.6276 0.7737 1.0094 0.0000 30.1583 0.0000
# 6 0.0000 0.0000 0.0000 -4.7743 0.0000 21.9461
#
#
#
# Elastic Compliance Matrix: (Units=1/GPa)
#
#
# Indices 1 2 3 4 5 6 
#
# 1 0.019198 -0.011055 -0.006950 0.000000 0.000117 0.000000
# 2 -0.011055 0.023581 0.001326 0.000000 -0.000419 0.000000
# 3 -0.006950 0.001326 0.011951 0.000000 -0.000289 0.000000
# 4 0.000000 0.000000 0.000000 0.333526 0.000000 0.072558
# 5 0.000117 -0.000419 -0.000289 0.000000 0.033176 0.000000
# 6 0.000000 0.000000 0.000000 0.072558 0.000000 0.061351
#
#
# Mechanical properties :
#
#
# Convention : Reuss Voigt Hill
#
# Bulk Modulus (GPa) = 46.78589 53.64470 50.21529
# Shear Modulus (GPa) = 9.55539 21.69979 15.62759
#
# Velocity S-wave (km/s) = 2.28951 3.45022 2.92796
# Velocity P-wave (km/s) = 5.71444 6.73055 6.24320
#
# Compressibility (1/GPa) = 0.02137396
#
# Stress axis : x y z
#
# Youngs Moduli (GPa) = 52.08825 42.40737 83.67306
#
# Poissons Ratio (x) = 0.46881 0.58149
# Poissons Ratio (y) = 0.57584 -0.11099
# Poissons Ratio (z) = 0.36199 -0.05625
#
# Static dielectric constant tensor:
#      x y z
#    x 1.627880 0.000000 -0.016050 
#    y 0.000000 1.619490 0.000000 
#    z -0.016050 0.000000 1.638670 
# 
# From -- ./inp_files/109936.got.cif
#   From: 2010.05.17/outbox.cif.g08.bks.cpg/sg15_55_cif.got.tgz:109936.got - 2010.06.03 18:47:42.
