data_PCOD9268374
_publ_section_title
;
Structure prediction by ZEFSAII (Michael W. Deem and Ramdas Pophale) SiO2 
 PCOD9268374
Probable space group: C 2/C
;
_chemical_formula_sum "Si O2"
_cell_formula_units_Z 64
_cell_length_a 19.230696
_cell_length_b 6.490640
_cell_length_c 30.796090
_cell_angle_alpha 90.000000
_cell_angle_beta 71.162364
_cell_angle_gamma 90.000000
_cell_volume 3638.061061
_symmetry_space_group_name_H-M "C 2/C"
_symmetry_group_IT_number 15
_symmetry_cell_setting 'monoclinic'
loop_
_space_group_symop_operation_xyz
x,y,z
-x,y,1/2-z
-x,-y,-z
x,-y,1/2+z
1/2+x,1/2+y,z
1/2-x,1/2+y,1/2-z
1/2-x,1/2-y,-z
1/2+x,1/2-y,1/2+z
loop_
_atom_site_type_symbol
_atom_site_label
_atom_site_fract_x
_atom_site_fract_y
_atom_site_fract_z
Si Si1 0.584198 0.469474 0.635479
Si Si2 0.917629 0.790666 0.769547
Si Si3 0.663599 0.816136 0.058762
Si Si4 0.663404 0.977909 0.774338
Si Si5 0.221904 0.439807 0.475888
Si Si6 0.420634 0.409972 0.189474
Si Si7 0.715761 0.667926 0.313563
Si Si8 0.785791 0.694723 0.392122
O O1 0.600010 0.356217 0.678213
O O2 0.596386 0.300794 0.595226
O O3 0.500516 0.546558 0.654003
O O4 0.641698 0.659212 0.620513
O O5 0.863431 0.633543 0.757496
O O6 0.000000 0.701668 0.750000
O O7 0.918878 0.988451 0.737761
O O8 0.719205 0.625167 0.039634
O O9 0.697286 0.983334 0.085590
O O10 0.656240 0.947652 0.015550
O O11 0.598628 0.826023 0.800215
O O12 0.731597 0.863057 0.738748
O O13 0.686515 0.102088 0.812222
O O14 0.250000 0.250000 0.500000
O O15 0.221783 0.328549 0.429215
O O16 0.353886 0.516361 0.176563
O O17 0.760869 0.647957 0.348464
#
# Coordination Sequence:
#
# PCOD9268374 Si02
#       8
#     8   8   8   8   8   8   8   8
#     4  10  20  33  52  78 105 134 181 224 269 327
#     4   9  20  34  50  73 100 134 178 220 264 314
#     4   9  17  32  55  81 110 135 166 219 281 324
#     4  11  21  34  51  67 100 143 178 220 266 306
#     4   8  16  32  52  83 112 133 165 219 274 326
#     4  10  22  36  47  70 106 142 177 224 267 315
#     4  11  22  34  51  73 103 143 183 218 266 313
#     4  10  20  31  55  83 105 135 177 220 264 325
#
# _framework density 17.591788000000001
#
# number of rings (size 3 to 8) (size 9 to 14) (size 15 to 20)
#    0.000    2.250    1.250    1.500    1.750    7.500 
#    0.000    0.000    0.000    0.750    0.000   30.625 
#    0.000    0.000    0.000    0.000    0.000    0.000 
#
# Total GULP energy -178177.702933 kJ/mol
# GULP energy per Si atom -5568.053217 kJ/mol
# Density = 1.755175 g / cm^3
# Si number density = 17.591788 Si / 1000 Ang^3
#
#
#
# Elastic Constant Matrix: (Units=GPa)
#
#
# Indices 1 2 3 4 5 6 
#
# 1 38.4372 18.9805 9.5019 -0.0001 -9.3384 -0.0014
# 2 18.9805 87.1004 33.0732 -0.0021 -13.6574 -0.0015
# 3 9.5019 33.0732 65.7541 0.0000 -15.1104 -0.0004
# 4 -0.0001 -0.0021 0.0000 16.2357 -0.0001 -10.3599
# 5 -9.3384 -13.6574 -15.1104 -0.0001 14.8635 -0.0001
# 6 -0.0014 -0.0015 -0.0004 -10.3599 -0.0001 2.9772
#
#
#
# Elastic Compliance Matrix: (Units=1/GPa)
#
#
# Indices 1 2 3 4 5 6 
#
# 1 0.032297 -0.004993 0.001896 -0.000007 0.017631 -0.000010
# 2 -0.004993 0.015643 -0.005956 -0.000004 0.005182 -0.000010
# 3 0.001896 -0.005956 0.022112 0.000000 0.018198 0.000001
# 4 -0.000007 -0.000004 0.000000 -0.050471 -0.000010 -0.175623
# 5 0.017631 0.005182 0.018198 -0.000010 0.101617 -0.000019
# 6 -0.000010 -0.000010 0.000001 -0.175623 -0.000019 -0.275232
#
#
# Mechanical properties :
#
#
# Convention : Reuss Voigt Hill
#
# Bulk Modulus (GPa) = 19.25096 34.93368 27.09232
# Shear Modulus (GPa) = -42.15417 15.46437 -13.34490
#
# Velocity S-wave (km/s) = -4.90045 2.96812 -2.75723
# Velocity P-wave (km/s) = 4.58828 5.62560 2.30164
#
# Compressibility (1/GPa) = 0.05194546
#
# Stress axis : x y z
#
# Youngs Moduli (GPa) = 30.96262 63.92559 45.22482
#
# Poissons Ratio (x) = 0.31921 -0.08575
# Poissons Ratio (y) = 0.15461 0.26935
# Poissons Ratio (z) = -0.05871 0.38073
#
# Static dielectric constant tensor:
#      x y z
#    x 1.592780 0.000000 -0.022830 
#    y 0.000000 1.633030 0.000000 
#    z -0.022830 0.000000 1.637980 
# 
# From -- ./inp_files/316987.got.cif
#   From: 2010.05.17/outbox.cif.g08.bks.cpg/sg15_159_cif.got.tgz:316987.got - 2010.06.03 18:47:42.
