data_PCOD9268120
_publ_section_title
;
Structure prediction by ZEFSAII (Michael W. Deem and Ramdas Pophale) SiO2 
 PCOD9268120
Probable space group: C 2/C
;
_chemical_formula_sum "Si O2"
_cell_formula_units_Z 44
_cell_length_a 7.525179
_cell_length_b 32.801184
_cell_length_c 9.070431
_cell_angle_alpha 90.000000
_cell_angle_beta 81.343329
_cell_angle_gamma 90.000000
_cell_volume 2213.392309
_symmetry_space_group_name_H-M "C 2/C"
_symmetry_group_IT_number 15
_symmetry_cell_setting 'monoclinic'
loop_
_space_group_symop_operation_xyz
x,y,z
-x,y,1/2-z
-x,-y,-z
x,-y,1/2+z
1/2+x,1/2+y,z
1/2-x,1/2+y,1/2-z
1/2-x,1/2-y,-z
1/2+x,1/2-y,1/2+z
loop_
_atom_site_type_symbol
_atom_site_label
_atom_site_fract_x
_atom_site_fract_y
_atom_site_fract_z
Si Si1 0.880574 0.555290 0.017611
Si Si2 0.000000 0.341320 0.250000
Si Si3 0.227775 0.702480 0.474551
Si Si4 0.500000 0.831764 0.750000
Si Si5 0.500000 0.000133 0.250000
Si Si6 0.802616 0.613336 0.522680
Si Si7 0.433882 0.621635 0.426118
O O1 0.743072 0.593292 0.032104
O O2 0.870365 0.527719 0.164308
O O3 0.879366 0.527689 0.872692
O O4 0.083769 0.572312 0.999072
O O5 0.142662 0.367515 0.326637
O O6 0.900670 0.314084 0.381488
O O7 0.250000 0.750000 0.500000
O O8 0.389669 0.669595 0.455193
O O9 0.133770 0.695148 0.329417
O O10 0.612598 0.859135 0.620527
O O11 0.593444 0.609372 0.516000
O O12 0.500000 0.616114 0.250000
#
# Coordination Sequence:
#
# PCOD9268120 Si02
#       7
#     8   4   8   4   4   8   8
#     4  11  22  45  67  98 131 173 219 272 344 401
#     4  10  23  42  62  97 138 176 216 289 330 381
#     4  11  25  41  65 100 138 176 231 275 337 394
#     4  10  19  42  66  89 136 186 212 273 330 395
#     4  10  24  42  70  94 138 172 208 288 338 400
#     4  11  21  41  70  95 130 173 229 267 328 405
#     4  12  23  40  72  98 127 182 228 269 329 409
#
# _framework density 19.878990000000002
#
# number of rings (size 3 to 8) (size 9 to 14) (size 15 to 20)
#    0.000    1.091    5.455    2.182    1.273    2.182 
#    0.000   13.636    0.000    0.000    0.000    0.000 
#    0.000    0.000    0.000    0.000    0.000    0.000 
#
# Total GULP energy -122866.385486 kJ/mol
# GULP energy per Si atom -5584.835704 kJ/mol
# Density = 1.983374 g / cm^3
# Si number density = 19.878990 Si / 1000 Ang^3
#
#
#
# Elastic Constant Matrix: (Units=GPa)
#
#
# Indices 1 2 3 4 5 6 
#
# 1 107.8420 36.6345 22.7573 0.0000 21.0389 0.0000
# 2 36.6345 119.4425 40.1092 0.0000 10.7475 0.0000
# 3 22.7573 40.1092 106.1984 0.0000 23.1749 0.0000
# 4 0.0000 0.0000 0.0000 23.6914 0.0000 8.0224
# 5 21.0389 10.7475 23.1749 0.0000 26.3300 0.0000
# 6 0.0000 0.0000 0.0000 8.0224 0.0000 8.1144
#
#
#
# Elastic Compliance Matrix: (Units=1/GPa)
#
#
# Indices 1 2 3 4 5 6 
#
# 1 0.011896 -0.003032 0.000495 0.000000 -0.008704 0.000000
# 2 -0.003032 0.010378 -0.003557 0.000000 0.001318 0.000000
# 3 0.000495 -0.003557 0.012901 0.000000 -0.010299 0.000000
# 4 0.000000 0.000000 0.000000 0.063452 0.000000 -0.062733
# 5 -0.008704 0.001318 -0.010299 0.000000 0.053461 0.000000
# 6 0.000000 0.000000 0.000000 -0.062733 0.000000 0.185259
#
#
# Mechanical properties :
#
#
# Convention : Reuss Voigt Hill
#
# Bulk Modulus (GPa) = 43.50177 59.16500 51.33338
# Shear Modulus (GPa) = 13.99779 27.22596 20.61188
#
# Velocity S-wave (km/s) = 2.65646 3.70480 3.22354
# Velocity P-wave (km/s) = 5.59820 6.93743 6.30348
#
# Compressibility (1/GPa) = 0.02298757
#
# Stress axis : x y z
#
# Youngs Moduli (GPa) = 84.05957 96.35581 77.51175
#
# Poissons Ratio (x) = 0.29214 -0.03839
# Poissons Ratio (y) = 0.25486 0.27575
# Poissons Ratio (z) = -0.04163 0.34278
#
# Static dielectric constant tensor:
#      x y z
#    x 1.700170 0.000000 0.002910 
#    y 0.000000 1.725750 0.000000 
#    z 0.002910 0.000000 1.729660 
# 
# From -- ./inp_files/25595.got.cif
#   From: 2010.05.17/outbox.cif.g08.bks.cpg/sg15_13_cif.got.tgz:25595.got - 2010.06.03 18:47:42.
