data_PCOD9268932
_publ_section_title
;
Structure prediction by ZEFSAII (Michael W. Deem and Ramdas Pophale) SiO2 
 PCOD9268932
Probable space group: C 2/C
;
_chemical_formula_sum "Si O2"
_cell_formula_units_Z 56
_cell_length_a 16.896726
_cell_length_b 19.307734
_cell_length_c 6.451935
_cell_angle_alpha 90.000000
_cell_angle_beta 99.385725
_cell_angle_gamma 90.000000
_cell_volume 2076.684912
_symmetry_space_group_name_H-M "C 2/C"
_symmetry_group_IT_number 15
_symmetry_cell_setting 'monoclinic'
loop_
_space_group_symop_operation_xyz
x,y,z
-x,y,1/2-z
-x,-y,-z
x,-y,1/2+z
1/2+x,1/2+y,z
1/2-x,1/2+y,1/2-z
1/2-x,1/2-y,-z
1/2+x,1/2-y,1/2+z
loop_
_atom_site_type_symbol
_atom_site_label
_atom_site_fract_x
_atom_site_fract_y
_atom_site_fract_z
Si Si1 0.150978 0.518054 0.966611
Si Si2 0.779772 0.025032 0.286022
Si Si3 0.057979 0.941921 0.101027
Si Si4 0.597862 0.877306 0.981047
Si Si5 0.926645 0.196035 0.878230
Si Si6 0.069757 0.339094 0.489725
Si Si7 0.227166 0.831967 0.471490
O O1 0.176125 0.515435 0.238032
O O2 0.082749 0.458920 0.970418
O O3 0.115113 0.594425 0.916976
O O4 0.973478 0.658367 0.928207
O O5 0.863012 0.981991 0.296284
O O6 0.757201 0.018177 0.013796
O O7 0.789545 0.107098 0.360278
O O8 0.000000 0.909464 0.250000
O O9 0.067691 0.872613 0.974121
O O10 0.000000 0.000000 0.000000
O O11 0.689954 0.863531 0.084465
O O12 0.590669 0.850197 0.743862
O O13 0.904589 0.259728 0.019608
O O14 0.851625 0.172631 0.702567
O O15 0.000000 0.218003 0.750000
O O16 0.250000 0.750000 0.500000
#
# Coordination Sequence:
#
# PCOD9268932 Si02
#       7
#     8   8   8   8   8   8   8
#     4  11  20  37  57  86 121 160 194 248 305 366
#     4  11  22  37  59  90 122 155 208 250 299 373
#     4  11  23  40  62  90 117 160 204 258 310 356
#     4  10  20  33  56  85 122 150 202 247 301 358
#     4  11  20  36  61  88 120 154 210 259 300 360
#     4  11  19  37  56  90 120 157 202 255 303 360
#     4  11  18  34  58  90 119 152 202 257 299 343
#
# _framework density 26.966058
#
# number of rings (size 3 to 8) (size 9 to 14) (size 15 to 20)
#    0.000    1.143    5.714    4.714    0.000    0.000 
#    0.000    0.714    0.000    5.143    0.000    0.000 
#    0.000    0.000    0.000    0.000    0.000    0.000 
#
# Total GULP energy -156021.706460 kJ/mol
# GULP energy per Si atom -5572.203802 kJ/mol
# Density = 2.690468 g / cm^3
# Si number density = 26.966058 Si / 1000 Ang^3
#
#
#
# Elastic Constant Matrix: (Units=GPa)
#
#
# Indices 1 2 3 4 5 6 
#
# 1 136.7656 31.4771 32.1358 0.0000 18.2293 0.0000
# 2 31.4771 276.1191 29.8491 0.0000 25.9918 0.0000
# 3 32.1358 29.8491 81.9223 0.0000 13.5988 0.0000
# 4 0.0000 0.0000 0.0000 49.3681 0.0000 12.1277
# 5 18.2293 25.9918 13.5988 0.0000 52.3343 0.0000
# 6 0.0000 0.0000 0.0000 12.1277 0.0000 25.0886
#
#
#
# Elastic Compliance Matrix: (Units=1/GPa)
#
#
# Indices 1 2 3 4 5 6 
#
# 1 0.008331 -0.000466 -0.002774 0.000000 -0.001949 0.000000
# 2 -0.000466 0.003926 -0.000994 0.000000 -0.001529 0.000000
# 3 -0.002774 -0.000994 0.014019 0.000000 -0.002183 0.000000
# 4 0.000000 0.000000 0.000000 0.022986 0.000000 -0.011111
# 5 -0.001949 -0.001529 -0.002183 0.000000 0.021114 0.000000
# 6 0.000000 0.000000 0.000000 -0.011111 0.000000 0.045230
#
#
# Mechanical properties :
#
#
# Convention : Reuss Voigt Hill
#
# Bulk Modulus (GPa) = 56.15630 75.74786 65.95208
# Shear Modulus (GPa) = 38.45851 52.11454 45.28653
#
# Velocity S-wave (km/s) = 3.78058 4.40090 4.10248
# Velocity P-wave (km/s) = 6.31879 7.34677 6.85208
#
# Compressibility (1/GPa) = 0.01780744
#
# Stress axis : x y z
#
# Youngs Moduli (GPa) = 120.03596 254.70148 71.32930
#
# Poissons Ratio (x) = 0.11876 0.19790
# Poissons Ratio (y) = 0.05597 0.07088
# Poissons Ratio (z) = 0.33304 0.25311
#
# Static dielectric constant tensor:
#      x y z
#    x 1.990000 0.000000 -0.057350 
#    y 0.000000 2.487010 0.000000 
#    z -0.057350 0.000000 2.411510 
# 
# From -- ./inp_files/99456.got.cif
#   From: 2010.05.17/outbox.cif.g08.bks.cpg/sg15_50_cif.got.tgz:99456.got - 2010.06.03 18:47:42.
