data_PCOD9268812
_publ_section_title
;
Structure prediction by ZEFSAII (Michael W. Deem and Ramdas Pophale) SiO2 
 PCOD9268812
Probable space group: C 2/C
;
_chemical_formula_sum "Si O2"
_cell_formula_units_Z 56
_cell_length_a 29.067948
_cell_length_b 18.356588
_cell_length_c 5.172884
_cell_angle_alpha 90.000000
_cell_angle_beta 63.922483
_cell_angle_gamma 90.000000
_cell_volume 2479.203596
_symmetry_space_group_name_H-M "C 2/C"
_symmetry_group_IT_number 15
_symmetry_cell_setting 'monoclinic'
loop_
_space_group_symop_operation_xyz
x,y,z
-x,y,1/2-z
-x,-y,-z
x,-y,1/2+z
1/2+x,1/2+y,z
1/2-x,1/2+y,1/2-z
1/2-x,1/2-y,-z
1/2+x,1/2-y,1/2+z
loop_
_atom_site_type_symbol
_atom_site_label
_atom_site_fract_x
_atom_site_fract_y
_atom_site_fract_z
Si Si1 0.148864 0.189692 0.742677
Si Si2 0.277340 0.083605 0.769094
Si Si3 0.376256 0.974191 0.540735
Si Si4 0.668572 0.406415 0.698698
Si Si5 0.191117 0.658923 0.302593
Si Si6 0.435291 0.464360 0.427797
Si Si7 0.033105 0.189105 0.904701
O O1 0.170467 0.152473 0.428215
O O2 0.181686 0.258849 0.750234
O O3 0.090546 0.216394 0.828358
O O4 0.149374 0.134338 0.985171
O O5 0.222665 0.056759 0.002505
O O6 0.292155 0.144428 0.945743
O O7 0.273038 0.120725 0.500619
O O8 0.322904 0.023792 0.654187
O O9 0.404691 0.994395 0.213043
O O10 0.360130 0.890812 0.598305
O O11 0.625792 0.461609 0.901950
O O12 0.451295 0.474046 0.684865
O O13 0.452609 0.390244 0.250476
O O14 0.000000 0.224027 0.750000
O O15 0.000000 0.187543 0.250000
#
# Coordination Sequence:
#
# PCOD9268812 Si02
#       7
#     8   8   8   8   8   8   8
#     4  11  23  39  56  79 108 140 178 224 276 322
#     4  10  20  33  53  78 109 151 188 219 255 304
#     4   8  16  30  47  72 101 132 178 218 249 290
#     4  11  23  37  53  77 114 150 181 219 261 308
#     4  10  20  34  53  77 108 141 185 226 258 309
#     4  11  23  38  57  83 109 140 183 228 276 319
#     4  11  23  41  61  80 105 136 175 228 287 343
#
# _framework density 22.587896000000001
#
# number of rings (size 3 to 8) (size 9 to 14) (size 15 to 20)
#    0.000    1.714    0.000    6.000    0.000    8.571 
#    0.000    0.000    0.000    0.000    0.000    0.000 
#    0.000   30.857    0.000    0.000    0.000    0.000 
#
# Total GULP energy -156354.417115 kJ/mol
# GULP energy per Si atom -5584.086326 kJ/mol
# Density = 2.253649 g / cm^3
# Si number density = 22.587896 Si / 1000 Ang^3
#
#
#
# Elastic Constant Matrix: (Units=GPa)
#
#
# Indices 1 2 3 4 5 6 
#
# 1 52.7889 9.5031 13.9353 0.0000 17.0214 0.0000
# 2 9.5031 45.1125 7.9955 0.0000 3.2444 0.0000
# 3 13.9353 7.9955 80.9940 0.0000 31.5994 0.0000
# 4 0.0000 0.0000 0.0000 20.1500 0.0000 9.7330
# 5 17.0214 3.2444 31.5994 0.0000 46.3917 0.0000
# 6 0.0000 0.0000 0.0000 9.7330 0.0000 10.8545
#
#
#
# Elastic Compliance Matrix: (Units=1/GPa)
#
#
# Indices 1 2 3 4 5 6 
#
# 1 0.022234 -0.004056 -0.000481 0.000000 -0.007547 0.000000
# 2 -0.004056 0.023302 -0.002107 0.000000 0.001294 0.000000
# 3 -0.000481 -0.002107 0.017039 0.000000 -0.011282 0.000000
# 4 0.000000 0.000000 0.000000 0.087546 0.000000 -0.078501
# 5 -0.007547 0.001294 -0.011282 0.000000 0.031919 0.000000
# 6 0.000000 0.000000 0.000000 -0.078501 0.000000 0.162518
#
#
# Mechanical properties :
#
#
# Convention : Reuss Voigt Hill
#
# Bulk Modulus (GPa) = 20.28929 26.86256 23.57593
# Shear Modulus (GPa) = 13.35920 25.31003 19.33461
#
# Velocity S-wave (km/s) = 2.43458 3.35104 2.92887
# Velocity P-wave (km/s) = 4.11154 5.18564 4.67951
#
# Compressibility (1/GPa) = 0.04928708
#
# Stress axis : x y z
#
# Youngs Moduli (GPa) = 44.97671 42.91562 58.68876
#
# Poissons Ratio (x) = 0.17405 0.02822
# Poissons Ratio (y) = 0.18241 0.12367
# Poissons Ratio (z) = 0.02162 0.09043
#
# Static dielectric constant tensor:
#      x y z
#    x 1.955120 0.000000 0.021010 
#    y 0.000000 1.819670 0.000000 
#    z 0.021010 0.000000 1.881740 
# 
# From -- ./inp_files/17397.got.cif
#   From: 2010.05.17/outbox.cif.g08.bks.cpg/sg15_9_cif.got.tgz:17397.got - 2010.06.03 18:47:42.
