data_PCOD9268570
_publ_section_title
;
Structure prediction by ZEFSAII (Michael W. Deem and Ramdas Pophale) SiO2 
 PCOD9268570
Probable space group: C 2/C
;
_chemical_formula_sum "Si O2"
_cell_formula_units_Z 32
_cell_length_a 27.060431
_cell_length_b 8.070989
_cell_length_c 9.382960
_cell_angle_alpha 90.000000
_cell_angle_beta 35.883873
_cell_angle_gamma 90.000000
_cell_volume 1201.173934
_symmetry_space_group_name_H-M "C 2/C"
_symmetry_group_IT_number 15
_symmetry_cell_setting 'monoclinic'
loop_
_space_group_symop_operation_xyz
x,y,z
-x,y,1/2-z
-x,-y,-z
x,-y,1/2+z
1/2+x,1/2+y,z
1/2-x,1/2+y,1/2-z
1/2-x,1/2-y,-z
1/2+x,1/2-y,1/2+z
loop_
_atom_site_type_symbol
_atom_site_label
_atom_site_fract_x
_atom_site_fract_y
_atom_site_fract_z
Si Si1 0.405460 0.417410 0.581623
Si Si2 0.011697 0.730360 0.523410
Si Si3 0.293386 0.430277 0.121151
Si Si4 0.136360 0.383150 0.919505
O O1 0.472767 0.274078 0.461830
O O2 0.456141 0.590881 0.489357
O O3 0.352454 0.432451 0.561285
O O4 0.337184 0.400778 0.867262
O O5 0.091658 0.615434 0.370392
O O6 0.936968 0.655633 0.795089
O O7 0.196972 0.469287 0.316914
O O8 0.302833 0.275734 0.204857
#
# Coordination Sequence:
#
# PCOD9268570 Si02
#       4
#     8   8   8   8
#     4   9  18  34  56  83 104 140 184 225 258 320
#     4   8  16  31  54  72 100 139 182 210 254 311
#     4  10  20  32  56  82 110 138 180 222 270 316
#     4   9  18  34  54  79 106 142 178 223 266 318
#
# _framework density 26.640605999999998
#
# number of rings (size 3 to 8) (size 9 to 14) (size 15 to 20)
#    0.000    3.000    0.000    1.500    0.000   11.000 
#    0.000    0.000    0.000   54.000    0.000    0.000 
#    0.000    0.000    0.000    0.000    0.000    0.000 
#
# Total GULP energy -89449.208034 kJ/mol
# GULP energy per Si atom -5590.575502 kJ/mol
# Density = 2.657997 g / cm^3
# Si number density = 26.640606 Si / 1000 Ang^3
#
#
#
# Elastic Constant Matrix: (Units=GPa)
#
#
# Indices 1 2 3 4 5 6 
#
# 1 122.8797 17.4288 37.1694 0.0000 -29.9866 0.0000
# 2 17.4288 68.8873 15.4174 0.0000 -16.2433 0.0000
# 3 37.1694 15.4174 90.2471 0.0000 -15.5100 0.0000
# 4 0.0000 0.0000 0.0000 22.6294 0.0000 -8.1004
# 5 -29.9866 -16.2433 -15.5100 0.0000 49.1063 0.0000
# 6 0.0000 0.0000 0.0000 -8.1004 0.0000 25.4238
#
#
#
# Elastic Compliance Matrix: (Units=1/GPa)
#
#
# Indices 1 2 3 4 5 6 
#
# 1 0.010493 -0.000703 -0.003321 0.000000 0.005126 0.000000
# 2 -0.000703 0.016105 -0.001713 0.000000 0.004357 0.000000
# 3 -0.003321 -0.001713 0.013001 0.000000 0.001512 0.000000
# 4 0.000000 0.000000 0.000000 0.049879 0.000000 0.015892
# 5 0.005126 0.004357 0.001512 0.000000 0.025413 0.000000
# 6 0.000000 0.000000 0.000000 0.015892 0.000000 0.044397
#
#
# Mechanical properties :
#
#
# Convention : Reuss Voigt Hill
#
# Bulk Modulus (GPa) = 35.55443 46.89394 41.22418
# Shear Modulus (GPa) = 27.75678 33.56513 30.66095
#
# Velocity S-wave (km/s) = 3.23135 3.55339 3.39619
# Velocity P-wave (km/s) = 5.22466 5.87163 5.55757
#
# Compressibility (1/GPa) = 0.02812589
#
# Stress axis : x y z
#
# Youngs Moduli (GPa) = 95.30000 62.09243 76.91819
#
# Poissons Ratio (x) = 0.04364 0.25542
# Poissons Ratio (y) = 0.06698 0.13176
# Poissons Ratio (z) = 0.31646 0.10637
#
# Static dielectric constant tensor:
#      x y z
#    x 2.077170 0.000000 -0.022250 
#    y 0.000000 2.221620 0.000000 
#    z -0.022250 0.000000 2.069110 
# 
# From -- ./inp_files/83543.got.cif
#   From: 2010.05.17/outbox.cif.g08.bks.cpg/sg15_42_cif.got.tgz:83543.got - 2010.06.03 18:47:42.
