data_PCOD9268146
_publ_section_title
;
Structure prediction by ZEFSAII (Michael W. Deem and Ramdas Pophale) SiO2 
 PCOD9268146
Probable space group: C 2/C
;
_chemical_formula_sum "Si O2"
_cell_formula_units_Z 48
_cell_length_a 28.158521
_cell_length_b 8.398382
_cell_length_c 19.027229
_cell_angle_alpha 90.000000
_cell_angle_beta 30.235464
_cell_angle_gamma 90.000000
_cell_volume 2265.832252
_symmetry_space_group_name_H-M "C 2/C"
_symmetry_group_IT_number 15
_symmetry_cell_setting 'monoclinic'
loop_
_space_group_symop_operation_xyz
x,y,z
-x,y,1/2-z
-x,-y,-z
x,-y,1/2+z
1/2+x,1/2+y,z
1/2-x,1/2+y,1/2-z
1/2-x,1/2-y,-z
1/2+x,1/2-y,1/2+z
loop_
_atom_site_type_symbol
_atom_site_label
_atom_site_fract_x
_atom_site_fract_y
_atom_site_fract_z
Si Si1 0.794558 0.888864 0.397170
Si Si2 0.934600 0.751462 0.102423
Si Si3 0.895477 0.429161 0.071327
Si Si4 0.140131 0.583936 0.512495
Si Si5 0.606482 0.581402 0.109998
Si Si6 0.183057 0.128549 0.868511
O O1 0.750000 0.750000 0.500000
O O2 0.874367 0.817061 0.244115
O O3 0.710125 0.968146 0.461902
O O4 0.837636 0.019104 0.394844
O O5 0.905547 0.571913 0.115202
O O6 0.044030 0.722692 0.981123
O O7 0.097244 0.140126 0.923070
O O8 0.930283 0.489784 0.949756
O O9 0.784366 0.400264 0.206370
O O10 0.103385 0.724865 0.610048
O O11 0.194360 0.695995 0.387499
O O12 0.500000 0.521509 0.250000
O O13 0.654667 0.529236 0.974292
#
# Coordination Sequence:
#
# PCOD9268146 Si02
#       6
#     8   8   8   8   8   8
#     4  12  24  42  65 100 138 177 226 278 348 404
#     4  10  22  38  67 102 127 176 233 272 340 410
#     4  10  19  42  69  98 131 173 230 279 344 394
#     4   9  22  41  65  91 130 181 215 271 346 396
#     4  10  24  44  63  95 138 178 227 273 339 411
#     4   9  20  42  67  91 136 174 222 284 331 404
#
# _framework density 21.184270000000001
#
# number of rings (size 3 to 8) (size 9 to 14) (size 15 to 20)
#    1.000    1.000    1.667    1.500    0.000    4.000 
#    6.000    1.667    0.000    0.000    0.000    0.000 
#    0.000    0.000    0.000    0.000    0.000    0.000 
#
# Total GULP energy -133642.514112 kJ/mol
# GULP energy per Si atom -5568.438088 kJ/mol
# Density = 2.113605 g / cm^3
# Si number density = 21.184270 Si / 1000 Ang^3
#
#
#
# Elastic Constant Matrix: (Units=GPa)
#
#
# Indices 1 2 3 4 5 6 
#
# 1 136.2345 39.5396 45.1255 -0.0021 12.1128 0.0016
# 2 39.5396 51.3878 20.7849 -0.0074 6.5348 0.0113
# 3 45.1255 20.7849 63.6525 -0.0127 3.7664 0.0092
# 4 -0.0021 -0.0074 -0.0127 20.8543 0.0024 1.3773
# 5 12.1128 6.5348 3.7664 0.0024 28.0714 -0.0005
# 6 0.0016 0.0113 0.0092 1.3773 -0.0005 19.1730
#
#
#
# Elastic Compliance Matrix: (Units=1/GPa)
#
#
# Indices 1 2 3 4 5 6 
#
# 1 0.011249 -0.005937 -0.005877 -0.000005 -0.002683 0.000006
# 2 -0.005937 0.026074 -0.004131 0.000007 -0.002954 -0.000014
# 3 -0.005877 -0.004131 0.021187 0.000011 0.000655 -0.000008
# 4 -0.000005 0.000007 0.000011 0.048180 -0.000005 -0.003461
# 5 -0.002683 -0.002954 0.000655 -0.000005 0.037381 0.000003
# 6 0.000006 -0.000014 -0.000008 -0.003461 0.000003 0.052405
#
#
# Mechanical properties :
#
#
# Convention : Reuss Voigt Hill
#
# Bulk Modulus (GPa) = 37.56494 51.35275 44.45884
# Shear Modulus (GPa) = 21.07580 23.34140 22.20860
#
# Velocity S-wave (km/s) = 3.15759 3.32298 3.24134
# Velocity P-wave (km/s) = 5.57358 6.24632 5.91952
#
# Compressibility (1/GPa) = 0.02662057
#
# Stress axis : x y z
#
# Youngs Moduli (GPa) = 88.89988 38.35219 47.19886
#
# Poissons Ratio (x) = 0.22768 0.27740
# Poissons Ratio (y) = 0.52777 0.19496
# Poissons Ratio (z) = 0.52249 0.15842
#
# Static dielectric constant tensor:
#      x y z
#    x 1.812980 0.000000 0.006980 
#    y 0.000000 1.833860 0.000000 
#    z 0.006980 0.000000 1.757310 
# 
# From -- ./inp_files/258692.got.cif
#   From: 2010.05.17/outbox.cif.g08.bks.cpg/sg15_130_cif.got.tgz:258692.got - 2010.06.03 18:47:42.
