data_PCOD9268360
_publ_section_title
;
Structure prediction by ZEFSAII (Michael W. Deem and Ramdas Pophale) SiO2 
 PCOD9268360
Probable space group: C 2/C
;
_chemical_formula_sum "Si O2"
_cell_formula_units_Z 64
_cell_length_a 5.221534
_cell_length_b 22.305478
_cell_length_c 30.014255
_cell_angle_alpha 90.000000
_cell_angle_beta 69.676891
_cell_angle_gamma 90.000000
_cell_volume 3278.112016
_symmetry_space_group_name_H-M "C 2/C"
_symmetry_group_IT_number 15
_symmetry_cell_setting 'monoclinic'
loop_
_space_group_symop_operation_xyz
x,y,z
-x,y,1/2-z
-x,-y,-z
x,-y,1/2+z
1/2+x,1/2+y,z
1/2-x,1/2+y,1/2-z
1/2-x,1/2-y,-z
1/2+x,1/2-y,1/2+z
loop_
_atom_site_type_symbol
_atom_site_label
_atom_site_fract_x
_atom_site_fract_y
_atom_site_fract_z
Si Si1 0.816303 0.916963 0.532860
Si Si2 0.665613 0.676718 0.043089
Si Si3 0.317632 0.638190 0.598523
Si Si4 0.300530 0.922633 0.606991
Si Si5 0.405564 0.196609 0.555499
Si Si6 0.107771 0.004405 0.194876
Si Si7 0.338838 0.523921 0.948052
Si Si8 0.609814 0.077888 0.694224
O O1 0.616388 0.906108 0.585907
O O2 0.672524 0.939442 0.495934
O O3 0.995750 0.858592 0.515528
O O4 0.013673 0.969455 0.536272
O O5 0.682145 0.630367 0.083208
O O6 0.501235 0.736709 0.063454
O O7 0.958332 0.689738 0.002259
O O8 0.072162 0.654098 0.579714
O O9 0.440562 0.572403 0.580572
O O10 0.196329 0.631091 0.655701
O O11 0.583434 0.681955 0.578362
O O12 0.170160 0.937096 0.661738
O O13 0.300074 0.989357 0.583933
O O14 0.375390 0.963011 0.185571
O O15 0.000000 0.021362 0.250000
O O16 0.872347 0.964211 0.186752
O O17 0.500000 0.096396 0.750000
#
# Coordination Sequence:
#
# PCOD9268360 Si02
#       8
#     8   8   8   8   8   8   8   8
#     4  10  20  34  54  82 119 155 191 238 287 354
#     4  10  24  40  55  83 116 166 207 244 285 342
#     4  12  22  38  62  88 117 156 193 249 291 352
#     4  11  21  34  59  82 121 157 189 246 292 359
#     4  11  26  40  60  82 119 162 212 244 283 342
#     4  10  21  37  60  91 122 151 187 235 300 370
#     4  10  20  31  52  86 119 147 190 225 303 347
#     4  10  21  39  61  91 124 151 187 240 304 365
#
# _framework density 19.523434000000002
#
# number of rings (size 3 to 8) (size 9 to 14) (size 15 to 20)
#    0.000    1.500    2.500    2.625    5.250    1.000 
#    0.000    0.000    0.000    0.750    3.250    0.000 
#    0.000    0.000    0.000    0.000    0.000    0.000 
#
# Total GULP energy -178447.510678 kJ/mol
# GULP energy per Si atom -5576.484709 kJ/mol
# Density = 1.947900 g / cm^3
# Si number density = 19.523434 Si / 1000 Ang^3
#
#
#
# Elastic Constant Matrix: (Units=GPa)
#
#
# Indices 1 2 3 4 5 6 
#
# 1 86.0723 1.6178 19.5319 0.0000 -7.6647 0.0000
# 2 1.6178 66.8439 20.3040 0.0000 -3.4023 0.0000
# 3 19.5319 20.3040 113.1714 0.0000 -6.0056 0.0000
# 4 0.0000 0.0000 0.0000 21.9757 0.0000 -13.4801
# 5 -7.6647 -3.4023 -6.0056 0.0000 16.3667 0.0000
# 6 0.0000 0.0000 0.0000 -13.4801 0.0000 -14.4508
#
#
#
# Elastic Compliance Matrix: (Units=1/GPa)
#
#
# Indices 1 2 3 4 5 6 
#
# 1 0.012526 0.000567 -0.001985 0.000000 0.005256 0.000000
# 2 0.000567 0.015933 -0.002821 0.000000 0.002542 0.000000
# 3 -0.001985 -0.002821 0.009795 0.000000 0.002078 0.000000
# 4 0.000000 0.000000 0.000000 0.028943 0.000000 -0.026999
# 5 0.005256 0.002542 0.002078 0.000000 0.064852 0.000000
# 6 0.000000 0.000000 0.000000 -0.026999 0.000000 -0.044015
#
#
# Mechanical properties :
#
#
# Convention : Reuss Voigt Hill
#
# Bulk Modulus (GPa) = 33.58406 38.77723 36.18065
# Shear Modulus (GPa) = 46.97589 19.75393 33.36491
#
# Velocity S-wave (km/s) = 4.91055 3.18434 4.13845
# Velocity P-wave (km/s) = 7.02785 5.78144 6.43489
#
# Compressibility (1/GPa) = 0.02977603
#
# Stress axis : x y z
#
# Youngs Moduli (GPa) = 79.83480 62.76310 102.09118
#
# Poissons Ratio (x) = -0.03560 0.20262
# Poissons Ratio (y) = -0.04528 0.28805
# Poissons Ratio (z) = 0.15845 0.17709
#
# Static dielectric constant tensor:
#      x y z
#    x 1.740050 0.000000 0.004100 
#    y 0.000000 1.697530 0.000000 
#    z 0.004100 0.000000 1.777000 
# 
# From -- ./inp_files/286402.got.cif
#   From: 2010.05.17/outbox.cif.g08.bks.cpg/sg15_144_cif.got.tgz:286402.got - 2010.06.03 18:47:42.
