data_PCOD9268031
_publ_section_title
;
Structure prediction by ZEFSAII (Michael W. Deem and Ramdas Pophale) SiO2 
 PCOD9268031
Probable space group: C 2/C
;
_chemical_formula_sum "Si O2"
_cell_formula_units_Z 32
_cell_length_a 13.807250
_cell_length_b 9.588338
_cell_length_c 13.777843
_cell_angle_alpha 90.000000
_cell_angle_beta 48.778704
_cell_angle_gamma 90.000000
_cell_volume 1371.980002
_symmetry_space_group_name_H-M "C 2/C"
_symmetry_group_IT_number 15
_symmetry_cell_setting 'monoclinic'
loop_
_space_group_symop_operation_xyz
x,y,z
-x,y,1/2-z
-x,-y,-z
x,-y,1/2+z
1/2+x,1/2+y,z
1/2-x,1/2+y,1/2-z
1/2-x,1/2-y,-z
1/2+x,1/2-y,1/2+z
loop_
_atom_site_type_symbol
_atom_site_label
_atom_site_fract_x
_atom_site_fract_y
_atom_site_fract_z
Si Si1 0.645322 0.550933 0.907004
Si Si2 0.683406 0.899449 0.375133
Si Si3 0.136144 0.580946 0.122645
Si Si4 0.919506 0.331499 0.469725
O O1 0.688967 0.603842 0.772147
O O2 0.749861 0.439059 0.875754
O O3 0.644856 0.682741 0.979941
O O4 0.500000 0.500000 0.000000
O O5 0.570526 0.819681 0.393550
O O6 0.684009 0.857869 0.487667
O O7 0.637577 0.062239 0.411352
O O8 0.000000 0.642291 0.250000
O O9 0.100751 0.422196 0.112408
#
# Coordination Sequence:
#
# PCOD9268031 Si02
#       4
#     8   8   8   8
#     4  12  24  36  63  97 124 150 207 264 291 351
#     4   9  21  40  63  85 123 163 199 244 308 363
#     4  10  19  41  67  88 115 167 205 244 305 363
#     4   9  20  40  64  87 118 162 203 247 305 354
#
# _framework density 23.323955999999999
#
# number of rings (size 3 to 8) (size 9 to 14) (size 15 to 20)
#    1.500    0.500    2.500    0.750    3.500    1.000 
#    0.000    1.250    5.500    0.000    0.000    0.000 
#    0.000    0.000    0.000    0.000    0.000    0.000 
#
# Total GULP energy -89250.609583 kJ/mol
# GULP energy per Si atom -5578.163099 kJ/mol
# Density = 2.327087 g / cm^3
# Si number density = 23.323956 Si / 1000 Ang^3
#
#
#
# Elastic Constant Matrix: (Units=GPa)
#
#
# Indices 1 2 3 4 5 6 
#
# 1 126.8087 2.7796 53.6691 0.0000 -12.9217 0.0000
# 2 2.7796 51.5522 4.8094 0.0000 -5.3539 0.0000
# 3 53.6691 4.8094 170.4734 0.0000 -5.0095 0.0000
# 4 0.0000 0.0000 0.0000 -4.6665 0.0000 17.0269
# 5 -12.9217 -5.3539 -5.0095 0.0000 26.7146 0.0000
# 6 0.0000 0.0000 0.0000 17.0269 0.0000 13.4855
#
#
#
# Elastic Compliance Matrix: (Units=1/GPa)
#
#
# Indices 1 2 3 4 5 6 
#
# 1 0.009519 0.000181 -0.002882 0.000000 0.004100 0.000000
# 2 0.000181 0.019847 -0.000500 0.000000 0.003971 0.000000
# 3 -0.002882 -0.000500 0.006781 0.000000 -0.000223 0.000000
# 4 0.000000 0.000000 0.000000 -0.038219 0.000000 0.048256
# 5 0.004100 0.003971 -0.000223 0.000000 0.040170 0.000000
# 6 0.000000 0.000000 0.000000 0.048256 0.000000 0.013225
#
#
# Mechanical properties :
#
#
# Convention : Reuss Voigt Hill
#
# Bulk Modulus (GPa) = 33.61757 52.37227 42.99492
# Shear Modulus (GPa) = 73.92083 26.27846 50.09965
#
# Velocity S-wave (km/s) = 5.63577 3.36024 4.63967
# Velocity P-wave (km/s) = 7.53617 6.12845 6.86847
#
# Compressibility (1/GPa) = 0.02974635
#
# Stress axis : x y z
#
# Youngs Moduli (GPa) = 105.04975 50.38499 147.47594
#
# Poissons Ratio (x) = -0.00914 0.42496
# Poissons Ratio (y) = -0.01906 0.07379
# Poissons Ratio (z) = 0.30270 0.02521
#
# Static dielectric constant tensor:
#      x y z
#    x 1.896220 0.000000 -0.004720 
#    y 0.000000 1.978010 0.000000 
#    z -0.004720 0.000000 1.861980 
# 
# From -- ./inp_files/105107.got.cif
#   From: 2010.05.17/outbox.cif.g08.bks.cpg/sg15_53_cif.got.tgz:105107.got - 2010.06.03 18:47:42.
