data_PCOD9268489
_publ_section_title
;
Structure prediction by ZEFSAII (Michael W. Deem and Ramdas Pophale) SiO2 
 PCOD9268489
Probable space group: C 2/C
;
_chemical_formula_sum "Si O2"
_cell_formula_units_Z 48
_cell_length_a 10.856972
_cell_length_b 24.679146
_cell_length_c 9.236996
_cell_angle_alpha 90.000000
_cell_angle_beta 91.447515
_cell_angle_gamma 90.000000
_cell_volume 2474.178271
_symmetry_space_group_name_H-M "C 2/C"
_symmetry_group_IT_number 15
_symmetry_cell_setting 'monoclinic'
loop_
_space_group_symop_operation_xyz
x,y,z
-x,y,1/2-z
-x,-y,-z
x,-y,1/2+z
1/2+x,1/2+y,z
1/2-x,1/2+y,1/2-z
1/2-x,1/2-y,-z
1/2+x,1/2-y,1/2+z
loop_
_atom_site_type_symbol
_atom_site_label
_atom_site_fract_x
_atom_site_fract_y
_atom_site_fract_z
Si Si1 0.857154 0.468860 0.189685
Si Si2 0.941284 0.247016 0.006891
Si Si3 0.806933 0.821744 0.988602
Si Si4 0.526640 0.869007 0.420978
Si Si5 0.753511 0.753716 0.250909
Si Si6 0.715765 0.932244 0.009060
O O1 0.868389 0.415368 0.088307
O O2 0.777711 0.455682 0.328743
O O3 0.000000 0.478799 0.250000
O O4 0.802956 0.519337 0.102813
O O5 0.952118 0.312197 0.002336
O O6 0.862007 0.239775 0.150883
O O7 0.862301 0.231990 0.863712
O O8 0.065314 0.211936 0.013323
O O9 0.742126 0.803154 0.136918
O O10 0.816572 0.886146 0.981521
O O11 0.728360 0.797659 0.853152
O O12 0.500000 0.857388 0.250000
O O13 0.411597 0.898313 0.491002
#
# Coordination Sequence:
#
# PCOD9268489 Si02
#       6
#     8   8   8   8   8   8
#     4   9  18  33  51  78 112 149 194 244 291 338
#     4  11  21  36  58  88 119 150 191 233 289 359
#     4  11  21  36  55  84 120 154 187 237 294 352
#     4   9  16  30  53  80 114 147 178 237 301 347
#     4  10  22  36  55  84 117 154 190 230 293 351
#     4  10  20  32  52  77 110 149 191 239 289 334
#
# _framework density 19.400380999999999
#
# number of rings (size 3 to 8) (size 9 to 14) (size 15 to 20)
#    0.000    2.333    0.000    8.000    0.000    2.667 
#    0.000    0.000    0.000    0.000    0.000   37.333 
#    0.000    0.000    0.000    0.000    0.000    0.000 
#
# Total GULP energy -133838.252480 kJ/mol
# GULP energy per Si atom -5576.593853 kJ/mol
# Density = 1.935622 g / cm^3
# Si number density = 19.400381 Si / 1000 Ang^3
#
#
#
# Elastic Constant Matrix: (Units=GPa)
#
#
# Indices 1 2 3 4 5 6 
#
# 1 51.3699 31.9944 30.1618 0.0000 -5.7851 0.0000
# 2 31.9944 147.5176 51.4788 0.0000 -4.2247 0.0000
# 3 30.1618 51.4788 86.7246 0.0000 -6.5119 0.0000
# 4 0.0000 0.0000 0.0000 22.0266 0.0000 -3.1947
# 5 -5.7851 -4.2247 -6.5119 0.0000 14.2077 0.0000
# 6 0.0000 0.0000 0.0000 -3.1947 0.0000 22.8619
#
#
#
# Elastic Compliance Matrix: (Units=1/GPa)
#
#
# Indices 1 2 3 4 5 6 
#
# 1 0.026109 -0.003125 -0.006728 0.000000 0.006618 0.000000
# 2 -0.003125 0.008925 -0.004253 0.000000 -0.000568 0.000000
# 3 -0.006728 -0.004253 0.016669 0.000000 0.003635 0.000000
# 4 0.000000 0.000000 0.000000 0.046339 0.000000 0.006475
# 5 0.006618 -0.000568 0.003635 0.000000 0.074576 0.000000
# 6 0.000000 0.000000 0.000000 0.006475 0.000000 0.044646
#
#
# Mechanical properties :
#
#
# Convention : Reuss Voigt Hill
#
# Bulk Modulus (GPa) = 42.57433 56.98688 49.78060
# Shear Modulus (GPa) = 19.73897 23.28440 21.51169
#
# Velocity S-wave (km/s) = 3.19321 3.46815 3.33352
# Velocity P-wave (km/s) = 5.96559 6.74354 6.36646
#
# Compressibility (1/GPa) = 0.02348833
#
# Stress axis : x y z
#
# Youngs Moduli (GPa) = 38.30109 112.04911 59.99328
#
# Poissons Ratio (x) = 0.35017 0.40366
# Poissons Ratio (y) = 0.11970 0.25517
# Poissons Ratio (z) = 0.25771 0.47659
#
# Static dielectric constant tensor:
#      x y z
#    x 1.752120 0.000000 -0.013790 
#    y 0.000000 1.709520 0.000000 
#    z -0.013790 0.000000 1.683800 
# 
# From -- ./inp_files/32020.got.cif
#   From: 2010.05.17/outbox.cif.g08.bks.cpg/sg15_17_cif.got.tgz:32020.got - 2010.06.03 18:47:42.
