data_PCOD9268136
_publ_section_title
;
Structure prediction by ZEFSAII (Michael W. Deem and Ramdas Pophale) SiO2 
 PCOD9268136
Probable space group: C 2/C
;
_chemical_formula_sum "Si O2"
_cell_formula_units_Z 48
_cell_length_a 16.646900
_cell_length_b 10.822332
_cell_length_c 14.975792
_cell_angle_alpha 90.000000
_cell_angle_beta 55.156402
_cell_angle_gamma 90.000000
_cell_volume 2214.298851
_symmetry_space_group_name_H-M "C 2/C"
_symmetry_group_IT_number 15
_symmetry_cell_setting 'monoclinic'
loop_
_space_group_symop_operation_xyz
x,y,z
-x,y,1/2-z
-x,-y,-z
x,-y,1/2+z
1/2+x,1/2+y,z
1/2-x,1/2+y,1/2-z
1/2-x,1/2-y,-z
1/2+x,1/2-y,1/2+z
loop_
_atom_site_type_symbol
_atom_site_label
_atom_site_fract_x
_atom_site_fract_y
_atom_site_fract_z
Si Si1 0.951261 0.441362 0.443778
Si Si2 0.066070 0.784237 0.926254
Si Si3 0.755384 0.306794 0.592897
Si Si4 0.288616 0.711895 0.755510
Si Si5 0.585313 0.525059 0.268686
Si Si6 0.481841 0.813974 0.664901
O O1 0.840310 0.408717 0.534167
O O2 0.966014 0.552698 0.366555
O O3 0.000000 0.500000 0.500000
O O4 0.009286 0.313132 0.397545
O O5 0.180227 0.742956 0.859078
O O6 0.054656 0.915716 0.884156
O O7 0.021485 0.764696 0.054357
O O8 0.750000 0.250000 0.500000
O O9 0.780834 0.207689 0.653190
O O10 0.655158 0.369743 0.683903
O O11 0.344595 0.593068 0.758438
O O12 0.365054 0.823163 0.725971
O O13 0.500000 0.506679 0.250000
O O14 0.500000 0.756796 0.750000
#
# Coordination Sequence:
#
# PCOD9268136 Si02
#       6
#     8   8   8   8   8   8
#     4  10  19  42  68  89 128 174 224 278 330 394
#     4  10  23  42  69  96 136 174 231 280 339 405
#     4  11  23  44  71 102 133 182 238 278 338 408
#     4  11  24  43  67  98 141 175 222 285 345 401
#     4  11  24  42  68 102 141 178 224 281 346 409
#     4  11  24  42  67  96 135 183 228 284 340 408
#
# _framework density 21.677291
#
# number of rings (size 3 to 8) (size 9 to 14) (size 15 to 20)
#    0.000    1.333    3.333    3.500    2.333    4.667 
#    3.000    0.000    0.000    0.000    0.000    0.000 
#    0.000    0.000    0.000    0.000    0.000    0.000 
#
# Total GULP energy -133922.598803 kJ/mol
# GULP energy per Si atom -5580.108283 kJ/mol
# Density = 2.162795 g / cm^3
# Si number density = 21.677291 Si / 1000 Ang^3
#
#
#
# Elastic Constant Matrix: (Units=GPa)
#
#
# Indices 1 2 3 4 5 6 
#
# 1 128.0130 23.8105 56.7734 0.0000 8.9613 0.0000
# 2 23.8105 65.9497 21.4068 0.0000 8.6000 0.0000
# 3 56.7734 21.4068 124.1294 0.0000 7.9038 0.0000
# 4 0.0000 0.0000 0.0000 21.4690 0.0000 -9.9516
# 5 8.9613 8.6000 7.9038 0.0000 41.8691 0.0000
# 6 0.0000 0.0000 0.0000 -9.9516 0.0000 24.1964
#
#
#
# Elastic Compliance Matrix: (Units=1/GPa)
#
#
# Indices 1 2 3 4 5 6 
#
# 1 0.010147 -0.002177 -0.004206 0.000000 -0.000931 0.000000
# 2 -0.002177 0.016863 -0.001742 0.000000 -0.002669 0.000000
# 3 -0.004206 -0.001742 0.010324 0.000000 -0.000691 0.000000
# 4 0.000000 0.000000 0.000000 0.057551 0.000000 0.023670
# 5 -0.000931 -0.002669 -0.000691 0.000000 0.024762 0.000000
# 6 0.000000 0.000000 0.000000 0.023670 0.000000 0.051063
#
#
# Mechanical properties :
#
#
# Convention : Reuss Voigt Hill
#
# Bulk Modulus (GPa) = 47.43185 58.00817 52.72001
# Shear Modulus (GPa) = 25.77461 31.91363 28.84412
#
# Velocity S-wave (km/s) = 3.45195 3.84111 3.65172
# Velocity P-wave (km/s) = 6.14950 6.81837 6.49255
#
# Compressibility (1/GPa) = 0.02108288
#
# Stress axis : x y z
#
# Youngs Moduli (GPa) = 98.54844 59.30275 96.85703
#
# Poissons Ratio (x) = 0.12909 0.40742
# Poissons Ratio (y) = 0.21453 0.16877
# Poissons Ratio (z) = 0.41454 0.10333
#
# Static dielectric constant tensor:
#      x y z
#    x 1.781600 0.000000 0.014020 
#    y 0.000000 1.896680 0.000000 
#    z 0.014020 0.000000 1.831480 
# 
# From -- ./inp_files/152453.got.cif
#   From: 2010.05.17/outbox.cif.g08.bks.cpg/sg15_77_cif.got.tgz:152453.got - 2010.06.03 18:47:42.
