data_PCOD9268509
_publ_section_title
;
Structure prediction by ZEFSAII (Michael W. Deem and Ramdas Pophale) SiO2 
 PCOD9268509
Probable space group: C 2/C
;
_chemical_formula_sum "Si O2"
_cell_formula_units_Z 60
_cell_length_a 23.006580
_cell_length_b 19.326881
_cell_length_c 23.083306
_cell_angle_alpha 90.000000
_cell_angle_beta 161.374400
_cell_angle_gamma 90.000000
_cell_volume 3278.108275
_symmetry_space_group_name_H-M "C 2/C"
_symmetry_group_IT_number 15
_symmetry_cell_setting 'monoclinic'
loop_
_space_group_symop_operation_xyz
x,y,z
-x,y,1/2-z
-x,-y,-z
x,-y,1/2+z
1/2+x,1/2+y,z
1/2-x,1/2+y,1/2-z
1/2-x,1/2-y,-z
1/2+x,1/2-y,1/2+z
loop_
_atom_site_type_symbol
_atom_site_label
_atom_site_fract_x
_atom_site_fract_y
_atom_site_fract_z
Si Si1 0.558495 0.044406 0.977501
Si Si2 0.200066 0.031562 0.700513
Si Si3 0.139926 0.668526 0.134432
Si Si4 0.116100 0.520585 0.415215
Si Si5 0.541554 0.307699 0.187900
Si Si6 0.464955 0.843381 0.594788
Si Si7 0.527767 0.675788 0.543581
Si Si8 0.000000 0.909951 0.250000
O O1 0.353214 0.017802 0.796444
O O2 0.608632 0.036808 0.958251
O O3 0.568694 0.120013 0.016150
O O4 0.703487 0.998299 0.150873
O O5 0.168875 0.113531 0.675527
O O6 0.000000 0.000000 0.500000
O O7 0.354748 0.656934 0.342104
O O8 0.104171 0.750368 0.096039
O O9 0.055452 0.649025 0.117255
O O10 0.021089 0.588492 0.353724
O O11 0.322095 0.544213 0.595159
O O12 0.000000 0.500004 0.250000
O O13 0.533804 0.225770 0.192258
O O14 0.751599 0.329538 0.382904
O O15 0.462622 0.316423 0.048789
O O16 0.457330 0.358070 0.156085
#
# Coordination Sequence:
#
# PCOD9268509 Si02
#       8
#     8   8   8   8   8   8   8   4
#     4  11  23  41  59  89 125 160 209 251 301 373
#     4  11  21  37  62  94 125 160 193 246 317 369
#     4  11  21  37  60  88 126 157 195 252 302 379
#     4  11  26  39  58  79 113 162 209 257 298 347
#     4  10  20  32  53  78 117 159 197 245 281 356
#     4  10  20  34  52  83 115 156 202 242 301 354
#     4  11  21  35  59  94 123 159 195 241 315 370
#     4  10  24  40  54  78 118 160 218 250 282 352
#
# _framework density 18.303239999999999
#
# number of rings (size 3 to 8) (size 9 to 14) (size 15 to 20)
#    0.000    1.333    1.333    8.000    4.667    2.133 
#    0.000    0.000    0.000    0.000    0.000    3.733 
#    0.000    0.000    0.000    0.000    0.000    0.000 
#
# Total GULP energy -167605.416313 kJ/mol
# GULP energy per Si atom -5586.847210 kJ/mol
# Density = 1.826158 g / cm^3
# Si number density = 18.303240 Si / 1000 Ang^3
#
#
#
# Elastic Constant Matrix: (Units=GPa)
#
#
# Indices 1 2 3 4 5 6 
#
# 1 97.4032 53.2736 37.4573 0.0059 -3.8061 -0.0007
# 2 53.2736 100.3447 37.9528 -0.0022 1.0540 0.0075
# 3 37.4573 37.9528 81.5998 0.0085 2.0588 0.0016
# 4 0.0059 -0.0022 0.0085 22.0185 0.0076 1.0922
# 5 -3.8061 1.0540 2.0588 0.0076 20.4932 -0.0031
# 6 -0.0007 0.0075 0.0016 1.0922 -0.0031 32.0957
#
#
#
# Elastic Compliance Matrix: (Units=1/GPa)
#
#
# Indices 1 2 3 4 5 6 
#
# 1 0.015738 -0.006828 -0.004142 -0.000005 0.003690 0.000003
# 2 -0.006828 0.015055 -0.003826 0.000006 -0.001658 -0.000004
# 3 -0.004142 -0.003826 0.015991 -0.000005 -0.002179 0.000000
# 4 -0.000005 0.000006 -0.000005 0.045493 -0.000018 -0.001548
# 5 0.003690 -0.001658 -0.002179 -0.000018 0.049786 0.000006
# 6 0.000003 -0.000004 0.000000 -0.001548 0.000006 0.031210
#
#
# Mechanical properties :
#
#
# Convention : Reuss Voigt Hill
#
# Bulk Modulus (GPa) = 58.16532 59.63500 58.90016
# Shear Modulus (GPa) = 23.96992 24.96573 24.46783
#
# Velocity S-wave (km/s) = 3.62277 3.69725 3.66020
# Velocity P-wave (km/s) = 7.02474 7.13293 7.07904
#
# Compressibility (1/GPa) = 0.01719237
#
# Stress axis : x y z
#
# Youngs Moduli (GPa) = 63.54119 66.42288 62.53599
#
# Poissons Ratio (x) = 0.45351 0.25901
# Poissons Ratio (y) = 0.43383 0.23928
# Poissons Ratio (z) = 0.26317 0.25415
#
# Static dielectric constant tensor:
#      x y z
#    x 1.626620 0.000000 0.004550 
#    y 0.000000 1.675070 -0.000020 
#    z 0.004550 -0.000020 1.661310 
# 
# From -- ./inp_files/253533.got.cif
#   From: 2010.05.17/outbox.cif.g08.bks.cpg/sg15_127_cif.got.tgz:253533.got - 2010.06.03 18:47:42.
