data_PCOD9268230
_publ_section_title
;
Structure prediction by ZEFSAII (Michael W. Deem and Ramdas Pophale) SiO2 
 PCOD9268230
Probable space group: C 2/C
;
_chemical_formula_sum "Si O2"
_cell_formula_units_Z 36
_cell_length_a 27.008452
_cell_length_b 8.672628
_cell_length_c 22.661735
_cell_angle_alpha 90.000000
_cell_angle_beta 15.383821
_cell_angle_gamma 90.000000
_cell_volume 1408.167804
_symmetry_space_group_name_H-M "C 2/C"
_symmetry_group_IT_number 15
_symmetry_cell_setting 'monoclinic'
loop_
_space_group_symop_operation_xyz
x,y,z
-x,y,1/2-z
-x,-y,-z
x,-y,1/2+z
1/2+x,1/2+y,z
1/2-x,1/2+y,1/2-z
1/2-x,1/2-y,-z
1/2+x,1/2-y,1/2+z
loop_
_atom_site_type_symbol
_atom_site_label
_atom_site_fract_x
_atom_site_fract_y
_atom_site_fract_z
Si Si1 0.500000 0.503761 0.250000
Si Si2 0.922221 0.201943 0.222894
Si Si3 0.248333 0.465261 0.347874
Si Si4 0.142525 0.565686 0.217571
Si Si5 0.161482 0.027503 0.388298
O O1 0.450131 0.616698 0.252961
O O2 0.323461 0.399927 0.470726
O O3 0.750546 0.109633 0.389790
O O4 0.883494 0.380777 0.263365
O O5 0.095754 0.144902 0.982907
O O6 0.254901 0.520117 0.272473
O O7 0.057732 0.372317 0.572629
O O8 0.454512 0.394779 0.122836
O O9 0.201098 0.584055 0.218761
#
# Coordination Sequence:
#
# PCOD9268230 Si02
#       5
#     4   8   8   8   8
#     4  10  20  28  38  64  94 118 158 166 188 258
#     4   9  18  30  42  63  90 119 151 173 204 250
#     4   9  17  30  45  54  81 118 144 186 219 232
#     4  11  18  29  43  62  88 121 145 173 206 248
#     4   8  18  30  41  62  77 110 157 178 212 255
#
# _framework density 25.565135000000001
#
# number of rings (size 3 to 8) (size 9 to 14) (size 15 to 20)
#    1.333    1.333    0.000    4.000    0.000    0.889 
#    0.000    0.000    0.000    0.000    0.000    0.000 
#    0.000    0.000    0.000  452.000    0.000    0.000 
#
# Total GULP energy -100493.664637 kJ/mol
# GULP energy per Si atom -5582.981369 kJ/mol
# Density = 2.550695 g / cm^3
# Si number density = 25.565135 Si / 1000 Ang^3
#
#
#
# Elastic Constant Matrix: (Units=GPa)
#
#
# Indices 1 2 3 4 5 6 
#
# 1 148.5025 17.7014 45.0177 -0.0033 -4.5591 0.0015
# 2 17.7014 63.9577 15.5625 -0.0021 -6.3516 0.0020
# 3 45.0177 15.5625 147.1306 -0.0054 -24.0569 0.0030
# 4 -0.0033 -0.0021 -0.0054 13.2238 0.0030 -16.6869
# 5 -4.5591 -6.3516 -24.0569 0.0030 35.8304 -0.0017
# 6 0.0015 0.0020 0.0030 -16.6869 -0.0017 20.4520
#
#
#
# Elastic Compliance Matrix: (Units=1/GPa)
#
#
# Indices 1 2 3 4 5 6 
#
# 1 0.007597 -0.001630 -0.002293 -0.000024 -0.000862 -0.000020
# 2 -0.001630 0.016516 -0.000902 0.000003 0.002114 0.000001
# 3 -0.002293 -0.000902 0.008447 -0.000028 0.005220 -0.000023
# 4 -0.000024 0.000003 -0.000028 -2.556827 0.000096 -2.086123
# 5 -0.000862 0.002114 0.005220 0.000096 0.031679 0.000080
# 6 -0.000020 0.000001 -0.000023 -2.086123 0.000080 -1.653179
#
#
# Mechanical properties :
#
#
# Convention : Reuss Voigt Hill
#
# Bulk Modulus (GPa) = 43.65096 57.35044 50.50070
# Shear Modulus (GPa) = -1.21110 32.65518 15.72204
#
# Velocity S-wave (km/s) = -0.68903 3.57786 2.48257
# Velocity P-wave (km/s) = 4.05937 6.28887 5.29284
#
# Compressibility (1/GPa) = 0.02290900
#
# Stress axis : x y z
#
# Youngs Moduli (GPa) = 131.63373 60.54696 118.38280
#
# Poissons Ratio (x) = 0.09871 0.27144
# Poissons Ratio (y) = 0.21459 0.10683
# Poissons Ratio (z) = 0.30182 0.05464
#
# Static dielectric constant tensor:
#      x y z
#    x 1.955590 0.000000 -0.055470 
#    y 0.000000 2.049600 0.000000 
#    z -0.055470 0.000000 2.136690 
# 
# From -- ./inp_files/39833.got.cif
#   From: 2010.05.17/outbox.cif.g08.bks.cpg/sg15_20_cif.got.tgz:39833.got - 2010.06.03 18:47:42.
