data_PCOD9268987
_publ_section_title
;
Structure prediction by ZEFSAII (Michael W. Deem and Ramdas Pophale) SiO2 
 PCOD9268987
Probable space group: C 2/C
;
_chemical_formula_sum "Si O2"
_cell_formula_units_Z 56
_cell_length_a 10.496057
_cell_length_b 26.787969
_cell_length_c 10.838597
_cell_angle_alpha 90.000000
_cell_angle_beta 112.880957
_cell_angle_gamma 90.000000
_cell_volume 2807.676264
_symmetry_space_group_name_H-M "C 2/C"
_symmetry_group_IT_number 15
_symmetry_cell_setting 'monoclinic'
loop_
_space_group_symop_operation_xyz
x,y,z
-x,y,1/2-z
-x,-y,-z
x,-y,1/2+z
1/2+x,1/2+y,z
1/2-x,1/2+y,1/2-z
1/2-x,1/2-y,-z
1/2+x,1/2-y,1/2+z
loop_
_atom_site_type_symbol
_atom_site_label
_atom_site_fract_x
_atom_site_fract_y
_atom_site_fract_z
Si Si1 0.113526 0.866440 0.188356
Si Si2 0.428917 0.423488 0.942885
Si Si3 0.757358 0.018814 0.210002
Si Si4 0.727041 0.308676 0.996694
Si Si5 0.203079 0.582258 0.550434
Si Si6 0.000000 0.526227 0.750000
Si Si7 0.500000 0.649775 0.250000
Si Si8 0.102825 0.597209 0.005063
O O1 0.245233 0.883894 0.316317
O O2 0.000000 0.851001 0.250000
O O3 0.156687 0.826884 0.099632
O O4 0.047710 0.914185 0.090178
O O5 0.388358 0.472943 0.849604
O O6 0.465052 0.384189 0.852505
O O7 0.289394 0.407628 0.960875
O O8 0.726500 0.069970 0.125057
O O9 0.752304 0.973401 0.110681
O O10 0.621655 0.006610 0.239226
O O11 0.626773 0.318079 0.843701
O O12 0.853415 0.347598 0.020507
O O13 0.750000 0.250000 0.000000
O O14 0.040829 0.591434 0.474639
O O15 0.929544 0.562025 0.623619
#
# Coordination Sequence:
#
# PCOD9268987 Si02
#       8
#     8   8   8   8   8   4   4   8
#     4   9  21  41  60  83 120 160 199 249 297 356
#     4  10  20  39  57  79 124 162 196 242 297 359
#     4  11  19  33  55  87 120 161 196 240 302 360
#     4  11  23  41  66  89 115 157 205 253 312 356
#     4  10  21  36  59  91 120 161 201 244 301 358
#     4  10  20  33  58  88 126 158 195 246 300 366
#     4  10  22  43  58  84 116 156 193 256 304 356
#     4  11  21  36  57  88 121 151 199 254 299 354
#
# _framework density 19.945319000000001
#
# number of rings (size 3 to 8) (size 9 to 14) (size 15 to 20)
#    0.000    1.714    1.429    5.143    0.000    2.286 
#    3.857    1.429    0.000    5.143    0.000    0.000 
#    0.000    0.000    0.000    0.000    0.000    0.000 
#
# Total GULP energy -156187.224693 kJ/mol
# GULP energy per Si atom -5578.115168 kJ/mol
# Density = 1.989992 g / cm^3
# Si number density = 19.945319 Si / 1000 Ang^3
#
#
#
# Elastic Constant Matrix: (Units=GPa)
#
#
# Indices 1 2 3 4 5 6 
#
# 1 57.4036 33.7255 13.9764 0.0000 -13.1270 0.0000
# 2 33.7255 118.4325 10.8137 0.0000 -5.5265 0.0000
# 3 13.9764 10.8137 53.5743 0.0000 -0.8859 0.0000
# 4 0.0000 0.0000 0.0000 -59.4218 0.0000 1.8833
# 5 -13.1270 -5.5265 -0.8859 0.0000 33.6278 0.0000
# 6 0.0000 0.0000 0.0000 1.8833 0.0000 17.7971
#
#
#
# Elastic Compliance Matrix: (Units=1/GPa)
#
#
# Indices 1 2 3 4 5 6 
#
# 1 0.024041 -0.006011 -0.004922 0.000000 0.008267 0.000000
# 2 -0.006011 0.010168 -0.000496 0.000000 -0.000688 0.000000
# 3 -0.004922 -0.000496 0.020025 0.000000 -0.001475 0.000000
# 4 0.000000 0.000000 0.000000 -0.016773 0.000000 0.001775
# 5 0.008267 -0.000688 -0.001475 0.000000 0.032812 0.000000
# 6 0.000000 0.000000 0.000000 0.001775 0.000000 0.056001
#
#
# Mechanical properties :
#
#
# Convention : Reuss Voigt Hill
#
# Bulk Modulus (GPa) = 31.86959 38.49353 35.18156
# Shear Modulus (GPa) = 31.32994 9.79360 20.56177
#
# Velocity S-wave (km/s) = 3.96762 2.21831 3.21426
# Velocity P-wave (km/s) = 6.08297 5.08946 5.60826
#
# Compressibility (1/GPa) = 0.03137787
#
# Stress axis : x y z
#
# Youngs Moduli (GPa) = 41.59589 98.34337 49.93674
#
# Poissons Ratio (x) = 0.59113 0.24578
# Poissons Ratio (y) = 0.25003 0.02475
# Poissons Ratio (z) = 0.20473 0.04875
#
# Static dielectric constant tensor:
#      x y z
#    x 1.745370 0.000000 0.033220 
#    y 0.000000 1.682280 0.000000 
#    z 0.033220 0.000000 1.797160 
# 
# From -- ./inp_files/90935.got.cif
#   From: 2010.05.17/outbox.cif.g08.bks.cpg/sg15_46_cif.got.tgz:90935.got - 2010.06.03 18:47:42.
