data_PCOD9268547
_publ_section_title
;
Structure prediction by ZEFSAII (Michael W. Deem and Ramdas Pophale) SiO2 
 PCOD9268547
Probable space group: C 2/C
;
_chemical_formula_sum "Si O2"
_cell_formula_units_Z 56
_cell_length_a 13.445434
_cell_length_b 22.356901
_cell_length_c 8.438348
_cell_angle_alpha 90.000000
_cell_angle_beta 90.509574
_cell_angle_gamma 90.000000
_cell_volume 2536.452212
_symmetry_space_group_name_H-M "C 2/C"
_symmetry_group_IT_number 15
_symmetry_cell_setting 'monoclinic'
loop_
_space_group_symop_operation_xyz
x,y,z
-x,y,1/2-z
-x,-y,-z
x,-y,1/2+z
1/2+x,1/2+y,z
1/2-x,1/2+y,1/2-z
1/2-x,1/2-y,-z
1/2+x,1/2-y,1/2+z
loop_
_atom_site_type_symbol
_atom_site_label
_atom_site_fract_x
_atom_site_fract_y
_atom_site_fract_z
Si Si1 0.684889 0.558558 0.165001
Si Si2 0.636258 0.088001 0.867674
Si Si3 0.500000 0.483391 0.250000
Si Si4 0.102792 0.839788 0.847708
Si Si5 0.000000 0.228241 0.750000
Si Si6 0.133079 0.880133 0.191948
Si Si7 0.443820 0.215820 0.579343
Si Si8 0.823368 0.482491 0.403591
O O1 0.574461 0.527785 0.154438
O O2 0.675684 0.624249 0.236327
O O3 0.750193 0.519608 0.287922
O O4 0.751586 0.556558 0.012008
O O5 0.752014 0.105769 0.833956
O O6 0.593395 0.148672 0.935795
O O7 0.606134 0.060674 0.696674
O O8 0.626594 0.033335 0.989088
O O9 0.582544 0.432764 0.293104
O O10 0.131164 0.772171 0.894939
O O11 0.000000 0.837391 0.750000
O O12 0.091752 0.877679 0.009539
O O13 0.095228 0.183134 0.758846
O O14 0.003745 0.264803 0.585198
O O15 0.500000 0.214213 0.750000
#
# Coordination Sequence:
#
# PCOD9268547 Si02
#       8
#     8   8   4   8   4   8   8   8
#     4  11  19  31  51  87 129 169 199 239 302 373
#     4  11  22  44  64  89 131 160 207 266 329 375
#     4  11  18  28  54  82 134 167 200 234 306 375
#     4  10  20  32  54  86 126 164 207 249 300 371
#     4   9  22  42  66  96 132 167 224 248 310 385
#     4  10  20  35  57  95 130 174 205 253 301 385
#     4  10  24  47  67  91 124 166 218 280 318 373
#     4  10  22  37  55  90 124 163 207 257 309 380
#
# _framework density 22.078082999999999
#
# number of rings (size 3 to 8) (size 9 to 14) (size 15 to 20)
#    0.000    1.714    5.000    0.000    2.000    5.714 
#    5.143    2.143    0.000    0.000    0.000    0.000 
#    0.000    0.000    0.000    0.000    0.000    0.000 
#
# Total GULP energy -155911.341395 kJ/mol
# GULP energy per Si atom -5568.262193 kJ/mol
# Density = 2.202783 g / cm^3
# Si number density = 22.078083 Si / 1000 Ang^3
#
#
#
# Elastic Constant Matrix: (Units=GPa)
#
#
# Indices 1 2 3 4 5 6 
#
# 1 21.5605 15.1491 25.0994 0.0000 -11.3242 0.0000
# 2 15.1491 149.8207 67.5824 0.0000 -18.6404 0.0000
# 3 25.0994 67.5824 144.8089 0.0000 -7.6247 0.0000
# 4 0.0000 0.0000 0.0000 62.6345 0.0000 -8.1971
# 5 -11.3242 -18.6404 -7.6247 0.0000 18.9081 0.0000
# 6 0.0000 0.0000 0.0000 -8.1971 0.0000 21.1982
#
#
#
# Elastic Compliance Matrix: (Units=1/GPa)
#
#
# Indices 1 2 3 4 5 6 
#
# 1 0.086252 0.003838 -0.014122 0.000000 0.049746 0.000000
# 2 0.003838 0.009606 -0.004627 0.000000 0.009903 0.000000
# 3 -0.014122 -0.004627 0.011062 0.000000 -0.008558 0.000000
# 4 0.000000 0.000000 0.000000 0.016817 0.000000 0.006503
# 5 0.049746 0.009903 -0.008558 0.000000 0.088992 0.000000
# 6 0.000000 0.000000 0.000000 0.006503 0.000000 0.049688
#
#
# Mechanical properties :
#
#
# Convention : Reuss Voigt Hill
#
# Bulk Modulus (GPa) = 12.97039 59.09468 36.03253
# Shear Modulus (GPa) = 15.72637 34.43878 25.08258
#
# Velocity S-wave (km/s) = 2.67180 3.95379 3.37424
# Velocity P-wave (km/s) = 3.92499 6.90418 5.61575
#
# Compressibility (1/GPa) = 0.07709870
#
# Stress axis : x y z
#
# Youngs Moduli (GPa) = 11.59393 104.10457 90.39878
#
# Poissons Ratio (x) = -0.39956 1.27660
# Poissons Ratio (y) = -0.04450 0.41826
# Poissons Ratio (z) = 0.16373 0.48168
#
# Static dielectric constant tensor:
#      x y z
#    x 1.862110 0.000000 0.045470 
#    y 0.000000 1.845610 0.000000 
#    z 0.045470 0.000000 1.854660 
# 
# From -- ./inp_files/42138.got.cif
#   From: 2010.05.17/outbox.cif.g08.bks.cpg/sg15_22_cif.got.tgz:42138.got - 2010.06.03 18:47:42.
