data_PCOD9268016
_publ_section_title
;
Structure prediction by ZEFSAII (Michael W. Deem and Ramdas Pophale) SiO2 
 PCOD9268016
Probable space group: C 2/C
;
_chemical_formula_sum "Si O2"
_cell_formula_units_Z 52
_cell_length_a 16.560155
_cell_length_b 12.816931
_cell_length_c 10.645876
_cell_angle_alpha 90.000000
_cell_angle_beta 63.423739
_cell_angle_gamma 90.000000
_cell_volume 2020.841936
_symmetry_space_group_name_H-M "C 2/C"
_symmetry_group_IT_number 15
_symmetry_cell_setting 'monoclinic'
loop_
_space_group_symop_operation_xyz
x,y,z
-x,y,1/2-z
-x,-y,-z
x,-y,1/2+z
1/2+x,1/2+y,z
1/2-x,1/2+y,1/2-z
1/2-x,1/2-y,-z
1/2+x,1/2-y,1/2+z
loop_
_atom_site_type_symbol
_atom_site_label
_atom_site_fract_x
_atom_site_fract_y
_atom_site_fract_z
Si Si1 0.572156 0.374452 0.597826
Si Si2 0.156534 0.236573 0.493782
Si Si3 0.762401 0.045342 0.648556
Si Si4 0.074657 0.329227 0.954208
Si Si5 0.713699 0.716551 0.190467
Si Si6 0.839197 0.474437 0.026288
Si Si7 0.500000 0.754573 0.750000
O O1 0.500000 0.417252 0.750000
O O2 0.629784 0.441203 0.454765
O O3 0.531730 0.269332 0.558968
O O4 0.654990 0.334529 0.625094
O O5 0.250000 0.250000 0.500000
O O6 0.174895 0.182366 0.351015
O O7 0.126253 0.356047 0.488653
O O8 0.079463 0.187776 0.632335
O O9 0.713225 0.158745 0.677751
O O10 0.732312 0.010473 0.809070
O O11 0.713838 0.985140 0.568196
O O12 0.180992 0.305023 0.886005
O O13 0.078665 0.443189 0.014847
O O14 0.047861 0.320361 0.827028
#
# Coordination Sequence:
#
# PCOD9268016 Si02
#       7
#     8   8   8   8   8   8   4
#     4  11  21  39  66  97 132 172 233 280 336 416
#     4  11  24  41  64  95 136 179 220 279 351 409
#     4  10  21  38  66  94 126 176 220 277 341 408
#     4  11  21  40  66  96 129 178 223 277 344 400
#     4  10  19  41  66  91 125 172 231 272 335 404
#     4  11  22  41  68  95 133 175 229 281 344 412
#     4  12  24  40  64  98 138 176 224 280 340 418
#
# _framework density 25.731850999999999
#
# number of rings (size 3 to 8) (size 9 to 14) (size 15 to 20)
#    0.000    1.231    4.615    2.769    0.000    0.615 
#    1.385    0.769    1.692    0.000    0.000    0.000 
#    0.000    0.000    0.000    0.000    0.000    0.000 
#
# Total GULP energy -145393.272946 kJ/mol
# GULP energy per Si atom -5592.048959 kJ/mol
# Density = 2.567328 g / cm^3
# Si number density = 25.731851 Si / 1000 Ang^3
#
#
#
# Elastic Constant Matrix: (Units=GPa)
#
#
# Indices 1 2 3 4 5 6 
#
# 1 90.8098 -17.1981 27.8182 0.0000 15.1406 0.0000
# 2 -17.1981 48.4218 -6.8439 0.0000 9.7855 0.0000
# 3 27.8182 -6.8439 172.9687 0.0000 -11.8221 0.0000
# 4 0.0000 0.0000 0.0000 30.8833 0.0000 2.1925
# 5 15.1406 9.7855 -11.8221 0.0000 56.5573 0.0000
# 6 0.0000 0.0000 0.0000 2.1925 0.0000 19.4805
#
#
#
# Elastic Compliance Matrix: (Units=1/GPa)
#
#
# Indices 1 2 3 4 5 6 
#
# 1 0.013620 0.005538 -0.002319 0.000000 -0.005089 0.000000
# 2 0.005538 0.023714 -0.000339 0.000000 -0.005656 0.000000
# 3 -0.002319 -0.000339 0.006277 0.000000 0.001992 0.000000
# 4 0.000000 0.000000 0.000000 0.032641 0.000000 -0.003674
# 5 -0.005089 -0.005656 0.001992 0.000000 0.020439 0.000000
# 6 0.000000 0.000000 0.000000 -0.003674 0.000000 0.051747
#
#
# Mechanical properties :
#
#
# Convention : Reuss Voigt Hill
#
# Bulk Modulus (GPa) = 20.25495 35.52810 27.89152
# Shear Modulus (GPa) = 31.42003 41.94582 36.68293
#
# Velocity S-wave (km/s) = 3.49815 4.04185 3.77979
# Velocity P-wave (km/s) = 4.91983 5.96817 5.46918
#
# Compressibility (1/GPa) = 0.04937064
#
# Stress axis : x y z
#
# Youngs Moduli (GPa) = 73.42262 42.16921 159.30958
#
# Poissons Ratio (x) = -0.23353 0.36946
# Poissons Ratio (y) = -0.40662 0.05400
# Poissons Ratio (z) = 0.17028 0.01429
#
# Static dielectric constant tensor:
#      x y z
#    x 2.007810 0.000000 -0.049230 
#    y 0.000000 2.169360 0.000000 
#    z -0.049230 0.000000 2.107670 
# 
# From -- ./inp_files/105223.got.cif
#   From: 2010.05.17/outbox.cif.g08.bks.cpg/sg15_53_cif.got.tgz:105223.got - 2010.06.03 18:47:42.
