data_PCOD9268822
_publ_section_title
;
Structure prediction by ZEFSAII (Michael W. Deem and Ramdas Pophale) SiO2 
 PCOD9268822
Probable space group: C 2/C
;
_chemical_formula_sum "Si O2"
_cell_formula_units_Z 56
_cell_length_a 9.446027
_cell_length_b 31.383587
_cell_length_c 19.623704
_cell_angle_alpha 90.000000
_cell_angle_beta 150.257212
_cell_angle_gamma 90.000000
_cell_volume 2886.079511
_symmetry_space_group_name_H-M "C 2/C"
_symmetry_group_IT_number 15
_symmetry_cell_setting 'monoclinic'
loop_
_space_group_symop_operation_xyz
x,y,z
-x,y,1/2-z
-x,-y,-z
x,-y,1/2+z
1/2+x,1/2+y,z
1/2-x,1/2+y,1/2-z
1/2-x,1/2-y,-z
1/2+x,1/2-y,1/2+z
loop_
_atom_site_type_symbol
_atom_site_label
_atom_site_fract_x
_atom_site_fract_y
_atom_site_fract_z
Si Si1 0.791153 0.635071 0.020048
Si Si2 0.175553 0.305311 0.090230
Si Si3 0.793854 0.100466 0.880766
Si Si4 0.892654 0.912016 0.782775
Si Si5 0.799203 0.787930 0.910631
Si Si6 0.230773 0.160550 0.507382
Si Si7 0.838820 0.035549 0.387133
O O1 0.744135 0.674334 0.053099
O O2 0.062790 0.604764 0.149327
O O3 0.863111 0.657035 0.979363
O O4 0.476431 0.613253 0.890825
O O5 0.500000 0.305910 0.250000
O O6 0.105315 0.259290 0.027045
O O7 0.980175 0.315582 0.072880
O O8 0.500000 0.074120 0.750000
O O9 0.684375 0.137249 0.886492
O O10 0.045886 0.078172 0.028508
O O11 0.915839 0.954415 0.840128
O O12 0.000000 0.918469 0.750000
O O13 0.084687 0.874575 0.897108
O O14 0.500000 0.781808 0.750000
O O15 0.005323 0.804998 0.938251
O O16 0.500000 0.030578 0.250000
O O17 0.000000 0.000000 0.500000
#
# Coordination Sequence:
#
# PCOD9268822 Si02
#       7
#     8   8   8   8   8   8   8
#     4  11  20  36  60  83 118 161 218 252 311 370
#     4  11  22  34  49  81 124 163 206 270 324 357
#     4  10  21  37  62  90 118 159 207 252 304 371
#     4  11  21  39  66  94 119 166 209 260 310 380
#     4  10  20  33  53  80 116 162 215 269 316 363
#     4  10  20  34  57  80 116 158 216 260 308 370
#     4  11  23  42  70 100 128 159 202 251 311 388
#
# _framework density 19.403486000000001
#
# number of rings (size 3 to 8) (size 9 to 14) (size 15 to 20)
#    0.000    1.429    4.286    2.143    0.000    0.000 
#    0.000    0.714    3.143    0.000    0.000    0.000 
#    0.000    0.000    0.000    0.000    0.000    0.000 
#
# Total GULP energy -155902.159301 kJ/mol
# GULP energy per Si atom -5567.934261 kJ/mol
# Density = 1.935932 g / cm^3
# Si number density = 19.403486 Si / 1000 Ang^3
#
#
#
# Elastic Constant Matrix: (Units=GPa)
#
#
# Indices 1 2 3 4 5 6 
#
# 1 133.9456 34.0113 40.3908 0.0000 21.8517 0.0000
# 2 34.0113 55.3553 23.7243 0.0000 5.0718 0.0000
# 3 40.3908 23.7243 96.9683 -0.0003 23.3026 0.0000
# 4 0.0000 0.0000 -0.0003 21.5608 0.0000 -6.7474
# 5 21.8517 5.0718 23.3026 0.0000 34.6684 0.0000
# 6 0.0000 0.0000 0.0000 -6.7474 0.0000 25.1918
#
#
#
# Elastic Compliance Matrix: (Units=1/GPa)
#
#
# Indices 1 2 3 4 5 6 
#
# 1 0.009996 -0.004922 -0.001930 0.000000 -0.004283 0.000000
# 2 -0.004922 0.022611 -0.004093 0.000000 0.002546 0.000000
# 3 -0.001930 -0.004093 0.013932 0.000000 -0.007549 0.000000
# 4 0.000000 0.000000 0.000000 0.050624 0.000000 0.013559
# 5 -0.004283 0.002546 -0.007549 0.000000 0.036246 0.000000
# 6 0.000000 0.000000 0.000000 0.013559 0.000000 0.043327
#
#
# Mechanical properties :
#
#
# Convention : Reuss Voigt Hill
#
# Bulk Modulus (GPa) = 40.57241 53.61356 47.09298
# Shear Modulus (GPa) = 24.17277 28.82705 26.49991
#
# Velocity S-wave (km/s) = 3.53341 3.85861 3.69959
# Velocity P-wave (km/s) = 6.13204 6.89512 6.52475
#
# Compressibility (1/GPa) = 0.02464729
#
# Stress axis : x y z
#
# Youngs Moduli (GPa) = 100.03608 44.22716 71.77534
#
# Poissons Ratio (x) = 0.21770 0.13855
# Poissons Ratio (y) = 0.49240 0.29381
# Poissons Ratio (z) = 0.19310 0.18104
#
# Static dielectric constant tensor:
#      x y z
#    x 1.676620 0.000000 -0.016890 
#    y 0.000000 1.767710 0.000000 
#    z -0.016890 0.000000 1.751260 
# 
# From -- ./inp_files/234915.got.cif
#   From: 2010.05.17/outbox.cif.g08.bks.cpg/sg15_118_cif.got.tgz:234915.got - 2010.06.03 18:47:42.
