data_PCOD9268576
_publ_section_title
;
Structure prediction by ZEFSAII (Michael W. Deem and Ramdas Pophale) SiO2 
 PCOD9268576
Probable space group: C 2/C
;
_chemical_formula_sum "Si O2"
_cell_formula_units_Z 44
_cell_length_a 6.716107
_cell_length_b 27.746882
_cell_length_c 10.797068
_cell_angle_alpha 90.000000
_cell_angle_beta 106.272294
_cell_angle_gamma 90.000000
_cell_volume 1931.444023
_symmetry_space_group_name_H-M "C 2/C"
_symmetry_group_IT_number 15
_symmetry_cell_setting 'monoclinic'
loop_
_space_group_symop_operation_xyz
x,y,z
-x,y,1/2-z
-x,-y,-z
x,-y,1/2+z
1/2+x,1/2+y,z
1/2-x,1/2+y,1/2-z
1/2-x,1/2-y,-z
1/2+x,1/2-y,1/2+z
loop_
_atom_site_type_symbol
_atom_site_label
_atom_site_fract_x
_atom_site_fract_y
_atom_site_fract_z
Si Si1 0.168386 0.639826 0.990479
Si Si2 0.119742 0.307540 0.889210
Si Si3 0.000000 0.125242 0.250000
Si Si4 0.074565 0.783499 0.033994
Si Si5 0.789500 0.472987 0.995371
Si Si6 0.251026 0.540755 0.288984
O O1 0.324161 0.648851 0.134840
O O2 0.285352 0.670425 0.905035
O O3 0.952419 0.661629 0.002600
O O4 0.167414 0.583026 0.966471
O O5 0.367174 0.301435 0.925015
O O6 0.000000 0.328311 0.750000
O O7 0.027455 0.253717 0.889107
O O8 0.132222 0.091527 0.176948
O O9 0.250000 0.750000 0.000000
O O10 0.701090 0.501977 0.096692
O O11 0.690676 0.474025 0.841419
O O12 0.000000 0.500000 0.000000
O O13 0.000000 0.548100 0.250000
#
# Coordination Sequence:
#
# PCOD9268576 Si02
#       6
#     8   8   4   8   8   8
#     4  10  20  33  55  84 110 145 195 244 290 362
#     4  10  20  36  61  83 115 149 191 245 304 361
#     4  10  20  32  56  86 108 148 204 246 300 352
#     4   9  20  37  57  83 116 148 187 241 304 361
#     4   9  19  35  57  78 117 154 202 242 304 349
#     4   9  19  35  53  77 111 155 195 247 300 353
#
# _framework density 22.780882999999999
#
# number of rings (size 3 to 8) (size 9 to 14) (size 15 to 20)
#    0.000    2.545    0.000    1.091    0.000   15.273 
#    0.000    1.818   42.000    0.000    0.000    0.000 
#    0.000    0.000    0.000    0.000    0.000    0.000 
#
# Total GULP energy -122494.025985 kJ/mol
# GULP energy per Si atom -5567.910272 kJ/mol
# Density = 2.272903 g / cm^3
# Si number density = 22.780883 Si / 1000 Ang^3
#
#
#
# Elastic Constant Matrix: (Units=GPa)
#
#
# Indices 1 2 3 4 5 6 
#
# 1 152.2080 61.0234 22.9484 0.0000 14.0236 0.0000
# 2 61.0234 124.0548 17.8678 0.0000 -6.1617 0.0000
# 3 22.9484 17.8678 34.4093 0.0000 8.4340 0.0000
# 4 0.0000 0.0000 0.0000 23.2261 0.0000 7.7427
# 5 14.0236 -6.1617 8.4340 0.0000 38.4956 0.0000
# 6 0.0000 0.0000 0.0000 7.7427 0.0000 46.2528
#
#
#
# Elastic Compliance Matrix: (Units=1/GPa)
#
#
# Indices 1 2 3 4 5 6 
#
# 1 0.008993 -0.004148 -0.003041 0.000000 -0.003274 0.000000
# 2 -0.004148 0.010864 -0.003880 0.000000 0.004100 0.000000
# 3 -0.003041 -0.003880 0.034857 0.000000 -0.007150 0.000000
# 4 0.000000 0.000000 0.000000 0.045600 0.000000 -0.007633
# 5 -0.003274 0.004100 -0.007150 0.000000 0.029392 0.000000
# 6 0.000000 0.000000 0.000000 -0.007633 0.000000 0.022898
#
#
# Mechanical properties :
#
#
# Convention : Reuss Voigt Hill
#
# Bulk Modulus (GPa) = 30.69751 57.15015 43.92383
# Shear Modulus (GPa) = 26.93933 35.51708 31.22820
#
# Velocity S-wave (km/s) = 3.44254 3.95279 3.70646
# Velocity P-wave (km/s) = 5.41348 6.78042 6.13514
#
# Compressibility (1/GPa) = 0.03257593
#
# Stress axis : x y z
#
# Youngs Moduli (GPa) = 111.19361 92.04667 28.68842
#
# Poissons Ratio (x) = 0.38185 0.08725
# Poissons Ratio (y) = 0.46128 0.11130
# Poissons Ratio (z) = 0.33816 0.35711
#
# Static dielectric constant tensor:
#      x y z
#    x 1.812890 0.000000 -0.106780 
#    y 0.000000 1.919650 0.000000 
#    z -0.106780 0.000000 1.749180 
# 
# From -- ./inp_files/130531.got.cif
#   From: 2010.05.17/outbox.cif.g08.bks.cpg/sg15_66_cif.got.tgz:130531.got - 2010.06.03 18:47:42.
