data_PCOD9268220
_publ_section_title
;
Structure prediction by ZEFSAII (Michael W. Deem and Ramdas Pophale) SiO2 
 PCOD9268220
Probable space group: C 2/C
;
_chemical_formula_sum "Si O2"
_cell_formula_units_Z 64
_cell_length_a 15.800683
_cell_length_b 9.272033
_cell_length_c 29.395333
_cell_angle_alpha 90.000000
_cell_angle_beta 46.816238
_cell_angle_gamma 90.000000
_cell_volume 3140.173180
_symmetry_space_group_name_H-M "C 2/C"
_symmetry_group_IT_number 15
_symmetry_cell_setting 'monoclinic'
loop_
_space_group_symop_operation_xyz
x,y,z
-x,y,1/2-z
-x,-y,-z
x,-y,1/2+z
1/2+x,1/2+y,z
1/2-x,1/2+y,1/2-z
1/2-x,1/2-y,-z
1/2+x,1/2-y,1/2+z
loop_
_atom_site_type_symbol
_atom_site_label
_atom_site_fract_x
_atom_site_fract_y
_atom_site_fract_z
Si Si1 0.828227 0.646860 0.004162
Si Si2 0.823978 0.120760 0.954416
Si Si3 0.474138 0.499748 0.063301
Si Si4 0.542051 0.774709 0.182147
Si Si5 0.968540 0.948479 0.325721
Si Si6 0.566993 0.804769 0.370977
Si Si7 0.214611 0.228663 0.883366
Si Si8 0.299550 0.474843 0.306043
O O1 0.764972 0.494893 0.032825
O O2 0.842255 0.712396 0.049215
O O3 0.750000 0.750000 0.000000
O O4 0.952370 0.625301 0.935227
O O5 0.922412 0.156439 0.881125
O O6 0.900582 0.044007 0.963969
O O7 0.750000 0.250000 0.000000
O O8 0.437203 0.644469 0.104445
O O9 0.374394 0.379634 0.107321
O O10 0.500000 0.500000 0.000000
O O11 0.500000 0.759608 0.250000
O O12 0.567763 0.615248 0.152650
O O13 0.453027 0.825579 0.176345
O O14 0.667001 0.848811 0.142153
O O15 0.886792 0.915410 0.312778
O O16 0.106916 0.964554 0.269339
O O17 0.686606 0.880137 0.340240
O O18 0.256939 0.364076 0.836441
#
# Coordination Sequence:
#
# PCOD9268220 Si02
#       8
#     8   8   8   8   8   8   8   8
#     4  12  20  42  67  93 135 182 223 266 344 419
#     4  12  26  41  68  99 135 177 225 282 342 408
#     4  12  25  40  60 101 144 174 216 289 344 395
#     4  11  20  43  71  92 123 183 230 272 337 419
#     4  10  19  46  68  92 134 179 224 271 343 407
#     4  12  25  41  68 102 137 176 224 288 351 401
#     4  11  21  39  69  97 129 180 230 270 333 416
#     4  10  23  41  74  96 125 178 233 277 329 419
#
# _framework density 20.381041
#
# number of rings (size 3 to 8) (size 9 to 14) (size 15 to 20)
#    0.000    0.750   10.000    0.000    3.500    1.500 
#    0.000    0.000    2.750    0.000    0.000    0.000 
#    0.000    0.000    0.000    0.000    0.000    0.000 
#
# Total GULP energy -178224.450175 kJ/mol
# GULP energy per Si atom -5569.514068 kJ/mol
# Density = 2.033465 g / cm^3
# Si number density = 20.381041 Si / 1000 Ang^3
#
#
#
# Elastic Constant Matrix: (Units=GPa)
#
#
# Indices 1 2 3 4 5 6 
#
# 1 104.8339 34.3813 35.6431 0.0000 -20.6925 0.0000
# 2 34.3813 56.8754 39.5546 0.0000 -15.3416 0.0000
# 3 35.6431 39.5546 126.5046 0.0000 -13.3882 0.0000
# 4 0.0000 0.0000 0.0000 25.8009 0.0000 -9.6608
# 5 -20.6925 -15.3416 -13.3882 0.0000 39.8548 0.0000
# 6 0.0000 0.0000 0.0000 -9.6608 0.0000 32.3260
#
#
#
# Elastic Compliance Matrix: (Units=1/GPa)
#
#
# Indices 1 2 3 4 5 6 
#
# 1 0.012625 -0.005606 -0.001388 0.000000 0.003931 0.000000
# 2 -0.005606 0.026720 -0.006216 0.000000 0.005287 0.000000
# 3 -0.001388 -0.006216 0.010275 0.000000 0.000338 0.000000
# 4 0.000000 0.000000 0.000000 0.043642 0.000000 0.013043
# 5 0.003931 0.005287 0.000338 0.000000 0.029281 0.000000
# 6 0.000000 0.000000 0.000000 0.013043 0.000000 0.034833
#
#
# Mechanical properties :
#
#
# Convention : Reuss Voigt Hill
#
# Bulk Modulus (GPa) = 43.10273 56.37463 49.73868
# Shear Modulus (GPa) = 26.10558 31.50532 28.80545
#
# Velocity S-wave (km/s) = 3.58282 3.93595 3.76353
# Velocity P-wave (km/s) = 6.18949 6.95528 6.58353
#
# Compressibility (1/GPa) = 0.02320039
#
# Stress axis : x y z
#
# Youngs Moduli (GPa) = 79.20540 37.42506 97.32119
#
# Poissons Ratio (x) = 0.20982 0.13511
# Poissons Ratio (y) = 0.44405 0.60490
# Poissons Ratio (z) = 0.10996 0.23262
#
# Static dielectric constant tensor:
#      x y z
#    x 1.779170 0.000000 0.091540 
#    y 0.000000 1.727950 0.000000 
#    z 0.091540 0.000000 1.959860 
# 
# From -- ./inp_files/313124.got.cif
#   From: 2010.05.17/outbox.cif.g08.bks.cpg/sg15_157_cif.got.tgz:313124.got - 2010.06.03 18:47:42.
