data_PCOD9268418
_publ_section_title
;
Structure prediction by ZEFSAII (Michael W. Deem and Ramdas Pophale) SiO2 
 PCOD9268418
Probable space group: C 2/C
;
_chemical_formula_sum "Si O2"
_cell_formula_units_Z 52
_cell_length_a 22.751862
_cell_length_b 24.635667
_cell_length_c 18.694776
_cell_angle_alpha 90.000000
_cell_angle_beta 160.060296
_cell_angle_gamma 90.000000
_cell_volume 3573.513814
_symmetry_space_group_name_H-M "C 2/C"
_symmetry_group_IT_number 15
_symmetry_cell_setting 'monoclinic'
loop_
_space_group_symop_operation_xyz
x,y,z
-x,y,1/2-z
-x,-y,-z
x,-y,1/2+z
1/2+x,1/2+y,z
1/2-x,1/2+y,1/2-z
1/2-x,1/2-y,-z
1/2+x,1/2-y,1/2+z
loop_
_atom_site_type_symbol
_atom_site_label
_atom_site_fract_x
_atom_site_fract_y
_atom_site_fract_z
Si Si1 0.800877 0.483218 0.270411
Si Si2 0.414987 0.574926 0.530896
Si Si3 0.310927 0.483695 0.511283
Si Si4 0.709195 0.080829 0.596990
Si Si5 0.500000 0.989699 0.750000
Si Si6 0.023503 0.691236 0.361727
Si Si7 0.134092 0.810829 0.470191
O O1 0.685997 0.538268 0.142506
O O2 0.754179 0.459260 0.138729
O O3 0.766514 0.443529 0.296549
O O4 0.000000 0.500000 0.500000
O O5 0.346158 0.546503 0.525388
O O6 0.617699 0.569910 0.749843
O O7 0.383941 0.638609 0.497654
O O8 0.165632 0.479542 0.405966
O O9 0.500000 0.463296 0.750000
O O10 0.563126 0.047522 0.387728
O O11 0.648587 0.143147 0.529994
O O12 0.094244 0.751625 0.456013
O O13 0.000000 0.685141 0.250000
O O14 0.830804 0.687540 0.170473
O O15 0.000000 0.818367 0.250000
#
# Coordination Sequence:
#
# PCOD9268418 Si02
#       7
#     8   8   8   8   4   8   8
#     4  10  20  33  47  69  95 128 167 205 249 292
#     4  10  21  31  47  66  95 127 165 204 239 290
#     4  10  20  32  47  70  93 127 163 201 244 291
#     4  12  20  32  48  69  94 133 165 204 249 288
#     4  12  18  30  50  64  94 124 170 192 244 290
#     4  11  21  31  46  67  91 131 166 205 239 287
#     4  11  20  32  44  66  94 124 168 207 238 283
#
# _framework density 14.551504
#
# number of rings (size 3 to 8) (size 9 to 14) (size 15 to 20)
#    0.923    0.308    3.846    6.462    0.000    0.000 
#    0.000    0.000    0.000    0.000    0.000    0.000 
#    0.000    0.000    2.615    7.231    1.231    0.154 
#
# Total GULP energy -144755.694014 kJ/mol
# GULP energy per Si atom -5567.526693 kJ/mol
# Density = 1.451838 g / cm^3
# Si number density = 14.551504 Si / 1000 Ang^3
#
#
#
# Elastic Constant Matrix: (Units=GPa)
#
#
# Indices 1 2 3 4 5 6 
#
# 1 61.3907 17.6888 17.8505 0.0000 2.6306 0.0000
# 2 17.6888 71.1262 17.9474 0.0000 -7.7088 0.0000
# 3 17.8505 17.9474 82.7267 0.0001 12.4313 0.0000
# 4 0.0000 0.0000 0.0001 22.4234 0.0000 -4.3243
# 5 2.6306 -7.7088 12.4313 0.0000 34.8353 0.0000
# 6 0.0000 0.0000 0.0000 -4.3243 0.0000 19.4126
#
#
#
# Elastic Compliance Matrix: (Units=1/GPa)
#
#
# Indices 1 2 3 4 5 6 
#
# 1 0.018328 -0.003955 -0.002913 0.000000 -0.001220 0.000000
# 2 -0.003955 0.016491 -0.003506 0.000000 0.005199 0.000000
# 3 -0.002913 -0.003506 0.014329 0.000000 -0.005669 0.000000
# 4 0.000000 0.000000 0.000000 0.046598 0.000000 0.010380
# 5 -0.001220 0.005199 -0.005669 0.000000 0.031972 0.000000
# 6 0.000000 0.000000 0.000000 0.010380 0.000000 0.053825
#
#
# Mechanical properties :
#
#
# Convention : Reuss Voigt Hill
#
# Bulk Modulus (GPa) = 35.21119 35.80190 35.50654
# Shear Modulus (GPa) = 23.61175 26.11804 24.86489
#
# Velocity S-wave (km/s) = 4.03256 4.24119 4.13819
# Velocity P-wave (km/s) = 6.77733 6.97428 6.87651
#
# Compressibility (1/GPa) = 0.02840006
#
# Stress axis : x y z
#
# Youngs Moduli (GPa) = 54.56094 60.63838 69.78819
#
# Poissons Ratio (x) = 0.23984 0.20332
# Poissons Ratio (y) = 0.21580 0.24465
# Poissons Ratio (z) = 0.15896 0.21257
#
# Static dielectric constant tensor:
#      x y z
#    x 1.629110 0.000000 0.212220 
#    y 0.000000 1.475320 0.000000 
#    z 0.212220 0.000000 1.793120 
# 
# From -- ./inp_files/216841.got.cif
#   From: 2010.05.17/outbox.cif.g08.bks.cpg/sg15_109_cif.got.tgz:216841.got - 2010.06.03 18:47:42.
