data_PCOD9268981
_publ_section_title
;
Structure prediction by ZEFSAII (Michael W. Deem and Ramdas Pophale) SiO2 
 PCOD9268981
Probable space group: C 2/C
;
_chemical_formula_sum "Si O2"
_cell_formula_units_Z 56
_cell_length_a 21.398441
_cell_length_b 11.368142
_cell_length_c 13.302680
_cell_angle_alpha 90.000000
_cell_angle_beta 115.108427
_cell_angle_gamma 90.000000
_cell_volume 2930.233917
_symmetry_space_group_name_H-M "C 2/C"
_symmetry_group_IT_number 15
_symmetry_cell_setting 'monoclinic'
loop_
_space_group_symop_operation_xyz
x,y,z
-x,y,1/2-z
-x,-y,-z
x,-y,1/2+z
1/2+x,1/2+y,z
1/2-x,1/2+y,1/2-z
1/2-x,1/2-y,-z
1/2+x,1/2-y,1/2+z
loop_
_atom_site_type_symbol
_atom_site_label
_atom_site_fract_x
_atom_site_fract_y
_atom_site_fract_z
Si Si1 0.314531 0.792089 0.977703
Si Si2 0.671611 0.049532 0.204736
Si Si3 0.816866 0.220673 0.673672
Si Si4 0.186712 0.062497 0.647895
Si Si5 0.547479 0.085418 0.879652
Si Si6 0.940480 0.617682 0.969411
Si Si7 0.162293 0.812428 0.545629
O O1 0.299183 0.885541 0.876669
O O2 0.334291 0.670527 0.937000
O O3 0.250000 0.750000 0.000000
O O4 0.377990 0.853063 0.079772
O O5 0.651057 0.156808 0.264125
O O6 0.731143 0.968195 0.292889
O O7 0.607547 0.969980 0.129334
O O8 0.832309 0.110550 0.755324
O O9 0.835251 0.189960 0.573060
O O10 0.734864 0.250675 0.625946
O O11 0.156742 0.941151 0.588069
O O12 0.500000 0.099435 0.750000
O O13 0.509556 0.137536 0.953139
O O14 0.552884 0.949821 0.919637
O O15 0.899772 0.735549 0.957586
#
# Coordination Sequence:
#
# PCOD9268981 Si02
#       7
#     8   8   8   8   8   8   8
#     4  10  23  38  60  91 123 158 209 252 304 367
#     4   9  19  33  59  87 122 161 193 259 305 363
#     4   9  19  33  52  89 124 158 204 248 305 360
#     4  10  20  35  55  90 125 156 202 257 305 360
#     4  10  24  40  63  89 124 164 205 256 307 375
#     4  10  21  40  59  91 122 158 210 249 310 373
#     4  10  20  33  58  84 122 164 202 252 304 374
#
# _framework density 19.111101999999999
#
# number of rings (size 3 to 8) (size 9 to 14) (size 15 to 20)
#    0.000    2.286    1.429    0.000    6.000    2.286 
#    0.000    0.714    0.000    0.857    0.000    0.000 
#    0.000    0.000    0.000    0.000    0.000    0.000 
#
# Total GULP energy -156154.812047 kJ/mol
# GULP energy per Si atom -5576.957573 kJ/mol
# Density = 1.906760 g / cm^3
# Si number density = 19.111102 Si / 1000 Ang^3
#
#
#
# Elastic Constant Matrix: (Units=GPa)
#
#
# Indices 1 2 3 4 5 6 
#
# 1 57.0140 14.1471 10.3221 0.0000 -3.3902 0.0000
# 2 14.1471 73.0025 32.2814 0.0000 -8.1648 0.0000
# 3 10.3221 32.2814 93.2701 0.0000 2.2204 0.0000
# 4 0.0000 0.0000 0.0000 294.3508 0.0000 305.9726
# 5 -3.3902 -8.1648 2.2204 0.0000 19.2330 0.0000
# 6 0.0000 0.0000 0.0000 305.9726 0.0000 355.5277
#
#
#
# Elastic Compliance Matrix: (Units=1/GPa)
#
#
# Indices 1 2 3 4 5 6 
#
# 1 0.018582 -0.002862 -0.001118 0.000000 0.002190 0.000000
# 2 -0.002862 0.017781 -0.006022 0.000000 0.007739 0.000000
# 3 -0.001118 -0.006022 0.013031 0.000000 -0.004258 0.000000
# 4 0.000000 0.000000 0.000000 0.032231 0.000000 -0.027738
# 5 0.002190 0.007739 -0.004258 0.000000 0.056157 0.000000
# 6 0.000000 0.000000 0.000000 -0.027738 0.000000 0.026685
#
#
# Mechanical properties :
#
#
# Convention : Reuss Voigt Hill
#
# Bulk Modulus (GPa) = 34.02397 37.42089 35.72243
# Shear Modulus (GPa) = 25.73775 144.92470 85.33123
#
# Velocity S-wave (km/s) = 3.67378 8.71765 6.68932
# Velocity P-wave (km/s) = 5.98644 10.99786 8.85411
#
# Compressibility (1/GPa) = 0.02939104
#
# Stress axis : x y z
#
# Youngs Moduli (GPa) = 53.81475 56.23965 76.74125
#
# Poissons Ratio (x) = 0.16094 0.08581
# Poissons Ratio (y) = 0.15400 0.46211
# Poissons Ratio (z) = 0.06017 0.33866
#
# Static dielectric constant tensor:
#      x y z
#    x 1.686120 0.000000 -0.002370 
#    y 0.000000 1.641240 0.000000 
#    z -0.002370 0.000000 1.726820 
# 
# From -- ./inp_files/167295.got.cif
#   From: 2010.05.17/outbox.cif.g08.bks.cpg/sg15_84_cif.got.tgz:167295.got - 2010.06.03 18:47:42.
