data_PCOD9268123
_publ_section_title
;
Structure prediction by ZEFSAII (Michael W. Deem and Ramdas Pophale) SiO2 
 PCOD9268123
Probable space group: C 2/C
;
_chemical_formula_sum "Si O2"
_cell_formula_units_Z 64
_cell_length_a 15.168001
_cell_length_b 26.676796
_cell_length_c 11.244549
_cell_angle_alpha 90.000000
_cell_angle_beta 35.129645
_cell_angle_gamma 90.000000
_cell_volume 2618.155377
_symmetry_space_group_name_H-M "C 2/C"
_symmetry_group_IT_number 15
_symmetry_cell_setting 'monoclinic'
loop_
_space_group_symop_operation_xyz
x,y,z
-x,y,1/2-z
-x,-y,-z
x,-y,1/2+z
1/2+x,1/2+y,z
1/2-x,1/2+y,1/2-z
1/2-x,1/2-y,-z
1/2+x,1/2-y,1/2+z
loop_
_atom_site_type_symbol
_atom_site_label
_atom_site_fract_x
_atom_site_fract_y
_atom_site_fract_z
Si Si1 0.977161 0.070059 0.038900
Si Si2 0.223599 0.801973 0.463462
Si Si3 0.822557 0.095720 0.989059
Si Si4 0.666769 0.290841 0.007204
Si Si5 0.691639 0.045573 0.909273
Si Si6 0.802670 0.562257 0.025265
Si Si7 0.944793 0.816881 0.618308
Si Si8 0.936096 0.610921 0.649796
O O1 0.880356 0.058145 0.262175
O O2 0.003789 0.130060 0.002859
O O3 0.847453 0.064003 0.080668
O O4 0.137813 0.044379 0.839110
O O5 0.250000 0.750000 0.500000
O O6 0.151201 0.830792 0.657204
O O7 0.361062 0.834550 0.256173
O O8 0.096110 0.791598 0.504318
O O9 0.764325 0.152886 0.062797
O O10 0.721846 0.066973 0.006305
O O11 0.000000 0.098252 0.750000
O O12 0.500000 0.293175 0.250000
O O13 0.750000 0.250000 0.000000
O O14 0.637395 0.285654 0.896095
O O15 0.594300 0.085670 0.942711
O O16 0.632133 0.989668 0.993667
O O17 0.849414 0.574835 0.839978
O O18 0.887551 0.606378 0.006571
#
# Coordination Sequence:
#
# PCOD9268123 Si02
#       8
#     8   8   8   8   8   8   8   8
#     4  10  19  42  66  92 132 166 227 287 332 413
#     4  11  24  43  72 101 135 193 246 298 363 433
#     4   8  19  38  62  92 125 166 221 282 336 401
#     4  10  22  40  68  96 136 179 228 297 367 430
#     4  11  22  41  70  94 129 183 229 282 352 426
#     4  11  25  40  64 101 133 179 222 285 364 420
#     4  10  22  42  67 100 133 177 240 296 347 436
#     4  11  25  45  65  93 147 180 223 295 358 422
#
# _framework density 24.444690999999999
#
# number of rings (size 3 to 8) (size 9 to 14) (size 15 to 20)
#    0.000    1.750    2.500    1.500    3.500    2.500 
#    2.250    2.500    0.000    0.000    0.000    0.000 
#    0.000    0.000    0.000    0.000    0.000    0.000 
#
# Total GULP energy -178662.667395 kJ/mol
# GULP energy per Si atom -5583.208356 kJ/mol
# Density = 2.438905 g / cm^3
# Si number density = 24.444691 Si / 1000 Ang^3
#
#
#
# Elastic Constant Matrix: (Units=GPa)
#
#
# Indices 1 2 3 4 5 6 
#
# 1 137.2219 40.5732 -3.4596 0.0000 0.0245 0.0000
# 2 40.5732 125.3946 -0.9000 0.0000 -9.7790 0.0000
# 3 -3.4596 -0.9000 55.7135 0.0000 -0.4682 0.0000
# 4 0.0000 0.0000 0.0000 27.1711 0.0000 7.3992
# 5 0.0245 -9.7790 -0.4682 0.0000 24.8385 0.0000
# 6 0.0000 0.0000 0.0000 7.3992 0.0000 32.8092
#
#
#
# Elastic Compliance Matrix: (Units=1/GPa)
#
#
# Indices 1 2 3 4 5 6 
#
# 1 0.008097 -0.002700 0.000450 0.000000 -0.001062 0.000000
# 2 -0.002700 0.009129 0.000010 0.000000 0.003597 0.000000
# 3 0.000450 0.000010 0.017980 0.000000 0.000342 0.000000
# 4 0.000000 0.000000 0.000000 0.039212 0.000000 -0.008843
# 5 -0.001062 0.003597 0.000342 0.000000 0.041684 0.000000
# 6 0.000000 0.000000 0.000000 -0.008843 0.000000 0.032474
#
#
# Mechanical properties :
#
#
# Convention : Reuss Voigt Hill
#
# Bulk Modulus (GPa) = 32.54403 43.41746 37.98074
# Shear Modulus (GPa) = 30.61917 35.77151 33.19534
#
# Velocity S-wave (km/s) = 3.54303 3.82955 3.68907
# Velocity P-wave (km/s) = 5.48450 6.11179 5.80662
#
# Compressibility (1/GPa) = 0.03072760
#
# Stress axis : x y z
#
# Youngs Moduli (GPa) = 123.49931 109.54226 55.61742
#
# Poissons Ratio (x) = 0.29572 -0.02504
# Poissons Ratio (y) = 0.33340 -0.00056
# Poissons Ratio (z) = -0.05561 -0.00110
#
# Static dielectric constant tensor:
#      x y z
#    x 2.054570 0.000000 0.098950 
#    y 0.000000 2.090250 0.000000 
#    z 0.098950 0.000000 2.043710 
# 
# From -- ./inp_files/101332.got.cif
#   From: 2010.05.17/outbox.cif.g08.bks.cpg/sg15_51_cif.got.tgz:101332.got - 2010.06.03 18:47:42.
