data_PCOD9268885
_publ_section_title
;
Structure prediction by ZEFSAII (Michael W. Deem and Ramdas Pophale) SiO2 
 PCOD9268885
Probable space group: C 2/C
;
_chemical_formula_sum "Si O2"
_cell_formula_units_Z 64
_cell_length_a 15.135939
_cell_length_b 12.384629
_cell_length_c 18.806465
_cell_angle_alpha 90.000000
_cell_angle_beta 130.666259
_cell_angle_gamma 90.000000
_cell_volume 2674.025579
_symmetry_space_group_name_H-M "C 2/C"
_symmetry_group_IT_number 15
_symmetry_cell_setting 'monoclinic'
loop_
_space_group_symop_operation_xyz
x,y,z
-x,y,1/2-z
-x,-y,-z
x,-y,1/2+z
1/2+x,1/2+y,z
1/2-x,1/2+y,1/2-z
1/2-x,1/2-y,-z
1/2+x,1/2-y,1/2+z
loop_
_atom_site_type_symbol
_atom_site_label
_atom_site_fract_x
_atom_site_fract_y
_atom_site_fract_z
Si Si1 0.005996 0.239291 0.091337
Si Si2 0.127243 0.680542 0.101495
Si Si3 0.624579 0.683253 0.853179
Si Si4 0.009392 0.502136 0.897058
Si Si5 0.328170 0.054132 0.696093
Si Si6 0.243464 0.195398 0.777249
Si Si7 0.738559 0.090196 0.458732
Si Si8 0.168002 0.227363 0.388541
O O1 0.993023 0.369703 0.092947
O O2 0.143336 0.227591 0.157833
O O3 0.947354 0.186727 0.130492
O O4 0.938195 0.229243 0.981468
O O5 0.055376 0.572558 0.079489
O O6 0.146265 0.732343 0.188753
O O7 0.250925 0.663989 0.125402
O O8 0.500000 0.683853 0.750000
O O9 0.712033 0.648579 0.836424
O O10 0.673304 0.800386 0.901099
O O11 0.646762 0.612689 0.935119
O O12 0.937961 0.490181 0.785530
O O13 0.142013 0.468082 0.956739
O O14 0.266856 0.100248 0.733897
O O15 0.360387 0.161122 0.667484
O O16 0.248510 0.982384 0.603947
O O17 0.250000 0.250000 0.500000
#
# Coordination Sequence:
#
# PCOD9268885 Si02
#       8
#     8   8   8   8   8   8   8   8
#     4  10  20  36  62  92 124 162 219 269 319 385
#     4  10  20  33  54  91 133 163 196 267 334 387
#     4  11  24  42  60  91 129 170 212 273 333 407
#     4  11  20  34  64  99 123 152 222 280 320 371
#     4  10  20  36  61  96 123 163 211 274 322 384
#     4  10  22  37  60  90 128 162 212 269 331 385
#     4  11  22  38  68  93 123 165 218 273 334 382
#     4   9  19  36  57  90 132 166 203 262 338 389
#
# _framework density 23.933952000000001
#
# number of rings (size 3 to 8) (size 9 to 14) (size 15 to 20)
#    0.000    1.750    1.250    3.750    1.750    3.500 
#    0.000    0.625    0.000   12.000    0.000    0.000 
#    0.000    0.000    0.000    0.000    0.000    0.000 
#
# Total GULP energy -178739.187627 kJ/mol
# GULP energy per Si atom -5585.599613 kJ/mol
# Density = 2.387948 g / cm^3
# Si number density = 23.933952 Si / 1000 Ang^3
#
#
#
# Elastic Constant Matrix: (Units=GPa)
#
#
# Indices 1 2 3 4 5 6 
#
# 1 35.0514 -1.7990 0.0429 0.0000 -3.9558 0.0000
# 2 -1.7990 33.4289 12.3836 0.0000 4.9078 0.0000
# 3 0.0429 12.3836 138.2165 0.0000 8.5027 0.0000
# 4 0.0000 0.0000 0.0000 21.6984 0.0000 -7.8139
# 5 -3.9558 4.9078 8.5027 0.0000 21.2126 0.0000
# 6 0.0000 0.0000 0.0000 -7.8139 0.0000 26.2227
#
#
#
# Elastic Compliance Matrix: (Units=1/GPa)
#
#
# Indices 1 2 3 4 5 6 
#
# 1 0.029187 0.000936 -0.000425 0.000000 0.005397 0.000000
# 2 0.000936 0.031788 -0.002467 0.000000 -0.006191 0.000000
# 3 -0.000425 -0.002467 0.007614 0.000000 -0.002560 0.000000
# 4 0.000000 0.000000 0.000000 0.051626 0.000000 0.015384
# 5 0.005397 -0.006191 -0.002560 0.000000 0.050607 0.000000
# 6 0.000000 0.000000 0.000000 0.015384 0.000000 0.042719
#
#
# Mechanical properties :
#
#
# Convention : Reuss Voigt Hill
#
# Bulk Modulus (GPa) = 15.46184 25.32797 20.39491
# Shear Modulus (GPa) = 20.91947 26.89803 23.90875
#
# Velocity S-wave (km/s) = 2.95964 3.35602 3.16404
# Velocity P-wave (km/s) = 4.26070 5.06187 4.67847
#
# Compressibility (1/GPa) = 0.06467534
#
# Stress axis : x y z
#
# Youngs Moduli (GPa) = 34.26170 31.45887 131.34174
#
# Poissons Ratio (x) = -0.02944 0.05581
# Poissons Ratio (y) = -0.03206 0.32408
# Poissons Ratio (z) = 0.01456 0.07762
#
# Static dielectric constant tensor:
#      x y z
#    x 1.991350 0.000000 0.047510 
#    y 0.000000 1.924150 0.000000 
#    z 0.047510 0.000000 2.038630 
# 
# From -- ./inp_files/205743.got.cif
#   From: 2010.05.17/outbox.cif.g08.bks.cpg/sg15_103_cif.got.tgz:205743.got - 2010.06.03 18:47:42.
