data_PCOD9268818
_publ_section_title
;
Structure prediction by ZEFSAII (Michael W. Deem and Ramdas Pophale) SiO2 
 PCOD9268818
Probable space group: C 2/C
;
_chemical_formula_sum "Si O2"
_cell_formula_units_Z 48
_cell_length_a 7.149328
_cell_length_b 7.768884
_cell_length_c 29.695143
_cell_angle_alpha 90.000000
_cell_angle_beta 82.304579
_cell_angle_gamma 90.000000
_cell_volume 1634.482456
_symmetry_space_group_name_H-M "C 2/C"
_symmetry_group_IT_number 15
_symmetry_cell_setting 'monoclinic'
loop_
_space_group_symop_operation_xyz
x,y,z
-x,y,1/2-z
-x,-y,-z
x,-y,1/2+z
1/2+x,1/2+y,z
1/2-x,1/2+y,1/2-z
1/2-x,1/2-y,-z
1/2+x,1/2-y,1/2+z
loop_
_atom_site_type_symbol
_atom_site_label
_atom_site_fract_x
_atom_site_fract_y
_atom_site_fract_z
Si Si1 0.384765 0.013653 0.591053
Si Si2 0.787940 0.317094 0.238293
Si Si3 0.625937 0.645961 0.347838
Si Si4 0.523852 0.535497 0.929917
Si Si5 0.026547 0.267907 0.007066
Si Si6 0.299557 0.156144 0.177272
O O1 0.354367 0.190322 0.620045
O O2 0.179654 0.967934 0.578569
O O3 0.491385 0.072584 0.542072
O O4 0.435105 0.884432 0.630562
O O5 0.747680 0.176147 0.200307
O O6 0.790639 0.493306 0.211116
O O7 0.000000 0.289309 0.250000
O O8 0.662343 0.306323 0.287558
O O9 0.648445 0.482871 0.380810
O O10 0.410931 0.661065 0.336704
O O11 0.582958 0.392079 0.964921
O O12 0.492476 0.717110 0.955614
O O13 0.250000 0.250000 0.000000
#
# Coordination Sequence:
#
# PCOD9268818 Si02
#       6
#     8   8   8   8   8   8
#     4   9  17  33  56  79 108 147 183 223 276 325
#     4   9  17  32  53  76 104 138 176 221 275 332
#     4   8  16  32  54  76 104 141 178 223 274 324
#     4   9  18  34  54  77 108 144 181 223 272 322
#     4  10  20  33  53  80 109 143 184 227 269 320
#     4   9  17  32  56  79 106 143 180 224 278 329
#
# _framework density 29.367093000000001
#
# number of rings (size 3 to 8) (size 9 to 14) (size 15 to 20)
#    0.000    3.000    0.000    0.500    0.000    0.667 
#    0.000   12.500    0.000   36.000    0.000    0.000 
#    0.000    0.000    0.000    0.000    0.000    0.000 
#
# Total GULP energy -134147.080834 kJ/mol
# GULP energy per Si atom -5589.461701 kJ/mol
# Density = 2.930025 g / cm^3
# Si number density = 29.367093 Si / 1000 Ang^3
#
#
#
# Elastic Constant Matrix: (Units=GPa)
#
#
# Indices 1 2 3 4 5 6 
#
# 1 83.8193 -24.4280 27.7125 0.0000 -19.5212 0.0000
# 2 -24.4280 103.8280 34.2662 0.0000 5.4988 0.0000
# 3 27.7125 34.2662 283.4432 0.0000 -11.7190 0.0000
# 4 0.0000 0.0000 0.0000 75.8818 0.0000 6.4506
# 5 -19.5212 5.4988 -11.7190 0.0000 29.8370 0.0000
# 6 0.0000 0.0000 0.0000 6.4506 0.0000 21.3082
#
#
#
# Elastic Compliance Matrix: (Units=1/GPa)
#
#
# Indices 1 2 3 4 5 6 
#
# 1 0.015625 0.003737 -0.001611 0.000000 0.008901 0.000000
# 2 0.003737 0.011092 -0.001718 0.000000 -0.000274 0.000000
# 3 -0.001611 -0.001718 0.003926 0.000000 0.000804 0.000000
# 4 0.000000 0.000000 0.000000 0.013526 0.000000 -0.004095
# 5 0.008901 -0.000274 0.000804 0.000000 0.039706 0.000000
# 6 0.000000 0.000000 0.000000 -0.004095 0.000000 0.048170
#
#
# Mechanical properties :
#
#
# Convention : Reuss Voigt Hill
#
# Bulk Modulus (GPa) = 31.78760 60.68800 46.23780
# Shear Modulus (GPa) = 35.28164 54.30805 44.79484
#
# Velocity S-wave (km/s) = 3.46988 4.30499 3.90980
# Velocity P-wave (km/s) = 5.18663 6.73950 6.01340
#
# Compressibility (1/GPa) = 0.03145881
#
# Stress axis : x y z
#
# Youngs Moduli (GPa) = 63.99887 90.15675 254.68016
#
# Poissons Ratio (x) = -0.33688 0.41039
# Poissons Ratio (y) = -0.23914 0.43743
# Poissons Ratio (z) = 0.10313 0.15485
#
# Static dielectric constant tensor:
#      x y z
#    x 2.237730 0.000000 -0.058310 
#    y 0.000000 2.555960 0.000000 
#    z -0.058310 0.000000 2.344220 
# 
# From -- ./inp_files/306644.got.cif
#   From: 2010.05.17/outbox.cif.g08.bks.cpg/sg15_154_cif.got.tgz:306644.got - 2010.06.03 18:47:42.
