data_PCOD9268097
_publ_section_title
;
Structure prediction by ZEFSAII (Michael W. Deem and Ramdas Pophale) SiO2 
 PCOD9268097
Probable space group: C 2/C
;
_chemical_formula_sum "Si O2"
_cell_formula_units_Z 48
_cell_length_a 12.053336
_cell_length_b 16.805203
_cell_length_c 18.423383
_cell_angle_alpha 90.000000
_cell_angle_beta 32.812282
_cell_angle_gamma 90.000000
_cell_volume 2022.228596
_symmetry_space_group_name_H-M "C 2/C"
_symmetry_group_IT_number 15
_symmetry_cell_setting 'monoclinic'
loop_
_space_group_symop_operation_xyz
x,y,z
-x,y,1/2-z
-x,-y,-z
x,-y,1/2+z
1/2+x,1/2+y,z
1/2-x,1/2+y,1/2-z
1/2-x,1/2-y,-z
1/2+x,1/2-y,1/2+z
loop_
_atom_site_type_symbol
_atom_site_label
_atom_site_fract_x
_atom_site_fract_y
_atom_site_fract_z
Si Si1 0.264625 0.289764 0.862136
Si Si2 0.500000 0.704361 0.750000
Si Si3 0.500000 0.048839 0.250000
Si Si4 0.285615 0.944500 0.243951
Si Si5 0.672632 0.586548 0.532312
Si Si6 0.144237 0.737033 0.840322
Si Si7 0.754949 0.973867 0.886268
O O1 0.500000 0.266398 0.750000
O O2 0.265568 0.288923 0.774581
O O3 0.222374 0.380574 0.906970
O O4 0.082664 0.243261 0.003752
O O5 0.605554 0.652268 0.627546
O O6 0.305807 0.741056 0.816368
O O7 0.338212 0.104220 0.380624
O O8 0.378379 0.991400 0.260821
O O9 0.352371 0.852400 0.196608
O O10 0.038542 0.943048 0.386662
O O11 0.324596 0.985299 0.143421
O O12 0.786567 0.518994 0.516708
O O13 0.000000 0.983905 0.750000
#
# Coordination Sequence:
#
# PCOD9268097 Si02
#       7
#     8   4   4   8   8   8   8
#     4  11  25  43  67  98 131 171 217 267 328 386
#     4  10  22  46  73  87 128 182 220 256 332 384
#     4  12  24  30  63 105 136 156 204 286 330 372
#     4  10  22  42  66  94 133 172 211 269 329 379
#     4  10  19  42  62  98 125 168 218 266 319 386
#     4  11  24  46  67  93 132 178 217 267 318 397
#     4   9  18  41  71  91 122 172 223 257 314 398
#
# _framework density 23.736190000000001
#
# number of rings (size 3 to 8) (size 9 to 14) (size 15 to 20)
#    0.000    1.667    4.167    2.000    3.500    2.000 
#   15.000    0.833    0.000    0.000    0.000    0.000 
#    0.000    0.000    0.000    0.000    0.000    0.000 
#
# Total GULP energy -134107.729490 kJ/mol
# GULP energy per Si atom -5587.822062 kJ/mol
# Density = 2.368216 g / cm^3
# Si number density = 23.736190 Si / 1000 Ang^3
#
#
#
# Elastic Constant Matrix: (Units=GPa)
#
#
# Indices 1 2 3 4 5 6 
#
# 1 137.5693 29.0386 43.8552 0.0001 -4.5752 -0.0020
# 2 29.0386 33.4402 15.6782 0.0065 -2.1936 -0.0047
# 3 43.8552 15.6782 196.5205 0.0129 5.3360 -0.0034
# 4 0.0001 0.0065 0.0129 -3.6304 -0.0002 -1.3888
# 5 -4.5752 -2.1936 5.3360 -0.0002 31.6047 0.0007
# 6 -0.0020 -0.0047 -0.0034 -1.3888 0.0007 4.2105
#
#
#
# Elastic Compliance Matrix: (Units=1/GPa)
#
#
# Indices 1 2 3 4 5 6 
#
# 1 0.009339 -0.007320 -0.001530 -0.000015 0.001102 -0.000010
# 2 -0.007320 0.037015 -0.001367 0.000042 0.001740 0.000051
# 3 -0.001530 -0.001367 0.005573 0.000014 -0.001257 0.000007
# 4 -0.000015 0.000042 0.000014 -0.244589 -0.000001 -0.080676
# 5 0.001102 0.001740 -0.001257 -0.000001 0.032133 -0.000005
# 6 -0.000010 0.000051 0.000007 -0.080676 -0.000005 0.210892
#
#
# Mechanical properties :
#
#
# Convention : Reuss Voigt Hill
#
# Bulk Modulus (GPa) = 31.75205 60.51933 46.13569
# Shear Modulus (GPa) = 61.50464 25.03415 43.26939
#
# Velocity S-wave (km/s) = 5.09588 3.25111 4.27421
# Velocity P-wave (km/s) = 6.93038 6.29642 6.62099
#
# Compressibility (1/GPa) = 0.03149403
#
# Stress axis : x y z
#
# Youngs Moduli (GPa) = 107.08330 27.01577 179.43242
#
# Poissons Ratio (x) = 0.19775 0.27452
# Poissons Ratio (y) = 0.78382 0.24525
# Poissons Ratio (z) = 0.16383 0.03693
#
# Static dielectric constant tensor:
#      x y z
#    x 1.918260 0.000000 -0.012810 
#    y 0.000000 1.912750 0.000000 
#    z -0.012810 0.000000 2.006000 
# 
# From -- ./inp_files/156041.got.cif
#   From: 2010.05.17/outbox.cif.g08.bks.cpg/sg15_79_cif.got.tgz:156041.got - 2010.06.03 18:47:42.
