data_PCOD9268625
_publ_section_title
;
Structure prediction by ZEFSAII (Michael W. Deem and Ramdas Pophale) SiO2 
 PCOD9268625
Probable space group: C 2/C
;
_chemical_formula_sum "Si O2"
_cell_formula_units_Z 60
_cell_length_a 27.423572
_cell_length_b 6.507008
_cell_length_c 19.676494
_cell_angle_alpha 90.000000
_cell_angle_beta 59.021451
_cell_angle_gamma 90.000000
_cell_volume 3010.345422
_symmetry_space_group_name_H-M "C 2/C"
_symmetry_group_IT_number 15
_symmetry_cell_setting 'monoclinic'
loop_
_space_group_symop_operation_xyz
x,y,z
-x,y,1/2-z
-x,-y,-z
x,-y,1/2+z
1/2+x,1/2+y,z
1/2-x,1/2+y,1/2-z
1/2-x,1/2-y,-z
1/2+x,1/2-y,1/2+z
loop_
_atom_site_type_symbol
_atom_site_label
_atom_site_fract_x
_atom_site_fract_y
_atom_site_fract_z
Si Si1 0.158556 0.950494 0.794140
Si Si2 0.712622 0.103255 0.824791
Si Si3 0.420677 0.223347 0.885744
Si Si4 0.404307 0.406315 0.292545
Si Si5 0.000000 0.416926 0.750000
Si Si6 0.362531 0.730301 0.563244
Si Si7 0.709158 0.398874 0.949338
Si Si8 0.328633 0.102453 0.422135
O O1 0.223846 0.033769 0.740303
O O2 0.130226 0.075250 0.877779
O O3 0.172697 0.711448 0.797361
O O4 0.117652 0.978897 0.758832
O O5 0.725137 0.285163 0.869129
O O6 0.672772 0.926162 0.884927
O O7 0.420983 0.434691 0.841534
O O8 0.470709 0.069883 0.825429
O O9 0.364829 0.100751 0.900505
O O10 0.414563 0.238165 0.972494
O O11 0.454614 0.239502 0.249130
O O12 0.351340 0.261201 0.350415
O O13 0.319294 0.611191 0.545516
O O14 0.762906 0.438415 0.957716
O O15 0.665869 0.238700 0.014282
#
# Coordination Sequence:
#
# PCOD9268625 Si02
#       8
#     8   8   8   8   4   8   8   8
#     4  11  24  37  61  92 136 182 207 244 310 385
#     4  11  21  36  55  89 138 179 211 240 300 390
#     4  11  23  41  67  93 117 167 215 281 335 372
#     4  11  23  43  65  92 125 166 216 280 331 378
#     4  10  26  46  70  92 120 152 228 296 342 378
#     4  11  23  38  60  91 137 177 209 252 311 384
#     4  10  20  33  53  92 131 171 204 256 301 380
#     4  10  20  32  59  93 127 160 218 253 311 387
#
# _framework density 19.931267999999999
#
# number of rings (size 3 to 8) (size 9 to 14) (size 15 to 20)
#    0.000    1.333    5.333    0.400    1.867    2.667 
#    0.000    0.667    0.000    4.000    0.000    0.000 
#    0.000    0.000    0.000    0.000    0.000    0.000 
#
# Total GULP energy -167090.262652 kJ/mol
# GULP energy per Si atom -5569.675422 kJ/mol
# Density = 1.988590 g / cm^3
# Si number density = 19.931268 Si / 1000 Ang^3
#
#
#
# Elastic Constant Matrix: (Units=GPa)
#
#
# Indices 1 2 3 4 5 6 
#
# 1 37.5851 13.6921 28.1619 0.0039 0.2512 -0.0027
# 2 13.6921 87.1683 33.5906 0.0067 -8.3854 -0.0053
# 3 28.1619 33.5906 103.3439 0.0002 -3.6495 -0.0018
# 4 0.0039 0.0067 0.0002 39.3849 0.0003 -0.9588
# 5 0.2512 -8.3854 -3.6495 0.0003 20.8078 0.0010
# 6 -0.0027 -0.0053 -0.0018 -0.9588 0.0010 14.9397
#
#
#
# Elastic Compliance Matrix: (Units=1/GPa)
#
#
# Indices 1 2 3 4 5 6 
#
# 1 0.033898 -0.002286 -0.008595 -0.000003 -0.002838 0.000004
# 2 -0.002286 0.013715 -0.003661 -0.000002 0.004912 0.000004
# 3 -0.008595 -0.003661 0.013242 0.000001 0.000951 -0.000001
# 4 -0.000003 -0.000002 0.000001 0.025430 -0.000001 0.001632
# 5 -0.002838 0.004912 0.000951 -0.000001 0.050239 -0.000002
# 6 0.000004 0.000004 -0.000001 0.001632 -0.000002 0.067040
#
#
# Mechanical properties :
#
#
# Convention : Reuss Voigt Hill
#
# Bulk Modulus (GPa) = 31.47505 42.10961 36.79233
# Shear Modulus (GPa) = 20.55597 25.20334 22.87965
#
# Velocity S-wave (km/s) = 3.21494 3.55986 3.39178
# Velocity P-wave (km/s) = 5.44125 6.17009 5.81710
#
# Compressibility (1/GPa) = 0.03177120
#
# Stress axis : x y z
#
# Youngs Moduli (GPa) = 29.50046 72.91520 75.51601
#
# Poissons Ratio (x) = 0.16665 0.64904
# Poissons Ratio (y) = 0.06742 0.27650
# Poissons Ratio (z) = 0.25355 0.26697
#
# Static dielectric constant tensor:
#      x y z
#    x 1.693060 0.000000 0.013620 
#    y 0.000000 1.739210 -0.000010 
#    z 0.013620 -0.000010 1.808220 
# 
# From -- ./inp_files/258421.got.cif
#   From: 2010.05.17/outbox.cif.g08.bks.cpg/sg15_130_cif.got.tgz:258421.got - 2010.06.03 18:47:42.
