data_PCOD9268114
_publ_section_title
;
Structure prediction by ZEFSAII (Michael W. Deem and Ramdas Pophale) SiO2 
 PCOD9268114
Probable space group: C 2/C
;
_chemical_formula_sum "Si O2"
_cell_formula_units_Z 48
_cell_length_a 10.241898
_cell_length_b 16.026082
_cell_length_c 14.793001
_cell_angle_alpha 90.000000
_cell_angle_beta 58.695826
_cell_angle_gamma 90.000000
_cell_volume 2074.607758
_symmetry_space_group_name_H-M "C 2/C"
_symmetry_group_IT_number 15
_symmetry_cell_setting 'monoclinic'
loop_
_space_group_symop_operation_xyz
x,y,z
-x,y,1/2-z
-x,-y,-z
x,-y,1/2+z
1/2+x,1/2+y,z
1/2-x,1/2+y,1/2-z
1/2-x,1/2-y,-z
1/2+x,1/2-y,1/2+z
loop_
_atom_site_type_symbol
_atom_site_label
_atom_site_fract_x
_atom_site_fract_y
_atom_site_fract_z
Si Si1 0.533675 0.173044 0.903514
Si Si2 0.177845 0.930037 0.191485
Si Si3 0.798979 0.071176 0.165470
Si Si4 0.632932 0.995249 0.547791
Si Si5 0.933105 0.844276 0.866801
Si Si6 0.380413 0.144854 0.118080
O O1 0.709783 0.147648 0.832349
O O2 0.480158 0.248809 0.862053
O O3 0.439599 0.087638 0.912826
O O4 0.500984 0.201960 0.020154
O O5 0.000000 0.907820 0.250000
O O6 0.195667 0.993798 0.267880
O O7 0.245325 0.975234 0.076563
O O8 0.713560 0.040411 0.107902
O O9 0.027031 0.104763 0.408469
O O10 0.701408 0.143070 0.255026
O O11 0.483968 0.938354 0.583118
O O12 0.756665 0.847697 0.905788
O O13 0.000000 0.880660 0.750000
#
# Coordination Sequence:
#
# PCOD9268114 Si02
#       6
#     8   8   8   8   8   8
#     4  11  22  41  68 101 126 174 232 281 322 398
#     4  11  23  43  66  97 146 177 223 291 340 388
#     4  11  22  40  67  96 136 183 220 267 348 409
#     4  11  23  40  74 101 124 182 237 270 332 409
#     4  10  24  40  65  96 138 178 217 277 346 402
#     4  10  19  42  65  94 137 174 210 277 340 395
#
# _framework density 23.136904999999999
#
# number of rings (size 3 to 8) (size 9 to 14) (size 15 to 20)
#    0.000    1.333    3.333    3.500    2.333    0.667 
#    0.000   10.000    0.000    0.000    0.000    0.000 
#    0.000    0.000    0.000    0.000    0.000    0.000 
#
# Total GULP energy -133660.571396 kJ/mol
# GULP energy per Si atom -5569.190475 kJ/mol
# Density = 2.308424 g / cm^3
# Si number density = 23.136905 Si / 1000 Ang^3
#
#
#
# Elastic Constant Matrix: (Units=GPa)
#
#
# Indices 1 2 3 4 5 6 
#
# 1 186.9357 74.4412 67.4351 0.0000 -9.5633 0.0000
# 2 74.4412 64.2618 20.2654 0.0000 -2.5684 0.0000
# 3 67.4351 20.2654 68.9878 0.0000 -6.8392 0.0000
# 4 0.0000 0.0000 0.0000 9.8864 0.0000 2.7182
# 5 -9.5633 -2.5684 -6.8392 0.0000 45.7749 0.0000
# 6 0.0000 0.0000 0.0000 2.7182 0.0000 38.3493
#
#
#
# Elastic Compliance Matrix: (Units=1/GPa)
#
#
# Indices 1 2 3 4 5 6 
#
# 1 0.014345 -0.013434 -0.010002 0.000000 0.000749 0.000000
# 2 -0.013434 0.029732 0.004349 0.000000 -0.000489 0.000000
# 3 -0.010002 0.004349 0.023155 0.000000 0.001614 0.000000
# 4 0.000000 0.000000 0.000000 0.103160 0.000000 -0.007312
# 5 0.000749 -0.000489 0.001614 0.000000 0.022216 0.000000
# 6 0.000000 0.000000 0.000000 -0.007312 0.000000 0.026594
#
#
# Mechanical properties :
#
#
# Convention : Reuss Voigt Hill
#
# Bulk Modulus (GPa) = 34.41318 71.60766 53.01042
# Shear Modulus (GPa) = 18.72223 29.33836 24.03030
#
# Velocity S-wave (km/s) = 2.84772 3.56481 3.22625
# Velocity P-wave (km/s) = 5.07136 6.92536 6.06956
#
# Compressibility (1/GPa) = 0.02905863
#
# Stress axis : x y z
#
# Youngs Moduli (GPa) = 69.70848 33.63385 43.18754
#
# Poissons Ratio (x) = 0.45183 0.43197
# Poissons Ratio (y) = 0.93644 -0.18782
# Poissons Ratio (z) = 0.69724 -0.14627
#
# Static dielectric constant tensor:
#      x y z
#    x 1.943170 0.000000 -0.026520 
#    y 0.000000 1.896630 0.000000 
#    z -0.026520 0.000000 2.016280 
# 
# From -- ./inp_files/191507.got.cif
#   From: 2010.05.17/outbox.cif.g08.bks.cpg/sg15_96_cif.got.tgz:191507.got - 2010.06.03 18:47:42.
