data_PCOD9268495
_publ_section_title
;
Structure prediction by ZEFSAII (Michael W. Deem and Ramdas Pophale) SiO2 
 PCOD9268495
Probable space group: C 2/C
;
_chemical_formula_sum "Si O2"
_cell_formula_units_Z 60
_cell_length_a 22.521117
_cell_length_b 12.625731
_cell_length_c 18.886415
_cell_angle_alpha 90.000000
_cell_angle_beta 154.544246
_cell_angle_gamma 90.000000
_cell_volume 2308.216290
_symmetry_space_group_name_H-M "C 2/C"
_symmetry_group_IT_number 15
_symmetry_cell_setting 'monoclinic'
loop_
_space_group_symop_operation_xyz
x,y,z
-x,y,1/2-z
-x,-y,-z
x,-y,1/2+z
1/2+x,1/2+y,z
1/2-x,1/2+y,1/2-z
1/2-x,1/2-y,-z
1/2+x,1/2-y,1/2+z
loop_
_atom_site_type_symbol
_atom_site_label
_atom_site_fract_x
_atom_site_fract_y
_atom_site_fract_z
Si Si1 0.663543 0.901328 0.863127
Si Si2 0.500000 0.093941 0.750000
Si Si3 0.246634 0.812381 0.924174
Si Si4 0.773494 0.180249 0.821385
Si Si5 0.646128 0.891673 0.618583
Si Si6 0.634903 0.557527 0.049455
Si Si7 0.108510 0.960574 0.300526
Si Si8 0.938745 0.604372 0.021435
O O1 0.604534 0.017894 0.819395
O O2 0.772829 0.900683 0.916912
O O3 0.519995 0.850859 0.677948
O O4 0.763586 0.884062 0.039025
O O5 0.410663 0.161091 0.599329
O O6 0.203246 0.735630 0.814024
O O7 0.160703 0.920612 0.839705
O O8 0.250000 0.750000 0.000000
O O9 0.886388 0.269535 0.927514
O O10 0.834121 0.067795 0.909968
O O11 0.677206 0.164917 0.648431
O O12 0.561205 0.917840 0.597466
O O13 0.806387 0.896154 0.814789
O O14 0.624225 0.986080 0.539442
O O15 0.477782 0.578898 0.859701
O O16 0.000000 0.967240 0.250000
#
# Coordination Sequence:
#
# PCOD9268495 Si02
#       8
#     8   4   8   8   8   8   8   8
#     4   9  17  35  57  81 106 149 186 227 276 333
#     4  10  20  32  52  80 112 146 182 226 282 350
#     4  11  23  30  46  81 116 146 172 223 288 345
#     4  11  21  32  56  82 112 152 185 233 282 336
#     4   9  19  35  56  77 106 155 191 230 272 334
#     4   9  19  35  54  82 113 145 190 228 285 335
#     4   9  18  33  51  76 110 149 177 228 282 339
#     4   9  19  36  57  79 110 150 199 226 273 345
#
# _framework density 25.9941
#
# number of rings (size 3 to 8) (size 9 to 14) (size 15 to 20)
#    0.000    2.400    0.000    4.000    4.667    0.000 
#    0.000    0.667    5.867    0.800    5.200    0.000 
#    0.000    0.000    0.000    0.000    0.000    0.000 
#
# Total GULP energy -167197.021249 kJ/mol
# GULP energy per Si atom -5573.234042 kJ/mol
# Density = 2.593494 g / cm^3
# Si number density = 25.994100 Si / 1000 Ang^3
#
#
#
# Elastic Constant Matrix: (Units=GPa)
#
#
# Indices 1 2 3 4 5 6 
#
# 1 42.9769 11.0680 21.0340 -0.0002 -8.6550 -0.0001
# 2 11.0680 43.9510 14.8621 -0.0002 -10.3738 -0.0003
# 3 21.0340 14.8621 162.5792 -0.0005 -5.7723 -0.0006
# 4 -0.0002 -0.0002 -0.0005 7.4614 -0.0002 -6.9248
# 5 -8.6550 -10.3738 -5.7723 -0.0002 16.9171 -0.0002
# 6 -0.0001 -0.0003 -0.0006 -6.9248 -0.0002 27.4671
#
#
#
# Elastic Compliance Matrix: (Units=1/GPa)
#
#
# Indices 1 2 3 4 5 6 
#
# 1 0.027804 -0.003390 -0.002891 0.000001 0.011160 0.000000
# 2 -0.003390 0.027594 -0.001564 0.000002 0.014653 0.000001
# 3 -0.002891 -0.001564 0.006662 0.000001 -0.000165 0.000000
# 4 0.000001 0.000002 0.000001 0.174961 0.000004 0.044110
# 5 0.011160 0.014653 -0.000165 0.000004 0.073750 0.000002
# 6 0.000000 0.000001 0.000000 0.044110 0.000002 0.047528
#
#
# Mechanical properties :
#
#
# Convention : Reuss Voigt Hill
#
# Bulk Modulus (GPa) = 21.56576 38.15947 29.86261
# Shear Modulus (GPa) = 12.83879 23.87199 18.35539
#
# Velocity S-wave (km/s) = 2.22482 3.03374 2.66021
# Velocity P-wave (km/s) = 3.86189 5.19455 4.57698
#
# Compressibility (1/GPa) = 0.04636980
#
# Stress axis : x y z
#
# Youngs Moduli (GPa) = 35.96641 36.24025 150.10586
#
# Poissons Ratio (x) = 0.12286 0.43396
# Poissons Ratio (y) = 0.12193 0.23471
# Poissons Ratio (z) = 0.10398 0.05667
#
# Static dielectric constant tensor:
#      x y z
#    x 2.187230 0.000000 -0.064800 
#    y 0.000000 2.091240 0.000000 
#    z -0.064800 0.000000 2.181100 
# 
# From -- ./inp_files/284755.got.cif
#   From: 2010.05.17/outbox.cif.g08.bks.cpg/sg15_143_cif.got.tgz:284755.got - 2010.06.03 18:47:42.
