data_PCOD9268314
_publ_section_title
;
Structure prediction by ZEFSAII (Michael W. Deem and Ramdas Pophale) SiO2 
 PCOD9268314
Probable space group: C 2/C
;
_chemical_formula_sum "Si O2"
_cell_formula_units_Z 64
_cell_length_a 15.823228
_cell_length_b 24.371667
_cell_length_c 8.667636
_cell_angle_alpha 90.000000
_cell_angle_beta 92.724327
_cell_angle_gamma 90.000000
_cell_volume 3338.795828
_symmetry_space_group_name_H-M "C 2/C"
_symmetry_group_IT_number 15
_symmetry_cell_setting 'monoclinic'
loop_
_space_group_symop_operation_xyz
x,y,z
-x,y,1/2-z
-x,-y,-z
x,-y,1/2+z
1/2+x,1/2+y,z
1/2-x,1/2+y,1/2-z
1/2-x,1/2-y,-z
1/2+x,1/2-y,1/2+z
loop_
_atom_site_type_symbol
_atom_site_label
_atom_site_fract_x
_atom_site_fract_y
_atom_site_fract_z
Si Si1 0.849365 0.235585 0.508197
Si Si2 0.552419 0.169282 0.622729
Si Si3 0.902990 0.559583 0.785789
Si Si4 0.567768 0.866875 0.630437
Si Si5 0.671774 0.695501 0.330119
Si Si6 0.144694 0.753943 0.151516
Si Si7 0.251435 0.077980 0.311872
Si Si8 0.203756 0.510135 0.460666
O O1 0.750000 0.250000 0.500000
O O2 0.900496 0.292050 0.489883
O O3 0.866373 0.204823 0.346075
O O4 0.869950 0.215559 0.684673
O O5 0.500000 0.200415 0.750000
O O6 0.613356 0.125133 0.706231
O O7 0.484179 0.131319 0.531313
O O8 0.840570 0.531235 0.660974
O O9 0.000000 0.546383 0.750000
O O10 0.871766 0.536474 0.946624
O O11 0.500000 0.884396 0.750000
O O12 0.592310 0.802758 0.648262
O O13 0.651676 0.902341 0.650030
O O14 0.757707 0.732681 0.337364
O O15 0.628357 0.714565 0.488007
O O16 0.696250 0.631536 0.340140
O O17 0.249390 0.056322 0.136231
O O18 0.237623 0.026280 0.422649
#
# Coordination Sequence:
#
# PCOD9268314 Si02
#       8
#     8   8   8   8   8   8   8   8
#     4  10  20  33  51  74  97 133 176 217 258 320
#     4  11  21  32  48  74 101 137 179 217 261 312
#     4  10  20  31  45  65  92 132 177 219 259 299
#     4  11  19  31  50  69 104 136 173 209 261 310
#     4   9  19  34  52  70  99 126 176 216 262 315
#     4   9  18  33  50  76  95 131 168 215 259 316
#     4  10  21  36  49  71  95 143 176 225 263 295
#     4  10  21  33  46  64  98 127 184 226 263 289
#
# _framework density 19.168586999999999
#
# number of rings (size 3 to 8) (size 9 to 14) (size 15 to 20)
#    0.000    2.000    1.250    3.375    3.500    7.000 
#    2.250    0.000    0.000    0.000    0.000    0.000 
#    0.000    0.000    0.000   14.625    0.000    0.000 
#
# Total GULP energy -178269.578287 kJ/mol
# GULP energy per Si atom -5570.924321 kJ/mol
# Density = 1.912496 g / cm^3
# Si number density = 19.168587 Si / 1000 Ang^3
#
#
#
# Elastic Constant Matrix: (Units=GPa)
#
#
# Indices 1 2 3 4 5 6 
#
# 1 7.5229 10.9880 12.8881 0.0000 -3.8153 0.0000
# 2 10.9880 68.0157 41.0723 0.0000 -10.6119 0.0000
# 3 12.8881 41.0723 138.7412 0.0000 -19.9487 0.0000
# 4 0.0000 0.0000 0.0000 27.1937 0.0000 -2.5462
# 5 -3.8153 -10.6119 -19.9487 0.0000 14.1054 0.0000
# 6 0.0000 0.0000 0.0000 -2.5462 0.0000 16.0391
#
#
#
# Elastic Compliance Matrix: (Units=1/GPa)
#
#
# Indices 1 2 3 4 5 6 
#
# 1 0.191037 -0.022515 -0.007640 0.000000 0.023929 0.000000
# 2 -0.022515 0.021211 -0.003476 0.000000 0.004952 0.000000
# 3 -0.007640 -0.003476 0.010385 0.000000 0.010006 0.000000
# 4 0.000000 0.000000 0.000000 0.037328 0.000000 0.005926
# 5 0.023929 0.004952 0.010006 0.000000 0.095244 0.000000
# 6 0.000000 0.000000 0.000000 0.005926 0.000000 0.063288
#
#
# Mechanical properties :
#
#
# Convention : Reuss Voigt Hill
#
# Bulk Modulus (GPa) = 6.43618 38.24184 22.33901
# Shear Modulus (GPa) = 9.30152 21.42307 15.36229
#
# Velocity S-wave (km/s) = 2.20522 3.34670 2.83403
# Velocity P-wave (km/s) = 3.13831 5.90994 4.73162
#
# Compressibility (1/GPa) = 0.15537174
#
# Stress axis : x y z
#
# Youngs Moduli (GPa) = 5.23458 47.14456 96.29295
#
# Poissons Ratio (x) = 1.06147 0.73568
# Poissons Ratio (y) = 0.11786 0.33469
# Poissons Ratio (z) = 0.03999 0.16386
#
# Static dielectric constant tensor:
#      x y z
#    x 1.452620 0.000000 0.207560 
#    y 0.000000 1.684890 0.000000 
#    z 0.207560 0.000000 1.583770 
# 
# From -- ./inp_files/51260.got.cif
#   From: 2010.05.17/outbox.cif.g08.bks.cpg/sg15_26_cif.got.tgz:51260.got - 2010.06.03 18:47:42.
