data_PCOD9268763
_publ_section_title
;
Structure prediction by ZEFSAII (Michael W. Deem and Ramdas Pophale) SiO2 
 PCOD9268763
Probable space group: C 2/C
;
_chemical_formula_sum "Si O2"
_cell_formula_units_Z 44
_cell_length_a 10.681922
_cell_length_b 13.193288
_cell_length_c 21.186505
_cell_angle_alpha 90.000000
_cell_angle_beta 41.003551
_cell_angle_gamma 90.000000
_cell_volume 1959.005447
_symmetry_space_group_name_H-M "C 2/C"
_symmetry_group_IT_number 15
_symmetry_cell_setting 'monoclinic'
loop_
_space_group_symop_operation_xyz
x,y,z
-x,y,1/2-z
-x,-y,-z
x,-y,1/2+z
1/2+x,1/2+y,z
1/2-x,1/2+y,1/2-z
1/2-x,1/2-y,-z
1/2+x,1/2-y,1/2+z
loop_
_atom_site_type_symbol
_atom_site_label
_atom_site_fract_x
_atom_site_fract_y
_atom_site_fract_z
Si Si1 0.363039 0.174938 0.503993
Si Si2 0.750116 0.369490 0.506427
Si Si3 0.473866 0.466382 0.350846
Si Si4 0.500000 0.912677 0.250000
Si Si5 0.607436 0.641593 0.929225
Si Si6 0.902862 0.502759 0.652782
O O1 0.250000 0.250000 0.500000
O O2 0.490184 0.258408 0.490172
O O3 0.199115 0.110160 0.601510
O O4 0.506566 0.098911 0.412011
O O5 0.750000 0.250000 0.500000
O O6 0.623813 0.423471 0.607219
O O7 0.652957 0.411253 0.478322
O O8 0.965233 0.410762 0.428895
O O9 0.524636 0.421063 0.401652
O O10 0.675236 0.478768 0.238357
O O11 0.678401 0.838665 0.175104
O O12 0.541121 0.984477 0.294374
#
# Coordination Sequence:
#
# PCOD9268763 Si02
#       6
#     8   8   8   4   8   8
#     4   9  18  31  51  76 102 130 163 204 249 297
#     4  10  20  33  52  76 100 131 170 209 247 292
#     4   9  18  33  53  73 101 133 162 207 249 293
#     4   8  16  30  52  74  98 132 168 206 242 288
#     4   9  17  32  52  75 101 130 167 206 248 295
#     4   9  18  32  49  74 102 131 168 204 247 296
#
# _framework density 22.460374999999999
#
# number of rings (size 3 to 8) (size 9 to 14) (size 15 to 20)
#    0.000    2.909    0.000    0.545    0.000   10.182 
#    0.000    3.636    0.000    9.818    0.000    0.000 
#    0.000    0.000    0.000    0.000    0.000    0.000 
#
# Total GULP energy -122475.485006 kJ/mol
# GULP energy per Si atom -5567.067500 kJ/mol
# Density = 2.240925 g / cm^3
# Si number density = 22.460375 Si / 1000 Ang^3
#
#
#
# Elastic Constant Matrix: (Units=GPa)
#
#
# Indices 1 2 3 4 5 6 
#
# 1 75.2465 8.6666 50.4931 0.0000 -23.0215 0.0000
# 2 8.6666 109.8667 84.6768 0.0000 -33.0461 0.0000
# 3 50.4931 84.6768 179.0237 -0.0001 -46.1679 0.0000
# 4 0.0000 0.0000 -0.0001 23.2847 0.0000 -3.1589
# 5 -23.0215 -33.0461 -46.1679 0.0000 37.5313 0.0000
# 6 0.0000 0.0000 0.0000 -3.1589 0.0000 8.9042
#
#
#
# Elastic Compliance Matrix: (Units=1/GPa)
#
#
# Indices 1 2 3 4 5 6 
#
# 1 0.019535 0.005896 -0.005667 0.000000 0.010202 0.000000
# 2 0.005896 0.017185 -0.007259 0.000000 0.009818 0.000000
# 3 -0.005667 -0.007259 0.011824 0.000000 0.004677 0.000000
# 4 0.000000 0.000000 0.000000 0.045118 0.000000 0.016006
# 5 0.010202 0.009818 0.004677 0.000000 0.047300 0.000000
# 6 0.000000 0.000000 0.000000 0.016006 0.000000 0.117984
#
#
# Mechanical properties :
#
#
# Convention : Reuss Voigt Hill
#
# Bulk Modulus (GPa) = 29.00087 72.42334 50.71210
# Shear Modulus (GPa) = 17.57458 28.63074 23.10266
#
# Velocity S-wave (km/s) = 2.80030 3.57420 3.21065
# Velocity P-wave (km/s) = 4.83690 7.02482 6.03091
#
# Compressibility (1/GPa) = 0.03448173
#
# Stress axis : x y z
#
# Youngs Moduli (GPa) = 51.19034 58.19119 84.57399
#
# Poissons Ratio (x) = -0.34307 0.47931
# Poissons Ratio (y) = -0.30180 0.61394
# Poissons Ratio (z) = 0.29011 0.42242
#
# Static dielectric constant tensor:
#      x y z
#    x 1.956780 0.000000 -0.010830 
#    y 0.000000 1.810260 0.000000 
#    z -0.010830 0.000000 1.859510 
# 
# From -- ./inp_files/151318.got.cif
#   From: 2010.05.17/outbox.cif.g08.bks.cpg/sg15_76_cif.got.tgz:151318.got - 2010.06.03 18:47:42.
