data_PCOD9268916
_publ_section_title
;
Structure prediction by ZEFSAII (Michael W. Deem and Ramdas Pophale) SiO2 
 PCOD9268916
Probable space group: C 2/C
;
_chemical_formula_sum "Si O2"
_cell_formula_units_Z 48
_cell_length_a 26.571120
_cell_length_b 11.126800
_cell_length_c 14.523425
_cell_angle_alpha 90.000000
_cell_angle_beta 154.379630
_cell_angle_gamma 90.000000
_cell_volume 1856.697900
_symmetry_space_group_name_H-M "C 2/C"
_symmetry_group_IT_number 15
_symmetry_cell_setting 'monoclinic'
loop_
_space_group_symop_operation_xyz
x,y,z
-x,y,1/2-z
-x,-y,-z
x,-y,1/2+z
1/2+x,1/2+y,z
1/2-x,1/2+y,1/2-z
1/2-x,1/2-y,-z
1/2+x,1/2-y,1/2+z
loop_
_atom_site_type_symbol
_atom_site_label
_atom_site_fract_x
_atom_site_fract_y
_atom_site_fract_z
Si Si1 0.011001 0.058678 0.157705
Si Si2 0.842620 0.479473 0.424099
Si Si3 0.222318 0.080047 0.059199
Si Si4 0.667526 0.648895 0.149345
Si Si5 0.897282 0.552530 0.209923
Si Si6 0.121692 0.280705 0.251401
O O1 0.129472 0.981236 0.339645
O O2 0.029601 0.187859 0.143770
O O3 0.000000 0.071565 0.250000
O O4 0.907121 0.972063 0.952987
O O5 0.764184 0.477433 0.202292
O O6 0.805651 0.619258 0.387275
O O7 0.825710 0.426985 0.497819
O O8 0.970013 0.443462 0.602944
O O9 0.333647 0.125593 0.186402
O O10 0.157273 0.169457 0.022708
O O11 0.624945 0.746738 0.149207
O O12 0.896014 0.417414 0.249542
O O13 0.250000 0.250000 0.500000
#
# Coordination Sequence:
#
# PCOD9268916 Si02
#       6
#     8   8   8   8   8   8
#     4  10  20  33  56  81 112 155 189 231 286 357
#     4   9  20  33  53  85 114 146 197 236 295 357
#     4   9  18  36  55  78 109 151 195 228 289 348
#     4   9  20  35  51  81 115 157 191 228 287 367
#     4  11  20  34  56  86 119 145 181 260 297 337
#     4  12  20  32  55  88 124 139 189 250 306 337
#
# _framework density 25.852347999999999
#
# number of rings (size 3 to 8) (size 9 to 14) (size 15 to 20)
#    1.000    1.000    3.333    1.000    2.333    0.000 
#    0.000    0.000    0.000    1.000   26.000    0.000 
#    0.000    0.000    0.000    0.000    0.000    0.000 
#
# Total GULP energy -133680.503036 kJ/mol
# GULP energy per Si atom -5570.020960 kJ/mol
# Density = 2.579351 g / cm^3
# Si number density = 25.852348 Si / 1000 Ang^3
#
#
#
# Elastic Constant Matrix: (Units=GPa)
#
#
# Indices 1 2 3 4 5 6 
#
# 1 179.2964 53.2272 41.5425 0.0000 2.4573 0.0000
# 2 53.2272 101.1889 8.3080 0.0000 -5.8688 0.0000
# 3 41.5425 8.3080 89.6975 0.0000 1.8469 0.0000
# 4 0.0000 0.0000 0.0000 12.9106 0.0000 3.2775
# 5 2.4573 -5.8688 1.8469 0.0000 28.6107 0.0000
# 6 0.0000 0.0000 0.0000 3.2775 0.0000 -0.8468
#
#
#
# Elastic Compliance Matrix: (Units=1/GPa)
#
#
# Indices 1 2 3 4 5 6 
#
# 1 0.007406 -0.003714 -0.003061 0.000000 -0.001200 0.000000
# 2 -0.003714 0.011949 0.000557 0.000000 0.002734 0.000000
# 3 -0.003061 0.000557 0.012524 0.000000 -0.000431 0.000000
# 4 0.000000 0.000000 0.000000 0.039068 0.000000 0.151216
# 5 -0.001200 0.002734 -0.000431 0.000000 0.035644 0.000000
# 6 0.000000 0.000000 0.000000 0.151216 0.000000 -0.595670
#
#
# Mechanical properties :
#
#
# Convention : Reuss Voigt Hill
#
# Bulk Modulus (GPa) = 51.43455 64.03759 57.73607
# Shear Modulus (GPa) = -10.63459 25.94191 7.65366
#
# Velocity S-wave (km/s) = -2.03040 3.17119 1.72249
# Velocity P-wave (km/s) = 3.80026 6.18327 5.13200
#
# Compressibility (1/GPa) = 0.01944219
#
# Stress axis : x y z
#
# Youngs Moduli (GPa) = 135.03399 83.69016 79.84925
#
# Poissons Ratio (x) = 0.31080 0.24443
# Poissons Ratio (y) = 0.50148 -0.04447
# Poissons Ratio (z) = 0.41335 -0.04661
#
# Static dielectric constant tensor:
#      x y z
#    x 2.141130 0.000000 -0.003660 
#    y 0.000000 2.146560 0.000000 
#    z -0.003660 0.000000 2.112050 
# 
# From -- ./inp_files/178203.got.cif
#   From: 2010.05.17/outbox.cif.g08.bks.cpg/sg15_90_cif.got.tgz:178203.got - 2010.06.03 18:47:42.
