data_PCOD9268339
_publ_section_title
;
Structure prediction by ZEFSAII (Michael W. Deem and Ramdas Pophale) SiO2 
 PCOD9268339
Probable space group: C 2/C
;
_chemical_formula_sum "Si O2"
_cell_formula_units_Z 36
_cell_length_a 25.736958
_cell_length_b 8.470589
_cell_length_c 8.946314
_cell_angle_alpha 90.000000
_cell_angle_beta 139.684973
_cell_angle_gamma 90.000000
_cell_volume 1261.863514
_symmetry_space_group_name_H-M "C 2/C"
_symmetry_group_IT_number 15
_symmetry_cell_setting 'monoclinic'
loop_
_space_group_symop_operation_xyz
x,y,z
-x,y,1/2-z
-x,-y,-z
x,-y,1/2+z
1/2+x,1/2+y,z
1/2-x,1/2+y,1/2-z
1/2-x,1/2-y,-z
1/2+x,1/2-y,1/2+z
loop_
_atom_site_type_symbol
_atom_site_label
_atom_site_fract_x
_atom_site_fract_y
_atom_site_fract_z
Si Si1 0.405255 0.837820 0.739183
Si Si2 0.263552 0.811312 0.226060
Si Si3 0.500000 0.580397 0.750000
Si Si4 0.871857 0.111631 0.247497
Si Si5 0.100357 0.660712 0.921247
O O1 0.311830 0.837403 0.482699
O O2 0.451046 0.694907 0.757699
O O3 0.412463 0.838433 0.931934
O O4 0.432025 0.003305 0.725447
O O5 0.331333 0.750769 0.259214
O O6 0.196113 0.679351 0.106993
O O7 0.206758 0.942714 0.018662
O O8 0.427123 0.516827 0.483380
O O9 0.926393 0.189010 0.237001
#
# Coordination Sequence:
#
# PCOD9268339 Si02
#       5
#     8   8   4   8   8
#     4  11  20  31  51  71 106 125 169 196 247 292
#     4   8  17  35  48  68  99 128 165 204 231 294
#     4  10  20  32  46  74  98 142 152 198 250 296
#     4   8  17  32  50  65 102 122 165 193 243 288
#     4  10  20  31  49  75  98 136 160 201 240 293
#
# _framework density 28.529235
#
# number of rings (size 3 to 8) (size 9 to 14) (size 15 to 20)
#    1.333    1.333    0.000    3.333    0.000    4.444 
#    0.000    0.000    0.000    0.000    0.000    6.222 
#    0.000    0.000    0.000    0.000    0.000    0.000 
#
# Total GULP energy -100520.216308 kJ/mol
# GULP energy per Si atom -5584.456462 kJ/mol
# Density = 2.846430 g / cm^3
# Si number density = 28.529235 Si / 1000 Ang^3
#
#
#
# Elastic Constant Matrix: (Units=GPa)
#
#
# Indices 1 2 3 4 5 6 
#
# 1 153.4629 21.1436 92.1455 0.0000 -42.0088 0.0000
# 2 21.1436 76.8894 54.1057 0.0000 -17.4625 0.0000
# 3 92.1455 54.1057 228.8147 0.0000 -2.2748 0.0000
# 4 0.0000 0.0000 0.0000 34.8915 0.0000 -4.4569
# 5 -42.0088 -17.4625 -2.2748 0.0000 72.0106 0.0000
# 6 0.0000 0.0000 0.0000 -4.4569 0.0000 32.4983
#
#
#
# Elastic Compliance Matrix: (Units=1/GPa)
#
#
# Indices 1 2 3 4 5 6 
#
# 1 0.010973 0.001881 -0.004797 0.000000 0.006706 0.000000
# 2 0.001881 0.016957 -0.004717 0.000000 0.005060 0.000000
# 3 -0.004797 -0.004717 0.007381 0.000000 -0.003709 0.000000
# 4 0.000000 0.000000 0.000000 0.029171 0.000000 0.004001
# 5 0.006706 0.005060 -0.003709 0.000000 0.018909 0.000000
# 6 0.000000 0.000000 0.000000 0.004001 0.000000 0.031319
#
#
# Mechanical properties :
#
#
# Convention : Reuss Voigt Hill
#
# Bulk Modulus (GPa) = 49.88767 88.21741 69.05254
# Shear Modulus (GPa) = 36.58775 47.33157 41.95966
#
# Velocity S-wave (km/s) = 3.58504 4.07757 3.83921
# Velocity P-wave (km/s) = 5.88737 7.29093 6.62642
#
# Compressibility (1/GPa) = 0.02004503
#
# Stress axis : x y z
#
# Youngs Moduli (GPa) = 91.13155 58.97310 135.48882
#
# Poissons Ratio (x) = -0.11094 0.64996
# Poissons Ratio (y) = -0.17144 0.63909
# Poissons Ratio (z) = 0.43717 0.27817
#
# Static dielectric constant tensor:
#      x y z
#    x 2.164770 0.000000 0.007860 
#    y 0.000000 2.284670 0.000000 
#    z 0.007860 0.000000 2.214870 
# 
# From -- ./inp_files/37523.got.cif
#   From: 2010.05.17/outbox.cif.g08.bks.cpg/sg15_19_cif.got.tgz:37523.got - 2010.06.03 18:47:42.
