data_PCOD9268461
_publ_section_title
;
Structure prediction by ZEFSAII (Michael W. Deem and Ramdas Pophale) SiO2 
 PCOD9268461
Probable space group: C 2/C
;
_chemical_formula_sum "Si O2"
_cell_formula_units_Z 64
_cell_length_a 25.081665
_cell_length_b 18.435222
_cell_length_c 22.342783
_cell_angle_alpha 90.000000
_cell_angle_beta 19.561565
_cell_angle_gamma 90.000000
_cell_volume 3459.017867
_symmetry_space_group_name_H-M "C 2/C"
_symmetry_group_IT_number 15
_symmetry_cell_setting 'monoclinic'
loop_
_space_group_symop_operation_xyz
x,y,z
-x,y,1/2-z
-x,-y,-z
x,-y,1/2+z
1/2+x,1/2+y,z
1/2-x,1/2+y,1/2-z
1/2-x,1/2-y,-z
1/2+x,1/2-y,1/2+z
loop_
_atom_site_type_symbol
_atom_site_label
_atom_site_fract_x
_atom_site_fract_y
_atom_site_fract_z
Si Si1 0.988061 0.573758 0.193325
Si Si2 0.808948 0.142564 0.647671
Si Si3 0.290580 0.217408 0.392697
Si Si4 0.633526 0.287159 0.842125
Si Si5 0.017367 0.174120 0.594901
Si Si6 0.336244 0.988088 0.253074
Si Si7 0.199035 0.940136 0.218649
Si Si8 0.322178 0.073632 0.148898
O O1 0.924561 0.655847 0.256954
O O2 0.864961 0.523574 0.286738
O O3 0.000000 0.553164 0.250000
O O4 0.155694 0.567538 0.981321
O O5 0.685494 0.207677 0.767564
O O6 0.790880 0.075724 0.621291
O O7 0.771174 0.107862 0.753066
O O8 0.982140 0.178856 0.468636
O O9 0.250000 0.250000 0.500000
O O10 0.139179 0.182535 0.520233
O O11 0.359550 0.281626 0.279217
O O12 0.778778 0.343798 0.683767
O O13 0.587892 0.289663 0.960657
O O14 0.960797 0.092644 0.640288
O O15 0.311109 0.051380 0.230378
O O16 0.503493 0.950001 0.057063
O O17 0.198968 0.021908 0.243392
#
# Coordination Sequence:
#
# PCOD9268461 Si02
#       8
#     8   8   8   8   8   8   8   8
#     4  11  21  35  53  71  97 134 175 211 246 290
#     4  10  20  32  50  77 106 131 164 204 254 309
#     4  12  23  34  48  68 100 141 182 214 240 278
#     4  11  20  31  52  78 103 130 162 205 258 312
#     4  11  21  32  48  69 101 137 170 210 249 292
#     4   9  19  34  51  72 101 134 166 205 252 303
#     4   9  20  35  51  74 103 134 168 208 251 300
#     4   9  18  33  52  74 102 132 163 204 258 311
#
# _framework density 18.502362000000002
#
# number of rings (size 3 to 8) (size 9 to 14) (size 15 to 20)
#    0.000    1.750    0.000    7.125    0.000    5.500 
#    0.000    0.000    0.000    0.000    0.000    7.875 
#    0.000    0.000    0.000    0.000    0.000    0.000 
#
# Total GULP energy -178821.230892 kJ/mol
# GULP energy per Si atom -5588.163465 kJ/mol
# Density = 1.846025 g / cm^3
# Si number density = 18.502362 Si / 1000 Ang^3
#
#
#
# Elastic Constant Matrix: (Units=GPa)
#
#
# Indices 1 2 3 4 5 6 
#
# 1 87.7232 15.8883 5.8232 0.0191 -5.5789 -0.0090
# 2 15.8883 60.7876 -4.5994 0.0283 3.7322 -0.0131
# 3 5.8232 -4.5994 32.6188 0.0332 -2.5460 -0.0167
# 4 0.0191 0.0283 0.0332 29.2709 -0.0073 -11.4548
# 5 -5.5789 3.7322 -2.5460 -0.0073 20.9186 0.0004
# 6 -0.0090 -0.0131 -0.0167 -11.4548 0.0004 26.1720
#
#
#
# Elastic Compliance Matrix: (Units=1/GPa)
#
#
# Indices 1 2 3 4 5 6 
#
# 1 0.012461 -0.003669 -0.002455 -0.000001 0.003679 0.000001
# 2 -0.003669 0.017861 0.002876 -0.000019 -0.003815 0.000001
# 3 -0.002455 0.002876 0.031711 -0.000034 0.002692 0.000006
# 4 -0.000001 -0.000019 -0.000034 0.041225 0.000013 0.018043
# 5 0.003679 -0.003815 0.002692 0.000013 0.049794 0.000006
# 6 0.000001 0.000001 0.000006 0.018043 0.000006 0.046106
#
#
# Mechanical properties :
#
#
# Convention : Reuss Voigt Hill
#
# Bulk Modulus (GPa) = 18.00561 23.92818 20.96690
# Shear Modulus (GPa) = 22.30495 26.20678 24.25587
#
# Velocity S-wave (km/s) = 3.47583 3.76759 3.62465
# Velocity P-wave (km/s) = 5.08538 5.64685 5.37346
#
# Compressibility (1/GPa) = 0.05553824
#
# Stress axis : x y z
#
# Youngs Moduli (GPa) = 80.25131 55.98658 31.53478
#
# Poissons Ratio (x) = 0.20539 0.07741
# Poissons Ratio (y) = 0.29441 -0.09068
# Poissons Ratio (z) = 0.19699 -0.16100
#
# Static dielectric constant tensor:
#      x y z
#    x 1.640370 0.000000 -0.054550 
#    y 0.000000 1.646440 0.000010 
#    z -0.054550 0.000010 1.669940 
# 
# From -- ./inp_files/255999.got.cif
#   From: 2010.05.17/outbox.cif.g08.bks.cpg/sg15_128_cif.got.tgz:255999.got - 2010.06.03 18:47:42.
