data_PCOD9268705
_publ_section_title
;
Structure prediction by ZEFSAII (Michael W. Deem and Ramdas Pophale) SiO2 
 PCOD9268705
Probable space group: C 2/C
;
_chemical_formula_sum "Si O2"
_cell_formula_units_Z 52
_cell_length_a 14.058656
_cell_length_b 28.001078
_cell_length_c 20.456370
_cell_angle_alpha 90.000000
_cell_angle_beta 159.404213
_cell_angle_gamma 90.000000
_cell_volume 2832.757540
_symmetry_space_group_name_H-M "C 2/C"
_symmetry_group_IT_number 15
_symmetry_cell_setting 'monoclinic'
loop_
_space_group_symop_operation_xyz
x,y,z
-x,y,1/2-z
-x,-y,-z
x,-y,1/2+z
1/2+x,1/2+y,z
1/2-x,1/2+y,1/2-z
1/2-x,1/2-y,-z
1/2+x,1/2-y,1/2+z
loop_
_atom_site_type_symbol
_atom_site_label
_atom_site_fract_x
_atom_site_fract_y
_atom_site_fract_z
Si Si1 0.675769 0.622458 0.725339
Si Si2 0.000000 0.896535 0.250000
Si Si3 0.000000 0.608121 0.750000
Si Si4 0.996726 0.312304 0.141569
Si Si5 0.024835 0.461109 0.604111
Si Si6 0.195012 0.442202 0.571556
Si Si7 0.000000 0.768596 0.750000
Si Si8 0.002970 0.942690 0.504283
O O1 0.539970 0.630698 0.707682
O O2 0.520119 0.583736 0.580270
O O3 0.735701 0.669735 0.722916
O O4 0.975531 0.599663 0.928321
O O5 0.257445 0.930731 0.421711
O O6 0.913070 0.643913 0.635617
O O7 0.748066 0.577392 0.614386
O O8 0.055578 0.266635 0.224754
O O9 0.757612 0.299189 0.937947
O O10 0.923918 0.515364 0.550939
O O11 0.191826 0.462353 0.643567
O O12 0.211089 0.435072 0.776497
O O13 0.500000 0.429377 0.750000
O O14 0.000000 0.000000 0.500000
#
# Coordination Sequence:
#
# PCOD9268705 Si02
#       8
#     8   4   4   8   8   8   4   8
#     4  10  22  37  55  82 113 153 195 241 283 339
#     4  10  22  40  51  72 115 157 200 235 262 342
#     4   9  22  36  52  84 127 143 196 248 268 355
#     4   9  19  36  58  90 112 143 175 236 309 357
#     4  10  21  33  50  71 105 156 208 235 277 311
#     4  10  20  33  50  73 106 152 199 248 273 324
#     4   9  18  36  65  88 116 134 172 239 318 377
#     4  11  22  34  51  79 110 159 200 243 292 311
#
# _framework density 18.356673000000001
#
# number of rings (size 3 to 8) (size 9 to 14) (size 15 to 20)
#    0.000    2.154    2.308    0.000    5.385    3.077 
#    0.000    0.000    0.000    0.923    0.000    0.000 
#    0.000    0.000    0.000    0.000    0.000    0.000 
#
# Total GULP energy -145003.965717 kJ/mol
# GULP energy per Si atom -5577.075605 kJ/mol
# Density = 1.831489 g / cm^3
# Si number density = 18.356673 Si / 1000 Ang^3
#
#
#
# Elastic Constant Matrix: (Units=GPa)
#
#
# Indices 1 2 3 4 5 6 
#
# 1 107.4023 27.3487 32.8785 0.0071 -4.7495 -0.0009
# 2 27.3487 69.1775 24.5347 0.0053 -5.2162 -0.0015
# 3 32.8785 24.5347 107.8250 0.0136 -9.2795 0.0177
# 4 0.0071 0.0053 0.0136 17.7893 0.0079 4.3491
# 5 -4.7495 -5.2162 -9.2795 0.0079 24.9900 0.0029
# 6 -0.0009 -0.0015 0.0177 4.3491 0.0029 13.3768
#
#
#
# Elastic Compliance Matrix: (Units=1/GPa)
#
#
# Indices 1 2 3 4 5 6 
#
# 1 0.010973 -0.003407 -0.002533 -0.000003 0.000434 0.000005
# 2 -0.003407 0.016881 -0.002639 -0.000004 0.001896 0.000006
# 3 -0.002533 -0.002639 0.010907 -0.000004 0.003018 -0.000014
# 4 -0.000003 -0.000004 -0.000004 0.061068 -0.000020 -0.019855
# 5 0.000434 0.001896 0.003018 -0.000020 0.041615 -0.000006
# 6 0.000005 0.000006 -0.000014 -0.019855 -0.000006 0.081212
#
#
# Mechanical properties :
#
#
# Convention : Reuss Voigt Hill
#
# Bulk Modulus (GPa) = 46.29094 50.43651 48.36373
# Shear Modulus (GPa) = 20.24165 24.54074 22.39120
#
# Velocity S-wave (km/s) = 3.32427 3.66031 3.49633
# Velocity P-wave (km/s) = 6.32508 6.73790 6.53475
#
# Compressibility (1/GPa) = 0.02160250
#
# Stress axis : x y z
#
# Youngs Moduli (GPa) = 91.13251 59.23662 91.68400
#
# Poissons Ratio (x) = 0.20181 0.23227
# Poissons Ratio (y) = 0.31048 0.24197
# Poissons Ratio (z) = 0.23088 0.15634
#
# Static dielectric constant tensor:
#      x y z
#    x 1.690680 0.000000 -0.053610 
#    y 0.000000 1.646500 -0.000010 
#    z -0.053610 -0.000010 1.659340 
# 
# From -- ./inp_files/245794.got.cif
#   From: 2010.05.17/outbox.cif.g08.bks.cpg/sg15_123_cif.got.tgz:245794.got - 2010.06.03 18:47:42.
