data_PCOD9268723
_publ_section_title
;
Structure prediction by ZEFSAII (Michael W. Deem and Ramdas Pophale) SiO2 
 PCOD9268723
Probable space group: C 2/C
;
_chemical_formula_sum "Si O2"
_cell_formula_units_Z 64
_cell_length_a 30.881034
_cell_length_b 13.853768
_cell_length_c 8.944736
_cell_angle_alpha 90.000000
_cell_angle_beta 102.290734
_cell_angle_gamma 90.000000
_cell_volume 3739.016665
_symmetry_space_group_name_H-M "C 2/C"
_symmetry_group_IT_number 15
_symmetry_cell_setting 'monoclinic'
loop_
_space_group_symop_operation_xyz
x,y,z
-x,y,1/2-z
-x,-y,-z
x,-y,1/2+z
1/2+x,1/2+y,z
1/2-x,1/2+y,1/2-z
1/2-x,1/2-y,-z
1/2+x,1/2-y,1/2+z
loop_
_atom_site_type_symbol
_atom_site_label
_atom_site_fract_x
_atom_site_fract_y
_atom_site_fract_z
Si Si1 0.676841 0.017995 0.674816
Si Si2 0.169700 0.866019 0.603399
Si Si3 0.468742 0.950822 0.102201
Si Si4 0.771822 0.321286 0.748190
Si Si5 0.411221 0.922196 0.788575
Si Si6 0.313276 0.500165 0.143927
Si Si7 0.259603 0.385119 0.359559
Si Si8 0.342892 0.817793 0.559715
O O1 0.708906 0.082392 0.802098
O O2 0.670871 0.079903 0.520853
O O3 0.700904 0.914362 0.674322
O O4 0.627998 0.997837 0.701403
O O5 0.223156 0.853687 0.660178
O O6 0.156540 0.928094 0.737116
O O7 0.150236 0.760657 0.563693
O O8 0.161842 0.929987 0.451015
O O9 0.500000 0.899302 0.250000
O O10 0.442654 0.028985 0.186110
O O11 0.434612 0.898227 0.964288
O O12 0.500000 0.000000 0.000000
O O13 0.766394 0.229295 0.851020
O O14 0.801206 0.286353 0.629196
O O15 0.385566 0.833481 0.693676
O O16 0.284992 0.435372 0.238132
O O17 0.281129 0.567283 0.020721
#
# Coordination Sequence:
#
# PCOD9268723 Si02
#       8
#     8   8   8   8   8   8   8   8
#     4  11  21  31  50  70 105 135 180 233 257 293
#     4  11  20  34  51  65  89 137 180 236 261 305
#     4   9  18  35  57  75 100 137 168 190 245 327
#     4  11  21  31  49  62  94 136 187 224 277 293
#     4  10  20  33  50  79 104 133 170 207 256 308
#     4  10  21  34  49  63  90 122 198 228 266 294
#     4  11  21  35  46  68  90 137 187 239 265 302
#     4  11  21  34  48  71 104 137 171 222 279 295
#
# _framework density 17.116800000000001
#
# number of rings (size 3 to 8) (size 9 to 14) (size 15 to 20)
#    0.000    1.500    6.250    1.125    1.750    0.500 
#    4.500    0.000    0.000    0.000    0.000    0.000 
#    0.000    0.000    0.000   14.625    2.250    5.250 
#
# Total GULP energy -178419.463967 kJ/mol
# GULP energy per Si atom -5575.608249 kJ/mol
# Density = 1.707784 g / cm^3
# Si number density = 17.116800 Si / 1000 Ang^3
#
#
#
# Elastic Constant Matrix: (Units=GPa)
#
#
# Indices 1 2 3 4 5 6 
#
# 1 44.0673 13.2661 18.9026 0.0000 0.7071 0.0000
# 2 13.2661 91.0315 37.6020 0.0000 5.1133 0.0000
# 3 18.9026 37.6020 119.2110 0.0000 11.4725 0.0000
# 4 0.0000 0.0000 0.0000 32.6299 0.0000 -0.5972
# 5 0.7071 5.1133 11.4725 0.0000 28.9837 0.0000
# 6 0.0000 0.0000 0.0000 -0.5972 0.0000 6.9530
#
#
#
# Elastic Compliance Matrix: (Units=1/GPa)
#
#
# Indices 1 2 3 4 5 6 
#
# 1 0.024789 -0.002308 -0.003310 0.000000 0.001112 0.000000
# 2 -0.002308 0.012859 -0.003615 0.000000 -0.000781 0.000000
# 3 -0.003310 -0.003615 0.010380 0.000000 -0.003390 0.000000
# 4 0.000000 0.000000 0.000000 0.030695 0.000000 0.002636
# 5 0.001112 -0.000781 -0.003390 0.000000 0.035955 0.000000
# 6 0.000000 0.000000 0.000000 0.002636 0.000000 0.144050
#
#
# Mechanical properties :
#
#
# Convention : Reuss Voigt Hill
#
# Bulk Modulus (GPa) = 33.82647 43.76124 38.79385
# Shear Modulus (GPa) = 17.41883 26.01593 21.71738
#
# Velocity S-wave (km/s) = 3.19352 3.90283 3.56585
# Velocity P-wave (km/s) = 5.77954 6.77725 6.29819
#
# Compressibility (1/GPa) = 0.02956265
#
# Stress axis : x y z
#
# Youngs Moduli (GPa) = 40.34018 77.76917 96.34160
#
# Poissons Ratio (x) = 0.17948 0.31887
# Poissons Ratio (y) = 0.09310 0.34825
# Poissons Ratio (z) = 0.13352 0.28112
#
# Static dielectric constant tensor:
#      x y z
#    x 1.583800 0.000000 -0.002910 
#    y 0.000000 1.607080 0.000000 
#    z -0.002910 0.000000 1.662410 
# 
# From -- ./inp_files/69750.got.cif
#   From: 2010.05.17/outbox.cif.g08.bks.cpg/sg15_35_cif.got.tgz:69750.got - 2010.06.03 18:47:42.
