data_PCOD9268225
_publ_section_title
;
Structure prediction by ZEFSAII (Michael W. Deem and Ramdas Pophale) SiO2 
 PCOD9268225
Probable space group: C 2/C
;
_chemical_formula_sum "Si O2"
_cell_formula_units_Z 60
_cell_length_a 17.171781
_cell_length_b 20.586936
_cell_length_c 8.830617
_cell_angle_alpha 90.000000
_cell_angle_beta 133.374040
_cell_angle_gamma 90.000000
_cell_volume 2269.155998
_symmetry_space_group_name_H-M "C 2/C"
_symmetry_group_IT_number 15
_symmetry_cell_setting 'monoclinic'
loop_
_space_group_symop_operation_xyz
x,y,z
-x,y,1/2-z
-x,-y,-z
x,-y,1/2+z
1/2+x,1/2+y,z
1/2-x,1/2+y,1/2-z
1/2-x,1/2-y,-z
1/2+x,1/2-y,1/2+z
loop_
_atom_site_type_symbol
_atom_site_label
_atom_site_fract_x
_atom_site_fract_y
_atom_site_fract_z
Si Si1 0.870493 0.805702 0.813074
Si Si2 0.645665 0.576990 0.823479
Si Si3 0.662555 0.449900 0.694961
Si Si4 0.376156 0.276070 0.170440
Si Si5 0.500000 0.089724 0.250000
Si Si6 0.844581 0.754041 0.457600
Si Si7 0.887436 0.537979 0.654754
Si Si8 0.683899 0.127362 0.672088
O O1 0.890964 0.882608 0.819560
O O2 0.896852 0.767308 0.691992
O O3 0.739401 0.804561 0.644335
O O4 0.902528 0.776019 0.022526
O O5 0.656830 0.554091 0.008313
O O6 0.606672 0.514698 0.681598
O O7 0.595889 0.648187 0.761099
O O8 0.754215 0.596201 0.884809
O O9 0.788069 0.457405 0.907533
O O10 0.405345 0.247958 0.378193
O O11 0.250000 0.250000 0.000000
O O12 0.567077 0.137028 0.445645
O O13 0.571526 0.035759 0.256036
O O14 0.761348 0.815382 0.328490
O O15 0.838887 0.574566 0.732070
O O16 0.000000 0.569783 0.750000
#
# Coordination Sequence:
#
# PCOD9268225 Si02
#       8
#     8   8   8   8   4   8   8   8
#     4   9  17  29  44  60  78 100 137 183 218 249
#     4  10  20  26  42  58  79 107 139 180 211 244
#     4  11  19  29  40  59  82 107 140 180 214 249
#     4   8  16  29  41  58  79 102 136 176 205 250
#     4  10  22  26  40  52  80 112 140 174 216 234
#     4   9  17  29  46  60  73 102 141 185 213 252
#     4  10  21  28  39  53  83 109 142 178 214 244
#     4  11  19  31  41  57  79 108 148 181 211 251
#
# _framework density 26.441549999999999
#
# number of rings (size 3 to 8) (size 9 to 14) (size 15 to 20)
#    0.400    1.867    2.667    1.200    3.733    0.000 
#    0.000    0.000    0.000    0.000    0.000    0.000 
#    0.000    0.000    0.000    0.000    0.000   21.333 
#
# Total GULP energy -167154.551793 kJ/mol
# GULP energy per Si atom -5571.818393 kJ/mol
# Density = 2.638137 g / cm^3
# Si number density = 26.441550 Si / 1000 Ang^3
#
#
#
# Elastic Constant Matrix: (Units=GPa)
#
#
# Indices 1 2 3 4 5 6 
#
# 1 102.9469 13.8327 40.5178 0.0000 -18.8011 0.0000
# 2 13.8327 127.1577 10.1446 0.0000 3.8686 0.0000
# 3 40.5178 10.1446 123.8149 0.0000 -10.2637 0.0000
# 4 0.0000 0.0000 0.0000 30.4368 0.0000 -28.7030
# 5 -18.8011 3.8686 -10.2637 0.0000 50.3798 0.0000
# 6 0.0000 0.0000 0.0000 -28.7030 0.0000 -3.4506
#
#
#
# Elastic Compliance Matrix: (Units=1/GPa)
#
#
# Indices 1 2 3 4 5 6 
#
# 1 0.011943 -0.001137 -0.003497 0.000000 0.003832 0.000000
# 2 -0.001137 0.008052 -0.000381 0.000000 -0.001120 0.000000
# 3 -0.003497 -0.000381 0.009304 0.000000 0.000619 0.000000
# 4 0.000000 0.000000 0.000000 0.003715 0.000000 -0.030900
# 5 0.003832 -0.001120 0.000619 0.000000 0.021491 0.000000
# 6 0.000000 0.000000 0.000000 -0.030900 0.000000 -0.032767
#
#
# Mechanical properties :
#
#
# Convention : Reuss Voigt Hill
#
# Bulk Modulus (GPa) = 51.89640 53.65664 52.77652
# Shear Modulus (GPa) = 130.92225 34.76817 82.84521
#
# Velocity S-wave (km/s) = 7.04424 3.63010 5.60352
# Velocity P-wave (km/s) = 9.26451 6.15685 7.86568
#
# Compressibility (1/GPa) = 0.01926916
#
# Stress axis : x y z
#
# Youngs Moduli (GPa) = 83.73262 124.18737 107.48496
#
# Poissons Ratio (x) = 0.14117 0.37592
# Poissons Ratio (y) = 0.09518 0.04091
# Poissons Ratio (z) = 0.29285 0.04727
#
# Static dielectric constant tensor:
#      x y z
#    x 2.248450 0.000000 0.114810 
#    y 0.000000 2.142320 0.000000 
#    z 0.114810 0.000000 2.001020 
# 
# From -- ./inp_files/67284.got.cif
#   From: 2010.05.17/outbox.cif.g08.bks.cpg/sg15_34_cif.got.tgz:67284.got - 2010.06.03 18:47:42.
