data_PCOD9268908
_publ_section_title
;
Structure prediction by ZEFSAII (Michael W. Deem and Ramdas Pophale) SiO2 
 PCOD9268908
Probable space group: C 2/C
;
_chemical_formula_sum "Si O2"
_cell_formula_units_Z 60
_cell_length_a 15.366250
_cell_length_b 20.296707
_cell_length_c 9.616710
_cell_angle_alpha 90.000000
_cell_angle_beta 93.908193
_cell_angle_gamma 90.000000
_cell_volume 2992.325871
_symmetry_space_group_name_H-M "C 2/C"
_symmetry_group_IT_number 15
_symmetry_cell_setting 'monoclinic'
loop_
_space_group_symop_operation_xyz
x,y,z
-x,y,1/2-z
-x,-y,-z
x,-y,1/2+z
1/2+x,1/2+y,z
1/2-x,1/2+y,1/2-z
1/2-x,1/2-y,-z
1/2+x,1/2-y,1/2+z
loop_
_atom_site_type_symbol
_atom_site_label
_atom_site_fract_x
_atom_site_fract_y
_atom_site_fract_z
Si Si1 0.349035 0.699440 0.214900
Si Si2 0.500000 0.493622 0.750000
Si Si3 0.732278 0.704497 0.831214
Si Si4 0.943113 0.752362 0.107383
Si Si5 0.385679 0.531435 0.985741
Si Si6 0.743204 0.140820 0.960080
Si Si7 0.864474 0.876887 0.977118
Si Si8 0.951465 0.686078 0.607450
O O1 0.320188 0.754796 0.324791
O O2 0.363657 0.637234 0.313295
O O3 0.422717 0.738180 0.139900
O O4 0.274629 0.683423 0.095269
O O5 0.434293 0.536313 0.840905
O O6 0.448762 0.452585 0.624051
O O7 0.656497 0.756865 0.854936
O O8 0.720711 0.671520 0.679737
O O9 0.720176 0.650271 0.948667
O O10 0.000000 0.754767 0.250000
O O11 0.938118 0.826913 0.043811
O O12 0.982665 0.697172 0.011667
O O13 0.296318 0.572460 0.980265
O O14 0.371789 0.453484 0.003793
O O15 0.638016 0.146710 0.936271
O O16 0.000000 0.659748 0.750000
#
# Coordination Sequence:
#
# PCOD9268908 Si02
#       8
#     8   4   8   8   8   8   8   8
#     4  11  20  38  56  88 120 159 205 260 322 361
#     4  10  24  38  60  78 130 160 224 248 288 382
#     4   9  20  36  55  84 114 159 203 254 316 358
#     4  10  20  33  55  88 121 153 200 244 316 366
#     4  11  23  41  54  92 123 174 209 243 314 378
#     4  11  23  38  61  83 133 168 203 257 310 384
#     4  10  22  33  60  83 124 158 201 254 304 378
#     4  11  21  39  60  92 122 163 206 259 318 369
#
# _framework density 20.051290999999999
#
# number of rings (size 3 to 8) (size 9 to 14) (size 15 to 20)
#    0.800    0.800    1.333    5.200    0.933    4.267 
#    1.200    0.000    0.000    0.000    0.000   24.267 
#    0.000    0.000    0.000    1.467    0.000    0.000 
#
# Total GULP energy -167153.621319 kJ/mol
# GULP energy per Si atom -5571.787377 kJ/mol
# Density = 2.000565 g / cm^3
# Si number density = 20.051291 Si / 1000 Ang^3
#
#
#
# Elastic Constant Matrix: (Units=GPa)
#
#
# Indices 1 2 3 4 5 6 
#
# 1 83.2331 22.5783 24.9796 0.0000 -0.2124 0.0000
# 2 22.5783 65.7371 25.4770 0.0000 -3.0780 0.0000
# 3 24.9796 25.4770 108.3969 0.0000 12.3004 0.0000
# 4 0.0000 0.0000 0.0000 24.5365 0.0000 -2.1124
# 5 -0.2124 -3.0780 12.3004 0.0000 41.9163 0.0000
# 6 0.0000 0.0000 0.0000 -2.1124 0.0000 27.4993
#
#
#
# Elastic Compliance Matrix: (Units=1/GPa)
#
#
# Indices 1 2 3 4 5 6 
#
# 1 0.013744 -0.003796 -0.002329 0.000000 0.000474 0.000000
# 2 -0.003796 0.018035 -0.003633 0.000000 0.002371 0.000000
# 3 -0.002329 -0.003633 0.011014 0.000000 -0.003511 0.000000
# 4 0.000000 0.000000 0.000000 0.041027 0.000000 0.003152
# 5 0.000474 0.002371 -0.003511 0.000000 0.025064 0.000000
# 6 0.000000 0.000000 0.000000 0.003152 0.000000 0.036607
#
#
# Mechanical properties :
#
#
# Convention : Reuss Voigt Hill
#
# Bulk Modulus (GPa) = 42.95976 44.82633 43.89305
# Shear Modulus (GPa) = 28.94084 31.07924 30.01004
#
# Velocity S-wave (km/s) = 3.80325 3.94126 3.87287
# Velocity P-wave (km/s) = 6.38418 6.56626 6.47586
#
# Compressibility (1/GPa) = 0.02327760
#
# Stress axis : x y z
#
# Youngs Moduli (GPa) = 72.75740 55.44792 90.79042
#
# Poissons Ratio (x) = 0.21047 0.21145
# Poissons Ratio (y) = 0.27618 0.32986
# Poissons Ratio (z) = 0.16945 0.20145
#
# Static dielectric constant tensor:
#      x y z
#    x 1.779470 0.000000 0.017060 
#    y 0.000000 1.719210 0.000000 
#    z 0.017060 0.000000 1.778020 
# 
# From -- ./inp_files/50266.got.cif
#   From: 2010.05.17/outbox.cif.g08.bks.cpg/sg15_26_cif.got.tgz:50266.got - 2010.06.03 18:47:42.
