data_PCOD9268606
_publ_section_title
;
Structure prediction by ZEFSAII (Michael W. Deem and Ramdas Pophale) SiO2 
 PCOD9268606
Probable space group: C 2/C
;
_chemical_formula_sum "Si O2"
_cell_formula_units_Z 40
_cell_length_a 5.991244
_cell_length_b 25.392569
_cell_length_c 10.982739
_cell_angle_alpha 90.000000
_cell_angle_beta 105.828974
_cell_angle_gamma 90.000000
_cell_volume 1607.480004
_symmetry_space_group_name_H-M "C 2/C"
_symmetry_group_IT_number 15
_symmetry_cell_setting 'monoclinic'
loop_
_space_group_symop_operation_xyz
x,y,z
-x,y,1/2-z
-x,-y,-z
x,-y,1/2+z
1/2+x,1/2+y,z
1/2-x,1/2+y,1/2-z
1/2-x,1/2-y,-z
1/2+x,1/2-y,1/2+z
loop_
_atom_site_type_symbol
_atom_site_label
_atom_site_fract_x
_atom_site_fract_y
_atom_site_fract_z
Si Si1 0.626761 0.811725 0.887767
Si Si2 0.210590 0.460626 0.055544
Si Si3 0.011004 0.938275 0.887766
Si Si4 0.094957 0.210626 0.555545
Si Si5 0.583979 0.875000 0.417959
O O1 0.500000 0.833447 0.750000
O O2 0.555509 0.749638 0.883661
O O3 0.526672 0.839370 0.992558
O O4 0.904289 0.815304 0.937391
O O5 0.283100 0.434696 0.937389
O O6 0.122830 0.416951 0.139414
O O7 0.421851 0.499638 0.116338
O O8 0.000000 0.500000 0.000000
O O9 0.000000 0.916554 0.750000
O O10 0.215884 0.910631 0.992559
O O11 0.250000 0.250000 0.500000
O O12 0.266588 0.166952 0.639414
#
# Coordination Sequence:
#
# PCOD9268606 Si02
#       5
#     8   8   8   8   8
#     4  10  21  35  59  86 117 151 201 246 302 355
#     4   9  20  37  54  81 119 155 188 249 296 351
#     4  10  21  35  59  86 117 151 201 246 302 355
#     4   9  20  37  54  81 119 155 188 249 296 351
#     4  10  20  32  58  83 118 150 195 242 300 354
#
# _framework density 24.883669000000001
#
# number of rings (size 3 to 8) (size 9 to 14) (size 15 to 20)
#    0.000    2.400    0.000    1.200    5.600    4.800 
#    0.000    0.000    0.000   69.600    0.000    0.000 
#    0.000    0.000    0.000    0.000    0.000    0.000 
#
# Total GULP energy -111529.204587 kJ/mol
# GULP energy per Si atom -5576.460229 kJ/mol
# Density = 2.482703 g / cm^3
# Si number density = 24.883669 Si / 1000 Ang^3
#
#
#
# Elastic Constant Matrix: (Units=GPa)
#
#
# Indices 1 2 3 4 5 6 
#
# 1 131.3418 37.6806 12.5168 0.0000 7.4965 0.0000
# 2 37.6806 121.5738 -11.8548 0.0000 4.3095 0.0000
# 3 12.5168 -11.8548 45.3662 0.0000 -0.0169 0.0000
# 4 0.0000 0.0000 0.0000 22.6287 0.0000 4.8174
# 5 7.4965 4.3095 -0.0169 0.0000 16.9742 0.0000
# 6 0.0000 0.0000 0.0000 4.8174 0.0000 78.0242
#
#
#
# Elastic Compliance Matrix: (Units=1/GPa)
#
#
# Indices 1 2 3 4 5 6 
#
# 1 0.008962 -0.002981 -0.003253 0.000000 -0.003204 0.000000
# 2 -0.002981 0.009511 0.003307 0.000000 -0.001095 0.000000
# 3 -0.003253 0.003307 0.023805 0.000000 0.000621 0.000000
# 4 0.000000 0.000000 0.000000 0.044780 0.000000 -0.002765
# 5 -0.003204 -0.001095 0.000621 0.000000 0.060606 0.000000
# 6 0.000000 0.000000 0.000000 -0.002765 0.000000 0.012987
#
#
# Mechanical properties :
#
#
# Convention : Reuss Voigt Hill
#
# Bulk Modulus (GPa) = 27.45432 41.66301 34.55867
# Shear Modulus (GPa) = 27.98827 40.85471 34.42149
#
# Velocity S-wave (km/s) = 3.35739 4.05634 3.72330
# Velocity P-wave (km/s) = 5.10749 6.22238 5.69230
#
# Compressibility (1/GPa) = 0.03642414
#
# Stress axis : x y z
#
# Youngs Moduli (GPa) = 111.58348 105.14370 42.00823
#
# Poissons Ratio (x) = 0.31346 0.13665
# Poissons Ratio (y) = 0.33266 -0.13894
# Poissons Ratio (z) = 0.36297 -0.34776
#
# Static dielectric constant tensor:
#      x y z
#    x 2.056620 0.000000 0.002200 
#    y 0.000000 2.081360 0.000000 
#    z 0.002200 0.000000 2.031260 
# 
# From -- ./inp_files/73210.got.cif
#   From: 2010.05.17/outbox.cif.g08.bks.cpg/sg15_37_cif.got.tgz:73210.got - 2010.06.03 18:47:42.
