data_PCOD9268773
_publ_section_title
;
Structure prediction by ZEFSAII (Michael W. Deem and Ramdas Pophale) SiO2 
 PCOD9268773
Probable space group: C 2/C
;
_chemical_formula_sum "Si O2"
_cell_formula_units_Z 40
_cell_length_a 10.009991
_cell_length_b 20.749852
_cell_length_c 8.932128
_cell_angle_alpha 90.000000
_cell_angle_beta 84.455533
_cell_angle_gamma 90.000000
_cell_volume 1846.575289
_symmetry_space_group_name_H-M "C 2/C"
_symmetry_group_IT_number 15
_symmetry_cell_setting 'monoclinic'
loop_
_space_group_symop_operation_xyz
x,y,z
-x,y,1/2-z
-x,-y,-z
x,-y,1/2+z
1/2+x,1/2+y,z
1/2-x,1/2+y,1/2-z
1/2-x,1/2-y,-z
1/2+x,1/2-y,1/2+z
loop_
_atom_site_type_symbol
_atom_site_label
_atom_site_fract_x
_atom_site_fract_y
_atom_site_fract_z
Si Si1 0.972078 0.765506 0.924177
Si Si2 0.349280 0.952985 0.197726
Si Si3 0.146219 0.579357 0.155840
Si Si4 0.648649 0.775639 0.658752
Si Si5 0.747552 0.828569 0.125542
O O1 0.887482 0.697678 0.939840
O O2 0.000000 0.779289 0.750000
O O3 0.874354 0.819727 0.003264
O O4 0.106518 0.754227 0.003852
O O5 0.500000 0.950236 0.250000
O O6 0.271884 0.895847 0.290983
O O7 0.288859 0.022069 0.253288
O O8 0.357985 0.942454 0.018106
O O9 0.203054 0.651612 0.152371
O O10 0.000000 0.584356 0.250000
O O11 0.500000 0.779064 0.750000
O O12 0.725208 0.725186 0.752379
#
# Coordination Sequence:
#
# PCOD9268773 Si02
#       5
#     8   8   8   8   8
#     4  10  20  34  54  83 114 143 182 230 274 323
#     4  11  21  34  53  81 115 144 177 222 275 336
#     4  10  20  33  52  77 112 146 173 222 284 332
#     4   9  19  36  54  80 113 143 179 222 272 329
#     4  10  21  35  56  84 114 148 183 223 278 329
#
# _framework density 21.661722000000001
#
# number of rings (size 3 to 8) (size 9 to 14) (size 15 to 20)
#    0.000    2.000    0.000    5.400    0.000    9.600 
#    0.000    0.000    0.000    0.000    0.000   49.000 
#    0.000    0.000    0.000    0.000    0.000    0.000 
#
# Total GULP energy -111732.098561 kJ/mol
# GULP energy per Si atom -5586.604928 kJ/mol
# Density = 2.161242 g / cm^3
# Si number density = 21.661722 Si / 1000 Ang^3
#
#
#
# Elastic Constant Matrix: (Units=GPa)
#
#
# Indices 1 2 3 4 5 6 
#
# 1 51.9973 22.9572 21.1846 0.0000 8.7703 0.0000
# 2 22.9572 168.6624 42.8172 0.0000 -6.9407 0.0000
# 3 21.1846 42.8172 151.6779 0.0000 -13.7542 0.0000
# 4 0.0000 0.0000 0.0000 37.0222 0.0000 -5.4534
# 5 8.7703 -6.9407 -13.7542 0.0000 41.3800 0.0000
# 6 0.0000 0.0000 0.0000 -5.4534 0.0000 19.0789
#
#
#
# Elastic Compliance Matrix: (Units=1/GPa)
#
#
# Indices 1 2 3 4 5 6 
#
# 1 0.022642 -0.002577 -0.003000 0.000000 -0.006228 0.000000
# 2 -0.002577 0.006689 -0.001420 0.000000 0.001196 0.000000
# 3 -0.003000 -0.001420 0.007680 0.000000 0.002950 0.000000
# 4 0.000000 0.000000 0.000000 0.028198 0.000000 0.008060
# 5 -0.006228 0.001196 0.002950 0.000000 0.026668 0.000000
# 6 0.000000 0.000000 0.000000 0.008060 0.000000 0.054718
#
#
# Mechanical properties :
#
#
# Convention : Reuss Voigt Hill
#
# Bulk Modulus (GPa) = 43.44262 60.69506 52.06884
# Shear Modulus (GPa) = 29.71571 38.52145 34.11858
#
# Velocity S-wave (km/s) = 3.70781 4.22159 3.97301
# Velocity P-wave (km/s) = 6.19912 7.20019 6.71832
#
# Compressibility (1/GPa) = 0.02301887
#
# Stress axis : x y z
#
# Youngs Moduli (GPa) = 44.16563 149.48943 130.20326
#
# Poissons Ratio (x) = 0.38518 0.39058
# Poissons Ratio (y) = 0.11380 0.18489
# Poissons Ratio (z) = 0.13249 0.21228
#
# Static dielectric constant tensor:
#      x y z
#    x 1.870480 0.000000 -0.031430 
#    y 0.000000 1.799440 0.000000 
#    z -0.031430 0.000000 1.886830 
# 
# From -- ./inp_files/30265.got.cif
#   From: 2010.05.17/outbox.cif.g08.bks.cpg/sg15_16_cif.got.tgz:30265.got - 2010.06.03 18:47:42.
