data_PCOD9268135
_publ_section_title
;
Structure prediction by ZEFSAII (Michael W. Deem and Ramdas Pophale) SiO2 
 PCOD9268135
Probable space group: C 2/C
;
_chemical_formula_sum "Si O2"
_cell_formula_units_Z 52
_cell_length_a 9.345828
_cell_length_b 18.716309
_cell_length_c 22.543935
_cell_angle_alpha 90.000000
_cell_angle_beta 43.609207
_cell_angle_gamma 90.000000
_cell_volume 2719.885037
_symmetry_space_group_name_H-M "C 2/C"
_symmetry_group_IT_number 15
_symmetry_cell_setting 'monoclinic'
loop_
_space_group_symop_operation_xyz
x,y,z
-x,y,1/2-z
-x,-y,-z
x,-y,1/2+z
1/2+x,1/2+y,z
1/2-x,1/2+y,1/2-z
1/2-x,1/2-y,-z
1/2+x,1/2-y,1/2+z
loop_
_atom_site_type_symbol
_atom_site_label
_atom_site_fract_x
_atom_site_fract_y
_atom_site_fract_z
Si Si1 0.745274 0.998557 0.123295
Si Si2 0.152523 0.826025 0.610401
Si Si3 0.280525 0.043741 0.741871
Si Si4 0.500000 0.556910 0.250000
Si Si5 0.847473 0.699730 0.741785
Si Si6 0.040416 0.884501 0.518923
Si Si7 0.995187 0.238980 0.936837
O O1 0.820553 0.080033 0.101357
O O2 0.822765 0.963009 0.161718
O O3 0.502594 0.990849 0.187382
O O4 0.833226 0.952469 0.042485
O O5 0.083635 0.891122 0.673294
O O6 0.144343 0.848899 0.544695
O O7 0.377073 0.799831 0.565723
O O8 0.982981 0.762044 0.670669
O O9 0.303505 0.127321 0.719214
O O10 0.167845 0.995732 0.727915
O O11 0.634745 0.727811 0.835527
O O12 0.000000 0.675748 0.750000
O O13 0.020807 0.829595 0.471325
O O14 0.750000 0.250000 0.000000
#
# Coordination Sequence:
#
# PCOD9268135 Si02
#       7
#     8   8   8   4   8   8   8
#     4  10  21  38  69  88 123 169 220 258 328 397
#     4  11  23  43  68  91 129 176 220 269 329 397
#     4  11  21  42  65  92 127 174 215 266 322 403
#     4  12  24  40  66  98 130 164 222 280 322 384
#     4  10  19  42  68  84 121 181 217 252 322 404
#     4  11  22  41  63  98 122 168 217 271 328 391
#     4  11  23  39  62  94 133 159 216 273 328 379
#
# _framework density 19.118455999999998
#
# number of rings (size 3 to 8) (size 9 to 14) (size 15 to 20)
#    0.000    1.231    6.923    1.385    2.154    0.000 
#    5.538    0.769    0.000    0.000    0.000    0.000 
#    0.000    0.000    0.000    0.000    0.000    0.000 
#
# Total GULP energy -145019.268300 kJ/mol
# GULP energy per Si atom -5577.664165 kJ/mol
# Density = 1.907494 g / cm^3
# Si number density = 19.118456 Si / 1000 Ang^3
#
#
#
# Elastic Constant Matrix: (Units=GPa)
#
#
# Indices 1 2 3 4 5 6 
#
# 1 86.5847 45.9058 32.5502 0.0013 -16.1240 -0.0006
# 2 45.9058 99.4916 15.4620 -0.0003 -1.8584 -0.0006
# 3 32.5502 15.4620 55.5988 0.0009 -11.3231 -0.0008
# 4 0.0013 -0.0003 0.0009 25.7236 0.0001 2.1752
# 5 -16.1240 -1.8584 -11.3231 0.0001 29.6813 0.0007
# 6 -0.0006 -0.0006 -0.0008 2.1752 0.0007 35.5645
#
#
#
# Elastic Compliance Matrix: (Units=1/GPa)
#
#
# Indices 1 2 3 4 5 6 
#
# 1 0.020158 -0.007904 -0.008103 -0.000001 0.007364 0.000000
# 2 -0.007904 0.013611 0.000153 0.000001 -0.003383 0.000000
# 3 -0.008103 0.000153 0.023629 0.000000 0.004622 0.000000
# 4 -0.000001 0.000001 0.000000 0.039077 -0.000001 -0.002390
# 5 0.007364 -0.003383 0.004622 -0.000001 0.039243 -0.000001
# 6 0.000000 0.000000 0.000000 -0.002390 -0.000001 0.028264
#
#
# Mechanical properties :
#
#
# Convention : Reuss Voigt Hill
#
# Bulk Modulus (GPa) = 38.92714 47.72346 43.32530
# Shear Modulus (GPa) = 24.47948 28.04435 26.26192
#
# Velocity S-wave (km/s) = 3.58216 3.83413 3.71029
# Velocity P-wave (km/s) = 6.12490 6.67959 6.40825
#
# Compressibility (1/GPa) = 0.02568902
#
# Stress axis : x y z
#
# Youngs Moduli (GPa) = 49.60903 73.46993 42.32134
#
# Poissons Ratio (x) = 0.58070 0.34295
# Poissons Ratio (y) = 0.39211 -0.00648
# Poissons Ratio (z) = 0.40200 -0.01125
#
# Static dielectric constant tensor:
#      x y z
#    x 1.663890 0.000000 -0.026250 
#    y 0.000000 1.682390 0.000000 
#    z -0.026250 0.000000 1.811170 
# 
# From -- ./inp_files/190459.got.cif
#   From: 2010.05.17/outbox.cif.g08.bks.cpg/sg15_96_cif.got.tgz:190459.got - 2010.06.03 18:47:42.
