data_PCOD9268978
_publ_section_title
;
Structure prediction by ZEFSAII (Michael W. Deem and Ramdas Pophale) SiO2 
 PCOD9268978
Probable space group: C 2/C
;
_chemical_formula_sum "Si O2"
_cell_formula_units_Z 56
_cell_length_a 5.259621
_cell_length_b 32.069010
_cell_length_c 17.595454
_cell_angle_alpha 90.000000
_cell_angle_beta 97.279408
_cell_angle_gamma 90.000000
_cell_volume 2943.919323
_symmetry_space_group_name_H-M "C 2/C"
_symmetry_group_IT_number 15
_symmetry_cell_setting 'monoclinic'
loop_
_space_group_symop_operation_xyz
x,y,z
-x,y,1/2-z
-x,-y,-z
x,-y,1/2+z
1/2+x,1/2+y,z
1/2-x,1/2+y,1/2-z
1/2-x,1/2-y,-z
1/2+x,1/2-y,1/2+z
loop_
_atom_site_type_symbol
_atom_site_label
_atom_site_fract_x
_atom_site_fract_y
_atom_site_fract_z
Si Si1 0.337136 0.641264 0.821429
Si Si2 0.000000 0.425195 0.250000
Si Si3 0.250222 0.643533 0.535281
Si Si4 0.000000 0.017616 0.750000
Si Si5 0.779169 0.445561 0.525360
Si Si6 0.935072 0.782600 0.964250
Si Si7 0.804962 0.022822 0.092149
Si Si8 0.112337 0.709608 0.895786
O O1 0.500000 0.636290 0.750000
O O2 0.107376 0.607810 0.815280
O O3 0.508032 0.633671 0.901872
O O4 0.233377 0.688456 0.826272
O O5 0.754192 0.453665 0.255975
O O6 0.148032 0.598992 0.506622
O O7 0.312253 0.671693 0.462975
O O8 0.086446 0.675142 0.581069
O O9 0.051681 0.990047 0.825803
O O10 0.740408 0.480615 0.458779
O O11 0.503405 0.446713 0.556313
O O12 0.018370 0.459011 0.587277
O O13 0.005742 0.756783 0.891230
O O14 0.750000 0.750000 0.000000
O O15 0.175792 0.788192 0.029542
#
# Coordination Sequence:
#
# PCOD9268978 Si02
#       8
#     8   4   8   4   8   8   8   8
#     4  11  22  34  48  87 121 163 198 240 291 366
#     4  12  24  36  56  86 119 154 209 228 296 368
#     4  10  20  33  58  82 121 154 203 251 302 354
#     4  12  24  42  64  82 117 164 201 252 300 380
#     4  10  22  38  57  87 122 153 196 256 303 355
#     4   8  16  32  50  83 109 148 188 242 290 345
#     4  10  23  40  58  84 119 156 199 247 311 354
#     4   9  18  31  54  77 122 150 193 237 292 352
#
# _framework density 19.022259999999999
#
# number of rings (size 3 to 8) (size 9 to 14) (size 15 to 20)
#    0.000    2.000    0.714    2.571    6.000    1.143 
#    0.000    0.000    0.000    0.000    0.000   13.000 
#    8.571    0.000    0.000    0.000    0.000    0.000 
#
# Total GULP energy -155876.636411 kJ/mol
# GULP energy per Si atom -5567.022729 kJ/mol
# Density = 1.897896 g / cm^3
# Si number density = 19.022260 Si / 1000 Ang^3
#
#
#
# Elastic Constant Matrix: (Units=GPa)
#
#
# Indices 1 2 3 4 5 6 
#
# 1 78.9076 20.7697 18.4257 0.0000 20.8872 0.0000
# 2 20.7697 71.6634 21.8633 0.0000 2.3553 0.0000
# 3 18.4257 21.8633 55.6333 0.0000 11.1995 0.0000
# 4 0.0000 0.0000 0.0000 23.7584 0.0000 1.9781
# 5 20.8872 2.3553 11.1995 0.0000 27.9282 0.0000
# 6 0.0000 0.0000 0.0000 1.9781 0.0000 28.0313
#
#
#
# Elastic Compliance Matrix: (Units=1/GPa)
#
#
# Indices 1 2 3 4 5 6 
#
# 1 0.017306 -0.004098 -0.001724 0.000000 -0.011906 0.000000
# 2 -0.004098 0.016867 -0.006094 0.000000 0.004086 0.000000
# 3 -0.001724 -0.006094 0.022385 0.000000 -0.007173 0.000000
# 4 0.000000 0.000000 0.000000 0.042339 0.000000 -0.002988
# 5 -0.011906 0.004086 -0.007173 0.000000 0.047242 0.000000
# 6 0.000000 0.000000 0.000000 -0.002988 0.000000 0.035885
#
#
# Mechanical properties :
#
#
# Convention : Reuss Voigt Hill
#
# Bulk Modulus (GPa) = 30.55802 36.48019 33.51910
# Shear Modulus (GPa) = 23.06647 25.61994 24.34321
#
# Velocity S-wave (km/s) = 3.48602 3.67391 3.58120
# Velocity P-wave (km/s) = 5.68352 6.10050 5.89570
#
# Compressibility (1/GPa) = 0.03272463
#
# Stress axis : x y z
#
# Youngs Moduli (GPa) = 57.78352 59.28853 44.67343
#
# Poissons Ratio (x) = 0.24298 0.07703
# Poissons Ratio (y) = 0.23681 0.27222
# Poissons Ratio (z) = 0.09964 0.36128
#
# Static dielectric constant tensor:
#      x y z
#    x 1.710160 0.000000 -0.036220 
#    y 0.000000 1.819260 0.000000 
#    z -0.036220 0.000000 1.653790 
# 
# From -- ./inp_files/186596.got.cif
#   From: 2010.05.17/outbox.cif.g08.bks.cpg/sg15_94_cif.got.tgz:186596.got - 2010.06.03 18:47:42.
