data_PCOD9268213
_publ_section_title
;
Structure prediction by ZEFSAII (Michael W. Deem and Ramdas Pophale) SiO2 
 PCOD9268213
Probable space group: C 2/C
;
_chemical_formula_sum "Si O2"
_cell_formula_units_Z 44
_cell_length_a 10.336064
_cell_length_b 15.657714
_cell_length_c 12.974880
_cell_angle_alpha 90.000000
_cell_angle_beta 100.958806
_cell_angle_gamma 90.000000
_cell_volume 2061.550843
_symmetry_space_group_name_H-M "C 2/C"
_symmetry_group_IT_number 15
_symmetry_cell_setting 'monoclinic'
loop_
_space_group_symop_operation_xyz
x,y,z
-x,y,1/2-z
-x,-y,-z
x,-y,1/2+z
1/2+x,1/2+y,z
1/2-x,1/2+y,1/2-z
1/2-x,1/2-y,-z
1/2+x,1/2-y,1/2+z
loop_
_atom_site_type_symbol
_atom_site_label
_atom_site_fract_x
_atom_site_fract_y
_atom_site_fract_z
Si Si1 0.103938 0.742071 0.926313
Si Si2 0.308341 0.984540 0.387128
Si Si3 0.961406 0.618071 0.062590
Si Si4 0.597009 0.573854 0.477362
Si Si5 0.000000 0.256575 0.750000
Si Si6 0.759896 0.144910 0.802425
O O1 0.038817 0.834467 0.933619
O O2 0.142879 0.708245 0.819735
O O3 0.250000 0.750000 0.000000
O O4 0.025402 0.671582 0.978411
O O5 0.337817 0.929815 0.494850
O O6 0.285496 0.921084 0.290243
O O7 0.432618 0.046378 0.388468
O O8 0.182060 0.041035 0.394072
O O9 0.940220 0.682884 0.152397
O O10 0.500000 0.500000 0.500000
O O11 0.691933 0.594182 0.588882
O O12 0.115122 0.198950 0.718903
#
# Coordination Sequence:
#
# PCOD9268213 Si02
#       6
#     8   8   8   8   4   8
#     4  10  19  45  65  86 130 178 207 261 334 382
#     4  11  25  41  65 101 128 168 226 271 318 390
#     4  11  24  42  66  94 133 172 218 274 321 387
#     4  11  22  44  68  94 134 171 217 273 327 386
#     4  12  22  40  68  92 124 178 218 264 328 390
#     4  11  23  42  67  91 131 176 216 264 333 389
#
# _framework density 21.343156
#
# number of rings (size 3 to 8) (size 9 to 14) (size 15 to 20)
#    0.000    1.091    7.273    1.091    2.545    1.455 
#    0.000    1.818    0.000    0.000    0.000    0.000 
#    0.000    0.000    0.000    0.000    0.000    0.000 
#
# Total GULP energy -122974.644295 kJ/mol
# GULP energy per Si atom -5589.756559 kJ/mol
# Density = 2.129458 g / cm^3
# Si number density = 21.343156 Si / 1000 Ang^3
#
#
#
# Elastic Constant Matrix: (Units=GPa)
#
#
# Indices 1 2 3 4 5 6 
#
# 1 22.7538 19.4000 13.6175 0.0000 -2.8851 0.0000
# 2 19.4000 140.3333 55.0003 0.0000 1.2261 0.0000
# 3 13.6175 55.0003 83.0832 0.0000 -17.6904 0.0000
# 4 0.0000 0.0000 0.0000 57.3261 0.0000 -18.0112
# 5 -2.8851 1.2261 -17.6904 0.0000 21.0004 0.0000
# 6 0.0000 0.0000 0.0000 -18.0112 0.0000 26.9431
#
#
#
# Elastic Compliance Matrix: (Units=1/GPa)
#
#
# Indices 1 2 3 4 5 6 
#
# 1 0.051601 -0.005682 -0.003797 0.000000 0.004222 0.000000
# 2 -0.005682 0.011240 -0.008305 0.000000 -0.008433 0.000000
# 3 -0.003797 -0.008305 0.022115 0.000000 0.018593 0.000000
# 4 0.000000 0.000000 0.000000 0.022082 0.000000 0.014762
# 5 0.004222 -0.008433 0.018593 0.000000 0.064353 0.000000
# 6 0.000000 0.000000 0.000000 0.014762 0.000000 0.046983
#
#
# Mechanical properties :
#
#
# Convention : Reuss Voigt Hill
#
# Bulk Modulus (GPa) = 20.24786 46.91178 33.57982
# Shear Modulus (GPa) = 18.49077 31.59742 25.04409
#
# Velocity S-wave (km/s) = 2.94659 3.85183 3.42921
# Velocity P-wave (km/s) = 4.59172 6.46604 5.60774
#
# Compressibility (1/GPa) = 0.04938793
#
# Stress axis : x y z
#
# Youngs Moduli (GPa) = 19.37942 88.96738 45.21794
#
# Poissons Ratio (x) = 0.50554 0.17169
# Poissons Ratio (y) = 0.11012 0.37554
# Poissons Ratio (z) = 0.07358 0.73888
#
# Static dielectric constant tensor:
#      x y z
#    x 1.753120 0.000000 0.007770 
#    y 0.000000 1.786240 0.000000 
#    z 0.007770 0.000000 1.777920 
# 
# From -- ./inp_files/86160.got.cif
#   From: 2010.05.17/outbox.cif.g08.bks.cpg/sg15_44_cif.got.tgz:86160.got - 2010.06.03 18:47:42.
