data_PCOD9268299
_publ_section_title
;
Structure prediction by ZEFSAII (Michael W. Deem and Ramdas Pophale) SiO2 
 PCOD9268299
Probable space group: C 2/C
;
_chemical_formula_sum "Si O2"
_cell_formula_units_Z 60
_cell_length_a 25.461360
_cell_length_b 15.046862
_cell_length_c 17.848958
_cell_angle_alpha 90.000000
_cell_angle_beta 28.483425
_cell_angle_gamma 90.000000
_cell_volume 3261.157932
_symmetry_space_group_name_H-M "C 2/C"
_symmetry_group_IT_number 15
_symmetry_cell_setting 'monoclinic'
loop_
_space_group_symop_operation_xyz
x,y,z
-x,y,1/2-z
-x,-y,-z
x,-y,1/2+z
1/2+x,1/2+y,z
1/2-x,1/2+y,1/2-z
1/2-x,1/2-y,-z
1/2+x,1/2-y,1/2+z
loop_
_atom_site_type_symbol
_atom_site_label
_atom_site_fract_x
_atom_site_fract_y
_atom_site_fract_z
Si Si1 0.164213 0.124593 0.738412
Si Si2 0.933119 0.764066 0.758535
Si Si3 0.609681 0.610243 0.974903
Si Si4 0.307552 0.928889 0.928708
Si Si5 0.699128 0.291658 0.953417
Si Si6 0.034579 0.920477 0.119352
Si Si7 0.240964 0.377513 0.074597
Si Si8 0.000000 0.662370 0.250000
O O1 0.140609 0.091435 0.850912
O O2 0.256683 0.069975 0.576221
O O3 0.206694 0.225787 0.692147
O O4 0.057399 0.117681 0.820120
O O5 0.865342 0.682985 0.808336
O O6 0.000000 0.737909 0.750000
O O7 0.022171 0.809956 0.592876
O O8 0.841453 0.836594 0.899339
O O9 0.714938 0.628514 0.895743
O O10 0.552116 0.523514 0.081721
O O11 0.245227 0.847316 0.965872
O O12 0.435074 0.900991 0.773771
O O13 0.282162 0.020984 0.919784
O O14 0.647797 0.366966 0.965007
O O15 0.595611 0.227250 0.100369
O O16 0.000000 0.910464 0.250000
#
# Coordination Sequence:
#
# PCOD9268299 Si02
#       8
#     8   8   8   8   8   8   8   4
#     4  11  23  35  56  88 119 148 184 235 292 339
#     4   9  20  37  63  84 109 151 198 238 276 337
#     4  11  22  38  57  87 119 147 186 237 293 336
#     4  11  20  37  60  84 112 150 197 233 273 342
#     4  11  20  37  59  84 113 148 192 232 279 334
#     4  12  20  36  63  85 109 150 198 237 272 335
#     4  10  20  38  61  85 111 152 195 237 281 331
#     4  10  20  30  56  88 110 140 190 240 272 322
#
# _framework density 18.398374
#
# number of rings (size 3 to 8) (size 9 to 14) (size 15 to 20)
#    0.000    1.333    3.333    4.800    0.933    1.067 
#    0.000    2.667    0.000    4.000    0.000    0.000 
#    0.000    0.000    0.000    0.000    0.000    0.000 
#
# Total GULP energy -167354.928603 kJ/mol
# GULP energy per Si atom -5578.497620 kJ/mol
# Density = 1.835650 g / cm^3
# Si number density = 18.398374 Si / 1000 Ang^3
#
#
#
# Elastic Constant Matrix: (Units=GPa)
#
#
# Indices 1 2 3 4 5 6 
#
# 1 112.8110 49.5219 49.1472 0.0000 -19.7033 0.0000
# 2 49.5219 87.8467 26.1608 0.0000 -14.0408 0.0000
# 3 49.1472 26.1608 38.3302 0.0000 -12.7263 0.0000
# 4 0.0000 0.0000 0.0000 19.9106 0.0000 -13.5570
# 5 -19.7033 -14.0408 -12.7263 0.0000 34.3162 0.0000
# 6 0.0000 0.0000 0.0000 -13.5570 0.0000 18.0285
#
#
#
# Elastic Compliance Matrix: (Units=1/GPa)
#
#
# Indices 1 2 3 4 5 6 
#
# 1 0.021744 -0.004843 -0.024049 0.000000 0.001585 0.000000
# 2 -0.004843 0.015563 -0.003674 0.000000 0.002225 0.000000
# 3 -0.024049 -0.003674 0.061981 0.000000 0.007674 0.000000
# 4 0.000000 0.000000 0.000000 0.102923 0.000000 0.077396
# 5 0.001585 0.002225 0.007674 0.000000 0.033807 0.000000
# 6 0.000000 0.000000 0.000000 0.077396 0.000000 0.113668
#
#
# Mechanical properties :
#
#
# Convention : Reuss Voigt Hill
#
# Bulk Modulus (GPa) = 29.27732 54.29420 41.78576
# Shear Modulus (GPa) = 11.73145 22.06158 16.89652
#
# Velocity S-wave (km/s) = 2.52788 3.46657 3.03375
# Velocity P-wave (km/s) = 4.94649 6.75257 5.91882
#
# Compressibility (1/GPa) = 0.03415614
#
# Stress axis : x y z
#
# Youngs Moduli (GPa) = 45.98884 64.25422 16.13401
#
# Poissons Ratio (x) = 0.31117 0.38801
# Poissons Ratio (y) = 0.22271 0.05928
# Poissons Ratio (z) = 1.10600 0.23607
#
# Static dielectric constant tensor:
#      x y z
#    x 1.653080 0.000000 -0.018620 
#    y 0.000000 1.641240 0.000000 
#    z -0.018620 0.000000 1.640190 
# 
# From -- ./inp_files/222703.got.cif
#   From: 2010.05.17/outbox.cif.g08.bks.cpg/sg15_112_cif.got.tgz:222703.got - 2010.06.03 18:47:42.
