data_PCOD9268058
_publ_section_title
;
Structure prediction by ZEFSAII (Michael W. Deem and Ramdas Pophale) SiO2 
 PCOD9268058
Probable space group: C 2/C
;
_chemical_formula_sum "Si O2"
_cell_formula_units_Z 52
_cell_length_a 11.304776
_cell_length_b 13.083401
_cell_length_c 22.269996
_cell_angle_alpha 90.000000
_cell_angle_beta 41.274762
_cell_angle_gamma 90.000000
_cell_volume 2172.850950
_symmetry_space_group_name_H-M "C 2/C"
_symmetry_group_IT_number 15
_symmetry_cell_setting 'monoclinic'
loop_
_space_group_symop_operation_xyz
x,y,z
-x,y,1/2-z
-x,-y,-z
x,-y,1/2+z
1/2+x,1/2+y,z
1/2-x,1/2+y,1/2-z
1/2-x,1/2-y,-z
1/2+x,1/2-y,1/2+z
loop_
_atom_site_type_symbol
_atom_site_label
_atom_site_fract_x
_atom_site_fract_y
_atom_site_fract_z
Si Si1 0.839152 0.436410 0.594060
Si Si2 0.269915 0.934290 0.230702
Si Si3 0.131382 0.075122 0.592576
Si Si4 0.795594 0.002750 0.561515
Si Si5 0.000000 0.485118 0.250000
Si Si6 0.367195 0.726517 0.515337
Si Si7 0.212694 0.756946 0.154208
O O1 0.820588 0.465936 0.671035
O O2 0.668012 0.487098 0.627481
O O3 0.854156 0.320027 0.567368
O O4 0.000000 0.500000 0.500000
O O5 0.414231 0.925512 0.227533
O O6 0.255712 0.843509 0.188518
O O7 0.079771 0.932672 0.336333
O O8 0.192579 0.181704 0.598287
O O9 0.231049 0.045481 0.493604
O O10 0.661745 0.951215 0.659141
O O11 0.770642 0.124228 0.573843
O O12 0.000000 0.000000 0.500000
O O13 0.250000 0.750000 0.500000
O O14 0.583430 0.707332 0.424402
O O15 0.000000 0.730344 0.250000
#
# Coordination Sequence:
#
# PCOD9268058 Si02
#       7
#     8   8   8   8   4   8   8
#     4  11  19  38  71 102 131 176 230 283 346 411
#     4  10  20  37  68 101 133 183 232 279 347 415
#     4  10  19  41  69  95 133 181 231 276 338 416
#     4  12  26  46  65  96 143 183 227 284 359 411
#     4  12  24  42  70  94 140 190 224 292 358 408
#     4  12  23  40  70 106 136 177 227 295 349 410
#     4   9  20  40  71 101 135 179 236 285 338 418
#
# _framework density 23.931692000000002
#
# number of rings (size 3 to 8) (size 9 to 14) (size 15 to 20)
#    0.000    1.231    6.154    3.231    0.000    0.000 
#    4.154    0.769    0.000    0.000    0.000    0.000 
#    0.000    0.000    0.000    0.000    0.000    0.000 
#
# Total GULP energy -145001.514981 kJ/mol
# GULP energy per Si atom -5576.981345 kJ/mol
# Density = 2.387722 g / cm^3
# Si number density = 23.931692 Si / 1000 Ang^3
#
#
#
# Elastic Constant Matrix: (Units=GPa)
#
#
# Indices 1 2 3 4 5 6 
#
# 1 165.5085 26.8754 66.1437 0.0000 -21.3407 0.0000
# 2 26.8754 37.8123 37.8323 0.0000 -1.5676 0.0000
# 3 66.1437 37.8323 156.3018 0.0002 -14.5919 0.0000
# 4 0.0000 0.0000 0.0002 30.9053 0.0000 -11.2757
# 5 -21.3407 -1.5676 -14.5919 0.0000 57.3416 0.0000
# 6 0.0000 0.0000 0.0000 -11.2757 0.0000 12.0413
#
#
#
# Elastic Compliance Matrix: (Units=1/GPa)
#
#
# Indices 1 2 3 4 5 6 
#
# 1 0.007760 -0.003094 -0.002329 0.000000 0.002211 0.000000
# 2 -0.003094 0.036216 -0.007653 0.000000 -0.002109 0.000000
# 3 -0.002329 -0.007653 0.009358 0.000000 0.001305 0.000000
# 4 0.000000 0.000000 0.000000 0.049148 0.000000 0.046023
# 5 0.002211 -0.002109 0.001305 0.000000 0.018537 0.000000
# 6 0.000000 0.000000 0.000000 0.046023 0.000000 0.126144
#
#
# Mechanical properties :
#
#
# Convention : Reuss Voigt Hill
#
# Bulk Modulus (GPa) = 36.79016 69.03616 52.91316
# Shear Modulus (GPa) = 17.70694 35.30906 26.50800
#
# Velocity S-wave (km/s) = 2.72305 3.84527 3.33175
# Velocity P-wave (km/s) = 5.02922 6.97314 6.07938
#
# Compressibility (1/GPa) = 0.02718118
#
# Stress axis : x y z
#
# Youngs Moduli (GPa) = 128.86483 27.61245 106.86454
#
# Poissons Ratio (x) = 0.08543 0.24884
# Poissons Ratio (y) = 0.39871 0.81788
# Poissons Ratio (z) = 0.30007 0.21133
#
# Static dielectric constant tensor:
#      x y z
#    x 1.700620 0.000000 -0.196310 
#    y 0.000000 0.641530 0.000000 
#    z -0.196310 0.000000 1.889690 
# 
# From -- ./inp_files/269910.got.cif
#   From: 2010.05.17/outbox.cif.g08.bks.cpg/sg15_135_cif.got.tgz:269910.got - 2010.06.03 18:47:42.
