data_PCOD9268815
_publ_section_title
;
Structure prediction by ZEFSAII (Michael W. Deem and Ramdas Pophale) SiO2 
 PCOD9268815
Probable space group: C 2/C
;
_chemical_formula_sum "Si O2"
_cell_formula_units_Z 64
_cell_length_a 21.793908
_cell_length_b 15.872140
_cell_length_c 12.723080
_cell_angle_alpha 90.000000
_cell_angle_beta 143.019220
_cell_angle_gamma 90.000000
_cell_volume 2647.478753
_symmetry_space_group_name_H-M "C 2/C"
_symmetry_group_IT_number 15
_symmetry_cell_setting 'monoclinic'
loop_
_space_group_symop_operation_xyz
x,y,z
-x,y,1/2-z
-x,-y,-z
x,-y,1/2+z
1/2+x,1/2+y,z
1/2-x,1/2+y,1/2-z
1/2-x,1/2-y,-z
1/2+x,1/2-y,1/2+z
loop_
_atom_site_type_symbol
_atom_site_label
_atom_site_fract_x
_atom_site_fract_y
_atom_site_fract_z
Si Si1 0.064168 0.222215 0.944693
Si Si2 0.868960 0.844616 0.639932
Si Si3 0.623539 0.159297 0.838208
Si Si4 0.708986 0.224540 0.327863
Si Si5 0.885133 0.060951 0.359236
Si Si6 0.149366 0.878073 0.120653
Si Si7 0.892737 0.599713 0.905738
Si Si8 0.645524 0.915266 0.591910
O O1 0.055804 0.136021 0.000112
O O2 0.000000 0.215077 0.750000
O O3 0.184757 0.221807 0.087841
O O4 0.050272 0.317437 0.970734
O O5 0.746479 0.839548 0.490064
O O6 0.910640 0.754368 0.732495
O O7 0.892619 0.855946 0.551031
O O8 0.898145 0.920747 0.754201
O O9 0.588795 0.101699 0.694272
O O10 0.603866 0.134272 0.932185
O O11 0.750000 0.250000 0.500000
O O12 0.642814 0.301651 0.193172
O O13 0.652951 0.139021 0.210601
O O14 0.764497 0.070605 0.223420
O O15 0.099819 0.035934 0.592273
O O16 0.271514 0.888494 0.265734
O O17 0.908486 0.505728 0.970394
#
# Coordination Sequence:
#
# PCOD9268815 Si02
#       8
#     8   8   8   8   8   8   8   8
#     4  10  20  35  53  77 109 146 185 220 256 322
#     4   9  14  25  46  69  99 132 173 219 266 311
#     4   9  14  25  46  69  99 132 173 219 266 311
#     4  10  20  33  53  79 113 142 171 220 286 326
#     4   9  17  28  48  76 101 133 178 222 263 309
#     4   9  17  28  47  77 107 130 167 224 278 315
#     4   9  17  28  48  76 101 133 178 222 263 309
#     4   9  17  28  47  77 107 130 167 224 278 315
#
# _framework density 24.173942
#
# number of rings (size 3 to 8) (size 9 to 14) (size 15 to 20)
#    0.000    2.750    2.500    0.000    0.000    7.000 
#    0.000    0.000    0.000    6.000    0.000    2.625 
#    0.000    0.000    0.000    0.000    0.000    0.000 
#
# Total GULP energy -178647.802747 kJ/mol
# GULP energy per Si atom -5582.743836 kJ/mol
# Density = 2.411892 g / cm^3
# Si number density = 24.173942 Si / 1000 Ang^3
#
#
#
# Elastic Constant Matrix: (Units=GPa)
#
#
# Indices 1 2 3 4 5 6 
#
# 1 62.5925 35.2282 8.5996 0.0000 -8.3691 0.0000
# 2 35.2282 171.4193 59.8113 0.0000 -29.0399 0.0000
# 3 8.5996 59.8113 100.0360 0.0000 -22.7929 0.0000
# 4 0.0000 0.0000 0.0000 32.6497 0.0000 -6.0792
# 5 -8.3691 -29.0399 -22.7929 0.0000 54.4354 0.0000
# 6 0.0000 0.0000 0.0000 -6.0792 0.0000 33.1354
#
#
#
# Elastic Compliance Matrix: (Units=1/GPa)
#
#
# Indices 1 2 3 4 5 6 
#
# 1 0.018184 -0.003903 0.001031 0.000000 0.001145 0.000000
# 2 -0.003903 0.008481 -0.004246 0.000000 0.002146 0.000000
# 3 0.001031 -0.004246 0.013229 0.000000 0.003432 0.000000
# 4 0.000000 0.000000 0.000000 0.031711 0.000000 0.005818
# 5 0.001145 0.002146 0.003432 0.000000 0.021129 0.000000
# 6 0.000000 0.000000 0.000000 0.005818 0.000000 0.031247
#
#
# Mechanical properties :
#
#
# Convention : Reuss Voigt Hill
#
# Bulk Modulus (GPa) = 38.97355 60.14733 49.56044
# Shear Modulus (GPa) = 34.06717 39.40466 36.73592
#
# Velocity S-wave (km/s) = 3.75807 4.04176 3.90250
# Velocity P-wave (km/s) = 5.91506 6.83493 6.39156
#
# Compressibility (1/GPa) = 0.02565843
#
# Stress axis : x y z
#
# Youngs Moduli (GPa) = 54.99214 117.91216 75.59407
#
# Poissons Ratio (x) = 0.46019 -0.07796
# Poissons Ratio (y) = 0.21463 0.32098
# Poissons Ratio (z) = -0.05671 0.50067
#
# Static dielectric constant tensor:
#      x y z
#    x 2.022060 0.000000 0.118900 
#    y 0.000000 1.877410 0.000000 
#    z 0.118900 0.000000 2.184700 
# 
# From -- ./inp_files/119731.got.cif
#   From: 2010.05.17/outbox.cif.g08.bks.cpg/sg15_60_cif.got.tgz:119731.got - 2010.06.03 18:47:42.
