data_PCOD9268803
_publ_section_title
;
Structure prediction by ZEFSAII (Michael W. Deem and Ramdas Pophale) SiO2 
 PCOD9268803
Probable space group: C 2/C
;
_chemical_formula_sum "Si O2"
_cell_formula_units_Z 60
_cell_length_a 11.588389
_cell_length_b 22.512433
_cell_length_c 25.734359
_cell_angle_alpha 90.000000
_cell_angle_beta 29.220501
_cell_angle_gamma 90.000000
_cell_volume 3277.416919
_symmetry_space_group_name_H-M "C 2/C"
_symmetry_group_IT_number 15
_symmetry_cell_setting 'monoclinic'
loop_
_space_group_symop_operation_xyz
x,y,z
-x,y,1/2-z
-x,-y,-z
x,-y,1/2+z
1/2+x,1/2+y,z
1/2-x,1/2+y,1/2-z
1/2-x,1/2-y,-z
1/2+x,1/2-y,1/2+z
loop_
_atom_site_type_symbol
_atom_site_label
_atom_site_fract_x
_atom_site_fract_y
_atom_site_fract_z
Si Si1 0.430408 0.077480 0.119978
Si Si2 0.008685 0.813148 0.110615
Si Si3 0.204168 0.458207 0.710704
Si Si4 0.466378 0.557365 0.874767
Si Si5 0.500000 0.498104 0.750000
Si Si6 0.277853 0.218810 0.404194
Si Si7 0.807056 0.174841 0.167658
Si Si8 0.175881 0.798877 0.728636
O O1 0.404654 0.055107 0.189510
O O2 0.356554 0.146601 0.147857
O O3 0.231734 0.042927 0.164938
O O4 0.691922 0.064697 0.997439
O O5 0.808472 0.763797 0.180604
O O6 0.923244 0.877543 0.160505
O O7 0.172452 0.783769 0.091371
O O8 0.150678 0.815982 0.000620
O O9 0.398610 0.508962 0.643076
O O10 0.316152 0.394676 0.650384
O O11 0.000000 0.473774 0.750000
O O12 0.484909 0.536414 0.808112
O O13 0.534444 0.190751 0.290411
O O14 0.138980 0.213421 0.404584
O O15 0.940151 0.187848 0.169240
O O16 0.000000 0.798118 0.750000
#
# Coordination Sequence:
#
# PCOD9268803 Si02
#       8
#     8   8   8   8   4   8   8   8
#     4  10  20  39  60  84 107 149 200 235 276 325
#     4  10  20  33  52  84 110 142 182 223 292 336
#     4  10  20  35  55  84 117 145 187 229 279 337
#     4  11  23  35  58  84 120 153 183 230 288 348
#     4  10  22  40  58  84 114 150 196 238 278 332
#     4   9  16  33  58  79 102 138 188 240 257 334
#     4   9  17  32  58  81 103 139 193 232 266 315
#     4  10  20  36  60  78 109 148 188 239 278 329
#
# _framework density 18.307099999999998
#
# number of rings (size 3 to 8) (size 9 to 14) (size 15 to 20)
#    0.000    2.133    2.000    3.600    0.000    3.200 
#    0.000    0.667    0.000    0.000    0.000    0.000 
#    0.000    0.000    0.000    0.000    0.000    0.000 
#
# Total GULP energy -167263.210393 kJ/mol
# GULP energy per Si atom -5575.440346 kJ/mol
# Density = 1.826543 g / cm^3
# Si number density = 18.307100 Si / 1000 Ang^3
#
#
#
# Elastic Constant Matrix: (Units=GPa)
#
#
# Indices 1 2 3 4 5 6 
#
# 1 159.6746 54.8049 36.6721 -0.0131 2.3933 0.0203
# 2 54.8049 115.0755 44.1118 0.0267 -1.6171 0.0072
# 3 36.6721 44.1118 48.3087 0.0664 -3.5344 -0.0111
# 4 -0.0131 0.0267 0.0664 21.3680 -0.0347 -3.1943
# 5 2.3933 -1.6171 -3.5344 -0.0347 22.3409 -0.0138
# 6 0.0203 0.0072 -0.0111 -3.1943 -0.0138 20.4021
#
#
#
# Elastic Compliance Matrix: (Units=1/GPa)
#
#
# Indices 1 2 3 4 5 6 
#
# 1 0.008013 -0.002248 -0.004153 0.000017 -0.001678 -0.000008
# 2 -0.002248 0.014021 -0.011134 0.000014 -0.000506 -0.000007
# 3 -0.004153 -0.011134 0.034391 -0.000085 0.005080 0.000017
# 4 0.000017 0.000014 -0.000085 0.047921 0.000065 0.007503
# 5 -0.001678 -0.000506 0.005080 0.000065 0.045708 0.000046
# 6 -0.000008 -0.000007 0.000017 0.007503 0.000046 0.050189
#
#
# Mechanical properties :
#
#
# Convention : Reuss Voigt Hill
#
# Bulk Modulus (GPa) = 46.82515 66.02629 56.42572
# Shear Modulus (GPa) = 20.62427 25.32018 22.97222
#
# Velocity S-wave (km/s) = 3.36009 3.72301 3.54620
# Velocity P-wave (km/s) = 6.37861 7.39090 6.90333
#
# Compressibility (1/GPa) = 0.02135605
#
# Stress axis : x y z
#
# Youngs Moduli (GPa) = 124.79257 71.32007 29.07708
#
# Poissons Ratio (x) = 0.16032 0.12077
# Poissons Ratio (y) = 0.28052 0.32374
# Poissons Ratio (z) = 0.51830 0.79406
#
# Static dielectric constant tensor:
#      x y z
#    x 1.684540 -0.000010 -0.000850 
#    y -0.000010 1.634540 0.000010 
#    z -0.000850 0.000010 1.622120 
# 
# From -- ./inp_files/293526.got.cif
#   From: 2010.05.17/outbox.cif.g08.bks.cpg/sg15_147_cif.got.tgz:293526.got - 2010.06.03 18:47:42.
