data_PCOD9268164
_publ_section_title
;
Structure prediction by ZEFSAII (Michael W. Deem and Ramdas Pophale) SiO2 
 PCOD9268164
Probable space group: C 2/C
;
_chemical_formula_sum "Si O2"
_cell_formula_units_Z 48
_cell_length_a 20.696865
_cell_length_b 12.047320
_cell_length_c 14.207587
_cell_angle_alpha 90.000000
_cell_angle_beta 136.132563
_cell_angle_gamma 90.000000
_cell_volume 2454.955851
_symmetry_space_group_name_H-M "C 2/C"
_symmetry_group_IT_number 15
_symmetry_cell_setting 'monoclinic'
loop_
_space_group_symop_operation_xyz
x,y,z
-x,y,1/2-z
-x,-y,-z
x,-y,1/2+z
1/2+x,1/2+y,z
1/2-x,1/2+y,1/2-z
1/2-x,1/2-y,-z
1/2+x,1/2-y,1/2+z
loop_
_atom_site_type_symbol
_atom_site_label
_atom_site_fract_x
_atom_site_fract_y
_atom_site_fract_z
Si Si1 0.321027 0.782704 0.952920
Si Si2 0.898044 0.007852 0.351508
Si Si3 0.771561 0.904902 0.889318
Si Si4 0.744184 0.830209 0.189760
Si Si5 0.606866 0.024463 0.093969
Si Si6 0.335594 0.409156 0.596889
O O1 0.255916 0.721566 0.806963
O O2 0.384714 0.867467 0.962971
O O3 0.258499 0.856864 0.956970
O O4 0.370369 0.684388 0.061407
O O5 0.834151 0.067848 0.362694
O O6 0.899940 0.068568 0.253553
O O7 0.841635 0.893607 0.274588
O O8 0.000000 0.000000 0.500000
O O9 0.771419 0.772205 0.896701
O O10 0.668207 0.946053 0.751063
O O11 0.810991 0.978724 0.015054
O O12 0.662111 0.920895 0.105165
O O13 0.500000 0.000000 0.000000
#
# Coordination Sequence:
#
# PCOD9268164 Si02
#       6
#     8   8   8   8   8   8
#     4  10  20  39  67  93 121 177 217 264 324 385
#     4  11  23  40  63  96 128 164 220 275 329 382
#     4  10  22  40  61  90 133 171 210 268 334 390
#     4  10  19  43  61  90 132 167 208 268 328 385
#     4  10  20  39  63  95 128 168 213 267 326 385
#     4  11  20  41  68  92 129 171 225 265 323 394
#
# _framework density 19.552287
#
# number of rings (size 3 to 8) (size 9 to 14) (size 15 to 20)
#    0.000    1.667    8.333    0.000    0.000    4.000 
#    0.000    2.500    0.000    2.000    0.000    0.000 
#    0.000    0.000    0.000    0.000    0.000    0.000 
#
# Total GULP energy -133923.767336 kJ/mol
# GULP energy per Si atom -5580.156972 kJ/mol
# Density = 1.950778 g / cm^3
# Si number density = 19.552287 Si / 1000 Ang^3
#
#
#
# Elastic Constant Matrix: (Units=GPa)
#
#
# Indices 1 2 3 4 5 6 
#
# 1 56.3941 39.7555 57.6605 0.0000 2.7325 0.0000
# 2 39.7555 132.8410 57.2872 0.0000 7.4529 0.0000
# 3 57.6605 57.2872 129.9981 0.0000 7.5127 0.0000
# 4 0.0000 0.0000 0.0000 20.7562 0.0000 -11.8830
# 5 2.7325 7.4529 7.5127 0.0000 37.8748 0.0000
# 6 0.0000 0.0000 0.0000 -11.8830 0.0000 28.4798
#
#
#
# Elastic Compliance Matrix: (Units=1/GPa)
#
#
# Indices 1 2 3 4 5 6 
#
# 1 0.034637 -0.004659 -0.013372 0.000000 0.001070 0.000000
# 2 -0.004659 0.009961 -0.002255 0.000000 -0.001177 0.000000
# 3 -0.013372 -0.002255 0.014704 0.000000 -0.001508 0.000000
# 4 0.000000 0.000000 0.000000 0.063299 0.000000 0.026411
# 5 0.001070 -0.001177 -0.001508 0.000000 0.026856 0.000000
# 6 0.000000 0.000000 0.000000 0.026411 0.000000 0.046132
#
#
# Mechanical properties :
#
#
# Convention : Reuss Voigt Hill
#
# Bulk Modulus (GPa) = 53.38995 69.84885 61.61940
# Shear Modulus (GPa) = 20.62660 28.39084 24.50872
#
# Velocity S-wave (km/s) = 3.25152 3.81471 3.54432
# Velocity P-wave (km/s) = 6.43910 7.42996 6.95221
#
# Compressibility (1/GPa) = 0.01873012
#
# Stress axis : x y z
#
# Youngs Moduli (GPa) = 28.87053 100.39569 68.00737
#
# Poissons Ratio (x) = 0.46779 0.90939
# Poissons Ratio (y) = 0.13452 0.15334
# Poissons Ratio (z) = 0.38605 0.22636
#
# Static dielectric constant tensor:
#      x y z
#    x 1.699770 0.000000 -0.029630 
#    y 0.000000 1.729860 0.000000 
#    z -0.029630 0.000000 1.682070 
# 
# From -- ./inp_files/167918.got.cif
#   From: 2010.05.17/outbox.cif.g08.bks.cpg/sg15_84_cif.got.tgz:167918.got - 2010.06.03 18:47:42.
