data_PCOD9268597
_publ_section_title
;
Structure prediction by ZEFSAII (Michael W. Deem and Ramdas Pophale) SiO2 
 PCOD9268597
Probable space group: C 2/C
;
_chemical_formula_sum "Si O2"
_cell_formula_units_Z 56
_cell_length_a 23.981756
_cell_length_b 5.841882
_cell_length_c 24.492993
_cell_angle_alpha 90.000000
_cell_angle_beta 55.982535
_cell_angle_gamma 90.000000
_cell_volume 2844.202474
_symmetry_space_group_name_H-M "C 2/C"
_symmetry_group_IT_number 15
_symmetry_cell_setting 'monoclinic'
loop_
_space_group_symop_operation_xyz
x,y,z
-x,y,1/2-z
-x,-y,-z
x,-y,1/2+z
1/2+x,1/2+y,z
1/2-x,1/2+y,1/2-z
1/2-x,1/2-y,-z
1/2+x,1/2-y,1/2+z
loop_
_atom_site_type_symbol
_atom_site_label
_atom_site_fract_x
_atom_site_fract_y
_atom_site_fract_z
Si Si1 0.711537 0.056771 0.265366
Si Si2 0.910179 0.361537 0.589751
Si Si3 0.652554 0.498818 0.443727
Si Si4 0.243666 0.117041 0.073030
Si Si5 0.439094 0.865044 0.961066
Si Si6 0.209259 0.728242 0.152040
Si Si7 0.162764 0.501992 0.567317
O O1 0.750591 0.305824 0.255208
O O2 0.650732 0.042188 0.341416
O O3 0.682885 0.108729 0.220399
O O4 0.889147 0.107051 0.582929
O O5 0.920054 0.500354 0.527544
O O6 0.980831 0.354578 0.582212
O O7 0.697855 0.295861 0.444094
O O8 0.599815 0.623324 0.511767
O O9 0.711648 0.664930 0.392376
O O10 0.184457 0.245181 0.074153
O O11 0.213169 0.000707 0.143315
O O12 0.281523 0.948548 0.010272
O O13 0.407439 0.980493 0.924941
O O14 0.172999 0.643350 0.116632
#
# Coordination Sequence:
#
# PCOD9268597 Si02
#       7
#     8   8   8   8   8   8   8
#     4  12  26  44  69  95 131 172 218 274 323 393
#     4  11  24  41  60  91 126 170 218 263 333 393
#     4  11  18  36  57  90 123 156 202 264 321 381
#     4  10  20  32  57  90 127 151 207 259 325 372
#     4  11  23  39  61  91 129 167 210 268 332 398
#     4  11  22  36  61  90 126 163 212 262 324 382
#     4  10  21  33  56  92 124 162 201 267 321 383
#
# _framework density 19.689176
#
# number of rings (size 3 to 8) (size 9 to 14) (size 15 to 20)
#    0.000    1.143    4.286    2.571    6.000    0.000 
#    0.000    0.714    0.000    0.000    3.714    0.000 
#    0.000    0.000    0.000    0.000    0.000    0.000 
#
# Total GULP energy -156058.508553 kJ/mol
# GULP energy per Si atom -5573.518163 kJ/mol
# Density = 1.964436 g / cm^3
# Si number density = 19.689176 Si / 1000 Ang^3
#
#
#
# Elastic Constant Matrix: (Units=GPa)
#
#
# Indices 1 2 3 4 5 6 
#
# 1 176.4263 49.5920 40.7383 -0.0177 -3.9062 -0.0459
# 2 49.5920 58.9478 18.2004 -0.0901 -1.8725 0.0209
# 3 40.7383 18.2004 71.1439 -0.0121 -2.5960 -0.0375
# 4 -0.0177 -0.0901 -0.0121 21.3562 -0.0033 7.8917
# 5 -3.9062 -1.8725 -2.5960 -0.0033 29.3861 0.0007
# 6 -0.0459 0.0209 -0.0375 7.8917 0.0007 32.7362
#
#
#
# Elastic Compliance Matrix: (Units=1/GPa)
#
#
# Indices 1 2 3 4 5 6 
#
# 1 0.008016 -0.005774 -0.003097 -0.000026 0.000424 0.000018
# 2 -0.005774 0.022595 -0.002458 0.000108 0.000455 -0.000051
# 3 -0.003097 -0.002458 0.016491 -0.000010 0.000888 0.000019
# 4 -0.000026 0.000108 -0.000010 0.051405 0.000009 -0.012392
# 5 0.000424 0.000455 0.000888 0.000009 0.034194 -0.000001
# 6 0.000018 -0.000051 0.000019 -0.012392 -0.000001 0.033535
#
#
# Mechanical properties :
#
#
# Convention : Reuss Voigt Hill
#
# Bulk Modulus (GPa) = 40.90987 58.17546 49.54266
# Shear Modulus (GPa) = 25.37562 29.89485 27.63524
#
# Velocity S-wave (km/s) = 3.59390 3.90081 3.75050
# Velocity P-wave (km/s) = 6.16801 7.06396 6.63114
#
# Compressibility (1/GPa) = 0.02444398
#
# Stress axis : x y z
#
# Youngs Moduli (GPa) = 124.75642 44.25769 60.63999
#
# Poissons Ratio (x) = 0.25553 0.18782
# Poissons Ratio (y) = 0.72030 0.14903
# Poissons Ratio (z) = 0.38642 0.10877
#
# Static dielectric constant tensor:
#      x y z
#    x 1.707910 -0.000040 0.047270 
#    y -0.000040 1.837230 -0.000010 
#    z 0.047270 -0.000010 1.707620 
# 
# From -- ./inp_files/301672.got.cif
#   From: 2010.05.17/outbox.cif.g08.bks.cpg/sg15_151_cif.got.tgz:301672.got - 2010.06.03 18:47:42.
