data_PCOD9268610
_publ_section_title
;
Structure prediction by ZEFSAII (Michael W. Deem and Ramdas Pophale) SiO2 
 PCOD9268610
Probable space group: C 2/C
;
_chemical_formula_sum "Si O2"
_cell_formula_units_Z 44
_cell_length_a 21.290949
_cell_length_b 18.602078
_cell_length_c 5.631154
_cell_angle_alpha 90.000000
_cell_angle_beta 100.667386
_cell_angle_gamma 90.000000
_cell_volume 2191.709241
_symmetry_space_group_name_H-M "C 2/C"
_symmetry_group_IT_number 15
_symmetry_cell_setting 'monoclinic'
loop_
_space_group_symop_operation_xyz
x,y,z
-x,y,1/2-z
-x,-y,-z
x,-y,1/2+z
1/2+x,1/2+y,z
1/2-x,1/2+y,1/2-z
1/2-x,1/2-y,-z
1/2+x,1/2-y,1/2+z
loop_
_atom_site_type_symbol
_atom_site_label
_atom_site_fract_x
_atom_site_fract_y
_atom_site_fract_z
Si Si1 0.062260 0.066004 0.175536
Si Si2 0.306126 0.468883 0.891613
Si Si3 0.000000 0.828893 0.250000
Si Si4 0.691185 0.193284 0.934815
Si Si5 0.767618 0.334138 0.536272
Si Si6 0.070948 0.211547 0.405060
O O1 0.117601 0.020951 0.091441
O O2 0.089889 0.127996 0.371424
O O3 0.000000 0.029887 0.250000
O O4 0.032448 0.119190 0.960320
O O5 0.282091 0.488013 0.608037
O O6 0.291713 0.386476 0.949760
O O7 0.943574 0.782883 0.326181
O O8 0.704169 0.147922 0.704721
O O9 0.626152 0.237520 0.855686
O O10 0.750000 0.250000 0.000000
O O11 0.690029 0.157015 0.195159
O O12 0.750000 0.250000 0.500000
O O13 0.000000 0.226768 0.250000
#
# Coordination Sequence:
#
# PCOD9268610 Si02
#       6
#     8   8   4   8   8   8
#     4   9  20  35  52  77 112 166 215 248 280 336
#     4  12  27  41  60  84 122 160 205 258 305 350
#     4   8  18  30  54  74 122 154 214 242 292 332
#     4  10  20  32  58  85 114 155 200 244 297 363
#     4  10  22  39  60  86 112 152 201 250 301 363
#     4   9  19  32  54  87 123 160 196 258 303 347
#
# _framework density 20.075652999999999
#
# number of rings (size 3 to 8) (size 9 to 14) (size 15 to 20)
#    0.000    2.545    0.000    3.273   15.273    0.727 
#    0.000    0.000    0.000    0.000    0.000    0.000 
#    0.000   14.545    0.000    0.000    0.000    0.000 
#
# Total GULP energy -122497.845862 kJ/mol
# GULP energy per Si atom -5568.083903 kJ/mol
# Density = 2.002996 g / cm^3
# Si number density = 20.075653 Si / 1000 Ang^3
#
#
#
# Elastic Constant Matrix: (Units=GPa)
#
#
# Indices 1 2 3 4 5 6 
#
# 1 90.0259 33.9041 34.7384 0.0000 -14.2917 0.0000
# 2 33.9041 50.6146 22.5194 0.0000 -12.0566 0.0000
# 3 34.7384 22.5194 140.5589 0.0000 -36.3838 0.0000
# 4 0.0000 0.0000 0.0000 22.9715 0.0000 -11.9752
# 5 -14.2917 -12.0566 -36.3838 0.0000 33.3485 0.0000
# 6 0.0000 0.0000 0.0000 -11.9752 0.0000 34.0808
#
#
#
# Elastic Compliance Matrix: (Units=1/GPa)
#
#
# Indices 1 2 3 4 5 6 
#
# 1 0.015563 -0.009245 -0.002096 0.000000 0.001041 0.000000
# 2 -0.009245 0.027525 -0.000801 0.000000 0.005115 0.000000
# 3 -0.002096 -0.000801 0.010387 0.000000 0.010144 0.000000
# 4 0.000000 0.000000 0.000000 0.053294 0.000000 0.018726
# 5 0.001041 0.005115 0.010144 0.000000 0.043349 0.000000
# 6 0.000000 0.000000 0.000000 0.018726 0.000000 0.035922
#
#
# Mechanical properties :
#
#
# Convention : Reuss Voigt Hill
#
# Bulk Modulus (GPa) = 34.25636 51.50258 42.87947
# Shear Modulus (GPa) = 22.72170 30.74935 26.73552
#
# Velocity S-wave (km/s) = 3.36788 3.91791 3.65326
# Velocity P-wave (km/s) = 5.67663 6.79534 6.26102
#
# Compressibility (1/GPa) = 0.02919166
#
# Stress axis : x y z
#
# Youngs Moduli (GPa) = 64.25290 36.33116 96.27808
#
# Poissons Ratio (x) = 0.33587 0.20179
# Poissons Ratio (y) = 0.59400 0.07711
# Poissons Ratio (z) = 0.13467 0.02910
#
# Static dielectric constant tensor:
#      x y z
#    x 1.721440 0.000000 -0.027870 
#    y 0.000000 1.698930 0.000000 
#    z -0.027870 0.000000 1.963320 
# 
# From -- ./inp_files/12947.got.cif
#   From: 2010.05.17/outbox.cif.g08.bks.cpg/sg15_7_cif.got.tgz:12947.got - 2010.06.03 18:47:42.
