data_PCOD9268246
_publ_section_title
;
Structure prediction by ZEFSAII (Michael W. Deem and Ramdas Pophale) SiO2 
 PCOD9268246
Probable space group: C 2/C
;
_chemical_formula_sum "Si O2"
_cell_formula_units_Z 64
_cell_length_a 22.208594
_cell_length_b 24.869438
_cell_length_c 7.754429
_cell_angle_alpha 90.000000
_cell_angle_beta 71.963177
_cell_angle_gamma 90.000000
_cell_volume 4072.418454
_symmetry_space_group_name_H-M "C 2/C"
_symmetry_group_IT_number 15
_symmetry_cell_setting 'monoclinic'
loop_
_space_group_symop_operation_xyz
x,y,z
-x,y,1/2-z
-x,-y,-z
x,-y,1/2+z
1/2+x,1/2+y,z
1/2-x,1/2+y,1/2-z
1/2-x,1/2-y,-z
1/2+x,1/2-y,1/2+z
loop_
_atom_site_type_symbol
_atom_site_label
_atom_site_fract_x
_atom_site_fract_y
_atom_site_fract_z
Si Si1 0.199722 0.655348 0.804429
Si Si2 0.513960 0.080710 0.943509
Si Si3 0.875699 0.566265 0.125784
Si Si4 0.990365 0.298488 0.530154
Si Si5 0.851628 0.545975 0.745376
Si Si6 0.638286 0.813581 0.717643
Si Si7 0.695957 0.273865 0.424975
Si Si8 0.403286 0.228647 0.781651
O O1 0.193560 0.591186 0.794993
O O2 0.269676 0.676029 0.694696
O O3 0.148156 0.683281 0.722474
O O4 0.175419 0.678588 0.007315
O O5 0.500000 0.080248 0.750000
O O6 0.581361 0.054001 0.913044
O O7 0.451297 0.057822 0.088569
O O8 0.518640 0.141840 0.002833
O O9 0.837808 0.517299 0.246075
O O10 0.862247 0.626622 0.199610
O O11 0.861945 0.561541 0.934992
O O12 0.936381 0.294654 0.726190
O O13 0.944314 0.294684 0.402659
O O14 0.048814 0.260913 0.419137
O O15 0.674549 0.769890 0.802028
O O16 0.750000 0.250000 0.500000
O O17 0.635222 0.278835 0.604889
#
# Coordination Sequence:
#
# PCOD9268246 Si02
#       8
#     8   8   8   8   8   8   8   8
#     4  11  19  29  43  62  84 109 142 185 220 265
#     4   9  14  25  40  54  77 105 143 179 213 246
#     4  10  20  30  41  58  79 115 145 186 218 257
#     4   9  14  27  43  59  79 109 139 178 216 257
#     4  11  19  30  42  56  83 110 151 181 221 253
#     4  10  20  30  43  63  85 106 143 179 222 268
#     4   9  18  31  47  60  75 107 143 181 219 259
#     4   9  15  27  44  59  77 104 143 175 218 258
#
# _framework density 15.715477999999999
#
# number of rings (size 3 to 8) (size 9 to 14) (size 15 to 20)
#    0.000    2.250    2.500    4.500    0.000    0.500 
#    0.000    1.250    0.000    0.000    0.000    0.000 
#    0.000    0.000    0.000    0.000    0.000  322.500 
#
# Total GULP energy -178199.579657 kJ/mol
# GULP energy per Si atom -5568.736864 kJ/mol
# Density = 1.567971 g / cm^3
# Si number density = 15.715478 Si / 1000 Ang^3
#
#
#
# Elastic Constant Matrix: (Units=GPa)
#
#
# Indices 1 2 3 4 5 6 
#
# 1 33.8877 30.6613 17.0222 0.0000 -16.9890 0.0000
# 2 30.6613 69.2102 26.9377 0.0000 -19.0905 0.0000
# 3 17.0222 26.9377 82.3366 0.0000 -16.0228 0.0000
# 4 0.0000 0.0000 0.0000 22.5530 0.0000 -3.3008
# 5 -16.9890 -19.0905 -16.0228 0.0000 18.2003 0.0000
# 6 0.0000 0.0000 0.0000 -3.3008 0.0000 19.2446
#
#
#
# Elastic Compliance Matrix: (Units=1/GPa)
#
#
# Indices 1 2 3 4 5 6 
#
# 1 0.068159 -0.017918 0.000597 0.000000 0.045354 0.000000
# 2 -0.017918 0.025683 -0.003271 0.000000 0.007334 0.000000
# 3 0.000597 -0.003271 0.015124 0.000000 0.010441 0.000000
# 4 0.000000 0.000000 0.000000 0.045482 0.000000 0.007801
# 5 0.045354 0.007334 0.010441 0.000000 0.114164 0.000000
# 6 0.000000 0.000000 0.000000 0.007801 0.000000 0.053301
#
#
# Mechanical properties :
#
#
# Convention : Reuss Voigt Hill
#
# Bulk Modulus (GPa) = 14.75326 37.18632 25.96979
# Shear Modulus (GPa) = 12.96382 19.38713 16.17547
#
# Velocity S-wave (km/s) = 2.87524 3.51612 3.21170
# Velocity P-wave (km/s) = 4.52004 6.34017 5.50584
#
# Compressibility (1/GPa) = 0.06778164
#
# Stress axis : x y z
#
# Youngs Moduli (GPa) = 14.67165 38.93679 66.12112
#
# Poissons Ratio (x) = 0.69766 -0.03947
# Poissons Ratio (y) = 0.26288 0.21628
# Poissons Ratio (z) = -0.00876 0.12736
#
# Static dielectric constant tensor:
#      x y z
#    x 1.560580 0.000000 0.017090 
#    y 0.000000 1.526760 0.000000 
#    z 0.017090 0.000000 1.649530 
# 
# From -- ./inp_files/63700.got.cif
#   From: 2010.05.17/outbox.cif.g08.bks.cpg/sg15_32_cif.got.tgz:63700.got - 2010.06.03 18:47:42.
