data_PCOD9268496
_publ_section_title
;
Structure prediction by ZEFSAII (Michael W. Deem and Ramdas Pophale) SiO2 
 PCOD9268496
Probable space group: C 2/C
;
_chemical_formula_sum "Si O2"
_cell_formula_units_Z 60
_cell_length_a 17.470287
_cell_length_b 25.346072
_cell_length_c 9.191607
_cell_angle_alpha 90.000000
_cell_angle_beta 57.469756
_cell_angle_gamma 90.000000
_cell_volume 3431.509553
_symmetry_space_group_name_H-M "C 2/C"
_symmetry_group_IT_number 15
_symmetry_cell_setting 'monoclinic'
loop_
_space_group_symop_operation_xyz
x,y,z
-x,y,1/2-z
-x,-y,-z
x,-y,1/2+z
1/2+x,1/2+y,z
1/2-x,1/2+y,1/2-z
1/2-x,1/2-y,-z
1/2+x,1/2-y,1/2+z
loop_
_atom_site_type_symbol
_atom_site_label
_atom_site_fract_x
_atom_site_fract_y
_atom_site_fract_z
Si Si1 0.324398 0.899853 0.125001
Si Si2 0.312493 0.705366 0.239282
Si Si3 0.711106 0.313675 0.392368
Si Si4 0.705416 0.883254 0.680690
Si Si5 0.870200 0.522340 0.129696
Si Si6 0.509388 0.835750 0.908371
Si Si7 0.485517 0.726070 0.437551
Si Si8 0.500000 0.990229 0.250000
O O1 0.256419 0.868335 0.299063
O O2 0.339882 0.961615 0.139799
O O3 0.288214 0.891396 0.998040
O O4 0.422092 0.870838 0.035650
O O5 0.293066 0.690521 0.427980
O O6 0.272313 0.764884 0.268850
O O7 0.264680 0.663912 0.182772
O O8 0.419855 0.703831 0.099185
O O9 0.608531 0.304493 0.439683
O O10 0.713512 0.939283 0.753429
O O11 0.601690 0.867978 0.821724
O O12 0.937743 0.522561 0.200589
O O13 0.928831 0.538695 0.928006
O O14 0.500000 0.818138 0.750000
O O15 0.520698 0.785185 0.997217
O O16 0.500000 0.728102 0.250000
#
# Coordination Sequence:
#
# PCOD9268496 Si02
#       8
#     8   8   8   8   8   8   8   4
#     4  11  23  37  55  81 118 153 191 230 275 336
#     4  10  21  37  57  84 111 147 190 231 283 337
#     4  10  21  37  57  84 111 147 190 231 283 337
#     4  11  23  37  55  81 118 153 191 230 275 336
#     4  11  22  38  52  85 116 154 190 233 280 343
#     4  10  20  32  52  80 114 152 181 224 275 329
#     4  10  20  38  55  81 116 144 185 235 277 332
#     4  10  20  36  58  78 124 152 188 226 284 340
#
# _framework density 17.485016999999999
#
# number of rings (size 3 to 8) (size 9 to 14) (size 15 to 20)
#    0.000    1.600    4.000    1.600    3.733    1.600 
#    2.400    0.000    0.000    0.800    0.000    0.000 
#    0.000    0.000    0.000    0.000    0.000    0.000 
#
# Total GULP energy -167390.859727 kJ/mol
# GULP energy per Si atom -5579.695324 kJ/mol
# Density = 1.744522 g / cm^3
# Si number density = 17.485017 Si / 1000 Ang^3
#
#
#
# Elastic Constant Matrix: (Units=GPa)
#
#
# Indices 1 2 3 4 5 6 
#
# 1 80.7851 24.7109 16.4175 0.0000 -5.5880 0.0000
# 2 24.7109 71.7407 16.3268 0.0000 3.0125 0.0000
# 3 16.4175 16.3268 43.2930 0.0000 -7.4206 0.0000
# 4 0.0000 0.0000 0.0000 14.7142 0.0000 -3.9050
# 5 -5.5880 3.0125 -7.4206 0.0000 18.0425 0.0000
# 6 0.0000 0.0000 0.0000 -3.9050 0.0000 6.2902
#
#
#
# Elastic Compliance Matrix: (Units=1/GPa)
#
#
# Indices 1 2 3 4 5 6 
#
# 1 0.014678 -0.004498 -0.003187 0.000000 0.003986 0.000000
# 2 -0.004498 0.017109 -0.005890 0.000000 -0.006672 0.000000
# 3 -0.003187 -0.005890 0.028539 0.000000 0.011734 0.000000
# 4 0.000000 0.000000 0.000000 0.081367 0.000000 0.050513
# 5 0.003986 -0.006672 0.011734 0.000000 0.062599 0.000000
# 6 0.000000 0.000000 0.000000 0.050513 0.000000 0.190337
#
#
# Mechanical properties :
#
#
# Convention : Reuss Voigt Hill
#
# Bulk Modulus (GPa) = 30.14138 34.52546 32.33342
# Shear Modulus (GPa) = 11.55168 17.03363 14.29265
#
# Velocity S-wave (km/s) = 2.57312 3.12458 2.86216
# Velocity P-wave (km/s) = 5.10918 5.72765 5.42723
#
# Compressibility (1/GPa) = 0.03317699
#
# Stress axis : x y z
#
# Youngs Moduli (GPa) = 68.13072 58.44864 35.03924
#
# Poissons Ratio (x) = 0.26289 0.11165
# Poissons Ratio (y) = 0.30644 0.20639
# Poissons Ratio (z) = 0.21710 0.34427
#
# Static dielectric constant tensor:
#      x y z
#    x 1.606000 0.000000 0.007370 
#    y 0.000000 1.613050 0.000000 
#    z 0.007370 0.000000 1.611500 
# 
# From -- ./inp_files/50624.got.cif
#   From: 2010.05.17/outbox.cif.g08.bks.cpg/sg15_26_cif.got.tgz:50624.got - 2010.06.03 18:47:42.
