data_PCOD9268206
_publ_section_title
;
Structure prediction by ZEFSAII (Michael W. Deem and Ramdas Pophale) SiO2 
 PCOD9268206
Probable space group: C 2/C
;
_chemical_formula_sum "Si O2"
_cell_formula_units_Z 56
_cell_length_a 15.428684
_cell_length_b 10.999422
_cell_length_c 16.412399
_cell_angle_alpha 90.000000
_cell_angle_beta 119.410733
_cell_angle_gamma 90.000000
_cell_volume 2426.329148
_symmetry_space_group_name_H-M "C 2/C"
_symmetry_group_IT_number 15
_symmetry_cell_setting 'monoclinic'
loop_
_space_group_symop_operation_xyz
x,y,z
-x,y,1/2-z
-x,-y,-z
x,-y,1/2+z
1/2+x,1/2+y,z
1/2-x,1/2+y,1/2-z
1/2-x,1/2-y,-z
1/2+x,1/2-y,1/2+z
loop_
_atom_site_type_symbol
_atom_site_label
_atom_site_fract_x
_atom_site_fract_y
_atom_site_fract_z
Si Si1 0.608840 0.086827 0.766459
Si Si2 0.827877 0.863017 0.722505
Si Si3 0.641730 0.727020 0.673026
Si Si4 0.093051 0.580250 0.565943
Si Si5 0.322787 0.512678 0.394757
Si Si6 0.577850 0.697981 0.947118
Si Si7 0.305014 0.397290 0.137395
O O1 0.500000 0.054825 0.750000
O O2 0.628340 0.232947 0.784287
O O3 0.606700 0.070423 0.668354
O O4 0.702226 0.008107 0.844620
O O5 0.708088 0.836346 0.670390
O O6 0.846129 0.910754 0.823057
O O7 0.861446 0.975884 0.681391
O O8 0.640307 0.623342 0.603939
O O9 0.526882 0.733126 0.642685
O O10 0.698309 0.672704 0.777685
O O11 0.076108 0.715330 0.524382
O O12 0.195588 0.555425 0.565974
O O13 0.000000 0.500000 0.500000
O O14 0.384746 0.570618 0.496674
O O15 0.654455 0.699396 0.907536
#
# Coordination Sequence:
#
# PCOD9268206 Si02
#       7
#     8   8   8   8   8   8   8
#     4  11  24  44  69 100 132 183 234 276 350 415
#     4  10  19  44  69  88 135 189 215 279 352 406
#     4  10  21  41  63  93 135 184 221 276 352 409
#     4  12  25  45  67  99 139 177 229 292 344 410
#     4  10  21  42  66  90 139 179 220 282 342 413
#     4  12  24  39  67 104 132 174 236 285 338 413
#     4  11  23  43  68  98 139 179 228 282 353 411
#
# _framework density 23.080133
#
# number of rings (size 3 to 8) (size 9 to 14) (size 15 to 20)
#    0.000    1.143    5.714    2.143    2.000    2.286 
#    2.571    1.429    0.000    0.000    0.000    0.000 
#    0.000    0.000    0.000    0.000    0.000    0.000 
#
# Total GULP energy -156025.443874 kJ/mol
# GULP energy per Si atom -5572.337281 kJ/mol
# Density = 2.302760 g / cm^3
# Si number density = 23.080133 Si / 1000 Ang^3
#
#
#
# Elastic Constant Matrix: (Units=GPa)
#
#
# Indices 1 2 3 4 5 6 
#
# 1 93.0057 1.2088 18.7901 0.0000 2.0564 0.0000
# 2 1.2088 75.0332 1.0611 0.0000 -6.0683 0.0000
# 3 18.7901 1.0611 45.9423 0.0000 4.9226 0.0000
# 4 0.0000 0.0000 0.0000 16.7464 0.0000 3.6104
# 5 2.0564 -6.0683 4.9226 0.0000 20.0465 0.0000
# 6 0.0000 0.0000 0.0000 3.6104 0.0000 15.7833
#
#
#
# Elastic Compliance Matrix: (Units=1/GPa)
#
#
# Indices 1 2 3 4 5 6 
#
# 1 0.011722 -0.000127 -0.004784 0.000000 -0.000066 0.000000
# 2 -0.000127 0.013690 -0.000729 0.000000 0.004336 0.000000
# 3 -0.004784 -0.000729 0.024352 0.000000 -0.005710 0.000000
# 4 0.000000 0.000000 0.000000 0.062812 0.000000 -0.014368
# 5 -0.000066 0.004336 -0.005710 0.000000 0.052606 0.000000
# 6 0.000000 0.000000 0.000000 -0.014368 0.000000 0.066645
#
#
# Mechanical properties :
#
#
# Convention : Reuss Voigt Hill
#
# Bulk Modulus (GPa) = 25.98449 28.45567 27.22008
# Shear Modulus (GPa) = 19.53631 23.37665 21.45648
#
# Velocity S-wave (km/s) = 2.91255 3.18598 3.05233
# Velocity P-wave (km/s) = 4.75325 5.08820 4.92358
#
# Compressibility (1/GPa) = 0.03848450
#
# Stress axis : x y z
#
# Youngs Moduli (GPa) = 85.31206 73.04351 41.06493
#
# Poissons Ratio (x) = 0.00924 0.19646
# Poissons Ratio (y) = 0.01079 0.02994
# Poissons Ratio (z) = 0.40814 0.05325
#
# Static dielectric constant tensor:
#      x y z
#    x 1.932560 0.000000 0.091170 
#    y 0.000000 1.918820 0.000000 
#    z 0.091170 0.000000 1.931990 
# 
# From -- ./inp_files/204540.got.cif
#   From: 2010.05.17/outbox.cif.g08.bks.cpg/sg15_103_cif.got.tgz:204540.got - 2010.06.03 18:47:42.
