data_PCOD9268708
_publ_section_title
;
Structure prediction by ZEFSAII (Michael W. Deem and Ramdas Pophale) SiO2 
 PCOD9268708
Probable space group: C 2/C
;
_chemical_formula_sum "Si O2"
_cell_formula_units_Z 64
_cell_length_a 7.344842
_cell_length_b 25.337205
_cell_length_c 13.149943
_cell_angle_alpha 90.000000
_cell_angle_beta 78.730636
_cell_angle_gamma 90.000000
_cell_volume 2399.991764
_symmetry_space_group_name_H-M "C 2/C"
_symmetry_group_IT_number 15
_symmetry_cell_setting 'monoclinic'
loop_
_space_group_symop_operation_xyz
x,y,z
-x,y,1/2-z
-x,-y,-z
x,-y,1/2+z
1/2+x,1/2+y,z
1/2-x,1/2+y,1/2-z
1/2-x,1/2-y,-z
1/2+x,1/2-y,1/2+z
loop_
_atom_site_type_symbol
_atom_site_label
_atom_site_fract_x
_atom_site_fract_y
_atom_site_fract_z
Si Si1 0.220627 0.698955 0.353249
Si Si2 0.227339 0.956014 0.837613
Si Si3 0.771229 0.686828 0.587620
Si Si4 0.738895 0.427415 0.398477
Si Si5 0.201369 0.686025 0.576935
Si Si6 0.726140 0.542452 0.119838
Si Si7 0.206750 0.073339 0.561262
Si Si8 0.800081 0.298502 0.859115
O O1 0.290185 0.677271 0.454260
O O2 0.226017 0.761977 0.375447
O O3 0.302952 0.685470 0.233010
O O4 0.008101 0.681534 0.356140
O O5 0.290554 0.935776 0.720975
O O6 0.000196 0.954495 0.859840
O O7 0.279598 0.927432 0.936740
O O8 0.289839 0.017330 0.840596
O O9 0.748684 0.626149 0.617238
O O10 0.703664 0.691024 0.477501
O O11 0.677568 0.735107 0.653977
O O12 0.988174 0.698660 0.575323
O O13 0.790079 0.368228 0.361372
O O14 0.804088 0.432807 0.508605
O O15 0.515641 0.429278 0.421136
O O16 0.770444 0.480252 0.107093
#
# Coordination Sequence:
#
# PCOD9268708 Si02
#       8
#     8   8   8   8   8   8   8   8
#     4   9  19  36  54  70  93 129 168 200 235 286
#     4   8  15  29  48  69  93 123 162 203 235 272
#     4  10  20  33  50  74 102 127 156 200 248 289
#     4   9  17  30  49  71  94 124 162 198 235 283
#     4  10  20  33  50  74 102 127 156 200 248 289
#     4   8  15  29  48  69  93 123 162 203 235 272
#     4   9  17  30  49  71  94 124 162 198 235 283
#     4   9  19  36  54  70  93 129 168 200 235 286
#
# _framework density 26.666758999999999
#
# number of rings (size 3 to 8) (size 9 to 14) (size 15 to 20)
#    0.000    3.000    0.000    2.250    0.000    3.500 
#    0.000    5.000    0.000    1.500    0.000    0.000 
#    0.000    0.000    0.000    0.000    0.000    0.000 
#
# Total GULP energy -178802.517532 kJ/mol
# GULP energy per Si atom -5587.578673 kJ/mol
# Density = 2.660606 g / cm^3
# Si number density = 26.666759 Si / 1000 Ang^3
#
#
#
# Elastic Constant Matrix: (Units=GPa)
#
#
# Indices 1 2 3 4 5 6 
#
# 1 79.6321 -7.6449 20.6440 0.0000 19.7550 0.0000
# 2 -7.6449 149.4981 -2.0882 0.0000 8.2734 0.0000
# 3 20.6440 -2.0882 147.0783 0.0000 17.8338 0.0000
# 4 0.0000 0.0000 0.0000 -14.0067 0.0000 5.2059
# 5 19.7550 8.2734 17.8338 0.0000 21.5190 0.0000
# 6 0.0000 0.0000 0.0000 5.2059 0.0000 17.0695
#
#
#
# Elastic Compliance Matrix: (Units=1/GPa)
#
#
# Indices 1 2 3 4 5 6 
#
# 1 0.016716 0.001715 -0.000424 0.000000 -0.015653 0.000000
# 2 0.001715 0.007039 0.000421 0.000000 -0.004629 0.000000
# 3 -0.000424 0.000421 0.007601 0.000000 -0.006072 0.000000
# 4 0.000000 0.000000 0.000000 -0.064125 0.000000 0.019557
# 5 -0.015653 -0.004629 -0.006072 0.000000 0.067653 0.000000
# 6 0.000000 0.000000 0.000000 0.019557 0.000000 0.052619
#
#
# Mechanical properties :
#
#
# Convention : Reuss Voigt Hill
#
# Bulk Modulus (GPa) = 28.75311 44.22559 36.48935
# Shear Modulus (GPa) = 52.26244 29.26953 40.76599
#
# Velocity S-wave (km/s) = 4.43180 3.31660 3.91413
# Velocity P-wave (km/s) = 6.08224 5.59348 5.84297
#
# Compressibility (1/GPa) = 0.03477884
#
# Stress axis : x y z
#
# Youngs Moduli (GPa) = 59.82450 142.06942 131.56545
#
# Poissons Ratio (x) = -0.24367 0.05576
# Poissons Ratio (y) = -0.10261 -0.05532
# Poissons Ratio (z) = 0.02535 -0.05974
#
# Static dielectric constant tensor:
#      x y z
#    x 2.062850 0.000000 -0.071050 
#    y 0.000000 2.074380 0.000000 
#    z -0.071050 0.000000 2.144470 
# 
# From -- ./inp_files/138620.got.cif
#   From: 2010.05.17/outbox.cif.g08.bks.cpg/sg15_70_cif.got.tgz:138620.got - 2010.06.03 18:47:42.
