data_PCOD9268025
_publ_section_title
;
Structure prediction by ZEFSAII (Michael W. Deem and Ramdas Pophale) SiO2 
 PCOD9268025
Probable space group: C 2/C
;
_chemical_formula_sum "Si O2"
_cell_formula_units_Z 56
_cell_length_a 8.255065
_cell_length_b 16.742354
_cell_length_c 18.370439
_cell_angle_alpha 90.000000
_cell_angle_beta 112.197563
_cell_angle_gamma 90.000000
_cell_volume 2350.792936
_symmetry_space_group_name_H-M "C 2/C"
_symmetry_group_IT_number 15
_symmetry_cell_setting 'monoclinic'
loop_
_space_group_symop_operation_xyz
x,y,z
-x,y,1/2-z
-x,-y,-z
x,-y,1/2+z
1/2+x,1/2+y,z
1/2-x,1/2+y,1/2-z
1/2-x,1/2-y,-z
1/2+x,1/2-y,1/2+z
loop_
_atom_site_type_symbol
_atom_site_label
_atom_site_fract_x
_atom_site_fract_y
_atom_site_fract_z
Si Si1 0.926812 0.286741 0.872518
Si Si2 0.424158 0.394303 0.423954
Si Si3 0.326656 0.897290 0.524298
Si Si4 0.890124 0.482204 0.161667
Si Si5 0.129045 0.831758 0.930876
Si Si6 0.152820 0.208071 0.214131
Si Si7 0.958202 0.662858 0.896057
O O1 0.912751 0.191972 0.882834
O O2 0.795130 0.331100 0.906824
O O3 0.834478 0.312136 0.782174
O O4 0.121341 0.315140 0.924946
O O5 0.624557 0.412673 0.474939
O O6 0.314658 0.460754 0.362790
O O7 0.348177 0.382097 0.492913
O O8 0.404162 0.886066 0.457129
O O9 0.403133 0.961183 0.593581
O O10 0.000000 0.509633 0.250000
O O11 0.964005 0.396237 0.149921
O O12 0.951348 0.853511 0.855518
O O13 0.418555 0.761662 0.061382
O O14 0.187992 0.287006 0.172068
O O15 0.000000 0.225624 0.250000
#
# Coordination Sequence:
#
# PCOD9268025 Si02
#       7
#     8   8   8   8   8   8   8
#     4  11  18  36  64  98 129 167 222 273 314 377
#     4  12  22  42  66  91 129 169 214 270 332 399
#     4  12  27  38  61 103 136 166 208 276 342 383
#     4  12  26  47  68  85 126 184 226 257 327 412
#     4   9  19  35  67 100 122 163 226 266 312 375
#     4   8  16  32  60  97 127 164 214 272 316 366
#     4  10  19  41  66  98 122 169 229 262 313 386
#
# _framework density 23.821750999999999
#
# number of rings (size 3 to 8) (size 9 to 14) (size 15 to 20)
#    0.857    0.571    2.857    3.857    0.000    1.143 
#    0.000    4.286    0.000    0.000    0.000    0.000 
#    0.000    0.000    0.000    0.000    0.000    0.000 
#
# Total GULP energy -156267.312964 kJ/mol
# GULP energy per Si atom -5580.975463 kJ/mol
# Density = 2.376753 g / cm^3
# Si number density = 23.821751 Si / 1000 Ang^3
#
#
#
# Elastic Constant Matrix: (Units=GPa)
#
#
# Indices 1 2 3 4 5 6 
#
# 1 67.2887 20.6183 43.9384 0.0000 9.3977 0.0000
# 2 20.6183 66.8647 22.7539 0.0000 -1.0743 0.0000
# 3 43.9384 22.7539 151.4442 0.0000 34.6614 0.0000
# 4 0.0000 0.0000 0.0000 29.9451 0.0000 -10.3301
# 5 9.3977 -1.0743 34.6614 0.0000 28.1895 0.0000
# 6 0.0000 0.0000 0.0000 -10.3301 0.0000 12.3516
#
#
#
# Elastic Compliance Matrix: (Units=1/GPa)
#
#
# Indices 1 2 3 4 5 6 
#
# 1 0.019449 -0.004368 -0.004821 0.000000 -0.000722 0.000000
# 2 -0.004368 0.017242 -0.002514 0.000000 0.005205 0.000000
# 3 -0.004821 -0.002514 0.011180 0.000000 -0.012235 0.000000
# 4 0.000000 0.000000 0.000000 0.046936 0.000000 0.039254
# 5 -0.000722 0.005205 -0.012235 0.000000 0.050958 0.000000
# 6 0.000000 0.000000 0.000000 0.039254 0.000000 0.113791
#
#
# Mechanical properties :
#
#
# Convention : Reuss Voigt Hill
#
# Bulk Modulus (GPa) = 40.87788 51.13543 46.00666
# Shear Modulus (GPa) = 17.17525 27.31637 22.24581
#
# Velocity S-wave (km/s) = 2.68804 3.38997 3.05920
# Velocity P-wave (km/s) = 5.17989 6.06918 5.64208
#
# Compressibility (1/GPa) = 0.02446311
#
# Stress axis : x y z
#
# Youngs Moduli (GPa) = 51.41716 57.99839 89.44610
#
# Poissons Ratio (x) = 0.25335 0.43122
# Poissons Ratio (y) = 0.22460 0.22491
# Poissons Ratio (z) = 0.24788 0.14584
#
# Static dielectric constant tensor:
#      x y z
#    x 2.031960 0.000000 0.079700 
#    y 0.000000 1.908910 0.000000 
#    z 0.079700 0.000000 2.010410 
# 
# From -- ./inp_files/192247.got.cif
#   From: 2010.05.17/outbox.cif.g08.bks.cpg/sg15_97_cif.got.tgz:192247.got - 2010.06.03 18:47:42.
