data_PCOD9268062
_publ_section_title
;
Structure prediction by ZEFSAII (Michael W. Deem and Ramdas Pophale) SiO2 
 PCOD9268062
Probable space group: C 2/C
;
_chemical_formula_sum "Si O2"
_cell_formula_units_Z 56
_cell_length_a 29.997359
_cell_length_b 9.141566
_cell_length_c 11.611179
_cell_angle_alpha 90.000000
_cell_angle_beta 127.978351
_cell_angle_gamma 90.000000
_cell_volume 2509.806505
_symmetry_space_group_name_H-M "C 2/C"
_symmetry_group_IT_number 15
_symmetry_cell_setting 'monoclinic'
loop_
_space_group_symop_operation_xyz
x,y,z
-x,y,1/2-z
-x,-y,-z
x,-y,1/2+z
1/2+x,1/2+y,z
1/2-x,1/2+y,1/2-z
1/2-x,1/2-y,-z
1/2+x,1/2-y,1/2+z
loop_
_atom_site_type_symbol
_atom_site_label
_atom_site_fract_x
_atom_site_fract_y
_atom_site_fract_z
Si Si1 0.547766 0.451217 0.661248
Si Si2 0.537817 0.208738 0.895662
Si Si3 0.833125 0.611279 0.967149
Si Si4 0.598620 0.246298 0.229971
Si Si5 0.663297 0.777690 0.507880
Si Si6 0.659886 0.304797 0.746826
Si Si7 0.708646 0.614941 0.782183
O O1 0.500000 0.500000 0.500000
O O2 0.510945 0.329513 0.665310
O O3 0.571584 0.606751 0.745736
O O4 0.599293 0.376693 0.677022
O O5 0.500000 0.102657 0.750000
O O6 0.597410 0.255213 0.931761
O O7 0.559772 0.180793 0.063849
O O8 0.843804 0.700119 0.867880
O O9 0.771697 0.658785 0.917043
O O10 0.881539 0.637196 0.138850
O O11 0.828333 0.440331 0.932224
O O12 0.656800 0.304752 0.263472
O O13 0.675312 0.772489 0.391476
O O14 0.700385 0.660520 0.635542
O O15 0.700345 0.442089 0.785994
#
# Coordination Sequence:
#
# PCOD9268062 Si02
#       7
#     8   8   8   8   8   8   8
#     4   9  19  40  71 100 125 173 237 288 329 401
#     4  10  19  41  70  91 132 180 217 287 346 387
#     4  12  26  44  66 101 149 180 224 292 358 412
#     4   9  22  39  68 104 129 172 238 286 342 414
#     4  11  26  46  68 104 142 180 237 287 350 427
#     4  11  25  44  72 104 135 185 241 285 346 420
#     4  10  24  45  71  97 134 190 236 286 338 412
#
# _framework density 22.312477000000001
#
# number of rings (size 3 to 8) (size 9 to 14) (size 15 to 20)
#    0.000    1.714    1.429    2.143    8.000    4.571 
#    0.000    6.429    0.000    0.000    0.000    0.000 
#    0.000    0.000    0.000    0.000    0.000    0.000 
#
# Total GULP energy -156006.865347 kJ/mol
# GULP energy per Si atom -5571.673762 kJ/mol
# Density = 2.226169 g / cm^3
# Si number density = 22.312477 Si / 1000 Ang^3
#
#
#
# Elastic Constant Matrix: (Units=GPa)
#
#
# Indices 1 2 3 4 5 6 
#
# 1 72.2121 18.0037 34.1135 0.0000 8.3724 0.0000
# 2 18.0037 38.1561 7.9255 0.0000 -11.5732 0.0000
# 3 34.1135 7.9255 117.0642 0.0000 0.3328 0.0000
# 4 0.0000 0.0000 0.0000 35.0099 0.0000 -19.1252
# 5 8.3724 -11.5732 0.3328 0.0000 44.4448 0.0000
# 6 0.0000 0.0000 0.0000 -19.1252 0.0000 35.8244
#
#
#
# Elastic Compliance Matrix: (Units=1/GPa)
#
#
# Indices 1 2 3 4 5 6 
#
# 1 0.019411 -0.010018 -0.004961 0.000000 -0.006228 0.000000
# 2 -0.010018 0.034077 0.000582 0.000000 0.010756 0.000000
# 3 -0.004961 0.000582 0.009946 0.000000 0.001011 0.000000
# 4 0.000000 0.000000 0.000000 0.040323 0.000000 0.021527
# 5 -0.006228 0.010756 0.001011 0.000000 0.026466 0.000000
# 6 0.000000 0.000000 0.000000 0.021527 0.000000 0.039406
#
#
# Mechanical properties :
#
#
# Convention : Reuss Voigt Hill
#
# Bulk Modulus (GPa) = 28.86845 38.61311 33.74078
# Shear Modulus (GPa) = 23.81303 34.21514 29.01409
#
# Velocity S-wave (km/s) = 3.27043 3.92018 3.60995
# Velocity P-wave (km/s) = 5.21797 6.15090 5.70355
#
# Compressibility (1/GPa) = 0.03463989
#
# Stress axis : x y z
#
# Youngs Moduli (GPa) = 51.51658 29.34568 100.54646
#
# Poissons Ratio (x) = 0.29398 0.49878
# Poissons Ratio (y) = 0.51608 -0.05848
# Poissons Ratio (z) = 0.25556 -0.01707
#
# Static dielectric constant tensor:
#      x y z
#    x 1.940880 0.000000 -0.171360 
#    y 0.000000 1.986520 0.000000 
#    z -0.171360 0.000000 2.114770 
# 
# From -- ./inp_files/125988.got.cif
#   From: 2010.05.17/outbox.cif.g08.bks.cpg/sg15_63_cif.got.tgz:125988.got - 2010.06.03 18:47:42.
