data_PCOD9268417
_publ_section_title
;
Structure prediction by ZEFSAII (Michael W. Deem and Ramdas Pophale) SiO2 
 PCOD9268417
Probable space group: C 2/C
;
_chemical_formula_sum "Si O2"
_cell_formula_units_Z 48
_cell_length_a 21.381675
_cell_length_b 13.050599
_cell_length_c 8.985483
_cell_angle_alpha 90.000000
_cell_angle_beta 111.184633
_cell_angle_gamma 90.000000
_cell_volume 2337.897838
_symmetry_space_group_name_H-M "C 2/C"
_symmetry_group_IT_number 15
_symmetry_cell_setting 'monoclinic'
loop_
_space_group_symop_operation_xyz
x,y,z
-x,y,1/2-z
-x,-y,-z
x,-y,1/2+z
1/2+x,1/2+y,z
1/2-x,1/2+y,1/2-z
1/2-x,1/2-y,-z
1/2+x,1/2-y,1/2+z
loop_
_atom_site_type_symbol
_atom_site_label
_atom_site_fract_x
_atom_site_fract_y
_atom_site_fract_z
Si Si1 0.340486 0.756791 0.953194
Si Si2 0.174529 0.510292 0.978402
Si Si3 0.595497 0.230403 0.691340
Si Si4 0.231078 0.312681 0.132701
Si Si5 0.024744 0.284004 0.608313
Si Si6 0.917725 0.498075 0.346073
O O1 0.314269 0.869987 0.982095
O O2 0.280386 0.703455 0.814433
O O3 0.400922 0.759864 0.885608
O O4 0.374743 0.717180 0.135769
O O5 0.228787 0.431932 0.085582
O O6 0.104850 0.486344 0.003739
O O7 0.154140 0.476788 0.794852
O O8 0.657007 0.218980 0.628289
O O9 0.528867 0.265827 0.550662
O O10 0.570950 0.114103 0.711957
O O11 0.250000 0.250000 0.000000
O O12 0.030468 0.409428 0.617065
O O13 0.000000 0.253315 0.750000
#
# Coordination Sequence:
#
# PCOD9268417 Si02
#       6
#     8   8   8   8   8   8
#     4  10  21  35  51  75 107 144 176 213 259 305
#     4   9  18  32  49  72 102 134 174 211 250 306
#     4  10  20  32  47  70 103 137 172 209 254 309
#     4  11  20  34  52  73 101 139 179 221 259 303
#     4  11  19  30  48  75 105 140 174 209 250 308
#     4   9  17  29  45  69 101 136 165 201 249 305
#
# _framework density 20.531265999999999
#
# number of rings (size 3 to 8) (size 9 to 14) (size 15 to 20)
#    0.000    2.000    0.000    6.500    0.000    2.667 
#    0.000    0.000    0.000    0.000    0.000    1.167 
#    0.000    8.000    0.000    1.667    0.000    0.000 
#
# Total GULP energy -133648.719481 kJ/mol
# GULP energy per Si atom -5568.696645 kJ/mol
# Density = 2.048454 g / cm^3
# Si number density = 20.531266 Si / 1000 Ang^3
#
#
#
# Elastic Constant Matrix: (Units=GPa)
#
#
# Indices 1 2 3 4 5 6 
#
# 1 92.7536 18.6751 27.7647 0.0000 1.6880 0.0000
# 2 18.6751 23.3212 31.7225 0.0000 9.5015 0.0000
# 3 27.7647 31.7225 98.9769 0.0000 10.4380 0.0000
# 4 0.0000 0.0000 0.0000 26.4296 0.0000 5.9746
# 5 1.6880 9.5015 10.4380 0.0000 44.1829 0.0000
# 6 0.0000 0.0000 0.0000 5.9746 0.0000 22.6401
#
#
#
# Elastic Compliance Matrix: (Units=1/GPa)
#
#
# Indices 1 2 3 4 5 6 
#
# 1 0.013011 -0.010551 -0.000467 0.000000 0.001882 0.000000
# 2 -0.010551 0.090027 -0.024505 0.000000 -0.013168 0.000000
# 3 -0.000467 -0.024505 0.017979 0.000000 0.001040 0.000000
# 4 0.000000 0.000000 0.000000 0.040237 0.000000 -0.010618
# 5 0.001882 -0.013168 0.001040 0.000000 0.025147 0.000000
# 6 0.000000 0.000000 0.000000 -0.010618 0.000000 0.046971
#
#
# Mechanical properties :
#
#
# Convention : Reuss Voigt Hill
#
# Bulk Modulus (GPa) = 20.01200 41.26402 30.63801
# Shear Modulus (GPa) = 15.57271 27.77650 21.67460
#
# Velocity S-wave (km/s) = 2.75705 3.68215 3.25266
# Velocity P-wave (km/s) = 4.46132 6.18219 5.39086
#
# Compressibility (1/GPa) = 0.04997001
#
# Stress axis : x y z
#
# Youngs Moduli (GPa) = 76.85784 11.10784 55.62144
#
# Poissons Ratio (x) = 0.11720 0.02596
# Poissons Ratio (y) = 0.81092 1.36303
# Poissons Ratio (z) = 0.03587 0.27220
#
# Static dielectric constant tensor:
#      x y z
#    x 1.741020 0.000000 0.014810 
#    y 0.000000 1.762810 0.000000 
#    z 0.014810 0.000000 1.834140 
# 
# From -- ./inp_files/55419.got.cif
#   From: 2010.05.17/outbox.cif.g08.bks.cpg/sg15_28_cif.got.tgz:55419.got - 2010.06.03 18:47:42.
