data_PCOD9268344
_publ_section_title
;
Structure prediction by ZEFSAII (Michael W. Deem and Ramdas Pophale) SiO2 
 PCOD9268344
Probable space group: C 2/C
;
_chemical_formula_sum "Si O2"
_cell_formula_units_Z 56
_cell_length_a 14.103879
_cell_length_b 24.351527
_cell_length_c 10.335338
_cell_angle_alpha 90.000000
_cell_angle_beta 45.049898
_cell_angle_gamma 90.000000
_cell_volume 2512.189235
_symmetry_space_group_name_H-M "C 2/C"
_symmetry_group_IT_number 15
_symmetry_cell_setting 'monoclinic'
loop_
_space_group_symop_operation_xyz
x,y,z
-x,y,1/2-z
-x,-y,-z
x,-y,1/2+z
1/2+x,1/2+y,z
1/2-x,1/2+y,1/2-z
1/2-x,1/2-y,-z
1/2+x,1/2-y,1/2+z
loop_
_atom_site_type_symbol
_atom_site_label
_atom_site_fract_x
_atom_site_fract_y
_atom_site_fract_z
Si Si1 0.090253 0.174411 0.873329
Si Si2 0.623882 0.980810 0.734039
Si Si3 0.620072 0.695322 0.237048
Si Si4 0.861034 0.281321 0.808496
Si Si5 0.673030 0.175664 0.659219
Si Si6 0.435294 0.088158 0.580750
Si Si7 0.753655 0.386178 0.011646
O O1 0.114705 0.239937 0.831750
O O2 0.202341 0.158208 0.869046
O O3 0.127512 0.140377 0.708561
O O4 0.940995 0.170577 0.072853
O O5 0.500000 0.986422 0.750000
O O6 0.743145 0.946857 0.551593
O O7 0.651952 0.040406 0.765343
O O8 0.567023 0.943590 0.906375
O O9 0.500000 0.685655 0.250000
O O10 0.636667 0.761275 0.223690
O O11 0.759646 0.672782 0.046839
O O12 0.000000 0.282035 0.750000
O O13 0.750000 0.250000 0.000000
O O14 0.808813 0.342982 0.853040
O O15 0.555902 0.137144 0.825523
O O16 0.366622 0.110495 0.516109
#
# Coordination Sequence:
#
# PCOD9268344 Si02
#       7
#     8   8   8   8   8   8   8
#     4   9  19  30  51  73 101 138 169 212 259 311
#     4   9  17  29  48  74 100 126 169 216 261 311
#     4   9  18  31  48  71 101 135 171 208 245 314
#     4  10  20  31  50  79 106 141 172 212 265 326
#     4   9  18  32  48  72 103 136 173 202 257 309
#     4   9  17  29  49  67  96 137 161 210 263 311
#     4   9  18  32  48  75 100 133 173 207 260 321
#
# _framework density 22.291315999999998
#
# number of rings (size 3 to 8) (size 9 to 14) (size 15 to 20)
#    0.000    2.857    0.000    1.286    8.000    0.571 
#    0.000    0.000    3.143    0.857    0.000   16.000 
#    0.000    0.000    0.000    0.000    0.000    0.000 
#
# Total GULP energy -156075.503106 kJ/mol
# GULP energy per Si atom -5574.125111 kJ/mol
# Density = 2.224058 g / cm^3
# Si number density = 22.291316 Si / 1000 Ang^3
#
#
#
# Elastic Constant Matrix: (Units=GPa)
#
#
# Indices 1 2 3 4 5 6 
#
# 1 63.6740 10.9141 15.0016 0.0000 -9.0449 0.0000
# 2 10.9141 87.1392 38.8555 0.0000 8.7000 0.0000
# 3 15.0016 38.8555 121.4408 0.0000 -2.7762 0.0000
# 4 0.0000 0.0000 0.0000 39.2568 0.0000 11.0306
# 5 -9.0449 8.7000 -2.7762 0.0000 19.7552 0.0000
# 6 0.0000 0.0000 0.0000 11.0306 0.0000 19.9519
#
#
#
# Elastic Compliance Matrix: (Units=1/GPa)
#
#
# Indices 1 2 3 4 5 6 
#
# 1 0.017716 -0.002618 -0.001143 0.000000 0.009104 0.000000
# 2 -0.002618 0.014665 -0.004558 0.000000 -0.008298 0.000000
# 3 -0.001143 -0.004558 0.009900 0.000000 0.002876 0.000000
# 4 0.000000 0.000000 0.000000 0.030158 0.000000 -0.016673
# 5 0.009104 -0.008298 0.002876 0.000000 0.058846 0.000000
# 6 0.000000 0.000000 0.000000 -0.016673 0.000000 0.059338
#
#
# Mechanical properties :
#
#
# Convention : Reuss Voigt Hill
#
# Bulk Modulus (GPa) = 38.99814 44.64403 41.82109
# Shear Modulus (GPa) = 23.16854 29.62496 26.39675
#
# Velocity S-wave (km/s) = 3.22740 3.64949 3.44491
# Velocity P-wave (km/s) = 5.60543 6.15056 5.88431
#
# Compressibility (1/GPa) = 0.02564225
#
# Stress axis : x y z
#
# Youngs Moduli (GPa) = 56.44542 68.19029 101.01216
#
# Poissons Ratio (x) = 0.17855 0.11542
# Poissons Ratio (y) = 0.14780 0.46045
# Poissons Ratio (z) = 0.06449 0.31083
#
# Static dielectric constant tensor:
#      x y z
#    x 1.857090 0.000000 0.042200 
#    y 0.000000 1.832220 0.000000 
#    z 0.042200 0.000000 1.896800 
# 
# From -- ./inp_files/107910.got.cif
#   From: 2010.05.17/outbox.cif.g08.bks.cpg/sg15_54_cif.got.tgz:107910.got - 2010.06.03 18:47:42.
