data_PCOD9268893
_publ_section_title
;
Structure prediction by ZEFSAII (Michael W. Deem and Ramdas Pophale) SiO2 
 PCOD9268893
Probable space group: C 2/C
;
_chemical_formula_sum "Si O2"
_cell_formula_units_Z 44
_cell_length_a 6.109692
_cell_length_b 28.455473
_cell_length_c 15.081949
_cell_angle_alpha 90.000000
_cell_angle_beta 59.404535
_cell_angle_gamma 90.000000
_cell_volume 2257.022716
_symmetry_space_group_name_H-M "C 2/C"
_symmetry_group_IT_number 15
_symmetry_cell_setting 'monoclinic'
loop_
_space_group_symop_operation_xyz
x,y,z
-x,y,1/2-z
-x,-y,-z
x,-y,1/2+z
1/2+x,1/2+y,z
1/2-x,1/2+y,1/2-z
1/2-x,1/2-y,-z
1/2+x,1/2-y,1/2+z
loop_
_atom_site_type_symbol
_atom_site_label
_atom_site_fract_x
_atom_site_fract_y
_atom_site_fract_z
Si Si1 0.608393 0.804139 0.950759
Si Si2 0.529770 0.614536 0.125378
Si Si3 0.992507 0.548471 0.449622
Si Si4 0.500000 0.928837 0.750000
Si Si5 0.227630 0.703877 0.634792
Si Si6 0.367894 0.368932 0.461841
O O1 0.849339 0.835769 0.872549
O O2 0.619630 0.752609 0.907374
O O3 0.621898 0.803290 0.055866
O O4 0.357811 0.831899 0.974484
O O5 0.249777 0.602451 0.217720
O O6 0.735235 0.574124 0.100278
O O7 0.494818 0.616880 0.027536
O O8 0.782801 0.584070 0.536059
O O9 0.000000 0.500000 0.500000
O O10 0.942732 0.543725 0.353551
O O11 0.410172 0.661303 0.629786
O O12 0.000000 0.709237 0.750000
#
# Coordination Sequence:
#
# PCOD9268893 Si02
#       6
#     8   8   8   4   8   8
#     4   9  19  36  55  83 114 154 198 239 285 349
#     4   9  19  36  59  83 115 143 188 246 295 341
#     4  10  21  38  63  80 117 154 192 244 297 354
#     4  10  20  34  60  90 112 148 188 246 298 356
#     4  10  20  33  55  81 119 156 195 239 290 351
#     4   9  19  36  57  78 112 154 192 244 295 340
#
# _framework density 19.494706999999998
#
# number of rings (size 3 to 8) (size 9 to 14) (size 15 to 20)
#    0.000    2.545    0.000    1.091    0.000    8.000 
#    0.000    0.000   48.000    0.000    0.000    0.000 
#    0.000    0.000    0.000    0.000    0.000    0.000 
#
# Total GULP energy -122531.929854 kJ/mol
# GULP energy per Si atom -5569.633175 kJ/mol
# Density = 1.945034 g / cm^3
# Si number density = 19.494707 Si / 1000 Ang^3
#
#
#
# Elastic Constant Matrix: (Units=GPa)
#
#
# Indices 1 2 3 4 5 6 
#
# 1 73.4065 35.5851 19.4395 0.0000 -3.0978 0.0000
# 2 35.5851 116.0612 39.9267 0.0000 8.4532 0.0000
# 3 19.4395 39.9267 83.7808 0.0000 5.1833 0.0000
# 4 0.0000 0.0000 0.0000 8.6191 0.0000 4.6182
# 5 -3.0978 8.4532 5.1833 0.0000 19.0287 0.0000
# 6 0.0000 0.0000 0.0000 4.6182 0.0000 24.0067
#
#
#
# Elastic Compliance Matrix: (Units=1/GPa)
#
#
# Indices 1 2 3 4 5 6 
#
# 1 0.016710 -0.004866 -0.001892 0.000000 0.005397 0.000000
# 2 -0.004866 0.011930 -0.004251 0.000000 -0.004934 0.000000
# 3 -0.001892 -0.004251 0.014548 0.000000 -0.002383 0.000000
# 4 0.000000 0.000000 0.000000 0.129355 0.000000 -0.024884
# 5 0.005397 -0.004934 -0.002383 0.000000 0.056272 0.000000
# 6 0.000000 0.000000 0.000000 -0.024884 0.000000 0.046442
#
#
# Mechanical properties :
#
#
# Convention : Reuss Voigt Hill
#
# Bulk Modulus (GPa) = 47.23616 51.46123 49.34870
# Shear Modulus (GPa) = 16.42941 22.21737 19.32339
#
# Velocity S-wave (km/s) = 2.90619 3.37955 3.15177
# Velocity P-wave (km/s) = 5.96189 6.45626 6.21399
#
# Compressibility (1/GPa) = 0.02117022
#
# Stress axis : x y z
#
# Youngs Moduli (GPa) = 59.84309 83.82422 68.73652
#
# Poissons Ratio (x) = 0.40785 0.13008
# Poissons Ratio (y) = 0.29117 0.29220
# Poissons Ratio (z) = 0.11325 0.35634
#
# Static dielectric constant tensor:
#      x y z
#    x 1.697800 0.000000 0.007800 
#    y 0.000000 1.682470 0.000000 
#    z 0.007800 0.000000 1.703000 
# 
# From -- ./inp_files/73837.got.cif
#   From: 2010.05.17/outbox.cif.g08.bks.cpg/sg15_37_cif.got.tgz:73837.got - 2010.06.03 18:47:42.
