data_PCOD9268813
_publ_section_title
;
Structure prediction by ZEFSAII (Michael W. Deem and Ramdas Pophale) SiO2 
 PCOD9268813
Probable space group: C 2/C
;
_chemical_formula_sum "Si O2"
_cell_formula_units_Z 48
_cell_length_a 6.421375
_cell_length_b 28.151536
_cell_length_c 14.857972
_cell_angle_alpha 90.000000
_cell_angle_beta 58.365281
_cell_angle_gamma 90.000000
_cell_volume 2286.799218
_symmetry_space_group_name_H-M "C 2/C"
_symmetry_group_IT_number 15
_symmetry_cell_setting 'monoclinic'
loop_
_space_group_symop_operation_xyz
x,y,z
-x,y,1/2-z
-x,-y,-z
x,-y,1/2+z
1/2+x,1/2+y,z
1/2-x,1/2+y,1/2-z
1/2-x,1/2-y,-z
1/2+x,1/2-y,1/2+z
loop_
_atom_site_type_symbol
_atom_site_label
_atom_site_fract_x
_atom_site_fract_y
_atom_site_fract_z
Si Si1 0.500000 0.071306 0.250000
Si Si2 0.480329 0.387091 0.893551
Si Si3 0.024363 0.715240 0.652284
Si Si4 0.815974 0.859957 0.466737
Si Si5 0.963867 0.449864 0.554756
Si Si6 0.850555 0.306294 0.575400
Si Si7 0.000000 0.196890 0.750000
O O1 0.744066 0.102405 0.196381
O O2 0.503237 0.044548 0.344821
O O3 0.304029 0.431224 0.912731
O O4 0.354623 0.345453 0.866045
O O5 0.501227 0.373827 0.994614
O O6 0.742040 0.729257 0.699722
O O7 0.000000 0.685880 0.750000
O O8 0.100476 0.691650 0.543099
O O9 0.223931 0.756240 0.623489
O O10 0.653644 0.907375 0.483585
O O11 0.615244 0.821873 0.551870
O O12 0.945696 0.836495 0.350157
O O13 0.000000 0.500000 0.500000
#
# Coordination Sequence:
#
# PCOD9268813 Si02
#       7
#     4   8   8   8   8   8   4
#     4  10  22  37  62  90 116 156 192 246 293 358
#     4  10  20  39  61  82 118 154 195 247 303 360
#     4  10  20  33  53  78 115 156 201 255 301 358
#     4   9  20  37  58  82 117 156 203 253 305 364
#     4  10  22  42  60  90 122 157 198 248 307 370
#     4   9  20  35  52  81 114 154 200 249 304 357
#     4  10  20  37  54  86 118 158 212 252 305 362
#
# _framework density 20.990037000000001
#
# number of rings (size 3 to 8) (size 9 to 14) (size 15 to 20)
#    0.000    2.333    0.000    1.500    0.000    8.667 
#    6.000    5.000    0.000    0.000    0.000    0.000 
#    0.000    0.000    0.000    0.000    0.000    0.000 
#
# Total GULP energy -133714.040486 kJ/mol
# GULP energy per Si atom -5571.418354 kJ/mol
# Density = 2.094226 g / cm^3
# Si number density = 20.990037 Si / 1000 Ang^3
#
#
#
# Elastic Constant Matrix: (Units=GPa)
#
#
# Indices 1 2 3 4 5 6 
#
# 1 111.9621 24.6826 47.7273 0.0000 -10.5193 0.0000
# 2 24.6826 37.6727 20.8578 0.0000 1.5203 0.0000
# 3 47.7273 20.8578 126.7984 0.0000 11.5149 0.0000
# 4 0.0000 0.0000 0.0000 -24.8577 0.0000 9.9843
# 5 -10.5193 1.5203 11.5149 0.0000 45.8992 0.0000
# 6 0.0000 0.0000 0.0000 9.9843 0.0000 16.3157
#
#
#
# Elastic Compliance Matrix: (Units=1/GPa)
#
#
# Indices 1 2 3 4 5 6 
#
# 1 0.012357 -0.006030 -0.004026 0.000000 0.004042 0.000000
# 2 -0.006030 0.032149 -0.002862 0.000000 -0.001729 0.000000
# 3 -0.004026 -0.002862 0.010180 0.000000 -0.003382 0.000000
# 4 0.000000 0.000000 0.000000 -0.032292 0.000000 0.019761
# 5 0.004042 -0.001729 -0.003382 0.000000 0.023619 0.000000
# 6 0.000000 0.000000 0.000000 0.019761 0.000000 0.049198
#
#
# Mechanical properties :
#
#
# Convention : Reuss Voigt Hill
#
# Bulk Modulus (GPa) = 34.66190 51.44097 43.05143
# Shear Modulus (GPa) = 38.26597 19.68248 28.97423
#
# Velocity S-wave (km/s) = 4.27436 3.06552 3.71938
# Velocity P-wave (km/s) = 6.39605 6.09019 6.24499
#
# Compressibility (1/GPa) = 0.02885012
#
# Stress axis : x y z
#
# Youngs Moduli (GPa) = 80.92541 31.10480 98.23259
#
# Poissons Ratio (x) = 0.18756 0.39552
# Poissons Ratio (y) = 0.48798 0.28111
# Poissons Ratio (z) = 0.32584 0.08901
#
# Static dielectric constant tensor:
#      x y z
#    x 1.835280 0.000000 -0.008340 
#    y 0.000000 1.740590 0.000000 
#    z -0.008340 0.000000 1.825290 
# 
# From -- ./inp_files/130640.got.cif
#   From: 2010.05.17/outbox.cif.g08.bks.cpg/sg15_66_cif.got.tgz:130640.got - 2010.06.03 18:47:42.
