data_PCOD9268844
_publ_section_title
;
Structure prediction by ZEFSAII (Michael W. Deem and Ramdas Pophale) SiO2 
 PCOD9268844
Probable space group: C 2/C
;
_chemical_formula_sum "Si O2"
_cell_formula_units_Z 60
_cell_length_a 20.372237
_cell_length_b 16.457894
_cell_length_c 9.479558
_cell_angle_alpha 90.000000
_cell_angle_beta 100.630081
_cell_angle_gamma 90.000000
_cell_volume 3123.800498
_symmetry_space_group_name_H-M "C 2/C"
_symmetry_group_IT_number 15
_symmetry_cell_setting 'monoclinic'
loop_
_space_group_symop_operation_xyz
x,y,z
-x,y,1/2-z
-x,-y,-z
x,-y,1/2+z
1/2+x,1/2+y,z
1/2-x,1/2+y,1/2-z
1/2-x,1/2-y,-z
1/2+x,1/2-y,1/2+z
loop_
_atom_site_type_symbol
_atom_site_label
_atom_site_fract_x
_atom_site_fract_y
_atom_site_fract_z
Si Si1 0.579118 0.947855 0.285463
Si Si2 0.000000 0.303065 0.750000
Si Si3 0.451376 0.332688 0.034632
Si Si4 0.821823 0.745819 0.459066
Si Si5 0.392288 0.097300 0.379864
Si Si6 0.604246 0.605315 0.558219
Si Si7 0.577768 0.494503 0.308050
Si Si8 0.922186 0.732434 0.761047
O O1 0.500000 0.965791 0.250000
O O2 0.595811 0.934546 0.456473
O O3 0.590428 0.862564 0.207768
O O4 0.617847 0.021436 0.227497
O O5 0.047234 0.242414 0.856426
O O6 0.042855 0.355684 0.656837
O O7 0.422849 0.412922 0.096623
O O8 0.529550 0.356048 0.038185
O O9 0.415733 0.298605 0.881445
O O10 0.750000 0.750000 0.500000
O O11 0.835287 0.665476 0.373166
O O12 0.841453 0.827193 0.384516
O O13 0.876222 0.746708 0.607466
O O14 0.611699 0.566161 0.407318
O O15 0.606754 0.532449 0.671022
O O16 0.500000 0.516902 0.250000
O O17 0.000000 0.735521 0.750000
#
# Coordination Sequence:
#
# PCOD9268844 Si02
#       8
#     8   4   8   8   8   8   8   8
#     4  10  20  33  53  92 124 148 196 257 311 358
#     4  12  18  32  58  92 132 158 194 250 312 364
#     4  11  18  32  56  91 124 154 190 249 302 355
#     4  11  24  43  62  84 124 168 204 246 308 373
#     4  11  22  36  58  87 119 164 195 249 310 365
#     4  11  21  37  55  90 119 162 199 242 301 359
#     4  10  21  32  56  93 128 148 192 256 307 354
#     4  10  20  34  61  91 117 152 209 251 303 361
#
# _framework density 19.207373
#
# number of rings (size 3 to 8) (size 9 to 14) (size 15 to 20)
#    0.000    1.333    5.333    3.600    5.600    0.000 
#    0.000    2.667    0.000    3.200    0.000    0.000 
#    0.000    0.000    0.000    0.000    0.000    0.000 
#
# Total GULP energy -167452.213568 kJ/mol
# GULP energy per Si atom -5581.740452 kJ/mol
# Density = 1.916366 g / cm^3
# Si number density = 19.207373 Si / 1000 Ang^3
#
#
#
# Elastic Constant Matrix: (Units=GPa)
#
#
# Indices 1 2 3 4 5 6 
#
# 1 42.6887 9.2774 6.1535 0.0000 -11.5185 0.0000
# 2 9.2774 91.9634 35.6511 0.0000 -7.1057 0.0000
# 3 6.1535 35.6511 79.7019 0.0000 -3.9408 0.0000
# 4 0.0000 0.0000 0.0000 48.1868 0.0000 -7.8426
# 5 -11.5185 -7.1057 -3.9408 0.0000 15.1964 0.0000
# 6 0.0000 0.0000 0.0000 -7.8426 0.0000 2.2022
#
#
#
# Elastic Compliance Matrix: (Units=1/GPa)
#
#
# Indices 1 2 3 4 5 6 
#
# 1 0.029635 -0.001012 -0.000758 0.000000 0.021793 0.000000
# 2 -0.001012 0.013527 -0.005772 0.000000 0.004061 0.000000
# 3 -0.000758 -0.005772 0.015220 0.000000 0.000674 0.000000
# 4 0.000000 0.000000 0.000000 0.049364 0.000000 0.175799
# 5 0.021793 0.004061 0.000674 0.000000 0.084397 0.000000
# 6 0.000000 0.000000 0.000000 0.175799 0.000000 1.080152
#
#
# Mechanical properties :
#
#
# Convention : Reuss Voigt Hill
#
# Bulk Modulus (GPa) = 23.09516 35.16866 29.13191
# Shear Modulus (GPa) = 3.84080 24.00188 13.92134
#
# Velocity S-wave (km/s) = 1.41562 3.53883 2.69512
# Velocity P-wave (km/s) = 3.83695 5.92009 4.98847
#
# Compressibility (1/GPa) = 0.04329911
#
# Stress axis : x y z
#
# Youngs Moduli (GPa) = 33.74414 73.92420 65.70140
#
# Poissons Ratio (x) = 0.07481 0.04979
# Poissons Ratio (y) = 0.03415 0.37922
# Poissons Ratio (z) = 0.02557 0.42668
#
# Static dielectric constant tensor:
#      x y z
#    x 1.629710 0.000000 -0.004440 
#    y 0.000000 1.738730 0.000000 
#    z -0.004440 0.000000 1.710000 
# 
# From -- ./inp_files/56603.got.cif
#   From: 2010.05.17/outbox.cif.g08.bks.cpg/sg15_29_cif.got.tgz:56603.got - 2010.06.03 18:47:42.
