data_PCOD9269571
_publ_section_title
;
Structure prediction by ZEFSAII (Michael W. Deem and Ramdas Pophale) SiO2 
 PCOD9269571
Probable space group: C 2/C
;
_chemical_formula_sum "Si O2"
_cell_formula_units_Z 48
_cell_length_a 18.868768
_cell_length_b 24.785216
_cell_length_c 7.822101
_cell_angle_alpha 90.000000
_cell_angle_beta 143.832146
_cell_angle_gamma 90.000000
_cell_volume 2158.858430
_symmetry_space_group_name_H-M "C 2/C"
_symmetry_group_IT_number 15
_symmetry_cell_setting 'monoclinic'
loop_
_space_group_symop_operation_xyz
x,y,z
-x,y,1/2-z
-x,-y,-z
x,-y,1/2+z
1/2+x,1/2+y,z
1/2-x,1/2+y,1/2-z
1/2-x,1/2-y,-z
1/2+x,1/2-y,1/2+z
loop_
_atom_site_type_symbol
_atom_site_label
_atom_site_fract_x
_atom_site_fract_y
_atom_site_fract_z
Si Si1 0.000000 0.164967 0.250000
Si Si2 0.631933 0.411372 0.444518
Si Si3 0.133594 0.978564 0.092210
Si Si4 0.444447 0.246290 0.877706
Si Si5 0.747290 0.817006 0.675054
Si Si6 0.253587 0.111107 0.664637
Si Si7 0.500000 0.838679 0.750000
O O1 0.013721 0.202874 0.441151
O O2 0.124232 0.133697 0.475947
O O3 0.500000 0.392250 0.250000
O O4 0.630712 0.445728 0.265608
O O5 0.661263 0.457630 0.643533
O O6 0.715639 0.358276 0.603438
O O7 0.231908 0.951321 0.160760
O O8 0.000000 0.974807 0.750000
O O9 0.372207 0.218622 0.578759
O O10 0.349007 0.273077 0.824614
O O11 0.511992 0.200175 0.109519
O O12 0.737232 0.859731 0.499532
O O13 0.377058 0.128405 0.994750
#
# Coordination Sequence:
#
# PCOD9269571 Si02
#       7
#     4   8   8   8   8   8   4
#     4  10  20  34  58  80 114 162 188 256 296 346
#     4  11  22  33  59  89 119 156 195 245 300 358
#     4  11  21  37  57  88 123 151 195 247 304 351
#     4   9  20  35  54  79 119 152 199 242 291 350
#     4   9  19  37  53  79 118 164 189 237 301 352
#     4  10  20  37  58  80 119 156 195 244 298 349
#     4  10  22  36  56  84 114 162 202 244 292 356
#
# _framework density 22.233974
#
# number of rings (size 3 to 8) (size 9 to 14) (size 15 to 20)
#    0.000    2.000    0.833    5.000    3.500    2.000 
#    0.000    0.000    0.000   10.000    0.000    0.000 
#    0.000    0.000    0.000    0.000    0.000    0.000 
#
# Total GULP energy -133817.729589 kJ/mol
# GULP energy per Si atom -5575.738733 kJ/mol
# Density = 2.218337 g / cm^3
# Si number density = 22.233974 Si / 1000 Ang^3
#
#
#
# Elastic Constant Matrix: (Units=GPa)
#
#
# Indices 1 2 3 4 5 6 
#
# 1 31.9112 -3.6676 13.6218 0.0000 -1.3993 0.0000
# 2 -3.6676 97.2900 45.4838 0.0000 8.9735 0.0000
# 3 13.6218 45.4838 91.8573 0.0000 4.3234 0.0000
# 4 0.0000 0.0000 0.0000 874.7698 0.0000 142.3634
# 5 -1.3993 8.9735 4.3234 0.0000 28.7060 0.0000
# 6 0.0000 0.0000 0.0000 142.3634 0.0000 60.2803
#
#
#
# Elastic Compliance Matrix: (Units=1/GPa)
#
#
# Indices 1 2 3 4 5 6 
#
# 1 0.035213 0.004778 -0.007653 0.000000 0.001375 0.000000
# 2 0.004778 0.014323 -0.007655 0.000000 -0.003091 0.000000
# 3 -0.007653 -0.007655 0.015829 0.000000 -0.000364 0.000000
# 4 0.000000 0.000000 0.000000 0.001857 0.000000 -0.004385
# 5 0.001375 -0.003091 -0.000364 0.000000 0.035924 0.000000
# 6 0.000000 0.000000 0.000000 -0.004385 0.000000 0.026946
#
#
# Mechanical properties :
#
#
# Convention : Reuss Voigt Hill
#
# Bulk Modulus (GPa) = 22.57042 36.88162 29.72602
# Shear Modulus (GPa) = 30.13526 203.79259 116.96392
#
# Velocity S-wave (km/s) = 3.68553 9.58421 7.26086
# Velocity P-wave (km/s) = 5.31829 11.79407 9.14834
#
# Compressibility (1/GPa) = 0.04430578
#
# Stress axis : x y z
#
# Youngs Moduli (GPa) = 28.39857 69.81977 63.17574
#
# Poissons Ratio (x) = -0.33362 0.48346
# Poissons Ratio (y) = -0.13570 0.48361
# Poissons Ratio (z) = 0.21732 0.53447
#
# Static dielectric constant tensor:
#      x y z
#    x 1.882450 0.000000 -0.085390 
#    y 0.000000 1.850510 0.000000 
#    z -0.085390 0.000000 1.874470 
# 
# From -- ./inp_files/63962.got.cif
#   From: 2010.05.17/outbox.cif.g08.bks.cpg/sg15_32_cif.got.tgz:63962.got - 2010.06.03 18:47:42.
