data_PCOD9269933
_publ_section_title
;
Structure prediction by ZEFSAII (Michael W. Deem and Ramdas Pophale) SiO2 
 PCOD9269933
Probable space group: C 2/C
;
_chemical_formula_sum "Si O2"
_cell_formula_units_Z 60
_cell_length_a 28.952987
_cell_length_b 13.111270
_cell_length_c 9.391115
_cell_angle_alpha 90.000000
_cell_angle_beta 95.811443
_cell_angle_gamma 90.000000
_cell_volume 3546.643086
_symmetry_space_group_name_H-M "C 2/C"
_symmetry_group_IT_number 15
_symmetry_cell_setting 'monoclinic'
loop_
_space_group_symop_operation_xyz
x,y,z
-x,y,1/2-z
-x,-y,-z
x,-y,1/2+z
1/2+x,1/2+y,z
1/2-x,1/2+y,1/2-z
1/2-x,1/2-y,-z
1/2+x,1/2-y,1/2+z
loop_
_atom_site_type_symbol
_atom_site_label
_atom_site_fract_x
_atom_site_fract_y
_atom_site_fract_z
Si Si1 0.692194 0.327815 0.896842
Si Si2 0.500000 0.462571 0.750000
Si Si3 0.138794 0.068381 0.602381
Si Si4 0.134296 0.206391 0.872969
Si Si5 0.795486 0.394334 0.973174
Si Si6 0.441866 0.587188 0.494308
Si Si7 0.794920 0.110558 0.397292
Si Si8 0.813103 0.588637 0.151217
O O1 0.739081 0.392188 0.946487
O O2 0.692311 0.314551 0.728575
O O3 0.649098 0.386739 0.949605
O O4 0.693917 0.219781 0.974374
O O5 0.469024 0.535368 0.636170
O O6 0.526656 0.396353 0.636766
O O7 0.130783 0.157072 0.714556
O O8 0.095319 0.994722 0.575844
O O9 0.184084 0.997993 0.649892
O O10 0.088406 0.179578 0.949795
O O11 0.150914 0.323247 0.880284
O O12 0.176077 0.142571 0.957679
O O13 0.813280 0.416137 0.821244
O O14 0.817362 0.477970 0.083062
O O15 0.740264 0.117326 0.405025
#
# Coordination Sequence:
#
# PCOD9269933 Si02
#       8
#     8   4   8   8   8   8   8   8
#     4  10  20  35  49  72 104 147 199 230 272 307
#     4  10  20  38  58  84 112 144 170 214 292 362
#     4  11  19  35  51  79 112 150 186 222 275 323
#     4  11  22  34  50  80 109 146 187 230 270 332
#     4  10  22  35  50  69 102 152 195 243 266 302
#     4  10  21  36  58  82 114 142 169 221 282 354
#     4  10  21  30  52  72 104 150 192 235 259 314
#     4  11  22  35  49  71 105 148 199 236 272 301
#
# _framework density 16.917406
#
# number of rings (size 3 to 8) (size 9 to 14) (size 15 to 20)
#    0.000    1.600    4.000    2.000    5.600    0.000 
#    0.000    0.000    0.000    0.000    0.000    0.000 
#    0.000   18.133    0.000    0.000    0.000    0.000 
#
# Total GULP energy -167165.390623 kJ/mol
# GULP energy per Si atom -5572.179687 kJ/mol
# Density = 1.687890 g / cm^3
# Si number density = 16.917406 Si / 1000 Ang^3
#
#
#
# Elastic Constant Matrix: (Units=GPa)
#
#
# Indices 1 2 3 4 5 6 
#
# 1 64.9506 27.1987 25.2036 0.0000 -16.3623 0.0000
# 2 27.1987 71.3260 24.8969 0.0000 -12.2335 0.0000
# 3 25.2036 24.8969 69.6993 0.0000 -10.6128 0.0000
# 4 0.0000 0.0000 0.0000 24.4322 0.0000 -5.9934
# 5 -16.3623 -12.2335 -10.6128 0.0000 25.9433 0.0000
# 6 0.0000 0.0000 0.0000 -5.9934 0.0000 20.9836
#
#
#
# Elastic Compliance Matrix: (Units=1/GPa)
#
#
# Indices 1 2 3 4 5 6 
#
# 1 0.021661 -0.005042 -0.004600 0.000000 0.009402 0.000000
# 2 -0.005042 0.017979 -0.004044 0.000000 0.003644 0.000000
# 3 -0.004600 -0.004044 0.017834 0.000000 0.002487 0.000000
# 4 0.000000 0.000000 0.000000 0.044013 0.000000 0.012571
# 5 0.009402 0.003644 0.002487 0.000000 0.047211 0.000000
# 6 0.000000 0.000000 0.000000 0.012571 0.000000 0.051247
#
#
# Mechanical properties :
#
#
# Convention : Reuss Voigt Hill
#
# Bulk Modulus (GPa) = 33.22008 40.06380 36.64194
# Shear Modulus (GPa) = 21.06564 22.85028 21.95796
#
# Velocity S-wave (km/s) = 3.53257 3.67917 3.60662
# Velocity P-wave (km/s) = 6.02644 6.46388 6.24899
#
# Compressibility (1/GPa) = 0.03010228
#
# Stress axis : x y z
#
# Youngs Moduli (GPa) = 46.16525 55.61933 56.07215
#
# Poissons Ratio (x) = 0.28041 0.25795
# Poissons Ratio (y) = 0.23275 0.22678
# Poissons Ratio (z) = 0.21237 0.22494
#
# Static dielectric constant tensor:
#      x y z
#    x 1.594920 0.000000 -0.011530 
#    y 0.000000 1.574420 0.000000 
#    z -0.011530 0.000000 1.592390 
# 
# From -- ./inp_files/69143.got.cif
#   From: 2010.05.17/outbox.cif.g08.bks.cpg/sg15_35_cif.got.tgz:69143.got - 2010.06.03 18:47:42.
