data_PCOD9269286
_publ_section_title
;
Structure prediction by ZEFSAII (Michael W. Deem and Ramdas Pophale) SiO2 
 PCOD9269286
Probable space group: C 2/C
;
_chemical_formula_sum "Si O2"
_cell_formula_units_Z 60
_cell_length_a 18.499394
_cell_length_b 29.300254
_cell_length_c 12.643747
_cell_angle_alpha 90.000000
_cell_angle_beta 152.235138
_cell_angle_gamma 90.000000
_cell_volume 3192.605435
_symmetry_space_group_name_H-M "C 2/C"
_symmetry_group_IT_number 15
_symmetry_cell_setting 'monoclinic'
loop_
_space_group_symop_operation_xyz
x,y,z
-x,y,1/2-z
-x,-y,-z
x,-y,1/2+z
1/2+x,1/2+y,z
1/2-x,1/2+y,1/2-z
1/2-x,1/2-y,-z
1/2+x,1/2-y,1/2+z
loop_
_atom_site_type_symbol
_atom_site_label
_atom_site_fract_x
_atom_site_fract_y
_atom_site_fract_z
Si Si1 0.321655 0.866161 0.615587
Si Si2 0.392292 0.278553 0.514766
Si Si3 0.159298 0.315760 0.654351
Si Si4 0.351202 0.101529 0.932446
Si Si5 0.500000 0.587349 0.750000
Si Si6 0.551700 0.550765 0.591791
Si Si7 0.668217 0.848671 0.311530
Si Si8 0.107963 0.858939 0.702887
O O1 0.356665 0.825092 0.741089
O O2 0.318875 0.861182 0.484782
O O3 0.155198 0.883534 0.436510
O O4 0.461676 0.902450 0.818697
O O5 0.500000 0.260865 0.750000
O O6 0.350750 0.237309 0.385176
O O7 0.239119 0.300041 0.367968
O O8 0.485116 0.320765 0.582751
O O9 0.309050 0.338446 0.793601
O O10 0.013726 0.341055 0.410482
O O11 0.312223 0.118393 0.764558
O O12 0.236293 0.060465 0.815024
O O13 0.498484 0.558126 0.642743
O O14 0.500000 0.500000 0.500000
O O15 0.470772 0.592482 0.423077
O O16 0.766141 0.863566 0.539899
#
# Coordination Sequence:
#
# PCOD9269286 Si02
#       8
#     8   8   8   8   4   8   8   8
#     4   9  19  36  63  81 113 161 195 240 294 350
#     4  10  20  34  54  85 119 160 195 237 298 360
#     4  11  20  34  57  87 116 157 196 240 296 354
#     4   9  19  38  59  81 115 156 200 240 297 346
#     4  10  20  42  64  86 116 160 192 250 304 340
#     4  11  23  39  64  89 117 156 202 244 295 355
#     4  10  20  34  57  81 122 155 187 245 297 347
#     4  11  21  36  57  87 120 154 192 245 297 350
#
# _framework density 18.793429
#
# number of rings (size 3 to 8) (size 9 to 14) (size 15 to 20)
#    0.000    1.867    2.667    2.000    0.000    3.200 
#    0.000    1.333   11.733    1.600    0.000    0.000 
#    0.000    0.000    0.000    0.000    0.000    0.000 
#
# Total GULP energy -167203.707448 kJ/mol
# GULP energy per Si atom -5573.456915 kJ/mol
# Density = 1.875065 g / cm^3
# Si number density = 18.793429 Si / 1000 Ang^3
#
#
#
# Elastic Constant Matrix: (Units=GPa)
#
#
# Indices 1 2 3 4 5 6 
#
# 1 82.6451 25.4186 30.6015 0.0000 0.5899 0.0000
# 2 25.4186 91.7165 29.0228 0.0000 -7.2960 0.0000
# 3 30.6015 29.0228 59.5619 0.0000 2.9046 0.0000
# 4 0.0000 0.0000 0.0000 17.6007 0.0000 -7.0859
# 5 0.5899 -7.2960 2.9046 0.0000 46.8817 0.0000
# 6 0.0000 0.0000 0.0000 -7.0859 0.0000 14.1960
#
#
#
# Elastic Compliance Matrix: (Units=1/GPa)
#
#
# Indices 1 2 3 4 5 6 
#
# 1 0.015268 -0.002078 -0.006827 0.000000 -0.000093 0.000000
# 2 -0.002078 0.013449 -0.005606 0.000000 0.002467 0.000000
# 3 -0.006827 -0.005606 0.023137 0.000000 -0.002220 0.000000
# 4 0.000000 0.000000 0.000000 0.071104 0.000000 0.035491
# 5 -0.000093 0.002467 -0.002220 0.000000 0.021853 0.000000
# 6 0.000000 0.000000 0.000000 0.035491 0.000000 0.088158
#
#
# Mechanical properties :
#
#
# Convention : Reuss Voigt Hill
#
# Bulk Modulus (GPa) = 43.79977 44.88992 44.34484
# Shear Modulus (GPa) = 18.54593 25.66108 22.10350
#
# Velocity S-wave (km/s) = 3.14479 3.69918 3.43319
# Velocity P-wave (km/s) = 6.04506 6.49485 6.27399
#
# Compressibility (1/GPa) = 0.02283117
#
# Stress axis : x y z
#
# Youngs Moduli (GPa) = 65.49787 74.35318 43.22156
#
# Poissons Ratio (x) = 0.15454 0.29507
# Poissons Ratio (y) = 0.13613 0.24230
# Poissons Ratio (z) = 0.44715 0.41682
#
# Static dielectric constant tensor:
#      x y z
#    x 1.687070 0.000000 0.002720 
#    y 0.000000 1.618090 0.000000 
#    z 0.002720 0.000000 1.702490 
# 
# From -- ./inp_files/108600.got.cif
#   From: 2010.05.17/outbox.cif.g08.bks.cpg/sg15_55_cif.got.tgz:108600.got - 2010.06.03 18:47:42.
