data_PCOD9269699
_publ_section_title
;
Structure prediction by ZEFSAII (Michael W. Deem and Ramdas Pophale) SiO2 
 PCOD9269699
Probable space group: C 2/C
;
_chemical_formula_sum "Si O2"
_cell_formula_units_Z 64
_cell_length_a 10.343184
_cell_length_b 24.168826
_cell_length_c 11.676562
_cell_angle_alpha 90.000000
_cell_angle_beta 100.593092
_cell_angle_gamma 90.000000
_cell_volume 2869.191563
_symmetry_space_group_name_H-M "C 2/C"
_symmetry_group_IT_number 15
_symmetry_cell_setting 'monoclinic'
loop_
_space_group_symop_operation_xyz
x,y,z
-x,y,1/2-z
-x,-y,-z
x,-y,1/2+z
1/2+x,1/2+y,z
1/2-x,1/2+y,1/2-z
1/2-x,1/2-y,-z
1/2+x,1/2-y,1/2+z
loop_
_atom_site_type_symbol
_atom_site_label
_atom_site_fract_x
_atom_site_fract_y
_atom_site_fract_z
Si Si1 0.095076 0.049221 0.477135
Si Si2 0.268545 0.933975 0.802442
Si Si3 0.481310 0.666548 0.934874
Si Si4 0.487342 0.064715 0.514330
Si Si5 0.884557 0.627873 0.142132
Si Si6 0.112254 0.726559 0.519733
Si Si7 0.170615 0.548583 0.803453
Si Si8 0.277797 0.655478 0.704338
O O1 0.139966 0.048192 0.351752
O O2 0.221035 0.040129 0.579064
O O3 0.043109 0.110708 0.498180
O O4 0.000000 0.000000 0.500000
O O5 0.365418 0.912647 0.919178
O O6 0.259642 0.888126 0.700226
O O7 0.335042 0.988823 0.757989
O O8 0.356103 0.676261 0.830360
O O9 0.609491 0.655763 0.875269
O O10 0.512973 0.722222 0.011314
O O11 0.612125 0.090374 0.470770
O O12 0.451626 0.070828 0.640234
O O13 0.500000 0.000000 0.500000
O O14 0.000000 0.613465 0.250000
O O15 0.919957 0.686570 0.092875
O O16 0.250000 0.750000 0.500000
O O17 0.154044 0.691686 0.638857
O O18 0.228972 0.594501 0.728872
#
# Coordination Sequence:
#
# PCOD9269699 Si02
#       8
#     8   8   8   8   8   8   8   8
#     4  10  21  37  60  90 125 162 200 249 316 374
#     4  10  21  35  57  88 120 163 194 240 309 373
#     4   9  19  38  61  86 125 162 202 258 302 361
#     4  10  20  36  56  85 121 157 193 245 305 362
#     4  10  22  38  59  86 119 163 204 249 311 362
#     4  10  22  37  64  87 113 161 212 254 297 364
#     4  10  20  34  59  88 125 153 197 252 301 374
#     4   9  19  35  59  91 116 157 207 247 305 361
#
# _framework density 22.305933
#
# number of rings (size 3 to 8) (size 9 to 14) (size 15 to 20)
#    0.000    2.250    1.250    0.750    5.250    3.500 
#    0.000    0.000    8.250    3.000    0.000    0.000 
#    0.000    0.000    0.000    0.000    0.000    0.000 
#
# Total GULP energy -178392.649641 kJ/mol
# GULP energy per Si atom -5574.770301 kJ/mol
# Density = 2.225516 g / cm^3
# Si number density = 22.305933 Si / 1000 Ang^3
#
#
#
# Elastic Constant Matrix: (Units=GPa)
#
#
# Indices 1 2 3 4 5 6 
#
# 1 55.9916 23.4272 48.6864 0.0000 -4.9926 0.0000
# 2 23.4272 113.6311 44.6639 0.0000 -4.1040 0.0000
# 3 48.6864 44.6639 129.8960 0.0000 -9.9434 0.0000
# 4 0.0000 0.0000 0.0000 27.5014 0.0000 6.4433
# 5 -4.9926 -4.1040 -9.9434 0.0000 33.2635 0.0000
# 6 0.0000 0.0000 0.0000 6.4433 0.0000 32.9093
#
#
#
# Elastic Compliance Matrix: (Units=1/GPa)
#
#
# Indices 1 2 3 4 5 6 
#
# 1 0.026851 -0.001820 -0.009361 0.000000 0.001007 0.000000
# 2 -0.001820 0.010301 -0.002848 0.000000 0.000146 0.000000
# 3 -0.009361 -0.002848 0.012334 0.000000 0.001931 0.000000
# 4 0.000000 0.000000 0.000000 0.038110 0.000000 -0.007462
# 5 0.001007 0.000146 0.001931 0.000000 0.030809 0.000000
# 6 0.000000 0.000000 0.000000 -0.007462 0.000000 0.031847
#
#
# Mechanical properties :
#
#
# Convention : Reuss Voigt Hill
#
# Bulk Modulus (GPa) = 46.67073 59.23042 52.95058
# Shear Modulus (GPa) = 26.96090 30.91758 28.93924
#
# Velocity S-wave (km/s) = 3.48039 3.72703 3.60582
# Velocity P-wave (km/s) = 6.09256 6.71806 6.41294
#
# Compressibility (1/GPa) = 0.02142670
#
# Stress axis : x y z
#
# Youngs Moduli (GPa) = 37.24271 97.08252 81.07455
#
# Poissons Ratio (x) = 0.17669 0.75895
# Poissons Ratio (y) = 0.06778 0.23094
# Poissons Ratio (z) = 0.34863 0.27653
#
# Static dielectric constant tensor:
#      x y z
#    x 1.979510 0.000000 0.028190 
#    y 0.000000 1.778540 0.000000 
#    z 0.028190 0.000000 1.859590 
# 
# From -- ./inp_files/90823.got.cif
#   From: 2010.05.17/outbox.cif.g08.bks.cpg/sg15_46_cif.got.tgz:90823.got - 2010.06.03 18:47:42.
