data_PCOD9269672
_publ_section_title
;
Structure prediction by ZEFSAII (Michael W. Deem and Ramdas Pophale) SiO2 
 PCOD9269672
Probable space group: C 2/C
;
_chemical_formula_sum "Si O2"
_cell_formula_units_Z 36
_cell_length_a 11.824045
_cell_length_b 34.627738
_cell_length_c 5.322014
_cell_angle_alpha 90.000000
_cell_angle_beta 128.866179
_cell_angle_gamma 90.000000
_cell_volume 1696.634313
_symmetry_space_group_name_H-M "C 2/C"
_symmetry_group_IT_number 15
_symmetry_cell_setting 'monoclinic'
loop_
_space_group_symop_operation_xyz
x,y,z
-x,y,1/2-z
-x,-y,-z
x,-y,1/2+z
1/2+x,1/2+y,z
1/2-x,1/2+y,1/2-z
1/2-x,1/2-y,-z
1/2+x,1/2-y,1/2+z
loop_
_atom_site_type_symbol
_atom_site_label
_atom_site_fract_x
_atom_site_fract_y
_atom_site_fract_z
Si Si1 0.836244 0.015892 0.734778
Si Si2 0.293186 0.395170 0.089281
Si Si3 0.162396 0.364600 0.383035
Si Si4 0.000000 0.165976 0.750000
Si Si5 0.161306 0.789248 0.852919
O O1 0.841257 0.060746 0.674129
O O2 0.765555 0.992775 0.405625
O O3 0.000000 0.000000 0.000000
O O4 0.176544 0.389107 0.147933
O O5 0.423854 0.364808 0.329677
O O6 0.242405 0.384195 0.735978
O O7 0.235544 0.323780 0.412711
O O8 0.000000 0.358421 0.250000
O O9 0.877588 0.194816 0.478286
O O10 0.000000 0.786607 0.750000
O O11 0.250000 0.750000 0.000000
#
# Coordination Sequence:
#
# PCOD9269672 Si02
#       5
#     8   8   8   4   8
#     4  10  20  34  58  99 132 165 207 269 333 378
#     4  11  22  40  69  94 137 168 225 277 321 397
#     4  11  24  44  66  95 129 181 226 267 331 397
#     4  10  22  40  62  98 126 178 218 276 332 386
#     4  11  23  42  63  96 131 172 220 280 335 389
#
# _framework density 21.218478000000001
#
# number of rings (size 3 to 8) (size 9 to 14) (size 15 to 20)
#    0.000    1.333    2.222    4.000    0.000    6.222 
#    4.000    0.000    0.000   13.333    0.000    0.000 
#    0.000    0.000    0.000    0.000    0.000    0.000 
#
# Total GULP energy -100323.873635 kJ/mol
# GULP energy per Si atom -5573.548535 kJ/mol
# Density = 2.117018 g / cm^3
# Si number density = 21.218478 Si / 1000 Ang^3
#
#
#
# Elastic Constant Matrix: (Units=GPa)
#
#
# Indices 1 2 3 4 5 6 
#
# 1 129.7813 49.6029 22.4397 0.0000 0.3929 0.0000
# 2 49.6029 205.9429 59.2575 0.0000 5.0854 0.0000
# 3 22.4397 59.2575 73.6931 0.0000 -16.3545 0.0000
# 4 0.0000 0.0000 0.0000 30.4956 0.0000 4.5110
# 5 0.3929 5.0854 -16.3545 0.0000 42.1503 0.0000
# 6 0.0000 0.0000 0.0000 4.5110 0.0000 21.3842
#
#
#
# Elastic Compliance Matrix: (Units=1/GPa)
#
#
# Indices 1 2 3 4 5 6 
#
# 1 0.008578 -0.001663 -0.001366 0.000000 -0.000409 0.000000
# 2 -0.001663 0.007004 -0.005810 0.000000 -0.003084 0.000000
# 3 -0.001366 -0.005810 0.020589 0.000000 0.008702 0.000000
# 4 0.000000 0.000000 0.000000 0.033848 0.000000 -0.007140
# 5 -0.000409 -0.003084 0.008702 0.000000 0.027477 0.000000
# 6 0.000000 0.000000 0.000000 -0.007140 0.000000 0.048270
#
#
# Mechanical properties :
#
#
# Convention : Reuss Voigt Hill
#
# Bulk Modulus (GPa) = 54.07243 74.66860 64.37051
# Shear Modulus (GPa) = 29.47970 37.34717 33.41343
#
# Velocity S-wave (km/s) = 3.73143 4.19994 3.97260
# Velocity P-wave (km/s) = 6.64106 7.66721 7.17251
#
# Compressibility (1/GPa) = 0.01849371
#
# Stress axis : x y z
#
# Youngs Moduli (GPa) = 116.57363 142.77054 48.56978
#
# Poissons Ratio (x) = 0.23744 0.06633
# Poissons Ratio (y) = 0.19387 0.28220
# Poissons Ratio (z) = 0.15919 0.82952
#
# Static dielectric constant tensor:
#      x y z
#    x 1.808240 0.000000 -0.065600 
#    y 0.000000 1.724560 0.000000 
#    z -0.065600 0.000000 1.858110 
# 
# From -- ./inp_files/5650.got.cif
#   From: 2010.05.17/outbox.cif.g08.bks.cpg/sg15_3_cif.got.tgz:5650.got - 2010.06.03 18:47:42.
