data_PCOD9269129
_publ_section_title
;
Structure prediction by ZEFSAII (Michael W. Deem and Ramdas Pophale) SiO2 
 PCOD9269129
Probable space group: C 2/C
;
_chemical_formula_sum "Si O2"
_cell_formula_units_Z 56
_cell_length_a 13.056145
_cell_length_b 25.080414
_cell_length_c 16.066753
_cell_angle_alpha 90.000000
_cell_angle_beta 143.804285
_cell_angle_gamma 90.000000
_cell_volume 3106.926732
_symmetry_space_group_name_H-M "C 2/C"
_symmetry_group_IT_number 15
_symmetry_cell_setting 'monoclinic'
loop_
_space_group_symop_operation_xyz
x,y,z
-x,y,1/2-z
-x,-y,-z
x,-y,1/2+z
1/2+x,1/2+y,z
1/2-x,1/2+y,1/2-z
1/2-x,1/2-y,-z
1/2+x,1/2-y,1/2+z
loop_
_atom_site_type_symbol
_atom_site_label
_atom_site_fract_x
_atom_site_fract_y
_atom_site_fract_z
Si Si1 0.199854 0.234962 0.373364
Si Si2 0.898006 0.096669 0.323465
Si Si3 0.673615 0.051404 0.321158
Si Si4 0.828562 0.440890 0.276397
Si Si5 0.987989 0.017355 0.642555
Si Si6 0.148840 0.627508 0.022396
Si Si7 0.272342 0.350064 0.417962
O O1 0.250000 0.250000 0.500000
O O2 0.330392 0.188506 0.430150
O O3 0.215764 0.293186 0.342920
O O4 0.000000 0.216935 0.250000
O O5 0.756988 0.087457 0.303162
O O6 0.807245 0.100723 0.174791
O O7 0.023834 0.145590 0.426955
O O8 0.010522 0.042911 0.391775
O O9 0.500000 0.072461 0.250000
O O10 0.821120 0.043157 0.488501
O O11 0.626525 0.994792 0.245190
O O12 0.665258 0.456187 0.225829
O O13 0.768756 0.396015 0.173193
O O14 0.987138 0.412007 0.427932
O O15 0.000000 0.018366 0.750000
O O16 0.176789 0.635587 0.942017
#
# Coordination Sequence:
#
# PCOD9269129 Si02
#       7
#     8   8   8   8   8   8   8
#     4  10  20  34  51  82 116 146 186 225 270 329
#     4  11  22  36  55  81 115 145 188 222 273 331
#     4  11  23  39  56  80 111 144 184 232 273 322
#     4  11  22  36  55  82 111 146 190 216 274 334
#     4  11  23  39  57  80 111 143 184 235 270 320
#     4  11  22  32  54  85 113 149 181 221 271 333
#     4  11  18  36  56  78 114 155 177 223 275 324
#
# _framework density 18.024242000000001
#
# number of rings (size 3 to 8) (size 9 to 14) (size 15 to 20)
#    0.000    1.143    2.857    6.857    4.000    1.143 
#    0.000    0.000    0.000    0.000    0.000    6.000 
#    0.000    0.000    0.000    0.000    0.000    0.000 
#
# Total GULP energy -156155.824919 kJ/mol
# GULP energy per Si atom -5576.993747 kJ/mol
# Density = 1.798322 g / cm^3
# Si number density = 18.024242 Si / 1000 Ang^3
#
#
#
# Elastic Constant Matrix: (Units=GPa)
#
#
# Indices 1 2 3 4 5 6 
#
# 1 79.8527 17.6874 9.3652 0.0000 6.8148 0.0000
# 2 17.6874 68.0099 5.2948 0.0000 11.8043 0.0000
# 3 9.3652 5.2948 83.6316 0.0000 18.5763 0.0000
# 4 0.0000 0.0000 0.0000 20.5614 0.0000 2.8402
# 5 6.8148 11.8043 18.5763 0.0000 23.7634 0.0000
# 6 0.0000 0.0000 0.0000 2.8402 0.0000 18.2298
#
#
#
# Elastic Compliance Matrix: (Units=1/GPa)
#
#
# Indices 1 2 3 4 5 6 
#
# 1 0.013468 -0.003161 -0.000967 0.000000 -0.001536 0.000000
# 2 -0.003161 0.016891 0.001146 0.000000 -0.008380 0.000000
# 3 -0.000967 0.001146 0.014591 0.000000 -0.011698 0.000000
# 4 0.000000 0.000000 0.000000 0.049705 0.000000 -0.007744
# 5 -0.001536 -0.008380 -0.011698 0.000000 0.055829 0.000000
# 6 0.000000 0.000000 0.000000 -0.007744 0.000000 0.056062
#
#
# Mechanical properties :
#
#
# Convention : Reuss Voigt Hill
#
# Bulk Modulus (GPa) = 25.64959 32.90990 29.27974
# Shear Modulus (GPa) = 22.17253 25.78737 23.97995
#
# Velocity S-wave (km/s) = 3.51116 3.78657 3.65146
# Velocity P-wave (km/s) = 5.54068 6.11685 5.83588
#
# Compressibility (1/GPa) = 0.03898697
#
# Stress axis : x y z
#
# Youngs Moduli (GPa) = 74.25211 59.20328 68.53388
#
# Poissons Ratio (x) = 0.18712 0.06625
# Poissons Ratio (y) = 0.23468 -0.07853
# Poissons Ratio (z) = 0.07178 -0.06784
#
# Static dielectric constant tensor:
#      x y z
#    x 1.615400 0.000000 0.023790 
#    y 0.000000 1.725650 0.000000 
#    z 0.023790 0.000000 1.693330 
# 
# From -- ./inp_files/148525.got.cif
#   From: 2010.05.17/outbox.cif.g08.bks.cpg/sg15_75_cif.got.tgz:148525.got - 2010.06.03 18:47:42.
