data_PCOD9269767
_publ_section_title
;
Structure prediction by ZEFSAII (Michael W. Deem and Ramdas Pophale) SiO2 
 PCOD9269767
Probable space group: C 2/C
;
_chemical_formula_sum "Si O2"
_cell_formula_units_Z 64
_cell_length_a 28.495306
_cell_length_b 21.887043
_cell_length_c 13.918134
_cell_angle_alpha 90.000000
_cell_angle_beta 21.781476
_cell_angle_gamma 90.000000
_cell_volume 3221.028019
_symmetry_space_group_name_H-M "C 2/C"
_symmetry_group_IT_number 15
_symmetry_cell_setting 'monoclinic'
loop_
_space_group_symop_operation_xyz
x,y,z
-x,y,1/2-z
-x,-y,-z
x,-y,1/2+z
1/2+x,1/2+y,z
1/2-x,1/2+y,1/2-z
1/2-x,1/2-y,-z
1/2+x,1/2-y,1/2+z
loop_
_atom_site_type_symbol
_atom_site_label
_atom_site_fract_x
_atom_site_fract_y
_atom_site_fract_z
Si Si1 0.871584 0.569086 0.056904
Si Si2 0.793102 0.392591 0.403033
Si Si3 0.276501 0.221512 0.053638
Si Si4 0.360709 0.343970 0.975338
Si Si5 0.620145 0.637469 0.455886
Si Si6 0.216011 0.557392 0.866415
Si Si7 0.552076 0.933770 0.871627
Si Si8 0.116126 0.975426 0.837487
O O1 0.746901 0.607030 0.261202
O O2 0.844875 0.496357 0.085078
O O3 0.887422 0.584244 0.140034
O O4 0.000000 0.582473 0.750000
O O5 0.823939 0.345851 0.431381
O O6 0.677711 0.370430 0.556105
O O7 0.743341 0.457453 0.537076
O O8 0.923568 0.395880 0.098675
O O9 0.348787 0.270895 0.980633
O O10 0.153654 0.202474 0.346692
O O11 0.250000 0.250000 0.000000
O O12 0.258990 0.379521 0.235559
O O13 0.500000 0.357452 0.750000
O O14 0.580807 0.589107 0.449774
O O15 0.500000 0.642813 0.750000
O O16 0.343880 0.524117 0.659340
O O17 0.133099 0.568027 0.120234
O O18 0.500000 0.000000 0.000000
O O19 0.000000 0.000000 0.000000
#
# Coordination Sequence:
#
# PCOD9269767 Si02
#       8
#     8   8   8   8   8   8   8   8
#     4  11  22  39  63  92 136 179 212 255 326 414
#     4  10  21  40  64  91 122 180 215 258 325 406
#     4   9  21  45  65  85 115 173 220 266 324 389
#     4  11  24  42  65  91 126 165 225 280 335 385
#     4  10  23  40  62  98 128 166 225 271 323 390
#     4  11  24  36  58 101 130 168 216 267 328 387
#     4  12  21  37  61  95 137 168 212 259 322 400
#     4  10  20  34  60  91 135 168 202 254 330 399
#
# _framework density 19.869433000000001
#
# number of rings (size 3 to 8) (size 9 to 14) (size 15 to 20)
#    0.000    1.500    2.500    3.000    1.750    4.500 
#    4.500    0.000    0.000    1.500    0.000    0.000 
#    0.000    0.000    0.000    0.000    0.000    0.000 
#
# Total GULP energy -178140.359229 kJ/mol
# GULP energy per Si atom -5566.886226 kJ/mol
# Density = 1.982421 g / cm^3
# Si number density = 19.869433 Si / 1000 Ang^3
#
#
#
# Elastic Constant Matrix: (Units=GPa)
#
#
# Indices 1 2 3 4 5 6 
#
# 1 110.4180 39.2628 53.6275 -0.0002 -4.9806 0.0002
# 2 39.2628 65.5170 43.8987 -0.0002 -6.7462 0.0002
# 3 53.6275 43.8987 126.5693 0.0001 14.6526 0.0000
# 4 -0.0002 -0.0002 0.0001 16.3862 0.0000 3.0035
# 5 -4.9806 -6.7462 14.6526 0.0000 34.1228 -0.0001
# 6 0.0002 0.0002 0.0000 3.0035 -0.0001 34.1736
#
#
#
# Elastic Compliance Matrix: (Units=1/GPa)
#
#
# Indices 1 2 3 4 5 6 
#
# 1 0.012844 -0.004632 -0.004153 0.000000 0.002742 0.000000
# 2 -0.004632 0.023421 -0.006964 0.000000 0.006945 0.000000
# 3 -0.004153 -0.006964 0.012949 0.000000 -0.007544 0.000000
# 4 0.000000 0.000000 0.000000 0.062026 0.000000 -0.005451
# 5 0.002742 0.006945 -0.007544 0.000000 0.034318 0.000000
# 6 0.000000 0.000000 0.000000 -0.005451 0.000000 0.029742
#
#
# Mechanical properties :
#
#
# Convention : Reuss Voigt Hill
#
# Bulk Modulus (GPa) = 56.44953 64.00914 60.22934
# Shear Modulus (GPa) = 23.50673 27.98420 25.74547
#
# Velocity S-wave (km/s) = 3.44330 3.75694 3.60353
# Velocity P-wave (km/s) = 6.65434 7.14873 6.90596
#
# Compressibility (1/GPa) = 0.01771494
#
# Stress axis : x y z
#
# Youngs Moduli (GPa) = 77.85509 42.69714 77.22461
#
# Poissons Ratio (x) = 0.19779 0.32071
# Poissons Ratio (y) = 0.36065 0.53782
# Poissons Ratio (z) = 0.32333 0.29736
#
# Static dielectric constant tensor:
#      x y z
#    x 1.808630 0.000000 0.059930 
#    y 0.000000 1.786770 0.000000 
#    z 0.059930 0.000000 1.801350 
# 
# From -- ./inp_files/183106.got.cif
#   From: 2010.05.17/outbox.cif.g08.bks.cpg/sg15_92_cif.got.tgz:183106.got - 2010.06.03 18:47:42.
