data_PCOD9269024
_publ_section_title
;
Structure prediction by ZEFSAII (Michael W. Deem and Ramdas Pophale) SiO2 
 PCOD9269024
Probable space group: C 2/C
;
_chemical_formula_sum "Si O2"
_cell_formula_units_Z 40
_cell_length_a 5.184929
_cell_length_b 20.235256
_cell_length_c 21.918770
_cell_angle_alpha 90.000000
_cell_angle_beta 124.866696
_cell_angle_gamma 90.000000
_cell_volume 1886.852599
_symmetry_space_group_name_H-M "C 2/C"
_symmetry_group_IT_number 15
_symmetry_cell_setting 'monoclinic'
loop_
_space_group_symop_operation_xyz
x,y,z
-x,y,1/2-z
-x,-y,-z
x,-y,1/2+z
1/2+x,1/2+y,z
1/2-x,1/2+y,1/2-z
1/2-x,1/2-y,-z
1/2+x,1/2-y,1/2+z
loop_
_atom_site_type_symbol
_atom_site_label
_atom_site_fract_x
_atom_site_fract_y
_atom_site_fract_z
Si Si1 0.130856 0.183034 0.203760
Si Si2 0.239027 0.558151 0.108154
Si Si3 0.898449 0.240533 0.430148
Si Si4 0.695594 0.360831 0.480129
Si Si5 0.192342 0.978860 0.085876
O O1 0.500000 0.164590 0.250000
O O2 0.099365 0.231090 0.141451
O O3 0.000000 0.211327 0.250000
O O4 0.911765 0.119491 0.162614
O O5 0.506100 0.513157 0.115016
O O6 0.030346 0.511629 0.123412
O O7 0.997510 0.589689 0.024592
O O8 0.721261 0.303388 0.433788
O O9 0.790979 0.174410 0.451590
O O10 0.250000 0.250000 0.500000
O O11 0.376505 0.400977 0.424235
O O12 0.000000 0.000000 0.000000
#
# Coordination Sequence:
#
# PCOD9269024 Si02
#       5
#     8   8   8   8   8
#     4  12  25  42  63  93 131 179 226 271 338 410
#     4  11  21  38  59  93 127 165 208 276 326 390
#     4  11  23  38  65  94 140 171 218 280 330 386
#     4  10  21  36  61  99 133 164 213 274 337 380
#     4  10  20  33  60  93 128 158 204 261 333 387
#
# _framework density 21.199321000000001
#
# number of rings (size 3 to 8) (size 9 to 14) (size 15 to 20)
#    0.000    1.200    2.000    7.200    5.600    0.000 
#    0.000    0.000    0.000    1.200    5.200    0.000 
#    0.000    0.000    0.000    0.000    0.000    0.200 
#
# Total GULP energy -111702.190138 kJ/mol
# GULP energy per Si atom -5585.109507 kJ/mol
# Density = 2.115107 g / cm^3
# Si number density = 21.199321 Si / 1000 Ang^3
#
#
#
# Elastic Constant Matrix: (Units=GPa)
#
#
# Indices 1 2 3 4 5 6 
#
# 1 169.4656 51.6358 46.1476 0.0000 -14.5404 0.0000
# 2 51.6358 96.1877 25.2347 0.0000 -14.4855 0.0000
# 3 46.1476 25.2347 74.5587 0.0000 -12.6719 0.0000
# 4 0.0000 0.0000 0.0000 9.9029 0.0000 3.9020
# 5 -14.5404 -14.4855 -12.6719 0.0000 44.9757 0.0000
# 6 0.0000 0.0000 0.0000 3.9020 0.0000 28.1082
#
#
#
# Elastic Compliance Matrix: (Units=1/GPa)
#
#
# Indices 1 2 3 4 5 6 
#
# 1 0.007940 -0.003207 -0.003747 0.000000 0.000478 0.000000
# 2 -0.003207 0.013030 -0.001983 0.000000 0.002601 0.000000
# 3 -0.003747 -0.001983 0.016898 0.000000 0.002911 0.000000
# 4 0.000000 0.000000 0.000000 0.106824 0.000000 -0.014829
# 5 0.000478 0.002601 0.002911 0.000000 0.024047 0.000000
# 6 0.000000 0.000000 0.000000 -0.014829 0.000000 0.037635
#
#
# Mechanical properties :
#
#
# Convention : Reuss Voigt Hill
#
# Bulk Modulus (GPa) = 50.01979 65.13869 57.57924
# Shear Modulus (GPa) = 21.65331 31.07695 26.36513
#
# Velocity S-wave (km/s) = 3.19943 3.83291 3.53041
# Velocity P-wave (km/s) = 6.10693 7.09801 6.62104
#
# Compressibility (1/GPa) = 0.01999209
#
# Stress axis : x y z
#
# Youngs Moduli (GPa) = 125.95135 76.74669 59.18013
#
# Poissons Ratio (x) = 0.24613 0.22178
# Poissons Ratio (y) = 0.40393 0.11735
# Poissons Ratio (z) = 0.47200 0.15219
#
# Static dielectric constant tensor:
#      x y z
#    x 1.796240 0.000000 -0.000930 
#    y 0.000000 1.782060 0.000000 
#    z -0.000930 0.000000 1.755400 
# 
# From -- ./inp_files/129031.got.cif
#   From: 2010.05.17/outbox.cif.g08.bks.cpg/sg15_65_cif.got.tgz:129031.got - 2010.06.03 18:47:42.
