data_PCOD9269137
_publ_section_title
;
Structure prediction by ZEFSAII (Michael W. Deem and Ramdas Pophale) SiO2 
 PCOD9269137
Probable space group: C 2/C
;
_chemical_formula_sum "Si O2"
_cell_formula_units_Z 44
_cell_length_a 24.382078
_cell_length_b 19.071909
_cell_length_c 5.559921
_cell_angle_alpha 90.000000
_cell_angle_beta 131.551451
_cell_angle_gamma 90.000000
_cell_volume 1934.836615
_symmetry_space_group_name_H-M "C 2/C"
_symmetry_group_IT_number 15
_symmetry_cell_setting 'monoclinic'
loop_
_space_group_symop_operation_xyz
x,y,z
-x,y,1/2-z
-x,-y,-z
x,-y,1/2+z
1/2+x,1/2+y,z
1/2-x,1/2+y,1/2-z
1/2-x,1/2-y,-z
1/2+x,1/2-y,1/2+z
loop_
_atom_site_type_symbol
_atom_site_label
_atom_site_fract_x
_atom_site_fract_y
_atom_site_fract_z
Si Si1 0.427669 0.703837 0.153664
Si Si2 0.000000 0.694583 0.250000
Si Si3 0.774289 0.966696 0.866926
Si Si4 0.773526 0.170066 0.631307
Si Si5 0.599501 0.031842 0.891237
Si Si6 0.114461 0.340139 0.734562
O O1 0.500000 0.667057 0.250000
O O2 0.455015 0.752354 0.448591
O O3 0.351311 0.666021 0.992271
O O4 0.400483 0.759284 0.872321
O O5 0.057888 0.646870 0.279487
O O6 0.782800 0.882973 0.933864
O O7 0.803393 0.003882 0.197576
O O8 0.687125 0.980385 0.621036
O O9 0.750000 0.250000 0.500000
O O10 0.698813 0.144730 0.545352
O O11 0.593654 0.113732 0.942575
O O12 0.572076 0.995695 0.057413
#
# Coordination Sequence:
#
# PCOD9269137 Si02
#       6
#     8   4   8   8   8   8
#     4   9  19  36  54  77 111 142 180 236 303 342
#     4  10  20  34  52  72 112 148 176 230 312 340
#     4   9  18  36  55  84 122 158 185 237 307 357
#     4   9  18  37  59  91 111 145 204 247 281 346
#     4   9  18  31  52  77 108 146 192 232 278 341
#     4   9  19  34  53  77 108 144 183 236 288 341
#
# _framework density 22.740936999999999
#
# number of rings (size 3 to 8) (size 9 to 14) (size 15 to 20)
#    0.000    2.909    0.000    0.000    2.545    0.727 
#   19.636    0.909    0.000    1.091    0.000    0.000 
#    0.000    0.000    0.000    0.000    0.000    0.000 
#
# Total GULP energy -122592.992345 kJ/mol
# GULP energy per Si atom -5572.408743 kJ/mol
# Density = 2.268918 g / cm^3
# Si number density = 22.740937 Si / 1000 Ang^3
#
#
#
# Elastic Constant Matrix: (Units=GPa)
#
#
# Indices 1 2 3 4 5 6 
#
# 1 70.7560 -3.2539 56.4326 0.0000 26.8578 0.0000
# 2 -3.2539 80.8716 22.7473 0.0000 -3.2335 0.0000
# 3 56.4326 22.7473 113.4336 0.0000 19.9902 0.0000
# 4 0.0000 0.0000 0.0000 20.2431 0.0000 -9.6402
# 5 26.8578 -3.2335 19.9902 0.0000 41.9768 0.0000
# 6 0.0000 0.0000 0.0000 -9.6402 0.0000 3.9118
#
#
#
# Elastic Compliance Matrix: (Units=1/GPa)
#
#
# Indices 1 2 3 4 5 6 
#
# 1 0.029839 0.004533 -0.013591 0.000000 -0.012270 0.000000
# 2 0.004533 0.014032 -0.005183 0.000000 0.000649 0.000000
# 3 -0.013591 -0.005183 0.016543 0.000000 0.000419 0.000000
# 4 0.000000 0.000000 0.000000 -0.284539 0.000000 -0.701223
# 5 -0.012270 0.000649 0.000419 0.000000 0.031524 0.000000
# 6 0.000000 0.000000 0.000000 -0.701223 0.000000 -1.472468
#
#
# Mechanical properties :
#
#
# Convention : Reuss Voigt Hill
#
# Bulk Modulus (GPa) = 31.31838 46.32369 38.82103
# Shear Modulus (GPa) = -3.07514 25.83535 11.38011
#
# Velocity S-wave (km/s) = -1.16412 3.37422 2.23944
# Velocity P-wave (km/s) = 3.46335 5.96615 4.87800
#
# Compressibility (1/GPa) = 0.03193013
#
# Stress axis : x y z
#
# Youngs Moduli (GPa) = 33.51300 71.26793 60.44830
#
# Poissons Ratio (x) = -0.32306 0.82158
# Poissons Ratio (y) = -0.15191 0.31332
# Poissons Ratio (z) = 0.45549 0.36940
#
# Static dielectric constant tensor:
#      x y z
#    x 1.941000 0.000000 0.009350 
#    y 0.000000 1.897960 0.000000 
#    z 0.009350 0.000000 1.878640 
# 
# From -- ./inp_files/10335.got.cif
#   From: 2010.05.17/outbox.cif.g08.bks.cpg/sg15_6_cif.got.tgz:10335.got - 2010.06.03 18:47:42.
