data_PCOD9269746
_publ_section_title
;
Structure prediction by ZEFSAII (Michael W. Deem and Ramdas Pophale) SiO2 
 PCOD9269746
Probable space group: C 2/C
;
_chemical_formula_sum "Si O2"
_cell_formula_units_Z 48
_cell_length_a 11.821112
_cell_length_b 9.408952
_cell_length_c 17.298496
_cell_angle_alpha 90.000000
_cell_angle_beta 67.612350
_cell_angle_gamma 90.000000
_cell_volume 1778.996290
_symmetry_space_group_name_H-M "C 2/C"
_symmetry_group_IT_number 15
_symmetry_cell_setting 'monoclinic'
loop_
_space_group_symop_operation_xyz
x,y,z
-x,y,1/2-z
-x,-y,-z
x,-y,1/2+z
1/2+x,1/2+y,z
1/2-x,1/2+y,1/2-z
1/2-x,1/2-y,-z
1/2+x,1/2-y,1/2+z
loop_
_atom_site_type_symbol
_atom_site_label
_atom_site_fract_x
_atom_site_fract_y
_atom_site_fract_z
Si Si1 0.369037 0.331719 0.439248
Si Si2 0.000000 0.902794 0.750000
Si Si3 0.414126 0.507222 0.106799
Si Si4 0.000000 0.534151 0.250000
Si Si5 0.733632 0.758372 0.675457
Si Si6 0.959065 0.561058 0.093123
Si Si7 0.764192 0.746624 0.841906
O O1 0.250000 0.250000 0.500000
O O2 0.446087 0.462968 0.452068
O O3 0.323210 0.359863 0.364447
O O4 0.469164 0.208061 0.411813
O O5 0.098809 0.801065 0.680269
O O6 0.066935 0.987178 0.802959
O O7 0.351740 0.660545 0.109163
O O8 0.311251 0.390347 0.107362
O O9 0.875505 0.626886 0.286032
O O10 0.988889 0.474266 0.164358
O O11 0.767520 0.709317 0.750585
O O12 0.821657 0.617254 0.122461
O O13 0.000000 0.500000 0.000000
#
# Coordination Sequence:
#
# PCOD9269746 Si02
#       7
#     8   4   8   4   8   8   8
#     4  10  21  35  57  85 115 155 208 246 309 374
#     4  10  20  34  60  88 118 158 204 256 304 370
#     4  10  20  35  57  82 119 157 196 256 307 362
#     4   8  16  34  56  82 114 160 196 238 310 370
#     4   9  18  35  57  83 116 156 199 252 302 363
#     4   9  18  34  59  85 122 158 198 256 305 367
#     4   9  19  35  55  88 121 150 207 249 300 376
#
# _framework density 26.981507000000001
#
# number of rings (size 3 to 8) (size 9 to 14) (size 15 to 20)
#    0.000    2.667    0.000    2.000    2.333    2.667 
#    3.000    0.000    3.667    8.000    0.000    0.000 
#    0.000    0.000    0.000    0.000    0.000    0.000 
#
# Total GULP energy -133854.633389 kJ/mol
# GULP energy per Si atom -5577.276391 kJ/mol
# Density = 2.692010 g / cm^3
# Si number density = 26.981507 Si / 1000 Ang^3
#
#
#
# Elastic Constant Matrix: (Units=GPa)
#
#
# Indices 1 2 3 4 5 6 
#
# 1 114.6361 58.0827 42.6379 0.0000 -37.7087 0.0000
# 2 58.0827 85.3425 35.0866 0.0000 -5.5125 0.0000
# 3 42.6379 35.0866 93.7492 0.0000 -5.1149 0.0000
# 4 0.0000 0.0000 0.0000 37.1528 0.0000 -0.7066
# 5 -37.7087 -5.5125 -5.1149 0.0000 62.9865 0.0000
# 6 0.0000 0.0000 0.0000 -0.7066 0.0000 73.5428
#
#
#
# Elastic Compliance Matrix: (Units=1/GPa)
#
#
# Indices 1 2 3 4 5 6 
#
# 1 0.018885 -0.010516 -0.004105 0.000000 0.010052 0.000000
# 2 -0.010516 0.019743 -0.002869 0.000000 -0.004800 0.000000
# 3 -0.004105 -0.002869 0.013519 0.000000 -0.001611 0.000000
# 4 0.000000 0.000000 0.000000 0.026921 0.000000 0.000259
# 5 0.010052 -0.004800 -0.001611 0.000000 0.021343 0.000000
# 6 0.000000 0.000000 0.000000 0.000259 0.000000 0.013600
#
#
# Mechanical properties :
#
#
# Convention : Reuss Voigt Hill
#
# Bulk Modulus (GPa) = 58.24298 62.81583 60.52940
# Shear Modulus (GPa) = 32.31795 45.26447 38.79121
#
# Velocity S-wave (km/s) = 3.46465 4.10031 3.79581
# Velocity P-wave (km/s) = 6.13500 6.76375 6.45703
#
# Compressibility (1/GPa) = 0.01716945
#
# Stress axis : x y z
#
# Youngs Moduli (GPa) = 52.95339 50.64961 73.96796
#
# Poissons Ratio (x) = 0.53261 0.30363
# Poissons Ratio (y) = 0.55684 0.21218
# Poissons Ratio (z) = 0.21736 0.14529
#
# Static dielectric constant tensor:
#      x y z
#    x 1.980340 0.000000 0.028270 
#    y 0.000000 2.109050 0.000000 
#    z 0.028270 0.000000 2.342610 
# 
# From -- ./inp_files/196082.got.cif
#   From: 2010.05.17/outbox.cif.g08.bks.cpg/sg15_99_cif.got.tgz:196082.got - 2010.06.03 18:47:42.
