data_PCOD9269615
_publ_section_title
;
Structure prediction by ZEFSAII (Michael W. Deem and Ramdas Pophale) SiO2 
 PCOD9269615
Probable space group: C 2/C
;
_chemical_formula_sum "Si O2"
_cell_formula_units_Z 52
_cell_length_a 5.430634
_cell_length_b 31.199053
_cell_length_c 16.999400
_cell_angle_alpha 90.000000
_cell_angle_beta 129.684818
_cell_angle_gamma 90.000000
_cell_volume 2216.526784
_symmetry_space_group_name_H-M "C 2/C"
_symmetry_group_IT_number 15
_symmetry_cell_setting 'monoclinic'
loop_
_space_group_symop_operation_xyz
x,y,z
-x,y,1/2-z
-x,-y,-z
x,-y,1/2+z
1/2+x,1/2+y,z
1/2-x,1/2+y,1/2-z
1/2-x,1/2-y,-z
1/2+x,1/2-y,1/2+z
loop_
_atom_site_type_symbol
_atom_site_label
_atom_site_fract_x
_atom_site_fract_y
_atom_site_fract_z
Si Si1 0.928955 0.721576 0.439039
Si Si2 0.247257 0.014108 0.372965
Si Si3 0.123263 0.695219 0.890363
Si Si4 0.751470 0.560546 0.126950
Si Si5 0.110878 0.916539 0.363195
Si Si6 0.722419 0.141961 0.474899
Si Si7 0.000000 0.371833 0.250000
O O1 0.250000 0.750000 0.500000
O O2 0.958167 0.677362 0.397718
O O3 0.921028 0.704281 0.526917
O O4 0.655015 0.756122 0.364869
O O5 0.579127 0.029602 0.402671
O O6 0.000000 0.016914 0.250000
O O7 0.079058 0.042425 0.406061
O O8 0.236770 0.964498 0.395538
O O9 0.895830 0.662721 0.796093
O O10 0.459708 0.670413 0.949172
O O11 0.725373 0.606249 0.079937
O O12 0.000000 0.563435 0.250000
O O13 0.772680 0.904412 0.335658
O O14 0.000000 0.911074 0.250000
O O15 0.339738 0.883479 0.455584
#
# Coordination Sequence:
#
# PCOD9269615 Si02
#       7
#     8   8   8   8   8   8   4
#     4   9  18  36  56  77 111 149 187 239 303 356
#     4   9  21  38  60  83 121 164 201 253 305 349
#     4   9  19  36  57  84 116 150 189 247 305 364
#     4  10  22  41  59  86 121 164 207 252 298 358
#     4  10  21  35  57  86 117 155 194 249 302 362
#     4  10  21  35  58  86 115 155 201 246 301 362
#     4  10  20  34  58  88 114 146 196 242 302 362
#
# _framework density 23.460125999999999
#
# number of rings (size 3 to 8) (size 9 to 14) (size 15 to 20)
#    0.000    2.462    0.000    0.923    7.538    1.231 
#    0.000    4.615    0.000    0.923    0.000    0.000 
#    0.000    0.000    0.000    0.000    0.000    0.000 
#
# Total GULP energy -144907.803703 kJ/mol
# GULP energy per Si atom -5573.377066 kJ/mol
# Density = 2.340673 g / cm^3
# Si number density = 23.460126 Si / 1000 Ang^3
#
#
#
# Elastic Constant Matrix: (Units=GPa)
#
#
# Indices 1 2 3 4 5 6 
#
# 1 65.1849 58.7234 24.3573 0.0000 -18.1431 0.0000
# 2 58.7234 217.1402 40.1292 0.0000 -21.0600 0.0000
# 3 24.3573 40.1292 88.8309 0.0000 -21.9357 0.0000
# 4 0.0000 0.0000 0.0000 32.0722 0.0000 -15.0650
# 5 -18.1431 -21.0600 -21.9357 0.0000 30.6828 0.0000
# 6 0.0000 0.0000 0.0000 -15.0650 0.0000 20.0650
#
#
#
# Elastic Compliance Matrix: (Units=1/GPa)
#
#
# Indices 1 2 3 4 5 6 
#
# 1 0.023022 -0.005025 -0.001861 0.000000 0.008834 0.000000
# 2 -0.005025 0.006249 -0.001360 0.000000 0.000346 0.000000
# 3 -0.001861 -0.001360 0.014427 0.000000 0.008280 0.000000
# 4 0.000000 0.000000 0.000000 0.048167 0.000000 0.036164
# 5 0.008834 0.000346 0.008280 0.000000 0.043972 0.000000
# 6 0.000000 0.000000 0.000000 0.036164 0.000000 0.076991
#
#
# Mechanical properties :
#
#
# Convention : Reuss Voigt Hill
#
# Bulk Modulus (GPa) = 36.75732 68.61954 52.68843
# Shear Modulus (GPa) = 20.97414 33.09371 27.03392
#
# Velocity S-wave (km/s) = 2.99328 3.75992 3.39829
# Velocity P-wave (km/s) = 5.25817 6.93990 6.15673
#
# Compressibility (1/GPa) = 0.02720547
#
# Stress axis : x y z
#
# Youngs Moduli (GPa) = 43.43592 160.01980 69.31658
#
# Poissons Ratio (x) = 0.80418 0.12901
# Poissons Ratio (y) = 0.21829 0.09425
# Poissons Ratio (z) = 0.08084 0.21759
#
# Static dielectric constant tensor:
#      x y z
#    x 1.963580 0.000000 -0.026220 
#    y 0.000000 1.890630 0.000000 
#    z -0.026220 0.000000 1.964980 
# 
# From -- ./inp_files/185943.got.cif
#   From: 2010.05.17/outbox.cif.g08.bks.cpg/sg15_93_cif.got.tgz:185943.got - 2010.06.03 18:47:42.
