data_PCOD9269737
_publ_section_title
;
Structure prediction by ZEFSAII (Michael W. Deem and Ramdas Pophale) SiO2 
 PCOD9269737
Probable space group: C 2/C
;
_chemical_formula_sum "Si O2"
_cell_formula_units_Z 60
_cell_length_a 19.600344
_cell_length_b 26.634135
_cell_length_c 13.904595
_cell_angle_alpha 90.000000
_cell_angle_beta 155.092754
_cell_angle_gamma 90.000000
_cell_volume 3057.017860
_symmetry_space_group_name_H-M "C 2/C"
_symmetry_group_IT_number 15
_symmetry_cell_setting 'monoclinic'
loop_
_space_group_symop_operation_xyz
x,y,z
-x,y,1/2-z
-x,-y,-z
x,-y,1/2+z
1/2+x,1/2+y,z
1/2-x,1/2+y,1/2-z
1/2-x,1/2-y,-z
1/2+x,1/2-y,1/2+z
loop_
_atom_site_type_symbol
_atom_site_label
_atom_site_fract_x
_atom_site_fract_y
_atom_site_fract_z
Si Si1 0.881962 0.596242 0.007799
Si Si2 0.233838 0.693738 0.298190
Si Si3 0.069490 0.708900 0.444515
Si Si4 0.500000 0.370691 0.250000
Si Si5 0.956428 0.446811 0.402494
Si Si6 0.756689 0.100613 0.194254
Si Si7 0.145374 0.058396 0.373277
Si Si8 0.424225 0.448865 0.303705
O O1 0.956205 0.587743 0.997342
O O2 0.722295 0.561887 0.810748
O O3 0.844007 0.655408 0.962899
O O4 0.000000 0.584823 0.250000
O O5 0.307152 0.747926 0.366112
O O6 0.371866 0.664589 0.534633
O O7 0.221942 0.655831 0.192573
O O8 0.075961 0.701264 0.164216
O O9 0.000000 0.723070 0.250000
O O10 0.396642 0.408842 0.183282
O O11 0.000000 0.500000 0.500000
O O12 0.094071 0.429701 0.505756
O O13 0.790930 0.450566 0.132808
O O14 0.802312 0.096833 0.141868
O O15 0.903172 0.070119 0.434962
O O16 0.000000 0.079098 0.250000
O O17 0.088022 0.005489 0.250990
#
# Coordination Sequence:
#
# PCOD9269737 Si02
#       8
#     8   8   8   4   8   8   8   8
#     4  11  23  38  61  96 134 167 211 265 323 397
#     4  11  23  38  60  95 132 171 212 271 328 390
#     4  11  22  37  62  94 133 164 219 261 334 393
#     4  10  20  34  60  86 136 170 204 268 312 384
#     4  12  24  41  65  93 130 173 214 269 325 382
#     4  11  25  43  62  95 132 174 218 270 325 384
#     4  12  24  43  66  94 127 174 227 268 309 392
#     4  11  22  38  63  93 132 171 215 261 323 381
#
# _framework density 19.62697
#
# number of rings (size 3 to 8) (size 9 to 14) (size 15 to 20)
#    0.000    0.800    2.667    6.000    7.467    0.000 
#    0.000    0.000    0.000    0.800    0.000    0.000 
#    0.000    0.000    0.000    0.000    0.000    0.000 
#
# Total GULP energy -167572.076663 kJ/mol
# GULP energy per Si atom -5585.735889 kJ/mol
# Density = 1.958230 g / cm^3
# Si number density = 19.626970 Si / 1000 Ang^3
#
#
#
# Elastic Constant Matrix: (Units=GPa)
#
#
# Indices 1 2 3 4 5 6 
#
# 1 147.6104 32.8601 28.7449 0.0000 10.1435 0.0000
# 2 32.8601 74.2532 11.2668 0.0000 -7.1129 0.0000
# 3 28.7449 11.2668 71.7675 0.0000 2.7730 0.0000
# 4 0.0000 0.0000 0.0000 7.9290 0.0000 6.8119
# 5 10.1435 -7.1129 2.7730 0.0000 30.7929 0.0000
# 6 0.0000 0.0000 0.0000 6.8119 0.0000 21.2377
#
#
#
# Elastic Compliance Matrix: (Units=1/GPa)
#
#
# Indices 1 2 3 4 5 6 
#
# 1 0.008319 -0.003601 -0.002638 0.000000 -0.003335 0.000000
# 2 -0.003601 0.015717 -0.001216 0.000000 0.004926 0.000000
# 3 -0.002638 -0.001216 0.015211 0.000000 -0.000782 0.000000
# 4 0.000000 0.000000 0.000000 0.174091 0.000000 -0.055839
# 5 -0.003335 0.004926 -0.000782 0.000000 0.034782 0.000000
# 6 0.000000 0.000000 0.000000 -0.055839 0.000000 0.064996
#
#
# Mechanical properties :
#
#
# Convention : Reuss Voigt Hill
#
# Bulk Modulus (GPa) = 41.08570 48.81940 44.95255
# Shear Modulus (GPa) = 14.87484 26.70921 20.79203
#
# Velocity S-wave (km/s) = 2.75594 3.69296 3.25831
# Velocity P-wave (km/s) = 5.57725 6.56594 6.09169
#
# Compressibility (1/GPa) = 0.02433937
#
# Stress axis : x y z
#
# Youngs Moduli (GPa) = 120.20713 63.62449 65.73984
#
# Poissons Ratio (x) = 0.22909 0.17341
# Poissons Ratio (y) = 0.43283 0.07991
# Poissons Ratio (z) = 0.31709 0.07734
#
# Static dielectric constant tensor:
#      x y z
#    x 1.796580 0.000000 -0.044380 
#    y 0.000000 1.706330 0.000000 
#    z -0.044380 0.000000 1.752590 
# 
# From -- ./inp_files/108459.got.cif
#   From: 2010.05.17/outbox.cif.g08.bks.cpg/sg15_55_cif.got.tgz:108459.got - 2010.06.03 18:47:42.
