data_PCOD9269033
_publ_section_title
;
Structure prediction by ZEFSAII (Michael W. Deem and Ramdas Pophale) SiO2 
 PCOD9269033
Probable space group: C 2/C
;
_chemical_formula_sum "Si O2"
_cell_formula_units_Z 36
_cell_length_a 17.297156
_cell_length_b 5.823579
_cell_length_c 22.719232
_cell_angle_alpha 90.000000
_cell_angle_beta 120.753329
_cell_angle_gamma 90.000000
_cell_volume 1966.717110
_symmetry_space_group_name_H-M "C 2/C"
_symmetry_group_IT_number 15
_symmetry_cell_setting 'monoclinic'
loop_
_space_group_symop_operation_xyz
x,y,z
-x,y,1/2-z
-x,-y,-z
x,-y,1/2+z
1/2+x,1/2+y,z
1/2-x,1/2+y,1/2-z
1/2-x,1/2-y,-z
1/2+x,1/2-y,1/2+z
loop_
_atom_site_type_symbol
_atom_site_label
_atom_site_fract_x
_atom_site_fract_y
_atom_site_fract_z
Si Si1 0.357226 0.917237 0.748736
Si Si2 0.976540 0.195164 0.352856
Si Si3 0.500000 0.407163 0.250000
Si Si4 0.678212 0.631245 0.652233
Si Si5 0.546312 0.248070 0.002646
O O1 0.412287 0.739351 0.731287
O O2 0.313512 0.805213 0.789901
O O3 0.430966 0.088858 0.803945
O O4 0.276585 0.029633 0.681319
O O5 0.046238 0.251206 0.431801
O O6 0.017763 0.050886 0.315781
O O7 0.894143 0.055451 0.351617
O O8 0.635398 0.742393 0.577387
O O9 0.500000 0.500000 0.000000
O O10 0.500000 0.000000 0.000000
#
# Coordination Sequence:
#
# PCOD9269033 Si02
#       5
#     8   8   4   8   8
#     4  11  19  36  59  86 119 154 206 256 306 364
#     4  10  20  37  57  86 120 161 201 248 309 372
#     4  10  24  36  56  84 124 166 202 248 314 376
#     4  10  20  33  61  93 113 153 207 260 304 354
#     4  10  20  36  60  92 125 156 200 259 313 362
#
# _framework density 18.304614999999998
#
# number of rings (size 3 to 8) (size 9 to 14) (size 15 to 20)
#    0.000    1.778    4.444    0.667    0.000    0.000 
#    0.000    1.111    0.000    5.333    0.000    0.000 
#    0.000    0.000    0.000    0.000    0.000    0.000 
#
# Total GULP energy -100233.581248 kJ/mol
# GULP energy per Si atom -5568.532292 kJ/mol
# Density = 1.826295 g / cm^3
# Si number density = 18.304615 Si / 1000 Ang^3
#
#
#
# Elastic Constant Matrix: (Units=GPa)
#
#
# Indices 1 2 3 4 5 6 
#
# 1 54.7839 26.6449 71.1902 0.0002 -9.2788 -0.0003
# 2 26.6449 81.9138 43.5880 0.0006 -11.3743 -0.0007
# 3 71.1902 43.5880 142.7274 0.0003 -10.6055 -0.0002
# 4 0.0002 0.0006 0.0003 -57.5459 0.0000 52.6886
# 5 -9.2788 -11.3743 -10.6055 0.0000 21.0122 0.0000
# 6 -0.0003 -0.0007 -0.0002 52.6886 0.0000 -33.4779
#
#
#
# Elastic Compliance Matrix: (Units=1/GPa)
#
#
# Indices 1 2 3 4 5 6 
#
# 1 0.054579 -0.002756 -0.025664 0.000000 0.009656 0.000000
# 2 -0.002756 0.015446 -0.002921 0.000000 0.005670 0.000000
# 3 -0.025664 -0.002921 0.020509 0.000000 -0.002563 0.000000
# 4 0.000000 0.000000 0.000000 0.039405 0.000000 0.062018
# 5 0.009656 0.005670 -0.002563 0.000000 0.053631 0.000000
# 6 0.000000 0.000000 0.000000 0.062018 0.000000 0.067735
#
#
# Mechanical properties :
#
#
# Convention : Reuss Voigt Hill
#
# Bulk Modulus (GPa) = 35.90470 62.47458 49.18964
# Shear Modulus (GPa) = 15.46682 -4.80218 5.33232
#
# Velocity S-wave (km/s) = 2.90999 -1.62147 1.70863
# Velocity P-wave (km/s) = 5.56313 5.54067 5.55191
#
# Compressibility (1/GPa) = 0.02785151
#
# Stress axis : x y z
#
# Youngs Moduli (GPa) = 18.32197 64.74095 48.75957
#
# Poissons Ratio (x) = 0.17845 1.25137
# Poissons Ratio (y) = 0.05050 0.14243
# Poissons Ratio (z) = 0.47021 0.18911
#
# Static dielectric constant tensor:
#      x y z
#    x 1.560620 0.000000 -0.013070 
#    y 0.000000 1.739230 0.000000 
#    z -0.013070 0.000000 1.610090 
# 
# From -- ./inp_files/207839.got.cif
#   From: 2010.05.17/outbox.cif.g08.bks.cpg/sg15_104_cif.got.tgz:207839.got - 2010.06.03 18:47:42.
