data_PCOD9269854
_publ_section_title
;
Structure prediction by ZEFSAII (Michael W. Deem and Ramdas Pophale) SiO2 
 PCOD9269854
Probable space group: C 2/C
;
_chemical_formula_sum "Si O2"
_cell_formula_units_Z 56
_cell_length_a 19.243026
_cell_length_b 15.353564
_cell_length_c 17.262874
_cell_angle_alpha 90.000000
_cell_angle_beta 150.130188
_cell_angle_gamma 90.000000
_cell_volume 2540.106803
_symmetry_space_group_name_H-M "C 2/C"
_symmetry_group_IT_number 15
_symmetry_cell_setting 'monoclinic'
loop_
_space_group_symop_operation_xyz
x,y,z
-x,y,1/2-z
-x,-y,-z
x,-y,1/2+z
1/2+x,1/2+y,z
1/2-x,1/2+y,1/2-z
1/2-x,1/2-y,-z
1/2+x,1/2-y,1/2+z
loop_
_atom_site_type_symbol
_atom_site_label
_atom_site_fract_x
_atom_site_fract_y
_atom_site_fract_z
Si Si1 0.899010 0.778390 0.798482
Si Si2 0.508982 0.645361 0.851822
Si Si3 0.393798 0.157474 0.420124
Si Si4 0.037599 0.040443 0.196974
Si Si5 0.000000 0.616898 0.250000
Si Si6 0.364184 0.027732 0.515420
Si Si7 0.000000 0.673164 0.750000
Si Si8 0.301499 0.214545 0.169073
O O1 0.739488 0.797749 0.665502
O O2 0.975080 0.872042 0.864739
O O3 0.920242 0.730897 0.736434
O O4 0.973035 0.717001 0.932577
O O5 0.500000 0.639963 0.750000
O O6 0.538889 0.546314 0.906589
O O7 0.366690 0.689762 0.743158
O O8 0.636972 0.706143 0.000448
O O9 0.412387 0.064307 0.479099
O O10 0.351924 0.158123 0.290821
O O11 0.199816 0.013865 0.353880
O O12 0.000000 0.059213 0.250000
O O13 0.059080 0.554639 0.374409
O O14 0.123321 0.674754 0.333815
O O15 0.396100 0.108624 0.604254
#
# Coordination Sequence:
#
# PCOD9269854 Si02
#       8
#     8   8   8   8   4   8   4   8
#     4  10  20  38  63  94 131 170 200 255 306 377
#     4  11  24  42  66  94 119 158 221 261 303 362
#     4  10  23  41  60  93 133 160 205 248 324 370
#     4  10  20  34  62  94 127 154 209 258 309 350
#     4  11  22  40  69  86 120 162 221 250 314 355
#     4   9  21  38  60  95 127 161 205 260 302 375
#     4   9  18  34  65  94 126 170 213 240 300 377
#     4  12  25  43  67  89 121 167 207 265 311 377
#
# _framework density 22.046316000000001
#
# number of rings (size 3 to 8) (size 9 to 14) (size 15 to 20)
#    0.000    1.714    1.429    3.000    4.000    2.286 
#    2.571    6.429    0.000    0.000    0.000    0.000 
#    0.000    0.000    0.000    0.000    0.000    0.000 
#
# Total GULP energy -156534.062425 kJ/mol
# GULP energy per Si atom -5590.502229 kJ/mol
# Density = 2.199614 g / cm^3
# Si number density = 22.046316 Si / 1000 Ang^3
#
#
#
# Elastic Constant Matrix: (Units=GPa)
#
#
# Indices 1 2 3 4 5 6 
#
# 1 44.9729 11.6452 5.5646 -0.0001 -5.3875 0.0000
# 2 11.6452 64.7484 -3.3900 -0.0001 0.8026 0.0000
# 3 5.5646 -3.3900 58.0784 -0.0002 -4.1476 -0.0001
# 4 -0.0001 -0.0001 -0.0002 -9.3519 -0.0001 11.1749
# 5 -5.3875 0.8026 -4.1476 -0.0001 31.2742 0.0000
# 6 0.0000 0.0000 -0.0001 11.1749 0.0000 17.9302
#
#
#
# Elastic Compliance Matrix: (Units=1/GPa)
#
#
# Indices 1 2 3 4 5 6 
#
# 1 0.024165 -0.004516 -0.002295 0.000000 0.003974 0.000000
# 2 -0.004516 0.016338 0.001313 0.000000 -0.001023 0.000000
# 3 -0.002295 0.001313 0.017651 0.000000 0.001912 0.000000
# 4 0.000000 0.000000 0.000000 -0.061287 0.000000 0.038197
# 5 0.003974 -0.001023 0.001912 0.000000 0.032940 0.000000
# 6 0.000000 0.000000 0.000000 0.038197 0.000000 0.031966
#
#
# Mechanical properties :
#
#
# Convention : Reuss Voigt Hill
#
# Bulk Modulus (GPa) = 21.20470 21.71548 21.46009
# Shear Modulus (GPa) = 56.50558 18.23583 37.37070
#
# Velocity S-wave (km/s) = 5.06814 2.87916 4.12163
# Velocity P-wave (km/s) = 6.62474 4.57428 5.69259
#
# Compressibility (1/GPa) = 0.04715936
#
# Stress axis : x y z
#
# Youngs Moduli (GPa) = 41.38227 61.20713 56.65347
#
# Poissons Ratio (x) = 0.27638 0.13002
# Poissons Ratio (y) = 0.18686 -0.07440
# Poissons Ratio (z) = 0.09497 -0.08038
#
# Static dielectric constant tensor:
#      x y z
#    x 1.807690 0.000000 -0.019760 
#    y 0.000000 1.820830 0.000000 
#    z -0.019760 0.000000 1.785480 
# 
# From -- ./inp_files/215754.got.cif
#   From: 2010.05.17/outbox.cif.g08.bks.cpg/sg15_108_cif.got.tgz:215754.got - 2010.06.03 18:47:42.
