data_PCOD9269295
_publ_section_title
;
Structure prediction by ZEFSAII (Michael W. Deem and Ramdas Pophale) SiO2 
 PCOD9269295
Probable space group: C 2/C
;
_chemical_formula_sum "Si O2"
_cell_formula_units_Z 52
_cell_length_a 13.324129
_cell_length_b 17.559378
_cell_length_c 16.251587
_cell_angle_alpha 90.000000
_cell_angle_beta 140.298006
_cell_angle_gamma 90.000000
_cell_volume 2428.873887
_symmetry_space_group_name_H-M "C 2/C"
_symmetry_group_IT_number 15
_symmetry_cell_setting 'monoclinic'
loop_
_space_group_symop_operation_xyz
x,y,z
-x,y,1/2-z
-x,-y,-z
x,-y,1/2+z
1/2+x,1/2+y,z
1/2-x,1/2+y,1/2-z
1/2-x,1/2-y,-z
1/2+x,1/2-y,1/2+z
loop_
_atom_site_type_symbol
_atom_site_label
_atom_site_fract_x
_atom_site_fract_y
_atom_site_fract_z
Si Si1 0.000000 0.416848 0.250000
Si Si2 0.538102 0.441220 0.181198
Si Si3 0.758008 0.334976 0.973965
Si Si4 0.281617 0.210744 0.304542
Si Si5 0.571687 0.277544 0.386806
Si Si6 0.239860 0.617536 0.788356
Si Si7 0.490210 0.603820 0.408565
O O1 0.872957 0.443177 0.237422
O O2 0.115998 0.374972 0.387390
O O3 0.500000 0.463819 0.250000
O O4 0.429210 0.368166 0.094757
O O5 0.711403 0.407051 0.272131
O O6 0.530402 0.514403 0.118675
O O7 0.800687 0.329698 0.905240
O O8 0.589323 0.369529 0.890866
O O9 0.750000 0.250000 0.000000
O O10 0.447737 0.232885 0.367385
O O11 0.192079 0.293044 0.257880
O O12 0.167271 0.153519 0.183537
O O13 0.500000 0.270595 0.250000
O O14 0.750000 0.250000 0.500000
O O15 0.395424 0.618808 0.943046
#
# Coordination Sequence:
#
# PCOD9269295 Si02
#       7
#     4   8   8   8   8   8   8
#     4  10  20  34  54  86 128 158 198 258 330 378
#     4  10  22  42  64  91 128 173 223 269 332 395
#     4  11  20  32  56  93 126 157 197 257 325 396
#     4  11  22  35  65  94 125 166 218 264 329 398
#     4  10  25  45  69  94 129 180 234 279 320 399
#     4  10  22  36  61  91 127 170 206 268 323 396
#     4  11  22  39  65  97 130 166 213 273 335 401
#
# _framework density 21.409098
#
# number of rings (size 3 to 8) (size 9 to 14) (size 15 to 20)
#    0.000    1.538    3.077    2.769    4.308    2.462 
#    0.000    3.077    1.692    9.231    0.000    0.000 
#    0.000    0.000    0.000    0.000    0.000    0.000 
#
# Total GULP energy -144817.739403 kJ/mol
# GULP energy per Si atom -5569.913054 kJ/mol
# Density = 2.136037 g / cm^3
# Si number density = 21.409098 Si / 1000 Ang^3
#
#
#
# Elastic Constant Matrix: (Units=GPa)
#
#
# Indices 1 2 3 4 5 6 
#
# 1 129.7366 18.0469 13.1523 0.0000 4.8764 0.0000
# 2 18.0469 100.4851 14.9115 0.0001 16.5883 0.0001
# 3 13.1523 14.9115 61.0959 0.0002 12.6809 0.0001
# 4 0.0000 0.0001 0.0002 12.2452 0.0002 -1.3478
# 5 4.8764 16.5883 12.6809 0.0002 36.4884 0.0001
# 6 0.0000 0.0001 0.0001 -1.3478 0.0001 24.4710
#
#
#
# Elastic Compliance Matrix: (Units=1/GPa)
#
#
# Indices 1 2 3 4 5 6 
#
# 1 0.008024 -0.001226 -0.001424 0.000000 -0.000020 0.000000
# 2 -0.001226 0.011120 -0.001546 0.000000 -0.004354 0.000000
# 3 -0.001424 -0.001546 0.018177 0.000000 -0.005424 0.000000
# 4 0.000000 0.000000 0.000000 0.082163 0.000000 0.004525
# 5 -0.000020 -0.004354 -0.005424 0.000000 0.031273 0.000000
# 6 0.000000 0.000000 0.000000 0.004525 0.000000 0.041114
#
#
# Mechanical properties :
#
#
# Convention : Reuss Voigt Hill
#
# Bulk Modulus (GPa) = 34.56841 42.61545 38.59193
# Shear Modulus (GPa) = 23.82008 30.98805 27.40407
#
# Velocity S-wave (km/s) = 3.33921 3.80863 3.58162
# Velocity P-wave (km/s) = 5.57214 6.26813 5.93035
#
# Compressibility (1/GPa) = 0.02892814
#
# Stress axis : x y z
#
# Youngs Moduli (GPa) = 124.63206 89.92597 55.01331
#
# Poissons Ratio (x) = 0.11029 0.07833
# Poissons Ratio (y) = 0.15286 0.08507
# Poissons Ratio (z) = 0.17745 0.13905
#
# Static dielectric constant tensor:
#      x y z
#    x 1.925760 0.000000 -0.010550 
#    y 0.000000 1.628090 0.000000 
#    z -0.010550 0.000000 1.766020 
# 
# From -- ./inp_files/206153.got.cif
#   From: 2010.05.17/outbox.cif.g08.bks.cpg/sg15_104_cif.got.tgz:206153.got - 2010.06.03 18:47:42.
