data_PCOD9269939
_publ_section_title
;
Structure prediction by ZEFSAII (Michael W. Deem and Ramdas Pophale) SiO2 
 PCOD9269939
Probable space group: C 2/C
;
_chemical_formula_sum "Si O2"
_cell_formula_units_Z 52
_cell_length_a 14.205422
_cell_length_b 30.317630
_cell_length_c 13.274562
_cell_angle_alpha 90.000000
_cell_angle_beta 25.599989
_cell_angle_gamma 90.000000
_cell_volume 2470.241178
_symmetry_space_group_name_H-M "C 2/C"
_symmetry_group_IT_number 15
_symmetry_cell_setting 'monoclinic'
loop_
_space_group_symop_operation_xyz
x,y,z
-x,y,1/2-z
-x,-y,-z
x,-y,1/2+z
1/2+x,1/2+y,z
1/2-x,1/2+y,1/2-z
1/2-x,1/2-y,-z
1/2+x,1/2-y,1/2+z
loop_
_atom_site_type_symbol
_atom_site_label
_atom_site_fract_x
_atom_site_fract_y
_atom_site_fract_z
Si Si1 0.572868 0.204415 0.069664
Si Si2 0.214552 0.146574 0.297451
Si Si3 0.355394 0.007099 0.289859
Si Si4 0.588240 0.737354 0.359232
Si Si5 0.000000 0.046621 0.750000
Si Si6 0.667933 0.379346 0.207208
Si Si7 0.997495 0.426048 0.028202
O O1 0.620102 0.241573 0.940858
O O2 0.765660 0.168601 0.896998
O O3 0.500000 0.220730 0.250000
O O4 0.393257 0.173883 0.188195
O O5 0.078325 0.184538 0.374058
O O6 0.073410 0.122778 0.517779
O O7 0.314205 0.109246 0.129513
O O8 0.500000 0.012550 0.250000
O O9 0.404192 0.958340 0.201793
O O10 0.106987 0.016639 0.561473
O O11 0.419182 0.041757 0.141483
O O12 0.335481 0.752245 0.572106
O O13 0.179482 0.080814 0.617923
O O14 0.812559 0.394721 0.160988
#
# Coordination Sequence:
#
# PCOD9269939 Si02
#       7
#     8   8   8   8   4   8   8
#     4  10  21  32  47  72 114 156 194 234 277 334
#     4  10  20  35  52  74 107 149 191 237 279 337
#     4  11  23  40  56  82 111 142 192 246 295 357
#     4  10  20  35  50  76 112 155 198 242 285 340
#     4  12  22  32  58  80 108 152 196 240 288 344
#     4  11  20  34  52  78 108 149 200 232 279 340
#     4  10  23  38  58  79 110 150 189 242 299 347
#
# _framework density 21.050576
#
# number of rings (size 3 to 8) (size 9 to 14) (size 15 to 20)
#    0.000    1.538    4.615    0.923    2.154    4.308 
#    1.385    0.000    0.000    0.000    0.000    0.000 
#    0.000   11.077    0.000    1.385    0.000    0.000 
#
# Total GULP energy -144822.151579 kJ/mol
# GULP energy per Si atom -5570.082753 kJ/mol
# Density = 2.100266 g / cm^3
# Si number density = 21.050576 Si / 1000 Ang^3
#
#
#
# Elastic Constant Matrix: (Units=GPa)
#
#
# Indices 1 2 3 4 5 6 
#
# 1 6.6993 5.3470 7.7402 0.0001 -2.8881 -0.0003
# 2 5.3470 124.5774 47.8727 -0.0001 7.4539 0.0002
# 3 7.7402 47.8727 80.4528 -0.0004 -6.5131 -0.0007
# 4 0.0001 -0.0001 -0.0004 47.5621 0.0005 2.2965
# 5 -2.8881 7.4539 -6.5131 0.0005 12.3031 0.0004
# 6 -0.0003 0.0002 -0.0007 2.2965 0.0004 15.7127
#
#
#
# Elastic Compliance Matrix: (Units=1/GPa)
#
#
# Indices 1 2 3 4 5 6 
#
# 1 0.184486 -0.006317 -0.010630 -0.000001 0.041508 0.000002
# 2 -0.006317 0.011955 -0.007535 0.000000 -0.012715 0.000000
# 3 -0.010630 -0.007535 0.018914 0.000000 0.012083 0.000000
# 4 -0.000001 0.000000 0.000000 0.021175 -0.000001 -0.003095
# 5 0.041508 -0.012715 0.012083 -0.000001 0.105124 -0.000001
# 6 0.000002 0.000000 0.000000 -0.003095 -0.000001 0.064095
#
#
# Mechanical properties :
#
#
# Convention : Reuss Voigt Hill
#
# Bulk Modulus (GPa) = 6.00994 37.07218 21.54106
# Shear Modulus (GPa) = 9.80054 25.16690 17.48372
#
# Velocity S-wave (km/s) = 2.16005 3.46142 2.88507
# Velocity P-wave (km/s) = 3.01368 5.79866 4.62097
#
# Compressibility (1/GPa) = 0.16639089
#
# Stress axis : x y z
#
# Youngs Moduli (GPa) = 5.42046 83.64964 52.87046
#
# Poissons Ratio (x) = 0.52843 0.56201
# Poissons Ratio (y) = 0.03424 0.39838
# Poissons Ratio (z) = 0.05762 0.63030
#
# Static dielectric constant tensor:
#      x y z
#    x 1.795680 0.000000 -0.078810 
#    y 0.000000 1.767460 0.000000 
#    z -0.078810 0.000000 1.862740 
# 
# From -- ./inp_files/164562.got.cif
#   From: 2010.05.17/outbox.cif.g08.bks.cpg/sg15_83_cif.got.tgz:164562.got - 2010.06.03 18:47:42.
