data_PCOD9269794
_publ_section_title
;
Structure prediction by ZEFSAII (Michael W. Deem and Ramdas Pophale) SiO2 
 PCOD9269794
Probable space group: C 2/C
;
_chemical_formula_sum "Si O2"
_cell_formula_units_Z 64
_cell_length_a 12.112684
_cell_length_b 30.426595
_cell_length_c 18.711166
_cell_angle_alpha 90.000000
_cell_angle_beta 152.327314
_cell_angle_gamma 90.000000
_cell_volume 3202.620075
_symmetry_space_group_name_H-M "C 2/C"
_symmetry_group_IT_number 15
_symmetry_cell_setting 'monoclinic'
loop_
_space_group_symop_operation_xyz
x,y,z
-x,y,1/2-z
-x,-y,-z
x,-y,1/2+z
1/2+x,1/2+y,z
1/2-x,1/2+y,1/2-z
1/2-x,1/2-y,-z
1/2+x,1/2-y,1/2+z
loop_
_atom_site_type_symbol
_atom_site_label
_atom_site_fract_x
_atom_site_fract_y
_atom_site_fract_z
Si Si1 0.792879 0.566460 0.865542
Si Si2 0.227555 0.211111 0.620357
Si Si3 0.372703 0.810435 0.930430
Si Si4 0.443078 0.628225 0.886602
Si Si5 0.131015 0.631107 0.471413
Si Si6 0.387432 0.595336 0.369171
Si Si7 0.185022 0.966309 0.797683
Si Si8 0.119650 0.833215 0.920683
O O1 0.722427 0.599729 0.761560
O O2 0.675976 0.518917 0.790192
O O3 0.756508 0.589867 0.921359
O O4 0.070285 0.553505 0.031390
O O5 0.500000 0.212913 0.750000
O O6 0.144063 0.259006 0.596114
O O7 0.093640 0.201422 0.469498
O O8 0.175702 0.171000 0.644323
O O9 0.579206 0.833646 0.004449
O O10 0.339456 0.820823 0.995734
O O11 0.127949 0.831398 0.762364
O O12 0.674226 0.644152 0.974797
O O13 0.539043 0.597344 0.006260
O O14 0.872777 0.619010 0.289420
O O15 0.355672 0.551312 0.305538
O O16 0.603751 0.620549 0.452020
O O17 0.000000 0.949798 0.750000
#
# Coordination Sequence:
#
# PCOD9269794 Si02
#       8
#     8   8   8   8   8   8   8   8
#     4  10  23  40  61  93 122 159 200 252 307 351
#     4  11  23  35  54  84 120 155 193 260 314 346
#     4  10  20  34  61  81 108 156 204 248 295 364
#     4  11  23  39  57  85 130 159 198 249 309 370
#     4  10  21  38  61  83 115 166 206 243 298 374
#     4   9  21  36  61  88 114 160 200 248 310 361
#     4  10  21  39  66  91 120 155 207 252 291 371
#     4   9  19  35  53  83 114 144 197 250 302 362
#
# _framework density 19.983637999999999
#
# number of rings (size 3 to 8) (size 9 to 14) (size 15 to 20)
#    0.000    2.000    1.250    1.875    7.000    2.000 
#    0.000    0.000    0.000    4.500    0.000    0.000 
#    0.000    0.000    0.000    0.000    0.000    0.000 
#
# Total GULP energy -178293.854892 kJ/mol
# GULP energy per Si atom -5571.682965 kJ/mol
# Density = 1.993815 g / cm^3
# Si number density = 19.983638 Si / 1000 Ang^3
#
#
#
# Elastic Constant Matrix: (Units=GPa)
#
#
# Indices 1 2 3 4 5 6 
#
# 1 109.4804 57.6189 33.8803 0.0006 -6.8898 0.0003
# 2 57.6189 72.4173 24.0178 0.0002 7.9325 0.0000
# 3 33.8803 24.0178 54.9833 0.0025 -15.3088 0.0006
# 4 0.0006 0.0002 0.0025 30.6148 0.0009 0.0266
# 5 -6.8898 7.9325 -15.3088 0.0009 28.6496 0.0002
# 6 0.0003 0.0000 0.0006 0.0266 0.0002 16.2701
#
#
#
# Elastic Compliance Matrix: (Units=1/GPa)
#
#
# Indices 1 2 3 4 5 6 
#
# 1 0.017774 -0.013806 -0.003133 0.000000 0.006423 0.000000
# 2 -0.013806 0.029535 -0.008923 0.000001 -0.016266 0.000001
# 3 -0.003133 -0.008923 0.028775 -0.000003 0.017093 -0.000001
# 4 0.000000 0.000001 -0.000003 0.032664 -0.000003 -0.000053
# 5 0.006423 -0.016266 0.017093 -0.000003 0.050086 -0.000001
# 6 0.000000 0.000001 -0.000001 -0.000053 -0.000001 0.061463
#
#
# Mechanical properties :
#
#
# Convention : Reuss Voigt Hill
#
# Bulk Modulus (GPa) = 41.05243 51.99055 46.52149
# Shear Modulus (GPa) = 17.84819 23.19784 20.52302
#
# Velocity S-wave (km/s) = 2.99179 3.41081 3.20815
# Velocity P-wave (km/s) = 5.70281 6.44861 6.08714
#
# Compressibility (1/GPa) = 0.02435909
#
# Stress axis : x y z
#
# Youngs Moduli (GPa) = 56.26184 33.85816 34.75291
#
# Poissons Ratio (x) = 0.46746 0.10888
# Poissons Ratio (y) = 0.77677 0.31009
# Poissons Ratio (z) = 0.17627 0.30211
#
# Static dielectric constant tensor:
#      x y z
#    x 1.748310 0.000000 -0.006080 
#    y 0.000000 1.729620 0.000000 
#    z -0.006080 0.000000 1.760910 
# 
# From -- ./inp_files/201502.got.cif
#   From: 2010.05.17/outbox.cif.g08.bks.cpg/sg15_101_cif.got.tgz:201502.got - 2010.06.03 18:47:42.
