data_PCOD9269816
_publ_section_title
;
Structure prediction by ZEFSAII (Michael W. Deem and Ramdas Pophale) SiO2 
 PCOD9269816
Probable space group: C 2/C
;
_chemical_formula_sum "Si O2"
_cell_formula_units_Z 56
_cell_length_a 8.264436
_cell_length_b 18.435690
_cell_length_c 21.162363
_cell_angle_alpha 90.000000
_cell_angle_beta 54.891588
_cell_angle_gamma 90.000000
_cell_volume 2637.696010
_symmetry_space_group_name_H-M "C 2/C"
_symmetry_group_IT_number 15
_symmetry_cell_setting 'monoclinic'
loop_
_space_group_symop_operation_xyz
x,y,z
-x,y,1/2-z
-x,-y,-z
x,-y,1/2+z
1/2+x,1/2+y,z
1/2-x,1/2+y,1/2-z
1/2-x,1/2-y,-z
1/2+x,1/2-y,1/2+z
loop_
_atom_site_type_symbol
_atom_site_label
_atom_site_fract_x
_atom_site_fract_y
_atom_site_fract_z
Si Si1 0.125443 0.692655 0.067611
Si Si2 0.181686 0.551267 0.907975
Si Si3 0.273426 0.316378 0.299693
Si Si4 0.907815 0.227184 0.410594
Si Si5 0.070456 0.924782 0.018809
Si Si6 0.318458 0.097144 0.060043
Si Si7 0.689981 0.692392 0.848837
O O1 0.972508 0.652513 0.055665
O O2 0.976878 0.748359 0.134896
O O3 0.250000 0.750000 0.000000
O O4 0.280566 0.629590 0.053845
O O5 0.255969 0.609646 0.842707
O O6 0.302726 0.557358 0.946476
O O7 0.211513 0.467723 0.884269
O O8 0.948409 0.566050 0.972806
O O9 0.221980 0.331948 0.237814
O O10 0.000000 0.794217 0.250000
O O11 0.126989 0.259166 0.367119
O O12 0.750000 0.250000 0.500000
O O13 0.876976 0.140850 0.413477
O O14 0.835255 0.263683 0.361833
O O15 0.899555 0.872347 0.087129
O O16 0.000000 0.000000 0.000000
#
# Coordination Sequence:
#
# PCOD9269816 Si02
#       7
#     8   8   8   8   8   8   8
#     4   8  17  35  60  90 128 169 222 279 333 401
#     4  10  20  38  61  97 131 179 226 274 353 422
#     4  12  24  42  66  98 142 190 227 285 367 430
#     4  11  23  40  68 103 132 178 238 299 340 417
#     4  10  20  34  61  95 133 174 225 289 338 412
#     4   9  19  37  63  95 128 166 232 286 326 404
#     4  10  22  40  64  93 133 184 232 285 350 421
#
# _framework density 21.230649
#
# number of rings (size 3 to 8) (size 9 to 14) (size 15 to 20)
#    0.000    2.000    2.857    0.429    2.000    2.286 
#    0.000    2.857    0.000    0.000    0.000    0.000 
#    0.000    0.000    0.000    0.000    0.000    0.000 
#
# Total GULP energy -155915.349812 kJ/mol
# GULP energy per Si atom -5568.405350 kJ/mol
# Density = 2.118233 g / cm^3
# Si number density = 21.230649 Si / 1000 Ang^3
#
#
#
# Elastic Constant Matrix: (Units=GPa)
#
#
# Indices 1 2 3 4 5 6 
#
# 1 83.7547 44.8921 38.6759 0.0000 -8.9007 0.0000
# 2 44.8921 152.7384 41.7157 0.0000 -9.6029 0.0000
# 3 38.6759 41.7157 89.5504 0.0000 2.8349 0.0000
# 4 0.0000 0.0000 0.0000 32.2500 0.0000 1.2646
# 5 -8.9007 -9.6029 2.8349 0.0000 39.0593 0.0000
# 6 0.0000 0.0000 0.0000 1.2646 0.0000 36.2683
#
#
#
# Elastic Compliance Matrix: (Units=1/GPa)
#
#
# Indices 1 2 3 4 5 6 
#
# 1 0.016671 -0.003077 -0.005877 0.000000 0.003469 0.000000
# 2 -0.003077 0.008246 -0.002560 0.000000 0.001512 0.000000
# 3 -0.005877 -0.002560 0.014994 0.000000 -0.003057 0.000000
# 4 0.000000 0.000000 0.000000 0.031050 0.000000 -0.001083
# 5 0.003469 0.001512 -0.003057 0.000000 0.026986 0.000000
# 6 0.000000 0.000000 0.000000 -0.001083 0.000000 0.027610
#
#
# Mechanical properties :
#
#
# Convention : Reuss Voigt Hill
#
# Bulk Modulus (GPa) = 59.22765 64.06790 61.64778
# Shear Modulus (GPa) = 32.42272 34.89951 33.66111
#
# Velocity S-wave (km/s) = 3.91214 4.05881 3.98615
# Velocity P-wave (km/s) = 6.95444 7.22550 7.09126
#
# Compressibility (1/GPa) = 0.01688401
#
# Stress axis : x y z
#
# Youngs Moduli (GPa) = 59.98401 121.27472 66.69178
#
# Poissons Ratio (x) = 0.37313 0.39192
# Poissons Ratio (y) = 0.18456 0.17074
# Poissons Ratio (z) = 0.35250 0.31049
#
# Static dielectric constant tensor:
#      x y z
#    x 1.847490 0.000000 -0.021570 
#    y 0.000000 1.866980 0.000000 
#    z -0.021570 0.000000 1.820560 
# 
# From -- ./inp_files/232594.got.cif
#   From: 2010.05.17/outbox.cif.g08.bks.cpg/sg15_117_cif.got.tgz:232594.got - 2010.06.03 18:47:42.
