data_PCOD9269187
_publ_section_title
;
Structure prediction by ZEFSAII (Michael W. Deem and Ramdas Pophale) SiO2 
 PCOD9269187
Probable space group: C 2/C
;
_chemical_formula_sum "Si O2"
_cell_formula_units_Z 64
_cell_length_a 9.547985
_cell_length_b 21.171611
_cell_length_c 15.180961
_cell_angle_alpha 90.000000
_cell_angle_beta 90.000000
_cell_angle_gamma 90.000000
_cell_volume 3068.773947
_symmetry_space_group_name_H-M "C 2/C"
_symmetry_group_IT_number 15
_symmetry_cell_setting 'monoclinic'
loop_
_space_group_symop_operation_xyz
x,y,z
-x,y,1/2-z
-x,-y,-z
x,-y,1/2+z
1/2+x,1/2+y,z
1/2-x,1/2+y,1/2-z
1/2-x,1/2-y,-z
1/2+x,1/2-y,1/2+z
loop_
_atom_site_type_symbol
_atom_site_label
_atom_site_fract_x
_atom_site_fract_y
_atom_site_fract_z
Si Si1 0.159818 0.547433 0.356012
Si Si2 0.159564 0.310350 0.604769
Si Si3 0.840815 0.693050 0.606863
Si Si4 0.840436 0.310350 0.604769
Si Si5 0.340815 0.193050 0.893137
Si Si6 0.158122 0.930435 0.355666
Si Si7 0.841878 0.069565 0.855666
Si Si8 0.340182 0.047433 0.356012
O O1 0.208083 0.618412 0.376605
O O2 0.260338 0.492235 0.389444
O O3 0.153748 0.541982 0.250000
O O4 0.000000 0.540342 0.389720
O O5 0.152363 0.303057 0.499298
O O6 0.261178 0.255785 0.639058
O O7 0.208083 0.381588 0.623395
O O8 1.000000 0.303777 0.639192
O O9 0.749803 0.631556 0.627632
O O10 1.000000 0.687881 0.639810
O O11 0.738822 0.255785 0.639058
O O12 0.847637 0.303057 0.499298
O O13 0.249803 0.131556 0.872368
O O14 0.148032 0.937115 0.250000
O O15 0.000000 0.924569 0.390955
O O16 0.239662 0.992235 0.389444
#
# Coordination Sequence:
#
# PCOD9269187 Si02
#       8
#     8   8   8   8   8   8   8   8
#     4   9  18  34  55  76 100 132 169 208 251 302
#     4   9  19  35  53  76 106 137 170 209 254 302
#     4  10  20  34  53  76 104 137 172 211 252 300
#     4   9  19  35  53  76 106 137 170 209 254 302
#     4  10  20  34  53  76 104 137 172 211 252 300
#     4  10  21  36  53  74 102 134 169 212 258 304
#     4  10  21  36  53  74 102 134 169 212 258 304
#     4   9  18  34  55  76 100 132 169 208 251 302
#
# _framework density 20.855235
#
# number of rings (size 3 to 8) (size 9 to 14) (size 15 to 20)
#    0.000    2.500    0.000    1.500    0.000    5.500 
#    0.000    7.500    0.000    0.000    0.000    0.000 
#    0.000    0.000    0.000    0.000    0.000    0.000 
#
# Total GULP energy -178683.337742 kJ/mol
# GULP energy per Si atom -5583.854304 kJ/mol
# Density = 2.080777 g / cm^3
# Si number density = 20.855235 Si / 1000 Ang^3
#
#
#
# Elastic Constant Matrix: (Units=GPa)
#
#
# Indices 1 2 3 4 5 6 
#
# 1 177.8897 152.4760 4.1377 0.0000 0.0000 0.0000
# 2 152.4760 225.5667 -2.7235 0.0000 0.0000 0.0000
# 3 4.1377 -2.7235 31.8985 0.0000 0.0000 0.0000
# 4 0.0000 0.0000 0.0000 28.7412 0.0000 0.0000
# 5 0.0000 0.0000 0.0000 0.0000 13.7232 0.0000
# 6 0.0000 0.0000 0.0000 0.0000 0.0000 41.3281
#
#
#
# Elastic Compliance Matrix: (Units=1/GPa)
#
#
# Indices 1 2 3 4 5 6 
#
# 1 0.013569 -0.009203 -0.002546 0.000000 0.000000 0.000000
# 2 -0.009203 0.010679 0.002106 0.000000 0.000000 0.000000
# 3 -0.002546 0.002106 0.031859 0.000000 0.000000 0.000000
# 4 0.000000 0.000000 0.000000 0.034793 0.000000 0.000000
# 5 0.000000 0.000000 0.000000 0.000000 0.072869 0.000000
# 6 0.000000 0.000000 0.000000 0.000000 0.000000 0.024197
#
#
# Mechanical properties :
#
#
# Convention : Reuss Voigt Hill
#
# Bulk Modulus (GPa) = 27.15794 82.57059 54.86426
# Shear Modulus (GPa) = 22.77626 35.52280 29.14953
#
# Velocity S-wave (km/s) = 3.30830 4.13159 3.74265
# Velocity P-wave (km/s) = 5.25771 7.90179 6.71125
#
# Compressibility (1/GPa) = 0.03682165
#
# Stress axis : x y z
#
# Youngs Moduli (GPa) = 73.69908 93.63768 31.38783
#
# Poissons Ratio (x) = 0.86172 0.07991
# Poissons Ratio (y) = 0.67823 -0.06609
# Poissons Ratio (z) = 0.18762 -0.19716
#
# Static dielectric constant tensor:
#      x y z
#    x 1.752920 0.000000 0.000000 
#    y 0.000000 1.709070 0.000000 
#    z 0.000000 0.000000 1.780570 
# 
# From -- ./inp_files/192161.got.cif
#   From: 2010.05.17/outbox.cif.g08.bks.cpg/sg15_97_cif.got.tgz:192161.got - 2010.06.03 18:47:42.
