data_PCOD9269311
_publ_section_title
;
Structure prediction by ZEFSAII (Michael W. Deem and Ramdas Pophale) SiO2 
 PCOD9269311
Probable space group: C 2/C
;
_chemical_formula_sum "Si O2"
_cell_formula_units_Z 44
_cell_length_a 24.636774
_cell_length_b 15.070032
_cell_length_c 8.793784
_cell_angle_alpha 90.000000
_cell_angle_beta 49.905525
_cell_angle_gamma 90.000000
_cell_volume 2497.617229
_symmetry_space_group_name_H-M "C 2/C"
_symmetry_group_IT_number 15
_symmetry_cell_setting 'monoclinic'
loop_
_space_group_symop_operation_xyz
x,y,z
-x,y,1/2-z
-x,-y,-z
x,-y,1/2+z
1/2+x,1/2+y,z
1/2-x,1/2+y,1/2-z
1/2-x,1/2-y,-z
1/2+x,1/2-y,1/2+z
loop_
_atom_site_type_symbol
_atom_site_label
_atom_site_fract_x
_atom_site_fract_y
_atom_site_fract_z
Si Si1 0.921712 0.761991 0.956696
Si Si2 0.000000 0.510005 0.250000
Si Si3 0.248900 0.553526 0.144088
Si Si4 0.910511 0.404370 0.661135
Si Si5 0.778653 0.717814 0.108272
Si Si6 0.694553 0.612495 0.774248
O O1 0.000000 0.764073 0.750000
O O2 0.914386 0.700499 0.119508
O O3 0.864767 0.714155 0.946814
O O4 0.886470 0.858035 0.046836
O O5 0.058068 0.568431 0.233678
O O6 0.960831 0.448953 0.443511
O O7 0.168204 0.557891 0.226193
O O8 0.250990 0.626186 0.275248
O O9 0.274668 0.461285 0.167897
O O10 0.295041 0.582449 0.916359
O O11 0.765521 0.794864 0.257741
O O12 0.750000 0.750000 0.000000
#
# Coordination Sequence:
#
# PCOD9269311 Si02
#       6
#     8   4   8   8   8   8
#     4   9  20  40  58  82 122 157 192 243 301 348
#     4  10  20  34  54  90 114 162 188 230 312 360
#     4  11  20  38  59  88 118 154 198 250 297 345
#     4  10  20  35  56  84 125 149 191 242 294 365
#     4   9  20  36  61  88 113 155 196 243 295 352
#     4  10  22  36  63  83 117 155 195 250 295 348
#
# _framework density 17.616790999999999
#
# number of rings (size 3 to 8) (size 9 to 14) (size 15 to 20)
#    1.091    1.091    0.909    2.727    0.000    1.455 
#    3.273    0.909    0.000    0.000    0.000    0.000 
#    0.000    0.000    0.000    0.000    0.000    0.000 
#
# Total GULP energy -122500.837202 kJ/mol
# GULP energy per Si atom -5568.219873 kJ/mol
# Density = 1.757669 g / cm^3
# Si number density = 17.616791 Si / 1000 Ang^3
#
#
#
# Elastic Constant Matrix: (Units=GPa)
#
#
# Indices 1 2 3 4 5 6 
#
# 1 75.7121 35.1688 24.3143 0.0000 5.2140 0.0000
# 2 35.1688 91.6837 13.8074 0.0000 -13.3965 0.0000
# 3 24.3143 13.8074 54.1035 0.0000 -13.5244 0.0000
# 4 0.0000 0.0000 0.0000 17.8627 0.0000 -2.4973
# 5 5.2140 -13.3965 -13.5244 0.0000 26.4586 0.0000
# 6 0.0000 0.0000 0.0000 -2.4973 0.0000 26.5913
#
#
#
# Elastic Compliance Matrix: (Units=1/GPa)
#
#
# Indices 1 2 3 4 5 6 
#
# 1 0.021922 -0.008842 -0.011229 0.000000 -0.014537 0.000000
# 2 -0.008842 0.015489 0.002771 0.000000 0.011001 0.000000
# 3 -0.011229 0.002771 0.027202 0.000000 0.017520 0.000000
# 4 0.000000 0.000000 0.000000 0.056728 0.000000 0.005328
# 5 -0.014537 0.011001 0.017520 0.000000 0.055185 0.000000
# 6 0.000000 0.000000 0.000000 0.005328 0.000000 0.038107
#
#
# Mechanical properties :
#
#
# Convention : Reuss Voigt Hill
#
# Bulk Modulus (GPa) = 33.31977 40.89781 37.10879
# Shear Modulus (GPa) = 19.28726 24.06309 21.67517
#
# Velocity S-wave (km/s) = 3.31240 3.69984 3.51147
# Velocity P-wave (km/s) = 5.79517 6.44340 6.12786
#
# Compressibility (1/GPa) = 0.03001221
#
# Stress axis : x y z
#
# Youngs Moduli (GPa) = 45.61525 64.56195 36.76192
#
# Poissons Ratio (x) = 0.57087 0.41281
# Poissons Ratio (y) = 0.40334 -0.10186
# Poissons Ratio (z) = 0.51223 -0.17889
#
# Static dielectric constant tensor:
#      x y z
#    x 1.628780 0.000000 -0.000930 
#    y 0.000000 1.629530 0.000000 
#    z -0.000930 0.000000 1.599760 
# 
# From -- ./inp_files/54949.got.cif
#   From: 2010.05.17/outbox.cif.g08.bks.cpg/sg15_28_cif.got.tgz:54949.got - 2010.06.03 18:47:42.
