data_PCOD9269599
_publ_section_title
;
Structure prediction by ZEFSAII (Michael W. Deem and Ramdas Pophale) SiO2 
 PCOD9269599
Probable space group: C 2/C
;
_chemical_formula_sum "Si O2"
_cell_formula_units_Z 52
_cell_length_a 24.313145
_cell_length_b 23.457008
_cell_length_c 12.938806
_cell_angle_alpha 90.000000
_cell_angle_beta 160.816308
_cell_angle_gamma 90.000000
_cell_volume 2424.781768
_symmetry_space_group_name_H-M "C 2/C"
_symmetry_group_IT_number 15
_symmetry_cell_setting 'monoclinic'
loop_
_space_group_symop_operation_xyz
x,y,z
-x,y,1/2-z
-x,-y,-z
x,-y,1/2+z
1/2+x,1/2+y,z
1/2-x,1/2+y,1/2-z
1/2-x,1/2-y,-z
1/2+x,1/2-y,1/2+z
loop_
_atom_site_type_symbol
_atom_site_label
_atom_site_fract_x
_atom_site_fract_y
_atom_site_fract_z
Si Si1 0.672393 0.279247 0.758810
Si Si2 0.078852 0.837470 0.052140
Si Si3 0.382514 0.202204 0.197006
Si Si4 0.414473 0.919167 0.816299
Si Si5 0.631884 0.998640 0.076804
Si Si6 0.616417 0.461529 0.134512
Si Si7 0.500000 0.760821 0.250000
O O1 0.539817 0.326847 0.558351
O O2 0.558327 0.233381 0.495389
O O3 0.750000 0.250000 0.000000
O O4 0.833729 0.296138 0.979273
O O5 0.278059 0.828605 0.421823
O O6 0.042379 0.902293 0.958940
O O7 0.034222 0.784383 0.901500
O O8 0.413560 0.148818 0.327817
O O9 0.250000 0.250000 0.000000
O O10 0.389916 0.950738 0.880769
O O11 0.264020 0.940520 0.474650
O O12 0.580322 0.942253 0.051636
O O13 0.806126 0.993872 0.326148
O O14 0.500000 0.004705 0.750000
O O15 0.500000 0.500000 0.000000
#
# Coordination Sequence:
#
# PCOD9269599 Si02
#       7
#     8   8   8   8   8   8   4
#     4   9  19  37  54  84 116 144 194 245 298 362
#     4   9  20  37  57  86 114 153 202 244 302 364
#     4   9  18  36  63  84 117 158 198 248 311 368
#     4   9  19  37  62  87 122 156 200 261 300 374
#     4   9  19  37  57  88 119 156 205 242 310 359
#     4  10  21  37  57  87 120 155 201 247 299 364
#     4  10  20  34  58  86 114 150 196 246 304 358
#
# _framework density 21.445229000000001
#
# number of rings (size 3 to 8) (size 9 to 14) (size 15 to 20)
#    0.000    2.769    0.000    0.000    2.154    2.462 
#   13.846    4.615    6.769   12.923    0.000    0.000 
#    0.000    0.000    0.000    0.000    0.000    0.000 
#
# Total GULP energy -144767.657933 kJ/mol
# GULP energy per Si atom -5567.986844 kJ/mol
# Density = 2.139642 g / cm^3
# Si number density = 21.445229 Si / 1000 Ang^3
#
#
#
# Elastic Constant Matrix: (Units=GPa)
#
#
# Indices 1 2 3 4 5 6 
#
# 1 106.4274 25.3478 26.7878 0.0000 25.3366 0.0000
# 2 25.3478 55.7145 4.8580 0.0000 4.8568 0.0000
# 3 26.7878 4.8580 79.1907 0.0000 25.2300 0.0000
# 4 0.0000 0.0000 0.0000 14.8837 0.0000 -3.3810
# 5 25.3366 4.8568 25.2300 0.0000 34.2379 0.0000
# 6 0.0000 0.0000 0.0000 -3.3810 0.0000 13.7454
#
#
#
# Elastic Compliance Matrix: (Units=1/GPa)
#
#
# Indices 1 2 3 4 5 6 
#
# 1 0.012801 -0.005023 -0.001609 0.000000 -0.007575 0.000000
# 2 -0.005023 0.020153 0.000247 0.000000 0.000676 0.000000
# 3 -0.001609 0.000247 0.016712 0.000000 -0.011160 0.000000
# 4 0.000000 0.000000 0.000000 0.071164 0.000000 0.017505
# 5 -0.007575 0.000676 -0.011160 0.000000 0.042941 0.000000
# 6 0.000000 0.000000 0.000000 0.017505 0.000000 0.077057
#
#
# Mechanical properties :
#
#
# Convention : Reuss Voigt Hill
#
# Bulk Modulus (GPa) = 27.10192 39.47996 33.29094
# Shear Modulus (GPa) = 18.80434 24.86269 21.83351
#
# Velocity S-wave (km/s) = 2.96439 3.40863 3.19424
# Velocity P-wave (km/s) = 4.93781 5.82592 5.40015
#
# Compressibility (1/GPa) = 0.03689776
#
# Stress axis : x y z
#
# Youngs Moduli (GPa) = 78.12140 49.61925 59.83633
#
# Poissons Ratio (x) = 0.24925 0.09625
# Poissons Ratio (y) = 0.39242 -0.01481
# Poissons Ratio (z) = 0.12567 -0.01228
#
# Static dielectric constant tensor:
#      x y z
#    x 2.131240 0.000000 0.089250 
#    y 0.000000 1.816100 0.000000 
#    z 0.089250 0.000000 1.887680 
# 
# From -- ./inp_files/138193.got.cif
#   From: 2010.05.17/outbox.cif.g08.bks.cpg/sg15_70_cif.got.tgz:138193.got - 2010.06.03 18:47:42.
