data_PCOD9269275
_publ_section_title
;
Structure prediction by ZEFSAII (Michael W. Deem and Ramdas Pophale) SiO2 
 PCOD9269275
Probable space group: C 2/C
;
_chemical_formula_sum "Si O2"
_cell_formula_units_Z 40
_cell_length_a 15.913991
_cell_length_b 7.391900
_cell_length_c 16.996433
_cell_angle_alpha 90.000000
_cell_angle_beta 130.477077
_cell_angle_gamma 90.000000
_cell_volume 1520.851577
_symmetry_space_group_name_H-M "C 2/C"
_symmetry_group_IT_number 15
_symmetry_cell_setting 'monoclinic'
loop_
_space_group_symop_operation_xyz
x,y,z
-x,y,1/2-z
-x,-y,-z
x,-y,1/2+z
1/2+x,1/2+y,z
1/2-x,1/2+y,1/2-z
1/2-x,1/2-y,-z
1/2+x,1/2-y,1/2+z
loop_
_atom_site_type_symbol
_atom_site_label
_atom_site_fract_x
_atom_site_fract_y
_atom_site_fract_z
Si Si1 0.524606 0.351441 0.675013
Si Si2 0.309365 0.323276 0.457198
Si Si3 0.487895 0.908531 0.831874
Si Si4 0.377767 0.060724 0.949767
Si Si5 0.755814 0.478535 0.741224
O O1 0.500000 0.408940 0.750000
O O2 0.425478 0.404095 0.556217
O O3 0.513913 0.130410 0.670754
O O4 0.638353 0.428758 0.709594
O O5 0.250000 0.250000 0.500000
O O6 0.318589 0.128675 0.423754
O O7 0.260963 0.447610 0.358712
O O8 0.500000 0.846301 0.750000
O O9 0.369493 0.860691 0.796991
O O10 0.593264 0.849084 0.949305
O O11 0.307812 0.133375 0.834534
O O12 0.500000 0.000000 0.000000
#
# Coordination Sequence:
#
# PCOD9269275 Si02
#       5
#     8   8   8   8   8
#     4  10  20  34  54  83 115 148 188 233 284 336
#     4  11  21  36  58  84 110 146 193 236 277 336
#     4   9  18  34  56  81 109 149 197 232 271 338
#     4   9  19  33  52  80 109 140 179 226 280 332
#     4  11  19  31  54  84 115 145 184 243 286 320
#
# _framework density 26.301054000000001
#
# number of rings (size 3 to 8) (size 9 to 14) (size 15 to 20)
#    0.000    2.000    0.000    6.600    0.000    0.000 
#    0.000    0.000    0.000   15.600    0.000   71.400 
#    0.000    0.000    0.000    0.000    0.000    0.000 
#
# Total GULP energy -111441.524849 kJ/mol
# GULP energy per Si atom -5572.076242 kJ/mol
# Density = 2.624119 g / cm^3
# Si number density = 26.301054 Si / 1000 Ang^3
#
#
#
# Elastic Constant Matrix: (Units=GPa)
#
#
# Indices 1 2 3 4 5 6 
#
# 1 177.3048 12.2896 74.8085 0.0000 -18.2791 0.0000
# 2 12.2896 56.9194 -2.1419 0.0000 2.7564 0.0000
# 3 74.8085 -2.1419 280.8419 0.0000 0.0226 0.0000
# 4 0.0000 0.0000 0.0000 29.7068 0.0000 5.3320
# 5 -18.2791 2.7564 0.0226 0.0000 56.6517 0.0000
# 6 0.0000 0.0000 0.0000 5.3320 0.0000 34.3014
#
#
#
# Elastic Compliance Matrix: (Units=1/GPa)
#
#
# Indices 1 2 3 4 5 6 
#
# 1 0.006750 -0.001635 -0.001811 0.000000 0.002258 0.000000
# 2 -0.001635 0.018011 0.000573 0.000000 -0.001404 0.000000
# 3 -0.001811 0.000573 0.004047 0.000000 -0.000614 0.000000
# 4 0.000000 0.000000 0.000000 0.034629 0.000000 -0.005383
# 5 0.002258 -0.001404 -0.000614 0.000000 0.018449 0.000000
# 6 0.000000 0.000000 0.000000 -0.005383 0.000000 0.029990
#
#
# Mechanical properties :
#
#
# Convention : Reuss Voigt Hill
#
# Bulk Modulus (GPa) = 43.35850 76.10874 59.73362
# Shear Modulus (GPa) = 39.90124 52.80597 46.35360
#
# Velocity S-wave (km/s) = 3.89922 4.48565 4.20268
# Velocity P-wave (km/s) = 6.06573 7.47185 6.80520
#
# Compressibility (1/GPa) = 0.02306353
#
# Stress axis : x y z
#
# Youngs Moduli (GPa) = 148.14579 55.52085 247.06857
#
# Poissons Ratio (x) = 0.09077 0.44737
# Poissons Ratio (y) = 0.24221 -0.14156
# Poissons Ratio (z) = 0.26825 -0.03181
#
# Static dielectric constant tensor:
#      x y z
#    x 2.068870 0.000000 -0.065340 
#    y 0.000000 2.127620 0.000000 
#    z -0.065340 0.000000 2.261440 
# 
# From -- ./inp_files/177426.got.cif
#   From: 2010.05.17/outbox.cif.g08.bks.cpg/sg15_89_cif.got.tgz:177426.got - 2010.06.03 18:47:42.
