data_PCOD9269643
_publ_section_title
;
Structure prediction by ZEFSAII (Michael W. Deem and Ramdas Pophale) SiO2 
 PCOD9269643
Probable space group: C 2/C
;
_chemical_formula_sum "Si O2"
_cell_formula_units_Z 44
_cell_length_a 5.258833
_cell_length_b 23.745580
_cell_length_c 18.565127
_cell_angle_alpha 90.000000
_cell_angle_beta 51.231822
_cell_angle_gamma 90.000000
_cell_volume 1807.547604
_symmetry_space_group_name_H-M "C 2/C"
_symmetry_group_IT_number 15
_symmetry_cell_setting 'monoclinic'
loop_
_space_group_symop_operation_xyz
x,y,z
-x,y,1/2-z
-x,-y,-z
x,-y,1/2+z
1/2+x,1/2+y,z
1/2-x,1/2+y,1/2-z
1/2-x,1/2-y,-z
1/2+x,1/2-y,1/2+z
loop_
_atom_site_type_symbol
_atom_site_label
_atom_site_fract_x
_atom_site_fract_y
_atom_site_fract_z
Si Si1 0.937197 0.188007 0.541720
Si Si2 0.109145 0.875501 0.309984
Si Si3 0.893866 0.992737 0.688110
Si Si4 0.500000 0.829997 0.750000
Si Si5 0.893172 0.888100 0.921531
Si Si6 0.637758 0.792610 0.869678
O O1 0.244321 0.213302 0.444885
O O2 0.040688 0.159693 0.598459
O O3 0.798704 0.138513 0.515221
O O4 0.730380 0.241903 0.603958
O O5 0.500000 0.869959 0.250000
O O6 0.000000 0.857124 0.250000
O O7 0.022597 0.941346 0.333866
O O8 0.500000 0.988451 0.750000
O O9 0.000000 0.974444 0.750000
O O10 0.092128 0.954251 0.596204
O O11 0.698082 0.794418 0.773667
O O12 0.737261 0.869516 0.662655
O O13 0.704732 0.852639 0.894410
#
# Coordination Sequence:
#
# PCOD9269643 Si02
#       6
#     8   8   8   4   8   8
#     4  10  24  40  59  90 127 167 214 268 318 384
#     4  10  24  44  67  93 127 174 220 264 325 387
#     4  10  21  40  66  96 128 165 215 270 317 382
#     4  10  20  34  58  92 112 164 206 250 320 378
#     4  11  21  37  63  90 127 160 212 262 325 377
#     4  10  22  39  59  89 129 164 213 266 318 381
#
# _framework density 24.342372000000001
#
# number of rings (size 3 to 8) (size 9 to 14) (size 15 to 20)
#    0.000    1.818    0.909    2.182    6.364    2.182 
#    0.000    0.909    0.000    0.000    0.000    0.000 
#    0.000    0.000    0.000    0.000    0.000    0.000 
#
# Total GULP energy -122887.354075 kJ/mol
# GULP energy per Si atom -5585.788822 kJ/mol
# Density = 2.428697 g / cm^3
# Si number density = 24.342372 Si / 1000 Ang^3
#
#
#
# Elastic Constant Matrix: (Units=GPa)
#
#
# Indices 1 2 3 4 5 6 
#
# 1 104.7847 10.9505 15.6011 0.0000 37.1450 0.0000
# 2 10.9505 85.2488 40.4753 0.0000 8.6413 0.0000
# 3 15.6011 40.4753 82.5771 0.0000 33.4329 0.0000
# 4 0.0000 0.0000 0.0000 35.6275 0.0000 5.7878
# 5 37.1450 8.6413 33.4329 0.0000 37.6762 0.0000
# 6 0.0000 0.0000 0.0000 5.7878 0.0000 15.3229
#
#
#
# Elastic Compliance Matrix: (Units=1/GPa)
#
#
# Indices 1 2 3 4 5 6 
#
# 1 0.016750 -0.003513 0.007674 0.000000 -0.022518 0.000000
# 2 -0.003513 0.016629 -0.011463 0.000000 0.009822 0.000000
# 3 0.007674 -0.011463 0.028526 0.000000 -0.030250 0.000000
# 4 0.000000 0.000000 0.000000 0.029903 0.000000 -0.011295
# 5 -0.022518 0.009822 -0.030250 0.000000 0.073333 0.000000
# 6 0.000000 0.000000 0.000000 -0.011295 0.000000 0.069528
#
#
# Mechanical properties :
#
#
# Convention : Reuss Voigt Hill
#
# Bulk Modulus (GPa) = 21.14099 45.18492 33.16295
# Shear Modulus (GPa) = 18.86502 31.43091 25.14796
#
# Velocity S-wave (km/s) = 2.78688 3.59723 3.21767
# Velocity P-wave (km/s) = 4.36570 5.98798 5.24000
#
# Compressibility (1/GPa) = 0.04730148
#
# Stress axis : x y z
#
# Youngs Moduli (GPa) = 59.70003 60.13694 35.05557
#
# Poissons Ratio (x) = 0.21124 -0.26902
# Poissons Ratio (y) = 0.20971 0.40185
# Poissons Ratio (z) = -0.45815 0.68937
#
# Static dielectric constant tensor:
#      x y z
#    x 2.032510 0.000000 -0.050630 
#    y 0.000000 1.981300 0.000000 
#    z -0.050630 0.000000 2.012110 
# 
# From -- ./inp_files/129333.got.cif
#   From: 2010.05.17/outbox.cif.g08.bks.cpg/sg15_65_cif.got.tgz:129333.got - 2010.06.03 18:47:42.
