data_PCOD9269452
_publ_section_title
;
Structure prediction by ZEFSAII (Michael W. Deem and Ramdas Pophale) SiO2 
 PCOD9269452
Probable space group: C 2/C
;
_chemical_formula_sum "Si O2"
_cell_formula_units_Z 44
_cell_length_a 14.272065
_cell_length_b 4.939823
_cell_length_c 22.868678
_cell_angle_alpha 90.000000
_cell_angle_beta 90.713044
_cell_angle_gamma 90.000000
_cell_volume 1612.150678
_symmetry_space_group_name_H-M "C 2/C"
_symmetry_group_IT_number 15
_symmetry_cell_setting 'monoclinic'
loop_
_space_group_symop_operation_xyz
x,y,z
-x,y,1/2-z
-x,-y,-z
x,-y,1/2+z
1/2+x,1/2+y,z
1/2-x,1/2+y,1/2-z
1/2-x,1/2-y,-z
1/2+x,1/2-y,1/2+z
loop_
_atom_site_type_symbol
_atom_site_label
_atom_site_fract_x
_atom_site_fract_y
_atom_site_fract_z
Si Si1 0.500000 0.000000 0.500000
Si Si2 0.508606 0.341679 0.117543
Si Si3 0.862485 0.150106 0.782535
Si Si4 0.349679 0.398959 0.553133
Si Si5 0.695847 0.434722 0.563202
Si Si6 0.746701 0.146161 0.675093
O O1 0.498450 0.095317 0.428213
O O2 0.421382 0.221802 0.514340
O O3 0.540589 0.286080 0.184249
O O4 0.413639 0.510212 0.107587
O O5 0.597308 0.512185 0.094018
O O6 0.838193 0.203613 0.714817
O O7 0.788008 0.342501 0.815760
O O8 0.831140 0.842030 0.795273
O O9 0.332479 0.636565 0.503869
O O10 0.262370 0.197910 0.561850
O O11 0.745751 0.221182 0.606656
#
# Coordination Sequence:
#
# PCOD9269452 Si02
#       6
#     4   8   8   8   8   8
#     4  10  20  34  56  86 116 162 200 252 316 382
#     4  10  21  35  58  87 124 164 209 263 325 388
#     4   9  19  33  62  90 121 157 221 259 321 379
#     4  10  21  38  55  94 125 165 209 264 323 391
#     4   9  19  38  60  86 129 162 213 259 325 385
#     4   9  18  36  58  95 116 163 214 270 307 393
#
# _framework density 27.292735
#
# number of rings (size 3 to 8) (size 9 to 14) (size 15 to 20)
#    0.000    2.545    0.000    2.182    7.636    0.000 
#    6.545    5.455    0.000    1.091   28.364    0.000 
#    0.000    0.000    0.000    0.000    0.000    0.000 
#
# Total GULP energy -122575.940147 kJ/mol
# GULP energy per Si atom -5571.633643 kJ/mol
# Density = 2.723062 g / cm^3
# Si number density = 27.292735 Si / 1000 Ang^3
#
#
#
# Elastic Constant Matrix: (Units=GPa)
#
#
# Indices 1 2 3 4 5 6 
#
# 1 137.0587 3.1627 43.5490 0.0000 48.9160 0.0000
# 2 3.1627 58.1588 23.3505 0.0000 14.6989 0.0000
# 3 43.5490 23.3505 233.2266 0.0000 42.3087 0.0000
# 4 0.0000 0.0000 0.0000 39.4020 0.0000 15.3807
# 5 48.9160 14.6989 42.3087 0.0000 55.5090 0.0000
# 6 0.0000 0.0000 0.0000 15.3807 0.0000 26.8610
#
#
#
# Elastic Compliance Matrix: (Units=1/GPa)
#
#
# Indices 1 2 3 4 5 6 
#
# 1 0.010890 0.002069 -0.000465 0.000000 -0.009791 0.000000
# 2 0.002069 0.019073 -0.001217 0.000000 -0.005946 0.000000
# 3 -0.000465 -0.001217 0.005064 0.000000 -0.003128 0.000000
# 4 0.000000 0.000000 0.000000 0.032685 0.000000 -0.018716
# 5 -0.009791 -0.005946 -0.003128 0.000000 0.030601 0.000000
# 6 0.000000 0.000000 0.000000 -0.018716 0.000000 0.047945
#
#
# Mechanical properties :
#
#
# Convention : Reuss Voigt Hill
#
# Bulk Modulus (GPa) = 27.93214 63.17427 45.55320
# Shear Modulus (GPa) = 31.76241 48.24652 40.00446
#
# Velocity S-wave (km/s) = 3.41511 4.20901 3.83267
# Velocity P-wave (km/s) = 5.08007 6.84238 6.02600
#
# Compressibility (1/GPa) = 0.03580106
#
# Stress axis : x y z
#
# Youngs Moduli (GPa) = 91.82541 52.42935 197.48430
#
# Poissons Ratio (x) = -0.10846 0.09174
# Poissons Ratio (y) = -0.18996 0.24039
# Poissons Ratio (z) = 0.04266 0.06382
#
# Static dielectric constant tensor:
#      x y z
#    x 2.685740 0.000000 -0.272010 
#    y 0.000000 2.153220 0.000000 
#    z -0.272010 0.000000 2.346140 
# 
# From -- ./inp_files/311930.got.cif
#   From: 2010.05.17/outbox.cif.g08.bks.cpg/sg15_156_cif.got.tgz:311930.got - 2010.06.03 18:47:42.
