data_PCOD9269651
_publ_section_title
;
Structure prediction by ZEFSAII (Michael W. Deem and Ramdas Pophale) SiO2 
 PCOD9269651
Probable space group: C 2/C
;
_chemical_formula_sum "Si O2"
_cell_formula_units_Z 40
_cell_length_a 15.562650
_cell_length_b 16.844543
_cell_length_c 9.099448
_cell_angle_alpha 90.000000
_cell_angle_beta 63.805862
_cell_angle_gamma 90.000000
_cell_volume 2140.411176
_symmetry_space_group_name_H-M "C 2/C"
_symmetry_group_IT_number 15
_symmetry_cell_setting 'monoclinic'
loop_
_space_group_symop_operation_xyz
x,y,z
-x,y,1/2-z
-x,-y,-z
x,-y,1/2+z
1/2+x,1/2+y,z
1/2-x,1/2+y,1/2-z
1/2-x,1/2-y,-z
1/2+x,1/2-y,1/2+z
loop_
_atom_site_type_symbol
_atom_site_label
_atom_site_fract_x
_atom_site_fract_y
_atom_site_fract_z
Si Si1 0.500000 0.985151 0.250000
Si Si2 0.088937 0.766462 0.071393
Si Si3 0.384618 0.091235 0.570800
Si Si4 0.471406 0.356383 0.928906
Si Si5 0.500000 0.512864 0.750000
Si Si6 0.170500 0.874535 0.232431
O O1 0.560584 0.933597 0.321536
O O2 0.430290 0.039808 0.403256
O O3 0.171050 0.805463 0.109356
O O4 0.000000 0.754587 0.250000
O O5 0.104883 0.683746 0.978506
O O6 0.053803 0.830641 0.978698
O O7 0.270514 0.081205 0.673131
O O8 0.500000 0.319405 0.750000
O O9 0.467608 0.449994 0.897968
O O10 0.371351 0.337484 0.084590
O O11 0.412335 0.566106 0.762184
#
# Coordination Sequence:
#
# PCOD9269651 Si02
#       6
#     4   8   8   8   4   8
#     4  10  26  44  62  86 116 164 206 264 296 332
#     4  10  20  40  62  86 124 162 194 246 307 358
#     4  11  24  43  64  86 119 161 211 250 297 358
#     4   9  21  34  59  91 124 158 184 245 305 348
#     4  10  20  34  58  92 130 144 188 246 296 366
#     4  11  21  37  64  92 121 163 194 237 311 366
#
# _framework density 18.687998
#
# number of rings (size 3 to 8) (size 9 to 14) (size 15 to 20)
#    0.600    1.200    4.000    1.200    4.200    0.000 
#    0.000    1.000    0.000    0.000    0.000    0.000 
#    0.000    0.000    0.000    0.000    0.000    0.000 
#
# Total GULP energy -111364.356477 kJ/mol
# GULP energy per Si atom -5568.217824 kJ/mol
# Density = 1.864546 g / cm^3
# Si number density = 18.687998 Si / 1000 Ang^3
#
#
#
# Elastic Constant Matrix: (Units=GPa)
#
#
# Indices 1 2 3 4 5 6 
#
# 1 125.2469 39.8917 71.0155 0.0000 -3.8021 0.0000
# 2 39.8917 78.7750 27.9892 0.0000 8.8288 0.0000
# 3 71.0155 27.9892 128.4052 0.0000 17.2925 0.0000
# 4 0.0000 0.0000 0.0000 21.6582 0.0000 -0.9476
# 5 -3.8021 8.8288 17.2925 0.0000 28.6777 0.0000
# 6 0.0000 0.0000 0.0000 -0.9476 0.0000 20.3082
#
#
#
# Elastic Compliance Matrix: (Units=1/GPa)
#
#
# Indices 1 2 3 4 5 6 
#
# 1 0.014484 -0.005450 -0.007953 0.000000 0.008394 0.000000
# 2 -0.005450 0.015997 0.000313 0.000000 -0.005836 0.000000
# 3 -0.007953 0.000313 0.013358 0.000000 -0.009206 0.000000
# 4 0.000000 0.000000 0.000000 0.046266 0.000000 0.002159
# 5 0.008394 -0.005836 -0.009206 0.000000 0.043331 0.000000
# 6 0.000000 0.000000 0.000000 0.002159 0.000000 0.049342
#
#
# Mechanical properties :
#
#
# Convention : Reuss Voigt Hill
#
# Bulk Modulus (GPa) = 56.62688 67.80221 62.21455
# Shear Modulus (GPa) = 23.27263 27.03086 25.15174
#
# Velocity S-wave (km/s) = 3.53274 3.80732 3.67260
# Velocity P-wave (km/s) = 6.85619 7.46241 7.16571
#
# Compressibility (1/GPa) = 0.01765946
#
# Stress axis : x y z
#
# Youngs Moduli (GPa) = 69.04025 62.51154 74.86219
#
# Poissons Ratio (x) = 0.34068 0.59539
# Poissons Ratio (y) = 0.37626 -0.02344
# Poissons Ratio (z) = 0.54909 -0.01957
#
# Static dielectric constant tensor:
#      x y z
#    x 1.630730 0.000000 0.012190 
#    y 0.000000 1.648140 0.000000 
#    z 0.012190 0.000000 1.713590 
# 
# From -- ./inp_files/39018.got.cif
#   From: 2010.05.17/outbox.cif.g08.bks.cpg/sg15_20_cif.got.tgz:39018.got - 2010.06.03 18:47:42.
