data_PCOD9269434
_publ_section_title
;
Structure prediction by ZEFSAII (Michael W. Deem and Ramdas Pophale) SiO2 
 PCOD9269434
Probable space group: C 2/C
;
_chemical_formula_sum "Si O2"
_cell_formula_units_Z 48
_cell_length_a 12.017102
_cell_length_b 21.714646
_cell_length_c 8.857426
_cell_angle_alpha 90.000000
_cell_angle_beta 133.485162
_cell_angle_gamma 90.000000
_cell_volume 1676.984094
_symmetry_space_group_name_H-M "C 2/C"
_symmetry_group_IT_number 15
_symmetry_cell_setting 'monoclinic'
loop_
_space_group_symop_operation_xyz
x,y,z
-x,y,1/2-z
-x,-y,-z
x,-y,1/2+z
1/2+x,1/2+y,z
1/2-x,1/2+y,1/2-z
1/2-x,1/2-y,-z
1/2+x,1/2-y,1/2+z
loop_
_atom_site_type_symbol
_atom_site_label
_atom_site_fract_x
_atom_site_fract_y
_atom_site_fract_z
Si Si1 0.854092 0.249898 0.911087
Si Si2 0.000000 0.146194 0.250000
Si Si3 0.000000 0.028670 0.750000
Si Si4 0.500000 0.968162 0.750000
Si Si5 0.595086 0.835303 0.158329
Si Si6 0.249300 0.619306 0.504808
Si Si7 0.000000 0.210236 0.750000
Si Si8 0.253298 0.940565 0.004429
O O1 0.679332 0.230423 0.770826
O O2 0.909265 0.247389 0.790464
O O3 0.926193 0.189496 0.056336
O O4 0.920181 0.315418 0.025057
O O5 0.136051 0.104033 0.307311
O O6 0.874128 0.074352 0.704584
O O7 0.879385 0.985524 0.547373
O O8 0.616704 0.014696 0.945287
O O9 0.371943 0.922117 0.701601
O O10 0.655633 0.895847 0.298095
O O11 0.646414 0.848472 0.035345
O O12 0.366758 0.668707 0.547052
#
# Coordination Sequence:
#
# PCOD9269434 Si02
#       8
#     8   4   4   4   8   8   4   8
#     4  10  22  38  60  85 114 151 192 234 282 334
#     4   9  20  40  60  82 114 156 190 225 282 350
#     4   8  16  36  56  72 108 152 184 222 284 350
#     4  10  20  34  56  84 116 146 188 244 288 326
#     4  10  22  36  54  82 112 150 194 236 280 336
#     4   9  19  35  55  81 112 146 189 234 283 337
#     4   9  20  40  60  82 114 156 190 225 282 350
#     4   9  19  35  55  81 112 146 189 234 283 337
#
# _framework density 28.622812
#
# number of rings (size 3 to 8) (size 9 to 14) (size 15 to 20)
#    0.000    2.667    0.000    0.000    0.000   10.667 
#    0.000   10.000    0.000    0.000    0.000    0.000 
#    0.000    0.000    0.000    0.000    0.000    0.000 
#
# Total GULP energy -133799.642671 kJ/mol
# GULP energy per Si atom -5574.985111 kJ/mol
# Density = 2.855767 g / cm^3
# Si number density = 28.622812 Si / 1000 Ang^3
#
#
#
# Elastic Constant Matrix: (Units=GPa)
#
#
# Indices 1 2 3 4 5 6 
#
# 1 118.5514 50.2947 41.6367 0.0000 35.9674 0.0000
# 2 50.2947 122.5775 62.9620 0.0000 38.5951 0.0000
# 3 41.6367 62.9620 89.4598 0.0000 48.2778 0.0000
# 4 0.0000 0.0000 0.0000 79.1179 0.0000 67.1380
# 5 35.9674 38.5951 48.2778 0.0000 53.2602 0.0000
# 6 0.0000 0.0000 0.0000 67.1380 0.0000 44.3283
#
#
#
# Elastic Compliance Matrix: (Units=1/GPa)
#
#
# Indices 1 2 3 4 5 6 
#
# 1 0.011368 -0.002744 -0.000568 0.000000 -0.005174 0.000000
# 2 -0.002744 0.013569 -0.007765 0.000000 -0.000941 0.000000
# 3 -0.000568 -0.007765 0.026748 0.000000 -0.018236 0.000000
# 4 0.000000 0.000000 0.000000 -0.044313 0.000000 0.067115
# 5 -0.005174 -0.000941 -0.018236 0.000000 0.039483 0.000000
# 6 0.000000 0.000000 0.000000 0.067115 0.000000 -0.079090
#
#
# Mechanical properties :
#
#
# Convention : Reuss Voigt Hill
#
# Bulk Modulus (GPa) = 33.85975 71.15285 52.50630
# Shear Modulus (GPa) = -20927.87665 47.05430 -10440.41118
#
# Velocity S-wave (km/s) = -85.60070 4.05896 -60.46075
# Velocity P-wave (km/s) = 98.78319 6.84687 69.68227
#
# Compressibility (1/GPa) = 0.02953359
#
# Stress axis : x y z
#
# Youngs Moduli (GPa) = 87.96296 73.69969 37.38540
#
# Poissons Ratio (x) = 0.20222 0.02122
# Poissons Ratio (y) = 0.24135 0.29028
# Poissons Ratio (z) = 0.04993 0.57224
#
# Static dielectric constant tensor:
#      x y z
#    x 2.127650 0.000000 -0.023340 
#    y 0.000000 2.303470 0.000000 
#    z -0.023340 0.000000 2.374810 
# 
# From -- ./inp_files/100106.got.cif
#   From: 2010.05.17/outbox.cif.g08.bks.cpg/sg15_51_cif.got.tgz:100106.got - 2010.06.03 18:47:42.
