data_PCOD9269818
_publ_section_title
;
Structure prediction by ZEFSAII (Michael W. Deem and Ramdas Pophale) SiO2 
 PCOD9269818
Probable space group: C 2/C
;
_chemical_formula_sum "Si O2"
_cell_formula_units_Z 60
_cell_length_a 12.927086
_cell_length_b 14.294718
_cell_length_c 14.847878
_cell_angle_alpha 90.000000
_cell_angle_beta 98.881114
_cell_angle_gamma 90.000000
_cell_volume 2710.830206
_symmetry_space_group_name_H-M "C 2/C"
_symmetry_group_IT_number 15
_symmetry_cell_setting 'monoclinic'
loop_
_space_group_symop_operation_xyz
x,y,z
-x,y,1/2-z
-x,-y,-z
x,-y,1/2+z
1/2+x,1/2+y,z
1/2-x,1/2+y,1/2-z
1/2-x,1/2-y,-z
1/2+x,1/2-y,1/2+z
loop_
_atom_site_type_symbol
_atom_site_label
_atom_site_fract_x
_atom_site_fract_y
_atom_site_fract_z
Si Si1 0.405949 0.589383 0.807861
Si Si2 0.500000 0.898462 0.750000
Si Si3 0.853795 0.001752 0.970464
Si Si4 0.802383 0.208823 0.416900
Si Si5 0.909566 0.603437 0.924379
Si Si6 0.118297 0.506464 0.902337
Si Si7 0.179097 0.710110 0.215233
Si Si8 0.219018 0.967027 0.843591
O O1 0.500000 0.610894 0.750000
O O2 0.431097 0.555556 0.912944
O O3 0.333525 0.681055 0.805511
O O4 0.342953 0.505976 0.750478
O O5 0.587681 0.964629 0.803069
O O6 0.437669 0.832442 0.809135
O O7 0.850962 0.891455 0.947128
O O8 0.736678 0.037620 0.926532
O O9 0.851242 0.019347 0.076644
O O10 0.750000 0.250000 0.500000
O O11 0.882603 0.290247 0.399626
O O12 0.720748 0.201290 0.323588
O O13 0.822778 0.532322 0.870506
O O14 0.027488 0.579289 0.913310
O O15 0.896954 0.577513 0.027781
O O16 0.249846 0.640876 0.165733
#
# Coordination Sequence:
#
# PCOD9269818 Si02
#       8
#     8   4   8   8   8   8   8   8
#     4  12  26  45  68  96 133 181 234 276 340 412
#     4  12  18  32  60  96 126 168 232 284 320 390
#     4  11  24  43  67  97 139 181 225 281 352 411
#     4  12  19  37  66  99 128 178 232 267 324 411
#     4  10  20  35  61  97 134 172 219 278 337 401
#     4  10  20  34  61  98 131 164 216 280 346 385
#     4  12  23  38  67  96 128 180 225 278 333 401
#     4  11  22  43  66  96 139 175 220 291 340 399
#
# _framework density 22.133441999999999
#
# number of rings (size 3 to 8) (size 9 to 14) (size 15 to 20)
#    0.000    0.800    8.667    0.000    0.000    1.067 
#    0.000    1.333    1.467    0.000    0.000    0.000 
#    0.000    0.000    0.000    0.000    0.000    0.000 
#
# Total GULP energy -167585.407434 kJ/mol
# GULP energy per Si atom -5586.180248 kJ/mol
# Density = 2.208306 g / cm^3
# Si number density = 22.133442 Si / 1000 Ang^3
#
#
#
# Elastic Constant Matrix: (Units=GPa)
#
#
# Indices 1 2 3 4 5 6 
#
# 1 86.0237 31.1076 3.4069 0.0000 -12.1581 0.0000
# 2 31.1076 127.7673 35.7851 0.0000 -29.4914 0.0000
# 3 3.4069 35.7851 85.1352 0.0000 -20.0469 0.0000
# 4 0.0000 0.0000 0.0000 29.8948 0.0000 -3.5458
# 5 -12.1581 -29.4914 -20.0469 0.0000 27.5412 0.0000
# 6 0.0000 0.0000 0.0000 -3.5458 0.0000 20.7262
#
#
#
# Elastic Compliance Matrix: (Units=1/GPa)
#
#
# Indices 1 2 3 4 5 6 
#
# 1 0.013108 -0.002697 0.001559 0.000000 0.004033 0.000000
# 2 -0.002697 0.011275 -0.002497 0.000000 0.009066 0.000000
# 3 0.001559 -0.002497 0.014803 0.000000 0.008789 0.000000
# 4 0.000000 0.000000 0.000000 0.034143 0.000000 0.005841
# 5 0.004033 0.009066 0.008789 0.000000 0.054195 0.000000
# 6 0.000000 0.000000 0.000000 0.005841 0.000000 0.049247
#
#
# Mechanical properties :
#
#
# Convention : Reuss Voigt Hill
#
# Bulk Modulus (GPa) = 31.33198 48.83615 40.08407
# Shear Modulus (GPa) = 25.68306 30.87422 28.27864
#
# Velocity S-wave (km/s) = 3.41012 3.73891 3.57829
# Velocity P-wave (km/s) = 5.44903 6.38369 5.93479
#
# Compressibility (1/GPa) = 0.03191627
#
# Stress axis : x y z
#
# Youngs Moduli (GPa) = 76.28740 88.69000 67.55506
#
# Poissons Ratio (x) = 0.23921 -0.10531
# Poissons Ratio (y) = 0.20576 0.16867
# Poissons Ratio (z) = -0.11892 0.22143
#
# Static dielectric constant tensor:
#      x y z
#    x 1.898480 0.000000 -0.015810 
#    y 0.000000 1.802190 0.000000 
#    z -0.015810 0.000000 1.843530 
# 
# From -- ./inp_files/154005.got.cif
#   From: 2010.05.17/outbox.cif.g08.bks.cpg/sg15_78_cif.got.tgz:154005.got - 2010.06.03 18:47:42.
