data_PCOD9269962
_publ_section_title
;
Structure prediction by ZEFSAII (Michael W. Deem and Ramdas Pophale) SiO2 
 PCOD9269962
Probable space group: C 2/C
;
_chemical_formula_sum "Si O2"
_cell_formula_units_Z 48
_cell_length_a 17.806815
_cell_length_b 11.944261
_cell_length_c 8.551429
_cell_angle_alpha 90.000000
_cell_angle_beta 97.290835
_cell_angle_gamma 90.000000
_cell_volume 1804.091567
_symmetry_space_group_name_H-M "C 2/C"
_symmetry_group_IT_number 15
_symmetry_cell_setting 'monoclinic'
loop_
_space_group_symop_operation_xyz
x,y,z
-x,y,1/2-z
-x,-y,-z
x,-y,1/2+z
1/2+x,1/2+y,z
1/2-x,1/2+y,1/2-z
1/2-x,1/2-y,-z
1/2+x,1/2-y,1/2+z
loop_
_atom_site_type_symbol
_atom_site_label
_atom_site_fract_x
_atom_site_fract_y
_atom_site_fract_z
Si Si1 0.072499 0.923261 0.337236
Si Si2 0.331186 0.840334 0.116424
Si Si3 0.733975 0.409800 0.351658
Si Si4 0.392361 0.058465 0.064553
Si Si5 0.561632 0.260533 0.629597
Si Si6 0.643709 0.770780 0.710396
O O1 0.156319 0.978354 0.358976
O O2 0.063284 0.859884 0.501041
O O3 0.081571 0.826625 0.203899
O O4 0.000000 0.987382 0.250000
O O5 0.264441 0.909845 0.181837
O O6 0.360373 0.751935 0.251600
O O7 0.400268 0.927753 0.100113
O O8 0.318160 0.788499 0.944316
O O9 0.807941 0.435930 0.467642
O O10 0.701358 0.282795 0.351714
O O11 0.390102 0.116220 0.233106
O O12 0.440819 0.143193 0.970908
O O13 0.500000 0.268754 0.750000
#
# Coordination Sequence:
#
# PCOD9269962 Si02
#       6
#     8   8   8   8   8   8
#     4   9  19  35  55  78 106 140 180 227 270 313
#     4  11  20  33  53  84 109 141 184 223 267 325
#     4   9  20  34  56  76 104 143 181 228 272 313
#     4  10  20  35  52  78 113 145 177 222 272 317
#     4  10  21  34  54  78 113 147 181 214 262 323
#     4   9  18  31  53  76 105 140 179 222 267 318
#
# _framework density 26.606189000000001
#
# number of rings (size 3 to 8) (size 9 to 14) (size 15 to 20)
#    1.000    1.333    0.000    4.000    2.333    0.667 
#    0.000    4.167    0.000    1.000    0.000    0.000 
#    0.000    0.000    0.000    0.000    0.000    0.000 
#
# Total GULP energy -133791.035084 kJ/mol
# GULP energy per Si atom -5574.626462 kJ/mol
# Density = 2.654563 g / cm^3
# Si number density = 26.606189 Si / 1000 Ang^3
#
#
#
# Elastic Constant Matrix: (Units=GPa)
#
#
# Indices 1 2 3 4 5 6 
#
# 1 145.3135 6.9766 51.2547 0.0000 -23.8180 0.0000
# 2 6.9766 75.2771 13.0914 0.0000 -5.5100 0.0000
# 3 51.2547 13.0914 139.9077 0.0000 -27.3505 0.0000
# 4 0.0000 0.0000 0.0000 27.2446 0.0000 -7.4783
# 5 -23.8180 -5.5100 -27.3505 0.0000 49.6353 0.0000
# 6 0.0000 0.0000 0.0000 -7.4783 0.0000 8.2384
#
#
#
# Elastic Compliance Matrix: (Units=1/GPa)
#
#
# Indices 1 2 3 4 5 6 
#
# 1 0.008182 -0.000140 -0.002488 0.000000 0.002540 0.000000
# 2 -0.000140 0.013542 -0.001048 0.000000 0.000859 0.000000
# 3 -0.002488 -0.001048 0.008855 0.000000 0.003569 0.000000
# 4 0.000000 0.000000 0.000000 0.048885 0.000000 0.044374
# 5 0.002540 0.000859 0.003569 0.000000 0.023428 0.000000
# 6 0.000000 0.000000 0.000000 0.044374 0.000000 0.161664
#
#
# Mechanical properties :
#
#
# Convention : Reuss Voigt Hill
#
# Bulk Modulus (GPa) = 43.05187 55.90486 49.47837
# Shear Modulus (GPa) = 17.87952 36.30203 27.09077
#
# Velocity S-wave (km/s) = 2.59512 3.69781 3.19441
# Velocity P-wave (km/s) = 5.01954 6.26812 5.67826
#
# Compressibility (1/GPa) = 0.02322780
#
# Stress axis : x y z
#
# Youngs Moduli (GPa) = 122.21609 73.84255 112.93305
#
# Poissons Ratio (x) = 0.01032 0.28097
# Poissons Ratio (y) = 0.01708 0.11837
# Poissons Ratio (z) = 0.30407 0.07740
#
# Static dielectric constant tensor:
#      x y z
#    x 2.257370 0.000000 -0.012510 
#    y 0.000000 2.160410 0.000000 
#    z -0.012510 0.000000 2.030690 
# 
# From -- ./inp_files/48032.got.cif
#   From: 2010.05.17/outbox.cif.g08.bks.cpg/sg15_25_cif.got.tgz:48032.got - 2010.06.03 18:47:42.
