data_PCOD9269516
_publ_section_title
;
Structure prediction by ZEFSAII (Michael W. Deem and Ramdas Pophale) SiO2 
 PCOD9269516
Probable space group: C 2/C
;
_chemical_formula_sum "Si O2"
_cell_formula_units_Z 64
_cell_length_a 14.338483
_cell_length_b 12.415965
_cell_length_c 19.619250
_cell_angle_alpha 90.000000
_cell_angle_beta 88.743540
_cell_angle_gamma 90.000000
_cell_volume 3491.898833
_symmetry_space_group_name_H-M "C 2/C"
_symmetry_group_IT_number 15
_symmetry_cell_setting 'monoclinic'
loop_
_space_group_symop_operation_xyz
x,y,z
-x,y,1/2-z
-x,-y,-z
x,-y,1/2+z
1/2+x,1/2+y,z
1/2-x,1/2+y,1/2-z
1/2-x,1/2-y,-z
1/2+x,1/2-y,1/2+z
loop_
_atom_site_type_symbol
_atom_site_label
_atom_site_fract_x
_atom_site_fract_y
_atom_site_fract_z
Si Si1 0.913041 0.445390 0.089370
Si Si2 0.434189 0.696748 0.852577
Si Si3 0.279122 0.047400 0.196687
Si Si4 0.475972 0.228009 0.830487
Si Si5 0.902093 0.411787 0.929896
Si Si6 0.439053 0.530658 0.319233
Si Si7 0.196422 0.429127 0.165292
Si Si8 0.141200 0.216403 0.795232
O O1 0.823968 0.490539 0.130471
O O2 0.950168 0.338891 0.126749
O O3 0.998302 0.532292 0.091552
O O4 0.893518 0.422167 0.010908
O O5 0.401102 0.788509 0.904632
O O6 0.441383 0.570478 0.870340
O O7 0.538507 0.726369 0.827569
O O8 0.370105 0.698386 0.785653
O O9 0.168021 0.043439 0.200893
O O10 0.307990 0.171042 0.195900
O O11 0.321151 0.988960 0.262556
O O12 0.500000 0.220351 0.750000
O O13 0.472073 0.354508 0.847121
O O14 0.377360 0.167800 0.842591
O O15 0.824431 0.483246 0.892454
O O16 0.500000 0.505185 0.250000
O O17 0.298522 0.377111 0.170342
#
# Coordination Sequence:
#
# PCOD9269516 Si02
#       8
#     8   8   8   8   8   8   8   8
#     4  10  22  39  58  89 118 159 202 247 300 353
#     4  11  20  37  58  85 126 150 195 248 299 354
#     4  12  20  35  62  88 118 150 204 246 293 361
#     4  10  20  34  57  85 119 152 193 248 302 351
#     4  10  22  38  60  86 125 155 198 253 298 351
#     4  11  22  36  55  91 124 152 190 253 304 348
#     4  11  20  34  59  91 115 152 199 251 296 352
#     4  11  21  34  56  94 115 152 197 245 302 353
#
# _framework density 18.328137999999999
#
# number of rings (size 3 to 8) (size 9 to 14) (size 15 to 20)
#    0.000    1.250    7.500    0.000    0.000    0.000 
#    0.000    3.125    0.000    0.000    0.000    0.000 
#    0.000    0.000    0.000    0.000    0.000    0.000 
#
# Total GULP energy -178588.857031 kJ/mol
# GULP energy per Si atom -5580.901782 kJ/mol
# Density = 1.828642 g / cm^3
# Si number density = 18.328138 Si / 1000 Ang^3
#
#
#
# Elastic Constant Matrix: (Units=GPa)
#
#
# Indices 1 2 3 4 5 6 
#
# 1 80.5915 28.8371 30.2883 0.0000 2.8623 0.0000
# 2 28.8371 154.8790 52.2269 0.0000 3.2546 0.0000
# 3 30.2883 52.2269 88.0100 0.0000 5.9249 0.0000
# 4 0.0000 0.0000 0.0000 9.6028 0.0000 5.0223
# 5 2.8623 3.2546 5.9249 0.0000 8.2307 0.0000
# 6 0.0000 0.0000 0.0000 5.0223 0.0000 22.2222
#
#
#
# Elastic Compliance Matrix: (Units=1/GPa)
#
#
# Indices 1 2 3 4 5 6 
#
# 1 0.014467 -0.001272 -0.004119 0.000000 -0.001563 0.000000
# 2 -0.001272 0.008184 -0.004446 0.000000 0.000407 0.000000
# 3 -0.004119 -0.004446 0.015978 0.000000 -0.008311 0.000000
# 4 0.000000 0.000000 0.000000 0.118095 0.000000 -0.026690
# 5 -0.001563 0.000407 -0.008311 0.000000 0.127862 0.000000
# 6 0.000000 0.000000 0.000000 -0.026690 0.000000 0.051032
#
#
# Mechanical properties :
#
#
# Convention : Reuss Voigt Hill
#
# Bulk Modulus (GPa) = 52.75643 60.68722 56.72183
# Shear Modulus (GPa) = 13.82705 22.15302 17.99004
#
# Velocity S-wave (km/s) = 2.74964 3.48039 3.13637
# Velocity P-wave (km/s) = 6.23920 7.02383 6.64311
#
# Compressibility (1/GPa) = 0.01895503
#
# Stress axis : x y z
#
# Youngs Moduli (GPa) = 69.12384 122.18526 62.58647
#
# Poissons Ratio (x) = 0.15540 0.25777
# Poissons Ratio (y) = 0.08792 0.27828
# Poissons Ratio (z) = 0.28470 0.54329
#
# Static dielectric constant tensor:
#      x y z
#    x 1.630370 0.000000 0.001440 
#    y 0.000000 1.664460 0.000000 
#    z 0.001440 0.000000 1.592840 
# 
# From -- ./inp_files/204471.got.cif
#   From: 2010.05.17/outbox.cif.g08.bks.cpg/sg15_103_cif.got.tgz:204471.got - 2010.06.03 18:47:42.
