data_PCOD9269341
_publ_section_title
;
Structure prediction by ZEFSAII (Michael W. Deem and Ramdas Pophale) SiO2 
 PCOD9269341
Probable space group: C 2/C
;
_chemical_formula_sum "Si O2"
_cell_formula_units_Z 56
_cell_length_a 23.041344
_cell_length_b 8.833792
_cell_length_c 15.705598
_cell_angle_alpha 90.000000
_cell_angle_beta 73.256699
_cell_angle_gamma 90.000000
_cell_volume 3061.229444
_symmetry_space_group_name_H-M "C 2/C"
_symmetry_group_IT_number 15
_symmetry_cell_setting 'monoclinic'
loop_
_space_group_symop_operation_xyz
x,y,z
-x,y,1/2-z
-x,-y,-z
x,-y,1/2+z
1/2+x,1/2+y,z
1/2-x,1/2+y,1/2-z
1/2-x,1/2-y,-z
1/2+x,1/2-y,1/2+z
loop_
_atom_site_type_symbol
_atom_site_label
_atom_site_fract_x
_atom_site_fract_y
_atom_site_fract_z
Si Si1 0.154767 0.097963 0.853323
Si Si2 0.612614 0.160141 0.254508
Si Si3 0.281593 0.968984 0.209277
Si Si4 0.516934 0.909426 0.340004
Si Si5 0.117369 0.760439 0.894569
Si Si6 0.202895 0.661164 0.461243
Si Si7 0.895597 0.562655 0.432778
O O1 0.114536 0.176925 0.797185
O O2 0.221233 0.072685 0.784456
O O3 0.162439 0.216603 0.927120
O O4 0.129321 0.937620 0.893031
O O5 0.604521 0.148072 0.157246
O O6 0.676063 0.080761 0.253467
O O7 0.560262 0.056852 0.317378
O O8 0.324092 0.823924 0.171684
O O9 0.268630 0.056027 0.125690
O O10 0.500000 0.869624 0.250000
O O11 0.557768 0.781731 0.365725
O O12 0.455927 0.960216 0.412686
O O13 0.108454 0.680853 0.989123
O O14 0.250000 0.750000 0.500000
O O15 0.161031 0.550897 0.534773
#
# Coordination Sequence:
#
# PCOD9269341 Si02
#       7
#     8   8   8   8   8   8   8
#     4  11  21  35  53  81 113 139 174 226 272 313
#     4   9  19  36  56  77 101 141 183 216 258 320
#     4   9  19  35  54  74 109 152 179 205 265 336
#     4   9  19  38  59  75 101 146 186 211 257 333
#     4  10  20  34  55  83 108 138 179 224 270 315
#     4  10  21  35  55  83 110 141 182 226 264 313
#     4  10  20  37  58  77 105 145 183 218 266 326
#
# _framework density 18.293302000000001
#
# number of rings (size 3 to 8) (size 9 to 14) (size 15 to 20)
#    0.000    2.286    0.000    3.857    0.000    3.429 
#    0.000    8.571    0.000    0.000    0.000    0.000 
#    0.000    0.000    0.000    0.000    0.000    0.000 
#
# Total GULP energy -156287.086489 kJ/mol
# GULP energy per Si atom -5581.681660 kJ/mol
# Density = 1.825167 g / cm^3
# Si number density = 18.293302 Si / 1000 Ang^3
#
#
#
# Elastic Constant Matrix: (Units=GPa)
#
#
# Indices 1 2 3 4 5 6 
#
# 1 60.0831 9.9642 18.0957 0.0000 11.3020 0.0000
# 2 9.9642 93.8824 20.9992 0.0000 14.0392 0.0000
# 3 18.0957 20.9992 42.0156 0.0000 -2.2984 0.0000
# 4 0.0000 0.0000 0.0000 14.8246 0.0000 5.8748
# 5 11.3020 14.0392 -2.2984 0.0000 21.7817 0.0000
# 6 0.0000 0.0000 0.0000 5.8748 0.0000 12.4359
#
#
#
# Elastic Compliance Matrix: (Units=1/GPa)
#
#
# Indices 1 2 3 4 5 6 
#
# 1 0.022473 0.002379 -0.011657 0.000000 -0.014425 0.000000
# 2 0.002379 0.014000 -0.008633 0.000000 -0.011169 0.000000
# 3 -0.011657 -0.008633 0.033967 0.000000 0.015197 0.000000
# 4 0.000000 0.000000 0.000000 0.082992 0.000000 -0.039206
# 5 -0.014425 -0.011169 0.015197 0.000000 0.062197 0.000000
# 6 0.000000 0.000000 0.000000 -0.039206 0.000000 0.098933
#
#
# Mechanical properties :
#
#
# Convention : Reuss Voigt Hill
#
# Bulk Modulus (GPa) = 28.88580 32.67768 30.78174
# Shear Modulus (GPa) = 13.81499 19.60324 16.70911
#
# Velocity S-wave (km/s) = 2.75106 3.27709 3.02553
# Velocity P-wave (km/s) = 5.09075 5.67636 5.39151
#
# Compressibility (1/GPa) = 0.03461909
#
# Stress axis : x y z
#
# Youngs Moduli (GPa) = 44.49729 71.42667 29.43992
#
# Poissons Ratio (x) = -0.16995 0.34319
# Poissons Ratio (y) = -0.10587 0.25416
# Poissons Ratio (z) = 0.51872 0.61663
#
# Static dielectric constant tensor:
#      x y z
#    x 1.630800 0.000000 0.008490 
#    y 0.000000 1.613470 0.000000 
#    z 0.008490 0.000000 1.625090 
# 
# From -- ./inp_files/171821.got.cif
#   From: 2010.05.17/outbox.cif.g08.bks.cpg/sg15_86_cif.got.tgz:171821.got - 2010.06.03 18:47:42.
