data_PCOD9269134
_publ_section_title
;
Structure prediction by ZEFSAII (Michael W. Deem and Ramdas Pophale) SiO2 
 PCOD9269134
Probable space group: C 2/C
;
_chemical_formula_sum "Si O2"
_cell_formula_units_Z 40
_cell_length_a 13.548417
_cell_length_b 13.492776
_cell_length_c 11.864362
_cell_angle_alpha 90.000000
_cell_angle_beta 90.145603
_cell_angle_gamma 90.000000
_cell_volume 2168.866658
_symmetry_space_group_name_H-M "C 2/C"
_symmetry_group_IT_number 15
_symmetry_cell_setting 'monoclinic'
loop_
_space_group_symop_operation_xyz
x,y,z
-x,y,1/2-z
-x,-y,-z
x,-y,1/2+z
1/2+x,1/2+y,z
1/2-x,1/2+y,1/2-z
1/2-x,1/2-y,-z
1/2+x,1/2-y,1/2+z
loop_
_atom_site_type_symbol
_atom_site_label
_atom_site_fract_x
_atom_site_fract_y
_atom_site_fract_z
Si Si1 0.945524 0.142091 0.413897
Si Si2 0.325243 0.383753 0.545755
Si Si3 0.500000 0.815526 0.250000
Si Si4 0.676576 0.603401 0.881409
Si Si5 0.705332 0.820898 0.325893
Si Si6 0.000000 0.023499 0.750000
O O1 0.855010 0.147630 0.498918
O O2 0.055030 0.119777 0.466716
O O3 0.954759 0.242354 0.343866
O O4 0.935532 0.050610 0.327302
O O5 0.292252 0.489357 0.595598
O O6 0.303822 0.293400 0.632282
O O7 0.269790 0.367972 0.427134
O O8 0.594433 0.865022 0.309737
O O9 0.743693 0.662085 0.794431
O O10 0.571917 0.590642 0.820179
#
# Coordination Sequence:
#
# PCOD9269134 Si02
#       6
#     8   8   4   8   8   4
#     4   9  17  30  51  76 100 122 156 209 259 294
#     4   9  19  34  51  76 104 128 156 201 260 300
#     4   9  20  36  46  65 104 142 168 197 242 287
#     4  11  18  29  54  80  98 126 166 204 243 298
#     4  10  20  34  52  70 100 136 163 199 247 291
#     4   9  16  28  48  77 104 120 144 203 270 299
#
# _framework density 18.442812
#
# number of rings (size 3 to 8) (size 9 to 14) (size 15 to 20)
#    0.000    2.400    0.000    6.000    0.000    0.800 
#    0.000    1.000    0.000    6.000    0.000    0.000 
#    0.000    0.000    0.000    0.000    0.000    0.000 
#
# Total GULP energy -111393.072345 kJ/mol
# GULP energy per Si atom -5569.653617 kJ/mol
# Density = 1.840084 g / cm^3
# Si number density = 18.442812 Si / 1000 Ang^3
#
#
#
# Elastic Constant Matrix: (Units=GPa)
#
#
# Indices 1 2 3 4 5 6 
#
# 1 42.0576 12.5168 35.9188 0.0000 8.3434 0.0000
# 2 12.5168 38.2865 36.4232 0.0000 -14.1569 0.0000
# 3 35.9188 36.4232 129.3415 0.0000 -25.2591 0.0000
# 4 0.0000 0.0000 0.0000 24.7056 0.0000 0.6176
# 5 8.3434 -14.1569 -25.2591 0.0000 36.4656 0.0000
# 6 0.0000 0.0000 0.0000 0.6176 0.0000 16.3853
#
#
#
# Elastic Compliance Matrix: (Units=1/GPa)
#
#
# Indices 1 2 3 4 5 6 
#
# 1 0.042888 -0.009455 -0.013739 0.000000 -0.023000 0.000000
# 2 -0.009455 0.039883 -0.005966 0.000000 0.013514 0.000000
# 3 -0.013739 -0.005966 0.015483 0.000000 0.011552 0.000000
# 4 0.000000 0.000000 0.000000 0.040515 0.000000 -0.001527
# 5 -0.023000 0.013514 0.011552 0.000000 0.045934 0.000000
# 6 0.000000 0.000000 0.000000 -0.001527 0.000000 0.061088
#
#
# Mechanical properties :
#
#
# Convention : Reuss Voigt Hill
#
# Bulk Modulus (GPa) = 25.04237 42.15592 33.59914
# Shear Modulus (GPa) = 15.75188 23.83310 19.79249
#
# Velocity S-wave (km/s) = 2.92566 3.59872 3.27950
# Velocity P-wave (km/s) = 5.00205 6.33837 5.70944
#
# Compressibility (1/GPa) = 0.03993233
#
# Stress axis : x y z
#
# Youngs Moduli (GPa) = 23.31678 25.07341 64.58639
#
# Poissons Ratio (x) = 0.23707 0.88737
# Poissons Ratio (y) = 0.22046 0.38535
# Poissons Ratio (z) = 0.32036 0.14960
#
# Static dielectric constant tensor:
#      x y z
#    x 1.682430 0.000000 0.010530 
#    y 0.000000 1.628630 0.000000 
#    z 0.010530 0.000000 1.684490 
# 
# From -- ./inp_files/85582.got.cif
#   From: 2010.05.17/outbox.cif.g08.bks.cpg/sg15_43_cif.got.tgz:85582.got - 2010.06.03 18:47:42.
