data_PCOD9269019
_publ_section_title
;
Structure prediction by ZEFSAII (Michael W. Deem and Ramdas Pophale) SiO2 
 PCOD9269019
Probable space group: C 2/C
;
_chemical_formula_sum "Si O2"
_cell_formula_units_Z 48
_cell_length_a 21.095357
_cell_length_b 13.608707
_cell_length_c 10.221565
_cell_angle_alpha 90.000000
_cell_angle_beta 37.384032
_cell_angle_gamma 90.000000
_cell_volume 1781.641404
_symmetry_space_group_name_H-M "C 2/C"
_symmetry_group_IT_number 15
_symmetry_cell_setting 'monoclinic'
loop_
_space_group_symop_operation_xyz
x,y,z
-x,y,1/2-z
-x,-y,-z
x,-y,1/2+z
1/2+x,1/2+y,z
1/2-x,1/2+y,1/2-z
1/2-x,1/2-y,-z
1/2+x,1/2-y,1/2+z
loop_
_atom_site_type_symbol
_atom_site_label
_atom_site_fract_x
_atom_site_fract_y
_atom_site_fract_z
Si Si1 0.566415 0.404065 0.883539
Si Si2 0.516770 0.812314 0.530015
Si Si3 0.680655 0.188739 0.000336
Si Si4 0.798743 0.886439 0.084154
Si Si5 0.747476 0.401750 0.809265
Si Si6 0.111619 0.689402 0.611885
O O1 0.603065 0.402049 0.673347
O O2 0.657752 0.408313 0.842856
O O3 0.500000 0.500000 0.000000
O O4 0.506559 0.303618 0.014478
O O5 0.596144 0.818871 0.519924
O O6 0.584306 0.852629 0.297901
O O7 0.399499 0.846905 0.754635
O O8 0.775968 0.127584 0.777881
O O9 0.714661 0.305203 0.950206
O O10 0.746466 0.991233 0.137166
O O11 0.794974 0.769481 0.050914
O O12 0.852462 0.387124 0.554431
O O13 0.000000 0.729927 0.750000
#
# Coordination Sequence:
#
# PCOD9269019 Si02
#       6
#     8   8   8   8   8   8
#     4  10  20  33  60  90 114 147 196 253 301 340
#     4   9  18  35  60  81 112 151 196 242 292 356
#     4   9  18  37  58  85 112 154 194 244 300 347
#     4  10  21  36  58  84 116 153 198 244 294 351
#     4  10  21  38  56  86 122 150 193 246 298 348
#     4  10  22  40  58  84 120 162 193 240 296 355
#
# _framework density 26.941448000000001
#
# number of rings (size 3 to 8) (size 9 to 14) (size 15 to 20)
#    0.000    2.333    0.000    2.000    4.667    5.333 
#    6.000    2.500    0.000    0.000    0.000    0.000 
#    0.000    0.000    0.000    0.000    0.000    0.000 
#
# Total GULP energy -133650.569048 kJ/mol
# GULP energy per Si atom -5568.773710 kJ/mol
# Density = 2.688013 g / cm^3
# Si number density = 26.941448 Si / 1000 Ang^3
#
#
#
# Elastic Constant Matrix: (Units=GPa)
#
#
# Indices 1 2 3 4 5 6 
#
# 1 37.5074 -1.6178 -8.7410 0.0000 -21.6356 0.0000
# 2 -1.6178 77.3931 -5.3502 0.0000 -1.3512 0.0000
# 3 -8.7410 -5.3502 106.5727 0.0000 18.0359 0.0000
# 4 0.0000 0.0000 0.0000 -980.7094 0.0000 -153.6535
# 5 -21.6356 -1.3512 18.0359 0.0000 35.5694 0.0000
# 6 0.0000 0.0000 0.0000 -153.6535 0.0000 4.1711
#
#
#
# Elastic Compliance Matrix: (Units=1/GPa)
#
#
# Indices 1 2 3 4 5 6 
#
# 1 0.041279 0.001249 -0.000885 0.000000 0.025604 0.000000
# 2 0.001249 0.013005 0.000594 0.000000 0.000952 0.000000
# 3 -0.000885 0.000594 0.010313 0.000000 -0.005745 0.000000
# 4 0.000000 0.000000 0.000000 -0.000151 0.000000 -0.005547
# 5 0.025604 0.000952 -0.005745 0.000000 0.046637 0.000000
# 6 0.000000 0.000000 0.000000 -0.005547 0.000000 0.035405
#
#
# Mechanical properties :
#
#
# Convention : Reuss Voigt Hill
#
# Bulk Modulus (GPa) = 15.03484 21.11724 18.07604
# Shear Modulus (GPa) = 29.98638 -172.38165 -71.19764
#
# Velocity S-wave (km/s) = 3.33982 -8.00767 -5.14628
# Velocity P-wave (km/s) = 4.52384 8.81145 5.34680
#
# Compressibility (1/GPa) = 0.06651218
#
# Stress axis : x y z
#
# Youngs Moduli (GPa) = 24.22566 76.89439 96.96727
#
# Poissons Ratio (x) = -0.09602 0.08580
# Poissons Ratio (y) = -0.03025 -0.05761
# Poissons Ratio (z) = 0.02144 -0.04568
#
# Static dielectric constant tensor:
#      x y z
#    x 2.751430 0.000000 0.146180 
#    y 0.000000 2.131340 0.000000 
#    z 0.146180 0.000000 2.213870 
# 
# From -- ./inp_files/96400.got.cif
#   From: 2010.05.17/outbox.cif.g08.bks.cpg/sg15_49_cif.got.tgz:96400.got - 2010.06.03 18:47:42.
