data_PCOD9269880
_publ_section_title
;
Structure prediction by ZEFSAII (Michael W. Deem and Ramdas Pophale) SiO2 
 PCOD9269880
Probable space group: C 2/C
;
_chemical_formula_sum "Si O2"
_cell_formula_units_Z 36
_cell_length_a 15.699889
_cell_length_b 18.010866
_cell_length_c 14.743322
_cell_angle_alpha 90.000000
_cell_angle_beta 159.764234
_cell_angle_gamma 90.000000
_cell_volume 1441.972456
_symmetry_space_group_name_H-M "C 2/C"
_symmetry_group_IT_number 15
_symmetry_cell_setting 'monoclinic'
loop_
_space_group_symop_operation_xyz
x,y,z
-x,y,1/2-z
-x,-y,-z
x,-y,1/2+z
1/2+x,1/2+y,z
1/2-x,1/2+y,1/2-z
1/2-x,1/2-y,-z
1/2+x,1/2-y,1/2+z
loop_
_atom_site_type_symbol
_atom_site_label
_atom_site_fract_x
_atom_site_fract_y
_atom_site_fract_z
Si Si1 0.252105 0.703136 0.867066
Si Si2 0.500000 0.890212 0.250000
Si Si3 0.208637 0.157527 0.113047
Si Si4 0.713869 0.810384 0.048519
Si Si5 0.042753 0.424953 0.489845
O O1 0.215010 0.663448 0.927989
O O2 0.187443 0.632660 0.737662
O O3 0.010246 0.755952 0.616650
O O4 0.456587 0.641645 0.807750
O O5 0.584771 0.933940 0.424235
O O6 0.203379 0.247019 0.116267
O O7 0.242599 0.116125 0.240607
O O8 0.538243 0.144058 0.191568
O O9 0.750000 0.750000 0.000000
O O10 0.000000 0.500000 0.500000
#
# Coordination Sequence:
#
# PCOD9269880 Si02
#       5
#     8   4   8   8   8
#     4  10  22  42  74 106 137 180 241 305 363 423
#     4   8  22  42  74 100 150 178 250 300 382 420
#     4  10  20  34  64  88 133 172 224 277 346 412
#     4  10  20  38  60 100 129 172 223 287 340 422
#     4  10  24  44  67 104 145 191 243 303 382 451
#
# _framework density 24.965803999999999
#
# number of rings (size 3 to 8) (size 9 to 14) (size 15 to 20)
#    1.333    0.889    0.000    4.000    6.222    0.000 
#    4.000    4.444    0.000    0.000    0.000    0.000 
#    0.000    0.000    0.000    0.000    0.000    0.000 
#
# Total GULP energy -100257.104650 kJ/mol
# GULP energy per Si atom -5569.839147 kJ/mol
# Density = 2.490898 g / cm^3
# Si number density = 24.965804 Si / 1000 Ang^3
#
#
#
# Elastic Constant Matrix: (Units=GPa)
#
#
# Indices 1 2 3 4 5 6 
#
# 1 152.5781 42.3107 99.3454 0.0003 8.3528 0.0004
# 2 42.3107 110.6910 52.9709 0.0000 -23.0423 0.0000
# 3 99.3454 52.9709 178.6215 0.0001 -1.1925 0.0003
# 4 0.0003 0.0000 0.0001 30.2370 0.0001 -18.3780
# 5 8.3528 -23.0423 -1.1925 0.0001 69.7995 0.0003
# 6 0.0004 0.0000 0.0003 -18.3780 0.0003 25.0956
#
#
#
# Elastic Compliance Matrix: (Units=1/GPa)
#
#
# Indices 1 2 3 4 5 6 
#
# 1 0.010716 -0.001930 -0.005401 0.000000 -0.002012 0.000000
# 2 -0.001930 0.011762 -0.002387 0.000000 0.004073 0.000000
# 3 -0.005401 -0.002387 0.009311 0.000000 0.000017 0.000000
# 4 0.000000 0.000000 0.000000 0.059601 0.000000 0.043647
# 5 -0.002012 0.004073 0.000017 0.000000 0.015912 0.000000
# 6 0.000000 0.000000 0.000000 0.043647 0.000000 0.071811
#
#
# Mechanical properties :
#
#
# Convention : Reuss Voigt Hill
#
# Bulk Modulus (GPa) = 80.96195 92.34942 86.65568
# Shear Modulus (GPa) = 24.67092 41.51066 33.09079
#
# Velocity S-wave (km/s) = 3.14696 4.08205 3.64462
# Velocity P-wave (km/s) = 6.76047 7.69988 7.24542
#
# Compressibility (1/GPa) = 0.01235148
#
# Stress axis : x y z
#
# Youngs Moduli (GPa) = 93.31702 85.01672 107.40550
#
# Poissons Ratio (x) = 0.16411 0.58011
# Poissons Ratio (y) = 0.18013 0.25642
# Poissons Ratio (z) = 0.50401 0.20297
#
# Static dielectric constant tensor:
#      x y z
#    x 2.181620 0.000000 -0.105050 
#    y 0.000000 1.970740 0.000000 
#    z -0.105050 0.000000 2.248610 
# 
# From -- ./inp_files/105940.got.cif
#   From: 2010.05.17/outbox.cif.g08.bks.cpg/sg15_53_cif.got.tgz:105940.got - 2010.06.03 18:47:42.
