data_PCOD9269573
_publ_section_title
;
Structure prediction by ZEFSAII (Michael W. Deem and Ramdas Pophale) SiO2 
 PCOD9269573
Probable space group: C 2/C
;
_chemical_formula_sum "Si O2"
_cell_formula_units_Z 56
_cell_length_a 8.710554
_cell_length_b 20.388151
_cell_length_c 20.702536
_cell_angle_alpha 90.000000
_cell_angle_beta 44.869930
_cell_angle_gamma 90.000000
_cell_volume 2593.844964
_symmetry_space_group_name_H-M "C 2/C"
_symmetry_group_IT_number 15
_symmetry_cell_setting 'monoclinic'
loop_
_space_group_symop_operation_xyz
x,y,z
-x,y,1/2-z
-x,-y,-z
x,-y,1/2+z
1/2+x,1/2+y,z
1/2-x,1/2+y,1/2-z
1/2-x,1/2-y,-z
1/2+x,1/2-y,1/2+z
loop_
_atom_site_type_symbol
_atom_site_label
_atom_site_fract_x
_atom_site_fract_y
_atom_site_fract_z
Si Si1 0.086092 0.327001 0.570086
Si Si2 0.540760 0.264438 0.969717
Si Si3 0.365254 0.086723 0.233303
Si Si4 0.661554 0.145161 0.525884
Si Si5 0.400051 0.558143 0.939010
Si Si6 0.329839 0.031534 0.883697
Si Si7 0.902376 0.059888 0.352498
O O1 0.225019 0.293898 0.586025
O O2 0.267174 0.373544 0.480529
O O3 0.987897 0.270140 0.554667
O O4 0.907050 0.373134 0.655972
O O5 0.513938 0.202029 0.931617
O O6 0.373640 0.318477 0.993047
O O7 0.500000 0.119068 0.250000
O O8 0.118602 0.080691 0.327338
O O9 0.470045 0.014909 0.194249
O O10 0.588477 0.092093 0.599044
O O11 0.723624 0.107172 0.440141
O O12 0.656272 0.558286 0.882404
O O13 0.356172 0.514860 0.888037
O O14 0.298106 0.515570 0.027986
O O15 0.000000 0.062321 0.250000
#
# Coordination Sequence:
#
# PCOD9269573 Si02
#       7
#     8   8   8   8   8   8   8
#     4  10  20  35  57  85 111 144 194 235 261 324
#     4  10  20  34  58  81 101 145 192 230 266 311
#     4  11  20  33  58  85 111 143 181 231 291 335
#     4  10  20  37  58  81 111 147 194 232 260 327
#     4   9  17  33  55  79 108 138 176 226 277 322
#     4   9  17  32  56  81 103 139 182 223 271 327
#     4  11  22  35  56  86 116 140 173 237 298 329
#
# _framework density 21.589570999999999
#
# number of rings (size 3 to 8) (size 9 to 14) (size 15 to 20)
#    0.000    2.000    2.857    1.714    0.000    1.143 
#    0.000    4.286    0.000   34.286    0.000    0.000 
#    0.000    0.000    0.000    0.000    0.000    0.000 
#
# Total GULP energy -155978.260055 kJ/mol
# GULP energy per Si atom -5570.652145 kJ/mol
# Density = 2.154043 g / cm^3
# Si number density = 21.589571 Si / 1000 Ang^3
#
#
#
# Elastic Constant Matrix: (Units=GPa)
#
#
# Indices 1 2 3 4 5 6 
#
# 1 49.3483 17.2884 4.1708 0.0000 16.6125 0.0002
# 2 17.2884 102.1544 40.9109 0.0000 14.9481 0.0000
# 3 4.1708 40.9109 57.6993 0.0000 7.3261 0.0000
# 4 0.0000 0.0000 0.0000 15.9750 0.0000 15.0419
# 5 16.6125 14.9481 7.3261 0.0000 29.8916 0.0000
# 6 0.0002 0.0000 0.0000 15.0419 0.0000 22.8726
#
#
#
# Elastic Compliance Matrix: (Units=1/GPa)
#
#
# Indices 1 2 3 4 5 6 
#
# 1 0.025655 -0.003274 0.002136 0.000001 -0.013145 -0.000001
# 2 -0.003274 0.014732 -0.009809 0.000000 -0.003143 0.000000
# 3 0.002136 -0.009809 0.024420 0.000000 -0.002266 0.000000
# 4 0.000001 0.000000 0.000000 0.164394 0.000000 -0.108111
# 5 -0.013145 -0.003143 -0.002266 0.000000 0.042887 0.000000
# 6 -0.000001 0.000000 0.000000 -0.108111 0.000000 0.114818
#
#
# Mechanical properties :
#
#
# Convention : Reuss Voigt Hill
#
# Bulk Modulus (GPa) = 23.30360 37.10470 30.20415
# Shear Modulus (GPa) = 11.81740 23.53665 17.67702
#
# Velocity S-wave (km/s) = 2.34212 3.30538 2.86453
# Velocity P-wave (km/s) = 4.25810 5.63836 4.99612
#
# Compressibility (1/GPa) = 0.04291182
#
# Stress axis : x y z
#
# Youngs Moduli (GPa) = 38.97804 67.88127 40.95022
#
# Poissons Ratio (x) = 0.22223 -0.08746
# Poissons Ratio (y) = 0.12760 0.40170
# Poissons Ratio (z) = -0.08324 0.66588
#
# Static dielectric constant tensor:
#      x y z
#    x 1.892910 0.000000 0.059260 
#    y 0.000000 1.787840 0.000000 
#    z 0.059260 0.000000 1.785150 
# 
# From -- ./inp_files/233766.got.cif
#   From: 2010.05.17/outbox.cif.g08.bks.cpg/sg15_117_cif.got.tgz:233766.got - 2010.06.03 18:47:42.
