data_PCOD9269044
_publ_section_title
;
Structure prediction by ZEFSAII (Michael W. Deem and Ramdas Pophale) SiO2 
 PCOD9269044
Probable space group: C 2/C
;
_chemical_formula_sum "Si O2"
_cell_formula_units_Z 44
_cell_length_a 7.890131
_cell_length_b 13.795213
_cell_length_c 19.254347
_cell_angle_alpha 90.000000
_cell_angle_beta 93.560884
_cell_angle_gamma 90.000000
_cell_volume 2091.713230
_symmetry_space_group_name_H-M "C 2/C"
_symmetry_group_IT_number 15
_symmetry_cell_setting 'monoclinic'
loop_
_space_group_symop_operation_xyz
x,y,z
-x,y,1/2-z
-x,-y,-z
x,-y,1/2+z
1/2+x,1/2+y,z
1/2-x,1/2+y,1/2-z
1/2-x,1/2-y,-z
1/2+x,1/2-y,1/2+z
loop_
_atom_site_type_symbol
_atom_site_label
_atom_site_fract_x
_atom_site_fract_y
_atom_site_fract_z
Si Si1 0.491373 0.235646 0.451551
Si Si2 0.349757 0.780925 0.793283
Si Si3 0.000000 0.900678 0.250000
Si Si4 0.658995 0.383290 0.552508
Si Si5 0.395644 0.572847 0.152695
Si Si6 0.822450 0.443489 0.990683
O O1 0.407132 0.240928 0.373973
O O2 0.542503 0.334958 0.489844
O O3 0.667381 0.177222 0.443392
O O4 0.375981 0.168578 0.499424
O O5 0.500000 0.827772 0.750000
O O6 0.343721 0.673652 0.759561
O O7 0.194457 0.854373 0.795721
O O8 0.046236 0.972430 0.312923
O O9 0.555070 0.376125 0.620420
O O10 0.702389 0.495150 0.538157
O O11 0.261756 0.550873 0.087552
O O12 0.000000 0.500000 0.000000
#
# Coordination Sequence:
#
# PCOD9269044 Si02
#       6
#     8   8   4   8   8   8
#     4   9  19  37  58  85 125 159 189 255 313 363
#     4   9  22  41  61  79 126 168 202 250 307 365
#     4  10  24  40  62  86 126 164 212 254 302 360
#     4  10  20  33  62  92 119 148 204 257 308 365
#     4  11  22  37  64  90 118 165 209 255 306 366
#     4   9  19  36  56  87 118 152 192 246 315 364
#
# _framework density 21.035385999999999
#
# number of rings (size 3 to 8) (size 9 to 14) (size 15 to 20)
#    0.545    1.818    0.000    1.636    2.545    4.364 
#    0.000    0.000    6.000    0.000    0.000    0.000 
#    0.000    0.000    0.000    0.000    0.000    0.000 
#
# Total GULP energy -122660.894892 kJ/mol
# GULP energy per Si atom -5575.495222 kJ/mol
# Density = 2.098751 g / cm^3
# Si number density = 21.035386 Si / 1000 Ang^3
#
#
#
# Elastic Constant Matrix: (Units=GPa)
#
#
# Indices 1 2 3 4 5 6 
#
# 1 64.6344 45.0174 12.0796 0.0000 -26.0052 0.0000
# 2 45.0174 99.6298 18.9295 0.0000 -35.5948 0.0000
# 3 12.0796 18.9295 53.5188 0.0000 -28.8331 0.0000
# 4 0.0000 0.0000 0.0000 40.5289 0.0000 -8.8642
# 5 -26.0052 -35.5948 -28.8331 0.0000 40.7687 0.0000
# 6 0.0000 0.0000 0.0000 -8.8642 0.0000 12.4044
#
#
#
# Elastic Compliance Matrix: (Units=1/GPa)
#
#
# Indices 1 2 3 4 5 6 
#
# 1 0.024862 -0.007795 0.003268 0.000000 0.011365 0.000000
# 2 -0.007795 0.017286 0.001773 0.000000 0.011374 0.000000
# 3 0.003268 0.001773 0.031144 0.000000 0.025659 0.000000
# 4 0.000000 0.000000 0.000000 0.029244 0.000000 0.020898
# 5 0.011365 0.011374 0.025659 0.000000 0.059856 0.000000
# 6 0.000000 0.000000 0.000000 0.020898 0.000000 0.095550
#
#
# Mechanical properties :
#
#
# Convention : Reuss Voigt Hill
#
# Bulk Modulus (GPa) = 14.75236 41.09289 27.92263
# Shear Modulus (GPa) = 17.47983 28.19085 22.83534
#
# Velocity S-wave (km/s) = 2.88579 3.66480 3.29837
# Velocity P-wave (km/s) = 4.25817 6.12251 5.27339
#
# Compressibility (1/GPa) = 0.06778574
#
# Stress axis : x y z
#
# Youngs Moduli (GPa) = 40.22151 57.85064 32.10906
#
# Poissons Ratio (x) = 0.45092 -0.10494
# Poissons Ratio (y) = 0.31351 -0.05693
# Poissons Ratio (z) = -0.13145 -0.10258
#
# Static dielectric constant tensor:
#      x y z
#    x 1.812930 0.000000 -0.016950 
#    y 0.000000 1.757760 0.000000 
#    z -0.016950 0.000000 1.749110 
# 
# From -- ./inp_files/188842.got.cif
#   From: 2010.05.17/outbox.cif.g08.bks.cpg/sg15_95_cif.got.tgz:188842.got - 2010.06.03 18:47:42.
