data_PCOD9269829
_publ_section_title
;
Structure prediction by ZEFSAII (Michael W. Deem and Ramdas Pophale) SiO2 
 PCOD9269829
Probable space group: C 2/C
;
_chemical_formula_sum "Si O2"
_cell_formula_units_Z 60
_cell_length_a 26.931261
_cell_length_b 13.182395
_cell_length_c 23.896155
_cell_angle_alpha 90.000000
_cell_angle_beta 160.054028
_cell_angle_gamma 90.000000
_cell_volume 2894.035848
_symmetry_space_group_name_H-M "C 2/C"
_symmetry_group_IT_number 15
_symmetry_cell_setting 'monoclinic'
loop_
_space_group_symop_operation_xyz
x,y,z
-x,y,1/2-z
-x,-y,-z
x,-y,1/2+z
1/2+x,1/2+y,z
1/2-x,1/2+y,1/2-z
1/2-x,1/2-y,-z
1/2+x,1/2-y,1/2+z
loop_
_atom_site_type_symbol
_atom_site_label
_atom_site_fract_x
_atom_site_fract_y
_atom_site_fract_z
Si Si1 0.229893 0.846956 0.787118
Si Si2 0.429831 0.290047 0.120165
Si Si3 0.780237 0.861985 0.594517
Si Si4 0.819859 0.560715 0.887986
Si Si5 0.330841 0.757779 0.717737
Si Si6 0.388238 0.053111 0.082439
Si Si7 0.487576 0.821524 0.485146
Si Si8 0.000000 0.244706 0.250000
O O1 0.215398 0.825211 0.837160
O O2 0.116868 0.775103 0.635399
O O3 0.209610 0.968137 0.762037
O O4 0.395268 0.831890 0.940038
O O5 0.500000 0.335931 0.250000
O O6 0.554812 0.280027 0.206789
O O7 0.376476 0.174359 0.078373
O O8 0.285652 0.329889 0.936985
O O9 0.923906 0.824917 0.715863
O O10 0.633641 0.811917 0.414087
O O11 0.753808 0.982965 0.561628
O O12 0.746023 0.663143 0.832797
O O13 0.887487 0.585020 0.898972
O O14 0.921767 0.534861 0.051100
O O15 0.417583 0.810615 0.858569
O O16 0.500000 0.022431 0.250000
#
# Coordination Sequence:
#
# PCOD9269829 Si02
#       8
#     8   8   8   8   8   8   8   4
#     4  11  24  39  66  87 126 160 215 254 312 365
#     4  10  20  34  62  87 122 161 206 247 309 365
#     4  10  20  37  60  89 118 158 195 253 306 374
#     4  10  22  39  63  88 127 163 209 252 314 366
#     4  11  19  38  60  87 123 166 198 255 311 362
#     4   9  17  34  60  84 117 158 193 243 303 363
#     4  12  21  41  61  91 124 166 210 260 303 366
#     4  10  20  36  64  86 122 152 198 248 322 366
#
# _framework density 20.732294
#
# number of rings (size 3 to 8) (size 9 to 14) (size 15 to 20)
#    0.000    1.600    4.667    1.600    0.000    0.533 
#    0.000    0.000   30.800    0.000    0.000    0.000 
#    0.000    0.000    0.000    0.000    0.000    0.000 
#
# Total GULP energy -167109.062854 kJ/mol
# GULP energy per Si atom -5570.302095 kJ/mol
# Density = 2.068511 g / cm^3
# Si number density = 20.732294 Si / 1000 Ang^3
#
#
#
# Elastic Constant Matrix: (Units=GPa)
#
#
# Indices 1 2 3 4 5 6 
#
# 1 119.2251 9.3000 19.8248 -0.0016 9.5015 -0.0001
# 2 9.3000 43.0684 5.0279 -0.0009 -1.0546 0.0000
# 3 19.8248 5.0279 65.8754 -0.0019 -7.2456 -0.0004
# 4 -0.0016 -0.0009 -0.0019 -23.5578 -0.0005 13.2880
# 5 9.5015 -1.0546 -7.2456 -0.0005 35.9403 -0.0001
# 6 -0.0001 0.0000 -0.0004 13.2880 -0.0001 21.7873
#
#
#
# Elastic Compliance Matrix: (Units=1/GPa)
#
#
# Indices 1 2 3 4 5 6 
#
# 1 0.009268 -0.001727 -0.002999 0.000000 -0.003106 0.000000
# 2 -0.001727 0.023753 -0.001193 -0.000001 0.000913 0.000000
# 3 -0.002999 -0.001193 0.016626 -0.000001 0.004110 0.000001
# 4 0.000000 -0.000001 -0.000001 -0.031584 0.000000 0.019263
# 5 -0.003106 0.000913 0.004110 0.000000 0.029500 0.000000
# 6 0.000000 0.000000 0.000001 0.019263 0.000000 0.034150
#
#
# Mechanical properties :
#
#
# Convention : Reuss Voigt Hill
#
# Bulk Modulus (GPa) = 26.44835 32.94159 29.69497
# Shear Modulus (GPa) = 47.10061 19.76836 33.43448
#
# Velocity S-wave (km/s) = 4.77156 3.09124 4.02017
# Velocity P-wave (km/s) = 6.56824 5.35393 5.99193
#
# Compressibility (1/GPa) = 0.03780954
#
# Stress axis : x y z
#
# Youngs Moduli (GPa) = 107.89341 42.09915 60.14760
#
# Poissons Ratio (x) = 0.07272 0.18038
# Poissons Ratio (y) = 0.18637 0.07174
# Poissons Ratio (z) = 0.32357 0.05021
#
# Static dielectric constant tensor:
#      x y z
#    x 1.778670 0.000000 -0.012070 
#    y 0.000000 1.777990 0.000000 
#    z -0.012070 0.000000 1.814040 
# 
# From -- ./inp_files/283658.got.cif
#   From: 2010.05.17/outbox.cif.g08.bks.cpg/sg15_142_cif.got.tgz:283658.got - 2010.06.03 18:47:42.
