data_PCOD9269676
_publ_section_title
;
Structure prediction by ZEFSAII (Michael W. Deem and Ramdas Pophale) SiO2 
 PCOD9269676
Probable space group: C 2/C
;
_chemical_formula_sum "Si O2"
_cell_formula_units_Z 60
_cell_length_a 16.407768
_cell_length_b 12.082349
_cell_length_c 20.041384
_cell_angle_alpha 90.000000
_cell_angle_beta 134.622028
_cell_angle_gamma 90.000000
_cell_volume 2827.872048
_symmetry_space_group_name_H-M "C 2/C"
_symmetry_group_IT_number 15
_symmetry_cell_setting 'monoclinic'
loop_
_space_group_symop_operation_xyz
x,y,z
-x,y,1/2-z
-x,-y,-z
x,-y,1/2+z
1/2+x,1/2+y,z
1/2-x,1/2+y,1/2-z
1/2-x,1/2-y,-z
1/2+x,1/2-y,1/2+z
loop_
_atom_site_type_symbol
_atom_site_label
_atom_site_fract_x
_atom_site_fract_y
_atom_site_fract_z
Si Si1 0.681749 0.316508 0.016295
Si Si2 0.707077 0.012789 0.680875
Si Si3 0.040137 0.315040 0.133756
Si Si4 0.247668 0.714976 0.177832
Si Si5 0.085805 0.049178 0.990313
Si Si6 0.909286 0.183758 0.806662
Si Si7 0.684122 0.105725 0.312504
Si Si8 0.500000 0.060883 0.750000
O O1 0.564180 0.248823 0.958483
O O2 0.643371 0.442535 0.987886
O O3 0.750000 0.250000 0.000000
O O4 0.760523 0.301296 0.126118
O O5 0.723076 0.909447 0.641103
O O6 0.703470 0.954452 0.751860
O O7 0.596994 0.092086 0.619069
O O8 0.817752 0.088703 0.737676
O O9 0.141627 0.229622 0.211941
O O10 0.002132 0.369890 0.182378
O O11 0.138286 0.757115 0.154543
O O12 0.022551 0.122593 0.897698
O O13 0.189649 0.117430 0.083813
O O14 0.000000 0.000000 0.000000
O O15 0.888676 0.281662 0.741213
O O16 0.608524 0.021513 0.311868
#
# Coordination Sequence:
#
# PCOD9269676 Si02
#       8
#     8   8   8   8   8   8   8   4
#     4  12  24  37  59  91 121 160 207 255 312 375
#     4   9  18  33  54  85 118 151 195 255 307 354
#     4  10  20  34  59  80 119 157 199 251 302 369
#     4  10  20  35  56  86 117 152 199 253 312 362
#     4  12  21  38  65  95 121 163 213 258 313 375
#     4  10  20  35  60  91 118 157 210 254 311 361
#     4  10  21  37  61  86 122 161 209 256 302 381
#     4  10  20  42  58  82 122 178 198 236 324 378
#
# _framework density 21.217366999999999
#
# number of rings (size 3 to 8) (size 9 to 14) (size 15 to 20)
#    0.000    1.600    2.667    4.000    3.733    0.533 
#    0.000    4.667    0.000    0.000    0.000    0.000 
#    0.000    0.000    0.000    0.000    0.000    0.000 
#
# Total GULP energy -167311.131428 kJ/mol
# GULP energy per Si atom -5577.037714 kJ/mol
# Density = 2.116908 g / cm^3
# Si number density = 21.217367 Si / 1000 Ang^3
#
#
#
# Elastic Constant Matrix: (Units=GPa)
#
#
# Indices 1 2 3 4 5 6 
#
# 1 43.2080 20.5701 14.1947 0.0000 11.7312 0.0000
# 2 20.5701 129.9248 47.6910 0.0000 6.4850 0.0000
# 3 14.1947 47.6910 97.1339 0.0000 23.0719 0.0000
# 4 0.0000 0.0000 0.0000 34.0156 0.0000 2.7594
# 5 11.7312 6.4850 23.0719 0.0000 18.9012 0.0000
# 6 0.0000 0.0000 0.0000 2.7594 0.0000 26.3227
#
#
#
# Elastic Compliance Matrix: (Units=1/GPa)
#
#
# Indices 1 2 3 4 5 6 
#
# 1 0.030038 -0.004765 0.002802 0.000000 -0.020429 0.000000
# 2 -0.004765 0.010301 -0.005949 0.000000 0.006685 0.000000
# 3 0.002802 -0.005949 0.017935 0.000000 -0.021590 0.000000
# 4 0.000000 0.000000 0.000000 0.029650 0.000000 -0.003108
# 5 -0.020429 0.006685 -0.021590 0.000000 0.089647 0.000000
# 6 0.000000 0.000000 0.000000 -0.003108 0.000000 0.038316
#
#
# Mechanical properties :
#
#
# Convention : Reuss Voigt Hill
#
# Bulk Modulus (GPa) = 23.55668 48.35315 35.95492
# Shear Modulus (GPa) = 20.33667 28.36864 24.35265
#
# Velocity S-wave (km/s) = 3.09931 3.66053 3.39155
# Velocity P-wave (km/s) = 4.89227 6.38004 5.68503
#
# Compressibility (1/GPa) = 0.04245081
#
# Stress axis : x y z
#
# Youngs Moduli (GPa) = 33.29095 97.07583 55.75737
#
# Poissons Ratio (x) = 0.46253 -0.15624
# Poissons Ratio (y) = 0.15862 0.33172
# Poissons Ratio (z) = -0.09329 0.57753
#
# Static dielectric constant tensor:
#      x y z
#    x 1.816890 0.000000 -0.022850 
#    y 0.000000 1.850840 0.000000 
#    z -0.022850 0.000000 1.815320 
# 
# From -- ./inp_files/248795.got.cif
#   From: 2010.05.17/outbox.cif.g08.bks.cpg/sg15_125_cif.got.tgz:248795.got - 2010.06.03 18:47:42.
