data_PCOD9269198
_publ_section_title
;
Structure prediction by ZEFSAII (Michael W. Deem and Ramdas Pophale) SiO2 
 PCOD9269198
Probable space group: C 2/C
;
_chemical_formula_sum "Si O2"
_cell_formula_units_Z 64
_cell_length_a 14.202556
_cell_length_b 8.609736
_cell_length_c 27.500352
_cell_angle_alpha 90.000000
_cell_angle_beta 118.038112
_cell_angle_gamma 90.000000
_cell_volume 2968.081345
_symmetry_space_group_name_H-M "C 2/C"
_symmetry_group_IT_number 15
_symmetry_cell_setting 'monoclinic'
loop_
_space_group_symop_operation_xyz
x,y,z
-x,y,1/2-z
-x,-y,-z
x,-y,1/2+z
1/2+x,1/2+y,z
1/2-x,1/2+y,1/2-z
1/2-x,1/2-y,-z
1/2+x,1/2-y,1/2+z
loop_
_atom_site_type_symbol
_atom_site_label
_atom_site_fract_x
_atom_site_fract_y
_atom_site_fract_z
Si Si1 0.523006 0.126354 0.703259
Si Si2 0.996965 0.187167 0.002703
Si Si3 0.965856 0.177098 0.100465
Si Si4 0.672891 0.109373 0.367459
Si Si5 0.814266 0.770442 0.325332
Si Si6 0.949594 0.804858 0.089192
Si Si7 0.228844 0.418134 0.776607
Si Si8 0.242521 0.802452 0.081609
O O1 0.500000 0.202334 0.750000
O O2 0.527116 0.250172 0.661164
O O3 0.427241 0.006491 0.667208
O O4 0.625357 0.020112 0.736878
O O5 0.873706 0.239746 0.966011
O O6 0.060652 0.240310 0.970243
O O7 0.022682 0.230745 0.064244
O O8 0.000000 0.000000 0.000000
O O9 0.844060 0.241584 0.076662
O O10 0.956906 0.990940 0.096098
O O11 0.640112 0.238887 0.397435
O O12 0.706664 0.168168 0.322316
O O13 0.755379 0.990016 0.412124
O O14 0.757407 0.685535 0.267123
O O15 0.752450 0.746832 0.360918
O O16 0.937587 0.732414 0.365249
O O17 0.814253 0.952127 0.311192
#
# Coordination Sequence:
#
# PCOD9269198 Si02
#       8
#     8   8   8   8   8   8   8   8
#     4   9  18  35  53  76 109 147 179 217 271 329
#     4   9  19  37  60  81 110 142 179 229 280 324
#     4  10  20  35  59  82 108 145 185 222 276 325
#     4   9  18  36  56  78 107 150 181 221 275 329
#     4  10  21  34  53  79 114 145 184 227 273 323
#     4  10  20  36  57  84 110 139 188 233 269 321
#     4  10  20  34  53  78 113 151 183 221 279 329
#     4   9  19  37  58  76 110 147 179 223 280 329
#
# _framework density 21.562752
#
# number of rings (size 3 to 8) (size 9 to 14) (size 15 to 20)
#    0.000    2.500    1.250    1.125    1.750    1.000 
#    2.250    5.000    2.750    0.000    0.000    0.000 
#    0.000    0.000    0.000    0.000    0.000    0.000 
#
# Total GULP energy -178504.463891 kJ/mol
# GULP energy per Si atom -5578.264497 kJ/mol
# Density = 2.151367 g / cm^3
# Si number density = 21.562752 Si / 1000 Ang^3
#
#
#
# Elastic Constant Matrix: (Units=GPa)
#
#
# Indices 1 2 3 4 5 6 
#
# 1 39.7711 6.6174 38.1859 0.0000 -19.6837 0.0000
# 2 6.6174 21.4629 40.7428 0.0000 -21.6142 0.0000
# 3 38.1859 40.7428 141.0071 0.0000 -53.2050 0.0000
# 4 0.0000 0.0000 0.0000 25.7451 0.0000 -11.0516
# 5 -19.6837 -21.6142 -53.2050 0.0000 46.6537 0.0000
# 6 0.0000 0.0000 0.0000 -11.0516 0.0000 31.7428
#
#
#
# Elastic Compliance Matrix: (Units=1/GPa)
#
#
# Indices 1 2 3 4 5 6 
#
# 1 0.040825 0.028067 -0.013621 0.000000 0.014694 0.000000
# 2 0.028067 0.140876 -0.033722 0.000000 0.038651 0.000000
# 3 -0.013621 -0.033722 0.021873 0.000000 0.003575 0.000000
# 4 0.000000 0.000000 0.000000 0.045668 0.000000 0.015900
# 5 0.014694 0.038651 0.003575 0.000000 0.049617 0.000000
# 6 0.000000 0.000000 0.000000 0.015900 0.000000 0.037039
#
#
# Mechanical properties :
#
#
# Convention : Reuss Voigt Hill
#
# Bulk Modulus (GPa) = 6.05980 41.48148 23.77064
# Shear Modulus (GPa) = 11.64266 28.60799 20.12532
#
# Velocity S-wave (km/s) = 2.32619 3.64638 3.05837
# Velocity P-wave (km/s) = 3.16722 6.08338 4.84968
#
# Compressibility (1/GPa) = 0.16502193
#
# Stress axis : x y z
#
# Youngs Moduli (GPa) = 24.49509 7.09846 45.71850
#
# Poissons Ratio (x) = -0.19924 0.62274
# Poissons Ratio (y) = -0.68752 1.54171
# Poissons Ratio (z) = 0.33365 0.23937
#
# Static dielectric constant tensor:
#      x y z
#    x 1.822560 0.000000 0.018640 
#    y 0.000000 1.770330 0.000000 
#    z 0.018640 0.000000 1.816100 
# 
# From -- ./inp_files/295116.got.cif
#   From: 2010.05.17/outbox.cif.g08.bks.cpg/sg15_148_cif.got.tgz:295116.got - 2010.06.03 18:47:42.
