data_PCOD9269287
_publ_section_title
;
Structure prediction by ZEFSAII (Michael W. Deem and Ramdas Pophale) SiO2 
 PCOD9269287
Probable space group: C 2/C
;
_chemical_formula_sum "Si O2"
_cell_formula_units_Z 60
_cell_length_a 24.318150
_cell_length_b 23.066783
_cell_length_c 5.393524
_cell_angle_alpha 90.000000
_cell_angle_beta 71.770343
_cell_angle_gamma 90.000000
_cell_volume 2873.604753
_symmetry_space_group_name_H-M "C 2/C"
_symmetry_group_IT_number 15
_symmetry_cell_setting 'monoclinic'
loop_
_space_group_symop_operation_xyz
x,y,z
-x,y,1/2-z
-x,-y,-z
x,-y,1/2+z
1/2+x,1/2+y,z
1/2-x,1/2+y,1/2-z
1/2-x,1/2-y,-z
1/2+x,1/2-y,1/2+z
loop_
_atom_site_type_symbol
_atom_site_label
_atom_site_fract_x
_atom_site_fract_y
_atom_site_fract_z
Si Si1 0.386003 0.150419 0.633592
Si Si2 0.000000 0.349347 0.250000
Si Si3 0.358349 0.676515 0.603687
Si Si4 0.172178 0.465510 0.469914
Si Si5 0.792998 0.713434 0.114158
Si Si6 0.198619 0.007887 0.210586
Si Si7 0.193704 0.865217 0.844510
Si Si8 0.056271 0.742711 0.308865
O O1 0.446053 0.124368 0.667672
O O2 0.353968 0.098564 0.530579
O O3 0.404119 0.207019 0.445591
O O4 0.340362 0.175693 0.898926
O O5 0.964858 0.308570 0.484841
O O6 0.323643 0.735850 0.718459
O O7 0.342221 0.659018 0.344801
O O8 0.420737 0.703569 0.562687
O O9 0.341709 0.632637 0.848330
O O10 0.154770 0.495834 0.753627
O O11 0.243026 0.469004 0.368765
O O12 0.750751 0.671765 0.319779
O O13 0.750000 0.750000 0.000000
O O14 0.217256 0.073974 0.214369
O O15 0.164428 0.995618 0.506766
O O16 0.000000 0.764962 0.250000
#
# Coordination Sequence:
#
# PCOD9269287 Si02
#       8
#     8   4   8   8   8   8   8   8
#     4  11  22  40  60  86 118 161 213 254 304 362
#     4  10  22  40  62  82 116 160 212 254 312 354
#     4  11  22  38  56  90 125 155 196 240 305 375
#     4  10  23  38  59  84 111 154 209 260 302 347
#     4  10  20  34  54  85 120 156 191 238 303 373
#     4  10  20  37  56  81 114 159 203 235 292 351
#     4  11  23  36  57  86 127 159 195 249 298 365
#     4  10  22  38  64  86 120 163 202 252 306 368
#
# _framework density 20.879698999999999
#
# number of rings (size 3 to 8) (size 9 to 14) (size 15 to 20)
#    0.000    1.600    1.333    4.400    3.733    6.400 
#    0.000    0.667    0.000    0.000    0.000    0.000 
#    0.000   10.667    0.000    0.000    0.000    0.000 
#
# Total GULP energy -167090.739815 kJ/mol
# GULP energy per Si atom -5569.691327 kJ/mol
# Density = 2.083218 g / cm^3
# Si number density = 20.879699 Si / 1000 Ang^3
#
#
#
# Elastic Constant Matrix: (Units=GPa)
#
#
# Indices 1 2 3 4 5 6 
#
# 1 86.9919 20.8098 14.9740 0.0000 20.9422 0.0000
# 2 20.8098 28.6222 -14.4181 0.0000 4.4923 0.0000
# 3 14.9740 -14.4181 68.5547 0.0000 20.6771 0.0000
# 4 0.0000 0.0000 0.0000 15.5292 0.0000 8.9926
# 5 20.9422 4.4923 20.6771 0.0000 29.8922 0.0000
# 6 0.0000 0.0000 0.0000 8.9926 0.0000 18.3654
#
#
#
# Elastic Compliance Matrix: (Units=1/GPa)
#
#
# Indices 1 2 3 4 5 6 
#
# 1 0.017222 -0.013771 -0.004603 0.000000 -0.006812 0.000000
# 2 -0.013771 0.055884 0.018176 0.000000 -0.011324 0.000000
# 3 -0.004603 0.018176 0.024346 0.000000 -0.016347 0.000000
# 4 0.000000 0.000000 0.000000 0.089879 0.000000 -0.044009
# 5 -0.006812 -0.011324 -0.016347 0.000000 0.051235 0.000000
# 6 0.000000 0.000000 0.000000 -0.044009 0.000000 0.076000
#
#
# Mechanical properties :
#
#
# Convention : Reuss Voigt Hill
#
# Bulk Modulus (GPa) = 10.30339 25.21114 17.75726
# Shear Modulus (GPa) = 14.39625 23.61089 19.00357
#
# Velocity S-wave (km/s) = 2.62865 3.36639 3.02013
# Velocity P-wave (km/s) = 3.76277 5.21640 4.54804
#
# Compressibility (1/GPa) = 0.09705546
#
# Stress axis : x y z
#
# Youngs Moduli (GPa) = 58.06617 17.89432 41.07505
#
# Poissons Ratio (x) = 0.24642 0.18908
# Poissons Ratio (y) = 0.79962 -0.74660
# Poissons Ratio (z) = 0.26730 -0.32526
#
# Static dielectric constant tensor:
#      x y z
#    x 4.183820 0.000000 -2.540860 
#    y 0.000000 1.809090 0.000000 
#    z -2.540860 0.000000 4.788540 
# 
# From -- ./inp_files/17421.got.cif
#   From: 2010.05.17/outbox.cif.g08.bks.cpg/sg15_9_cif.got.tgz:17421.got - 2010.06.03 18:47:42.
