data_PCOD9269864
_publ_section_title
;
Structure prediction by ZEFSAII (Michael W. Deem and Ramdas Pophale) SiO2 
 PCOD9269864
Probable space group: C 2/C
;
_chemical_formula_sum "Si O2"
_cell_formula_units_Z 48
_cell_length_a 12.949804
_cell_length_b 20.935915
_cell_length_c 21.609297
_cell_angle_alpha 90.000000
_cell_angle_beta 20.049418
_cell_angle_gamma 90.000000
_cell_volume 2008.515749
_symmetry_space_group_name_H-M "C 2/C"
_symmetry_group_IT_number 15
_symmetry_cell_setting 'monoclinic'
loop_
_space_group_symop_operation_xyz
x,y,z
-x,y,1/2-z
-x,-y,-z
x,-y,1/2+z
1/2+x,1/2+y,z
1/2-x,1/2+y,1/2-z
1/2-x,1/2-y,-z
1/2+x,1/2-y,1/2+z
loop_
_atom_site_type_symbol
_atom_site_label
_atom_site_fract_x
_atom_site_fract_y
_atom_site_fract_z
Si Si1 0.182337 0.782639 0.413088
Si Si2 0.974635 0.562061 0.426340
Si Si3 0.084963 0.077295 0.002892
Si Si4 0.856561 0.417796 0.535551
Si Si5 0.028464 0.292073 0.371772
Si Si6 0.226300 0.058206 0.444798
O O1 0.500000 0.747912 0.250000
O O2 0.916702 0.743679 0.593983
O O3 0.200271 0.790700 0.329691
O O4 0.197083 0.850728 0.439319
O O5 0.952958 0.487328 0.456610
O O6 0.719702 0.580464 0.519197
O O7 0.279654 0.573778 0.215348
O O8 0.988039 0.595636 0.485254
O O9 0.040194 0.064860 0.954284
O O10 0.273202 0.018429 0.923233
O O11 0.500000 0.420295 0.750000
O O12 0.930727 0.363163 0.444579
O O13 0.750000 0.250000 0.500000
O O14 0.500000 0.086803 0.250000
#
# Coordination Sequence:
#
# PCOD9269864 Si02
#       6
#     8   8   8   8   8   8
#     4  10  22  36  60  93 119 162 202 261 317 364
#     4  10  23  36  57  89 122 168 197 256 312 378
#     4  10  20  34  63  84 122 157 205 254 306 373
#     4  11  23  39  59  86 129 164 206 252 318 383
#     4  10  23  38  60  91 124 159 210 262 313 369
#     4   9  19  33  52  87 116 153 197 245 304 364
#
# _framework density 23.898244999999999
#
# number of rings (size 3 to 8) (size 9 to 14) (size 15 to 20)
#    0.000    2.000    0.000    3.000   18.667    0.000 
#    0.000    0.000    0.000    1.000    0.000    0.000 
#    0.000    0.000    0.000    0.000    0.000    0.000 
#
# Total GULP energy -133830.176607 kJ/mol
# GULP energy per Si atom -5576.257359 kJ/mol
# Density = 2.384385 g / cm^3
# Si number density = 23.898245 Si / 1000 Ang^3
#
#
#
# Elastic Constant Matrix: (Units=GPa)
#
#
# Indices 1 2 3 4 5 6 
#
# 1 162.9864 10.8211 27.0783 0.4893 40.4164 0.0459
# 2 10.8211 74.3205 18.5617 2.3749 25.5984 0.2589
# 3 27.0783 18.5617 69.6773 3.5623 42.9883 0.4600
# 4 0.4893 2.3749 3.5623 24.6325 -0.2187 19.4846
# 5 40.4164 25.5984 42.9883 -0.2187 45.2722 0.0151
# 6 0.0459 0.2589 0.4600 19.4846 0.0151 30.5229
#
#
#
# Elastic Compliance Matrix: (Units=1/GPa)
#
#
# Indices 1 2 3 4 5 6 
#
# 1 0.008450 0.002160 0.003983 -0.002013 -0.012557 0.001200
# 2 0.002160 0.017818 0.004996 -0.004963 -0.016773 0.002947
# 3 0.003983 0.004996 0.038694 -0.012236 -0.043184 0.007201
# 4 -0.002013 -0.004963 -0.012236 0.086572 0.016658 -0.055043
# 5 -0.012557 -0.016773 -0.043184 0.016658 0.083872 -0.009864
# 6 0.001200 0.002947 0.007201 -0.055043 -0.009864 0.067769
#
#
# Mechanical properties :
#
#
# Convention : Reuss Voigt Hill
#
# Bulk Modulus (GPa) = 11.46250 46.65625 29.05938
# Shear Modulus (GPa) = 16.13021 36.78707 26.45864
#
# Velocity S-wave (km/s) = 2.60081 3.92767 3.33098
# Velocity P-wave (km/s) = 3.71829 6.33515 5.19422
#
# Compressibility (1/GPa) = 0.08724100
#
# Stress axis : x y z
#
# Youngs Moduli (GPa) = 118.34461 56.12217 25.84367
#
# Poissons Ratio (x) = -0.12123 -0.10294
# Poissons Ratio (y) = -0.25565 -0.12912
# Poissons Ratio (z) = -0.47137 -0.28039
#
# Static dielectric constant tensor:
#      x y z
#    x 2.204590 0.004620 -0.175530 
#    y 0.004620 1.955190 -0.004870 
#    z -0.175530 -0.004870 2.185260 
# 
# From -- ./inp_files/275042.got.cif
#   From: 2010.05.17/outbox.cif.g08.bks.cpg/sg15_138_cif.got.tgz:275042.got - 2010.06.03 18:47:42.
