data_PCOD9269408
_publ_section_title
;
Structure prediction by ZEFSAII (Michael W. Deem and Ramdas Pophale) SiO2 
 PCOD9269408
Probable space group: C 2/C
;
_chemical_formula_sum "Si O2"
_cell_formula_units_Z 52
_cell_length_a 11.260322
_cell_length_b 15.422795
_cell_length_c 19.024162
_cell_angle_alpha 90.000000
_cell_angle_beta 137.227110
_cell_angle_gamma 90.000000
_cell_volume 2243.620303
_symmetry_space_group_name_H-M "C 2/C"
_symmetry_group_IT_number 15
_symmetry_cell_setting 'monoclinic'
loop_
_space_group_symop_operation_xyz
x,y,z
-x,y,1/2-z
-x,-y,-z
x,-y,1/2+z
1/2+x,1/2+y,z
1/2-x,1/2+y,1/2-z
1/2-x,1/2-y,-z
1/2+x,1/2-y,1/2+z
loop_
_atom_site_type_symbol
_atom_site_label
_atom_site_fract_x
_atom_site_fract_y
_atom_site_fract_z
Si Si1 0.500000 0.216784 0.750000
Si Si2 0.894695 0.668668 0.132706
Si Si3 0.812783 0.707001 0.868407
Si Si4 0.242635 0.163388 0.276158
Si Si5 0.192827 0.484510 0.992485
Si Si6 0.220145 0.473310 0.169071
Si Si7 0.147961 0.338060 0.455729
O O1 0.339997 0.280599 0.697790
O O2 0.457108 0.160499 0.663457
O O3 0.790424 0.755156 0.109919
O O4 0.777201 0.592070 0.049474
O O5 0.000000 0.641643 0.250000
O O6 0.050007 0.679410 0.143813
O O7 0.831115 0.790659 0.826113
O O8 0.721411 0.625433 0.787683
O O9 0.008464 0.669356 0.959317
O O10 0.195962 0.062095 0.265967
O O11 0.270491 0.578617 0.010525
O O12 0.983386 0.506989 0.899813
O O13 0.237222 0.466257 0.092157
O O14 0.250000 0.250000 0.500000
#
# Coordination Sequence:
#
# PCOD9269408 Si02
#       7
#     4   8   8   8   8   8   8
#     4  10  20  34  56  82 108 156 194 234 286 354
#     4   9  18  34  56  80 115 140 191 243 286 338
#     4   9  19  35  56  84 111 150 192 239 293 345
#     4   9  18  35  54  80 115 146 187 237 286 342
#     4   9  18  31  54  79 104 153 187 230 287 342
#     4   9  17  33  54  79 112 145 190 228 287 351
#     4  10  20  35  56  79 115 151 198 238 287 346
#
# _framework density 23.176826999999999
#
# number of rings (size 3 to 8) (size 9 to 14) (size 15 to 20)
#    0.000    2.769    0.000    0.923    1.077    1.846 
#    6.923    0.769    0.000    0.000    0.000    0.000 
#    0.000    0.000    0.000    0.000    0.000    0.000 
#
# Total GULP energy -144806.675789 kJ/mol
# GULP energy per Si atom -5569.487530 kJ/mol
# Density = 2.312408 g / cm^3
# Si number density = 23.176827 Si / 1000 Ang^3
#
#
#
# Elastic Constant Matrix: (Units=GPa)
#
#
# Indices 1 2 3 4 5 6 
#
# 1 103.8279 46.6279 10.9856 0.0000 -12.2935 0.0000
# 2 46.6279 167.5695 20.4025 0.0000 -14.2342 0.0000
# 3 10.9856 20.4025 45.7826 0.0000 -16.8761 0.0000
# 4 0.0000 0.0000 0.0000 29.2877 0.0000 -10.9912
# 5 -12.2935 -14.2342 -16.8761 0.0000 23.8653 0.0000
# 6 0.0000 0.0000 0.0000 -10.9912 0.0000 39.8186
#
#
#
# Elastic Compliance Matrix: (Units=1/GPa)
#
#
# Indices 1 2 3 4 5 6 
#
# 1 0.011391 -0.002820 0.000090 0.000000 0.004249 0.000000
# 2 -0.002820 0.007111 -0.001981 0.000000 0.001388 0.000000
# 3 0.000090 -0.001981 0.030142 0.000000 0.020179 0.000000
# 4 0.000000 0.000000 0.000000 0.038090 0.000000 0.010514
# 5 0.004249 0.001388 0.020179 0.000000 0.059188 0.000000
# 6 0.000000 0.000000 0.000000 0.010514 0.000000 0.028016
#
#
# Mechanical properties :
#
#
# Convention : Reuss Voigt Hill
#
# Bulk Modulus (GPa) = 25.49526 52.57912 39.03719
# Shear Modulus (GPa) = 25.45374 34.53859 29.99617
#
# Velocity S-wave (km/s) = 3.31757 3.86453 3.60144
# Velocity P-wave (km/s) = 5.06944 6.53055 5.84582
#
# Compressibility (1/GPa) = 0.03922298
#
# Stress axis : x y z
#
# Youngs Moduli (GPa) = 87.78642 140.61966 33.17637
#
# Poissons Ratio (x) = 0.39650 -0.00297
# Poissons Ratio (y) = 0.24753 0.06571
# Poissons Ratio (z) = -0.00787 0.27853
#
# Static dielectric constant tensor:
#      x y z
#    x 1.945620 0.000000 0.033050 
#    y 0.000000 2.001630 0.000000 
#    z 0.033050 0.000000 2.001330 
# 
# From -- ./inp_files/237510.got.cif
#   From: 2010.05.17/outbox.cif.g08.bks.cpg/sg15_119_cif.got.tgz:237510.got - 2010.06.03 18:47:42.
