data_PCOD9269602
_publ_section_title
;
Structure prediction by ZEFSAII (Michael W. Deem and Ramdas Pophale) SiO2 
 PCOD9269602
Probable space group: C 2/C
;
_chemical_formula_sum "Si O2"
_cell_formula_units_Z 52
_cell_length_a 13.497760
_cell_length_b 17.804478
_cell_length_c 13.489810
_cell_angle_alpha 90.000000
_cell_angle_beta 121.758987
_cell_angle_gamma 90.000000
_cell_volume 2756.471274
_symmetry_space_group_name_H-M "C 2/C"
_symmetry_group_IT_number 15
_symmetry_cell_setting 'monoclinic'
loop_
_space_group_symop_operation_xyz
x,y,z
-x,y,1/2-z
-x,-y,-z
x,-y,1/2+z
1/2+x,1/2+y,z
1/2-x,1/2+y,1/2-z
1/2-x,1/2-y,-z
1/2+x,1/2-y,1/2+z
loop_
_atom_site_type_symbol
_atom_site_label
_atom_site_fract_x
_atom_site_fract_y
_atom_site_fract_z
Si Si1 0.794410 0.250125 0.911971
Si Si2 0.138856 0.468689 0.854758
Si Si3 0.500000 0.246976 0.250000
Si Si4 0.079708 0.576139 0.532684
Si Si5 0.950462 0.243485 0.506963
Si Si6 0.126945 0.377754 0.275904
Si Si7 0.270245 0.836427 0.710961
O O1 0.714804 0.189539 0.815827
O O2 0.778266 0.323401 0.833611
O O3 0.927887 0.224620 0.980924
O O4 0.750000 0.250000 0.000000
O O5 0.166261 0.556525 0.869650
O O6 0.216245 0.421605 0.818800
O O7 0.000000 0.462215 0.750000
O O8 0.154382 0.439184 0.973946
O O9 0.541939 0.284357 0.374751
O O10 0.612671 0.200509 0.273591
O O11 0.046360 0.664535 0.494200
O O12 0.123231 0.583720 0.667206
O O13 0.000000 0.500000 0.500000
O O14 0.840588 0.206275 0.394643
O O15 0.000000 0.353043 0.250000
#
# Coordination Sequence:
#
# PCOD9269602 Si02
#       7
#     8   8   4   8   8   8   8
#     4  11  25  39  60  85 127 168 215 257 319 384
#     4  11  21  35  60  90 121 158 203 259 319 369
#     4  10  20  34  58  86 122 146 198 248 312 370
#     4  12  21  35  61  90 124 154 204 263 317 365
#     4  11  23  37  61  91 123 162 203 259 315 378
#     4  11  23  38  58  89 123 159 210 263 312 370
#     4  11  21  39  59  91 122 160 205 261 319 384
#
# _framework density 18.864699000000002
#
# number of rings (size 3 to 8) (size 9 to 14) (size 15 to 20)
#    0.000    0.923    6.923    2.308    0.000    0.000 
#    0.000    0.769    0.000    0.000    0.000    0.000 
#    2.308    0.000    0.000    0.000    0.000    0.000 
#
# Total GULP energy -144738.648931 kJ/mol
# GULP energy per Si atom -5566.871113 kJ/mol
# Density = 1.882176 g / cm^3
# Si number density = 18.864699 Si / 1000 Ang^3
#
#
#
# Elastic Constant Matrix: (Units=GPa)
#
#
# Indices 1 2 3 4 5 6 
#
# 1 77.8033 9.9020 18.5282 0.0000 -10.2597 0.0000
# 2 9.9020 57.0549 -10.5939 0.0000 11.3328 0.0000
# 3 18.5282 -10.5939 64.0815 0.0000 -10.5246 0.0000
# 4 0.0000 0.0000 0.0000 35.1989 0.0000 -1.6495
# 5 -10.2597 11.3328 -10.5246 0.0000 39.1223 0.0000
# 6 0.0000 0.0000 0.0000 -1.6495 0.0000 25.6507
#
#
#
# Elastic Compliance Matrix: (Units=1/GPa)
#
#
# Indices 1 2 3 4 5 6 
#
# 1 0.014948 -0.004191 -0.004364 0.000000 0.003960 0.000000
# 2 -0.004191 0.020099 0.003555 0.000000 -0.005965 0.000000
# 3 -0.004364 0.003555 0.017888 0.000000 0.002638 0.000000
# 4 0.000000 0.000000 0.000000 0.028496 0.000000 0.001832
# 5 0.003960 -0.005965 0.002638 0.000000 0.029037 0.000000
# 6 0.000000 0.000000 0.000000 0.001832 0.000000 0.039103
#
#
# Mechanical properties :
#
#
# Convention : Reuss Voigt Hill
#
# Bulk Modulus (GPa) = 23.29173 26.06803 24.67988
# Shear Modulus (GPa) = 28.75482 32.06792 30.41137
#
# Velocity S-wave (km/s) = 3.90842 4.12745 4.01943
# Velocity P-wave (km/s) = 5.72199 6.04672 5.88660
#
# Compressibility (1/GPa) = 0.04293370
#
# Stress axis : x y z
#
# Youngs Moduli (GPa) = 66.89900 49.75296 55.90346
#
# Poissons Ratio (x) = 0.20853 0.24399
# Poissons Ratio (y) = 0.28039 -0.19873
# Poissons Ratio (z) = 0.29198 -0.17687
#
# Static dielectric constant tensor:
#      x y z
#    x 1.665290 0.000000 -0.031380 
#    y 0.000000 1.765620 0.000000 
#    z -0.031380 0.000000 1.721350 
# 
# From -- ./inp_files/145805.got.cif
#   From: 2010.05.17/outbox.cif.g08.bks.cpg/sg15_73_cif.got.tgz:145805.got - 2010.06.03 18:47:42.
