data_PCOD9269928
_publ_section_title
;
Structure prediction by ZEFSAII (Michael W. Deem and Ramdas Pophale) SiO2 
 PCOD9269928
Probable space group: C 2/C
;
_chemical_formula_sum "Si O2"
_cell_formula_units_Z 36
_cell_length_a 12.094538
_cell_length_b 28.079164
_cell_length_c 5.360704
_cell_angle_alpha 90.000000
_cell_angle_beta 75.785792
_cell_angle_gamma 90.000000
_cell_volume 1764.783160
_symmetry_space_group_name_H-M "C 2/C"
_symmetry_group_IT_number 15
_symmetry_cell_setting 'monoclinic'
loop_
_space_group_symop_operation_xyz
x,y,z
-x,y,1/2-z
-x,-y,-z
x,-y,1/2+z
1/2+x,1/2+y,z
1/2-x,1/2+y,1/2-z
1/2-x,1/2-y,-z
1/2+x,1/2-y,1/2+z
loop_
_atom_site_type_symbol
_atom_site_label
_atom_site_fract_x
_atom_site_fract_y
_atom_site_fract_z
Si Si1 0.000000 0.807166 0.250000
Si Si2 0.382364 0.227578 0.639114
Si Si3 0.863684 0.021923 0.369836
Si Si4 0.623260 0.369038 0.548275
Si Si5 0.310703 0.802823 0.682762
O O1 0.956851 0.771793 0.491310
O O2 0.098947 0.841066 0.303952
O O3 0.369555 0.190918 0.417622
O O4 0.258741 0.253430 0.745505
O O5 0.396752 0.204603 0.904490
O O6 0.848271 0.075389 0.479286
O O7 0.000000 0.014450 0.250000
O O8 0.818643 0.987779 0.615373
O O9 0.500000 0.366519 0.750000
O O10 0.720023 0.342022 0.648973
#
# Coordination Sequence:
#
# PCOD9269928 Si02
#       5
#     4   8   8   8   8
#     4  12  22  32  48  74  92 132 172 202 220 292
#     4  10  21  33  48  64  97 121 162 201 245 261
#     4   9  20  33  46  64  92 121 154 201 240 267
#     4  11  22  31  50  70  93 127 174 195 226 286
#     4  10  20  35  46  67  92 127 155 208 237 273
#
# _framework density 20.399107000000001
#
# number of rings (size 3 to 8) (size 9 to 14) (size 15 to 20)
#    0.000    1.778    2.222    4.000    7.778    0.000 
#    0.000    0.000    0.000    0.000    0.000    0.000 
#    0.000    0.000    0.000   20.000    0.000    0.000 
#
# Total GULP energy -100412.268513 kJ/mol
# GULP energy per Si atom -5578.459362 kJ/mol
# Density = 2.035268 g / cm^3
# Si number density = 20.399107 Si / 1000 Ang^3
#
#
#
# Elastic Constant Matrix: (Units=GPa)
#
#
# Indices 1 2 3 4 5 6 
#
# 1 28.0199 31.6445 32.6256 0.0000 1.9617 0.0000
# 2 31.6445 82.5950 46.5719 0.0000 9.7886 0.0000
# 3 32.6256 46.5719 168.7779 0.0000 16.6287 0.0000
# 4 0.0000 0.0000 0.0000 13.6100 0.0000 -1.1836
# 5 1.9617 9.7886 16.6287 0.0000 42.3265 0.0000
# 6 0.0000 0.0000 0.0000 -1.1836 0.0000 14.8289
#
#
#
# Elastic Compliance Matrix: (Units=1/GPa)
#
#
# Indices 1 2 3 4 5 6 
#
# 1 0.070681 -0.023331 -0.007733 0.000000 0.005158 0.000000
# 2 -0.023331 0.022177 -0.001260 0.000000 -0.003553 0.000000
# 3 -0.007733 -0.001260 0.008014 0.000000 -0.002499 0.000000
# 4 0.000000 0.000000 0.000000 0.073989 0.000000 0.005906
# 5 0.005158 -0.003553 -0.002499 0.000000 0.025190 0.000000
# 6 0.000000 0.000000 0.000000 0.005906 0.000000 0.067907
#
#
# Mechanical properties :
#
#
# Convention : Reuss Voigt Hill
#
# Bulk Modulus (GPa) = 27.60556 55.67520 41.64038
# Shear Modulus (GPa) = 14.50621 25.38980 19.94801
#
# Velocity S-wave (km/s) = 2.66958 3.53179 3.13051
# Velocity P-wave (km/s) = 4.80253 6.63201 5.78999
#
# Compressibility (1/GPa) = 0.03622459
#
# Stress axis : x y z
#
# Youngs Moduli (GPa) = 14.14807 45.09152 124.78830
#
# Poissons Ratio (x) = 1.05201 0.96504
# Poissons Ratio (y) = 0.33008 0.15717
# Poissons Ratio (z) = 0.10941 0.05679
#
# Static dielectric constant tensor:
#      x y z
#    x 1.903770 0.000000 0.023270 
#    y 0.000000 1.707070 0.000000 
#    z 0.023270 0.000000 1.857600 
# 
# From -- ./inp_files/7743.got.cif
#   From: 2010.05.17/outbox.cif.g08.bks.cpg/sg15_4_cif.got.tgz:7743.got - 2010.06.03 18:47:42.
