data_PCOD9269592
_publ_section_title
;
Structure prediction by ZEFSAII (Michael W. Deem and Ramdas Pophale) SiO2 
 PCOD9269592
Probable space group: C 2/C
;
_chemical_formula_sum "Si O2"
_cell_formula_units_Z 56
_cell_length_a 17.819119
_cell_length_b 9.444650
_cell_length_c 23.599449
_cell_angle_alpha 90.000000
_cell_angle_beta 35.850902
_cell_angle_gamma 90.000000
_cell_volume 2326.124042
_symmetry_space_group_name_H-M "C 2/C"
_symmetry_group_IT_number 15
_symmetry_cell_setting 'monoclinic'
loop_
_space_group_symop_operation_xyz
x,y,z
-x,y,1/2-z
-x,-y,-z
x,-y,1/2+z
1/2+x,1/2+y,z
1/2-x,1/2+y,1/2-z
1/2-x,1/2-y,-z
1/2+x,1/2-y,1/2+z
loop_
_atom_site_type_symbol
_atom_site_label
_atom_site_fract_x
_atom_site_fract_y
_atom_site_fract_z
Si Si1 0.152726 0.954780 0.193127
Si Si2 0.074433 0.689472 0.300996
Si Si3 0.206553 0.802271 0.587394
Si Si4 0.668094 0.311282 0.780948
Si Si5 0.066216 0.824623 0.493605
Si Si6 0.326614 0.070409 0.812805
Si Si7 0.938277 0.619480 0.495058
O O1 0.058056 0.838809 0.278765
O O2 0.178197 0.069351 0.226969
O O3 0.287352 0.877711 0.098263
O O4 0.134235 0.053636 0.147887
O O5 0.205778 0.697228 0.257885
O O6 0.103590 0.574793 0.235458
O O7 0.972242 0.622288 0.407577
O O8 0.250000 0.750000 0.500000
O O9 0.341391 0.800486 0.538781
O O10 0.134073 0.670296 0.659522
O O11 0.543416 0.347656 0.893827
O O12 0.654461 0.162865 0.755929
O O13 0.171833 0.943789 0.416175
O O14 0.001966 0.765617 0.477083
O O15 0.000000 0.500000 0.500000
#
# Coordination Sequence:
#
# PCOD9269592 Si02
#       7
#     8   8   8   8   8   8   8
#     4  11  23  35  55  92 119 156 196 242 294 360
#     4  12  21  31  56  85 125 156 182 237 297 362
#     4   9  20  43  62  77 107 152 204 254 292 338
#     4  11  19  33  56  82 121 152 190 229 290 359
#     4  10  20  34  58  85 111 156 196 233 290 357
#     4   9  21  35  51  84 111 150 192 234 287 353
#     4  12  18  33  55  86 126 156 184 230 299 365
#
# _framework density 24.074382
#
# number of rings (size 3 to 8) (size 9 to 14) (size 15 to 20)
#    0.857    0.571    5.714    1.714    0.000    1.714 
#    0.000    3.571    0.000    0.000    3.714    0.000 
#    0.000    0.000    0.000    0.000    0.000    0.000 
#
# Total GULP energy -156299.815054 kJ/mol
# GULP energy per Si atom -5582.136252 kJ/mol
# Density = 2.401959 g / cm^3
# Si number density = 24.074382 Si / 1000 Ang^3
#
#
#
# Elastic Constant Matrix: (Units=GPa)
#
#
# Indices 1 2 3 4 5 6 
#
# 1 32.1068 26.9891 21.8670 0.0000 6.8945 0.0000
# 2 26.9891 111.6192 32.2169 0.0000 18.5322 0.0000
# 3 21.8670 32.2169 172.7876 0.0000 -0.5014 0.0000
# 4 0.0000 0.0000 0.0000 31.7847 0.0000 0.8778
# 5 6.8945 18.5322 -0.5014 0.0000 32.1227 0.0000
# 6 0.0000 0.0000 0.0000 0.8778 0.0000 11.5813
#
#
#
# Elastic Compliance Matrix: (Units=1/GPa)
#
#
# Indices 1 2 3 4 5 6 
#
# 1 0.041539 -0.008271 -0.003727 0.000000 -0.004202 0.000000
# 2 -0.008271 0.012194 -0.001242 0.000000 -0.005279 0.000000
# 3 -0.003727 -0.001242 0.006495 0.000000 0.001618 0.000000
# 4 0.000000 0.000000 0.000000 0.031528 0.000000 -0.002390
# 5 -0.004202 -0.005279 0.001618 0.000000 0.035103 0.000000
# 6 0.000000 0.000000 0.000000 -0.002390 0.000000 0.086527
#
#
# Mechanical properties :
#
#
# Convention : Reuss Voigt Hill
#
# Bulk Modulus (GPa) = 29.63074 53.18441 41.40758
# Shear Modulus (GPa) = 19.91110 30.79378 25.35244
#
# Velocity S-wave (km/s) = 2.87900 3.58034 3.24865
# Velocity P-wave (km/s) = 4.83593 6.26350 5.59543
#
# Compressibility (1/GPa) = 0.03374873
#
# Stress axis : x y z
#
# Youngs Moduli (GPa) = 24.07370 82.00848 153.95400
#
# Poissons Ratio (x) = 0.67825 0.57380
# Poissons Ratio (y) = 0.19910 0.19125
# Poissons Ratio (z) = 0.08972 0.10187
#
# Static dielectric constant tensor:
#      x y z
#    x 2.105680 0.000000 0.043170 
#    y 0.000000 1.954020 0.000000 
#    z 0.043170 0.000000 1.987610 
# 
# From -- ./inp_files/281472.got.cif
#   From: 2010.05.17/outbox.cif.g08.bks.cpg/sg15_141_cif.got.tgz:281472.got - 2010.06.03 18:47:42.
