data_PCOD9269524
_publ_section_title
;
Structure prediction by ZEFSAII (Michael W. Deem and Ramdas Pophale) SiO2 
 PCOD9269524
Probable space group: C 2/C
;
_chemical_formula_sum "Si O2"
_cell_formula_units_Z 48
_cell_length_a 14.490083
_cell_length_b 5.777743
_cell_length_c 24.259269
_cell_angle_alpha 90.000000
_cell_angle_beta 92.689931
_cell_angle_gamma 90.000000
_cell_volume 2028.747543
_symmetry_space_group_name_H-M "C 2/C"
_symmetry_group_IT_number 15
_symmetry_cell_setting 'monoclinic'
loop_
_space_group_symop_operation_xyz
x,y,z
-x,y,1/2-z
-x,-y,-z
x,-y,1/2+z
1/2+x,1/2+y,z
1/2-x,1/2+y,1/2-z
1/2-x,1/2-y,-z
1/2+x,1/2-y,1/2+z
loop_
_atom_site_type_symbol
_atom_site_label
_atom_site_fract_x
_atom_site_fract_y
_atom_site_fract_z
Si Si1 0.135928 0.292314 0.771612
Si Si2 0.073899 0.811038 0.487412
Si Si3 0.138771 0.207802 0.220021
Si Si4 0.331720 0.199414 0.898582
Si Si5 0.369792 0.070463 0.107418
Si Si6 0.785192 0.153532 0.060390
O O1 0.109118 0.542571 0.744472
O O2 0.248513 0.290850 0.773991
O O3 0.103918 0.317288 0.834117
O O4 0.108988 0.041177 0.744975
O O5 0.110028 0.710497 0.544745
O O6 0.056579 0.630509 0.438497
O O7 0.158981 0.936652 0.460466
O O8 0.000000 0.000000 0.500000
O O9 0.116109 0.226318 0.154635
O O10 0.241182 0.365285 0.901302
O O11 0.291895 0.938302 0.899479
O O12 0.357098 0.798295 0.098529
O O13 0.750000 0.250000 0.000000
#
# Coordination Sequence:
#
# PCOD9269524 Si02
#       6
#     8   8   8   8   8   8
#     4   9  19  31  52  86 118 152 196 254 303 357
#     4  11  23  37  54  89 121 154 198 254 309 365
#     4   9  19  31  52  85 120 151 198 251 305 356
#     4  10  20  34  57  86 119 158 195 251 308 365
#     4  10  20  35  58  84 116 157 195 250 309 365
#     4  11  19  35  61  84 117 154 204 243 309 379
#
# _framework density 23.659915999999999
#
# number of rings (size 3 to 8) (size 9 to 14) (size 15 to 20)
#    0.000    2.000    3.333    1.000   14.000    0.667 
#    0.000    0.000    0.000    1.000    0.000    0.000 
#    0.000    0.000    0.000    0.000    0.000    0.000 
#
# Total GULP energy -133663.926552 kJ/mol
# GULP energy per Si atom -5569.330273 kJ/mol
# Density = 2.360606 g / cm^3
# Si number density = 23.659916 Si / 1000 Ang^3
#
#
#
# Elastic Constant Matrix: (Units=GPa)
#
#
# Indices 1 2 3 4 5 6 
#
# 1 26.7600 10.1265 21.3957 0.0000 -11.9061 0.0000
# 2 10.1265 139.6884 82.6724 0.0000 3.4311 0.0000
# 3 21.3957 82.6724 189.1621 0.0000 -8.1680 0.0000
# 4 0.0000 0.0000 0.0000 26.2836 0.0000 -8.5314
# 5 -11.9061 3.4311 -8.1680 0.0000 -14.9822 0.0000
# 6 0.0000 0.0000 0.0000 -8.5314 0.0000 19.5907
#
#
#
# Elastic Compliance Matrix: (Units=1/GPa)
#
#
# Indices 1 2 3 4 5 6 
#
# 1 0.031214 0.001239 -0.005013 0.000000 -0.021789 0.000000
# 2 0.001239 0.009417 -0.004108 0.000000 0.003412 0.000000
# 3 -0.005013 -0.004108 0.007601 0.000000 -0.001101 0.000000
# 4 0.000000 0.000000 0.000000 0.044310 0.000000 0.019296
# 5 -0.021789 0.003412 -0.001101 0.000000 -0.048049 0.000000
# 6 0.000000 0.000000 0.000000 0.019296 0.000000 0.059448
#
#
# Mechanical properties :
#
#
# Convention : Reuss Voigt Hill
#
# Bulk Modulus (GPa) = 30.79955 64.88886 47.84420
# Shear Modulus (GPa) = 38.30616 22.27282 30.28949
#
# Velocity S-wave (km/s) = 4.02808 3.07151 3.58187
# Velocity P-wave (km/s) = 5.88896 6.32962 6.11326
#
# Compressibility (1/GPa) = 0.03246800
#
# Stress axis : x y z
#
# Youngs Moduli (GPa) = 32.03674 106.19526 131.55369
#
# Poissons Ratio (x) = -0.13160 0.65948
# Poissons Ratio (y) = -0.03970 0.54047
# Poissons Ratio (z) = 0.16060 0.43629
#
# Static dielectric constant tensor:
#      x y z
#    x 1.889510 0.000000 -0.095560 
#    y 0.000000 0.490160 0.000000 
#    z -0.095560 0.000000 1.850330 
# 
# From -- ./inp_files/275626.got.cif
#   From: 2010.05.17/outbox.cif.g08.bks.cpg/sg15_138_cif.got.tgz:275626.got - 2010.06.03 18:47:42.
