data_PCOD9269865
_publ_section_title
;
Structure prediction by ZEFSAII (Michael W. Deem and Ramdas Pophale) SiO2 
 PCOD9269865
Probable space group: C 2/C
;
_chemical_formula_sum "Si O2"
_cell_formula_units_Z 48
_cell_length_a 17.371468
_cell_length_b 6.467440
_cell_length_c 25.296391
_cell_angle_alpha 90.000000
_cell_angle_beta 63.835202
_cell_angle_gamma 90.000000
_cell_volume 2550.798810
_symmetry_space_group_name_H-M "C 2/C"
_symmetry_group_IT_number 15
_symmetry_cell_setting 'monoclinic'
loop_
_space_group_symop_operation_xyz
x,y,z
-x,y,1/2-z
-x,-y,-z
x,-y,1/2+z
1/2+x,1/2+y,z
1/2-x,1/2+y,1/2-z
1/2-x,1/2-y,-z
1/2+x,1/2-y,1/2+z
loop_
_atom_site_type_symbol
_atom_site_label
_atom_site_fract_x
_atom_site_fract_y
_atom_site_fract_z
Si Si1 0.787133 0.318497 0.915149
Si Si2 0.616535 0.041721 0.799052
Si Si3 0.089530 0.152765 0.212436
Si Si4 0.065803 0.636677 0.606754
Si Si5 0.711764 0.289852 0.204315
Si Si6 0.819136 0.065847 0.477448
O O1 0.867987 0.446326 0.913636
O O2 0.786842 0.330049 0.851978
O O3 0.798886 0.087309 0.934392
O O4 0.702068 0.422875 0.965681
O O5 0.590978 0.160427 0.753270
O O6 0.530808 0.050848 0.860476
O O7 0.693226 0.166015 0.803698
O O8 0.656396 0.826510 0.766103
O O9 0.087286 0.242744 0.154722
O O10 0.000000 0.033576 0.250000
O O11 0.167104 0.004810 0.202853
O O12 0.091458 0.810592 0.555743
O O13 0.750000 0.250000 0.500000
#
# Coordination Sequence:
#
# PCOD9269865 Si02
#       6
#     8   8   8   8   8   8
#     4  10  20  34  63  85 109 151 197 240 285 343
#     4  11  24  36  53  85 125 153 187 231 293 350
#     4  10  21  34  55  82 114 151 189 233 284 345
#     4  10  20  37  59  86 113 149 196 243 280 341
#     4  12  22  37  54  85 119 157 185 236 295 350
#     4   9  19  37  59  88 112 143 200 246 284 327
#
# _framework density 18.817636
#
# number of rings (size 3 to 8) (size 9 to 14) (size 15 to 20)
#    0.000    1.667    5.000    0.000    2.333    0.000 
#    0.000    0.833    0.000    9.000    0.000    0.000 
#    0.000    0.000    0.000    0.000    0.000    0.000 
#
# Total GULP energy -133694.067946 kJ/mol
# GULP energy per Si atom -5570.586164 kJ/mol
# Density = 1.877481 g / cm^3
# Si number density = 18.817636 Si / 1000 Ang^3
#
#
#
# Elastic Constant Matrix: (Units=GPa)
#
#
# Indices 1 2 3 4 5 6 
#
# 1 85.6048 23.9165 21.3801 -0.0001 -23.4558 0.0004
# 2 23.9165 75.4193 28.8436 0.0005 -16.2644 0.0004
# 3 21.3801 28.8436 58.8708 -0.0001 -25.6150 0.0001
# 4 -0.0001 0.0005 -0.0001 15.1026 0.0000 4.1315
# 5 -23.4558 -16.2644 -25.6150 0.0000 23.4778 0.0005
# 6 0.0004 0.0004 0.0001 4.1315 0.0005 20.4371
#
#
#
# Elastic Compliance Matrix: (Units=1/GPa)
#
#
# Indices 1 2 3 4 5 6 
#
# 1 0.016612 -0.002534 0.003172 0.000000 0.018301 -0.000001
# 2 -0.002534 0.017007 -0.006449 -0.000001 0.002214 0.000000
# 3 0.003172 -0.006449 0.035084 0.000001 0.036979 -0.000001
# 4 0.000000 -0.000001 0.000001 0.070090 0.000001 -0.014169
# 5 0.018301 0.002214 0.036979 0.000001 0.102756 -0.000003
# 6 -0.000001 0.000000 -0.000001 -0.014169 -0.000003 0.051795
#
#
# Mechanical properties :
#
#
# Convention : Reuss Voigt Hill
#
# Bulk Modulus (GPa) = 17.51933 40.90835 29.21384
# Shear Modulus (GPa) = 15.43245 21.52048 18.47647
#
# Velocity S-wave (km/s) = 2.86686 3.38543 3.13688
# Velocity P-wave (km/s) = 4.50430 6.08836 5.35523
#
# Compressibility (1/GPa) = 0.05707979
#
# Stress axis : x y z
#
# Youngs Moduli (GPa) = 60.19731 58.80101 28.50320
#
# Poissons Ratio (x) = 0.14901 -0.09040
# Poissons Ratio (y) = 0.15255 0.18381
# Poissons Ratio (z) = -0.19092 0.37919
#
# Static dielectric constant tensor:
#      x y z
#    x 1.630120 0.000000 -0.052000 
#    y 0.000000 1.671220 0.000000 
#    z -0.052000 0.000000 1.704770 
# 
# From -- ./inp_files/275697.got.cif
#   From: 2010.05.17/outbox.cif.g08.bks.cpg/sg15_138_cif.got.tgz:275697.got - 2010.06.03 18:47:42.
