data_PCOD9269036
_publ_section_title
;
Structure prediction by ZEFSAII (Michael W. Deem and Ramdas Pophale) SiO2 
 PCOD9269036
Probable space group: C 2/C
;
_chemical_formula_sum "Si O2"
_cell_formula_units_Z 48
_cell_length_a 18.189609
_cell_length_b 17.534055
_cell_length_c 7.630045
_cell_angle_alpha 90.000000
_cell_angle_beta 104.447481
_cell_angle_gamma 90.000000
_cell_volume 2356.552809
_symmetry_space_group_name_H-M "C 2/C"
_symmetry_group_IT_number 15
_symmetry_cell_setting 'monoclinic'
loop_
_space_group_symop_operation_xyz
x,y,z
-x,y,1/2-z
-x,-y,-z
x,-y,1/2+z
1/2+x,1/2+y,z
1/2-x,1/2+y,1/2-z
1/2-x,1/2-y,-z
1/2+x,1/2-y,1/2+z
loop_
_atom_site_type_symbol
_atom_site_label
_atom_site_fract_x
_atom_site_fract_y
_atom_site_fract_z
Si Si1 0.787134 0.611242 0.196767
Si Si2 0.626503 0.352459 0.077195
Si Si3 0.621330 0.331145 0.661257
Si Si4 0.579784 0.489200 0.700062
Si Si5 0.760374 0.046896 0.998159
Si Si6 0.414398 0.223719 0.163110
O O1 0.710185 0.661543 0.163732
O O2 0.797984 0.586084 0.404692
O O3 0.769903 0.530992 0.095185
O O4 0.854213 0.656523 0.147869
O O5 0.582838 0.428638 0.112605
O O6 0.712028 0.387342 0.118992
O O7 0.610576 0.287219 0.207205
O O8 0.610124 0.326334 0.866034
O O9 0.585366 0.412855 0.584528
O O10 0.587608 0.263999 0.527259
O O11 0.500000 0.483508 0.750000
O O12 0.660150 0.476883 0.853616
O O13 0.500000 0.198998 0.250000
#
# Coordination Sequence:
#
# PCOD9269036 Si02
#       6
#     8   8   8   8   8   8
#     4  10  22  45  64  95 123 163 217 262 316 372
#     4  10  21  39  62  95 131 162 214 244 321 374
#     4  10  24  37  65  92 126 175 206 253 309 378
#     4  10  20  33  61  97 134 168 205 251 309 379
#     4  10  20  38  68  90 120 167 216 260 302 377
#     4  12  27  43  63  93 134 169 205 266 320 373
#
# _framework density 20.368735999999998
#
# number of rings (size 3 to 8) (size 9 to 14) (size 15 to 20)
#    0.000    2.000    3.333    2.000    7.000    5.333 
#    3.000    0.833    0.000    0.000    0.000    0.000 
#    0.000    0.000    0.000    0.000    0.000    0.000 
#
# Total GULP energy -133893.792344 kJ/mol
# GULP energy per Si atom -5578.908014 kJ/mol
# Density = 2.032238 g / cm^3
# Si number density = 20.368736 Si / 1000 Ang^3
#
#
#
# Elastic Constant Matrix: (Units=GPa)
#
#
# Indices 1 2 3 4 5 6 
#
# 1 95.3052 42.2533 21.2133 0.0000 -9.6989 0.0000
# 2 42.2533 49.6810 12.7210 0.0000 -8.6962 0.0000
# 3 21.2133 12.7210 40.6647 0.0000 -12.4468 0.0000
# 4 0.0000 0.0000 0.0000 21.4002 0.0000 -3.9283
# 5 -9.6989 -8.6962 -12.4468 0.0000 17.2604 0.0000
# 6 0.0000 0.0000 0.0000 -3.9283 0.0000 -1.0734
#
#
#
# Elastic Compliance Matrix: (Units=1/GPa)
#
#
# Indices 1 2 3 4 5 6 
#
# 1 0.017712 -0.013881 -0.005122 0.000000 -0.000735 0.000000
# 2 -0.013881 0.033613 -0.000613 0.000000 0.008693 0.000000
# 3 -0.005122 -0.000613 0.033980 0.000000 0.021316 0.000000
# 4 0.000000 0.000000 0.000000 0.027951 0.000000 -0.102292
# 5 -0.000735 0.008693 0.021316 0.000000 0.077274 0.000000
# 6 0.000000 0.000000 0.000000 -0.102292 0.000000 -0.557258
#
#
# Mechanical properties :
#
#
# Convention : Reuss Voigt Hill
#
# Bulk Modulus (GPa) = 21.70518 37.55847 29.63182
# Shear Modulus (GPa) = -16.01857 14.81498 -0.60179
#
# Velocity S-wave (km/s) = -2.80738 2.69985 -0.54414
# Velocity P-wave (km/s) = 0.41325 5.31020 3.76623
#
# Compressibility (1/GPa) = 0.04607196
#
# Stress axis : x y z
#
# Youngs Moduli (GPa) = 56.45860 29.75064 29.42932
#
# Poissons Ratio (x) = 0.41297 0.15074
# Poissons Ratio (y) = 0.78370 0.01804
# Poissons Ratio (z) = 0.28920 0.01824
#
# Static dielectric constant tensor:
#      x y z
#    x 1.722770 0.000000 -0.018090 
#    y 0.000000 1.714720 0.000000 
#    z -0.018090 0.000000 1.895080 
# 
# From -- ./inp_files/48061.got.cif
#   From: 2010.05.17/outbox.cif.g08.bks.cpg/sg15_25_cif.got.tgz:48061.got - 2010.06.03 18:47:42.
