data_PCOD9269784
_publ_section_title
;
Structure prediction by ZEFSAII (Michael W. Deem and Ramdas Pophale) SiO2 
 PCOD9269784
Probable space group: C 2/C
;
_chemical_formula_sum "Si O2"
_cell_formula_units_Z 48
_cell_length_a 9.345982
_cell_length_b 25.799142
_cell_length_c 14.844252
_cell_angle_alpha 90.000000
_cell_angle_beta 39.808508
_cell_angle_gamma 90.000000
_cell_volume 2291.502422
_symmetry_space_group_name_H-M "C 2/C"
_symmetry_group_IT_number 15
_symmetry_cell_setting 'monoclinic'
loop_
_space_group_symop_operation_xyz
x,y,z
-x,y,1/2-z
-x,-y,-z
x,-y,1/2+z
1/2+x,1/2+y,z
1/2-x,1/2+y,1/2-z
1/2-x,1/2-y,-z
1/2+x,1/2-y,1/2+z
loop_
_atom_site_type_symbol
_atom_site_label
_atom_site_fract_x
_atom_site_fract_y
_atom_site_fract_z
Si Si1 0.407178 0.456736 0.942421
Si Si2 0.941136 0.174238 0.882393
Si Si3 0.641631 0.891069 0.774120
Si Si4 0.502542 0.060589 0.519777
Si Si5 0.957755 0.282332 0.664380
Si Si6 0.395269 0.565877 0.647941
O O1 0.646846 0.428882 0.829606
O O2 0.239813 0.430450 0.953846
O O3 0.448377 0.517299 0.899850
O O4 0.311107 0.451150 0.089829
O O5 0.000000 0.163349 0.750000
O O6 0.084500 0.224012 0.848698
O O7 0.983959 0.121414 0.915150
O O8 0.688450 0.195246 0.012241
O O9 0.500000 0.894085 0.750000
O O10 0.495655 0.909148 0.929854
O O11 0.708378 0.830994 0.759460
O O12 0.302998 0.071878 0.684788
O O13 0.500000 0.000000 0.500000
O O14 0.000000 0.274396 0.750000
#
# Coordination Sequence:
#
# PCOD9269784 Si02
#       6
#     8   8   8   8   8   8
#     4  11  26  41  60  91 127 168 206 254 316 383
#     4  10  20  34  60  95 123 159 207 269 312 359
#     4  11  23  41  65  92 126 167 206 256 318 375
#     4  12  26  40  61  89 127 165 209 257 308 382
#     4   9  19  36  59  90 126 158 209 260 313 364
#     4  11  24  38  65  86 128 160 211 255 321 365
#
# _framework density 20.946956
#
# number of rings (size 3 to 8) (size 9 to 14) (size 15 to 20)
#    0.000    1.333    1.667    4.000    9.333    0.000 
#    0.000    0.000    0.000    6.000    0.000    0.000 
#    0.000    0.000    0.000    0.000    0.000    0.000 
#
# Total GULP energy -134084.082054 kJ/mol
# GULP energy per Si atom -5586.836752 kJ/mol
# Density = 2.089928 g / cm^3
# Si number density = 20.946956 Si / 1000 Ang^3
#
#
#
# Elastic Constant Matrix: (Units=GPa)
#
#
# Indices 1 2 3 4 5 6 
#
# 1 81.0742 29.2464 37.0156 0.0000 4.8222 0.0000
# 2 29.2464 181.2528 18.1362 0.0000 -7.9315 0.0000
# 3 37.0156 18.1362 112.7056 0.0000 17.2542 0.0000
# 4 0.0000 0.0000 0.0000 30.7314 0.0000 1.9289
# 5 4.8222 -7.9315 17.2542 0.0000 25.6117 0.0000
# 6 0.0000 0.0000 0.0000 1.9289 0.0000 18.6926
#
#
#
# Elastic Compliance Matrix: (Units=1/GPa)
#
#
# Indices 1 2 3 4 5 6 
#
# 1 0.015183 -0.002006 -0.004606 0.000000 -0.000377 0.000000
# 2 -0.002006 0.006034 -0.000732 0.000000 0.002739 0.000000
# 3 -0.004606 -0.000732 0.011602 0.000000 -0.007175 0.000000
# 4 0.000000 0.000000 0.000000 0.032752 0.000000 -0.003380
# 5 -0.000377 0.002739 -0.007175 0.000000 0.044798 0.000000
# 6 0.000000 0.000000 0.000000 -0.003380 0.000000 0.053846
#
#
# Mechanical properties :
#
#
# Convention : Reuss Voigt Hill
#
# Bulk Modulus (GPa) = 55.15078 60.42544 57.78811
# Shear Modulus (GPa) = 27.03503 34.38276 30.70890
#
# Velocity S-wave (km/s) = 3.59645 4.05584 3.83303
# Velocity P-wave (km/s) = 6.60544 7.13040 6.87294
#
# Compressibility (1/GPa) = 0.01813211
#
# Stress axis : x y z
#
# Youngs Moduli (GPa) = 65.86197 165.73253 86.19463
#
# Poissons Ratio (x) = 0.33238 0.39703
# Poissons Ratio (y) = 0.13209 0.06306
# Poissons Ratio (z) = 0.30337 0.12125
#
# Static dielectric constant tensor:
#      x y z
#    x -10.524220 0.000000 -24.353600 
#    y 0.000000 1.821700 0.000000 
#    z -24.353600 0.000000 -46.481990 
# 
# From -- ./inp_files/138914.got.cif
#   From: 2010.05.17/outbox.cif.g08.bks.cpg/sg15_70_cif.got.tgz:138914.got - 2010.06.03 18:47:42.
