data_PCOD9269367
_publ_section_title
;
Structure prediction by ZEFSAII (Michael W. Deem and Ramdas Pophale) SiO2 
 PCOD9269367
Probable space group: C 2/C
;
_chemical_formula_sum "Si O2"
_cell_formula_units_Z 56
_cell_length_a 15.693671
_cell_length_b 30.645333
_cell_length_c 13.049114
_cell_angle_alpha 90.000000
_cell_angle_beta 27.917558
_cell_angle_gamma 90.000000
_cell_volume 2938.338979
_symmetry_space_group_name_H-M "C 2/C"
_symmetry_group_IT_number 15
_symmetry_cell_setting 'monoclinic'
loop_
_space_group_symop_operation_xyz
x,y,z
-x,y,1/2-z
-x,-y,-z
x,-y,1/2+z
1/2+x,1/2+y,z
1/2-x,1/2+y,1/2-z
1/2-x,1/2-y,-z
1/2+x,1/2-y,1/2+z
loop_
_atom_site_type_symbol
_atom_site_label
_atom_site_fract_x
_atom_site_fract_y
_atom_site_fract_z
Si Si1 0.910430 0.932501 0.126971
Si Si2 0.500000 0.134096 0.250000
Si Si3 0.736573 0.381000 0.871969
Si Si4 0.500000 0.068550 0.750000
Si Si5 0.179176 0.693739 0.883713
Si Si6 0.920054 0.382625 0.130155
Si Si7 0.939795 0.789987 0.432397
Si Si8 0.130232 0.978242 0.711161
O O1 0.734851 0.907013 0.271786
O O2 0.853867 0.975012 0.250722
O O3 0.046362 0.903807 0.052050
O O4 0.028111 0.947741 0.903083
O O5 0.660180 0.106761 0.132859
O O6 0.412458 0.164980 0.429088
O O7 0.881829 0.391105 0.629289
O O8 0.705521 0.328802 0.911362
O O9 0.575216 0.098699 0.761578
O O10 0.671159 0.040019 0.529288
O O11 0.123388 0.668646 0.839857
O O12 0.392623 0.693358 0.678519
O O13 0.122203 0.743745 0.957947
O O14 0.000000 0.783696 0.250000
O O15 0.000000 0.981108 0.750000
#
# Coordination Sequence:
#
# PCOD9269367 Si02
#       8
#     8   4   8   4   8   8   8   8
#     4  11  24  45  66  97 128 167 219 263 325 384
#     4  10  20  34  55  88 130 168 212 240 323 368
#     4  11  23  39  61  95 132 172 209 266 313 387
#     4  12  24  46  71  94 122 172 220 270 329 378
#     4  11  21  35  57  92 127 173 210 261 304 389
#     4  11  24  41  68  93 127 167 220 264 319 381
#     4  12  21  36  60  90 138 176 211 250 323 393
#     4  11  25  43  71  94 125 168 215 269 325 386
#
# _framework density 19.058388000000001
#
# number of rings (size 3 to 8) (size 9 to 14) (size 15 to 20)
#    0.000    0.857    6.429    2.143    0.000    4.571 
#    0.000    0.714    0.000    3.429    0.000    0.000 
#    0.000    0.000    0.000    0.000    0.000    0.000 
#
# Total GULP energy -156461.969379 kJ/mol
# GULP energy per Si atom -5587.927478 kJ/mol
# Density = 1.901501 g / cm^3
# Si number density = 19.058388 Si / 1000 Ang^3
#
#
#
# Elastic Constant Matrix: (Units=GPa)
#
#
# Indices 1 2 3 4 5 6 
#
# 1 128.8499 50.1359 40.9310 0.0008 -11.8112 -0.0002
# 2 50.1359 100.0412 51.3817 0.0002 5.6684 -0.0003
# 3 40.9310 51.3817 99.7654 0.0008 -7.3132 0.0000
# 4 0.0008 0.0002 0.0008 24.7537 -0.0009 -1.3300
# 5 -11.8112 5.6684 -7.3132 -0.0009 27.7135 0.0001
# 6 -0.0002 -0.0003 0.0000 -1.3300 0.0001 15.8221
#
#
#
# Elastic Compliance Matrix: (Units=1/GPa)
#
#
# Indices 1 2 3 4 5 6 
#
# 1 0.010579 -0.004832 -0.001477 0.000000 0.005107 0.000000
# 2 -0.004832 0.016431 -0.007013 0.000000 -0.007271 0.000000
# 3 -0.001477 -0.007013 0.014582 0.000000 0.004653 0.000000
# 4 0.000000 0.000000 0.000000 0.040581 0.000001 0.003411
# 5 0.005107 -0.007271 0.004653 0.000001 0.040975 0.000000
# 6 0.000000 0.000000 0.000000 0.003411 0.000000 0.063489
#
#
# Mechanical properties :
#
#
# Convention : Reuss Voigt Hill
#
# Bulk Modulus (GPa) = 66.89907 68.17264 67.53585
# Shear Modulus (GPa) = 22.90787 26.07172 24.48979
#
# Velocity S-wave (km/s) = 3.47072 3.70265 3.58856
# Velocity P-wave (km/s) = 7.15818 7.35714 7.25835
#
# Compressibility (1/GPa) = 0.01494789
#
# Stress axis : x y z
#
# Youngs Moduli (GPa) = 94.53103 60.85874 68.57541
#
# Poissons Ratio (x) = 0.29408 0.10129
# Poissons Ratio (y) = 0.45680 0.48093
# Poissons Ratio (z) = 0.13962 0.42681
#
# Static dielectric constant tensor:
#      x y z
#    x 1.677790 0.000000 -0.014770 
#    y 0.000000 1.675510 0.000000 
#    z -0.014770 0.000000 1.683240 
# 
# From -- ./inp_files/101784.got.cif
#   From: 2010.05.17/outbox.cif.g08.bks.cpg/sg15_51_cif.got.tgz:101784.got - 2010.06.03 18:47:42.
