data_PCOD9269639
_publ_section_title
;
Structure prediction by ZEFSAII (Michael W. Deem and Ramdas Pophale) SiO2 
 PCOD9269639
Probable space group: C 2/C
;
_chemical_formula_sum "Si O2"
_cell_formula_units_Z 60
_cell_length_a 16.891518
_cell_length_b 15.106331
_cell_length_c 21.174593
_cell_angle_alpha 90.000000
_cell_angle_beta 146.700419
_cell_angle_gamma 90.000000
_cell_volume 2966.390406
_symmetry_space_group_name_H-M "C 2/C"
_symmetry_group_IT_number 15
_symmetry_cell_setting 'monoclinic'
loop_
_space_group_symop_operation_xyz
x,y,z
-x,y,1/2-z
-x,-y,-z
x,-y,1/2+z
1/2+x,1/2+y,z
1/2-x,1/2+y,1/2-z
1/2-x,1/2-y,-z
1/2+x,1/2-y,1/2+z
loop_
_atom_site_type_symbol
_atom_site_label
_atom_site_fract_x
_atom_site_fract_y
_atom_site_fract_z
Si Si1 0.215367 0.318120 0.033026
Si Si2 0.732898 0.697273 0.387393
Si Si3 0.018168 0.350061 0.010007
Si Si4 0.757466 0.622973 0.545951
Si Si5 0.448746 0.564796 0.322402
Si Si6 0.500000 0.420241 0.250000
Si Si7 0.461125 0.039291 0.161289
Si Si8 0.839787 0.501947 0.815694
O O1 0.110356 0.293008 0.021418
O O2 0.361462 0.358048 0.158071
O O3 0.250000 0.250000 0.000000
O O4 0.133999 0.400581 0.947131
O O5 0.749805 0.649296 0.466413
O O6 0.687259 0.796085 0.374931
O O7 0.625613 0.641514 0.270877
O O8 0.891454 0.700012 0.461957
O O9 0.122524 0.403687 0.127413
O O10 0.930800 0.427902 0.915207
O O11 0.591908 0.599797 0.451462
O O12 0.863095 0.540891 0.619411
O O13 0.496233 0.485552 0.307415
O O14 0.324984 0.526096 0.285075
O O15 0.500000 0.092967 0.250000
O O16 0.596908 0.004536 0.212116
#
# Coordination Sequence:
#
# PCOD9269639 Si02
#       8
#     8   8   8   8   8   4   8   8
#     4  11  24  41  64  91 118 161 219 268 316 365
#     4  10  20  34  58  91 125 157 200 259 313 359
#     4   9  17  36  61  86 117 154 214 260 296 375
#     4  11  21  35  59  93 128 158 205 252 313 388
#     4  11  19  37  63  92 120 160 218 259 298 373
#     4  12  20  38  68  90 116 162 218 270 300 370
#     4  11  23  42  61  89 131 169 201 255 333 389
#     4   9  18  35  64  88 112 165 214 253 306 369
#
# _framework density 20.226602
#
# number of rings (size 3 to 8) (size 9 to 14) (size 15 to 20)
#    0.000    1.600    5.333    0.000    0.933    2.133 
#    2.400    3.333    0.000    0.000    0.000    0.000 
#    0.000    0.000    0.000    0.000    0.000    0.000 
#
# Total GULP energy -167468.111732 kJ/mol
# GULP energy per Si atom -5582.270391 kJ/mol
# Density = 2.018057 g / cm^3
# Si number density = 20.226602 Si / 1000 Ang^3
#
#
#
# Elastic Constant Matrix: (Units=GPa)
#
#
# Indices 1 2 3 4 5 6 
#
# 1 116.4144 17.4958 22.9994 0.0002 29.2770 0.0001
# 2 17.4958 47.7167 -4.5023 0.0008 10.1565 0.0002
# 3 22.9994 -4.5023 45.1088 0.0023 23.7467 0.0001
# 4 0.0002 0.0008 0.0023 1.9122 0.0005 4.3955
# 5 29.2770 10.1565 23.7467 0.0005 30.5511 -0.0001
# 6 0.0001 0.0002 0.0001 4.3955 -0.0001 17.1410
#
#
#
# Elastic Compliance Matrix: (Units=1/GPa)
#
#
# Indices 1 2 3 4 5 6 
#
# 1 0.011528 -0.002354 -0.001200 0.000009 -0.009332 -0.000002
# 2 -0.002354 0.026405 0.012304 -0.000049 -0.016086 0.000012
# 3 -0.001200 0.012304 0.043256 -0.000110 -0.036562 0.000028
# 4 0.000009 -0.000049 -0.000110 1.273874 0.000071 -0.326663
# 5 -0.009332 -0.016086 -0.036562 0.000071 0.075442 -0.000017
# 6 -0.000002 0.000012 0.000028 -0.326663 -0.000017 0.142107
#
#
# Mechanical properties :
#
#
# Convention : Reuss Voigt Hill
#
# Bulk Modulus (GPa) = 10.13285 31.24728 20.69007
# Shear Modulus (GPa) = 3.14860 21.47064 12.30962
#
# Velocity S-wave (km/s) = 1.24902 3.26161 2.46963
# Velocity P-wave (km/s) = 2.66469 5.44668 4.28759
#
# Compressibility (1/GPa) = 0.09868891
#
# Stress axis : x y z
#
# Youngs Moduli (GPa) = 86.74803 37.87178 23.11814
#
# Poissons Ratio (x) = 0.08914 0.02774
# Poissons Ratio (y) = 0.20418 -0.28444
# Poissons Ratio (z) = 0.10409 -0.46596
#
# Static dielectric constant tensor:
#      x y z
#    x 1.745850 0.000000 -0.009240 
#    y 0.000000 1.710070 0.000000 
#    z -0.009240 0.000000 1.718700 
# 
# From -- ./inp_files/277578.got.cif
#   From: 2010.05.17/outbox.cif.g08.bks.cpg/sg15_139_cif.got.tgz:277578.got - 2010.06.03 18:47:42.
