data_PCOD9269562
_publ_section_title
;
Structure prediction by ZEFSAII (Michael W. Deem and Ramdas Pophale) SiO2 
 PCOD9269562
Probable space group: C 2/C
;
_chemical_formula_sum "Si O2"
_cell_formula_units_Z 48
_cell_length_a 14.803301
_cell_length_b 17.912505
_cell_length_c 13.672566
_cell_angle_alpha 90.000000
_cell_angle_beta 141.136875
_cell_angle_gamma 90.000000
_cell_volume 2274.848048
_symmetry_space_group_name_H-M "C 2/C"
_symmetry_group_IT_number 15
_symmetry_cell_setting 'monoclinic'
loop_
_space_group_symop_operation_xyz
x,y,z
-x,y,1/2-z
-x,-y,-z
x,-y,1/2+z
1/2+x,1/2+y,z
1/2-x,1/2+y,1/2-z
1/2-x,1/2-y,-z
1/2+x,1/2-y,1/2+z
loop_
_atom_site_type_symbol
_atom_site_label
_atom_site_fract_x
_atom_site_fract_y
_atom_site_fract_z
Si Si1 0.227706 0.315488 0.103223
Si Si2 0.500000 0.776211 0.750000
Si Si3 0.000000 0.145824 0.250000
Si Si4 0.306429 0.742183 0.221400
Si Si5 0.700194 0.044173 0.691500
Si Si6 0.614641 0.101781 0.032787
Si Si7 0.221889 0.601017 0.916591
O O1 0.371346 0.274265 0.185957
O O2 0.173728 0.267063 0.150728
O O3 0.278132 0.394845 0.190296
O O4 0.096198 0.320335 0.913284
O O5 0.937020 0.197533 0.282825
O O6 0.127950 0.098251 0.400688
O O7 0.172958 0.684377 0.102094
O O8 0.288786 0.816475 0.140982
O O9 0.537726 0.078642 0.550766
O O10 0.727622 0.045978 0.830139
O O11 0.716417 0.961887 0.663424
O O12 0.610866 0.092404 0.912434
#
# Coordination Sequence:
#
# PCOD9269562 Si02
#       7
#     8   4   4   8   8   8   8
#     4  10  22  39  64  88 119 161 210 252 304 360
#     4  10  22  42  59  89 118 162 212 252 296 364
#     4  10  20  34  57  95 116 152 196 248 308 348
#     4  10  22  35  66  86 122 153 201 253 303 362
#     4  10  22  37  63  86 122 156 201 247 307 363
#     4  10  20  40  56  94 119 157 196 250 310 361
#     4  10  22  36  60  88 122 156 199 248 299 368
#
# _framework density 21.100311000000001
#
# number of rings (size 3 to 8) (size 9 to 14) (size 15 to 20)
#    0.000    2.000    0.000    3.500   14.000    0.000 
#   12.000    6.667    0.000    0.000    0.000    0.000 
#    0.000    0.000    0.000    0.000    0.000    0.000 
#
# Total GULP energy -133859.355857 kJ/mol
# GULP energy per Si atom -5577.473161 kJ/mol
# Density = 2.105229 g / cm^3
# Si number density = 21.100311 Si / 1000 Ang^3
#
#
#
# Elastic Constant Matrix: (Units=GPa)
#
#
# Indices 1 2 3 4 5 6 
#
# 1 81.5819 29.4715 12.1532 0.0000 -15.5099 0.0000
# 2 29.4715 66.5298 12.8906 0.0000 -24.0504 0.0000
# 3 12.1532 12.8906 45.7474 0.0000 -23.2306 0.0000
# 4 0.0000 0.0000 0.0000 22.1890 0.0000 -5.5446
# 5 -15.5099 -24.0504 -23.2306 0.0000 41.6202 0.0000
# 6 0.0000 0.0000 0.0000 -5.5446 0.0000 19.0320
#
#
#
# Elastic Compliance Matrix: (Units=1/GPa)
#
#
# Indices 1 2 3 4 5 6 
#
# 1 0.014839 -0.005799 -0.001677 0.000000 0.001243 0.000000
# 2 -0.005799 0.021269 0.000964 0.000000 0.010668 0.000000
# 3 -0.001677 0.000964 0.030700 0.000000 0.017068 0.000000
# 4 0.000000 0.000000 0.000000 0.048606 0.000000 0.014160
# 5 0.001243 0.010668 0.017068 0.000000 0.040181 0.000000
# 6 0.000000 0.000000 0.000000 0.014160 0.000000 0.056668
#
#
# Mechanical properties :
#
#
# Convention : Reuss Voigt Hill
#
# Bulk Modulus (GPa) = 18.59266 33.65442 26.12354
# Shear Modulus (GPa) = 20.55802 25.85781 23.20792
#
# Velocity S-wave (km/s) = 3.12476 3.50447 3.32005
# Velocity P-wave (km/s) = 4.67435 5.68854 5.20620
#
# Compressibility (1/GPa) = 0.05378467
#
# Stress axis : x y z
#
# Youngs Moduli (GPa) = 67.39175 47.01617 32.57341
#
# Poissons Ratio (x) = 0.27265 0.05462
# Poissons Ratio (y) = 0.39081 -0.03142
# Poissons Ratio (z) = 0.11301 -0.04535
#
# Static dielectric constant tensor:
#      x y z
#    x 1.809470 0.000000 0.024860 
#    y 0.000000 1.779170 0.000000 
#    z 0.024860 0.000000 1.815780 
# 
# From -- ./inp_files/113409.got.cif
#   From: 2010.05.17/outbox.cif.g08.bks.cpg/sg15_57_cif.got.tgz:113409.got - 2010.06.03 18:47:42.
