data_PCOD9269205
_publ_section_title
;
Structure prediction by ZEFSAII (Michael W. Deem and Ramdas Pophale) SiO2 
 PCOD9269205
Probable space group: C 2/C
;
_chemical_formula_sum "Si O2"
_cell_formula_units_Z 56
_cell_length_a 8.031103
_cell_length_b 19.290278
_cell_length_c 22.877913
_cell_angle_alpha 90.000000
_cell_angle_beta 53.298549
_cell_angle_gamma 90.000000
_cell_volume 2841.677232
_symmetry_space_group_name_H-M "C 2/C"
_symmetry_group_IT_number 15
_symmetry_cell_setting 'monoclinic'
loop_
_space_group_symop_operation_xyz
x,y,z
-x,y,1/2-z
-x,-y,-z
x,-y,1/2+z
1/2+x,1/2+y,z
1/2-x,1/2+y,1/2-z
1/2-x,1/2-y,-z
1/2+x,1/2-y,1/2+z
loop_
_atom_site_type_symbol
_atom_site_label
_atom_site_fract_x
_atom_site_fract_y
_atom_site_fract_z
Si Si1 0.396369 0.740767 0.890516
Si Si2 0.413467 0.827879 0.411770
Si Si3 0.850571 0.791808 0.835353
Si Si4 0.330302 0.606665 0.833003
Si Si5 0.266241 0.535781 0.971422
Si Si6 0.658846 0.892492 0.960179
Si Si7 0.079095 0.844399 0.997474
O O1 0.626528 0.768678 0.856271
O O2 0.385960 0.685947 0.840145
O O3 0.353106 0.692351 0.955991
O O4 0.228195 0.803055 0.921422
O O5 0.445410 0.763625 0.361646
O O6 0.591305 0.885343 0.360256
O O7 0.426209 0.830309 0.480346
O O8 0.165739 0.836454 0.457848
O O9 0.806283 0.860258 0.881622
O O10 0.000000 0.801240 0.750000
O O11 0.500000 0.583597 0.750000
O O12 0.333452 0.560064 0.891456
O O13 0.266952 0.453299 0.974120
O O14 0.383388 0.575207 0.998032
O O15 0.034160 0.566794 0.026537
#
# Coordination Sequence:
#
# PCOD9269205 Si02
#       7
#     8   8   8   8   8   8   8
#     4   9  18  31  50  76 105 138 169 211 271 310
#     4  10  22  33  57  83 106 134 184 228 264 310
#     4  11  21  34  53  82 112 141 172 220 276 327
#     4  10  20  34  53  80 108 140 174 220 271 327
#     4   9  19  36  55  75 105 143 184 217 262 316
#     4  10  20  35  55  80 105 140 187 224 254 316
#     4   9  17  32  54  76 103 132 173 224 259 305
#
# _framework density 19.706671
#
# number of rings (size 3 to 8) (size 9 to 14) (size 15 to 20)
#    0.000    2.286    1.429    1.286    8.000    1.143 
#    0.000    0.000    0.000    0.000    3.714    0.000 
#    0.000    0.000    0.000    0.000    0.000    0.000 
#
# Total GULP energy -155870.290765 kJ/mol
# GULP energy per Si atom -5566.796099 kJ/mol
# Density = 1.966182 g / cm^3
# Si number density = 19.706671 Si / 1000 Ang^3
#
#
#
# Elastic Constant Matrix: (Units=GPa)
#
#
# Indices 1 2 3 4 5 6 
#
# 1 72.6920 11.6399 9.2889 0.0000 -9.1908 0.0001
# 2 11.6399 69.3862 45.4558 0.0000 1.6274 0.0000
# 3 9.2889 45.4558 100.0379 0.0000 -2.9048 0.0000
# 4 0.0000 0.0000 0.0000 12.2099 0.0000 8.6918
# 5 -9.1908 1.6274 -2.9048 0.0000 17.9121 0.0000
# 6 0.0001 0.0000 0.0000 8.6918 0.0000 -1.1039
#
#
#
# Elastic Compliance Matrix: (Units=1/GPa)
#
#
# Indices 1 2 3 4 5 6 
#
# 1 0.015215 -0.002805 0.000096 0.000000 0.008077 0.000000
# 2 -0.002805 0.021245 -0.009536 0.000000 -0.004916 0.000000
# 3 0.000096 -0.009536 0.014415 0.000000 0.003253 0.000000
# 4 0.000000 0.000000 0.000000 0.012399 0.000000 0.097633
# 5 0.008077 -0.004916 0.003253 0.000000 0.060947 0.000000
# 6 0.000000 0.000000 0.000000 0.097633 0.000000 -0.137152
#
#
# Mechanical properties :
#
#
# Convention : Reuss Voigt Hill
#
# Bulk Modulus (GPa) = 37.89930 41.65392 39.77661
# Shear Modulus (GPa) = 245.67301 17.51906 131.59603
#
# Velocity S-wave (km/s) = 11.17746 2.98483 8.18061
# Velocity P-wave (km/s) = 13.63283 5.74994 10.46222
#
# Compressibility (1/GPa) = 0.02638571
#
# Stress axis : x y z
#
# Youngs Moduli (GPa) = 65.72571 47.07018 69.37401
#
# Poissons Ratio (x) = 0.13203 -0.00668
# Poissons Ratio (y) = 0.18435 0.66153
# Poissons Ratio (z) = -0.00633 0.44885
#
# Static dielectric constant tensor:
#      x y z
#    x 1.788060 0.000000 -0.016810 
#    y 0.000000 1.747350 0.000000 
#    z -0.016810 0.000000 1.696820 
# 
# From -- ./inp_files/265459.got.cif
#   From: 2010.05.17/outbox.cif.g08.bks.cpg/sg15_133_cif.got.tgz:265459.got - 2010.06.03 18:47:42.
