data_PCOD9269633
_publ_section_title
;
Structure prediction by ZEFSAII (Michael W. Deem and Ramdas Pophale) SiO2 
 PCOD9269633
Probable space group: C 2/C
;
_chemical_formula_sum "Si O2"
_cell_formula_units_Z 36
_cell_length_a 8.448469
_cell_length_b 10.191754
_cell_length_c 18.487752
_cell_angle_alpha 90.000000
_cell_angle_beta 102.822890
_cell_angle_gamma 90.000000
_cell_volume 1552.182334
_symmetry_space_group_name_H-M "C 2/C"
_symmetry_group_IT_number 15
_symmetry_cell_setting 'monoclinic'
loop_
_space_group_symop_operation_xyz
x,y,z
-x,y,1/2-z
-x,-y,-z
x,-y,1/2+z
1/2+x,1/2+y,z
1/2-x,1/2+y,1/2-z
1/2-x,1/2-y,-z
1/2+x,1/2-y,1/2+z
loop_
_atom_site_type_symbol
_atom_site_label
_atom_site_fract_x
_atom_site_fract_y
_atom_site_fract_z
Si Si1 0.582518 0.867335 0.836550
Si Si2 0.189720 0.885890 0.128212
Si Si3 0.836657 0.853957 0.059450
Si Si4 0.000000 0.955105 0.250000
Si Si5 0.255199 0.394053 0.618900
O O1 0.500000 0.876649 0.750000
O O2 0.711955 0.980620 0.863485
O O3 0.664961 0.727759 0.864421
O O4 0.430035 0.888334 0.873669
O O5 0.294805 0.759895 0.115598
O O6 0.026491 0.879992 0.063986
O O7 0.118796 0.881813 0.204098
O O8 0.760224 0.997616 0.056598
O O9 0.750000 0.750000 0.000000
O O10 0.881354 0.046403 0.189744
#
# Coordination Sequence:
#
# PCOD9269633 Si02
#       5
#     8   8   8   4   8
#     4  11  23  39  65  96 131 159 210 271 323 375
#     4  10  23  38  62  94 124 165 209 256 318 374
#     4  10  25  46  64  89 131 176 214 257 312 380
#     4  10  20  34  58  90 130 156 196 254 318 372
#     4  10  23  36  64  89 128 162 207 256 316 373
#
# _framework density 23.193152999999999
#
# number of rings (size 3 to 8) (size 9 to 14) (size 15 to 20)
#    0.000    1.778    2.222    0.000   15.556    8.000 
#    0.000    2.222    0.000    0.000    0.000    0.000 
#    0.000    0.000    0.000    0.000    0.000    0.000 
#
# Total GULP energy -100421.808988 kJ/mol
# GULP energy per Si atom -5578.989388 kJ/mol
# Density = 2.314036 g / cm^3
# Si number density = 23.193153 Si / 1000 Ang^3
#
#
#
# Elastic Constant Matrix: (Units=GPa)
#
#
# Indices 1 2 3 4 5 6 
#
# 1 48.7385 32.1862 0.9603 0.0000 8.5405 0.0000
# 2 32.1862 177.0858 1.9495 0.0000 -2.7255 0.0000
# 3 0.9603 1.9495 46.5678 0.0000 10.1899 0.0000
# 4 0.0000 0.0000 0.0000 23.6025 0.0000 1.1900
# 5 8.5405 -2.7255 10.1899 0.0000 21.6825 0.0000
# 6 0.0000 0.0000 0.0000 1.1900 0.0000 47.5612
#
#
#
# Elastic Compliance Matrix: (Units=1/GPa)
#
#
# Indices 1 2 3 4 5 6 
#
# 1 0.025777 -0.004892 0.002262 0.000000 -0.011831 0.000000
# 2 -0.004892 0.006594 -0.000867 0.000000 0.003164 0.000000
# 3 0.002262 -0.000867 0.024168 0.000000 -0.012358 0.000000
# 4 0.000000 0.000000 0.000000 0.042422 0.000000 -0.001061
# 5 -0.011831 0.003164 -0.012358 0.000000 0.056986 0.000000
# 6 0.000000 0.000000 0.000000 -0.001061 0.000000 0.021052
#
#
# Mechanical properties :
#
#
# Convention : Reuss Voigt Hill
#
# Bulk Modulus (GPa) = 20.18385 38.06489 29.12437
# Shear Modulus (GPa) = 24.93659 34.38897 29.66278
#
# Velocity S-wave (km/s) = 3.28254 3.85479 3.58011
# Velocity P-wave (km/s) = 4.80501 6.02165 5.44740
#
# Compressibility (1/GPa) = 0.04954457
#
# Stress axis : x y z
#
# Youngs Moduli (GPa) = 38.79427 151.64426 41.37725
#
# Poissons Ratio (x) = 0.74186 -0.09360
# Poissons Ratio (y) = 0.18979 0.03589
# Poissons Ratio (z) = -0.08776 0.13154
#
# Static dielectric constant tensor:
#      x y z
#    x 1.844340 0.000000 -0.035850 
#    y 0.000000 1.957130 0.000000 
#    z -0.035850 0.000000 2.010910 
# 
# From -- ./inp_files/229555.got.cif
#   From: 2010.05.17/outbox.cif.g08.bks.cpg/sg15_115_cif.got.tgz:229555.got - 2010.06.03 18:47:42.
