data_PCOD9269476
_publ_section_title
;
Structure prediction by ZEFSAII (Michael W. Deem and Ramdas Pophale) SiO2 
 PCOD9269476
Probable space group: C 2/C
;
_chemical_formula_sum "Si O2"
_cell_formula_units_Z 52
_cell_length_a 29.735734
_cell_length_b 11.072455
_cell_length_c 8.454212
_cell_angle_alpha 90.000000
_cell_angle_beta 100.238372
_cell_angle_gamma 90.000000
_cell_volume 2739.206101
_symmetry_space_group_name_H-M "C 2/C"
_symmetry_group_IT_number 15
_symmetry_cell_setting 'monoclinic'
loop_
_space_group_symop_operation_xyz
x,y,z
-x,y,1/2-z
-x,-y,-z
x,-y,1/2+z
1/2+x,1/2+y,z
1/2-x,1/2+y,1/2-z
1/2-x,1/2-y,-z
1/2+x,1/2-y,1/2+z
loop_
_atom_site_type_symbol
_atom_site_label
_atom_site_fract_x
_atom_site_fract_y
_atom_site_fract_z
Si Si1 0.484755 0.371815 0.422472
Si Si2 0.229056 0.139448 0.281887
Si Si3 0.000000 0.474157 0.750000
Si Si4 0.453861 0.160814 0.951414
Si Si5 0.612699 0.412849 0.023975
Si Si6 0.375932 0.333489 0.833121
Si Si7 0.283328 0.626095 0.848603
O O1 0.500000 0.364982 0.250000
O O2 0.500000 0.500000 0.500000
O O3 0.511217 0.272124 0.540208
O O4 0.430671 0.357920 0.413720
O O5 0.178560 0.177666 0.192056
O O6 0.263032 0.250204 0.263143
O O7 0.226996 0.130062 0.470737
O O8 0.236396 0.001929 0.226457
O O9 0.969364 0.558063 0.841535
O O10 0.964917 0.393375 0.629354
O O11 0.404001 0.214245 0.892093
O O12 0.609435 0.557581 0.042061
O O13 0.661565 0.378487 0.130560
O O14 0.612627 0.374455 0.840112
#
# Coordination Sequence:
#
# PCOD9269476 Si02
#       7
#     8   8   4   8   8   8   8
#     4  12  23  34  57  89 115 141 189 244 294 340
#     4   9  19  37  59  87 115 155 189 242 291 347
#     4  10  24  40  56  72 110 164 194 224 286 328
#     4  11  22  40  56  78 113 151 194 238 274 351
#     4  10  20  34  56  89 117 149 181 243 308 336
#     4  10  20  35  59  84 117 147 190 239 291 348
#     4   9  19  37  59  82 123 149 195 238 292 353
#
# _framework density 18.983602999999999
#
# number of rings (size 3 to 8) (size 9 to 14) (size 15 to 20)
#    0.000    1.846    2.308    1.846    1.077    0.615 
#    0.000    7.692    0.000    0.000    0.000    0.000 
#    0.000    0.000    0.000    0.000    0.000    0.000 
#
# Total GULP energy -145112.272285 kJ/mol
# GULP energy per Si atom -5581.241242 kJ/mol
# Density = 1.894040 g / cm^3
# Si number density = 18.983603 Si / 1000 Ang^3
#
#
#
# Elastic Constant Matrix: (Units=GPa)
#
#
# Indices 1 2 3 4 5 6 
#
# 1 81.4375 46.2580 15.5982 0.0000 2.8234 0.0000
# 2 46.2580 119.7414 32.2794 0.0000 13.8703 0.0000
# 3 15.5982 32.2794 54.2508 0.0000 9.3860 0.0000
# 4 0.0000 0.0000 0.0000 22.2824 0.0000 10.0520
# 5 2.8234 13.8703 9.3860 0.0000 17.1460 0.0000
# 6 0.0000 0.0000 0.0000 10.0520 0.0000 35.1843
#
#
#
# Elastic Compliance Matrix: (Units=1/GPa)
#
#
# Indices 1 2 3 4 5 6 
#
# 1 0.015929 -0.006117 -0.001483 0.000000 0.003137 0.000000
# 2 -0.006117 0.012754 -0.004660 0.000000 -0.006759 0.000000
# 3 -0.001483 -0.004660 0.023128 0.000000 -0.008647 0.000000
# 4 0.000000 0.000000 0.000000 0.051518 0.000000 -0.014719
# 5 0.003137 -0.006759 -0.008647 0.000000 0.068007 0.000000
# 6 0.000000 0.000000 0.000000 -0.014719 0.000000 0.032627
#
#
# Mechanical properties :
#
#
# Convention : Reuss Voigt Hill
#
# Bulk Modulus (GPa) = 36.64354 49.30011 42.97182
# Shear Modulus (GPa) = 21.04542 25.67548 23.36045
#
# Velocity S-wave (km/s) = 3.33319 3.68164 3.51174
# Velocity P-wave (km/s) = 5.84450 6.64069 6.25528
#
# Compressibility (1/GPa) = 0.02728994
#
# Stress axis : x y z
#
# Youngs Moduli (GPa) = 62.77683 78.40793 43.23730
#
# Poissons Ratio (x) = 0.47966 0.06412
# Poissons Ratio (y) = 0.38403 0.20150
# Poissons Ratio (z) = 0.09310 0.36541
#
# Static dielectric constant tensor:
#      x y z
#    x 1.666210 0.000000 0.001980 
#    y 0.000000 1.659000 0.000000 
#    z 0.001980 0.000000 1.683020 
# 
# From -- ./inp_files/65193.got.cif
#   From: 2010.05.17/outbox.cif.g08.bks.cpg/sg15_33_cif.got.tgz:65193.got - 2010.06.03 18:47:42.
