data_PCOD9269974
_publ_section_title
;
Structure prediction by ZEFSAII (Michael W. Deem and Ramdas Pophale) SiO2 
 PCOD9269974
Probable space group: C 2/C
;
_chemical_formula_sum "Si O2"
_cell_formula_units_Z 64
_cell_length_a 12.745869
_cell_length_b 26.718233
_cell_length_c 10.558514
_cell_angle_alpha 90.000000
_cell_angle_beta 76.262061
_cell_angle_gamma 90.000000
_cell_volume 3492.806630
_symmetry_space_group_name_H-M "C 2/C"
_symmetry_group_IT_number 15
_symmetry_cell_setting 'monoclinic'
loop_
_space_group_symop_operation_xyz
x,y,z
-x,y,1/2-z
-x,-y,-z
x,-y,1/2+z
1/2+x,1/2+y,z
1/2-x,1/2+y,1/2-z
1/2-x,1/2-y,-z
1/2+x,1/2-y,1/2+z
loop_
_atom_site_type_symbol
_atom_site_label
_atom_site_fract_x
_atom_site_fract_y
_atom_site_fract_z
Si Si1 0.577971 0.150922 0.104893
Si Si2 0.290791 0.591831 0.044185
Si Si3 0.575470 0.679554 0.612711
Si Si4 0.423580 0.497784 0.397913
Si Si5 0.623446 0.709116 0.189773
Si Si6 0.063159 0.269117 0.973811
Si Si7 0.630264 0.597955 0.195267
Si Si8 0.209872 0.738311 0.191931
O O1 0.500000 0.140412 0.250000
O O2 0.665759 0.107414 0.053028
O O3 0.503494 0.178835 0.020427
O O4 0.657310 0.196129 0.121973
O O5 0.310173 0.585476 0.189389
O O6 0.374572 0.636270 0.984789
O O7 0.336149 0.545329 0.950948
O O8 0.500000 0.660884 0.750000
O O9 0.506642 0.721789 0.558976
O O10 0.674856 0.709056 0.648432
O O11 0.500000 0.489685 0.250000
O O12 0.500000 0.500000 0.500000
O O13 0.360596 0.550479 0.399258
O O14 0.500000 0.698750 0.250000
O O15 0.668119 0.653627 0.142706
O O16 0.667861 0.729580 0.310201
O O17 0.619207 0.752586 0.086970
O O18 0.157209 0.271519 0.843294
O O19 0.500000 0.599185 0.250000
#
# Coordination Sequence:
#
# PCOD9269974 Si02
#       8
#     8   8   8   8   8   8   8   8
#     4   9  20  36  55  79 110 152 206 243 280 348
#     4  12  20  35  62  80 115 159 188 243 303 348
#     4   9  19  32  50  82 116 147 192 226 283 354
#     4  11  22  39  61  89 124 146 186 247 308 363
#     4  11  20  29  51  78 112 152 190 230 286 352
#     4   9  19  32  49  74 114 151 193 236 275 342
#     4  10  20  35  52  86 114 146 193 229 300 364
#     4   9  18  34  48  75 113 154 187 237 285 342
#
# _framework density 18.323373
#
# number of rings (size 3 to 8) (size 9 to 14) (size 15 to 20)
#    0.000    2.000    3.750    3.750    1.750    1.000 
#    0.000    0.000    0.000    0.750    0.000    0.000 
#    0.000    0.000    0.000    0.000    0.000    0.000 
#
# Total GULP energy -178151.589008 kJ/mol
# GULP energy per Si atom -5567.237157 kJ/mol
# Density = 1.828167 g / cm^3
# Si number density = 18.323373 Si / 1000 Ang^3
#
#
#
# Elastic Constant Matrix: (Units=GPa)
#
#
# Indices 1 2 3 4 5 6 
#
# 1 50.5757 21.2380 14.4007 0.0000 1.3310 0.0000
# 2 21.2380 81.9180 20.8709 0.0000 0.2850 0.0000
# 3 14.4007 20.8709 69.1573 0.0000 -3.8813 0.0000
# 4 0.0000 0.0000 0.0000 21.5876 0.0000 0.7064
# 5 1.3310 0.2850 -3.8813 0.0000 27.9275 0.0000
# 6 0.0000 0.0000 0.0000 0.7064 0.0000 25.3240
#
#
#
# Elastic Compliance Matrix: (Units=1/GPa)
#
#
# Indices 1 2 3 4 5 6 
#
# 1 0.022891 -0.005085 -0.003316 0.000000 -0.001500 0.000000
# 2 -0.005085 0.014367 -0.003297 0.000000 -0.000363 0.000000
# 3 -0.003316 -0.003297 0.016283 0.000000 0.002455 0.000000
# 4 0.000000 0.000000 0.000000 0.046365 0.000000 -0.001293
# 5 -0.001500 -0.000363 0.002455 0.000000 0.036223 0.000000
# 6 0.000000 0.000000 0.000000 -0.001293 0.000000 0.039524
#
#
# Mechanical properties :
#
#
# Convention : Reuss Voigt Hill
#
# Bulk Modulus (GPa) = 33.17328 34.96335 34.06831
# Shear Modulus (GPa) = 23.91210 24.64392 24.27801
#
# Velocity S-wave (km/s) = 3.61640 3.67133 3.64397
# Velocity P-wave (km/s) = 5.96502 6.09050 6.02809
#
# Compressibility (1/GPa) = 0.03014474
#
# Stress axis : x y z
#
# Youngs Moduli (GPa) = 43.68477 69.60440 61.41284
#
# Poissons Ratio (x) = 0.35391 0.20367
# Poissons Ratio (y) = 0.22212 0.20250
# Poissons Ratio (z) = 0.14488 0.22951
#
# Static dielectric constant tensor:
#      x y z
#    x 1.944260 0.000000 0.110710 
#    y 0.000000 1.664440 0.000000 
#    z 0.110710 0.000000 1.764720 
# 
# From -- ./inp_files/91791.got.cif
#   From: 2010.05.17/outbox.cif.g08.bks.cpg/sg15_46_cif.got.tgz:91791.got - 2010.06.03 18:47:42.
