data_PCOD9269312
_publ_section_title
;
Structure prediction by ZEFSAII (Michael W. Deem and Ramdas Pophale) SiO2 
 PCOD9269312
Probable space group: C 2/C
;
_chemical_formula_sum "Si O2"
_cell_formula_units_Z 52
_cell_length_a 15.446824
_cell_length_b 18.137306
_cell_length_c 18.868314
_cell_angle_alpha 90.000000
_cell_angle_beta 28.005528
_cell_angle_gamma 90.000000
_cell_volume 2482.179363
_symmetry_space_group_name_H-M "C 2/C"
_symmetry_group_IT_number 15
_symmetry_cell_setting 'monoclinic'
loop_
_space_group_symop_operation_xyz
x,y,z
-x,y,1/2-z
-x,-y,-z
x,-y,1/2+z
1/2+x,1/2+y,z
1/2-x,1/2+y,1/2-z
1/2-x,1/2-y,-z
1/2+x,1/2-y,1/2+z
loop_
_atom_site_type_symbol
_atom_site_label
_atom_site_fract_x
_atom_site_fract_y
_atom_site_fract_z
Si Si1 0.870113 0.848243 0.946704
Si Si2 0.205865 0.735621 0.693611
Si Si3 0.500000 0.003871 0.250000
Si Si4 0.354406 0.587716 0.801858
Si Si5 0.916922 0.009442 0.981241
Si Si6 0.951166 0.659949 0.556317
Si Si7 0.665486 0.059843 0.491440
O O1 0.922612 0.927411 0.942493
O O2 0.779490 0.870092 0.937635
O O3 0.040818 0.794302 0.813636
O O4 0.731517 0.808724 0.101842
O O5 0.158978 0.682642 0.793195
O O6 0.397984 0.777949 0.568300
O O7 0.296565 0.037073 0.376627
O O8 0.459992 0.958607 0.350321
O O9 0.500000 0.622182 0.750000
O O10 0.452463 0.562700 0.658561
O O11 0.186677 0.641243 0.906515
O O12 0.283985 0.512076 0.889315
O O13 0.000000 0.000000 0.000000
O O14 0.057502 0.585210 0.500607
#
# Coordination Sequence:
#
# PCOD9269312 Si02
#       7
#     8   8   4   8   8   8   8
#     4  10  21  38  58  92 133 164 205 259 309 396
#     4  10  23  40  59  93 129 174 213 248 315 387
#     4  10  20  34  54  90 128 152 196 248 316 390
#     4  12  23  43  64  94 128 164 216 268 324 377
#     4  11  22  39  63  89 128 164 209 271 324 372
#     4  11  24  39  64  88 124 172 213 259 315 381
#     4  11  22  38  62  96 132 163 206 263 329 386
#
# _framework density 20.949332999999999
#
# number of rings (size 3 to 8) (size 9 to 14) (size 15 to 20)
#    0.000    1.231    3.077    5.077    0.000    4.923 
#    0.000    0.769    0.000    0.000    0.000    0.000 
#    0.000    0.000    0.000    0.000    0.000    0.000 
#
# Total GULP energy -145319.989861 kJ/mol
# GULP energy per Si atom -5589.230379 kJ/mol
# Density = 2.090165 g / cm^3
# Si number density = 20.949333 Si / 1000 Ang^3
#
#
#
# Elastic Constant Matrix: (Units=GPa)
#
#
# Indices 1 2 3 4 5 6 
#
# 1 111.1903 8.4925 13.9238 0.0017 -22.1095 0.0075
# 2 8.4925 38.5479 20.4653 -0.0033 -11.0431 0.0000
# 3 13.9238 20.4653 90.2029 0.0143 -6.6322 -0.0073
# 4 0.0017 -0.0033 0.0143 20.5195 -0.0068 -6.6890
# 5 -22.1095 -11.0431 -6.6322 -0.0068 31.4449 -0.0031
# 6 0.0075 0.0000 -0.0073 -6.6890 -0.0031 29.6058
#
#
#
# Elastic Compliance Matrix: (Units=1/GPa)
#
#
# Indices 1 2 3 4 5 6 
#
# 1 0.010567 0.000397 -0.001183 0.000002 0.007320 -0.000002
# 2 0.000397 0.032309 -0.006640 0.000014 0.010225 0.000003
# 3 -0.001183 -0.006640 0.012740 -0.000010 -0.000476 0.000001
# 4 0.000002 0.000014 -0.000010 0.052609 0.000017 0.011886
# 5 0.007320 0.010225 -0.000476 0.000017 0.040439 0.000006
# 6 -0.000002 0.000003 0.000001 0.011886 0.000006 0.036463
#
#
# Mechanical properties :
#
#
# Convention : Reuss Voigt Hill
#
# Bulk Modulus (GPa) = 24.53131 36.18935 30.36033
# Shear Modulus (GPa) = 23.41207 29.45135 26.43171
#
# Velocity S-wave (km/s) = 3.34661 3.75352 3.55589
# Velocity P-wave (km/s) = 5.16414 6.00811 5.60204
#
# Compressibility (1/GPa) = 0.04076424
#
# Stress axis : x y z
#
# Youngs Moduli (GPa) = 94.63526 30.95154 78.49231
#
# Poissons Ratio (x) = -0.01229 0.09286
# Poissons Ratio (y) = -0.03757 0.52116
# Poissons Ratio (z) = 0.11195 0.20551
#
# Static dielectric constant tensor:
#      x y z
#    x 1.792190 0.000000 -0.045760 
#    y 0.000000 1.724540 0.000010 
#    z -0.045760 0.000010 1.804610 
# 
# From -- ./inp_files/206796.got.cif
#   From: 2010.05.17/outbox.cif.g08.bks.cpg/sg15_104_cif.got.tgz:206796.got - 2010.06.03 18:47:42.
