data_PCOD9269505
_publ_section_title
;
Structure prediction by ZEFSAII (Michael W. Deem and Ramdas Pophale) SiO2 
 PCOD9269505
Probable space group: C 2/C
;
_chemical_formula_sum "Si O2"
_cell_formula_units_Z 52
_cell_length_a 10.777982
_cell_length_b 15.929318
_cell_length_c 14.528370
_cell_angle_alpha 90.000000
_cell_angle_beta 122.820152
_cell_angle_gamma 90.000000
_cell_volume 2096.163626
_symmetry_space_group_name_H-M "C 2/C"
_symmetry_group_IT_number 15
_symmetry_cell_setting 'monoclinic'
loop_
_space_group_symop_operation_xyz
x,y,z
-x,y,1/2-z
-x,-y,-z
x,-y,1/2+z
1/2+x,1/2+y,z
1/2-x,1/2+y,1/2-z
1/2-x,1/2-y,-z
1/2+x,1/2-y,1/2+z
loop_
_atom_site_type_symbol
_atom_site_label
_atom_site_fract_x
_atom_site_fract_y
_atom_site_fract_z
Si Si1 0.530212 0.476524 0.404266
Si Si2 0.656461 0.065112 0.483340
Si Si3 0.376719 0.707922 0.285247
Si Si4 0.142634 0.848188 0.969646
Si Si5 0.747964 0.115922 0.782479
Si Si6 0.646397 0.114084 0.084937
Si Si7 0.000000 0.493307 0.250000
O O1 0.500000 0.500000 0.500000
O O2 0.670332 0.415285 0.449773
O O3 0.580356 0.568047 0.390839
O O4 0.385762 0.436796 0.301139
O O5 0.526044 0.126307 0.463190
O O6 0.648731 0.979629 0.542266
O O7 0.609281 0.043068 0.359875
O O8 0.500000 0.719142 0.250000
O O9 0.487696 0.697526 0.414428
O O10 0.283793 0.791710 0.264620
O O11 0.257116 0.635028 0.214348
O O12 0.280426 0.823198 0.960706
O O13 0.212400 0.870927 0.094192
O O14 0.598090 0.063222 0.721468
#
# Coordination Sequence:
#
# PCOD9269505 Si02
#       7
#     8   8   8   8   8   8   4
#     4   9  17  35  54  81 113 144 184 238 281 321
#     4  10  20  34  57  83 112 144 192 233 284 328
#     4  10  21  33  53  81 112 152 181 228 291 333
#     4   9  19  37  56  82 115 147 188 231 289 334
#     4  11  21  34  56  87 114 144 190 240 279 335
#     4   9  19  36  53  80 112 148 184 234 281 340
#     4  12  20  32  56  90 108 144 192 234 276 332
#
# _framework density 24.807223
#
# number of rings (size 3 to 8) (size 9 to 14) (size 15 to 20)
#    0.000    2.154    5.385    0.000    2.154    3.692 
#    0.000    0.769    0.000    0.000    0.000   21.538 
#    0.000    0.000    0.000    0.000    0.000    0.000 
#
# Total GULP energy -145026.817875 kJ/mol
# GULP energy per Si atom -5577.954534 kJ/mol
# Density = 2.475076 g / cm^3
# Si number density = 24.807223 Si / 1000 Ang^3
#
#
#
# Elastic Constant Matrix: (Units=GPa)
#
#
# Indices 1 2 3 4 5 6 
#
# 1 81.4567 18.5846 36.1797 0.0000 35.8596 0.0000
# 2 18.5846 50.1409 33.1727 0.0000 17.5484 0.0000
# 3 36.1797 33.1727 110.5843 0.0000 32.7485 0.0000
# 4 0.0000 0.0000 0.0000 33.0880 0.0000 23.1867
# 5 35.8596 17.5484 32.7485 0.0000 57.4304 0.0000
# 6 0.0000 0.0000 0.0000 23.1867 0.0000 25.7684
#
#
#
# Elastic Compliance Matrix: (Units=1/GPa)
#
#
# Indices 1 2 3 4 5 6 
#
# 1 0.017848 -0.001679 -0.002632 0.000000 -0.009131 0.000000
# 2 -0.001679 0.025839 -0.006225 0.000000 -0.003297 0.000000
# 3 -0.002632 -0.006225 0.012900 0.000000 -0.003810 0.000000
# 4 0.000000 0.000000 0.000000 0.081804 0.000000 -0.073608
# 5 -0.009131 -0.003297 -0.003810 0.000000 0.026294 0.000000
# 6 0.000000 0.000000 0.000000 -0.073608 0.000000 0.105041
#
#
# Mechanical properties :
#
#
# Convention : Reuss Voigt Hill
#
# Bulk Modulus (GPa) = 28.15721 46.45065 37.30393
# Shear Modulus (GPa) = 16.52156 33.54036 25.03096
#
# Velocity S-wave (km/s) = 2.58349 3.68100 3.17995
# Velocity P-wave (km/s) = 4.50270 6.06891 5.34350
#
# Compressibility (1/GPa) = 0.03551488
#
# Stress axis : x y z
#
# Youngs Moduli (GPa) = 56.02882 38.70191 77.52091
#
# Poissons Ratio (x) = 0.06496 0.20402
# Poissons Ratio (y) = 0.09405 0.48259
# Poissons Ratio (z) = 0.14746 0.24093
#
# Static dielectric constant tensor:
#      x y z
#    x 2.097230 0.000000 0.005910 
#    y 0.000000 2.095820 0.000000 
#    z 0.005910 0.000000 2.008420 
# 
# From -- ./inp_files/239870.got.cif
#   From: 2010.05.17/outbox.cif.g08.bks.cpg/sg15_120_cif.got.tgz:239870.got - 2010.06.03 18:47:42.
