data_PCOD9269595
_publ_section_title
;
Structure prediction by ZEFSAII (Michael W. Deem and Ramdas Pophale) SiO2 
 PCOD9269595
Probable space group: C 2/C
;
_chemical_formula_sum "Si O2"
_cell_formula_units_Z 44
_cell_length_a 16.859490
_cell_length_b 16.924569
_cell_length_c 19.591204
_cell_angle_alpha 90.000000
_cell_angle_beta 155.888025
_cell_angle_gamma 90.000000
_cell_volume 2283.693500
_symmetry_space_group_name_H-M "C 2/C"
_symmetry_group_IT_number 15
_symmetry_cell_setting 'monoclinic'
loop_
_space_group_symop_operation_xyz
x,y,z
-x,y,1/2-z
-x,-y,-z
x,-y,1/2+z
1/2+x,1/2+y,z
1/2-x,1/2+y,1/2-z
1/2-x,1/2-y,-z
1/2+x,1/2-y,1/2+z
loop_
_atom_site_type_symbol
_atom_site_label
_atom_site_fract_x
_atom_site_fract_y
_atom_site_fract_z
Si Si1 0.198210 0.029525 0.592685
Si Si2 0.981444 0.571858 0.934646
Si Si3 0.116472 0.873079 0.590179
Si Si4 0.610364 0.221080 0.094166
Si Si5 0.000000 0.631917 0.750000
Si Si6 0.771170 0.831809 0.585437
O O1 0.181035 0.934881 0.582783
O O2 0.992098 0.072224 0.438763
O O3 0.329800 0.073070 0.641196
O O4 0.310368 0.051891 0.749868
O O5 0.949850 0.656447 0.945500
O O6 0.179301 0.588316 0.047122
O O7 0.000000 0.500000 0.000000
O O8 0.973744 0.804855 0.452457
O O9 0.275898 0.824297 0.757401
O O10 0.732724 0.228829 0.118776
O O11 0.880020 0.680283 0.597075
O O12 0.000000 0.838807 0.750000
#
# Coordination Sequence:
#
# PCOD9269595 Si02
#       6
#     8   8   8   8   4   8
#     4  10  20  36  57  80 111 147 191 225 281 335
#     4   9  17  34  55  80 107 144 185 232 271 329
#     4  11  21  36  57  82 111 149 188 237 274 334
#     4  10  21  34  56  81 113 142 189 231 283 321
#     4  10  20  34  58  86 112 152 186 228 288 338
#     4   9  19  35  53  81 118 149 178 225 283 346
#
# _framework density 19.267033000000001
#
# number of rings (size 3 to 8) (size 9 to 14) (size 15 to 20)
#    1.091    1.091    1.818    2.182    0.000    0.000 
#    1.636    1.818    0.000    1.091    2.364    0.000 
#    0.000    0.000    0.000    0.000    0.000    0.000 
#
# Total GULP energy -122474.929598 kJ/mol
# GULP energy per Si atom -5567.042254 kJ/mol
# Density = 1.922318 g / cm^3
# Si number density = 19.267033 Si / 1000 Ang^3
#
#
#
# Elastic Constant Matrix: (Units=GPa)
#
#
# Indices 1 2 3 4 5 6 
#
# 1 30.7517 24.2728 14.3389 -0.0022 6.0863 -0.0022
# 2 24.2728 137.6110 44.5710 -0.0241 7.4691 -0.0056
# 3 14.3389 44.5710 82.0785 -0.0152 5.4800 -0.0096
# 4 -0.0022 -0.0241 -0.0152 38.6129 0.0028 6.5359
# 5 6.0863 7.4691 5.4800 0.0028 24.8314 0.0043
# 6 -0.0022 -0.0056 -0.0096 6.5359 0.0043 13.8383
#
#
#
# Elastic Compliance Matrix: (Units=1/GPa)
#
#
# Indices 1 2 3 4 5 6 
#
# 1 0.039960 -0.005517 -0.003493 -0.000003 -0.007364 0.000005
# 2 -0.005517 0.009644 -0.004232 0.000004 -0.000615 -0.000002
# 3 -0.003493 -0.004232 0.015173 0.000002 -0.001219 0.000008
# 4 -0.000003 0.000004 0.000002 0.028148 -0.000002 -0.013295
# 5 -0.007364 -0.000615 -0.001219 -0.000002 0.042531 -0.000015
# 6 0.000005 -0.000002 0.000008 -0.013295 -0.000015 0.078543
#
#
# Mechanical properties :
#
#
# Convention : Reuss Voigt Hill
#
# Bulk Modulus (GPa) = 26.11519 46.31184 36.21352
# Shear Modulus (GPa) = 19.74351 26.60707 23.17529
#
# Velocity S-wave (km/s) = 3.20461 3.72016 3.47197
# Velocity P-wave (km/s) = 5.22269 6.52241 5.90840
#
# Compressibility (1/GPa) = 0.03829189
#
# Stress axis : x y z
#
# Youngs Moduli (GPa) = 25.02527 103.68975 65.90522
#
# Poissons Ratio (x) = 0.57208 0.23022
# Poissons Ratio (y) = 0.13807 0.27892
# Poissons Ratio (z) = 0.08742 0.43883
#
# Static dielectric constant tensor:
#      x y z
#    x 1.717260 0.000000 0.000930 
#    y 0.000000 1.725550 -0.000010 
#    z 0.000930 -0.000010 1.746650 
# 
# From -- ./inp_files/280215.got.cif
#   From: 2010.05.17/outbox.cif.g08.bks.cpg/sg15_141_cif.got.tgz:280215.got - 2010.06.03 18:47:42.
