data_PCOD9269518
_publ_section_title
;
Structure prediction by ZEFSAII (Michael W. Deem and Ramdas Pophale) SiO2 
 PCOD9269518
Probable space group: C 2/C
;
_chemical_formula_sum "Si O2"
_cell_formula_units_Z 56
_cell_length_a 29.705870
_cell_length_b 10.181967
_cell_length_c 11.610882
_cell_angle_alpha 90.000000
_cell_angle_beta 131.594437
_cell_angle_gamma 90.000000
_cell_volume 2626.400536
_symmetry_space_group_name_H-M "C 2/C"
_symmetry_group_IT_number 15
_symmetry_cell_setting 'monoclinic'
loop_
_space_group_symop_operation_xyz
x,y,z
-x,y,1/2-z
-x,-y,-z
x,-y,1/2+z
1/2+x,1/2+y,z
1/2-x,1/2+y,1/2-z
1/2-x,1/2-y,-z
1/2+x,1/2-y,1/2+z
loop_
_atom_site_type_symbol
_atom_site_label
_atom_site_fract_x
_atom_site_fract_y
_atom_site_fract_z
Si Si1 0.204684 0.506472 0.845158
Si Si2 0.810319 0.224135 0.757335
Si Si3 0.059742 0.845252 0.118119
Si Si4 0.884551 0.159568 0.555479
Si Si5 0.191296 0.582835 0.559276
Si Si6 0.930030 0.156598 0.381674
Si Si7 0.169553 0.873305 0.972020
O O1 0.218147 0.353067 0.845249
O O2 0.179376 0.544613 0.673719
O O3 0.171479 0.502807 0.913624
O O4 0.264916 0.590783 0.963986
O O5 0.876944 0.208182 0.819701
O O6 0.763842 0.102768 0.668203
O O7 0.820364 0.231378 0.910705
O O8 0.062757 0.832840 0.260805
O O9 0.062565 0.999302 0.096211
O O10 0.996548 0.790162 0.965046
O O11 0.837065 0.272940 0.503406
O O12 0.908112 0.194155 0.469988
O O13 0.856989 0.011998 0.521145
O O14 0.877970 0.177795 0.200960
#
# Coordination Sequence:
#
# PCOD9269518 Si02
#       7
#     8   8   8   8   8   8   8
#     4  11  23  38  59  88 121 161 206 246 309 365
#     4  11  20  38  59  86 119 161 197 244 312 371
#     4  10  20  34  57  85 120 155 197 241 307 372
#     4  11  19  36  58  85 118 159 200 242 308 370
#     4  11  23  37  61  86 121 165 205 255 303 371
#     4  10  21  34  54  90 123 150 193 253 304 365
#     4  10  22  34  58  88 123 152 193 249 307 368
#
# _framework density 21.321957999999999
#
# number of rings (size 3 to 8) (size 9 to 14) (size 15 to 20)
#    0.000    1.429    4.286    2.571    2.000    1.714 
#    0.000    2.857    0.000    0.857    3.714    0.000 
#    0.000    0.000    0.000    0.000    0.000    0.000 
#
# Total GULP energy -156064.678211 kJ/mol
# GULP energy per Si atom -5573.738508 kJ/mol
# Density = 2.127343 g / cm^3
# Si number density = 21.321958 Si / 1000 Ang^3
#
#
#
# Elastic Constant Matrix: (Units=GPa)
#
#
# Indices 1 2 3 4 5 6 
#
# 1 88.4423 15.7547 49.1015 0.0000 -12.9624 0.0000
# 2 15.7547 28.8205 23.0477 0.0000 -7.2969 0.0000
# 3 49.1015 23.0477 92.5751 0.0000 -16.2312 0.0000
# 4 0.0000 0.0000 0.0000 21.4505 0.0000 -13.0224
# 5 -12.9624 -7.2969 -16.2312 0.0000 32.9456 0.0000
# 6 0.0000 0.0000 0.0000 -13.0224 0.0000 12.6965
#
#
#
# Elastic Compliance Matrix: (Units=1/GPa)
#
#
# Indices 1 2 3 4 5 6 
#
# 1 0.016298 -0.002194 -0.007727 0.000000 0.002120 0.000000
# 2 -0.002194 0.044289 -0.009079 0.000000 0.004474 0.000000
# 3 -0.007727 -0.009079 0.017814 0.000000 0.003725 0.000000
# 4 0.000000 0.000000 0.000000 0.123552 0.000000 0.126723
# 5 0.002120 0.004474 0.003725 0.000000 0.034013 0.000000
# 6 0.000000 0.000000 0.000000 0.126723 0.000000 0.208739
#
#
# Mechanical properties :
#
#
# Convention : Reuss Voigt Hill
#
# Bulk Modulus (GPa) = 24.75037 42.84952 33.79994
# Shear Modulus (GPa) = 10.07720 21.54745 15.81233
#
# Velocity S-wave (km/s) = 2.17634 3.18240 2.72618
# Velocity P-wave (km/s) = 4.23656 5.80031 5.07898
#
# Compressibility (1/GPa) = 0.04040343
#
# Stress axis : x y z
#
# Youngs Moduli (GPa) = 61.35767 22.57879 56.13705
#
# Poissons Ratio (x) = 0.04953 0.43374
# Poissons Ratio (y) = 0.13459 0.50964
# Poissons Ratio (z) = 0.47408 0.20498
#
# Static dielectric constant tensor:
#      x y z
#    x 1.847150 0.000000 -0.012960 
#    y 0.000000 1.774320 0.000000 
#    z -0.012960 0.000000 1.842220 
# 
# From -- ./inp_files/122715.got.cif
#   From: 2010.05.17/outbox.cif.g08.bks.cpg/sg15_62_cif.got.tgz:122715.got - 2010.06.03 18:47:42.
