data_PCOD9269598
_publ_section_title
;
Structure prediction by ZEFSAII (Michael W. Deem and Ramdas Pophale) SiO2 
 PCOD9269598
Probable space group: C 2/C
;
_chemical_formula_sum "Si O2"
_cell_formula_units_Z 44
_cell_length_a 20.169440
_cell_length_b 12.080604
_cell_length_c 12.267204
_cell_angle_alpha 90.000000
_cell_angle_beta 141.277171
_cell_angle_gamma 90.000000
_cell_volume 1869.788903
_symmetry_space_group_name_H-M "C 2/C"
_symmetry_group_IT_number 15
_symmetry_cell_setting 'monoclinic'
loop_
_space_group_symop_operation_xyz
x,y,z
-x,y,1/2-z
-x,-y,-z
x,-y,1/2+z
1/2+x,1/2+y,z
1/2-x,1/2+y,1/2-z
1/2-x,1/2-y,-z
1/2+x,1/2-y,1/2+z
loop_
_atom_site_type_symbol
_atom_site_label
_atom_site_fract_x
_atom_site_fract_y
_atom_site_fract_z
Si Si1 0.186938 0.020407 0.445287
Si Si2 0.386688 0.057091 0.571999
Si Si3 0.139563 0.204797 0.755942
Si Si4 0.722455 0.370952 0.683010
Si Si5 0.000000 0.339163 0.750000
Si Si6 0.466635 0.618157 0.404407
O O1 0.302580 0.066131 0.562920
O O2 0.171908 0.912699 0.347877
O O3 0.184370 0.976365 0.563954
O O4 0.091887 0.099100 0.284986
O O5 0.500000 0.109230 0.750000
O O6 0.417777 0.927849 0.593081
O O7 0.322560 0.098248 0.385732
O O8 0.239200 0.279485 0.853106
O O9 0.062335 0.265791 0.742750
O O10 0.071072 0.188707 0.557765
O O11 0.626764 0.335670 0.637329
O O12 0.500000 0.500000 0.500000
#
# Coordination Sequence:
#
# PCOD9269598 Si02
#       6
#     8   8   8   8   4   8
#     4  10  20  37  58  90 119 154 200 245 302 365
#     4   9  21  36  54  84 118 148 195 249 292 356
#     4  11  21  34  61  90 118 152 204 254 298 354
#     4  11  20  36  67  82 116 164 198 244 307 351
#     4  10  20  34  58  86 114 142 202 256 282 350
#     4   9  22  39  57  92 126 152 197 256 301 359
#
# _framework density 23.532067999999999
#
# number of rings (size 3 to 8) (size 9 to 14) (size 15 to 20)
#    0.545    1.455    1.818    1.636    2.545    5.091 
#    0.000    0.000   12.000    3.273    0.000    0.000 
#    0.000    0.000    0.000    0.000    0.000    0.000 
#
# Total GULP energy -122914.046633 kJ/mol
# GULP energy per Si atom -5587.002120 kJ/mol
# Density = 2.347851 g / cm^3
# Si number density = 23.532068 Si / 1000 Ang^3
#
#
#
# Elastic Constant Matrix: (Units=GPa)
#
#
# Indices 1 2 3 4 5 6 
#
# 1 80.3730 14.1047 10.9033 0.0000 10.0428 0.0000
# 2 14.1047 31.0609 7.7310 0.0000 9.2990 0.0000
# 3 10.9033 7.7310 147.3038 0.0000 13.5683 0.0000
# 4 0.0000 0.0000 0.0000 43.8202 0.0000 3.6335
# 5 10.0428 9.2990 13.5683 0.0000 31.9149 0.0000
# 6 0.0000 0.0000 0.0000 3.6335 0.0000 9.9318
#
#
#
# Elastic Compliance Matrix: (Units=1/GPa)
#
#
# Indices 1 2 3 4 5 6 
#
# 1 0.013771 -0.005363 -0.000502 0.000000 -0.002557 0.000000
# 2 -0.005363 0.037486 -0.000749 0.000000 -0.008916 0.000000
# 3 -0.000502 -0.000749 0.007109 0.000000 -0.002646 0.000000
# 4 0.000000 0.000000 0.000000 0.023534 0.000000 -0.008610
# 5 -0.002557 -0.008916 -0.002646 0.000000 0.035861 0.000000
# 6 0.000000 0.000000 0.000000 -0.008610 0.000000 0.103836
#
#
# Mechanical properties :
#
#
# Convention : Reuss Voigt Hill
#
# Bulk Modulus (GPa) = 22.15469 36.02395 29.08932
# Shear Modulus (GPa) = 20.01033 32.19997 26.10515
#
# Velocity S-wave (km/s) = 2.91923 3.70313 3.33429
# Velocity P-wave (km/s) = 4.56044 5.79878 5.21649
#
# Compressibility (1/GPa) = 0.04513716
#
# Stress axis : x y z
#
# Youngs Moduli (GPa) = 72.61762 26.67683 140.66855
#
# Poissons Ratio (x) = 0.14306 0.07066
# Poissons Ratio (y) = 0.38942 0.10538
# Poissons Ratio (z) = 0.03648 0.01999
#
# Static dielectric constant tensor:
#      x y z
#    x 1.855170 0.000000 -0.013920 
#    y 0.000000 1.887020 0.000000 
#    z -0.013920 0.000000 1.915740 
# 
# From -- ./inp_files/112837.got.cif
#   From: 2010.05.17/outbox.cif.g08.bks.cpg/sg15_57_cif.got.tgz:112837.got - 2010.06.03 18:47:42.
