data_PCOD9269292
_publ_section_title
;
Structure prediction by ZEFSAII (Michael W. Deem and Ramdas Pophale) SiO2 
 PCOD9269292
Probable space group: C 2/C
;
_chemical_formula_sum "Si O2"
_cell_formula_units_Z 56
_cell_length_a 18.548033
_cell_length_b 5.095694
_cell_length_c 25.432248
_cell_angle_alpha 90.000000
_cell_angle_beta 119.887381
_cell_angle_gamma 90.000000
_cell_volume 2084.050852
_symmetry_space_group_name_H-M "C 2/C"
_symmetry_group_IT_number 15
_symmetry_cell_setting 'monoclinic'
loop_
_space_group_symop_operation_xyz
x,y,z
-x,y,1/2-z
-x,-y,-z
x,-y,1/2+z
1/2+x,1/2+y,z
1/2-x,1/2+y,1/2-z
1/2-x,1/2-y,-z
1/2+x,1/2-y,1/2+z
loop_
_atom_site_type_symbol
_atom_site_label
_atom_site_fract_x
_atom_site_fract_y
_atom_site_fract_z
Si Si1 0.500000 0.875598 0.250000
Si Si2 0.190690 0.380970 0.567708
Si Si3 0.583032 0.843168 0.101318
Si Si4 0.251460 0.485128 0.836023
Si Si5 0.829694 0.721260 0.090200
Si Si6 0.250000 0.750000 0.000000
Si Si7 0.619183 0.182166 0.215839
Si Si8 0.013729 0.064191 0.354205
O O1 0.544045 0.716641 0.313078
O O2 0.564004 0.046249 0.240517
O O3 0.106041 0.516660 0.554472
O O4 0.238196 0.278758 0.637139
O O5 0.262852 0.531164 0.556596
O O6 0.181311 0.151209 0.522468
O O7 0.656447 0.628925 0.127861
O O8 0.502195 0.705092 0.096028
O O9 0.600198 0.056623 0.152849
O O10 0.196529 0.340518 0.860010
O O11 0.211240 0.400030 0.766633
O O12 0.819694 0.457686 0.053863
O O13 0.921484 0.830270 0.116649
O O14 0.579446 0.470577 0.198080
#
# Coordination Sequence:
#
# PCOD9269292 Si02
#       8
#     4   8   8   8   8   4   8   8
#     4  10  20  34  54  86 120 166 206 242 296 370
#     4  10  21  42  63  91 119 161 210 268 317 384
#     4  10  24  35  57  87 128 164 206 251 317 378
#     4  10  21  36  59  86 121 169 210 251 297 373
#     4  10  21  39  64  89 119 153 209 265 322 385
#     4  10  22  40  70  92 112 156 216 274 332 382
#     4  11  22  35  58  87 127 169 206 244 294 376
#     4  11  22  38  56  89 127 166 202 260 319 379
#
# _framework density 26.870743000000001
#
# number of rings (size 3 to 8) (size 9 to 14) (size 15 to 20)
#    0.000    1.714    0.000    4.286    4.000    5.714 
#    0.000    0.714    0.000   12.857    0.000    0.000 
#    0.000    0.000    0.000    0.000    0.000    0.000 
#
# Total GULP energy -156010.653139 kJ/mol
# GULP energy per Si atom -5571.809041 kJ/mol
# Density = 2.680958 g / cm^3
# Si number density = 26.870743 Si / 1000 Ang^3
#
#
#
# Elastic Constant Matrix: (Units=GPa)
#
#
# Indices 1 2 3 4 5 6 
#
# 1 172.7631 43.7260 50.9192 -0.0002 -43.3315 0.0010
# 2 43.7260 70.9867 13.9892 -0.0008 -16.0292 0.0041
# 3 50.9192 13.9892 59.7834 0.0001 -7.7446 0.0001
# 4 -0.0002 -0.0008 0.0001 35.2867 0.0002 -6.9818
# 5 -43.3315 -16.0292 -7.7446 0.0002 37.7035 -0.0007
# 6 0.0010 0.0041 0.0001 -6.9818 -0.0007 61.1446
#
#
#
# Elastic Compliance Matrix: (Units=1/GPa)
#
#
# Indices 1 2 3 4 5 6 
#
# 1 0.011408 -0.003224 -0.007645 0.000000 0.010170 0.000000
# 2 -0.003224 0.016987 -0.000794 0.000000 0.003353 -0.000001
# 3 -0.007645 -0.000794 0.022850 0.000000 -0.004430 0.000000
# 4 0.000000 0.000000 0.000000 0.028994 0.000000 0.003311
# 5 0.010170 0.003353 -0.004430 0.000000 0.038727 0.000000
# 6 0.000000 -0.000001 0.000000 0.003311 0.000000 0.016733
#
#
# Mechanical properties :
#
#
# Convention : Reuss Voigt Hill
#
# Bulk Modulus (GPa) = 35.81823 57.86687 46.84255
# Shear Modulus (GPa) = 29.70309 39.82020 34.76165
#
# Velocity S-wave (km/s) = 3.32837 3.85374 3.60065
# Velocity P-wave (km/s) = 5.30373 6.43302 5.89548
#
# Compressibility (1/GPa) = 0.02791874
#
# Stress axis : x y z
#
# Youngs Moduli (GPa) = 87.65492 58.86898 43.76288
#
# Poissons Ratio (x) = 0.18980 0.33456
# Poissons Ratio (y) = 0.28262 0.03476
# Poissons Ratio (z) = 0.67011 0.04676
#
# Static dielectric constant tensor:
#      x y z
#    x 2.168250 0.000000 0.003410 
#    y 0.000000 2.464900 0.000000 
#    z 0.003410 0.000000 2.429860 
# 
# From -- ./inp_files/299988.got.cif
#   From: 2010.05.17/outbox.cif.g08.bks.cpg/sg15_150_cif.got.tgz:299988.got - 2010.06.03 18:47:42.
