data_PCOD9269596
_publ_section_title
;
Structure prediction by ZEFSAII (Michael W. Deem and Ramdas Pophale) SiO2 
 PCOD9269596
Probable space group: C 2/C
;
_chemical_formula_sum "Si O2"
_cell_formula_units_Z 44
_cell_length_a 8.703762
_cell_length_b 25.077559
_cell_length_c 10.629872
_cell_angle_alpha 90.000000
_cell_angle_beta 64.454254
_cell_angle_gamma 90.000000
_cell_volume 2093.355514
_symmetry_space_group_name_H-M "C 2/C"
_symmetry_group_IT_number 15
_symmetry_cell_setting 'monoclinic'
loop_
_space_group_symop_operation_xyz
x,y,z
-x,y,1/2-z
-x,-y,-z
x,-y,1/2+z
1/2+x,1/2+y,z
1/2-x,1/2+y,1/2-z
1/2-x,1/2-y,-z
1/2+x,1/2-y,1/2+z
loop_
_atom_site_type_symbol
_atom_site_label
_atom_site_fract_x
_atom_site_fract_y
_atom_site_fract_z
Si Si1 0.328743 0.235911 0.608386
Si Si2 0.070018 0.621223 0.865702
Si Si3 0.768590 0.093420 0.402584
Si Si4 0.000000 0.184778 0.750000
Si Si5 0.500000 0.494572 0.750000
Si Si6 0.500000 0.689129 0.250000
Si Si7 0.922765 0.910173 0.123544
O O1 0.250000 0.250000 0.500000
O O2 0.414139 0.177984 0.572162
O O3 0.153229 0.221499 0.743407
O O4 0.448232 0.274847 0.647245
O O5 0.251277 0.594504 0.770702
O O6 0.000000 0.632141 0.750000
O O7 0.929748 0.589782 0.994676
O O8 0.838055 0.149739 0.326152
O O9 0.866711 0.089597 0.500970
O O10 0.839454 0.044714 0.295906
O O11 0.972336 0.142863 0.874744
O O12 0.486890 0.535368 0.870395
#
# Coordination Sequence:
#
# PCOD9269596 Si02
#       7
#     8   8   8   4   4   4   8
#     4  11  22  36  57  85 117 161 197 243 294 347
#     4   9  19  37  57  83 115 153 201 240 296 353
#     4  10  21  36  56  84 117 153 197 250 294 355
#     4   9  20  35  54  84 110 147 204 235 288 358
#     4  10  20  34  58  86 112 152 202 242 308 358
#     4  11  24  37  58  88 122 159 204 241 298 356
#     4   9  18  37  59  79 114 152 195 249 298 359
#
# _framework density 21.018885999999998
#
# number of rings (size 3 to 8) (size 9 to 14) (size 15 to 20)
#    0.000    2.182    0.909    1.636    2.545    1.455 
#    0.000    0.000    0.000    0.000    0.000    0.000 
#    0.000    0.000    0.000    0.000    0.000    0.000 
#
# Total GULP energy -122502.020050 kJ/mol
# GULP energy per Si atom -5568.273639 kJ/mol
# Density = 2.097105 g / cm^3
# Si number density = 21.018886 Si / 1000 Ang^3
#
#
#
# Elastic Constant Matrix: (Units=GPa)
#
#
# Indices 1 2 3 4 5 6 
#
# 1 60.4184 16.4046 3.6043 0.0000 1.8443 0.0000
# 2 16.4046 93.8748 17.1591 0.0000 2.7162 0.0000
# 3 3.6043 17.1591 45.6840 0.0000 -1.0064 0.0000
# 4 0.0000 0.0000 0.0000 15.2987 0.0000 4.2115
# 5 1.8443 2.7162 -1.0064 0.0000 35.5032 0.0000
# 6 0.0000 0.0000 0.0000 4.2115 0.0000 9.8818
#
#
#
# Elastic Compliance Matrix: (Units=1/GPa)
#
#
# Indices 1 2 3 4 5 6 
#
# 1 0.017395 -0.002970 -0.000272 0.000000 -0.000684 0.000000
# 2 -0.002970 0.011980 -0.004285 0.000000 -0.000884 0.000000
# 3 -0.000272 -0.004285 0.023543 0.000000 0.001009 0.000000
# 4 0.000000 0.000000 0.000000 0.074053 0.000000 -0.031561
# 5 -0.000684 -0.000884 0.001009 0.000000 0.028298 0.000000
# 6 0.000000 0.000000 0.000000 -0.031561 0.000000 0.114646
#
#
# Mechanical properties :
#
#
# Convention : Reuss Voigt Hill
#
# Bulk Modulus (GPa) = 26.41057 30.47926 28.44491
# Shear Modulus (GPa) = 16.80159 22.99070 19.89615
#
# Velocity S-wave (km/s) = 2.83036 3.31087 3.08000
# Velocity P-wave (km/s) = 4.82428 5.39891 5.11966
#
# Compressibility (1/GPa) = 0.03786363
#
# Stress axis : x y z
#
# Youngs Moduli (GPa) = 57.48834 83.46994 42.47616
#
# Poissons Ratio (x) = 0.24793 0.01155
# Poissons Ratio (y) = 0.17076 0.18201
# Poissons Ratio (z) = 0.01563 0.35767
#
# Static dielectric constant tensor:
#      x y z
#    x 1.801480 0.000000 -0.045610 
#    y 0.000000 1.765320 0.000000 
#    z -0.045610 0.000000 1.823370 
# 
# From -- ./inp_files/79066.got.cif
#   From: 2010.05.17/outbox.cif.g08.bks.cpg/sg15_40_cif.got.tgz:79066.got - 2010.06.03 18:47:42.
