data_PCOD9269729
_publ_section_title
;
Structure prediction by ZEFSAII (Michael W. Deem and Ramdas Pophale) SiO2 
 PCOD9269729
Probable space group: C 2/C
;
_chemical_formula_sum "Si O2"
_cell_formula_units_Z 48
_cell_length_a 5.337936
_cell_length_b 21.580315
_cell_length_c 20.493599
_cell_angle_alpha 90.000000
_cell_angle_beta 120.360819
_cell_angle_gamma 90.000000
_cell_volume 2036.992675
_symmetry_space_group_name_H-M "C 2/C"
_symmetry_group_IT_number 15
_symmetry_cell_setting 'monoclinic'
loop_
_space_group_symop_operation_xyz
x,y,z
-x,y,1/2-z
-x,-y,-z
x,-y,1/2+z
1/2+x,1/2+y,z
1/2-x,1/2+y,1/2-z
1/2-x,1/2-y,-z
1/2+x,1/2-y,1/2+z
loop_
_atom_site_type_symbol
_atom_site_label
_atom_site_fract_x
_atom_site_fract_y
_atom_site_fract_z
Si Si1 0.587073 0.448235 0.565111
Si Si2 0.865506 0.504276 0.409178
Si Si3 0.950615 0.843261 0.036680
Si Si4 0.880754 0.293870 0.925420
Si Si5 0.273608 0.230372 0.162023
Si Si6 0.655879 0.373993 0.339421
O O1 0.500000 0.500000 0.500000
O O2 0.442771 0.464780 0.614440
O O3 0.482385 0.386999 0.514734
O O4 0.934213 0.453365 0.609755
O O5 0.841740 0.435320 0.377790
O O6 0.000000 0.500000 0.500000
O O7 0.040094 0.867532 0.120067
O O8 0.071222 0.775186 0.039443
O O9 0.596191 0.838748 0.993533
O O10 0.538040 0.302658 0.872423
O O11 0.047848 0.289321 0.878285
O O12 0.500000 0.220384 0.250000
O O13 0.212823 0.304769 0.150254
O O14 0.500000 0.384589 0.250000
#
# Coordination Sequence:
#
# PCOD9269729 Si02
#       6
#     8   8   8   8   8   8
#     4  10  20  34  60  85 116 159 203 256 299 373
#     4  10  20  35  57  87 114 164 200 251 307 372
#     4  10  21  38  60  96 129 164 221 260 332 381
#     4  10  23  36  62  93 128 169 212 274 309 403
#     4  10  22  40  61  90 128 170 213 268 333 383
#     4  10  21  37  61  92 130 163 207 270 329 381
#
# _framework density 23.564150999999999
#
# number of rings (size 3 to 8) (size 9 to 14) (size 15 to 20)
#    0.000    2.000    3.333    0.500    4.667    7.333 
#    0.000    4.167    0.000    4.000    0.000    0.000 
#    0.000    0.000    0.000    0.000    0.000    0.000 
#
# Total GULP energy -134032.026262 kJ/mol
# GULP energy per Si atom -5584.667761 kJ/mol
# Density = 2.351052 g / cm^3
# Si number density = 23.564151 Si / 1000 Ang^3
#
#
#
# Elastic Constant Matrix: (Units=GPa)
#
#
# Indices 1 2 3 4 5 6 
#
# 1 172.4836 15.3275 48.6504 0.0000 18.3375 0.0000
# 2 15.3275 65.6678 31.1551 0.0000 -10.4729 0.0000
# 3 48.6504 31.1551 124.7219 0.0000 -5.2926 0.0000
# 4 0.0000 0.0000 0.0000 34.4022 0.0000 1.7003
# 5 18.3375 -10.4729 -5.2926 0.0000 24.9491 0.0000
# 6 0.0000 0.0000 0.0000 1.7003 0.0000 18.4392
#
#
#
# Elastic Compliance Matrix: (Units=1/GPa)
#
#
# Indices 1 2 3 4 5 6 
#
# 1 0.007432 -0.001463 -0.002817 0.000000 -0.006674 0.000000
# 2 -0.001463 0.018637 -0.003741 0.000000 0.008105 0.000000
# 3 -0.002817 -0.003741 0.010164 0.000000 0.002656 0.000000
# 4 0.000000 0.000000 0.000000 0.029201 0.000000 -0.002693
# 5 -0.006674 0.008105 0.002656 0.000000 0.048952 0.000000
# 6 0.000000 0.000000 0.000000 -0.002693 0.000000 0.054481
#
#
# Mechanical properties :
#
#
# Convention : Reuss Voigt Hill
#
# Bulk Modulus (GPa) = 49.52531 61.45992 55.49261
# Shear Modulus (GPa) = 26.09094 33.40746 29.74920
#
# Velocity S-wave (km/s) = 3.33112 3.76935 3.55699
# Velocity P-wave (km/s) = 5.98815 6.71436 6.36163
#
# Compressibility (1/GPa) = 0.02019170
#
# Stress axis : x y z
#
# Youngs Moduli (GPa) = 134.56032 53.65678 98.38897
#
# Poissons Ratio (x) = 0.07848 0.27713
# Poissons Ratio (y) = 0.19681 0.36807
# Poissons Ratio (z) = 0.37902 0.20073
#
# Static dielectric constant tensor:
#      x y z
#    x 2.979960 0.000000 0.400670 
#    y 0.000000 1.991760 0.000000 
#    z 0.400670 0.000000 2.059170 
# 
# From -- ./inp_files/261465.got.cif
#   From: 2010.05.17/outbox.cif.g08.bks.cpg/sg15_131_cif.got.tgz:261465.got - 2010.06.03 18:47:42.
