data_PCOD9269842
_publ_section_title
;
Structure prediction by ZEFSAII (Michael W. Deem and Ramdas Pophale) SiO2 
 PCOD9269842
Probable space group: C 2/C
;
_chemical_formula_sum "Si O2"
_cell_formula_units_Z 60
_cell_length_a 14.489146
_cell_length_b 12.306394
_cell_length_c 22.876513
_cell_angle_alpha 90.000000
_cell_angle_beta 45.264726
_cell_angle_gamma 90.000000
_cell_volume 2897.649010
_symmetry_space_group_name_H-M "C 2/C"
_symmetry_group_IT_number 15
_symmetry_cell_setting 'monoclinic'
loop_
_space_group_symop_operation_xyz
x,y,z
-x,y,1/2-z
-x,-y,-z
x,-y,1/2+z
1/2+x,1/2+y,z
1/2-x,1/2+y,1/2-z
1/2-x,1/2-y,-z
1/2+x,1/2-y,1/2+z
loop_
_atom_site_type_symbol
_atom_site_label
_atom_site_fract_x
_atom_site_fract_y
_atom_site_fract_z
Si Si1 0.418168 0.387337 0.090894
Si Si2 0.802516 0.685745 0.337221
Si Si3 0.609440 0.858044 0.408039
Si Si4 0.115459 0.655973 0.332927
Si Si5 0.689648 0.518365 0.750745
Si Si6 0.196605 0.004001 0.460403
Si Si7 0.500000 0.365030 0.250000
Si Si8 0.615352 0.999975 0.018880
O O1 0.403587 0.269444 0.125989
O O2 0.345591 0.472583 0.166099
O O3 0.351973 0.403447 0.057398
O O4 0.566955 0.424766 0.026164
O O5 0.657436 0.736764 0.397677
O O6 0.863709 0.668899 0.245842
O O7 0.795857 0.578990 0.378849
O O8 0.890004 0.783751 0.324463
O O9 0.650558 0.935786 0.443960
O O10 0.695437 0.896333 0.314805
O O11 0.460746 0.889229 0.463658
O O12 0.247830 0.595976 0.293969
O O13 0.994217 0.578050 0.402505
O O14 0.568344 0.560136 0.767526
O O15 0.266582 0.980512 0.490174
#
# Coordination Sequence:
#
# PCOD9269842 Si02
#       8
#     8   8   8   8   8   8   4   8
#     4  11  23  42  60  90 131 163 199 258 315 364
#     4  11  20  36  60  93 120 163 203 253 305 361
#     4   9  20  38  60  86 123 156 203 252 300 358
#     4  11  21  40  64  86 126 162 203 253 310 365
#     4  10  21  38  61  88 119 163 205 253 301 363
#     4  11  25  38  63  94 128 160 203 257 316 368
#     4  10  20  34  62  92 118 152 208 260 294 352
#     4  10  22  39  61  93 118 160 204 255 304 365
#
# _framework density 20.706443
#
# number of rings (size 3 to 8) (size 9 to 14) (size 15 to 20)
#    0.000    1.600    4.000    1.600    3.733    1.067 
#    0.000    1.333    0.000    8.800    0.000    0.000 
#    0.000    0.000    0.000    0.000    0.000    0.000 
#
# Total GULP energy -167462.609610 kJ/mol
# GULP energy per Si atom -5582.086987 kJ/mol
# Density = 2.065931 g / cm^3
# Si number density = 20.706443 Si / 1000 Ang^3
#
#
#
# Elastic Constant Matrix: (Units=GPa)
#
#
# Indices 1 2 3 4 5 6 
#
# 1 126.2052 13.5884 12.1604 0.0000 -0.2473 0.0000
# 2 13.5884 38.3581 4.5492 0.0000 -9.1811 0.0000
# 3 12.1604 4.5492 72.8258 0.0000 -0.7092 0.0000
# 4 0.0000 0.0000 0.0000 32.4133 0.0000 -4.7035
# 5 -0.2473 -9.1811 -0.7092 0.0000 21.8177 0.0000
# 6 0.0000 0.0000 0.0000 -4.7035 0.0000 25.7472
#
#
#
# Elastic Compliance Matrix: (Units=1/GPa)
#
#
# Indices 1 2 3 4 5 6 
#
# 1 0.008375 -0.003124 -0.001215 0.000000 -0.001259 0.000000
# 2 -0.003124 0.030365 -0.001252 0.000000 0.012702 0.000000
# 3 -0.001215 -0.001252 0.014012 0.000000 -0.000085 0.000000
# 4 0.000000 0.000000 0.000000 0.031692 0.000000 0.005789
# 5 -0.001259 0.012702 -0.000085 0.000000 0.051163 0.000000
# 6 0.000000 0.000000 0.000000 0.005789 0.000000 0.039897
#
#
# Mechanical properties :
#
#
# Convention : Reuss Voigt Hill
#
# Bulk Modulus (GPa) = 24.05586 33.10943 28.58265
# Shear Modulus (GPa) = 24.93252 29.80170 27.36711
#
# Velocity S-wave (km/s) = 3.47377 3.79786 3.63942
# Velocity P-wave (km/s) = 5.26614 5.93770 5.61197
#
# Compressibility (1/GPa) = 0.04156991
#
# Stress axis : x y z
#
# Youngs Moduli (GPa) = 119.40864 32.93212 71.36891
#
# Poissons Ratio (x) = 0.10288 0.08675
# Poissons Ratio (y) = 0.37303 0.08932
# Poissons Ratio (z) = 0.14514 0.04121
#
# Static dielectric constant tensor:
#      x y z
#    x 1.766810 0.000000 0.000570 
#    y 0.000000 1.765630 0.000000 
#    z 0.000570 0.000000 1.764120 
# 
# From -- ./inp_files/273837.got.cif
#   From: 2010.05.17/outbox.cif.g08.bks.cpg/sg15_137_cif.got.tgz:273837.got - 2010.06.03 18:47:42.
