data_PCOD9269696
_publ_section_title
;
Structure prediction by ZEFSAII (Michael W. Deem and Ramdas Pophale) SiO2 
 PCOD9269696
Probable space group: C 2/C
;
_chemical_formula_sum "Si O2"
_cell_formula_units_Z 52
_cell_length_a 19.860957
_cell_length_b 18.367871
_cell_length_c 9.355686
_cell_angle_alpha 90.000000
_cell_angle_beta 51.778147
_cell_angle_gamma 90.000000
_cell_volume 2681.314130
_symmetry_space_group_name_H-M "C 2/C"
_symmetry_group_IT_number 15
_symmetry_cell_setting 'monoclinic'
loop_
_space_group_symop_operation_xyz
x,y,z
-x,y,1/2-z
-x,-y,-z
x,-y,1/2+z
1/2+x,1/2+y,z
1/2-x,1/2+y,1/2-z
1/2-x,1/2-y,-z
1/2+x,1/2-y,1/2+z
loop_
_atom_site_type_symbol
_atom_site_label
_atom_site_fract_x
_atom_site_fract_y
_atom_site_fract_z
Si Si1 0.321922 0.647764 0.870699
Si Si2 0.500000 0.836898 0.250000
Si Si3 0.248734 0.741240 0.233573
Si Si4 0.825505 0.403239 0.554572
Si Si5 0.500000 0.908731 0.750000
Si Si6 0.000000 0.837009 0.250000
Si Si7 0.568100 0.213972 0.948496
Si Si8 0.818157 0.467328 0.879085
O O1 0.320761 0.701809 0.735894
O O2 0.416707 0.622986 0.794493
O O3 0.286063 0.697837 0.047028
O O4 0.250885 0.585077 0.952142
O O5 0.425532 0.887426 0.408452
O O6 0.465910 0.788895 0.165763
O O7 0.215795 0.676608 0.376623
O O8 0.329435 0.784286 0.187980
O O9 0.810831 0.448220 0.720866
O O10 0.797992 0.451132 0.455670
O O11 0.533804 0.856087 0.579408
O O12 0.415605 0.950162 0.803061
O O13 0.965812 0.783524 0.419537
#
# Coordination Sequence:
#
# PCOD9269696 Si02
#       8
#     8   4   8   8   4   4   8   8
#     4   9  17  33  62  86 112 147 201 245 289 338
#     4  12  23  36  53  87 120 157 188 240 301 358
#     4   9  18  36  57  85 113 153 194 247 283 351
#     4  11  25  37  55  81 121 157 197 236 294 352
#     4  11  19  36  60  86 114 165 191 232 284 360
#     4   9  18  34  61  89 110 142 199 256 285 338
#     4  10  20  34  59  87 118 147 193 244 293 338
#     4  11  23  38  56  84 121 160 195 239 288 358
#
# _framework density 19.393477000000001
#
# number of rings (size 3 to 8) (size 9 to 14) (size 15 to 20)
#    0.000    1.846    3.077    1.385    6.462    1.846 
#    0.000    1.538    0.000    9.231    0.000    0.000 
#    0.000    0.000    0.000    0.000    0.000    0.000 
#
# Total GULP energy -145033.180636 kJ/mol
# GULP energy per Si atom -5578.199255 kJ/mol
# Density = 1.934934 g / cm^3
# Si number density = 19.393477 Si / 1000 Ang^3
#
#
#
# Elastic Constant Matrix: (Units=GPa)
#
#
# Indices 1 2 3 4 5 6 
#
# 1 98.7435 34.8423 27.9500 0.0000 -13.5481 0.0000
# 2 34.8423 63.2792 34.9721 0.0000 -7.6740 0.0000
# 3 27.9500 34.9721 68.3625 0.0000 -0.0201 0.0000
# 4 0.0000 0.0000 0.0000 98.8172 0.0000 3.0369
# 5 -13.5481 -7.6740 -0.0201 0.0000 34.5645 0.0000
# 6 0.0000 0.0000 0.0000 3.0369 0.0000 15.5840
#
#
#
# Elastic Compliance Matrix: (Units=1/GPa)
#
#
# Indices 1 2 3 4 5 6 
#
# 1 0.013339 -0.005356 -0.002713 0.000000 0.004038 0.000000
# 2 -0.005356 0.025039 -0.010619 0.000000 0.003454 0.000000
# 3 -0.002713 -0.010619 0.021168 0.000000 -0.003408 0.000000
# 4 0.000000 0.000000 0.000000 0.010181 0.000000 -0.001984
# 5 0.004038 0.003454 -0.003408 0.000000 0.031279 0.000000
# 6 0.000000 0.000000 0.000000 -0.001984 0.000000 0.064555
#
#
# Mechanical properties :
#
#
# Convention : Reuss Voigt Hill
#
# Bulk Modulus (GPa) = 45.10113 47.32376 46.21245
# Shear Modulus (GPa) = 23.77272 38.63455 31.20363
#
# Velocity S-wave (km/s) = 3.50496 4.46818 4.01556
# Velocity P-wave (km/s) = 6.29968 7.14664 6.73648
#
# Compressibility (1/GPa) = 0.02217239
#
# Stress axis : x y z
#
# Youngs Moduli (GPa) = 74.96898 39.93731 47.24099
#
# Poissons Ratio (x) = 0.21389 0.12814
# Poissons Ratio (y) = 0.40151 0.50163
# Poissons Ratio (z) = 0.20336 0.42408
#
# Static dielectric constant tensor:
#      x y z
#    x 1.709670 0.000000 -0.001910 
#    y 0.000000 1.677990 0.000000 
#    z -0.001910 0.000000 1.697830 
# 
# From -- ./inp_files/48494.got.cif
#   From: 2010.05.17/outbox.cif.g08.bks.cpg/sg15_25_cif.got.tgz:48494.got - 2010.06.03 18:47:42.
