data_PCOD9269148
_publ_section_title
;
Structure prediction by ZEFSAII (Michael W. Deem and Ramdas Pophale) SiO2 
 PCOD9269148
Probable space group: C 2/C
;
_chemical_formula_sum "Si O2"
_cell_formula_units_Z 64
_cell_length_a 15.032551
_cell_length_b 25.497300
_cell_length_c 14.076156
_cell_angle_alpha 90.000000
_cell_angle_beta 142.062436
_cell_angle_gamma 90.000000
_cell_volume 3317.007916
_symmetry_space_group_name_H-M "C 2/C"
_symmetry_group_IT_number 15
_symmetry_cell_setting 'monoclinic'
loop_
_space_group_symop_operation_xyz
x,y,z
-x,y,1/2-z
-x,-y,-z
x,-y,1/2+z
1/2+x,1/2+y,z
1/2-x,1/2+y,1/2-z
1/2-x,1/2-y,-z
1/2+x,1/2-y,1/2+z
loop_
_atom_site_type_symbol
_atom_site_label
_atom_site_fract_x
_atom_site_fract_y
_atom_site_fract_z
Si Si1 0.642795 0.145640 0.415663
Si Si2 0.836352 0.493678 0.726979
Si Si3 0.788098 0.091361 0.227316
Si Si4 0.784396 0.811470 0.850554
Si Si5 0.870684 0.919588 0.216119
Si Si6 0.991868 0.754216 0.349353
Si Si7 0.671919 0.010719 0.002037
Si Si8 0.431251 0.557084 0.963459
O O1 0.500000 0.118275 0.250000
O O2 0.742261 0.155593 0.408893
O O3 0.738705 0.116869 0.573357
O O4 0.584175 0.200654 0.408210
O O5 0.777724 0.445949 0.742734
O O6 0.817281 0.489843 0.596944
O O7 0.736013 0.544858 0.659150
O O8 0.005620 0.501417 0.890334
O O9 0.767872 0.150682 0.246636
O O10 0.961017 0.081403 0.369199
O O11 0.713292 0.069763 0.068583
O O12 0.666558 0.764843 0.755422
O O13 0.937288 0.786978 0.007222
O O14 0.938247 0.908102 0.374945
O O15 0.000000 0.920653 0.250000
O O16 0.792527 0.976134 0.156765
O O17 0.000000 0.780316 0.250000
O O18 0.500000 0.500000 0.000000
#
# Coordination Sequence:
#
# PCOD9269148 Si02
#       8
#     8   8   8   8   8   8   8   8
#     4   9  20  33  51  78 105 143 188 223 273 329
#     4  10  22  37  53  78 108 151 192 222 270 319
#     4  11  22  37  54  79 113 151 183 226 266 329
#     4  10  20  34  52  75 110 137 186 220 274 334
#     4  12  22  32  52  79 111 157 188 225 265 320
#     4   9  19  34  53  73 107 141 176 232 277 325
#     4  11  23  34  56  74 112 153 186 230 273 311
#     4  10  20  36  47  72 109 143 187 226 259 314
#
# _framework density 19.294497
#
# number of rings (size 3 to 8) (size 9 to 14) (size 15 to 20)
#    0.000    2.000    2.500    4.875    5.250    3.500 
#    0.000    0.000    0.000    0.000    0.000    0.000 
#    0.000   21.000    0.000    0.000    0.000    0.000 
#
# Total GULP energy -178368.060832 kJ/mol
# GULP energy per Si atom -5574.001901 kJ/mol
# Density = 1.925058 g / cm^3
# Si number density = 19.294497 Si / 1000 Ang^3
#
#
#
# Elastic Constant Matrix: (Units=GPa)
#
#
# Indices 1 2 3 4 5 6 
#
# 1 35.7722 4.1086 7.9189 0.0000 6.4904 0.0000
# 2 4.1086 42.6007 28.4047 0.0000 0.6297 0.0000
# 3 7.9189 28.4047 88.2570 0.0000 3.3148 0.0000
# 4 0.0000 0.0000 0.0000 38.7715 0.0000 -4.1585
# 5 6.4904 0.6297 3.3148 0.0000 28.2188 0.0000
# 6 0.0000 0.0000 0.0000 -4.1585 0.0000 8.3421
#
#
#
# Elastic Compliance Matrix: (Units=1/GPa)
#
#
# Indices 1 2 3 4 5 6 
#
# 1 0.029749 -0.001473 -0.001948 0.000000 -0.006581 0.000000
# 2 -0.001473 0.029966 -0.009542 0.000000 0.000791 0.000000
# 3 -0.001948 -0.009542 0.014616 0.000000 -0.001056 0.000000
# 4 0.000000 0.000000 0.000000 0.027249 0.000000 0.013584
# 5 -0.006581 0.000791 -0.001056 0.000000 0.037057 0.000000
# 6 0.000000 0.000000 0.000000 0.013584 0.000000 0.126646
#
#
# Mechanical properties :
#
#
# Convention : Reuss Voigt Hill
#
# Bulk Modulus (GPa) = 20.65875 27.49934 24.07904
# Shear Modulus (GPa) = 16.26836 23.47965 19.87400
#
# Velocity S-wave (km/s) = 2.90687 3.49221 3.21290
# Velocity P-wave (km/s) = 4.69008 5.52667 5.12547
#
# Compressibility (1/GPa) = 0.04840564
#
# Stress axis : x y z
#
# Youngs Moduli (GPa) = 33.61447 33.37067 68.41831
#
# Poissons Ratio (x) = 0.04915 0.13328
# Poissons Ratio (y) = 0.04951 0.65284
# Poissons Ratio (z) = 0.06548 0.31842
#
# Static dielectric constant tensor:
#      x y z
#    x 1.713530 0.000000 -0.000820 
#    y 0.000000 1.735910 0.000000 
#    z -0.000820 0.000000 1.716890 
# 
# From -- ./inp_files/157095.got.cif
#   From: 2010.05.17/outbox.cif.g08.bks.cpg/sg15_79_cif.got.tgz:157095.got - 2010.06.03 18:47:42.
