data_PCOD9269934
_publ_section_title
;
Structure prediction by ZEFSAII (Michael W. Deem and Ramdas Pophale) SiO2 
 PCOD9269934
Probable space group: C 2/C
;
_chemical_formula_sum "Si O2"
_cell_formula_units_Z 60
_cell_length_a 12.096030
_cell_length_b 24.131942
_cell_length_c 9.348633
_cell_angle_alpha 90.000000
_cell_angle_beta 72.045358
_cell_angle_gamma 90.000000
_cell_volume 2595.978696
_symmetry_space_group_name_H-M "C 2/C"
_symmetry_group_IT_number 15
_symmetry_cell_setting 'monoclinic'
loop_
_space_group_symop_operation_xyz
x,y,z
-x,y,1/2-z
-x,-y,-z
x,-y,1/2+z
1/2+x,1/2+y,z
1/2-x,1/2+y,1/2-z
1/2-x,1/2-y,-z
1/2+x,1/2-y,1/2+z
loop_
_atom_site_type_symbol
_atom_site_label
_atom_site_fract_x
_atom_site_fract_y
_atom_site_fract_z
Si Si1 0.319055 0.428141 0.524118
Si Si2 0.452675 0.406300 0.926194
Si Si3 0.844560 0.690043 0.818055
Si Si4 0.000000 0.785859 0.250000
Si Si5 0.172851 0.426935 0.076177
Si Si6 0.081835 0.219626 0.007153
Si Si7 0.706122 0.998948 0.318449
Si Si8 0.245306 0.813813 0.059700
O O1 0.458091 0.428097 0.490047
O O2 0.282263 0.460646 0.395252
O O3 0.272988 0.460872 0.681507
O O4 0.258496 0.366780 0.544011
O O5 0.500000 0.422880 0.750000
O O6 0.469729 0.339752 0.931629
O O7 0.316695 0.421412 0.005103
O O8 0.874470 0.634331 0.889513
O O9 0.911444 0.739304 0.865779
O O10 0.838529 0.681836 0.650200
O O11 0.712305 0.705646 0.909105
O O12 0.883739 0.820521 0.320281
O O13 0.020953 0.755009 0.390654
O O14 0.143253 0.458057 0.234423
O O15 0.135312 0.461877 0.954177
O O16 0.250000 0.750000 0.000000
#
# Coordination Sequence:
#
# PCOD9269934 Si02
#       8
#     8   8   8   4   8   8   8   8
#     4  11  22  37  53  81 119 158 206 244 290 358
#     4  11  21  31  50  75 111 156 196 241 289 345
#     4   9  19  35  52  77 108 148 197 247 294 350
#     4  10  20  38  54  84 114 160 190 246 302 362
#     4  10  20  35  49  74 108 150 196 243 288 345
#     4   9  19  32  54  74 108 150 195 238 299 349
#     4  10  22  34  53  76 111 160 202 244 281 353
#     4  11  23  37  60  84 119 160 203 254 312 359
#
# _framework density 23.112670000000001
#
# number of rings (size 3 to 8) (size 9 to 14) (size 15 to 20)
#    0.000    1.867    4.000    0.000    1.867    5.867 
#    0.000    0.000    0.000    0.000    0.000    0.000 
#    0.000   17.067    0.000    0.000    0.000    0.000 
#
# Total GULP energy -167379.596300 kJ/mol
# GULP energy per Si atom -5579.319877 kJ/mol
# Density = 2.306006 g / cm^3
# Si number density = 23.112670 Si / 1000 Ang^3
#
#
#
# Elastic Constant Matrix: (Units=GPa)
#
#
# Indices 1 2 3 4 5 6 
#
# 1 42.8866 10.5406 27.5440 0.0000 7.0707 0.0000
# 2 10.5406 124.9348 31.9155 0.0000 8.2015 0.0000
# 3 27.5440 31.9155 98.5194 0.0000 11.6455 0.0000
# 4 0.0000 0.0000 0.0000 28.8948 0.0000 10.2670
# 5 7.0707 8.2015 11.6455 0.0000 20.9544 0.0000
# 6 0.0000 0.0000 0.0000 10.2670 0.0000 16.5095
#
#
#
# Elastic Compliance Matrix: (Units=1/GPa)
#
#
# Indices 1 2 3 4 5 6 
#
# 1 0.029038 -0.000193 -0.007392 0.000000 -0.005615 0.000000
# 2 -0.000193 0.008805 -0.002567 0.000000 -0.001954 0.000000
# 3 -0.007392 -0.002567 0.013523 0.000000 -0.004016 0.000000
# 4 0.000000 0.000000 0.000000 0.044425 0.000000 -0.027627
# 5 -0.005615 -0.001954 -0.004016 0.000000 0.052614 0.000000
# 6 0.000000 0.000000 0.000000 -0.027627 0.000000 0.077752
#
#
# Mechanical properties :
#
#
# Convention : Reuss Voigt Hill
#
# Bulk Modulus (GPa) = 32.19464 45.14900 38.67182
# Shear Modulus (GPa) = 19.46919 26.36112 22.91516
#
# Velocity S-wave (km/s) = 2.90549 3.38086 3.15215
# Velocity P-wave (km/s) = 5.02151 5.90060 5.47871
#
# Compressibility (1/GPa) = 0.03106107
#
# Stress axis : x y z
#
# Youngs Moduli (GPa) = 34.43756 113.57727 73.94558
#
# Poissons Ratio (x) = 0.02191 0.54663
# Poissons Ratio (y) = 0.00664 0.18984
# Poissons Ratio (z) = 0.25457 0.29159
#
# Static dielectric constant tensor:
#      x y z
#    x 1.922370 0.000000 -0.005540 
#    y 0.000000 1.880700 0.000000 
#    z -0.005540 0.000000 1.870330 
# 
# From -- ./inp_files/42169.got.cif
#   From: 2010.05.17/outbox.cif.g08.bks.cpg/sg15_22_cif.got.tgz:42169.got - 2010.06.03 18:47:42.
