data_PCOD9269358
_publ_section_title
;
Structure prediction by ZEFSAII (Michael W. Deem and Ramdas Pophale) SiO2 
 PCOD9269358
Probable space group: C 2/C
;
_chemical_formula_sum "Si O2"
_cell_formula_units_Z 60
_cell_length_a 5.467208
_cell_length_b 28.280961
_cell_length_c 25.768723
_cell_angle_alpha 90.000000
_cell_angle_beta 124.622800
_cell_angle_gamma 90.000000
_cell_volume 3278.726384
_symmetry_space_group_name_H-M "C 2/C"
_symmetry_group_IT_number 15
_symmetry_cell_setting 'monoclinic'
loop_
_space_group_symop_operation_xyz
x,y,z
-x,y,1/2-z
-x,-y,-z
x,-y,1/2+z
1/2+x,1/2+y,z
1/2-x,1/2+y,1/2-z
1/2-x,1/2-y,-z
1/2+x,1/2-y,1/2+z
loop_
_atom_site_type_symbol
_atom_site_label
_atom_site_fract_x
_atom_site_fract_y
_atom_site_fract_z
Si Si1 0.500000 0.961448 0.750000
Si Si2 0.548048 0.861116 0.009633
Si Si3 0.915128 0.176907 0.389509
Si Si4 0.893801 0.739766 0.959943
Si Si5 0.856539 0.597985 0.084470
Si Si6 0.134471 0.464490 0.059915
Si Si7 0.292393 0.999036 0.119047
Si Si8 0.503239 0.617025 0.310637
O O1 0.229198 0.925357 0.713562
O O2 0.523475 0.990875 0.806086
O O3 0.727280 0.875895 0.978959
O O4 0.227387 0.840959 0.952530
O O5 0.672656 0.815837 0.055336
O O6 0.536549 0.910637 0.037189
O O7 0.797528 0.224252 0.402740
O O8 0.689260 0.135668 0.376369
O O9 0.958127 0.167292 0.334204
O O10 0.750000 0.750000 0.000000
O O11 0.250000 0.750000 0.000000
O O12 0.702725 0.549419 0.081292
O O13 0.209615 0.592275 0.128223
O O14 0.490700 0.471262 0.096957
O O15 0.001045 0.476853 0.099973
O O16 0.000000 0.500000 0.000000
O O17 0.500000 0.627649 0.250000
#
# Coordination Sequence:
#
# PCOD9269358 Si02
#       8
#     4   8   8   8   8   8   8   8
#     4  12  24  38  58  82 118 156 202 254 288 356
#     4  10  22  35  55  82 123 155 190 238 287 359
#     4  10  20  34  55  86 117 155 188 237 299 363
#     4  10  20  35  57  84 115 153 189 228 286 352
#     4  11  19  32  56  81 117 153 189 233 294 358
#     4  12  25  37  57  86 123 158 194 238 297 354
#     4  12  25  38  56  85 115 160 198 240 294 349
#     4  11  20  33  54  83 117 153 189 241 305 350
#
# _framework density 18.299786999999998
#
# number of rings (size 3 to 8) (size 9 to 14) (size 15 to 20)
#    0.000    1.067    5.333    2.000    1.867    0.000 
#    0.000    0.000    0.000    0.000    1.733    1.867 
#    0.000    0.000    0.000    0.000    0.000    0.000 
#
# Total GULP energy -167008.768634 kJ/mol
# GULP energy per Si atom -5566.958954 kJ/mol
# Density = 1.825814 g / cm^3
# Si number density = 18.299787 Si / 1000 Ang^3
#
#
#
# Elastic Constant Matrix: (Units=GPa)
#
#
# Indices 1 2 3 4 5 6 
#
# 1 95.1833 29.3284 30.0592 0.0000 -26.4002 0.0000
# 2 29.3284 133.4110 29.7338 0.0000 -31.9304 0.0000
# 3 30.0592 29.7338 46.7813 0.0000 -33.3690 0.0000
# 4 0.0000 0.0000 0.0000 24.4954 0.0000 -10.3532
# 5 -26.4002 -31.9304 -33.3690 0.0000 36.9258 0.0000
# 6 0.0000 0.0000 0.0000 -10.3532 0.0000 27.0763
#
#
#
# Elastic Compliance Matrix: (Units=1/GPa)
#
#
# Indices 1 2 3 4 5 6 
#
# 1 0.013581 -0.000793 -0.005024 0.000000 0.004484 0.000000
# 2 -0.000793 0.009502 -0.000207 0.000000 0.007463 0.000000
# 3 -0.005024 -0.000207 0.062030 0.000000 0.052284 0.000000
# 4 0.000000 0.000000 0.000000 0.048694 0.000000 0.018619
# 5 0.004484 0.007463 0.052284 0.000000 0.083989 0.000000
# 6 0.000000 0.000000 0.000000 0.018619 0.000000 0.044052
#
#
# Mechanical properties :
#
#
# Convention : Reuss Voigt Hill
#
# Bulk Modulus (GPa) = 13.68624 50.40205 32.04415
# Shear Modulus (GPa) = 16.76452 30.11643 23.44047
#
# Velocity S-wave (km/s) = 3.03001 4.06116 3.58287
# Velocity P-wave (km/s) = 4.44257 7.04222 5.88767
#
# Compressibility (1/GPa) = 0.07306608
#
# Stress axis : x y z
#
# Youngs Moduli (GPa) = 73.63478 105.23897 16.12129
#
# Poissons Ratio (x) = 0.08341 0.08099
# Poissons Ratio (y) = 0.05836 0.00333
# Poissons Ratio (z) = 0.36993 0.02176
#
# Static dielectric constant tensor:
#      x y z
#    x 1.720570 0.000000 -0.031140 
#    y 0.000000 1.652100 0.000000 
#    z -0.031140 0.000000 1.650690 
# 
# From -- ./inp_files/286763.got.cif
#   From: 2010.05.17/outbox.cif.g08.bks.cpg/sg15_144_cif.got.tgz:286763.got - 2010.06.03 18:47:42.
