data_PCOD9269843
_publ_section_title
;
Structure prediction by ZEFSAII (Michael W. Deem and Ramdas Pophale) SiO2 
 PCOD9269843
Probable space group: C 2/C
;
_chemical_formula_sum "Si O2"
_cell_formula_units_Z 60
_cell_length_a 29.164343
_cell_length_b 17.436280
_cell_length_c 14.285152
_cell_angle_alpha 90.000000
_cell_angle_beta 160.552393
_cell_angle_gamma 90.000000
_cell_volume 2418.594470
_symmetry_space_group_name_H-M "C 2/C"
_symmetry_group_IT_number 15
_symmetry_cell_setting 'monoclinic'
loop_
_space_group_symop_operation_xyz
x,y,z
-x,y,1/2-z
-x,-y,-z
x,-y,1/2+z
1/2+x,1/2+y,z
1/2-x,1/2+y,1/2-z
1/2-x,1/2-y,-z
1/2+x,1/2-y,1/2+z
loop_
_atom_site_type_symbol
_atom_site_label
_atom_site_fract_x
_atom_site_fract_y
_atom_site_fract_z
Si Si1 0.751814 0.412253 0.815461
Si Si2 0.025898 0.941536 0.134813
Si Si3 0.337279 0.041247 0.230522
Si Si4 0.950294 0.455850 0.746732
Si Si5 0.561754 0.832404 0.198641
Si Si6 0.000000 0.219742 0.250000
Si Si7 0.778877 0.751119 0.830932
Si Si8 0.992621 0.237042 0.889170
O O1 0.599795 0.446499 0.533263
O O2 0.763275 0.341382 0.765515
O O3 0.868648 0.476525 0.032523
O O4 0.795556 0.373212 0.999768
O O5 0.181731 0.957758 0.466129
O O6 0.022025 0.850494 0.104994
O O7 0.000000 0.000000 0.000000
O O8 0.416015 0.968601 0.428351
O O9 0.440770 0.106039 0.466057
O O10 0.341915 0.053244 0.125953
O O11 0.000000 0.407557 0.750000
O O12 0.533948 0.770662 0.225011
O O13 0.549744 0.789738 0.079358
O O14 0.154194 0.191672 0.572316
O O15 0.846175 0.740168 0.061879
O O16 0.897040 0.752072 0.980584
#
# Coordination Sequence:
#
# PCOD9269843 Si02
#       8
#     8   8   8   8   8   4   8   8
#     4   9  20  36  62  91 122 156 211 253 305 363
#     4  11  21  37  59  90 126 155 202 257 307 359
#     4  10  22  38  62  91 119 161 208 253 302 365
#     4  10  21  38  62  89 121 163 209 250 299 362
#     4  10  22  40  64  90 118 166 208 253 304 371
#     4  10  20  34  62  92 120 150 208 256 300 368
#     4   9  20  36  57  92 115 161 200 252 299 364
#     4  10  22  40  61  87 127 162 202 250 312 367
#
# _framework density 24.807797000000001
#
# number of rings (size 3 to 8) (size 9 to 14) (size 15 to 20)
#    0.000    2.133    1.333    0.800   10.267    6.933 
#    2.400    0.000    0.000    3.200    0.000    0.000 
#    0.000    0.000    0.000    0.000    0.000    0.000 
#
# Total GULP energy -167188.730810 kJ/mol
# GULP energy per Si atom -5572.957694 kJ/mol
# Density = 2.475133 g / cm^3
# Si number density = 24.807797 Si / 1000 Ang^3
#
#
#
# Elastic Constant Matrix: (Units=GPa)
#
#
# Indices 1 2 3 4 5 6 
#
# 1 123.3907 9.7717 29.7807 0.0000 -10.2177 0.0000
# 2 9.7717 46.4060 13.6798 0.0000 -3.2456 0.0000
# 3 29.7807 13.6798 149.9222 0.0000 19.0745 0.0000
# 4 0.0000 0.0000 0.0000 9.0425 0.0000 -14.6479
# 5 -10.2177 -3.2456 19.0745 0.0000 44.6399 0.0000
# 6 0.0000 0.0000 0.0000 -14.6479 0.0000 7.1603
#
#
#
# Elastic Compliance Matrix: (Units=1/GPa)
#
#
# Indices 1 2 3 4 5 6 
#
# 1 0.008915 -0.001080 -0.002032 0.000000 0.002830 0.000000
# 2 -0.001080 0.022568 -0.002138 0.000000 0.002307 0.000000
# 3 -0.002032 -0.002138 0.007770 0.000000 -0.003941 0.000000
# 4 0.000000 0.000000 0.000000 -0.047795 0.000000 -0.097774
# 5 0.002830 0.002307 -0.003941 0.000000 0.024901 0.000000
# 6 0.000000 0.000000 0.000000 -0.097774 0.000000 -0.060358
#
#
# Mechanical properties :
#
#
# Convention : Reuss Voigt Hill
#
# Bulk Modulus (GPa) = 34.78057 47.35372 41.06714
# Shear Modulus (GPa) = -209.08852 29.93432 -89.57710
#
# Velocity S-wave (km/s) = -9.19056 3.47745 -6.01555
# Velocity P-wave (km/s) = 9.92831 5.93745 5.62664
#
# Compressibility (1/GPa) = 0.02875169
#
# Stress axis : x y z
#
# Youngs Moduli (GPa) = 112.17327 44.31039 128.69434
#
# Poissons Ratio (x) = 0.04786 0.26156
# Poissons Ratio (y) = 0.12116 0.27518
# Poissons Ratio (z) = 0.22798 0.09475
#
# Static dielectric constant tensor:
#      x y z
#    x 2.046290 0.000000 -0.029000 
#    y 0.000000 2.152980 0.000000 
#    z -0.029000 0.000000 2.059040 
# 
# From -- ./inp_files/183078.got.cif
#   From: 2010.05.17/outbox.cif.g08.bks.cpg/sg15_92_cif.got.tgz:183078.got - 2010.06.03 18:47:42.
