data_PCOD9269195
_publ_section_title
;
Structure prediction by ZEFSAII (Michael W. Deem and Ramdas Pophale) SiO2 
 PCOD9269195
Probable space group: C 2/C
;
_chemical_formula_sum "Si O2"
_cell_formula_units_Z 64
_cell_length_a 7.906823
_cell_length_b 32.147021
_cell_length_c 13.575347
_cell_angle_alpha 90.000000
_cell_angle_beta 58.357758
_cell_angle_gamma 90.000000
_cell_volume 2937.628867
_symmetry_space_group_name_H-M "C 2/C"
_symmetry_group_IT_number 15
_symmetry_cell_setting 'monoclinic'
loop_
_space_group_symop_operation_xyz
x,y,z
-x,y,1/2-z
-x,-y,-z
x,-y,1/2+z
1/2+x,1/2+y,z
1/2-x,1/2+y,1/2-z
1/2-x,1/2-y,-z
1/2+x,1/2-y,1/2+z
loop_
_atom_site_type_symbol
_atom_site_label
_atom_site_fract_x
_atom_site_fract_y
_atom_site_fract_z
Si Si1 0.717705 0.255156 0.628068
Si Si2 0.305550 0.045878 0.875834
Si Si3 0.701124 0.649447 0.129500
Si Si4 0.183746 0.143807 0.629795
Si Si5 0.493448 0.613823 0.496205
Si Si6 0.002810 0.581957 0.495789
Si Si7 0.297554 0.047622 0.372855
Si Si8 0.412504 0.266213 0.372941
O O1 0.500000 0.249367 0.750000
O O2 0.750000 0.250000 0.500000
O O3 0.774385 0.303934 0.626983
O O4 0.885754 0.226752 0.626897
O O5 0.500000 0.049689 0.750000
O O6 0.375232 0.053267 0.967303
O O7 0.223376 0.999553 0.885648
O O8 0.150851 0.082281 0.901998
O O9 0.500000 0.644468 0.250000
O O10 0.636919 0.642291 0.035314
O O11 0.852041 0.612620 0.108299
O O12 0.371640 0.115651 0.595394
O O13 0.193192 0.193082 0.640916
O O14 0.000000 0.128730 0.750000
O O15 0.128649 0.138327 0.531647
O O16 0.636840 0.582165 0.393407
O O17 0.861347 0.556673 0.466280
O O18 0.500000 0.051153 0.250000
O O19 0.500000 0.241783 0.250000
O O20 0.250000 0.250000 0.500000
#
# Coordination Sequence:
#
# PCOD9269195 Si02
#       8
#     8   8   8   8   8   8   8   8
#     4  11  23  40  61  87 118 153 194 242 295 353
#     4  10  20  34  53  78 107 140 178 220 268 321
#     4  10  21  37  56  80 109 142 182 225 274 331
#     4  10  21  37  56  80 109 142 182 225 274 331
#     4  10  20  35  55  78 107 141 179 222 270 322
#     4  10  20  35  55  78 107 141 179 222 270 322
#     4  10  20  34  53  78 107 140 178 220 268 321
#     4  11  23  40  61  87 118 153 194 242 295 353
#
# _framework density 21.786280000000001
#
# number of rings (size 3 to 8) (size 9 to 14) (size 15 to 20)
#    0.000    1.750    0.000    4.500    0.000    2.000 
#    0.000    6.250    0.000   12.000    0.000    0.000 
#    0.000    0.000    0.000    0.000    0.000    0.000 
#
# Total GULP energy -178443.844638 kJ/mol
# GULP energy per Si atom -5576.370145 kJ/mol
# Density = 2.173669 g / cm^3
# Si number density = 21.786280 Si / 1000 Ang^3
#
#
#
# Elastic Constant Matrix: (Units=GPa)
#
#
# Indices 1 2 3 4 5 6 
#
# 1 41.1291 -5.3112 0.9911 0.0000 3.4557 0.0000
# 2 -5.3112 63.1151 19.4784 0.0000 -5.3116 0.0000
# 3 0.9911 19.4784 118.1563 0.0000 -15.8859 0.0000
# 4 0.0000 0.0000 0.0000 -11.4877 0.0000 3.4102
# 5 3.4557 -5.3116 -15.8859 0.0000 34.9816 0.0000
# 6 0.0000 0.0000 0.0000 3.4102 0.0000 4.2697
#
#
#
# Elastic Compliance Matrix: (Units=1/GPa)
#
#
# Indices 1 2 3 4 5 6 
#
# 1 0.024827 0.002155 -0.000904 0.000000 -0.002536 0.000000
# 2 0.002155 0.016942 -0.002656 0.000000 0.001153 0.000000
# 3 -0.000904 -0.002656 0.009443 0.000000 0.003974 0.000000
# 4 0.000000 0.000000 0.000000 -0.070366 0.000000 0.056202
# 5 -0.002536 0.001153 0.003974 0.000000 0.030817 0.000000
# 6 0.000000 0.000000 0.000000 0.056202 0.000000 0.189320
#
#
# Mechanical properties :
#
#
# Convention : Reuss Voigt Hill
#
# Bulk Modulus (GPa) = 20.66070 28.07969 24.37019
# Shear Modulus (GPa) = 22.73464 19.36886 21.05175
#
# Velocity S-wave (km/s) = 3.23388 2.98491 3.11188
# Velocity P-wave (km/s) = 4.84230 4.97959 4.91142
#
# Compressibility (1/GPa) = 0.04840107
#
# Stress axis : x y z
#
# Youngs Moduli (GPa) = 40.27900 59.02441 105.89690
#
# Poissons Ratio (x) = -0.12719 0.09578
# Poissons Ratio (y) = -0.08680 0.28126
# Poissons Ratio (z) = 0.03643 0.15677
#
# Static dielectric constant tensor:
#      x y z
#    x 1.840230 0.000000 0.060890 
#    y 0.000000 1.802950 0.000000 
#    z 0.060890 0.000000 1.931560 
# 
# From -- ./inp_files/139800.got.cif
#   From: 2010.05.17/outbox.cif.g08.bks.cpg/sg15_70_cif.got.tgz:139800.got - 2010.06.03 18:47:42.
