data_PCOD9269018
_publ_section_title
;
Structure prediction by ZEFSAII (Michael W. Deem and Ramdas Pophale) SiO2 
 PCOD9269018
Probable space group: C 2/C
;
_chemical_formula_sum "Si O2"
_cell_formula_units_Z 48
_cell_length_a 6.918889
_cell_length_b 21.772651
_cell_length_c 17.023721
_cell_angle_alpha 90.000000
_cell_angle_beta 107.158652
_cell_angle_gamma 90.000000
_cell_volume 2450.354963
_symmetry_space_group_name_H-M "C 2/C"
_symmetry_group_IT_number 15
_symmetry_cell_setting 'monoclinic'
loop_
_space_group_symop_operation_xyz
x,y,z
-x,y,1/2-z
-x,-y,-z
x,-y,1/2+z
1/2+x,1/2+y,z
1/2-x,1/2+y,1/2-z
1/2-x,1/2-y,-z
1/2+x,1/2-y,1/2+z
loop_
_atom_site_type_symbol
_atom_site_label
_atom_site_fract_x
_atom_site_fract_y
_atom_site_fract_z
Si Si1 0.988408 0.879246 0.446950
Si Si2 0.789410 0.158575 0.766950
Si Si3 0.500000 0.946793 0.250000
Si Si4 0.297405 0.013758 0.578355
Si Si5 0.500000 0.733303 0.250000
Si Si6 0.071209 0.602314 0.502714
Si Si7 0.298088 0.691097 0.062534
O O1 0.834072 0.849163 0.365484
O O2 0.916558 0.950447 0.443095
O O3 0.949733 0.849286 0.526834
O O4 0.216114 0.869265 0.443550
O O5 0.654209 0.100333 0.727168
O O6 0.670632 0.220692 0.737138
O O7 0.000000 0.156890 0.750000
O O8 0.623568 0.987291 0.324115
O O9 0.442054 0.061079 0.547708
O O10 0.338887 0.947169 0.548127
O O11 0.398109 0.701849 0.160660
O O12 0.912342 0.653076 0.454010
O O13 0.250000 0.750000 0.000000
#
# Coordination Sequence:
#
# PCOD9269018 Si02
#       7
#     8   8   4   8   4   8   8
#     4  10  20  37  63  88 114 154 204 244 300 361
#     4  10  20  33  60  90 110 151 198 252 291 343
#     4   9  18  34  54  84 122 144 190 249 290 354
#     4   9  19  37  58  86 121 153 190 246 302 350
#     4  11  24  42  56  82 126 150 200 251 294 352
#     4  10  21  37  62  86 117 155 197 241 300 366
#     4  11  24  42  60  85 119 162 197 250 300 351
#
# _framework density 19.588999999999999
#
# number of rings (size 3 to 8) (size 9 to 14) (size 15 to 20)
#    0.000    2.000    1.667    1.500    4.667    2.000 
#    3.000    0.000    0.000    0.000    0.000    0.000 
#    0.000    0.000    0.000    0.000    0.000    0.000 
#
# Total GULP energy -133673.872879 kJ/mol
# GULP energy per Si atom -5569.744703 kJ/mol
# Density = 1.954441 g / cm^3
# Si number density = 19.589000 Si / 1000 Ang^3
#
#
#
# Elastic Constant Matrix: (Units=GPa)
#
#
# Indices 1 2 3 4 5 6 
#
# 1 109.2013 15.4333 8.4759 0.0000 18.1705 0.0000
# 2 15.4333 63.1857 44.6614 0.0000 14.7620 0.0000
# 3 8.4759 44.6614 106.1758 0.0000 14.9074 0.0000
# 4 0.0000 0.0000 0.0000 -1.2724 0.0000 20.7884
# 5 18.1705 14.7620 14.9074 0.0000 28.4664 0.0000
# 6 0.0000 0.0000 0.0000 20.7884 0.0000 10.3052
#
#
#
# Elastic Compliance Matrix: (Units=1/GPa)
#
#
# Indices 1 2 3 4 5 6 
#
# 1 0.010351 -0.001590 0.000706 0.000000 -0.006153 0.000000
# 2 -0.001590 0.024245 -0.009119 0.000000 -0.006782 0.000000
# 3 0.000706 -0.009119 0.013597 0.000000 -0.002842 0.000000
# 4 0.000000 0.000000 0.000000 -0.023144 0.000000 0.046687
# 5 -0.006153 -0.006782 -0.002842 0.000000 0.044062 0.000000
# 6 0.000000 0.000000 0.000000 0.046687 0.000000 0.002857
#
#
# Mechanical properties :
#
#
# Convention : Reuss Voigt Hill
#
# Bulk Modulus (GPa) = 35.47719 46.18934 40.83326
# Shear Modulus (GPa) = 49.32416 21.49933 35.41174
#
# Velocity S-wave (km/s) = 5.02336 3.31648 4.25636
# Velocity P-wave (km/s) = 7.19692 6.18836 6.71161
#
# Compressibility (1/GPa) = 0.02818713
#
# Stress axis : x y z
#
# Youngs Moduli (GPa) = 96.60850 41.24572 73.54636
#
# Poissons Ratio (x) = 0.06559 -0.05195
# Poissons Ratio (y) = 0.15362 0.67068
# Poissons Ratio (z) = -0.06824 0.37612
#
# Static dielectric constant tensor:
#      x y z
#    x 1.711210 0.000000 0.034980 
#    y 0.000000 1.710720 0.000000 
#    z 0.034980 0.000000 1.732540 
# 
# From -- ./inp_files/185333.got.cif
#   From: 2010.05.17/outbox.cif.g08.bks.cpg/sg15_93_cif.got.tgz:185333.got - 2010.06.03 18:47:42.
