data_PCOD9269925
_publ_section_title
;
Structure prediction by ZEFSAII (Michael W. Deem and Ramdas Pophale) SiO2 
 PCOD9269925
Probable space group: C 2/C
;
_chemical_formula_sum "Si O2"
_cell_formula_units_Z 60
_cell_length_a 15.141040
_cell_length_b 22.472703
_cell_length_c 9.322159
_cell_angle_alpha 90.000000
_cell_angle_beta 115.438846
_cell_angle_gamma 90.000000
_cell_volume 2864.419139
_symmetry_space_group_name_H-M "C 2/C"
_symmetry_group_IT_number 15
_symmetry_cell_setting 'monoclinic'
loop_
_space_group_symop_operation_xyz
x,y,z
-x,y,1/2-z
-x,-y,-z
x,-y,1/2+z
1/2+x,1/2+y,z
1/2-x,1/2+y,1/2-z
1/2-x,1/2-y,-z
1/2+x,1/2-y,1/2+z
loop_
_atom_site_type_symbol
_atom_site_label
_atom_site_fract_x
_atom_site_fract_y
_atom_site_fract_z
Si Si1 0.245402 0.867974 0.684209
Si Si2 0.117120 0.069247 0.326208
Si Si3 0.448736 0.952551 0.564112
Si Si4 0.500000 0.765285 0.250000
Si Si5 0.797130 0.249965 0.192765
Si Si6 0.266063 0.550763 0.587489
Si Si7 0.071629 0.628234 0.985124
Si Si8 0.225890 0.385661 0.349918
O O1 0.163317 0.905895 0.711514
O O2 0.240830 0.797917 0.719910
O O3 0.230453 0.891087 0.512387
O O4 0.350155 0.882162 0.832650
O O5 0.177744 0.108966 0.482898
O O6 0.000000 0.073420 0.250000
O O7 0.153336 0.000548 0.372834
O O8 0.500000 0.944361 0.750000
O O9 0.340677 0.974113 0.523769
O O10 0.469345 0.895177 0.478690
O O11 0.500000 0.000000 0.500000
O O12 0.409724 0.731086 0.251620
O O13 0.453588 0.806492 0.092359
O O14 0.787265 0.319387 0.223601
O O15 0.750000 0.250000 0.000000
O O16 0.249689 0.569126 0.740207
O O17 0.131023 0.603278 0.886651
#
# Coordination Sequence:
#
# PCOD9269925 Si02
#       8
#     8   8   8   4   8   8   8   8
#     4  11  23  42  66  98 134 170 227 287 338 407
#     4  11  25  45  71  95 130 186 237 279 332 405
#     4  12  25  35  61  94 129 168 210 262 329 402
#     4  10  20  34  70  90 120 172 216 274 330 394
#     4  11  20  40  67  99 128 170 232 284 331 406
#     4  12  26  42  63  96 141 174 219 281 345 404
#     4  10  20  42  59  92 125 168 217 261 334 403
#     4  10  23  42  68  95 133 176 224 283 340 406
#
# _framework density 20.946655
#
# number of rings (size 3 to 8) (size 9 to 14) (size 15 to 20)
#    0.000    1.067    5.333    4.000    5.600    2.667 
#    0.000    0.000    0.000    0.000    0.000    0.000 
#    0.000    0.000    0.000    0.000    0.000    0.000 
#
# Total GULP energy -167142.464365 kJ/mol
# GULP energy per Si atom -5571.415479 kJ/mol
# Density = 2.089898 g / cm^3
# Si number density = 20.946655 Si / 1000 Ang^3
#
#
#
# Elastic Constant Matrix: (Units=GPa)
#
#
# Indices 1 2 3 4 5 6 
#
# 1 92.6172 8.4376 27.9230 0.0000 16.4092 0.0000
# 2 8.4376 81.9082 6.9224 0.0000 -10.4809 0.0000
# 3 27.9230 6.9224 75.8435 0.0000 -8.5082 0.0000
# 4 0.0000 0.0000 0.0000 31.5634 0.0000 -3.5997
# 5 16.4092 -10.4809 -8.5082 0.0000 27.6965 0.0000
# 6 0.0000 0.0000 0.0000 -3.5997 0.0000 36.8753
#
#
#
# Elastic Compliance Matrix: (Units=1/GPa)
#
#
# Indices 1 2 3 4 5 6 
#
# 1 0.015177 -0.002534 -0.006704 0.000000 -0.012010 0.000000
# 2 -0.002534 0.013284 0.000469 0.000000 0.006672 0.000000
# 3 -0.006704 0.000469 0.016649 0.000000 0.009264 0.000000
# 4 0.000000 0.000000 0.000000 0.032039 0.000000 0.003128
# 5 -0.012010 0.006672 0.009264 0.000000 0.048592 0.000000
# 6 0.000000 0.000000 0.000000 0.003128 0.000000 0.027424
#
#
# Mechanical properties :
#
#
# Convention : Reuss Voigt Hill
#
# Bulk Modulus (GPa) = 36.26687 37.43721 36.85204
# Shear Modulus (GPa) = 27.79441 33.03278 30.41360
#
# Velocity S-wave (km/s) = 3.64664 3.97545 3.81459
# Velocity P-wave (km/s) = 5.92301 6.24369 6.08547
#
# Compressibility (1/GPa) = 0.02757338
#
# Stress axis : x y z
#
# Youngs Moduli (GPa) = 65.89006 75.27910 60.06192
#
# Poissons Ratio (x) = 0.19073 0.40263
# Poissons Ratio (y) = 0.16694 -0.02816
# Poissons Ratio (z) = 0.44170 -0.03529
#
# Static dielectric constant tensor:
#      x y z
#    x 1.976370 0.000000 0.071130 
#    y 0.000000 2.290490 0.000000 
#    z 0.071130 0.000000 1.790110 
# 
# From -- ./inp_files/42709.got.cif
#   From: 2010.05.17/outbox.cif.g08.bks.cpg/sg15_22_cif.got.tgz:42709.got - 2010.06.03 18:47:42.
