data_PCOD9269502
_publ_section_title
;
Structure prediction by ZEFSAII (Michael W. Deem and Ramdas Pophale) SiO2 
 PCOD9269502
Probable space group: C 2/C
;
_chemical_formula_sum "Si O2"
_cell_formula_units_Z 44
_cell_length_a 22.914927
_cell_length_b 8.628444
_cell_length_c 21.720666
_cell_angle_alpha 90.000000
_cell_angle_beta 24.654311
_cell_angle_gamma 90.000000
_cell_volume 1791.465769
_symmetry_space_group_name_H-M "C 2/C"
_symmetry_group_IT_number 15
_symmetry_cell_setting 'monoclinic'
loop_
_space_group_symop_operation_xyz
x,y,z
-x,y,1/2-z
-x,-y,-z
x,-y,1/2+z
1/2+x,1/2+y,z
1/2-x,1/2+y,1/2-z
1/2-x,1/2-y,-z
1/2+x,1/2-y,1/2+z
loop_
_atom_site_type_symbol
_atom_site_label
_atom_site_fract_x
_atom_site_fract_y
_atom_site_fract_z
Si Si1 0.353113 0.862658 0.364592
Si Si2 0.644417 0.389284 0.283133
Si Si3 0.677922 0.151724 0.347488
Si Si4 0.109654 0.739535 0.024843
Si Si5 0.000000 0.671597 0.250000
Si Si6 0.565736 0.058745 0.842956
O O1 0.500000 0.801586 0.250000
O O2 0.250000 0.750000 0.500000
O O3 0.345053 0.866888 0.297636
O O4 0.371732 0.047711 0.361297
O O5 0.702734 0.310477 0.289378
O O6 0.697690 0.564312 0.236672
O O7 0.480352 0.353846 0.432704
O O8 0.732225 0.294788 0.146538
O O9 0.544227 0.171813 0.519250
O O10 0.633139 0.042318 0.332817
O O11 0.065756 0.782027 0.135248
O O12 0.036351 0.570422 0.089788
#
# Coordination Sequence:
#
# PCOD9269502 Si02
#       6
#     8   8   8   8   4   8
#     4   9  18  32  56  82 107 146 195 235 273 342
#     4  10  20  34  57  82 113 147 195 233 280 344
#     4   9  18  33  55  83 112 153 188 235 284 342
#     4   9  18  35  56  78 110 147 188 234 280 348
#     4   8  18  36  60  72 110 162 182 220 306 344
#     4   8  16  34  53  75 111 155 186 214 297 359
#
# _framework density 24.560893
#
# number of rings (size 3 to 8) (size 9 to 14) (size 15 to 20)
#    0.545    2.545    0.000    1.091    0.000    2.909 
#    0.000    0.000   12.000    0.000    0.000    0.000 
#    0.000    0.000    0.000    0.000    0.000    0.000 
#
# Total GULP energy -122494.690749 kJ/mol
# GULP energy per Si atom -5567.940489 kJ/mol
# Density = 2.450499 g / cm^3
# Si number density = 24.560893 Si / 1000 Ang^3
#
#
#
# Elastic Constant Matrix: (Units=GPa)
#
#
# Indices 1 2 3 4 5 6 
#
# 1 33.7785 9.7814 24.1649 -0.0002 5.1458 0.0001
# 2 9.7814 43.2310 13.9028 -0.0010 -7.4520 0.0007
# 3 24.1649 13.9028 78.5851 -0.0005 6.6893 0.0003
# 4 -0.0002 -0.0010 -0.0005 31.2117 0.0002 10.3267
# 5 5.1458 -7.4520 6.6893 0.0002 38.6208 0.0000
# 6 0.0001 0.0007 0.0003 10.3267 0.0000 11.9889
#
#
#
# Elastic Compliance Matrix: (Units=1/GPa)
#
#
# Indices 1 2 3 4 5 6 
#
# 1 0.039834 -0.006371 -0.010723 0.000000 -0.004679 0.000000
# 2 -0.006371 0.026784 -0.003341 0.000002 0.006596 -0.000003
# 3 -0.010723 -0.003341 0.016794 0.000000 -0.002125 0.000000
# 4 0.000000 0.000002 0.000000 0.044809 0.000000 -0.038597
# 5 -0.004679 0.006596 -0.002125 0.000000 0.028157 0.000000
# 6 0.000000 -0.000003 0.000000 -0.038597 0.000000 0.116656
#
#
# Mechanical properties :
#
#
# Convention : Reuss Voigt Hill
#
# Bulk Modulus (GPa) = 23.50604 27.92140 25.71372
# Shear Modulus (GPa) = 15.23989 23.54732 19.39361
#
# Velocity S-wave (km/s) = 2.49367 3.09970 2.81305
# Velocity P-wave (km/s) = 4.22877 4.91973 4.58728
#
# Compressibility (1/GPa) = 0.04254225
#
# Stress axis : x y z
#
# Youngs Moduli (GPa) = 25.10429 37.33524 59.54352
#
# Poissons Ratio (x) = 0.23785 0.63851
# Poissons Ratio (y) = 0.15993 0.19893
# Poissons Ratio (z) = 0.26921 0.12473
#
# Static dielectric constant tensor:
#      x y z
#    x 2.115740 0.000000 0.017100 
#    y 0.000000 2.004580 0.000000 
#    z 0.017100 0.000000 2.108910 
# 
# From -- ./inp_files/284531.got.cif
#   From: 2010.05.17/outbox.cif.g08.bks.cpg/sg15_143_cif.got.tgz:284531.got - 2010.06.03 18:47:42.
