data_PCOD9269978
_publ_section_title
;
Structure prediction by ZEFSAII (Michael W. Deem and Ramdas Pophale) SiO2 
 PCOD9269978
Probable space group: C 2/C
;
_chemical_formula_sum "Si O2"
_cell_formula_units_Z 56
_cell_length_a 5.255780
_cell_length_b 29.943577
_cell_length_c 21.351256
_cell_angle_alpha 90.000000
_cell_angle_beta 125.558669
_cell_angle_gamma 90.000000
_cell_volume 2733.586182
_symmetry_space_group_name_H-M "C 2/C"
_symmetry_group_IT_number 15
_symmetry_cell_setting 'monoclinic'
loop_
_space_group_symop_operation_xyz
x,y,z
-x,y,1/2-z
-x,-y,-z
x,-y,1/2+z
1/2+x,1/2+y,z
1/2-x,1/2+y,1/2-z
1/2-x,1/2-y,-z
1/2+x,1/2-y,1/2+z
loop_
_atom_site_type_symbol
_atom_site_label
_atom_site_fract_x
_atom_site_fract_y
_atom_site_fract_z
Si Si1 0.083618 0.059082 0.572395
Si Si2 0.997073 0.709627 0.524090
Si Si3 0.807467 0.187155 0.142665
Si Si4 0.185652 0.538598 0.387774
Si Si5 0.399899 0.240006 0.171933
Si Si6 0.360188 0.414272 0.629539
Si Si7 0.471602 0.108641 0.947879
O O1 0.386446 0.084451 0.591269
O O2 0.873079 0.049418 0.479693
O O3 0.875585 0.090528 0.587247
O O4 0.203736 0.011266 0.613544
O O5 0.305818 0.728187 0.601408
O O6 0.953855 0.661081 0.548719
O O7 0.750000 0.750000 0.500000
O O8 0.975774 0.696551 0.448076
O O9 0.678173 0.209281 0.186767
O O10 0.863025 0.134870 0.158977
O O11 0.105663 0.209563 0.151348
O O12 0.309313 0.569356 0.349191
O O13 0.829955 0.550690 0.354927
O O14 0.500000 0.264475 0.250000
O O15 0.163238 0.407204 0.536895
#
# Coordination Sequence:
#
# PCOD9269978 Si02
#       7
#     8   8   8   8   8   8   8
#     4   9  16  25  38  61  95 129 156 195 249 296
#     4   9  20  35  54  75 101 138 179 216 257 308
#     4  10  20  35  53  75 103 136 171 209 253 305
#     4   9  15  24  39  62  94 128 159 192 240 296
#     4  11  22  36  53  75 104 134 169 214 261 305
#     4   9  16  26  43  65  91 126 163 196 235 292
#     4   9  17  27  41  63  92 127 167 203 242 293
#
# _framework density 20.485911000000002
#
# number of rings (size 3 to 8) (size 9 to 14) (size 15 to 20)
#    0.000    2.571    0.000    2.571    0.000   12.571 
#    0.000    0.000    0.000    0.000    0.000    0.000 
#    0.000   22.857    0.000    1.429    0.000    0.000 
#
# Total GULP energy -155920.367943 kJ/mol
# GULP energy per Si atom -5568.584569 kJ/mol
# Density = 2.043928 g / cm^3
# Si number density = 20.485911 Si / 1000 Ang^3
#
#
#
# Elastic Constant Matrix: (Units=GPa)
#
#
# Indices 1 2 3 4 5 6 
#
# 1 108.9424 29.7205 4.9921 0.0000 -7.6279 0.0000
# 2 29.7205 98.6520 13.7171 0.0000 -9.8585 0.0000
# 3 4.9921 13.7171 40.5369 0.0000 1.3274 0.0000
# 4 0.0000 0.0000 0.0000 -12.9106 0.0000 13.1386
# 5 -7.6279 -9.8585 1.3274 0.0000 11.4141 0.0000
# 6 0.0000 0.0000 0.0000 13.1386 0.0000 9.5789
#
#
#
# Elastic Compliance Matrix: (Units=1/GPa)
#
#
# Indices 1 2 3 4 5 6 
#
# 1 0.010225 -0.002532 -0.000557 0.000000 0.004711 0.000000
# 2 -0.002532 0.012438 -0.004209 0.000000 0.009540 0.000000
# 3 -0.000557 -0.004209 0.026394 0.000000 -0.007077 0.000000
# 4 0.000000 0.000000 0.000000 -0.032329 0.000000 0.044343
# 5 0.004711 0.009540 -0.007077 0.000000 0.099822 0.000000
# 6 0.000000 0.000000 0.000000 0.044343 0.000000 0.043574
#
#
# Mechanical properties :
#
#
# Convention : Reuss Voigt Hill
#
# Bulk Modulus (GPa) = 29.01890 38.33231 33.67560
# Shear Modulus (GPa) = 26.85172 14.92992 20.89082
#
# Velocity S-wave (km/s) = 3.62434 2.70254 3.19684
# Velocity P-wave (km/s) = 5.63121 5.33765 5.48639
#
# Compressibility (1/GPa) = 0.03446031
#
# Stress axis : x y z
#
# Youngs Moduli (GPa) = 97.79589 80.39715 37.88802
#
# Poissons Ratio (x) = 0.20360 0.02109
# Poissons Ratio (y) = 0.24766 0.15949
# Poissons Ratio (z) = 0.05443 0.33843
#
# Static dielectric constant tensor:
#      x y z
#    x 1.787040 0.000000 -0.007810 
#    y 0.000000 1.737130 0.000000 
#    z -0.007810 0.000000 1.795450 
# 
# From -- ./inp_files/228538.got.cif
#   From: 2010.05.17/outbox.cif.g08.bks.cpg/sg15_115_cif.got.tgz:228538.got - 2010.06.03 18:47:42.
