data_PCOD9269313
_publ_section_title
;
Structure prediction by ZEFSAII (Michael W. Deem and Ramdas Pophale) SiO2 
 PCOD9269313
Probable space group: C 2/C
;
_chemical_formula_sum "Si O2"
_cell_formula_units_Z 60
_cell_length_a 11.859899
_cell_length_b 22.332717
_cell_length_c 21.031390
_cell_angle_alpha 90.000000
_cell_angle_beta 146.483967
_cell_angle_gamma 90.000000
_cell_volume 3075.838865
_symmetry_space_group_name_H-M "C 2/C"
_symmetry_group_IT_number 15
_symmetry_cell_setting 'monoclinic'
loop_
_space_group_symop_operation_xyz
x,y,z
-x,y,1/2-z
-x,-y,-z
x,-y,1/2+z
1/2+x,1/2+y,z
1/2-x,1/2+y,1/2-z
1/2-x,1/2-y,-z
1/2+x,1/2-y,1/2+z
loop_
_atom_site_type_symbol
_atom_site_label
_atom_site_fract_x
_atom_site_fract_y
_atom_site_fract_z
Si Si1 0.000000 0.887747 0.250000
Si Si2 0.319652 0.217916 0.714403
Si Si3 0.888507 0.404247 0.636503
Si Si4 0.829301 0.586710 0.418862
Si Si5 0.265112 0.968625 0.458328
Si Si6 0.052831 0.179955 0.042826
Si Si7 0.103755 0.683498 0.609387
Si Si8 0.722686 0.651245 0.251058
O O1 0.078229 0.930334 0.343052
O O2 0.188707 0.847930 0.316067
O O3 0.500000 0.229273 0.750000
O O4 0.395241 0.185500 0.813836
O O5 0.247208 0.282471 0.706402
O O6 0.147929 0.182026 0.594835
O O7 0.792694 0.453357 0.545030
O O8 0.724586 0.356240 0.584795
O O9 0.000000 0.431975 0.750000
O O10 0.064742 0.368879 0.681208
O O11 0.746939 0.536942 0.428120
O O12 0.687791 0.607262 0.293842
O O13 0.031119 0.557299 0.480599
O O14 0.913393 0.645287 0.494231
O O15 0.102052 0.249697 0.079958
O O16 0.056324 0.152521 0.116148
#
# Coordination Sequence:
#
# PCOD9269313 Si02
#       8
#     4   8   8   8   8   8   8   8
#     4  10  20  34  54  94 114 140 194 246 308 348
#     4  11  23  37  51  78 119 160 198 231 289 359
#     4   9  18  33  57  89 115 144 189 240 314 355
#     4   9  17  37  54  77 107 152 200 228 289 339
#     4   9  18  33  56  77 114 148 185 244 281 351
#     4  10  20  34  56  86 123 153 185 247 304 364
#     4  10  21  34  58  84 120 154 188 246 301 355
#     4   9  19  34  54  83 112 150 194 238 288 360
#
# _framework density 19.506872999999999
#
# number of rings (size 3 to 8) (size 9 to 14) (size 15 to 20)
#    0.000    2.400    1.333    0.800    4.667    2.667 
#    1.200    0.667    0.000    0.000    0.000   11.200 
#    0.000    0.000    0.000    0.000    0.000    0.000 
#
# Total GULP energy -167353.698323 kJ/mol
# GULP energy per Si atom -5578.456611 kJ/mol
# Density = 1.946247 g / cm^3
# Si number density = 19.506873 Si / 1000 Ang^3
#
#
#
# Elastic Constant Matrix: (Units=GPa)
#
#
# Indices 1 2 3 4 5 6 
#
# 1 63.6419 29.3075 41.8112 -0.0010 -27.4533 0.0023
# 2 29.3075 85.2882 41.0209 -0.0007 -29.6826 0.0020
# 3 41.8112 41.0209 117.0526 -0.0055 -49.2427 0.0134
# 4 -0.0010 -0.0007 -0.0055 20.6305 -0.0013 -24.9337
# 5 -27.4533 -29.6826 -49.2427 -0.0013 27.9528 0.0040
# 6 0.0023 0.0020 0.0134 -24.9337 0.0040 41.4489
#
#
#
# Elastic Compliance Matrix: (Units=1/GPa)
#
#
# Indices 1 2 3 4 5 6 
#
# 1 0.028443 0.001309 0.006636 -0.000013 0.041015 -0.000016
# 2 0.001309 0.020230 0.007806 -0.000013 0.036519 -0.000015
# 3 0.006636 0.007806 0.037336 -0.000034 0.080579 -0.000041
# 4 -0.000013 -0.000013 -0.000034 0.177572 -0.000092 0.106819
# 5 0.041015 0.036519 0.080579 -0.000092 0.256786 -0.000110
# 6 -0.000016 -0.000015 -0.000041 0.106819 -0.000110 0.088384
#
#
# Mechanical properties :
#
#
# Convention : Reuss Voigt Hill
#
# Bulk Modulus (GPa) = 8.50988 54.47352 31.49170
# Shear Modulus (GPa) = 8.11134 28.26264 18.18699
#
# Velocity S-wave (km/s) = 2.04138 3.81051 3.05673
# Velocity P-wave (km/s) = 3.15092 6.88084 5.35136
#
# Compressibility (1/GPa) = 0.11751047
#
# Stress axis : x y z
#
# Youngs Moduli (GPa) = 35.15773 49.43063 26.78394
#
# Poissons Ratio (x) = -0.06469 -0.17774
# Poissons Ratio (y) = -0.04601 -0.20907
# Poissons Ratio (z) = -0.23331 -0.38585
#
# Static dielectric constant tensor:
#      x y z
#    x 1.668710 0.000000 -0.004170 
#    y 0.000000 1.663930 0.000000 
#    z -0.004170 0.000000 1.715330 
# 
# From -- ./inp_files/200949.got.cif
#   From: 2010.05.17/outbox.cif.g08.bks.cpg/sg15_101_cif.got.tgz:200949.got - 2010.06.03 18:47:42.
