data_PCOD9269116
_publ_section_title
;
Structure prediction by ZEFSAII (Michael W. Deem and Ramdas Pophale) SiO2 
 PCOD9269116
Probable space group: C 2/C
;
_chemical_formula_sum "Si O2"
_cell_formula_units_Z 40
_cell_length_a 10.367496
_cell_length_b 10.682471
_cell_length_c 23.491195
_cell_angle_alpha 90.000000
_cell_angle_beta 38.337257
_cell_angle_gamma 90.000000
_cell_volume 1613.782247
_symmetry_space_group_name_H-M "C 2/C"
_symmetry_group_IT_number 15
_symmetry_cell_setting 'monoclinic'
loop_
_space_group_symop_operation_xyz
x,y,z
-x,y,1/2-z
-x,-y,-z
x,-y,1/2+z
1/2+x,1/2+y,z
1/2-x,1/2+y,1/2-z
1/2-x,1/2-y,-z
1/2+x,1/2-y,1/2+z
loop_
_atom_site_type_symbol
_atom_site_label
_atom_site_fract_x
_atom_site_fract_y
_atom_site_fract_z
Si Si1 0.714557 0.532888 0.559657
Si Si2 0.001721 0.508745 0.682139
Si Si3 0.722507 0.731859 0.091971
Si Si4 0.799293 0.465256 0.646599
Si Si5 0.392989 0.372101 0.516591
O O1 0.659764 0.384301 0.573836
O O2 0.698025 0.554473 0.633275
O O3 0.598727 0.621512 0.555266
O O4 0.956217 0.535472 0.456031
O O5 0.096603 0.641743 0.628999
O O6 0.155658 0.391929 0.616208
O O7 0.000000 0.517539 0.750000
O O8 0.797583 0.490959 0.713970
O O9 0.712757 0.669848 0.158282
O O10 0.967688 0.765782 0.003865
O O11 0.500000 0.500000 0.500000
#
# Coordination Sequence:
#
# PCOD9269116 Si02
#       5
#     8   8   8   8   8
#     4   8  16  33  52  79 100 120 171 224 243 285
#     4  10  20  34  51  74 109 138 162 203 258 313
#     4   9  18  35  56  73 101 131 173 216 252 287
#     4   8  17  34  53  75 103 128 166 220 245 292
#     4   9  18  31  55  79  96 129 172 214 247 293
#
# _framework density 24.786490000000001
#
# number of rings (size 3 to 8) (size 9 to 14) (size 15 to 20)
#    1.200    2.000    0.000    0.000    0.000   10.400 
#    0.000    8.000    0.000    0.000    0.000    5.600 
#    0.000    0.000    0.000    0.000    0.000    0.000 
#
# Total GULP energy -111369.999917 kJ/mol
# GULP energy per Si atom -5568.499996 kJ/mol
# Density = 2.473007 g / cm^3
# Si number density = 24.786490 Si / 1000 Ang^3
#
#
#
# Elastic Constant Matrix: (Units=GPa)
#
#
# Indices 1 2 3 4 5 6 
#
# 1 110.1950 7.5056 33.3235 -0.0001 32.9397 0.0000
# 2 7.5056 90.7614 9.4776 -0.0001 -3.3703 0.0000
# 3 33.3235 9.4776 59.9413 -0.0003 21.4904 0.0001
# 4 -0.0001 -0.0001 -0.0003 0.5900 0.0001 4.8335
# 5 32.9397 -3.3703 21.4904 0.0001 45.2295 -0.0001
# 6 0.0000 0.0000 0.0001 4.8335 -0.0001 27.3669
#
#
#
# Elastic Compliance Matrix: (Units=1/GPa)
#
#
# Indices 1 2 3 4 5 6 
#
# 1 0.012576 -0.000860 -0.004278 -0.000002 -0.007191 0.000000
# 2 -0.000860 0.011417 -0.002238 0.000002 0.002541 0.000000
# 3 -0.004278 -0.002238 0.022127 -0.000027 -0.007565 0.000005
# 4 -0.000002 0.000002 -0.000027 -3.791991 0.000025 0.669732
# 5 -0.007191 0.002541 -0.007565 0.000025 0.031130 -0.000004
# 6 0.000000 0.000000 0.000005 0.669732 -0.000004 -0.081746
#
#
# Mechanical properties :
#
#
# Convention : Reuss Voigt Hill
#
# Bulk Modulus (GPa) = 31.87837 40.16790 36.02314
# Shear Modulus (GPa) = -1.32581 28.67668 13.67544
#
# Velocity S-wave (km/s) = -0.73216 3.40508 2.35144
# Velocity P-wave (km/s) = 3.48918 5.63029 4.68373
#
# Compressibility (1/GPa) = 0.03136923
#
# Stress axis : x y z
#
# Youngs Moduli (GPa) = 79.51341 87.58818 45.19347
#
# Poissons Ratio (x) = 0.07536 0.19332
# Poissons Ratio (y) = 0.06841 0.10113
# Poissons Ratio (z) = 0.34012 0.19600
#
# Static dielectric constant tensor:
#      x y z
#    x 1.825290 0.000000 -0.074180 
#    y 0.000000 1.957480 0.000000 
#    z -0.074180 0.000000 2.029150 
# 
# From -- ./inp_files/268202.got.cif
#   From: 2010.05.17/outbox.cif.g08.bks.cpg/sg15_135_cif.got.tgz:268202.got - 2010.06.03 18:47:42.
