data_PCOD9269057
_publ_section_title
;
Structure prediction by ZEFSAII (Michael W. Deem and Ramdas Pophale) SiO2 
 PCOD9269057
Probable space group: C 2/C
;
_chemical_formula_sum "Si O2"
_cell_formula_units_Z 40
_cell_length_a 8.519894
_cell_length_b 29.233741
_cell_length_c 13.713253
_cell_angle_alpha 90.000000
_cell_angle_beta 29.238699
_cell_angle_gamma 90.000000
_cell_volume 1668.316424
_symmetry_space_group_name_H-M "C 2/C"
_symmetry_group_IT_number 15
_symmetry_cell_setting 'monoclinic'
loop_
_space_group_symop_operation_xyz
x,y,z
-x,y,1/2-z
-x,-y,-z
x,-y,1/2+z
1/2+x,1/2+y,z
1/2-x,1/2+y,1/2-z
1/2-x,1/2-y,-z
1/2+x,1/2-y,1/2+z
loop_
_atom_site_type_symbol
_atom_site_label
_atom_site_fract_x
_atom_site_fract_y
_atom_site_fract_z
Si Si1 0.612748 0.943501 0.802054
Si Si2 0.735427 0.619657 0.715355
Si Si3 0.750879 0.303319 0.527046
Si Si4 0.151332 0.535477 0.558834
Si Si5 0.312898 0.355639 0.624104
O O1 0.500000 0.943924 0.750000
O O2 0.658198 0.889084 0.789895
O O3 0.972360 0.959161 0.630113
O O4 0.399653 0.984840 0.957208
O O5 0.500000 0.616434 0.750000
O O6 0.929968 0.667794 0.618229
O O7 0.985526 0.577146 0.589582
O O8 0.501370 0.617533 0.936570
O O9 0.500000 0.309152 0.750000
O O10 0.750000 0.250000 0.500000
O O11 0.588974 0.326527 0.521782
O O12 0.000000 0.537905 0.750000
O O13 0.000000 0.330586 0.750000
#
# Coordination Sequence:
#
# PCOD9269057 Si02
#       5
#     8   8   8   8   8
#     4  10  20  33  66  97 134 184 240 283 342 404
#     4  12  25  44  66 102 146 186 233 289 345 414
#     4  12  26  49  77 106 136 175 226 288 356 423
#     4  11  19  37  62  96 135 187 237 286 339 401
#     4  11  23  43  71 102 140 184 231 287 348 411
#
# _framework density 23.976267
#
# number of rings (size 3 to 8) (size 9 to 14) (size 15 to 20)
#    0.000    0.800    4.000    5.400    2.800    0.800 
#    0.000    6.000    0.000    0.000    0.000    0.000 
#    0.000    0.000    0.000    0.000    0.000    0.000 
#
# Total GULP energy -111695.612023 kJ/mol
# GULP energy per Si atom -5584.780601 kJ/mol
# Density = 2.392170 g / cm^3
# Si number density = 23.976267 Si / 1000 Ang^3
#
#
#
# Elastic Constant Matrix: (Units=GPa)
#
#
# Indices 1 2 3 4 5 6 
#
# 1 147.0207 68.4783 30.5943 0.0000 -28.8910 0.0000
# 2 68.4783 151.3089 18.0940 0.0000 -19.9502 0.0000
# 3 30.5943 18.0940 90.9425 0.0000 -22.5982 0.0000
# 4 0.0000 0.0000 0.0000 36.0184 0.0000 1.3357
# 5 -28.8910 -19.9502 -22.5982 0.0000 58.8553 0.0000
# 6 0.0000 0.0000 0.0000 1.3357 0.0000 20.0063
#
#
#
# Elastic Compliance Matrix: (Units=1/GPa)
#
#
# Indices 1 2 3 4 5 6 
#
# 1 0.009420 -0.003697 -0.001764 0.000000 0.002694 0.000000
# 2 -0.003697 0.008433 -0.000193 0.000000 0.000970 0.000000
# 3 -0.001764 -0.000193 0.012598 0.000000 0.003906 0.000000
# 4 0.000000 0.000000 0.000000 0.027833 0.000000 -0.001858
# 5 0.002694 0.000970 0.003906 0.000000 0.020141 0.000000
# 6 0.000000 0.000000 0.000000 -0.001858 0.000000 0.050108
#
#
# Mechanical properties :
#
#
# Convention : Reuss Voigt Hill
#
# Bulk Modulus (GPa) = 52.23899 69.28946 60.76423
# Shear Modulus (GPa) = 34.19403 41.11635 37.65519
#
# Velocity S-wave (km/s) = 3.78055 4.14560 3.96728
# Velocity P-wave (km/s) = 6.39467 7.20254 6.81060
#
# Compressibility (1/GPa) = 0.01914279
#
# Stress axis : x y z
#
# Youngs Moduli (GPa) = 106.15404 118.57900 79.37485
#
# Poissons Ratio (x) = 0.43841 0.14003
# Poissons Ratio (y) = 0.39248 0.01533
# Poissons Ratio (z) = 0.18727 0.02290
#
# Static dielectric constant tensor:
#      x y z
#    x 1.987940 0.000000 0.137970 
#    y 0.000000 2.001170 0.000000 
#    z 0.137970 0.000000 1.908100 
# 
# From -- ./inp_files/139687.got.cif
#   From: 2010.05.17/outbox.cif.g08.bks.cpg/sg15_70_cif.got.tgz:139687.got - 2010.06.03 18:47:42.
