data_PCOD9269043
_publ_section_title
;
Structure prediction by ZEFSAII (Michael W. Deem and Ramdas Pophale) SiO2 
 PCOD9269043
Probable space group: C 2/C
;
_chemical_formula_sum "Si O2"
_cell_formula_units_Z 60
_cell_length_a 21.411784
_cell_length_b 11.812646
_cell_length_c 11.121191
_cell_angle_alpha 90.000000
_cell_angle_beta 98.718490
_cell_angle_gamma 90.000000
_cell_volume 2780.378112
_symmetry_space_group_name_H-M "C 2/C"
_symmetry_group_IT_number 15
_symmetry_cell_setting 'monoclinic'
loop_
_space_group_symop_operation_xyz
x,y,z
-x,y,1/2-z
-x,-y,-z
x,-y,1/2+z
1/2+x,1/2+y,z
1/2-x,1/2+y,1/2-z
1/2-x,1/2-y,-z
1/2+x,1/2-y,1/2+z
loop_
_atom_site_type_symbol
_atom_site_label
_atom_site_fract_x
_atom_site_fract_y
_atom_site_fract_z
Si Si1 0.435328 0.611949 0.298767
Si Si2 0.500000 0.242114 0.250000
Si Si3 0.803852 0.326448 0.448993
Si Si4 0.582419 0.224970 0.925584
Si Si5 0.888865 0.871557 0.327854
Si Si6 0.454195 0.204828 0.987630
Si Si7 0.792020 0.411448 0.986290
Si Si8 0.757974 0.222672 0.805806
O O1 0.500000 0.574412 0.250000
O O2 0.410772 0.708407 0.198667
O O3 0.391182 0.505715 0.312946
O O4 0.450207 0.667350 0.432612
O O5 0.440665 0.320996 0.255154
O O6 0.486036 0.177407 0.124304
O O7 0.750000 0.250000 0.500000
O O8 0.880303 0.322968 0.485189
O O9 0.786715 0.455837 0.472486
O O10 0.794805 0.293817 0.307396
O O11 0.636963 0.133382 0.966253
O O12 0.593683 0.319832 0.034880
O O13 0.512555 0.168216 0.915604
O O14 0.823268 0.818353 0.269007
O O15 0.752315 0.359641 0.084066
O O16 0.767014 0.348001 0.859968
#
# Coordination Sequence:
#
# PCOD9269043 Si02
#       8
#     8   4   8   8   8   8   8   8
#     4  10  20  34  62  95 132 166 219 275 328 400
#     4  10  20  38  56  90 132 160 212 272 332 382
#     4  12  27  43  69 102 133 173 234 279 330 407
#     4   9  21  41  63  92 129 177 223 272 342 395
#     4  10  20  33  62  91 129 175 211 264 334 391
#     4  10  23  39  61  93 128 166 221 277 331 398
#     4  10  24  47  70  93 136 177 223 278 339 402
#     4  10  24  44  66  98 134 182 216 271 344 406
#
# _framework density 21.579799000000001
#
# number of rings (size 3 to 8) (size 9 to 14) (size 15 to 20)
#    0.000    1.867    0.667    1.600    5.600    5.333 
#    0.000    0.000    4.400    0.000    0.000    0.000 
#    0.000    0.000    0.000    0.000    0.000    0.000 
#
# Total GULP energy -167108.511903 kJ/mol
# GULP energy per Si atom -5570.283730 kJ/mol
# Density = 2.153068 g / cm^3
# Si number density = 21.579799 Si / 1000 Ang^3
#
#
#
# Elastic Constant Matrix: (Units=GPa)
#
#
# Indices 1 2 3 4 5 6 
#
# 1 97.2310 44.4498 23.7502 0.0000 -12.9838 0.0000
# 2 44.4498 120.9669 23.4866 0.0000 -6.7766 0.0000
# 3 23.7502 23.4866 63.3863 0.0000 6.9807 0.0000
# 4 0.0000 0.0000 0.0000 6.2578 0.0000 -4.0687
# 5 -12.9838 -6.7766 6.9807 0.0000 33.9246 0.0000
# 6 0.0000 0.0000 0.0000 -4.0687 0.0000 10.3778
#
#
#
# Elastic Compliance Matrix: (Units=1/GPa)
#
#
# Indices 1 2 3 4 5 6 
#
# 1 0.013872 -0.003954 -0.004329 0.000000 0.005410 0.000000
# 2 -0.003954 0.010249 -0.002430 0.000000 0.001034 0.000000
# 3 -0.004329 -0.002430 0.018964 0.000000 -0.006044 0.000000
# 4 0.000000 0.000000 0.000000 0.214469 0.000000 0.084084
# 5 0.005410 0.001034 -0.006044 0.000000 0.032998 0.000000
# 6 0.000000 0.000000 0.000000 0.084084 0.000000 0.129326
#
#
# Mechanical properties :
#
#
# Convention : Reuss Voigt Hill
#
# Bulk Modulus (GPa) = 46.16666 51.66194 48.91430
# Shear Modulus (GPa) = 11.14770 22.77189 16.95979
#
# Velocity S-wave (km/s) = 2.27531 3.25197 2.80645
# Velocity P-wave (km/s) = 5.32378 6.17190 5.76346
#
# Compressibility (1/GPa) = 0.02166065
#
# Stress axis : x y z
#
# Youngs Moduli (GPa) = 72.08732 97.56719 52.73089
#
# Poissons Ratio (x) = 0.38577 0.22825
# Poissons Ratio (y) = 0.28502 0.12814
# Poissons Ratio (z) = 0.31203 0.23710
#
# Static dielectric constant tensor:
#      x y z
#    x 1.875710 0.000000 0.023030 
#    y 0.000000 1.750770 0.000000 
#    z 0.023030 0.000000 1.837980 
# 
# From -- ./inp_files/111648.got.cif
#   From: 2010.05.17/outbox.cif.g08.bks.cpg/sg15_56_cif.got.tgz:111648.got - 2010.06.03 18:47:42.
