data_PCOD9269051
_publ_section_title
;
Structure prediction by ZEFSAII (Michael W. Deem and Ramdas Pophale) SiO2 
 PCOD9269051
Probable space group: C 2/C
;
_chemical_formula_sum "Si O2"
_cell_formula_units_Z 56
_cell_length_a 28.176755
_cell_length_b 16.859336
_cell_length_c 17.208828
_cell_angle_alpha 90.000000
_cell_angle_beta 163.221608
_cell_angle_gamma 90.000000
_cell_volume 2359.856006
_symmetry_space_group_name_H-M "C 2/C"
_symmetry_group_IT_number 15
_symmetry_cell_setting 'monoclinic'
loop_
_space_group_symop_operation_xyz
x,y,z
-x,y,1/2-z
-x,-y,-z
x,-y,1/2+z
1/2+x,1/2+y,z
1/2-x,1/2+y,1/2-z
1/2-x,1/2-y,-z
1/2+x,1/2-y,1/2+z
loop_
_atom_site_type_symbol
_atom_site_label
_atom_site_fract_x
_atom_site_fract_y
_atom_site_fract_z
Si Si1 0.000000 0.325642 0.750000
Si Si2 0.000000 0.756223 0.750000
Si Si3 0.052257 0.315195 0.127763
Si Si4 0.303295 0.673849 0.389940
Si Si5 0.405970 0.381848 0.725319
Si Si6 0.223858 0.017744 0.068722
Si Si7 0.477697 0.930633 0.561966
Si Si8 0.157243 0.159978 0.221712
O O1 0.857202 0.260759 0.505052
O O2 0.009198 0.386233 0.691866
O O3 0.984580 0.817095 0.651773
O O4 0.839626 0.700620 0.508629
O O5 0.225322 0.341100 0.433050
O O6 0.039207 0.361447 0.027144
O O7 0.048854 0.225344 0.096093
O O8 0.893760 0.332437 0.929892
O O9 0.331269 0.606241 0.498142
O O10 0.382815 0.653685 0.431530
O O11 0.408325 0.460356 0.676565
O O12 0.391672 0.408292 0.793908
O O13 0.367957 0.020034 0.228761
O O14 0.313846 0.982525 0.287548
#
# Coordination Sequence:
#
# PCOD9269051 Si02
#       8
#     4   4   8   8   8   8   8   8
#     4  12  24  39  65  98 124 168 226 268 304 383
#     4  10  20  33  63  94 124 152 200 264 328 367
#     4   9  18  36  57  87 121 156 200 261 315 367
#     4  11  23  38  63  89 129 167 209 268 316 370
#     4  10  20  35  61  90 126 159 202 257 322 388
#     4   9  21  40  60  84 126 168 203 258 328 376
#     4   9  19  39  60  86 118 167 215 256 305 384
#     4  11  19  35  58  96 118 155 205 263 309 378
#
# _framework density 23.730260999999999
#
# number of rings (size 3 to 8) (size 9 to 14) (size 15 to 20)
#    0.000    2.000    1.429    4.286    0.000    4.000 
#    0.000    0.000    0.000    1.714    0.000    0.000 
#    0.000    0.000    0.000    0.000    0.000    0.000 
#
# Total GULP energy -155992.242617 kJ/mol
# GULP energy per Si atom -5571.151522 kJ/mol
# Density = 2.367625 g / cm^3
# Si number density = 23.730261 Si / 1000 Ang^3
#
#
#
# Elastic Constant Matrix: (Units=GPa)
#
#
# Indices 1 2 3 4 5 6 
#
# 1 175.5302 46.3714 17.8229 0.0000 -2.4085 0.0000
# 2 46.3714 71.9963 6.5558 0.0000 -9.6557 0.0000
# 3 17.8229 6.5558 38.7388 0.0000 9.3138 0.0000
# 4 0.0000 0.0000 0.0000 15.1004 0.0000 -9.0664
# 5 -2.4085 -9.6557 9.3138 0.0000 25.2556 0.0000
# 6 0.0000 0.0000 0.0000 -9.0664 0.0000 28.4539
#
#
#
# Elastic Compliance Matrix: (Units=1/GPa)
#
#
# Indices 1 2 3 4 5 6 
#
# 1 0.007102 -0.004353 -0.002517 0.000000 -0.000059 0.000000
# 2 -0.004353 0.017957 -0.002839 0.000000 0.007497 0.000000
# 3 -0.002517 -0.002839 0.030473 0.000000 -0.012563 0.000000
# 4 0.000000 0.000000 0.000000 0.081890 0.000000 0.026093
# 5 -0.000059 0.007497 -0.012563 0.000000 0.047089 0.000000
# 6 0.000000 0.000000 0.000000 0.026093 0.000000 0.043459
#
#
# Mechanical properties :
#
#
# Convention : Reuss Voigt Hill
#
# Bulk Modulus (GPa) = 27.68921 47.52950 37.60936
# Shear Modulus (GPa) = 19.27352 28.12966 23.70159
#
# Velocity S-wave (km/s) = 2.85299 3.44669 3.16380
# Velocity P-wave (km/s) = 4.74830 5.99267 5.40641
#
# Compressibility (1/GPa) = 0.03611515
#
# Stress axis : x y z
#
# Youngs Moduli (GPa) = 140.81219 55.68823 32.81638
#
# Poissons Ratio (x) = 0.24240 0.08258
# Poissons Ratio (y) = 0.61292 0.09316
# Poissons Ratio (z) = 0.35436 0.15809
#
# Static dielectric constant tensor:
#      x y z
#    x 1.996610 0.000000 -0.102460 
#    y 0.000000 2.049460 0.000000 
#    z -0.102460 0.000000 2.051050 
# 
# From -- ./inp_files/223009.got.cif
#   From: 2010.05.17/outbox.cif.g08.bks.cpg/sg15_112_cif.got.tgz:223009.got - 2010.06.03 18:47:42.
