data_PCOD9269766
_publ_section_title
;
Structure prediction by ZEFSAII (Michael W. Deem and Ramdas Pophale) SiO2 
 PCOD9269766
Probable space group: C 2/C
;
_chemical_formula_sum "Si O2"
_cell_formula_units_Z 44
_cell_length_a 27.068013
_cell_length_b 9.775572
_cell_length_c 16.209786
_cell_angle_alpha 90.000000
_cell_angle_beta 21.334372
_cell_angle_gamma 90.000000
_cell_volume 1560.452586
_symmetry_space_group_name_H-M "C 2/C"
_symmetry_group_IT_number 15
_symmetry_cell_setting 'monoclinic'
loop_
_space_group_symop_operation_xyz
x,y,z
-x,y,1/2-z
-x,-y,-z
x,-y,1/2+z
1/2+x,1/2+y,z
1/2-x,1/2+y,1/2-z
1/2-x,1/2-y,-z
1/2+x,1/2-y,1/2+z
loop_
_atom_site_type_symbol
_atom_site_label
_atom_site_fract_x
_atom_site_fract_y
_atom_site_fract_z
Si Si1 0.769838 0.347183 0.889231
Si Si2 0.000000 0.313557 0.250000
Si Si3 0.718416 0.357855 0.619913
Si Si4 0.500000 0.500000 0.000000
Si Si5 0.000000 0.850397 0.250000
Si Si6 0.172865 0.856242 0.353692
Si Si7 0.451493 0.174744 0.490900
O O1 0.796047 0.247659 0.769681
O O2 0.917921 0.409681 0.681612
O O3 0.750000 0.250000 0.000000
O O4 0.638858 0.426962 0.057189
O O5 0.864478 0.391567 0.431638
O O6 0.935608 0.219848 0.420619
O O7 0.750000 0.250000 0.500000
O O8 0.636937 0.492399 0.725498
O O9 0.592314 0.286109 0.869543
O O10 0.601685 0.519692 0.920851
O O11 0.983174 0.752646 0.356218
O O12 0.309112 0.895093 0.190672
#
# Coordination Sequence:
#
# PCOD9269766 Si02
#       7
#     8   4   8   4   4   8   8
#     4   9  15  30  52  84 120 160 217 268 335 426
#     4  10  20  40  64  92 128 194 228 284 374 436
#     4  11  21  38  65  93 134 182 235 290 370 436
#     4  12  22  38  62  98 130 172 240 304 342 442
#     4   8  16  26  52  86 112 158 214 266 326 416
#     4  10  20  34  60  91 125 171 234 287 356 426
#     4   9  17  32  56  84 121 172 220 273 350 436
#
# _framework density 28.196947000000002
#
# number of rings (size 3 to 8) (size 9 to 14) (size 15 to 20)
#    0.000    2.182    3.636    0.000    0.000    0.000 
#    0.000    6.364    4.000    0.000    0.000   19.091 
#    0.000    0.000    0.000    0.000    0.000    0.000 
#
# Total GULP energy -122587.293581 kJ/mol
# GULP energy per Si atom -5572.149708 kJ/mol
# Density = 2.813277 g / cm^3
# Si number density = 28.196947 Si / 1000 Ang^3
#
#
#
# Elastic Constant Matrix: (Units=GPa)
#
#
# Indices 1 2 3 4 5 6 
#
# 1 135.5281 8.9099 66.3088 0.0000 -28.9885 0.0000
# 2 8.9099 41.3044 15.8133 0.0000 5.5442 0.0000
# 3 66.3088 15.8133 175.7819 0.0000 -43.4093 0.0000
# 4 0.0000 0.0000 0.0000 21.0560 0.0000 32.6893
# 5 -28.9885 5.5442 -43.4093 0.0000 115.8874 0.0000
# 6 0.0000 0.0000 0.0000 32.6893 0.0000 20.1095
#
#
#
# Elastic Compliance Matrix: (Units=1/GPa)
#
#
# Indices 1 2 3 4 5 6 
#
# 1 0.009210 -0.000962 -0.003094 0.000000 0.001191 0.000000
# 2 -0.000962 0.025720 -0.002550 0.000000 -0.002426 0.000000
# 3 -0.003094 -0.002550 0.007630 0.000000 0.002206 0.000000
# 4 0.000000 0.000000 0.000000 -0.031169 0.000000 0.050668
# 5 0.001191 -0.002426 0.002206 0.000000 0.009870 0.000000
# 6 0.000000 0.000000 0.000000 0.050668 0.000000 -0.032637
#
#
# Mechanical properties :
#
#
# Convention : Reuss Voigt Hill
#
# Bulk Modulus (GPa) = 34.07317 59.40872 46.74094
# Shear Modulus (GPa) = 430.36275 48.84940 239.60608
#
# Velocity S-wave (km/s) = 12.36765 4.16677 9.22824
# Velocity P-wave (km/s) = 14.69882 6.65314 11.40876
#
# Compressibility (1/GPa) = 0.02934861
#
# Stress axis : x y z
#
# Youngs Moduli (GPa) = 108.57598 38.88025 131.06073
#
# Poissons Ratio (x) = 0.03741 0.40544
# Poissons Ratio (y) = 0.10448 0.33420
# Poissons Ratio (z) = 0.33589 0.09914
#
# Static dielectric constant tensor:
#      x y z
#    x 2.208000 0.000000 0.037180 
#    y 0.000000 1.785430 0.000000 
#    z 0.037180 0.000000 2.141070 
# 
# From -- ./inp_files/225380.got.cif
#   From: 2010.05.17/outbox.cif.g08.bks.cpg/sg15_113_cif.got.tgz:225380.got - 2010.06.03 18:47:42.
