data_PCOD9269237
_publ_section_title
;
Structure prediction by ZEFSAII (Michael W. Deem and Ramdas Pophale) SiO2 
 PCOD9269237
Probable space group: C 2/C
;
_chemical_formula_sum "Si O2"
_cell_formula_units_Z 64
_cell_length_a 13.037353
_cell_length_b 30.273430
_cell_length_c 8.817455
_cell_angle_alpha 90.000000
_cell_angle_beta 80.015691
_cell_angle_gamma 90.000000
_cell_volume 3427.415212
_symmetry_space_group_name_H-M "C 2/C"
_symmetry_group_IT_number 15
_symmetry_cell_setting 'monoclinic'
loop_
_space_group_symop_operation_xyz
x,y,z
-x,y,1/2-z
-x,-y,-z
x,-y,1/2+z
1/2+x,1/2+y,z
1/2-x,1/2+y,1/2-z
1/2-x,1/2-y,-z
1/2+x,1/2-y,1/2+z
loop_
_atom_site_type_symbol
_atom_site_label
_atom_site_fract_x
_atom_site_fract_y
_atom_site_fract_z
Si Si1 0.590629 0.769601 0.478322
Si Si2 0.603808 0.141117 0.801563
Si Si3 0.266844 0.345024 0.985139
Si Si4 0.054836 0.561503 0.993029
Si Si5 0.073942 0.201025 0.871205
Si Si6 0.221691 0.725865 0.233764
Si Si7 0.306043 0.937344 0.561821
Si Si8 0.652201 0.997890 0.216605
O O1 0.575322 0.811680 0.378117
O O2 0.488810 0.741284 0.536977
O O3 0.670032 0.735426 0.378454
O O4 0.640114 0.787652 0.623230
O O5 0.500000 0.122569 0.750000
O O6 0.690059 0.148275 0.650280
O O7 0.619654 0.105452 0.931342
O O8 0.233140 0.306385 0.874965
O O9 0.254811 0.391977 0.906618
O O10 0.381207 0.334109 0.022225
O O11 0.074361 0.527567 0.849923
O O12 0.101345 0.534978 0.122387
O O13 0.931843 0.570758 0.046386
O O14 0.178144 0.225694 0.787536
O O15 0.000000 0.185912 0.750000
O O16 0.296387 0.960481 0.400564
O O17 0.274485 0.974055 0.691717
#
# Coordination Sequence:
#
# PCOD9269237 Si02
#       8
#     8   8   8   8   8   8   8   8
#     4  10  23  39  60  78 117 158 196 240 296 344
#     4  12  22  34  52  84 115 156 199 235 280 343
#     4  12  23  36  58  88 119 146 203 246 282 349
#     4  11  19  33  51  79 116 161 195 229 288 356
#     4  10  22  41  60  83 117 158 196 245 298 345
#     4  10  22  40  57  85 113 151 200 244 293 348
#     4  11  20  34  52  82 115 154 196 236 290 360
#     4  10  20  34  54  76 119 163 192 234 297 363
#
# _framework density 18.672961999999998
#
# number of rings (size 3 to 8) (size 9 to 14) (size 15 to 20)
#    0.000    1.250    3.750    4.125    3.500    0.000 
#    0.000    0.000    0.000    0.000    0.000    0.875 
#    0.000    0.000    0.000    0.000    0.000    0.000 
#
# Total GULP energy -178417.491982 kJ/mol
# GULP energy per Si atom -5575.546624 kJ/mol
# Density = 1.863046 g / cm^3
# Si number density = 18.672962 Si / 1000 Ang^3
#
#
#
# Elastic Constant Matrix: (Units=GPa)
#
#
# Indices 1 2 3 4 5 6 
#
# 1 43.1003 23.8115 16.6976 0.0000 7.9178 0.0000
# 2 23.8115 80.1289 32.3692 0.0000 19.8768 0.0000
# 3 16.6976 32.3692 78.5964 0.0000 7.2641 0.0000
# 4 0.0000 0.0000 0.0000 35.9877 0.0000 4.7035
# 5 7.9178 19.8768 7.2641 0.0000 19.5076 0.0000
# 6 0.0000 0.0000 0.0000 4.7035 0.0000 15.8402
#
#
#
# Elastic Compliance Matrix: (Units=1/GPa)
#
#
# Indices 1 2 3 4 5 6 
#
# 1 0.028605 -0.006213 -0.003138 0.000000 -0.004111 0.000000
# 2 -0.006213 0.020706 -0.005687 0.000000 -0.016459 0.000000
# 3 -0.003138 -0.005687 0.015616 0.000000 0.001253 0.000000
# 4 0.000000 0.000000 0.000000 0.028909 0.000000 -0.008584
# 5 -0.004111 -0.016459 0.001253 0.000000 0.069234 0.000000
# 6 0.000000 0.000000 0.000000 -0.008584 0.000000 0.065680
#
#
# Mechanical properties :
#
#
# Convention : Reuss Voigt Hill
#
# Bulk Modulus (GPa) = 28.69286 38.62025 33.65656
# Shear Modulus (GPa) = 18.48816 22.86358 20.67587
#
# Velocity S-wave (km/s) = 3.15000 3.50297 3.33117
# Velocity P-wave (km/s) = 5.35064 6.09003 5.73227
#
# Compressibility (1/GPa) = 0.03485187
#
# Stress axis : x y z
#
# Youngs Moduli (GPa) = 34.95865 48.29514 64.03646
#
# Poissons Ratio (x) = 0.30005 0.20097
# Poissons Ratio (y) = 0.21719 0.36414
# Poissons Ratio (z) = 0.10972 0.27463
#
# Static dielectric constant tensor:
#      x y z
#    x 1.644640 0.000000 0.032950 
#    y 0.000000 1.672830 0.000000 
#    z 0.032950 0.000000 1.744990 
# 
# From -- ./inp_files/35704.got.cif
#   From: 2010.05.17/outbox.cif.g08.bks.cpg/sg15_18_cif.got.tgz:35704.got - 2010.06.03 18:47:42.
