data_PCOD9269473
_publ_section_title
;
Structure prediction by ZEFSAII (Michael W. Deem and Ramdas Pophale) SiO2 
 PCOD9269473
Probable space group: C 2/C
;
_chemical_formula_sum "Si O2"
_cell_formula_units_Z 52
_cell_length_a 12.425770
_cell_length_b 22.199671
_cell_length_c 11.328052
_cell_angle_alpha 90.000000
_cell_angle_beta 46.030695
_cell_angle_gamma 90.000000
_cell_volume 2248.970369
_symmetry_space_group_name_H-M "C 2/C"
_symmetry_group_IT_number 15
_symmetry_cell_setting 'monoclinic'
loop_
_space_group_symop_operation_xyz
x,y,z
-x,y,1/2-z
-x,-y,-z
x,-y,1/2+z
1/2+x,1/2+y,z
1/2-x,1/2+y,1/2-z
1/2-x,1/2-y,-z
1/2+x,1/2-y,1/2+z
loop_
_atom_site_type_symbol
_atom_site_label
_atom_site_fract_x
_atom_site_fract_y
_atom_site_fract_z
Si Si1 0.500000 0.191191 0.250000
Si Si2 0.369073 0.127817 0.580916
Si Si3 0.829344 0.659235 0.050025
Si Si4 0.676884 0.544513 0.585863
Si Si5 0.894737 0.128172 0.067727
Si Si6 0.132163 0.914782 0.552769
Si Si7 0.628476 0.274053 0.337972
O O1 0.432590 0.152997 0.408237
O O2 0.617349 0.233563 0.228881
O O3 0.512927 0.125385 0.555581
O O4 0.278531 0.067658 0.615976
O O5 0.256915 0.177494 0.718611
O O6 0.720322 0.637381 0.238619
O O7 0.744360 0.639813 0.996115
O O8 0.852701 0.729461 0.064510
O O9 0.500000 0.544004 0.750000
O O10 0.685293 0.593319 0.475596
O O11 0.713375 0.478040 0.511527
O O12 0.037792 0.089871 0.005278
O O13 0.971887 0.190485 0.970761
O O14 0.000000 0.910738 0.750000
#
# Coordination Sequence:
#
# PCOD9269473 Si02
#       7
#     4   8   8   8   8   8   8
#     4  10  20  34  56  88 122 154 188 238 302 360
#     4  11  21  35  59  90 121 149 190 247 305 340
#     4  10  22  39  58  87 121 155 195 236 298 359
#     4  11  20  37  62  88 117 148 201 253 292 348
#     4  11  21  39  62  87 113 159 202 239 293 348
#     4   9  22  40  60  82 115 164 204 238 284 353
#     4  11  20  35  60  88 123 151 194 244 297 354
#
# _framework density 23.121690000000001
#
# number of rings (size 3 to 8) (size 9 to 14) (size 15 to 20)
#    0.000    1.538    1.538    5.538    0.000    1.231 
#    0.000    2.308    6.769    0.000    0.000    0.000 
#    0.000    0.000    0.000    0.000    0.000    0.000 
#
# Total GULP energy -145340.335724 kJ/mol
# GULP energy per Si atom -5590.012912 kJ/mol
# Density = 2.306906 g / cm^3
# Si number density = 23.121690 Si / 1000 Ang^3
#
#
#
# Elastic Constant Matrix: (Units=GPa)
#
#
# Indices 1 2 3 4 5 6 
#
# 1 111.7822 37.2403 2.4787 0.0000 -22.2093 0.0000
# 2 37.2403 91.8058 -11.1554 0.0000 -9.0174 0.0000
# 3 2.4787 -11.1554 59.8947 0.0000 -9.8239 0.0000
# 4 0.0000 0.0000 0.0000 5.7329 0.0000 2.8654
# 5 -22.2093 -9.0174 -9.8239 0.0000 23.9741 0.0000
# 6 0.0000 0.0000 0.0000 2.8654 0.0000 25.8301
#
#
#
# Elastic Compliance Matrix: (Units=1/GPa)
#
#
# Indices 1 2 3 4 5 6 
#
# 1 0.012238 -0.003930 0.000406 0.000000 0.010025 0.000000
# 2 -0.003930 0.013101 0.003017 0.000000 0.002523 0.000000
# 3 0.000406 0.003017 0.018749 0.000000 0.009193 0.000000
# 4 0.000000 0.000000 0.000000 0.184672 0.000000 -0.020486
# 5 0.010025 0.002523 0.009193 0.000000 0.055715 0.000000
# 6 0.000000 0.000000 0.000000 -0.020486 0.000000 0.040987
#
#
# Mechanical properties :
#
#
# Convention : Reuss Voigt Hill
#
# Bulk Modulus (GPa) = 23.21667 35.62333 29.42000
# Shear Modulus (GPa) = 14.66984 26.76868 20.71926
#
# Velocity S-wave (km/s) = 2.52159 3.40623 2.99673
# Velocity P-wave (km/s) = 4.30590 5.55970 4.97247
#
# Compressibility (1/GPa) = 0.04307251
#
# Stress axis : x y z
#
# Youngs Moduli (GPa) = 81.71126 76.32881 53.33645
#
# Poissons Ratio (x) = 0.30000 -0.02165
# Poissons Ratio (y) = 0.32115 -0.16089
# Poissons Ratio (z) = -0.03316 -0.23025
#
# Static dielectric constant tensor:
#      x y z
#    x 1.877370 0.000000 -0.010630 
#    y 0.000000 1.892910 0.000000 
#    z -0.010630 0.000000 1.863050 
# 
# From -- ./inp_files/91205.got.cif
#   From: 2010.05.17/outbox.cif.g08.bks.cpg/sg15_46_cif.got.tgz:91205.got - 2010.06.03 18:47:42.
