data_PCOD9269138
_publ_section_title
;
Structure prediction by ZEFSAII (Michael W. Deem and Ramdas Pophale) SiO2 
 PCOD9269138
Probable space group: C 2/C
;
_chemical_formula_sum "Si O2"
_cell_formula_units_Z 52
_cell_length_a 19.398338
_cell_length_b 7.831545
_cell_length_c 20.706368
_cell_angle_alpha 90.000000
_cell_angle_beta 41.219814
_cell_angle_gamma 90.000000
_cell_volume 2072.851119
_symmetry_space_group_name_H-M "C 2/C"
_symmetry_group_IT_number 15
_symmetry_cell_setting 'monoclinic'
loop_
_space_group_symop_operation_xyz
x,y,z
-x,y,1/2-z
-x,-y,-z
x,-y,1/2+z
1/2+x,1/2+y,z
1/2-x,1/2+y,1/2-z
1/2-x,1/2-y,-z
1/2+x,1/2-y,1/2+z
loop_
_atom_site_type_symbol
_atom_site_label
_atom_site_fract_x
_atom_site_fract_y
_atom_site_fract_z
Si Si1 0.590836 0.260260 0.958659
Si Si2 0.944204 0.702769 0.728201
Si Si3 0.244854 0.295434 0.929271
Si Si4 0.000000 0.611946 0.250000
Si Si5 0.306313 0.668674 0.851368
Si Si6 0.854461 0.047067 0.196371
Si Si7 0.876958 0.624545 0.105146
O O1 0.691403 0.252640 0.933979
O O2 0.610291 0.427652 0.901766
O O3 0.600784 0.079566 0.911518
O O4 0.473110 0.231497 0.066426
O O5 0.824853 0.671982 0.834820
O O6 0.936772 0.829949 0.675074
O O7 0.000000 0.790946 0.750000
O O8 0.999305 0.519188 0.689179
O O9 0.293090 0.484486 0.892216
O O10 0.143125 0.313733 0.955204
O O11 0.250000 0.250000 0.000000
O O12 0.896772 0.722336 0.319028
O O13 0.339179 0.614120 0.754698
O O14 0.738005 0.132779 0.282099
#
# Coordination Sequence:
#
# PCOD9269138 Si02
#       7
#     8   8   8   4   8   8   8
#     4   9  17  34  55  79 111 142 179 232 280 325
#     4   8  19  33  51  82 102 145 189 224 279 336
#     4   9  18  33  57  82 110 141 189 236 279 335
#     4  10  20  34  52  72 118 146 172 240 280 318
#     4   9  21  34  52  87 112 146 193 229 275 349
#     4   9  18  33  58  82 107 142 194 233 274 340
#     4   8  18  32  51  85 109 137 186 229 273 332
#
# _framework density 25.086219
#
# number of rings (size 3 to 8) (size 9 to 14) (size 15 to 20)
#    0.462    3.385    0.000    0.000    6.462    2.462 
#    0.000    0.769    0.000   14.769    0.000    0.000 
#    0.000    0.000    0.000    0.000    0.000    0.000 
#
# Total GULP energy -144892.003139 kJ/mol
# GULP energy per Si atom -5572.769351 kJ/mol
# Density = 2.502912 g / cm^3
# Si number density = 25.086219 Si / 1000 Ang^3
#
#
#
# Elastic Constant Matrix: (Units=GPa)
#
#
# Indices 1 2 3 4 5 6 
#
# 1 84.3712 48.6096 19.6000 0.0000 -33.4951 0.0000
# 2 48.6096 74.0916 5.9015 0.0000 -11.1525 0.0000
# 3 19.6000 5.9015 62.1063 0.0000 -16.8304 0.0000
# 4 0.0000 0.0000 0.0000 27.1367 0.0000 -7.3862
# 5 -33.4951 -11.1525 -16.8304 0.0000 46.5481 0.0000
# 6 0.0000 0.0000 0.0000 -7.3862 0.0000 37.8345
#
#
#
# Elastic Compliance Matrix: (Units=1/GPa)
#
#
# Indices 1 2 3 4 5 6 
#
# 1 0.027421 -0.015500 -0.003149 0.000000 0.014880 0.000000
# 2 -0.015500 0.022775 0.001312 0.000000 -0.005222 0.000000
# 3 -0.003149 0.001312 0.018228 0.000000 0.004639 0.000000
# 4 0.000000 0.000000 0.000000 0.038918 0.000000 0.007598
# 5 0.014880 -0.005222 0.004639 0.000000 0.032616 0.000000
# 6 0.000000 0.000000 0.000000 0.007598 0.000000 0.027914
#
#
# Mechanical properties :
#
#
# Convention : Reuss Voigt Hill
#
# Bulk Modulus (GPa) = 29.62828 40.97680 35.30254
# Shear Modulus (GPa) = 23.38684 32.06773 27.72729
#
# Velocity S-wave (km/s) = 3.05660 3.57921 3.32818
# Velocity P-wave (km/s) = 4.92883 5.78367 5.37328
#
# Compressibility (1/GPa) = 0.03375153
#
# Stress axis : x y z
#
# Youngs Moduli (GPa) = 36.46849 43.90744 54.86175
#
# Poissons Ratio (x) = 0.68055 0.17274
# Poissons Ratio (y) = 0.56525 -0.07199
# Poissons Ratio (z) = 0.11483 -0.05762
#
# Static dielectric constant tensor:
#      x y z
#    x 2.031970 0.000000 0.013320 
#    y 0.000000 2.017020 0.000000 
#    z 0.013320 0.000000 2.160300 
# 
# From -- ./inp_files/300336.got.cif
#   From: 2010.05.17/outbox.cif.g08.bks.cpg/sg15_151_cif.got.tgz:300336.got - 2010.06.03 18:47:42.
