data_PCOD9269144
_publ_section_title
;
Structure prediction by ZEFSAII (Michael W. Deem and Ramdas Pophale) SiO2 
 PCOD9269144
Probable space group: C 2/C
;
_chemical_formula_sum "Si O2"
_cell_formula_units_Z 64
_cell_length_a 20.166927
_cell_length_b 9.756414
_cell_length_c 19.023969
_cell_angle_alpha 90.000000
_cell_angle_beta 65.032193
_cell_angle_gamma 90.000000
_cell_volume 3393.286212
_symmetry_space_group_name_H-M "C 2/C"
_symmetry_group_IT_number 15
_symmetry_cell_setting 'monoclinic'
loop_
_space_group_symop_operation_xyz
x,y,z
-x,y,1/2-z
-x,-y,-z
x,-y,1/2+z
1/2+x,1/2+y,z
1/2-x,1/2+y,1/2-z
1/2-x,1/2-y,-z
1/2+x,1/2-y,1/2+z
loop_
_atom_site_type_symbol
_atom_site_label
_atom_site_fract_x
_atom_site_fract_y
_atom_site_fract_z
Si Si1 0.025716 0.254742 0.381618
Si Si2 0.038457 0.019792 0.803788
Si Si3 0.699668 0.241112 0.796643
Si Si4 0.466711 0.679722 0.959971
Si Si5 0.716247 0.955935 0.474518
Si Si6 0.791572 0.020736 0.303736
Si Si7 0.550645 0.009581 0.046844
Si Si8 0.303098 0.635243 0.057511
O O1 0.112591 0.285776 0.339417
O O2 0.009528 0.202468 0.469219
O O3 0.981804 0.393837 0.388462
O O4 0.010827 0.133572 0.334082
O O5 0.124737 0.013185 0.751631
O O6 0.000000 0.072159 0.750000
O O7 0.019668 0.102626 0.883032
O O8 0.741913 0.100302 0.792310
O O9 0.722742 0.326387 0.718246
O O10 0.711547 0.353392 0.853550
O O11 0.454624 0.830676 0.931725
O O12 0.387712 0.605660 0.001682
O O13 0.774333 0.014356 0.393852
O O14 0.707601 0.794387 0.460379
O O15 0.748082 0.958569 0.538587
O O16 0.636441 0.018812 0.497562
O O17 0.500000 0.000000 0.000000
#
# Coordination Sequence:
#
# PCOD9269144 Si02
#       8
#     8   8   8   8   8   8   8   8
#     4   9  19  36  53  74 104 135 168 210 260 300
#     4  11  22  34  50  75 109 141 165 201 256 311
#     4   9  19  34  53  74 100 134 167 207 253 299
#     4   9  17  32  55  76  94 129 179 215 240 293
#     4   9  16  29  51  75  98 128 164 209 253 289
#     4  10  20  34  52  75 103 134 166 203 254 306
#     4   9  17  31  55  79  98 127 175 220 251 290
#     4   8  15  30  50  72  99 127 164 210 250 283
#
# _framework density 18.860772999999998
#
# number of rings (size 3 to 8) (size 9 to 14) (size 15 to 20)
#    0.000    2.750    0.000    3.375    0.000    4.000 
#    0.000    3.125    0.000    2.250    0.000    0.000 
#    0.000    0.000    0.000    0.000    0.000    0.000 
#
# Total GULP energy -178196.097583 kJ/mol
# GULP energy per Si atom -5568.628049 kJ/mol
# Density = 1.881785 g / cm^3
# Si number density = 18.860773 Si / 1000 Ang^3
#
#
#
# Elastic Constant Matrix: (Units=GPa)
#
#
# Indices 1 2 3 4 5 6 
#
# 1 39.6320 2.3471 11.0268 0.0000 -5.1793 0.0000
# 2 2.3471 47.5230 21.5969 0.0000 -11.4903 0.0000
# 3 11.0268 21.5969 60.5933 0.0000 -11.1950 0.0000
# 4 0.0000 0.0000 0.0000 23.4341 0.0000 -7.3470
# 5 -5.1793 -11.4903 -11.1950 0.0000 18.2498 0.0000
# 6 0.0000 0.0000 0.0000 -7.3470 0.0000 20.1849
#
#
#
# Elastic Compliance Matrix: (Units=1/GPa)
#
#
# Indices 1 2 3 4 5 6 
#
# 1 0.027203 0.002275 -0.004590 0.000000 0.006336 0.000000
# 2 0.002275 0.027701 -0.007834 0.000000 0.013281 0.000000
# 3 -0.004590 -0.007834 0.021405 0.000000 0.006896 0.000000
# 4 0.000000 0.000000 0.000000 0.048170 0.000000 0.017533
# 5 0.006336 0.013281 0.006896 0.000000 0.069186 0.000000
# 6 0.000000 0.000000 0.000000 0.017533 0.000000 0.055924
#
#
# Mechanical properties :
#
#
# Convention : Reuss Voigt Hill
#
# Bulk Modulus (GPa) = 17.85388 24.18776 21.02082
# Shear Modulus (GPa) = 17.32762 19.89226 18.60994
#
# Velocity S-wave (km/s) = 3.03432 3.25112 3.14459
# Velocity P-wave (km/s) = 4.66506 5.19088 4.93498
#
# Compressibility (1/GPa) = 0.05601024
#
# Stress axis : x y z
#
# Youngs Moduli (GPa) = 36.76104 36.09948 46.71828
#
# Poissons Ratio (x) = -0.08211 0.21446
# Poissons Ratio (y) = -0.08362 0.36597
# Poissons Ratio (z) = 0.16875 0.28279
#
# Static dielectric constant tensor:
#      x y z
#    x 1.684660 0.000000 0.026840 
#    y 0.000000 1.674450 0.000000 
#    z 0.026840 0.000000 1.660590 
# 
# From -- ./inp_files/251872.got.cif
#   From: 2010.05.17/outbox.cif.g08.bks.cpg/sg15_126_cif.got.tgz:251872.got - 2010.06.03 18:47:42.
