data_PCOD9269932
_publ_section_title
;
Structure prediction by ZEFSAII (Michael W. Deem and Ramdas Pophale) SiO2 
 PCOD9269932
Probable space group: C 2/C
;
_chemical_formula_sum "Si O2"
_cell_formula_units_Z 56
_cell_length_a 19.415054
_cell_length_b 28.203021
_cell_length_c 5.658359
_cell_angle_alpha 90.000000
_cell_angle_beta 108.273005
_cell_angle_gamma 90.000000
_cell_volume 2942.071556
_symmetry_space_group_name_H-M "C 2/C"
_symmetry_group_IT_number 15
_symmetry_cell_setting 'monoclinic'
loop_
_space_group_symop_operation_xyz
x,y,z
-x,y,1/2-z
-x,-y,-z
x,-y,1/2+z
1/2+x,1/2+y,z
1/2-x,1/2+y,1/2-z
1/2-x,1/2-y,-z
1/2+x,1/2-y,1/2+z
loop_
_atom_site_type_symbol
_atom_site_label
_atom_site_fract_x
_atom_site_fract_y
_atom_site_fract_z
Si Si1 0.913218 0.178611 0.687927
Si Si2 0.923862 0.109361 0.043946
Si Si3 0.331051 0.773449 0.575723
Si Si4 0.793802 0.300387 0.036443
Si Si5 0.303752 0.615719 0.251746
Si Si6 0.241829 0.515238 0.197550
Si Si7 0.594216 0.480271 0.216963
O O1 0.889606 0.231825 0.616470
O O2 0.854669 0.146664 0.481758
O O3 0.000000 0.170769 0.750000
O O4 0.903045 0.162304 0.947401
O O5 0.862519 0.090368 0.148360
O O6 0.000000 0.108543 0.250000
O O7 0.923169 0.075199 0.819495
O O8 0.250000 0.750000 0.500000
O O9 0.331251 0.803422 0.333846
O O10 0.339612 0.797593 0.841567
O O11 0.750000 0.250000 0.000000
O O12 0.742853 0.345647 0.939309
O O13 0.255257 0.570952 0.276288
O O14 0.207704 0.490822 0.395901
O O15 0.319672 0.489921 0.222932
O O16 0.566905 0.498109 0.439737
#
# Coordination Sequence:
#
# PCOD9269932 Si02
#       7
#     8   8   8   8   8   8   8
#     4  12  24  35  53  77 103 132 172 225 273 307
#     4  12  24  33  48  69  98 132 177 225 266 304
#     4  10  20  38  55  73 102 126 164 217 254 319
#     4  10  20  36  57  76  93 129 168 220 252 313
#     4  12  22  36  55  71 100 135 178 225 264 300
#     4  10  20  35  49  69  97 132 173 219 261 306
#     4  10  20  37  47  61  90 128 173 217 257 307
#
# _framework density 19.034206999999999
#
# number of rings (size 3 to 8) (size 9 to 14) (size 15 to 20)
#    0.000    1.143    7.143    3.429    0.000    0.571 
#    0.000    0.000    0.000    0.000    0.000    0.000 
#    0.000    0.000    0.000    0.000    0.000   14.286 
#
# Total GULP energy -155950.756409 kJ/mol
# GULP energy per Si atom -5569.669872 kJ/mol
# Density = 1.899088 g / cm^3
# Si number density = 19.034207 Si / 1000 Ang^3
#
#
#
# Elastic Constant Matrix: (Units=GPa)
#
#
# Indices 1 2 3 4 5 6 
#
# 1 13.4151 17.1194 21.0070 0.0000 -6.5249 0.0000
# 2 17.1194 89.3120 41.4131 0.0000 11.1276 0.0000
# 3 21.0070 41.4131 133.6463 0.0000 -24.0275 0.0000
# 4 0.0000 0.0000 0.0000 35.4558 0.0000 -5.6163
# 5 -6.5249 11.1276 -24.0275 0.0000 24.1693 0.0000
# 6 0.0000 0.0000 0.0000 -5.6163 0.0000 6.9940
#
#
#
# Elastic Compliance Matrix: (Units=1/GPa)
#
#
# Indices 1 2 3 4 5 6 
#
# 1 0.147215 -0.032834 -0.003778 0.000000 0.051104 0.000000
# 2 -0.032834 0.024243 -0.007247 0.000000 -0.027230 0.000000
# 3 -0.003778 -0.007247 0.013075 0.000000 0.015315 0.000000
# 4 0.000000 0.000000 0.000000 0.032315 0.000000 0.025949
# 5 0.051104 -0.027230 0.015315 0.000000 0.082933 0.000000
# 6 0.000000 0.000000 0.000000 0.025949 0.000000 0.163818
#
#
# Mechanical properties :
#
#
# Convention : Reuss Voigt Hill
#
# Bulk Modulus (GPa) = 10.32882 43.93918 27.13400
# Shear Modulus (GPa) = 8.56768 23.77940 16.17354
#
# Velocity S-wave (km/s) = 2.12391 3.53838 2.91814
# Velocity P-wave (km/s) = 3.38421 6.31094 5.06363
#
# Compressibility (1/GPa) = 0.09681644
#
# Stress axis : x y z
#
# Youngs Moduli (GPa) = 6.79279 41.24848 76.48027
#
# Poissons Ratio (x) = 1.35435 0.28893
# Poissons Ratio (y) = 0.22303 0.55424
# Poissons Ratio (z) = 0.02566 0.29892
#
# Static dielectric constant tensor:
#      x y z
#    x 1.660980 0.000000 -0.049210 
#    y 0.000000 1.680310 0.000000 
#    z -0.049210 0.000000 1.785370 
# 
# From -- ./inp_files/14572.got.cif
#   From: 2010.05.17/outbox.cif.g08.bks.cpg/sg15_8_cif.got.tgz:14572.got - 2010.06.03 18:47:42.
