data_PCOD9269836
_publ_section_title
;
Structure prediction by ZEFSAII (Michael W. Deem and Ramdas Pophale) SiO2 
 PCOD9269836
Probable space group: C 2/C
;
_chemical_formula_sum "Si O2"
_cell_formula_units_Z 64
_cell_length_a 31.398605
_cell_length_b 20.364038
_cell_length_c 14.845273
_cell_angle_alpha 90.000000
_cell_angle_beta 21.030906
_cell_angle_gamma 90.000000
_cell_volume 3406.445053
_symmetry_space_group_name_H-M "C 2/C"
_symmetry_group_IT_number 15
_symmetry_cell_setting 'monoclinic'
loop_
_space_group_symop_operation_xyz
x,y,z
-x,y,1/2-z
-x,-y,-z
x,-y,1/2+z
1/2+x,1/2+y,z
1/2-x,1/2+y,1/2-z
1/2-x,1/2-y,-z
1/2+x,1/2-y,1/2+z
loop_
_atom_site_type_symbol
_atom_site_label
_atom_site_fract_x
_atom_site_fract_y
_atom_site_fract_z
Si Si1 0.601037 0.427086 0.721485
Si Si2 0.882109 0.777658 0.743909
Si Si3 0.861571 0.022444 0.005198
Si Si4 0.171445 0.978599 0.237309
Si Si5 0.538825 0.756127 0.766680
Si Si6 0.564052 0.751224 0.031494
Si Si7 0.756730 0.339449 0.053119
Si Si8 0.268770 0.653883 0.108919
O O1 0.616359 0.351760 0.719147
O O2 0.639995 0.453718 0.546618
O O3 0.670825 0.471370 0.656137
O O4 0.461499 0.446557 0.002263
O O5 0.941054 0.771604 0.528643
O O6 0.965245 0.738300 0.650013
O O7 0.750000 0.750000 0.000000
O O8 0.796784 0.078964 0.076513
O O9 0.809086 0.015285 0.207623
O O10 0.000000 0.039680 0.750000
O O11 0.257984 0.917131 0.063020
O O12 0.500000 0.788978 0.750000
O O13 0.621813 0.805319 0.658773
O O14 0.622457 0.696504 0.568583
O O15 0.500000 0.730679 0.250000
O O16 0.654126 0.695956 0.814556
O O17 0.645754 0.815310 0.886130
O O18 0.729552 0.331004 0.001229
#
# Coordination Sequence:
#
# PCOD9269836 Si02
#       8
#     8   8   8   8   8   8   8   8
#     4  10  21  36  54  90 125 153 196 257 312 357
#     4  12  26  40  59  89 133 159 201 257 309 364
#     4  10  22  33  61  96 122 158 202 258 316 364
#     4  10  20  34  62  89 120 153 197 260 309 356
#     4  11  24  38  61  94 120 164 210 248 302 365
#     4  11  24  38  60  91 123 165 204 248 315 362
#     4  11  20  42  67  84 125 165 208 253 301 376
#     4  11  20  42  65  87 126 162 209 257 299 376
#
# _framework density 18.787915000000002
#
# number of rings (size 3 to 8) (size 9 to 14) (size 15 to 20)
#    0.000    1.250    5.000    1.125   10.500    0.000 
#    0.000    0.000    0.000    6.750    0.000    0.000 
#    0.000    0.000    0.000    0.000    0.000    0.000 
#
# Total GULP energy -178598.994727 kJ/mol
# GULP energy per Si atom -5581.218585 kJ/mol
# Density = 1.874515 g / cm^3
# Si number density = 18.787915 Si / 1000 Ang^3
#
#
#
# Elastic Constant Matrix: (Units=GPa)
#
#
# Indices 1 2 3 4 5 6 
#
# 1 114.4597 27.3164 31.0259 0.0000 3.6161 0.0000
# 2 27.3164 83.5533 29.3350 0.0000 -11.9171 0.0000
# 3 31.0259 29.3350 71.9914 0.0000 -7.3613 0.0000
# 4 0.0000 0.0000 0.0000 16.1886 0.0000 -7.1190
# 5 3.6161 -11.9171 -7.3613 0.0000 22.6898 0.0000
# 6 0.0000 0.0000 0.0000 -7.1190 0.0000 28.3697
#
#
#
# Elastic Compliance Matrix: (Units=1/GPa)
#
#
# Indices 1 2 3 4 5 6 
#
# 1 0.010580 -0.002714 -0.003902 0.000000 -0.004377 0.000000
# 2 -0.002714 0.015407 -0.004382 0.000000 0.007103 0.000000
# 3 -0.003902 -0.004382 0.017776 0.000000 0.004087 0.000000
# 4 0.000000 0.000000 0.000000 0.069434 0.000000 0.017423
# 5 -0.004377 0.007103 0.004087 0.000000 0.049827 0.000000
# 6 0.000000 0.000000 0.000000 0.017423 0.000000 0.039621
#
#
# Mechanical properties :
#
#
# Convention : Reuss Voigt Hill
#
# Bulk Modulus (GPa) = 45.93887 49.48432 47.71160
# Shear Modulus (GPa) = 21.56143 25.60478 23.58311
#
# Velocity S-wave (km/s) = 3.39133 3.69566 3.54676
# Velocity P-wave (km/s) = 6.31183 6.67878 6.49790
#
# Compressibility (1/GPa) = 0.02176806
#
# Stress axis : x y z
#
# Youngs Moduli (GPa) = 94.51653 64.90443 56.25675
#
# Poissons Ratio (x) = 0.17612 0.21949
# Poissons Ratio (y) = 0.25647 0.24654
# Poissons Ratio (z) = 0.36876 0.28444
#
# Static dielectric constant tensor:
#      x y z
#    x 1.684190 0.000000 0.018210 
#    y 0.000000 1.666120 0.000000 
#    z 0.018210 0.000000 1.656190 
# 
# From -- ./inp_files/183119.got.cif
#   From: 2010.05.17/outbox.cif.g08.bks.cpg/sg15_92_cif.got.tgz:183119.got - 2010.06.03 18:47:42.
