data_PCOD9269849
_publ_section_title
;
Structure prediction by ZEFSAII (Michael W. Deem and Ramdas Pophale) SiO2 
 PCOD9269849
Probable space group: C 2/C
;
_chemical_formula_sum "Si O2"
_cell_formula_units_Z 64
_cell_length_a 11.208128
_cell_length_b 26.063813
_cell_length_c 13.672758
_cell_angle_alpha 90.000000
_cell_angle_beta 140.516573
_cell_angle_gamma 90.000000
_cell_volume 2539.716555
_symmetry_space_group_name_H-M "C 2/C"
_symmetry_group_IT_number 15
_symmetry_cell_setting 'monoclinic'
loop_
_space_group_symop_operation_xyz
x,y,z
-x,y,1/2-z
-x,-y,-z
x,-y,1/2+z
1/2+x,1/2+y,z
1/2-x,1/2+y,1/2-z
1/2-x,1/2-y,-z
1/2+x,1/2-y,1/2+z
loop_
_atom_site_type_symbol
_atom_site_label
_atom_site_fract_x
_atom_site_fract_y
_atom_site_fract_z
Si Si1 0.732892 0.168051 0.688641
Si Si2 0.944749 0.861375 0.504145
Si Si3 0.905290 0.024827 0.061238
Si Si4 0.870286 0.696866 0.068922
Si Si5 0.294014 0.012596 0.751824
Si Si6 0.314238 0.829104 0.988143
Si Si7 0.251993 0.718429 0.232049
Si Si8 0.854738 0.436315 0.941839
O O1 0.881967 0.138733 0.851703
O O2 0.745240 0.158057 0.578117
O O3 0.537350 0.166821 0.627513
O O4 0.769081 0.228471 0.726324
O O5 0.972197 0.918788 0.563884
O O6 0.780118 0.838236 0.468256
O O7 0.112591 0.820775 0.626264
O O8 0.735299 0.011014 0.881189
O O9 0.801140 0.031118 0.097866
O O10 0.078559 0.986505 0.154892
O O11 0.000000 0.686253 0.250000
O O12 0.039199 0.700477 0.099329
O O13 0.750000 0.750000 0.000000
O O14 0.375004 0.960199 0.848338
O O15 0.441748 0.055502 0.879571
O O16 0.217680 0.783012 0.866113
O O17 0.272140 0.879953 0.896797
#
# Coordination Sequence:
#
# PCOD9269849 Si02
#       8
#     8   8   8   8   8   8   8   8
#     4  11  23  37  60  98 122 167 214 263 305 375
#     4  11  22  39  62  91 138 163 198 259 322 391
#     4  10  21  38  62  94 121 169 206 245 322 384
#     4  11  23  41  66  85 107 154 224 275 295 352
#     4  10  20  34  62  93 115 160 213 265 293 375
#     4  10  22  38  60  91 135 170 200 256 324 393
#     4  11  23  37  60  97 120 168 215 266 303 374
#     4  10  20  38  62  92 123 169 212 246 316 390
#
# _framework density 25.199660999999999
#
# number of rings (size 3 to 8) (size 9 to 14) (size 15 to 20)
#    0.000    1.500    1.250    4.500    0.000    7.000 
#    0.000    0.000    0.000   42.000    6.500    0.000 
#    0.000    0.000    0.000    0.000    0.000    0.000 
#
# Total GULP energy -178198.249818 kJ/mol
# GULP energy per Si atom -5568.695307 kJ/mol
# Density = 2.514231 g / cm^3
# Si number density = 25.199661 Si / 1000 Ang^3
#
#
#
# Elastic Constant Matrix: (Units=GPa)
#
#
# Indices 1 2 3 4 5 6 
#
# 1 46.8551 13.7532 18.8832 0.0000 6.0139 0.0000
# 2 13.7532 56.2810 10.9673 0.0000 -6.8690 0.0000
# 3 18.8832 10.9673 125.2481 0.0000 -8.4409 0.0000
# 4 0.0000 0.0000 0.0000 48.1657 0.0000 -6.3862
# 5 6.0139 -6.8690 -8.4409 0.0000 48.2387 0.0000
# 6 0.0000 0.0000 0.0000 -6.3862 0.0000 38.3757
#
#
#
# Elastic Compliance Matrix: (Units=1/GPa)
#
#
# Indices 1 2 3 4 5 6 
#
# 1 0.025140 -0.006010 -0.003575 0.000000 -0.004615 0.000000
# 2 -0.006010 0.019774 -0.000592 0.000000 0.003461 0.000000
# 3 -0.003575 -0.000592 0.008702 0.000000 0.001884 0.000000
# 4 0.000000 0.000000 0.000000 0.021230 0.000000 0.003533
# 5 -0.004615 0.003461 0.001884 0.000000 0.022128 0.000000
# 6 0.000000 0.000000 0.000000 0.003533 0.000000 0.026646
#
#
# Mechanical properties :
#
#
# Convention : Reuss Voigt Hill
#
# Bulk Modulus (GPa) = 30.06450 35.06574 32.56512
# Shear Modulus (GPa) = 32.24515 39.27472 35.75994
#
# Velocity S-wave (km/s) = 3.58101 3.95212 3.77113
# Velocity P-wave (km/s) = 5.39023 5.89670 5.64914
#
# Compressibility (1/GPa) = 0.03326182
#
# Stress axis : x y z
#
# Youngs Moduli (GPa) = 39.77782 50.57018 114.91649
#
# Poissons Ratio (x) = 0.30393 0.41083
# Poissons Ratio (y) = 0.23906 0.06805
# Poissons Ratio (z) = 0.14221 0.02995
#
# Static dielectric constant tensor:
#      x y z
#    x 1.969980 0.000000 -0.040740 
#    y 0.000000 2.212550 0.000000 
#    z -0.040740 0.000000 2.257570 
# 
# From -- ./inp_files/149184.got.cif
#   From: 2010.05.17/outbox.cif.g08.bks.cpg/sg15_75_cif.got.tgz:149184.got - 2010.06.03 18:47:42.
