data_PCOD9269874
_publ_section_title
;
Structure prediction by ZEFSAII (Michael W. Deem and Ramdas Pophale) SiO2 
 PCOD9269874
Probable space group: C 2/C
;
_chemical_formula_sum "Si O2"
_cell_formula_units_Z 64
_cell_length_a 35.579913
_cell_length_b 8.041542
_cell_length_c 15.117301
_cell_angle_alpha 90.000000
_cell_angle_beta 41.046270
_cell_angle_gamma 90.000000
_cell_volume 2840.302019
_symmetry_space_group_name_H-M "C 2/C"
_symmetry_group_IT_number 15
_symmetry_cell_setting 'monoclinic'
loop_
_space_group_symop_operation_xyz
x,y,z
-x,y,1/2-z
-x,-y,-z
x,-y,1/2+z
1/2+x,1/2+y,z
1/2-x,1/2+y,1/2-z
1/2-x,1/2-y,-z
1/2+x,1/2-y,1/2+z
loop_
_atom_site_type_symbol
_atom_site_label
_atom_site_fract_x
_atom_site_fract_y
_atom_site_fract_z
Si Si1 0.670202 0.277713 0.885583
Si Si2 0.435873 0.322254 0.534481
Si Si3 0.622064 0.648496 0.815245
Si Si4 0.775552 0.432153 0.433685
Si Si5 0.163961 0.991193 0.555339
Si Si6 0.393508 0.823631 0.284029
Si Si7 0.538131 0.887950 0.866505
Si Si8 0.763815 0.919989 0.319199
O O1 0.614618 0.228964 0.928684
O O2 0.714484 0.142772 0.842658
O O3 0.708251 0.405324 0.759805
O O4 0.646432 0.382388 0.011177
O O5 0.418294 0.516309 0.561496
O O6 0.431282 0.280158 0.647248
O O7 0.497310 0.252588 0.396882
O O8 0.646595 0.555082 0.683713
O O9 0.584542 0.796134 0.844749
O O10 0.678983 0.691948 0.770001
O O11 0.750000 0.250000 0.500000
O O12 0.733433 0.488995 0.430736
O O13 0.842383 0.400442 0.315149
O O14 0.765055 0.554716 0.534355
O O15 0.136131 0.807782 0.597338
O O16 0.429700 0.980145 0.253967
O O17 0.500000 0.000000 0.000000
#
# Coordination Sequence:
#
# PCOD9269874 Si02
#       8
#     8   8   8   8   8   8   8   8
#     4  11  23  36  55  85 130 155 188 230 310 356
#     4   9  20  39  55  87 115 156 189 241 296 340
#     4   9  19  38  57  84 112 147 201 233 284 345
#     4   9  18  35  59  83 115 150 192 231 283 336
#     4   9  20  34  57  82 117 153 183 231 289 358
#     4   9  19  34  62  85 110 148 201 240 281 330
#     4  10  20  34  64  86 104 143 205 257 276 324
#     4  10  24  35  57  90 117 159 187 237 292 362
#
# _framework density 22.532814999999999
#
# number of rings (size 3 to 8) (size 9 to 14) (size 15 to 20)
#    0.000    2.500    0.000    2.625    8.750    2.000 
#    0.000    0.625    0.000    0.000    6.500    0.000 
#    0.000    0.000    0.000    0.000    0.000    0.000 
#
# Total GULP energy -178441.966844 kJ/mol
# GULP energy per Si atom -5576.311464 kJ/mol
# Density = 2.248153 g / cm^3
# Si number density = 22.532815 Si / 1000 Ang^3
#
#
#
# Elastic Constant Matrix: (Units=GPa)
#
#
# Indices 1 2 3 4 5 6 
#
# 1 42.1922 12.5766 1.9041 0.0001 -4.2299 0.0002
# 2 12.5766 50.8791 15.2944 0.0005 -20.3111 0.0001
# 3 1.9041 15.2944 34.2085 0.0001 -6.0809 0.0000
# 4 0.0001 0.0005 0.0001 39.3811 -0.0001 -9.6266
# 5 -4.2299 -20.3111 -6.0809 -0.0001 25.9588 0.0000
# 6 0.0002 0.0001 0.0000 -9.6266 0.0000 37.6626
#
#
#
# Elastic Compliance Matrix: (Units=1/GPa)
#
#
# Indices 1 2 3 4 5 6 
#
# 1 0.025688 -0.007294 0.001629 0.000000 -0.001140 0.000000
# 2 -0.007294 0.033716 -0.010633 0.000000 0.022701 0.000000
# 3 0.001629 -0.010633 0.033875 0.000000 -0.000119 0.000000
# 4 0.000000 0.000000 0.000000 0.027085 0.000000 0.006923
# 5 -0.001140 0.022701 -0.000119 0.000000 0.056071 0.000000
# 6 0.000000 0.000000 0.000000 0.006923 0.000000 0.028321
#
#
# Mechanical properties :
#
#
# Convention : Reuss Voigt Hill
#
# Bulk Modulus (GPa) = 16.47953 20.75889 18.61921
# Shear Modulus (GPa) = 19.41143 27.10080 23.25611
#
# Velocity S-wave (km/s) = 2.93827 3.47180 3.21612
# Velocity P-wave (km/s) = 4.34059 5.03030 4.69812
#
# Compressibility (1/GPa) = 0.06068134
#
# Stress axis : x y z
#
# Youngs Moduli (GPa) = 38.92935 29.65926 29.52067
#
# Poissons Ratio (x) = 0.21635 -0.04808
# Poissons Ratio (y) = 0.28397 0.31389
# Poissons Ratio (z) = -0.06341 0.31536
#
# Static dielectric constant tensor:
#      x y z
#    x 1.851370 0.000000 -0.024110 
#    y 0.000000 1.897090 0.000000 
#    z -0.024110 0.000000 1.892620 
# 
# From -- ./inp_files/181155.got.cif
#   From: 2010.05.17/outbox.cif.g08.bks.cpg/sg15_91_cif.got.tgz:181155.got - 2010.06.03 18:47:42.
