data_PCOD9269300
_publ_section_title
;
Structure prediction by ZEFSAII (Michael W. Deem and Ramdas Pophale) SiO2 
 PCOD9269300
Probable space group: C 2/C
;
_chemical_formula_sum "Si O2"
_cell_formula_units_Z 48
_cell_length_a 25.727222
_cell_length_b 11.378629
_cell_length_c 17.890925
_cell_angle_alpha 90.000000
_cell_angle_beta 151.805271
_cell_angle_gamma 90.000000
_cell_volume 2474.512067
_symmetry_space_group_name_H-M "C 2/C"
_symmetry_group_IT_number 15
_symmetry_cell_setting 'monoclinic'
loop_
_space_group_symop_operation_xyz
x,y,z
-x,y,1/2-z
-x,-y,-z
x,-y,1/2+z
1/2+x,1/2+y,z
1/2-x,1/2+y,1/2-z
1/2-x,1/2-y,-z
1/2+x,1/2-y,1/2+z
loop_
_atom_site_type_symbol
_atom_site_label
_atom_site_fract_x
_atom_site_fract_y
_atom_site_fract_z
Si Si1 0.924950 0.781699 0.245336
Si Si2 0.485993 0.542344 0.146063
Si Si3 0.243492 0.987757 0.699842
Si Si4 0.593400 0.597571 0.138697
Si Si5 0.778329 0.246522 0.416764
Si Si6 0.088143 0.338155 0.046329
O O1 0.822350 0.806746 0.169363
O O2 0.986042 0.671318 0.360346
O O3 0.997750 0.899897 0.338680
O O4 0.875211 0.756639 0.101100
O O5 0.500000 0.575092 0.250000
O O6 0.579326 0.596537 0.210319
O O7 0.361367 0.566530 0.960032
O O8 0.362885 0.047672 0.853077
O O9 0.201447 0.939646 0.727846
O O10 0.248571 0.884013 0.645325
O O11 0.568944 0.728559 0.077468
O O12 0.500000 0.500000 0.000000
O O13 0.812032 0.309983 0.384045
#
# Coordination Sequence:
#
# PCOD9269300 Si02
#       6
#     8   8   8   8   8   8
#     4  11  19  34  59  84 113 150 197 238 298 344
#     4  11  18  35  59  80 108 151 199 241 281 347
#     4  10  20  34  54  87 119 146 190 248 295 343
#     4   9  18  33  54  82 110 150 196 233 282 354
#     4  10  21  34  56  88 116 150 193 245 296 349
#     4  11  20  33  56  86 118 148 195 243 295 342
#
# _framework density 19.397763000000001
#
# number of rings (size 3 to 8) (size 9 to 14) (size 15 to 20)
#    0.000    1.667    6.667    1.500    2.333    0.667 
#    0.000    0.833    0.000    0.000    0.000    1.167 
#    0.000    0.000    0.000    0.000    0.000    0.000 
#
# Total GULP energy -133618.859297 kJ/mol
# GULP energy per Si atom -5567.452471 kJ/mol
# Density = 1.935361 g / cm^3
# Si number density = 19.397763 Si / 1000 Ang^3
#
#
#
# Elastic Constant Matrix: (Units=GPa)
#
#
# Indices 1 2 3 4 5 6 
#
# 1 109.4466 6.6331 20.1894 0.0000 -21.1158 0.0000
# 2 6.6331 35.3496 29.7715 0.0000 -5.0027 0.0000
# 3 20.1894 29.7715 84.9487 0.0000 -13.6584 0.0000
# 4 0.0000 0.0000 0.0000 28.2697 0.0000 5.7680
# 5 -21.1158 -5.0027 -13.6584 0.0000 30.4834 0.0000
# 6 0.0000 0.0000 0.0000 5.7680 0.0000 19.2299
#
#
#
# Elastic Compliance Matrix: (Units=1/GPa)
#
#
# Indices 1 2 3 4 5 6 
#
# 1 0.010713 0.000249 -0.001545 0.000000 0.006769 0.000000
# 2 0.000249 0.040144 -0.014054 0.000000 0.000464 0.000000
# 3 -0.001545 -0.014054 0.017804 0.000000 0.004601 0.000000
# 4 0.000000 0.000000 0.000000 0.037680 0.000000 -0.011302
# 5 0.006769 0.000464 0.004601 0.000000 0.039631 0.000000
# 6 0.000000 0.000000 0.000000 -0.011302 0.000000 0.055392
#
#
# Mechanical properties :
#
#
# Convention : Reuss Voigt Hill
#
# Bulk Modulus (GPa) = 26.34245 38.10364 32.22305
# Shear Modulus (GPa) = 20.43178 27.13998 23.78588
#
# Velocity S-wave (km/s) = 3.24899 3.74455 3.50554
# Velocity P-wave (km/s) = 5.26158 6.19528 5.74742
#
# Compressibility (1/GPa) = 0.03796154
#
# Stress axis : x y z
#
# Youngs Moduli (GPa) = 93.34615 24.91049 56.16717
#
# Poissons Ratio (x) = -0.00620 0.08677
# Poissons Ratio (y) = -0.02324 0.78935
# Poissons Ratio (z) = 0.14421 0.35008
#
# Static dielectric constant tensor:
#      x y z
#    x 1.748730 0.000000 0.014280 
#    y 0.000000 1.706580 0.000000 
#    z 0.014280 0.000000 1.758800 
# 
# From -- ./inp_files/222331.got.cif
#   From: 2010.05.17/outbox.cif.g08.bks.cpg/sg15_112_cif.got.tgz:222331.got - 2010.06.03 18:47:42.
