data_PCOD9269687
_publ_section_title
;
Structure prediction by ZEFSAII (Michael W. Deem and Ramdas Pophale) SiO2 
 PCOD9269687
Probable space group: C 2/C
;
_chemical_formula_sum "Si O2"
_cell_formula_units_Z 56
_cell_length_a 22.447108
_cell_length_b 15.135326
_cell_length_c 9.840678
_cell_angle_alpha 90.000000
_cell_angle_beta 43.817492
_cell_angle_gamma 90.000000
_cell_volume 2314.788710
_symmetry_space_group_name_H-M "C 2/C"
_symmetry_group_IT_number 15
_symmetry_cell_setting 'monoclinic'
loop_
_space_group_symop_operation_xyz
x,y,z
-x,y,1/2-z
-x,-y,-z
x,-y,1/2+z
1/2+x,1/2+y,z
1/2-x,1/2+y,1/2-z
1/2-x,1/2-y,-z
1/2+x,1/2-y,1/2+z
loop_
_atom_site_type_symbol
_atom_site_label
_atom_site_fract_x
_atom_site_fract_y
_atom_site_fract_z
Si Si1 0.000000 0.652866 0.250000
Si Si2 0.891148 0.234866 0.307707
Si Si3 0.191880 0.933616 0.029562
Si Si4 0.153130 0.222190 0.407034
Si Si5 0.670294 0.291178 0.292104
Si Si6 0.000000 0.608429 0.750000
Si Si7 0.608225 0.901148 0.819230
Si Si8 0.546608 0.557427 0.312455
O O1 0.051245 0.595086 0.277263
O O2 0.931308 0.719646 0.430491
O O3 0.828009 0.232397 0.283683
O O4 0.857690 0.198500 0.506282
O O5 0.935177 0.327809 0.270227
O O6 0.960155 0.161219 0.146752
O O7 0.163973 0.873395 0.203669
O O8 0.144579 0.025514 0.131990
O O9 0.155288 0.878615 0.958996
O O10 0.295348 0.940088 0.850692
O O11 0.229261 0.266076 0.367553
O O12 0.622072 0.204132 0.318723
O O13 0.059167 0.565466 0.535293
O O14 0.500000 0.538567 0.250000
O O15 0.500000 0.500000 0.500000
#
# Coordination Sequence:
#
# PCOD9269687 Si02
#       8
#     4   8   8   8   8   4   8   8
#     4  12  18  30  57  86 113 148 192 242 310 360
#     4  11  22  36  54  83 121 155 196 247 301 366
#     4  11  22  38  55  81 126 163 203 248 294 371
#     4  11  21  33  57  86 115 152 197 252 305 366
#     4  10  20  37  54  81 120 153 193 254 315 355
#     4  10  20  34  59  84 123 152 188 256 314 356
#     4  10  20  35  56  87 117 154 193 252 317 352
#     4  12  26  39  57  86 122 172 209 237 289 370
#
# _framework density 24.192271000000002
#
# number of rings (size 3 to 8) (size 9 to 14) (size 15 to 20)
#    0.000    1.143    5.000    3.000    5.000    0.000 
#    0.000    0.000    0.000    0.000    0.000    2.000 
#    0.000    0.000    0.000    0.000    0.000    0.000 
#
# Total GULP energy -156678.102893 kJ/mol
# GULP energy per Si atom -5595.646532 kJ/mol
# Density = 2.413721 g / cm^3
# Si number density = 24.192271 Si / 1000 Ang^3
#
#
#
# Elastic Constant Matrix: (Units=GPa)
#
#
# Indices 1 2 3 4 5 6 
#
# 1 125.5593 20.6125 43.5051 0.0000 12.6993 0.0000
# 2 20.6125 41.4804 14.4637 0.0000 -11.5023 0.0000
# 3 43.5051 14.4637 129.3459 0.0000 -5.7797 0.0000
# 4 0.0000 0.0000 0.0000 27.1668 0.0000 -6.2567
# 5 12.6993 -11.5023 -5.7797 0.0000 48.7688 0.0000
# 6 0.0000 0.0000 0.0000 -6.2567 0.0000 15.3052
#
#
#
# Elastic Compliance Matrix: (Units=1/GPa)
#
#
# Indices 1 2 3 4 5 6 
#
# 1 0.010327 -0.005248 -0.003078 0.000000 -0.004292 0.000000
# 2 -0.005248 0.029381 -0.001156 0.000000 0.008159 0.000000
# 3 -0.003078 -0.001156 0.008967 0.000000 0.001592 0.000000
# 4 0.000000 0.000000 0.000000 0.040635 0.000000 0.016612
# 5 -0.004292 0.008159 0.001592 0.000000 0.023735 0.000000
# 6 0.000000 0.000000 0.000000 0.016612 0.000000 0.072128
#
#
# Mechanical properties :
#
#
# Convention : Reuss Voigt Hill
#
# Bulk Modulus (GPa) = 33.65807 50.39425 42.02616
# Shear Modulus (GPa) = 23.35999 32.76847 28.06423
#
# Velocity S-wave (km/s) = 3.11078 3.68435 3.40964
# Velocity P-wave (km/s) = 5.18127 6.24301 5.73675
#
# Compressibility (1/GPa) = 0.02971056
#
# Stress axis : x y z
#
# Youngs Moduli (GPa) = 96.83753 34.03533 111.52114
#
# Poissons Ratio (x) = 0.17862 0.34329
# Poissons Ratio (y) = 0.50822 0.12888
# Poissons Ratio (z) = 0.29809 0.03933
#
# Static dielectric constant tensor:
#      x y z
#    x 1.935130 0.000000 -0.025870 
#    y 0.000000 1.930700 0.000000 
#    z -0.025870 0.000000 1.974080 
# 
# From -- ./inp_files/62708.got.cif
#   From: 2010.05.17/outbox.cif.g08.bks.cpg/sg15_32_cif.got.tgz:62708.got - 2010.06.03 18:47:42.
