data_PCOD9269765
_publ_section_title
;
Structure prediction by ZEFSAII (Michael W. Deem and Ramdas Pophale) SiO2 
 PCOD9269765
Probable space group: C 2/C
;
_chemical_formula_sum "Si O2"
_cell_formula_units_Z 52
_cell_length_a 8.232265
_cell_length_b 15.478137
_cell_length_c 20.640190
_cell_angle_alpha 90.000000
_cell_angle_beta 104.272649
_cell_angle_gamma 90.000000
_cell_volume 2548.797536
_symmetry_space_group_name_H-M "C 2/C"
_symmetry_group_IT_number 15
_symmetry_cell_setting 'monoclinic'
loop_
_space_group_symop_operation_xyz
x,y,z
-x,y,1/2-z
-x,-y,-z
x,-y,1/2+z
1/2+x,1/2+y,z
1/2-x,1/2+y,1/2-z
1/2-x,1/2-y,-z
1/2+x,1/2-y,1/2+z
loop_
_atom_site_type_symbol
_atom_site_label
_atom_site_fract_x
_atom_site_fract_y
_atom_site_fract_z
Si Si1 0.779343 0.385675 0.091105
Si Si2 0.683753 0.227263 0.786745
Si Si3 0.026806 0.977522 0.374231
Si Si4 0.004161 0.549647 0.155893
Si Si5 0.764863 0.094451 0.276525
Si Si6 0.500000 0.361456 0.250000
Si Si7 0.355461 0.065092 0.461861
O O1 0.795791 0.300584 0.136546
O O2 0.598703 0.428036 0.089285
O O3 0.908575 0.460800 0.128800
O O4 0.813166 0.374298 0.018380
O O5 0.500000 0.192480 0.750000
O O6 0.688491 0.325940 0.763905
O O7 0.840097 0.187691 0.763229
O O8 0.188380 0.012973 0.426270
O O9 0.920918 0.053151 0.328450
O O10 0.066129 0.915439 0.317974
O O11 0.160190 0.531160 0.218834
O O12 0.071354 0.597975 0.098885
O O13 0.873285 0.610651 0.181067
O O14 0.500000 0.000000 0.500000
#
# Coordination Sequence:
#
# PCOD9269765 Si02
#       7
#     8   8   8   8   8   4   8
#     4   9  21  38  58  92 123 160 197 255 303 372
#     4  11  25  38  61  89 129 155 201 256 314 354
#     4  10  20  34  63  88 120 158 210 251 302 364
#     4   9  19  35  65  86 120 156 206 249 306 362
#     4  10  21  38  59  91 120 158 201 253 304 359
#     4  10  22  38  60  92 120 158 204 262 310 356
#     4  10  20  34  60  91 121 158 205 253 303 362
#
# _framework density 20.401779000000001
#
# number of rings (size 3 to 8) (size 9 to 14) (size 15 to 20)
#    0.000    2.154    0.000    2.308   14.000    0.000 
#    0.000    0.769    0.000    0.923    0.000    0.000 
#    0.000    0.000    0.000    0.000    0.000    0.000 
#
# Total GULP energy -145012.090831 kJ/mol
# GULP energy per Si atom -5577.388109 kJ/mol
# Density = 2.035534 g / cm^3
# Si number density = 20.401779 Si / 1000 Ang^3
#
#
#
# Elastic Constant Matrix: (Units=GPa)
#
#
# Indices 1 2 3 4 5 6 
#
# 1 121.2080 17.9826 46.1663 0.0000 7.8383 0.0000
# 2 17.9826 30.8627 8.5154 0.0000 -2.4334 0.0000
# 3 46.1663 8.5154 106.5010 0.0000 -12.3188 0.0000
# 4 0.0000 0.0000 0.0000 -6.5878 0.0000 11.2666
# 5 7.8383 -2.4334 -12.3188 0.0000 53.3642 0.0000
# 6 0.0000 0.0000 0.0000 11.2666 0.0000 7.0467
#
#
#
# Elastic Compliance Matrix: (Units=1/GPa)
#
#
# Indices 1 2 3 4 5 6 
#
# 1 0.011023 -0.005361 -0.004690 0.000000 -0.002946 0.000000
# 2 -0.005361 0.035784 -0.000265 0.000000 0.002358 0.000000
# 3 -0.004690 -0.000265 0.011838 0.000000 0.003410 0.000000
# 4 0.000000 0.000000 0.000000 -0.040648 0.000000 0.064990
# 5 -0.002946 0.002358 0.003410 0.000000 0.020067 0.000000
# 6 0.000000 0.000000 0.000000 0.064990 0.000000 0.038001
#
#
# Mechanical properties :
#
#
# Convention : Reuss Voigt Hill
#
# Bulk Modulus (GPa) = 26.30630 44.87783 35.59206
# Shear Modulus (GPa) = 45.71788 23.15845 34.43816
#
# Velocity S-wave (km/s) = 4.73893 3.37281 4.11298
# Velocity P-wave (km/s) = 6.54716 6.10021 6.32763
#
# Compressibility (1/GPa) = 0.03801371
#
# Stress axis : x y z
#
# Youngs Moduli (GPa) = 90.72297 27.94545 84.47177
#
# Poissons Ratio (x) = 0.14981 0.39619
# Poissons Ratio (y) = 0.48633 0.02236
# Poissons Ratio (z) = 0.42551 0.00740
#
# Static dielectric constant tensor:
#      x y z
#    x 1.787330 0.000000 -0.013320 
#    y 0.000000 1.760790 0.000000 
#    z -0.013320 0.000000 1.747380 
# 
# From -- ./inp_files/231301.got.cif
#   From: 2010.05.17/outbox.cif.g08.bks.cpg/sg15_116_cif.got.tgz:231301.got - 2010.06.03 18:47:42.
