data_PCOD9269304
_publ_section_title
;
Structure prediction by ZEFSAII (Michael W. Deem and Ramdas Pophale) SiO2 
 PCOD9269304
Probable space group: C 2/C
;
_chemical_formula_sum "Si O2"
_cell_formula_units_Z 44
_cell_length_a 10.121766
_cell_length_b 22.929963
_cell_length_c 12.042689
_cell_angle_alpha 90.000000
_cell_angle_beta 45.394405
_cell_angle_gamma 90.000000
_cell_volume 1989.927129
_symmetry_space_group_name_H-M "C 2/C"
_symmetry_group_IT_number 15
_symmetry_cell_setting 'monoclinic'
loop_
_space_group_symop_operation_xyz
x,y,z
-x,y,1/2-z
-x,-y,-z
x,-y,1/2+z
1/2+x,1/2+y,z
1/2-x,1/2+y,1/2-z
1/2-x,1/2-y,-z
1/2+x,1/2-y,1/2+z
loop_
_atom_site_type_symbol
_atom_site_label
_atom_site_fract_x
_atom_site_fract_y
_atom_site_fract_z
Si Si1 0.183898 0.423180 0.066792
Si Si2 0.560184 0.391188 0.968259
Si Si3 0.111986 0.358310 0.895503
Si Si4 0.000000 0.260797 0.250000
Si Si5 0.600776 0.275916 0.447707
Si Si6 0.147870 0.551503 0.060508
O O1 0.170150 0.484969 0.008799
O O2 0.000000 0.420444 0.250000
O O3 0.374638 0.418311 0.023750
O O4 0.174453 0.372463 0.982563
O O5 0.720343 0.378817 0.782596
O O6 0.655193 0.429794 0.005686
O O7 0.511263 0.327067 0.043015
O O8 0.078830 0.288717 0.910214
O O9 0.935460 0.398879 0.970216
O O10 0.183577 0.293311 0.180136
O O11 0.950859 0.225706 0.390779
O O12 0.000000 0.549611 0.250000
#
# Coordination Sequence:
#
# PCOD9269304 Si02
#       6
#     8   8   8   4   8   8
#     4  11  23  38  66  93 117 154 207 258 291 347
#     4  11  23  40  64  88 123 162 199 246 302 361
#     4  11  23  40  64  88 123 162 199 246 302 361
#     4  10  20  34  54  88 124 146 192 252 282 356
#     4  11  22  35  60  90 120 154 202 240 308 350
#     4   9  22  44  61  86 123 163 201 244 302 359
#
# _framework density 22.111360999999999
#
# number of rings (size 3 to 8) (size 9 to 14) (size 15 to 20)
#    0.000    1.455    1.818    3.818    5.091    0.727 
#    0.000    2.727    0.000    0.000    0.000    0.000 
#    0.000    0.000    0.000    0.000    0.000    0.000 
#
# Total GULP energy -122891.518911 kJ/mol
# GULP energy per Si atom -5585.978132 kJ/mol
# Density = 2.206103 g / cm^3
# Si number density = 22.111361 Si / 1000 Ang^3
#
#
#
# Elastic Constant Matrix: (Units=GPa)
#
#
# Indices 1 2 3 4 5 6 
#
# 1 84.3093 30.7490 5.1682 0.0000 -26.1193 0.0000
# 2 30.7490 130.9746 6.7475 0.0000 -13.2608 0.0000
# 3 5.1682 6.7475 51.6328 0.0000 -17.0641 0.0000
# 4 0.0000 0.0000 0.0000 10.0771 0.0000 -5.3019
# 5 -26.1193 -13.2608 -17.0641 0.0000 25.6600 0.0000
# 6 0.0000 0.0000 0.0000 -5.3019 0.0000 37.4828
#
#
#
# Elastic Compliance Matrix: (Units=1/GPa)
#
#
# Indices 1 2 3 4 5 6 
#
# 1 0.019306 -0.002588 0.005714 0.000000 0.022114 0.000000
# 2 -0.002588 0.008410 -0.000351 0.000000 0.001479 0.000000
# 3 0.005714 -0.000351 0.026536 0.000000 0.023281 0.000000
# 4 0.000000 0.000000 0.000000 0.107214 0.000000 0.015165
# 5 0.022114 0.001479 0.023281 0.000000 0.077727 0.000000
# 6 0.000000 0.000000 0.000000 0.015165 0.000000 0.028824
#
#
# Mechanical properties :
#
#
# Convention : Reuss Voigt Hill
#
# Bulk Modulus (GPa) = 16.72196 39.13845 27.93020
# Shear Modulus (GPa) = 17.70534 29.59411 23.64972
#
# Velocity S-wave (km/s) = 2.83280 3.66240 3.27398
# Velocity P-wave (km/s) = 4.27536 5.96852 5.19143
#
# Compressibility (1/GPa) = 0.05980160
#
# Stress axis : x y z
#
# Youngs Moduli (GPa) = 51.79857 118.90019 37.68503
#
# Poissons Ratio (x) = 0.30769 -0.21534
# Poissons Ratio (y) = 0.13404 0.01324
# Poissons Ratio (z) = -0.29599 0.04178
#
# Static dielectric constant tensor:
#      x y z
#    x 1.775090 0.000000 -0.012600 
#    y 0.000000 1.865050 0.000000 
#    z -0.012600 0.000000 1.855550 
# 
# From -- ./inp_files/81082.got.cif
#   From: 2010.05.17/outbox.cif.g08.bks.cpg/sg15_41_cif.got.tgz:81082.got - 2010.06.03 18:47:42.
