data_PCOD9269904
_publ_section_title
;
Structure prediction by ZEFSAII (Michael W. Deem and Ramdas Pophale) SiO2 
 PCOD9269904
Probable space group: C 2/C
;
_chemical_formula_sum "Si O2"
_cell_formula_units_Z 44
_cell_length_a 17.566915
_cell_length_b 5.354300
_cell_length_c 20.105238
_cell_angle_alpha 90.000000
_cell_angle_beta 77.680574
_cell_angle_gamma 90.000000
_cell_volume 1847.524091
_symmetry_space_group_name_H-M "C 2/C"
_symmetry_group_IT_number 15
_symmetry_cell_setting 'monoclinic'
loop_
_space_group_symop_operation_xyz
x,y,z
-x,y,1/2-z
-x,-y,-z
x,-y,1/2+z
1/2+x,1/2+y,z
1/2-x,1/2+y,1/2-z
1/2-x,1/2-y,-z
1/2+x,1/2-y,1/2+z
loop_
_atom_site_type_symbol
_atom_site_label
_atom_site_fract_x
_atom_site_fract_y
_atom_site_fract_z
Si Si1 0.371734 0.278323 0.679928
Si Si2 0.379231 0.386828 0.379431
Si Si3 0.191826 0.917381 0.421391
Si Si4 0.847240 0.591478 0.960977
Si Si5 0.500000 0.539523 0.250000
Si Si6 0.245069 0.937972 0.686547
O O1 0.365302 0.399689 0.607821
O O2 0.450156 0.300503 0.706473
O O3 0.333759 0.006451 0.684439
O O4 0.308535 0.414022 0.739869
O O5 0.376547 0.660235 0.415250
O O6 0.442544 0.386056 0.308696
O O7 0.296299 0.368759 0.355987
O O8 0.389750 0.158155 0.428028
O O9 0.146671 0.686040 0.464383
O O10 0.255099 0.982712 0.466734
O O11 0.251386 0.813452 0.355332
#
# Coordination Sequence:
#
# PCOD9269904 Si02
#       6
#     8   8   8   8   4   8
#     4  11  20  40  58  96 120 170 210 275 307 390
#     4  10  22  43  61  96 123 172 202 267 307 392
#     4  10  21  35  62  97 119 168 203 273 308 380
#     4  10  22  38  66  94 132 158 216 256 322 371
#     4  10  26  42  64  90 134 166 216 262 340 358
#     4  10  20  34  65  86 125 155 224 256 319 359
#
# _framework density 23.815659
#
# number of rings (size 3 to 8) (size 9 to 14) (size 15 to 20)
#    0.000    1.818    3.636    0.000    2.545    2.909 
#    3.273    1.818    0.000    0.000    0.000    0.000 
#    0.000    0.000    0.000    0.000    0.000    0.000 
#
# Total GULP energy -122589.507517 kJ/mol
# GULP energy per Si atom -5572.250342 kJ/mol
# Density = 2.376145 g / cm^3
# Si number density = 23.815659 Si / 1000 Ang^3
#
#
#
# Elastic Constant Matrix: (Units=GPa)
#
#
# Indices 1 2 3 4 5 6 
#
# 1 73.9518 8.7521 11.3180 0.0000 5.0903 0.0000
# 2 8.7521 108.9424 28.3494 0.0000 0.8383 0.0000
# 3 11.3180 28.3494 93.7475 0.0000 -1.5367 0.0000
# 4 0.0000 0.0000 0.0000 39.2792 0.0000 2.4504
# 5 5.0903 0.8383 -1.5367 0.0000 28.5768 0.0000
# 6 0.0000 0.0000 0.0000 2.4504 0.0000 13.2394
#
#
#
# Elastic Compliance Matrix: (Units=1/GPa)
#
#
# Indices 1 2 3 4 5 6 
#
# 1 0.014015 -0.000711 -0.001519 0.000000 -0.002557 0.000000
# 2 -0.000711 0.010005 -0.002945 0.000000 -0.000325 0.000000
# 3 -0.001519 -0.002945 0.011757 0.000000 0.000989 0.000000
# 4 0.000000 0.000000 0.000000 0.025756 0.000000 -0.004767
# 5 -0.002557 -0.000325 0.000989 0.000000 0.035512 0.000000
# 6 0.000000 0.000000 0.000000 -0.004767 0.000000 0.076415
#
#
# Mechanical properties :
#
#
# Convention : Reuss Voigt Hill
#
# Bulk Modulus (GPa) = 39.32781 41.49785 40.41283
# Shear Modulus (GPa) = 26.00300 31.43389 28.71844
#
# Velocity S-wave (km/s) = 3.30789 3.63696 3.47632
# Velocity P-wave (km/s) = 5.58022 5.92445 5.75491
#
# Compressibility (1/GPa) = 0.02542730
#
# Stress axis : x y z
#
# Youngs Moduli (GPa) = 71.35234 99.94841 85.05475
#
# Poissons Ratio (x) = 0.07106 0.12919
# Poissons Ratio (y) = 0.05073 0.25049
# Poissons Ratio (z) = 0.10838 0.29435
#
# Static dielectric constant tensor:
#      x y z
#    x 1.950600 0.000000 0.038650 
#    y 0.000000 2.048600 0.000000 
#    z 0.038650 0.000000 1.999410 
# 
# From -- ./inp_files/246455.got.cif
#   From: 2010.05.17/outbox.cif.g08.bks.cpg/sg15_124_cif.got.tgz:246455.got - 2010.06.03 18:47:42.
