data_PCOD9269050
_publ_section_title
;
Structure prediction by ZEFSAII (Michael W. Deem and Ramdas Pophale) SiO2 
 PCOD9269050
Probable space group: C 2/C
;
_chemical_formula_sum "Si O2"
_cell_formula_units_Z 60
_cell_length_a 20.211979
_cell_length_b 15.946675
_cell_length_c 9.408072
_cell_angle_alpha 90.000000
_cell_angle_beta 61.374767
_cell_angle_gamma 90.000000
_cell_volume 2661.713910
_symmetry_space_group_name_H-M "C 2/C"
_symmetry_group_IT_number 15
_symmetry_cell_setting 'monoclinic'
loop_
_space_group_symop_operation_xyz
x,y,z
-x,y,1/2-z
-x,-y,-z
x,-y,1/2+z
1/2+x,1/2+y,z
1/2-x,1/2+y,1/2-z
1/2-x,1/2-y,-z
1/2+x,1/2-y,1/2+z
loop_
_atom_site_type_symbol
_atom_site_label
_atom_site_fract_x
_atom_site_fract_y
_atom_site_fract_z
Si Si1 0.000000 0.041672 0.250000
Si Si2 0.421922 0.415416 0.106182
Si Si3 0.281889 0.194412 0.639513
Si Si4 0.797742 0.023475 0.118055
Si Si5 0.450410 0.947308 0.666299
Si Si6 0.354542 0.330803 0.407041
Si Si7 0.176227 0.418055 0.143787
Si Si8 0.676417 0.155167 0.353998
O O1 0.961743 0.981256 0.171586
O O2 0.952045 0.095906 0.414293
O O3 0.339862 0.455941 0.169772
O O4 0.410655 0.334461 0.217145
O O5 0.350602 0.247950 0.503917
O O6 0.232129 0.159985 0.560589
O O7 0.313157 0.127367 0.716249
O O8 0.221818 0.259966 0.770938
O O9 0.735331 0.080288 0.257199
O O10 0.753857 0.969801 0.045425
O O11 0.862216 0.086852 0.996142
O O12 0.500000 0.919311 0.750000
O O13 0.390451 0.015293 0.786541
O O14 0.500000 0.000000 0.500000
O O15 0.399982 0.872964 0.648140
O O16 0.163254 0.350688 0.035219
#
# Coordination Sequence:
#
# PCOD9269050 Si02
#       8
#     4   8   8   8   8   8   8   8
#     4  10  24  32  60  88 120 168 206 262 310 388
#     4  11  19  39  57  88 126 159 215 266 321 381
#     4  10  22  37  61  96 128 166 211 277 343 407
#     4  10  20  33  63  94 117 159 213 284 328 384
#     4  11  23  41  67  97 134 180 230 282 335 410
#     4  10  20  36  59  88 128 163 206 266 340 392
#     4  11  21  36  64  95 130 165 222 283 342 395
#     4  10  22  37  62  96 129 169 222 276 347 400
#
# _framework density 22.541865999999999
#
# number of rings (size 3 to 8) (size 9 to 14) (size 15 to 20)
#    0.000    1.600    4.000    1.200    1.867    2.133 
#    0.000    0.000    4.400    0.000    6.933    0.000 
#    0.000    0.000    0.000    0.000    0.000    0.000 
#
# Total GULP energy -167314.062160 kJ/mol
# GULP energy per Si atom -5577.135405 kJ/mol
# Density = 2.249056 g / cm^3
# Si number density = 22.541866 Si / 1000 Ang^3
#
#
#
# Elastic Constant Matrix: (Units=GPa)
#
#
# Indices 1 2 3 4 5 6 
#
# 1 76.9962 -8.6625 0.2940 0.0000 12.2558 0.0000
# 2 -8.6625 42.3096 -3.6296 0.0000 -0.1443 0.0000
# 3 0.2940 -3.6296 91.0602 0.0000 1.2147 0.0000
# 4 0.0000 0.0000 0.0000 30.2032 0.0000 1.4073
# 5 12.2558 -0.1443 1.2147 0.0000 32.0059 0.0000
# 6 0.0000 0.0000 0.0000 1.4073 0.0000 20.1122
#
#
#
# Elastic Compliance Matrix: (Units=1/GPa)
#
#
# Indices 1 2 3 4 5 6 
#
# 1 0.014176 0.002896 0.000142 0.000000 -0.005421 0.000000
# 2 0.002896 0.024308 0.000973 0.000000 -0.001036 0.000000
# 3 0.000142 0.000973 0.011026 0.000000 -0.000468 0.000000
# 4 0.000000 0.000000 0.000000 0.033217 0.000000 -0.002324
# 5 -0.005421 -0.001036 -0.000468 0.000000 0.033333 0.000000
# 6 0.000000 0.000000 0.000000 -0.002324 0.000000 0.049884
#
#
# Mechanical properties :
#
#
# Convention : Reuss Voigt Hill
#
# Bulk Modulus (GPa) = 17.38132 20.70777 19.04454
# Shear Modulus (GPa) = 28.23277 31.28854 29.76065
#
# Velocity S-wave (km/s) = 3.54285 3.72965 3.63745
# Velocity P-wave (km/s) = 4.94602 5.26815 5.10962
#
# Compressibility (1/GPa) = 0.05753304
#
# Stress axis : x y z
#
# Youngs Moduli (GPa) = 70.54308 41.13841 90.69201
#
# Poissons Ratio (x) = -0.11914 -0.01288
# Poissons Ratio (y) = -0.20430 -0.08828
# Poissons Ratio (z) = -0.01002 -0.04004
#
# Static dielectric constant tensor:
#      x y z
#    x 1.851780 0.000000 -0.041280 
#    y 0.000000 1.892270 0.000000 
#    z -0.041280 0.000000 1.894380 
# 
# From -- ./inp_files/56541.got.cif
#   From: 2010.05.17/outbox.cif.g08.bks.cpg/sg15_29_cif.got.tgz:56541.got - 2010.06.03 18:47:42.
