data_PCOD9269261
_publ_section_title
;
Structure prediction by ZEFSAII (Michael W. Deem and Ramdas Pophale) SiO2 
 PCOD9269261
Probable space group: C 2/C
;
_chemical_formula_sum "Si O2"
_cell_formula_units_Z 48
_cell_length_a 5.222625
_cell_length_b 23.580472
_cell_length_c 22.534792
_cell_angle_alpha 90.000000
_cell_angle_beta 68.762639
_cell_angle_gamma 90.000000
_cell_volume 2586.733655
_symmetry_space_group_name_H-M "C 2/C"
_symmetry_group_IT_number 15
_symmetry_cell_setting 'monoclinic'
loop_
_space_group_symop_operation_xyz
x,y,z
-x,y,1/2-z
-x,-y,-z
x,-y,1/2+z
1/2+x,1/2+y,z
1/2-x,1/2+y,1/2-z
1/2-x,1/2-y,-z
1/2+x,1/2-y,1/2+z
loop_
_atom_site_type_symbol
_atom_site_label
_atom_site_fract_x
_atom_site_fract_y
_atom_site_fract_z
Si Si1 0.677251 0.290423 0.678006
Si Si2 0.681268 0.497699 0.045016
Si Si3 0.713232 0.372191 0.059616
Si Si4 0.227442 0.381752 0.923847
Si Si5 0.733865 0.268042 0.128483
Si Si6 0.487522 0.296976 0.986317
O O1 0.500000 0.306290 0.750000
O O2 0.793733 0.346687 0.635117
O O3 0.471008 0.257076 0.650612
O O4 0.932093 0.250103 0.674592
O O5 0.627090 0.436505 0.078592
O O6 0.663296 0.553897 0.086813
O O7 0.500000 0.500000 0.000000
O O8 0.000000 0.500000 0.000000
O O9 0.785097 0.334228 0.110411
O O10 0.487597 0.332951 0.046184
O O11 0.956868 0.376074 0.989208
O O12 0.449310 0.346686 0.942081
O O13 0.755411 0.237629 0.061215
O O14 0.250000 0.250000 0.000000
#
# Coordination Sequence:
#
# PCOD9269261 Si02
#       6
#     8   8   8   8   8   8
#     4  11  24  39  56  78 109 149 194 238 271 323
#     4  10  21  33  51  80 116 147 173 213 271 343
#     4  11  19  33  53  84 119 141 175 226 293 345
#     4  10  20  34  54  80 115 149 181 225 280 342
#     4  11  22  34  57  82 111 144 181 227 286 336
#     4  11  18  29  51  82 118 143 176 212 285 350
#
# _framework density 18.55622
#
# number of rings (size 3 to 8) (size 9 to 14) (size 15 to 20)
#    0.000    1.333    5.000    3.000    0.000    0.000 
#    0.000    0.000    0.000    2.000    0.000    0.000 
#    0.000    0.000    0.000    0.000    0.000    0.000 
#
# Total GULP energy -133616.138343 kJ/mol
# GULP energy per Si atom -5567.339098 kJ/mol
# Density = 1.851399 g / cm^3
# Si number density = 18.556220 Si / 1000 Ang^3
#
#
#
# Elastic Constant Matrix: (Units=GPa)
#
#
# Indices 1 2 3 4 5 6 
#
# 1 75.9139 29.5203 3.4729 0.0000 -6.9200 0.0000
# 2 29.5203 189.6160 26.7521 0.0000 2.0067 0.0000
# 3 3.4729 26.7521 58.7913 0.0000 -9.2082 0.0000
# 4 0.0000 0.0000 0.0000 14.3489 0.0000 0.2089
# 5 -6.9200 2.0067 -9.2082 0.0000 22.7959 0.0000
# 6 0.0000 0.0000 0.0000 0.2089 0.0000 22.7242
#
#
#
# Elastic Compliance Matrix: (Units=1/GPa)
#
#
# Indices 1 2 3 4 5 6 
#
# 1 0.014545 -0.002467 0.001056 0.000000 0.005059 0.000000
# 2 -0.002467 0.006112 -0.003028 0.000000 -0.002510 0.000000
# 3 0.001056 -0.003028 0.019661 0.000000 0.008529 0.000000
# 4 0.000000 0.000000 0.000000 0.069701 0.000000 -0.000641
# 5 0.005059 -0.002510 0.008529 0.000000 0.049069 0.000000
# 6 0.000000 0.000000 0.000000 -0.000641 0.000000 0.044012
#
#
# Mechanical properties :
#
#
# Convention : Reuss Voigt Hill
#
# Bulk Modulus (GPa) = 31.80853 49.31243 40.56048
# Shear Modulus (GPa) = 22.47612 29.61220 26.04416
#
# Velocity S-wave (km/s) = 3.48407 3.99909 3.75043
# Velocity P-wave (km/s) = 5.77615 6.92502 6.37651
#
# Compressibility (1/GPa) = 0.03143811
#
# Stress axis : x y z
#
# Youngs Moduli (GPa) = 68.75237 163.62013 50.86251
#
# Poissons Ratio (x) = 0.40363 -0.05369
# Poissons Ratio (y) = 0.16961 0.15404
# Poissons Ratio (z) = -0.07258 0.49552
#
# Static dielectric constant tensor:
#      x y z
#    x 1.765530 0.000000 0.006310 
#    y 0.000000 1.695590 0.000000 
#    z 0.006310 0.000000 1.654250 
# 
# From -- ./inp_files/227686.got.cif
#   From: 2010.05.17/outbox.cif.g08.bks.cpg/sg15_114_cif.got.tgz:227686.got - 2010.06.03 18:47:42.
