data_PCOD9269559
_publ_section_title
;
Structure prediction by ZEFSAII (Michael W. Deem and Ramdas Pophale) SiO2 
 PCOD9269559
Probable space group: C 2/C
;
_chemical_formula_sum "Si O2"
_cell_formula_units_Z 40
_cell_length_a 11.722682
_cell_length_b 32.365998
_cell_length_c 5.117580
_cell_angle_alpha 90.000000
_cell_angle_beta 68.173639
_cell_angle_gamma 90.000000
_cell_volume 1802.502739
_symmetry_space_group_name_H-M "C 2/C"
_symmetry_group_IT_number 15
_symmetry_cell_setting 'monoclinic'
loop_
_space_group_symop_operation_xyz
x,y,z
-x,y,1/2-z
-x,-y,-z
x,-y,1/2+z
1/2+x,1/2+y,z
1/2-x,1/2+y,1/2-z
1/2-x,1/2-y,-z
1/2+x,1/2-y,1/2+z
loop_
_atom_site_type_symbol
_atom_site_label
_atom_site_fract_x
_atom_site_fract_y
_atom_site_fract_z
Si Si1 0.741351 0.885385 0.634306
Si Si2 0.500000 0.153994 0.250000
Si Si3 0.500000 0.289947 0.250000
Si Si4 0.645956 0.973114 0.611448
Si Si5 0.118681 0.274308 0.320478
Si Si6 0.176435 0.835722 0.449997
O O1 0.600594 0.872166 0.815714
O O2 0.731849 0.934415 0.609517
O O3 0.777397 0.864960 0.327487
O O4 0.819056 0.863873 0.796843
O O5 0.428026 0.184476 0.497953
O O6 0.387451 0.261602 0.454692
O O7 0.551883 0.317690 0.437152
O O8 0.500000 0.961903 0.750000
O O9 0.666715 0.990723 0.304665
O O10 0.239170 0.293744 0.079761
O O11 0.000000 0.262712 0.250000
#
# Coordination Sequence:
#
# PCOD9269559 Si02
#       6
#     8   4   4   8   8   8
#     4  11  21  38  60  86 122 158 193 234 289 368
#     4   9  18  34  52  86 116 154 196 226 288 350
#     4  11  26  40  56  84 120 152 212 264 286 342
#     4  10  20  34  57  93 127 155 181 230 300 362
#     4  10  20  37  59  80 115 157 196 250 300 353
#     4  11  25  39  60  87 114 166 200 245 301 343
#
# _framework density 22.191368000000001
#
# number of rings (size 3 to 8) (size 9 to 14) (size 15 to 20)
#    0.000    1.600    3.000    1.800    2.800    0.800 
#    0.000    0.000    0.000    0.000    0.000   14.000 
#    0.000    0.000    0.000    0.000    0.000    0.000 
#
# Total GULP energy -111625.834538 kJ/mol
# GULP energy per Si atom -5581.291727 kJ/mol
# Density = 2.214086 g / cm^3
# Si number density = 22.191368 Si / 1000 Ang^3
#
#
#
# Elastic Constant Matrix: (Units=GPa)
#
#
# Indices 1 2 3 4 5 6 
#
# 1 74.7153 35.5064 13.8646 0.0000 17.0622 0.0000
# 2 35.5064 117.0371 26.3886 0.0000 11.8604 0.0000
# 3 13.8646 26.3886 85.7688 0.0000 21.0125 0.0000
# 4 0.0000 0.0000 0.0000 33.3870 0.0000 -0.6629
# 5 17.0622 11.8604 21.0125 0.0000 31.7750 0.0000
# 6 0.0000 0.0000 0.0000 -0.6629 0.0000 29.3040
#
#
#
# Elastic Compliance Matrix: (Units=1/GPa)
#
#
# Indices 1 2 3 4 5 6 
#
# 1 0.017258 -0.004557 0.000556 0.000000 -0.007934 0.000000
# 2 -0.004557 0.010478 -0.002540 0.000000 0.000216 0.000000
# 3 0.000556 -0.002540 0.014549 0.000000 -0.008971 0.000000
# 4 0.000000 0.000000 0.000000 0.029965 0.000000 0.000678
# 5 -0.007934 0.000216 -0.008971 0.000000 0.041584 0.000000
# 6 0.000000 0.000000 0.000000 0.000678 0.000000 0.034140
#
#
# Mechanical properties :
#
#
# Convention : Reuss Voigt Hill
#
# Bulk Modulus (GPa) = 34.24335 47.67115 40.95725
# Shear Modulus (GPa) = 29.27564 32.34398 30.80981
#
# Velocity S-wave (km/s) = 3.63607 3.82187 3.73012
# Velocity P-wave (km/s) = 5.75260 6.40344 6.08673
#
# Compressibility (1/GPa) = 0.02920275
#
# Stress axis : x y z
#
# Youngs Moduli (GPa) = 57.94263 95.44129 68.73457
#
# Poissons Ratio (x) = 0.43494 -0.03822
# Poissons Ratio (y) = 0.26405 0.17458
# Poissons Ratio (z) = -0.03222 0.24241
#
# Static dielectric constant tensor:
#      x y z
#    x 1.894140 0.000000 0.100950 
#    y 0.000000 1.802840 0.000000 
#    z 0.100950 0.000000 1.339210 
# 
# From -- ./inp_files/4958.got.cif
#   From: 2010.05.17/outbox.cif.g08.bks.cpg/sg15_3_cif.got.tgz:4958.got - 2010.06.03 18:47:42.
