data_PCOD9269946
_publ_section_title
;
Structure prediction by ZEFSAII (Michael W. Deem and Ramdas Pophale) SiO2 
 PCOD9269946
Probable space group: C 2/C
;
_chemical_formula_sum "Si O2"
_cell_formula_units_Z 40
_cell_length_a 20.691619
_cell_length_b 14.510159
_cell_length_c 7.846997
_cell_angle_alpha 90.000000
_cell_angle_beta 41.986281
_cell_angle_gamma 90.000000
_cell_volume 1576.033729
_symmetry_space_group_name_H-M "C 2/C"
_symmetry_group_IT_number 15
_symmetry_cell_setting 'monoclinic'
loop_
_space_group_symop_operation_xyz
x,y,z
-x,y,1/2-z
-x,-y,-z
x,-y,1/2+z
1/2+x,1/2+y,z
1/2-x,1/2+y,1/2-z
1/2-x,1/2-y,-z
1/2+x,1/2-y,1/2+z
loop_
_atom_site_type_symbol
_atom_site_label
_atom_site_fract_x
_atom_site_fract_y
_atom_site_fract_z
Si Si1 0.642981 0.561342 0.733023
Si Si2 0.915587 0.377465 0.604220
Si Si3 0.123748 0.708883 0.647563
Si Si4 0.225389 0.115314 0.901154
Si Si5 0.500000 0.438991 0.250000
Si Si6 0.500000 0.950501 0.750000
O O1 0.707086 0.486717 0.507111
O O2 0.574225 0.612243 0.731131
O O3 0.713253 0.615576 0.721018
O O4 0.568976 0.504927 0.000620
O O5 0.846285 0.329230 0.600757
O O6 0.922323 0.394055 0.792481
O O7 0.014753 0.320083 0.388973
O O8 0.936182 0.479575 0.488594
O O9 0.137240 0.817670 0.629722
O O10 0.186920 0.660777 0.669318
#
# Coordination Sequence:
#
# PCOD9269946 Si02
#       6
#     8   8   8   8   4   4
#     4   9  18  32  54  73  98 134 168 207 246 298
#     4   9  18  33  56  76 101 140 170 210 251 298
#     4   9  20  35  51  73 106 136 165 209 260 303
#     4  10  20  35  51  76 104 132 169 210 258 301
#     4   8  16  30  48  76  96 122 170 202 230 290
#     4   8  16  32  52  80  98 122 182 210 236 300
#
# _framework density 25.380167
#
# number of rings (size 3 to 8) (size 9 to 14) (size 15 to 20)
#    0.000    3.200    0.000    0.000    0.000   16.000 
#    0.000    8.000    0.000   12.000    0.000    0.000 
#    0.000    0.000    0.000    0.000    0.000    0.000 
#
# Total GULP energy -111571.343694 kJ/mol
# GULP energy per Si atom -5578.567185 kJ/mol
# Density = 2.532240 g / cm^3
# Si number density = 25.380167 Si / 1000 Ang^3
#
#
#
# Elastic Constant Matrix: (Units=GPa)
#
#
# Indices 1 2 3 4 5 6 
#
# 1 246.0723 40.8613 23.9595 0.0000 32.7414 0.0000
# 2 40.8613 71.3914 0.5406 0.0000 5.4391 0.0000
# 3 23.9595 0.5406 22.5918 0.0000 4.8270 0.0000
# 4 0.0000 0.0000 0.0000 0.6037 0.0000 -11.2915
# 5 32.7414 5.4391 4.8270 0.0000 40.4946 0.0000
# 6 0.0000 0.0000 0.0000 -11.2915 0.0000 7.8578
#
#
#
# Elastic Compliance Matrix: (Units=1/GPa)
#
#
# Indices 1 2 3 4 5 6 
#
# 1 0.005482 -0.002837 -0.005008 0.000000 -0.003455 0.000000
# 2 -0.002837 0.015620 0.002661 0.000000 -0.000122 0.000000
# 3 -0.005008 0.002661 0.049996 0.000000 -0.002268 0.000000
# 4 0.000000 0.000000 0.000000 -0.064012 0.000000 -0.091984
# 5 -0.003455 -0.000122 -0.002268 0.000000 0.027774 0.000000
# 6 0.000000 0.000000 0.000000 -0.091984 0.000000 -0.004918
#
#
# Mechanical properties :
#
#
# Convention : Reuss Voigt Hill
#
# Bulk Modulus (GPa) = 16.46634 52.30870 34.38752
# Shear Modulus (GPa) = 82.57079 28.10414 55.33747
#
# Velocity S-wave (km/s) = 5.71001 3.33126 4.67448
# Velocity P-wave (km/s) = 7.06925 5.95409 6.53550
#
# Compressibility (1/GPa) = 0.06072994
#
# Stress axis : x y z
#
# Youngs Moduli (GPa) = 182.41014 64.02058 20.00158
#
# Poissons Ratio (x) = 0.18160 0.10017
# Poissons Ratio (y) = 0.51743 -0.05322
# Poissons Ratio (z) = 0.91352 -0.17033
#
# Static dielectric constant tensor:
#      x y z
#    x 2.127050 0.000000 0.078650 
#    y 0.000000 1.915400 0.000000 
#    z 0.078650 0.000000 2.183570 
# 
# From -- ./inp_files/46942.got.cif
#   From: 2010.05.17/outbox.cif.g08.bks.cpg/sg15_24_cif.got.tgz:46942.got - 2010.06.03 18:47:42.
