data_PCOD9269521
_publ_section_title
;
Structure prediction by ZEFSAII (Michael W. Deem and Ramdas Pophale) SiO2 
 PCOD9269521
Probable space group: C 2/C
;
_chemical_formula_sum "Si O2"
_cell_formula_units_Z 48
_cell_length_a 10.077618
_cell_length_b 13.869890
_cell_length_c 30.490680
_cell_angle_alpha 90.000000
_cell_angle_beta 33.080422
_cell_angle_gamma 90.000000
_cell_volume 2326.183800
_symmetry_space_group_name_H-M "C 2/C"
_symmetry_group_IT_number 15
_symmetry_cell_setting 'monoclinic'
loop_
_space_group_symop_operation_xyz
x,y,z
-x,y,1/2-z
-x,-y,-z
x,-y,1/2+z
1/2+x,1/2+y,z
1/2-x,1/2+y,1/2-z
1/2-x,1/2-y,-z
1/2+x,1/2-y,1/2+z
loop_
_atom_site_type_symbol
_atom_site_label
_atom_site_fract_x
_atom_site_fract_y
_atom_site_fract_z
Si Si1 0.799260 0.388987 0.918288
Si Si2 0.589248 0.788309 0.419759
Si Si3 0.500000 0.723046 0.750000
Si Si4 0.500000 0.160573 0.750000
Si Si5 0.418948 0.540001 0.587297
Si Si6 0.215323 0.823031 0.750697
Si Si7 0.861375 0.132905 0.417865
O O1 0.690398 0.295434 0.923486
O O2 0.721666 0.484412 0.912909
O O3 0.091155 0.378125 0.833851
O O4 0.645936 0.399095 0.005437
O O5 0.424639 0.859294 0.493687
O O6 0.449327 0.730812 0.419200
O O7 0.811372 0.835656 0.331739
O O8 0.366701 0.793147 0.752251
O O9 0.715044 0.099491 0.668915
O O10 0.625419 0.228417 0.751118
O O11 0.527256 0.456789 0.587612
O O12 0.972419 0.869984 0.838481
#
# Coordination Sequence:
#
# PCOD9269521 Si02
#       7
#     8   8   4   4   8   8   8
#     4   9  18  34  56  80 110 145 190 236 279 328
#     4   8  14  27  51  81 105 138 184 228 268 321
#     4   8  16  31  54  77 102 142 194 228 256 321
#     4  12  24  35  56  87 118 146 184 234 288 329
#     4  10  20  34  57  86 111 144 189 239 278 327
#     4  10  20  35  56  82 113 151 188 228 276 342
#     4   9  16  30  53  79 109 140 182 227 271 324
#
# _framework density 20.634654999999999
#
# number of rings (size 3 to 8) (size 9 to 14) (size 15 to 20)
#    0.000    2.667    0.000    3.000    0.000    6.000 
#    0.000    0.000    0.000   18.000    0.000    0.000 
#    0.000    0.000    0.000    0.000    0.000    0.000 
#
# Total GULP energy -133659.491050 kJ/mol
# GULP energy per Si atom -5569.145460 kJ/mol
# Density = 2.058769 g / cm^3
# Si number density = 20.634655 Si / 1000 Ang^3
#
#
#
# Elastic Constant Matrix: (Units=GPa)
#
#
# Indices 1 2 3 4 5 6 
#
# 1 15.8031 4.4552 6.5168 -0.0023 4.5044 0.0126
# 2 4.4552 28.5183 58.8072 0.0014 -5.1667 0.0022
# 3 6.5168 58.8072 268.1863 -0.0027 -19.8458 0.0068
# 4 -0.0023 0.0014 -0.0027 29.1260 0.0034 -16.9965
# 5 4.5044 -5.1667 -19.8458 0.0034 17.9224 -0.0127
# 6 0.0126 0.0022 0.0068 -16.9965 -0.0127 1.9682
#
#
#
# Elastic Compliance Matrix: (Units=1/GPa)
#
#
# Indices 1 2 3 4 5 6 
#
# 1 0.074372 -0.015622 -0.000107 0.000086 -0.023313 0.000131
# 2 -0.015622 0.067455 -0.013814 -0.000016 0.008075 -0.000016
# 3 -0.000107 -0.013814 0.007045 -0.000003 0.003846 -0.000006
# 4 0.000086 -0.000016 -0.000003 -0.008500 -0.000079 -0.073401
# 5 -0.023313 0.008075 0.003846 -0.000079 0.068242 -0.000119
# 6 0.000131 -0.000016 -0.000006 -0.073401 -0.000119 -0.125783
#
#
# Mechanical properties :
#
#
# Convention : Reuss Voigt Hill
#
# Bulk Modulus (GPa) = 11.13761 50.22956 30.68358
# Shear Modulus (GPa) = 29.09605 25.98523 27.54064
#
# Velocity S-wave (km/s) = 3.75915 3.55251 3.65729
# Velocity P-wave (km/s) = 4.92451 6.42046 5.72159
#
# Compressibility (1/GPa) = 0.08978584
#
# Stress axis : x y z
#
# Youngs Moduli (GPa) = 13.44593 14.82480 141.94385
#
# Poissons Ratio (x) = 0.23159 0.01517
# Poissons Ratio (y) = 0.21005 1.96082
# Poissons Ratio (z) = 0.00144 0.20479
#
# Static dielectric constant tensor:
#      x y z
#    x 1.771600 -0.000010 -0.039750 
#    y -0.000010 1.693920 0.000000 
#    z -0.039750 0.000000 1.857350 
# 
# From -- ./inp_files/196267.got.cif
#   From: 2010.05.17/outbox.cif.g08.bks.cpg/sg15_99_cif.got.tgz:196267.got - 2010.06.03 18:47:42.
