data_PCOD9269172
_publ_section_title
;
Structure prediction by ZEFSAII (Michael W. Deem and Ramdas Pophale) SiO2 
 PCOD9269172
Probable space group: C 2/C
;
_chemical_formula_sum "Si O2"
_cell_formula_units_Z 36
_cell_length_a 6.937644
_cell_length_b 23.272520
_cell_length_c 10.332585
_cell_angle_alpha 90.000000
_cell_angle_beta 120.731285
_cell_angle_gamma 90.000000
_cell_volume 1433.994097
_symmetry_space_group_name_H-M "C 2/C"
_symmetry_group_IT_number 15
_symmetry_cell_setting 'monoclinic'
loop_
_space_group_symop_operation_xyz
x,y,z
-x,y,1/2-z
-x,-y,-z
x,-y,1/2+z
1/2+x,1/2+y,z
1/2-x,1/2+y,1/2-z
1/2-x,1/2-y,-z
1/2+x,1/2-y,1/2+z
loop_
_atom_site_type_symbol
_atom_site_label
_atom_site_fract_x
_atom_site_fract_y
_atom_site_fract_z
Si Si1 0.699243 0.828025 0.504137
Si Si2 0.631609 0.568774 0.930653
Si Si3 0.320259 0.953680 0.071206
Si Si4 0.500000 0.747477 0.250000
Si Si5 0.400113 0.694032 0.571409
O O1 0.645421 0.894716 0.495723
O O2 0.502709 0.791411 0.370578
O O3 0.791202 0.795879 0.662154
O O4 0.899681 0.815753 0.466408
O O5 0.500000 0.566931 0.750000
O O6 0.431678 0.557565 0.963035
O O7 0.725938 0.632580 0.983186
O O8 0.802422 0.516012 0.999626
O O9 0.500000 0.954262 0.250000
O O10 0.500000 0.696458 0.750000
O O11 0.250000 0.750000 0.500000
#
# Coordination Sequence:
#
# PCOD9269172 Si02
#       5
#     8   8   8   4   8
#     4  10  20  35  55  82 111 147 185 226 287 325
#     4   9  21  38  56  82 114 147 191 231 282 334
#     4  10  20  37  58  81 114 150 188 235 278 341
#     4  10  20  34  52  82 110 140 182 234 266 340
#     4  10  20  36  57  80 110 146 180 231 276 334
#
# _framework density 25.104706
#
# number of rings (size 3 to 8) (size 9 to 14) (size 15 to 20)
#    0.000    2.222    1.111    1.333    1.556    1.778 
#    0.000    2.222    0.000    0.000    0.000    0.000 
#    0.000    0.000    0.000    0.000    0.000    0.000 
#
# Total GULP energy -100599.900987 kJ/mol
# GULP energy per Si atom -5588.883388 kJ/mol
# Density = 2.504757 g / cm^3
# Si number density = 25.104706 Si / 1000 Ang^3
#
#
#
# Elastic Constant Matrix: (Units=GPa)
#
#
# Indices 1 2 3 4 5 6 
#
# 1 131.1630 37.4489 -3.8883 0.0000 5.4225 0.0000
# 2 37.4489 336.1478 88.3270 0.0000 27.2059 0.0000
# 3 -3.8883 88.3270 79.3366 0.0000 26.9154 0.0000
# 4 0.0000 0.0000 0.0000 32.4896 0.0000 4.2471
# 5 5.4225 27.2059 26.9154 0.0000 28.4365 0.0000
# 6 0.0000 0.0000 0.0000 4.2471 0.0000 33.3971
#
#
#
# Elastic Compliance Matrix: (Units=1/GPa)
#
#
# Indices 1 2 3 4 5 6 
#
# 1 0.008270 -0.001489 0.003115 0.000000 -0.003101 0.000000
# 2 -0.001489 0.004480 -0.005454 0.000000 0.001160 0.000000
# 3 0.003115 -0.005454 0.025425 0.000000 -0.019441 0.000000
# 4 0.000000 0.000000 0.000000 0.031299 0.000000 -0.003980
# 5 -0.003101 0.001160 -0.019441 0.000000 0.053048 0.000000
# 6 0.000000 0.000000 0.000000 -0.003980 0.000000 0.030449
#
#
# Mechanical properties :
#
#
# Convention : Reuss Voigt Hill
#
# Bulk Modulus (GPa) = 32.76773 87.82473 60.29623
# Shear Modulus (GPa) = 29.27399 47.18196 38.22798
#
# Velocity S-wave (km/s) = 3.41849 4.33992 3.90647
# Velocity P-wave (km/s) = 5.35371 7.75709 6.66463
#
# Compressibility (1/GPa) = 0.03051783
#
# Stress axis : x y z
#
# Youngs Moduli (GPa) = 120.92355 223.21361 39.33163
#
# Poissons Ratio (x) = 0.33231 -0.12251
# Poissons Ratio (y) = 0.18003 0.21453
# Poissons Ratio (z) = -0.37664 1.21747
#
# Static dielectric constant tensor:
#      x y z
#    x 2.454260 0.000000 -0.029690 
#    y 0.000000 1.980380 0.000000 
#    z -0.029690 0.000000 1.952640 
# 
# From -- ./inp_files/22505.got.cif
#   From: 2010.05.17/outbox.cif.g08.bks.cpg/sg15_12_cif.got.tgz:22505.got - 2010.06.03 18:47:42.
