data_PCOD9269071
_publ_section_title
;
Structure prediction by ZEFSAII (Michael W. Deem and Ramdas Pophale) SiO2 
 PCOD9269071
Probable space group: C 2/C
;
_chemical_formula_sum "Si O2"
_cell_formula_units_Z 56
_cell_length_a 20.659294
_cell_length_b 16.916001
_cell_length_c 18.299957
_cell_angle_alpha 90.000000
_cell_angle_beta 151.586979
_cell_angle_gamma 90.000000
_cell_volume 3043.054195
_symmetry_space_group_name_H-M "C 2/C"
_symmetry_group_IT_number 15
_symmetry_cell_setting 'monoclinic'
loop_
_space_group_symop_operation_xyz
x,y,z
-x,y,1/2-z
-x,-y,-z
x,-y,1/2+z
1/2+x,1/2+y,z
1/2-x,1/2+y,1/2-z
1/2-x,1/2-y,-z
1/2+x,1/2-y,1/2+z
loop_
_atom_site_type_symbol
_atom_site_label
_atom_site_fract_x
_atom_site_fract_y
_atom_site_fract_z
Si Si1 0.687817 0.335353 0.657925
Si Si2 0.807565 0.975193 0.116786
Si Si3 0.862105 0.795048 0.158596
Si Si4 0.986408 0.057298 0.417109
Si Si5 0.023183 0.300105 0.592857
Si Si6 0.783324 0.013321 0.422516
Si Si7 0.017619 0.448627 0.851186
O O1 0.602674 0.371260 0.640982
O O2 0.848174 0.319291 0.832372
O O3 0.600827 0.257319 0.551352
O O4 0.686337 0.403382 0.591169
O O5 0.907539 0.016815 0.271868
O O6 0.813441 0.881091 0.133645
O O7 0.833179 0.984382 0.055870
O O8 0.653190 0.999900 0.981783
O O9 0.896946 0.743976 0.263066
O O10 0.000000 0.804329 0.250000
O O11 0.750000 0.750000 0.000000
O O12 0.000000 0.000000 0.500000
O O13 0.141660 0.059096 0.542981
O O14 0.968728 0.380182 0.575326
O O15 0.621081 0.007229 0.266355
O O16 0.000000 0.415540 0.750000
#
# Coordination Sequence:
#
# PCOD9269071 Si02
#       7
#     8   8   8   8   8   8   8
#     4  10  21  34  49  71 101 132 168 205 244 292
#     4  11  19  31  51  74  99 134 168 201 246 297
#     4  12  20  27  44  73 103 132 163 196 240 296
#     4  10  20  34  47  68 101 135 171 206 237 291
#     4  11  19  31  45  65  98 134 162 199 242 287
#     4   9  18  33  51  73 100 126 160 203 245 298
#     4   9  18  30  48  76 104 125 155 198 245 299
#
# _framework density 18.402564000000002
#
# number of rings (size 3 to 8) (size 9 to 14) (size 15 to 20)
#    0.000    1.714    0.000    9.429    0.000    0.000 
#    0.000    8.571    0.000    0.000    0.000    4.000 
#    0.000    0.000    0.000    0.000    0.000    0.000 
#
# Total GULP energy -156066.658132 kJ/mol
# GULP energy per Si atom -5573.809219 kJ/mol
# Density = 1.836068 g / cm^3
# Si number density = 18.402564 Si / 1000 Ang^3
#
#
#
# Elastic Constant Matrix: (Units=GPa)
#
#
# Indices 1 2 3 4 5 6 
#
# 1 107.9298 21.5041 36.3666 0.0000 38.1573 0.0002
# 2 21.5041 13.1015 7.1329 -0.0001 11.4787 0.0000
# 3 36.3666 7.1329 63.8789 0.0001 23.5648 0.0004
# 4 0.0000 -0.0001 0.0001 12.5542 0.0000 3.8365
# 5 38.1573 11.4787 23.5648 0.0000 37.4547 0.0002
# 6 0.0002 0.0000 0.0004 3.8365 0.0002 24.8965
#
#
#
# Elastic Compliance Matrix: (Units=1/GPa)
#
#
# Indices 1 2 3 4 5 6 
#
# 1 0.017904 -0.018369 -0.004544 0.000000 -0.009751 0.000000
# 2 -0.018369 0.123192 0.004852 0.000001 -0.022094 0.000000
# 3 -0.004544 0.004852 0.021540 0.000000 -0.010409 0.000000
# 4 0.000000 0.000001 0.000000 0.083591 0.000000 -0.012881
# 5 -0.009751 -0.022094 -0.010409 0.000000 0.049953 0.000000
# 6 0.000000 0.000000 0.000000 -0.012881 0.000000 0.042151
#
#
# Mechanical properties :
#
#
# Convention : Reuss Voigt Hill
#
# Bulk Modulus (GPa) = 7.90431 34.99080 21.44756
# Shear Modulus (GPa) = 12.00119 22.97484 17.48802
#
# Velocity S-wave (km/s) = 2.55649 3.53719 3.08604
# Velocity P-wave (km/s) = 3.60815 5.97810 4.93743
#
# Compressibility (1/GPa) = 0.12651328
#
# Stress axis : x y z
#
# Youngs Moduli (GPa) = 55.85464 8.11738 46.42530
#
# Poissons Ratio (x) = 0.14911 0.21098
# Poissons Ratio (y) = 1.02598 -0.22525
# Poissons Ratio (z) = 0.25383 -0.03938
#
# Static dielectric constant tensor:
#      x y z
#    x 1.627580 0.000000 -0.018300 
#    y 0.000000 1.660860 0.000000 
#    z -0.018300 0.000000 1.611440 
# 
# From -- ./inp_files/215771.got.cif
#   From: 2010.05.17/outbox.cif.g08.bks.cpg/sg15_108_cif.got.tgz:215771.got - 2010.06.03 18:47:42.
