data_PCOD9269021
_publ_section_title
;
Structure prediction by ZEFSAII (Michael W. Deem and Ramdas Pophale) SiO2 
 PCOD9269021
Probable space group: C 2/C
;
_chemical_formula_sum "Si O2"
_cell_formula_units_Z 48
_cell_length_a 24.976369
_cell_length_b 16.124117
_cell_length_c 11.678725
_cell_angle_alpha 90.000000
_cell_angle_beta 149.978977
_cell_angle_gamma 90.000000
_cell_volume 2353.133505
_symmetry_space_group_name_H-M "C 2/C"
_symmetry_group_IT_number 15
_symmetry_cell_setting 'monoclinic'
loop_
_space_group_symop_operation_xyz
x,y,z
-x,y,1/2-z
-x,-y,-z
x,-y,1/2+z
1/2+x,1/2+y,z
1/2-x,1/2+y,1/2-z
1/2-x,1/2-y,-z
1/2+x,1/2-y,1/2+z
loop_
_atom_site_type_symbol
_atom_site_label
_atom_site_fract_x
_atom_site_fract_y
_atom_site_fract_z
Si Si1 0.951389 0.784267 0.283880
Si Si2 0.264521 0.851042 0.698992
Si Si3 0.319207 0.011871 0.680899
Si Si4 0.029209 0.413980 0.681590
Si Si5 0.782515 0.331392 0.992093
Si Si6 0.990306 0.744829 0.603114
O O1 0.961734 0.684635 0.297546
O O2 0.996186 0.800147 0.496981
O O3 0.000000 0.814363 0.250000
O O4 0.828991 0.813823 0.051894
O O5 0.274682 0.949141 0.692795
O O6 0.236817 0.834292 0.780063
O O7 0.378267 0.805433 0.888697
O O8 0.251002 0.086670 0.503754
O O9 0.360322 0.951296 0.657316
O O10 0.427153 0.057222 0.921243
O O11 0.000000 0.448987 0.750000
O O12 0.911093 0.320156 0.215882
O O13 0.750000 0.250000 0.000000
O O14 0.000000 0.784090 0.750000
#
# Coordination Sequence:
#
# PCOD9269021 Si02
#       6
#     8   8   8   8   8   8
#     4  11  21  38  63  95 127 170 214 262 322 397
#     4  11  23  37  65  95 129 165 215 271 329 384
#     4  11  20  37  57  91 126 161 210 267 323 381
#     4  10  20  33  60  91 125 156 207 262 328 374
#     4  11  23  40  60  89 133 173 214 262 332 392
#     4  10  20  38  60  91 129 166 208 267 321 387
#
# _framework density 20.398333000000001
#
# number of rings (size 3 to 8) (size 9 to 14) (size 15 to 20)
#    0.000    1.333    3.333    3.500    2.333    1.333 
#    0.000    0.000    0.000    7.000    0.000    0.000 
#    0.000    0.000    0.000    0.000    0.000    0.000 
#
# Total GULP energy -133713.314438 kJ/mol
# GULP energy per Si atom -5571.388102 kJ/mol
# Density = 2.035191 g / cm^3
# Si number density = 20.398333 Si / 1000 Ang^3
#
#
#
# Elastic Constant Matrix: (Units=GPa)
#
#
# Indices 1 2 3 4 5 6 
#
# 1 118.6554 28.7873 15.7558 0.0000 -35.1026 0.0000
# 2 28.7873 31.7395 13.0743 0.0000 -4.9290 0.0000
# 3 15.7558 13.0743 88.1496 0.0000 -14.9217 0.0000
# 4 0.0000 0.0000 0.0000 40.5026 0.0000 25.4232
# 5 -35.1026 -4.9290 -14.9217 0.0000 37.9456 0.0000
# 6 0.0000 0.0000 0.0000 25.4232 0.0000 57.7573
#
#
#
# Elastic Compliance Matrix: (Units=1/GPa)
#
#
# Indices 1 2 3 4 5 6 
#
# 1 0.014986 -0.012135 0.001287 0.000000 0.012792 0.000000
# 2 -0.012135 0.043620 -0.005616 0.000000 -0.007768 0.000000
# 3 0.001287 -0.005616 0.012883 0.000000 0.005527 0.000000
# 4 0.000000 0.000000 0.000000 0.034116 0.000000 -0.015017
# 5 0.012792 -0.007768 0.005527 0.000000 0.039352 0.000000
# 6 0.000000 0.000000 0.000000 -0.015017 0.000000 0.023924
#
#
# Mechanical properties :
#
#
# Convention : Reuss Voigt Hill
#
# Bulk Modulus (GPa) = 25.93341 39.30882 32.62111
# Shear Modulus (GPa) = 23.29259 39.30293 31.29776
#
# Velocity S-wave (km/s) = 3.38285 4.39426 3.92130
# Velocity P-wave (km/s) = 5.29144 6.71256 6.04391
#
# Compressibility (1/GPa) = 0.03856029
#
# Stress axis : x y z
#
# Youngs Moduli (GPa) = 66.73117 22.92543 77.62271
#
# Poissons Ratio (x) = 0.27820 -0.09989
# Poissons Ratio (y) = 0.80979 0.43590
# Poissons Ratio (z) = -0.08587 0.12874
#
# Static dielectric constant tensor:
#      x y z
#    x 1.850280 0.000000 -0.020850 
#    y 0.000000 1.713520 0.000000 
#    z -0.020850 0.000000 1.776800 
# 
# From -- ./inp_files/119374.got.cif
#   From: 2010.05.17/outbox.cif.g08.bks.cpg/sg15_60_cif.got.tgz:119374.got - 2010.06.03 18:47:42.
