data_PCOD9269143
_publ_section_title
;
Structure prediction by ZEFSAII (Michael W. Deem and Ramdas Pophale) SiO2 
 PCOD9269143
Probable space group: C 2/C
;
_chemical_formula_sum "Si O2"
_cell_formula_units_Z 40
_cell_length_a 7.347065
_cell_length_b 26.721089
_cell_length_c 10.110381
_cell_angle_alpha 90.000000
_cell_angle_beta 133.240985
_cell_angle_gamma 90.000000
_cell_volume 1445.947272
_symmetry_space_group_name_H-M "C 2/C"
_symmetry_group_IT_number 15
_symmetry_cell_setting 'monoclinic'
loop_
_space_group_symop_operation_xyz
x,y,z
-x,y,1/2-z
-x,-y,-z
x,-y,1/2+z
1/2+x,1/2+y,z
1/2-x,1/2+y,1/2-z
1/2-x,1/2-y,-z
1/2+x,1/2-y,1/2+z
loop_
_atom_site_type_symbol
_atom_site_label
_atom_site_fract_x
_atom_site_fract_y
_atom_site_fract_z
Si Si1 0.588131 0.269677 0.039434
Si Si2 0.756550 0.081517 0.726124
Si Si3 0.170765 0.978350 0.704069
Si Si4 0.447154 0.625399 0.379754
Si Si5 0.798433 0.681841 0.882954
O O1 0.416465 0.318048 0.917938
O O2 0.450889 0.222365 0.039262
O O3 0.750000 0.250000 0.000000
O O4 0.791337 0.290837 0.240403
O O5 0.600632 0.125933 0.580275
O O6 0.000000 0.075589 0.750000
O O7 0.646206 0.025793 0.682141
O O8 0.839666 0.103323 0.911467
O O9 0.000000 0.972333 0.750000
O O10 0.245006 0.921663 0.705004
O O11 0.000000 0.000000 0.500000
O O12 0.500000 0.631858 0.250000
O O13 0.500000 0.677107 0.750000
#
# Coordination Sequence:
#
# PCOD9269143 Si02
#       5
#     8   8   8   8   8
#     4  11  21  34  51  76 108 139 173 214 260 311
#     4   8  15  27  44  67  93 123 163 207 250 296
#     4   8  13  23  40  64  90 119 159 202 245 295
#     4   9  16  26  43  68  95 126 163 202 249 299
#     4  10  20  34  52  75 102 137 176 215 259 309
#
# _framework density 27.663525
#
# number of rings (size 3 to 8) (size 9 to 14) (size 15 to 20)
#    0.000    2.800    0.000    2.400    0.000    0.000 
#    0.000    0.000    0.000    0.000    0.000   49.000 
#    0.000    0.000    0.000    0.000    0.000    0.000 
#
# Total GULP energy -111441.216830 kJ/mol
# GULP energy per Si atom -5572.060841 kJ/mol
# Density = 2.760056 g / cm^3
# Si number density = 27.663525 Si / 1000 Ang^3
#
#
#
# Elastic Constant Matrix: (Units=GPa)
#
#
# Indices 1 2 3 4 5 6 
#
# 1 92.0419 -5.2101 31.1332 0.0000 -12.1612 0.0000
# 2 -5.2101 289.2368 41.5450 0.0000 45.0681 0.0000
# 3 31.1332 41.5450 105.7900 0.0000 -14.1997 0.0000
# 4 0.0000 0.0000 0.0000 -0.8094 0.0000 -41.7584
# 5 -12.1612 45.0681 -14.1997 0.0000 34.1103 0.0000
# 6 0.0000 0.0000 0.0000 -41.7584 0.0000 -2.2305
#
#
#
# Elastic Compliance Matrix: (Units=1/GPa)
#
#
# Indices 1 2 3 4 5 6 
#
# 1 0.012380 0.000313 -0.003420 0.000000 0.002577 0.000000
# 2 0.000313 0.005182 -0.003210 0.000000 -0.008071 0.000000
# 3 -0.003420 -0.003210 0.012843 0.000000 0.008369 0.000000
# 4 0.000000 0.000000 0.000000 0.001280 0.000000 -0.023972
# 5 0.002577 -0.008071 0.008369 0.000000 0.044383 0.000000
# 6 0.000000 0.000000 0.000000 -0.023972 0.000000 0.000465
#
#
# Mechanical properties :
#
#
# Convention : Reuss Voigt Hill
#
# Bulk Modulus (GPa) = 56.27751 69.11168 62.69460
# Shear Modulus (GPa) = 52.58072 34.18745 43.38409
#
# Velocity S-wave (km/s) = 4.36446 3.51925 3.96444
# Velocity P-wave (km/s) = 6.76652 6.44598 6.60819
#
# Compressibility (1/GPa) = 0.01776909
#
# Stress axis : x y z
#
# Youngs Moduli (GPa) = 80.77773 192.98333 77.86154
#
# Poissons Ratio (x) = -0.06036 0.26631
# Poissons Ratio (y) = -0.02527 0.24997
# Poissons Ratio (z) = 0.27628 0.61955
#
# Static dielectric constant tensor:
#      x y z
#    x 1.995160 0.000000 -0.262310 
#    y 0.000000 2.455220 0.000000 
#    z -0.262310 0.000000 1.808500 
# 
# From -- ./inp_files/24414.got.cif
#   From: 2010.05.17/outbox.cif.g08.bks.cpg/sg15_13_cif.got.tgz:24414.got - 2010.06.03 18:47:42.
