data_PCOD9269512
_publ_section_title
;
Structure prediction by ZEFSAII (Michael W. Deem and Ramdas Pophale) SiO2 
 PCOD9269512
Probable space group: C 2/C
;
_chemical_formula_sum "Si O2"
_cell_formula_units_Z 40
_cell_length_a 29.274082
_cell_length_b 7.277211
_cell_length_c 18.868247
_cell_angle_alpha 90.000000
_cell_angle_beta 22.054020
_cell_angle_gamma 90.000000
_cell_volume 1509.271284
_symmetry_space_group_name_H-M "C 2/C"
_symmetry_group_IT_number 15
_symmetry_cell_setting 'monoclinic'
loop_
_space_group_symop_operation_xyz
x,y,z
-x,y,1/2-z
-x,-y,-z
x,-y,1/2+z
1/2+x,1/2+y,z
1/2-x,1/2+y,1/2-z
1/2-x,1/2-y,-z
1/2+x,1/2-y,1/2+z
loop_
_atom_site_type_symbol
_atom_site_label
_atom_site_fract_x
_atom_site_fract_y
_atom_site_fract_z
Si Si1 0.866928 0.618976 0.930439
Si Si2 0.465709 0.731548 0.725436
Si Si3 0.827475 0.369050 0.266466
Si Si4 0.777168 0.598881 0.682323
Si Si5 0.921448 0.767672 0.141758
O O1 0.891687 0.418159 0.857741
O O2 0.000000 0.698076 0.750000
O O3 0.770424 0.768143 0.044438
O O4 0.815228 0.580527 0.083748
O O5 0.500000 0.633771 0.750000
O O6 0.598587 0.785679 0.504671
O O7 0.406797 0.639603 0.740583
O O8 0.764430 0.432599 0.283433
O O9 0.886677 0.556010 0.209983
O O10 0.941874 0.236360 0.084943
O O11 0.665622 0.669416 0.796000
#
# Coordination Sequence:
#
# PCOD9269512 Si02
#       5
#     8   8   8   8   8
#     4   9  19  36  56  78 113 150 181 229 283 326
#     4   8  18  35  55  78 111 147 184 226 275 328
#     4  10  20  35  56  84 115 147 188 233 279 333
#     4   9  18  35  58  81 111 148 188 230 275 331
#     4  10  20  34  57  85 112 148 188 229 280 333
#
# _framework density 26.502856999999999
#
# number of rings (size 3 to 8) (size 9 to 14) (size 15 to 20)
#    0.000    3.200    0.000    1.200    0.000    8.000 
#    0.000    4.000    0.000    0.000    0.000    0.000 
#    0.000    0.000    0.000    0.000    0.000    0.000 
#
# Total GULP energy -111596.704858 kJ/mol
# GULP energy per Si atom -5579.835243 kJ/mol
# Density = 2.644254 g / cm^3
# Si number density = 26.502857 Si / 1000 Ang^3
#
#
#
# Elastic Constant Matrix: (Units=GPa)
#
#
# Indices 1 2 3 4 5 6 
#
# 1 198.6183 13.3882 32.7800 -0.0007 4.3796 0.0003
# 2 13.3882 55.8866 48.6824 -0.0033 -0.4418 0.0014
# 3 32.7800 48.6824 142.9005 -0.0019 -27.7138 0.0000
# 4 -0.0007 -0.0033 -0.0019 29.5329 -0.0001 -14.6562
# 5 4.3796 -0.4418 -27.7138 -0.0001 20.4159 0.0001
# 6 0.0003 0.0014 0.0000 -14.6562 0.0001 4.7288
#
#
#
# Elastic Compliance Matrix: (Units=1/GPa)
#
#
# Indices 1 2 3 4 5 6 
#
# 1 0.005467 0.000678 -0.002320 0.000000 -0.004308 0.000001
# 2 0.000678 0.029568 -0.013753 0.000003 -0.018175 0.000002
# 3 -0.002320 -0.013753 0.016633 -0.000003 0.022779 -0.000004
# 4 0.000000 0.000003 -0.000003 -0.062925 -0.000003 -0.195028
# 5 -0.004308 -0.018175 0.022779 -0.000003 0.080434 -0.000006
# 6 0.000001 0.000002 -0.000004 -0.195028 -0.000006 -0.392992
#
#
# Mechanical properties :
#
#
# Convention : Reuss Voigt Hill
#
# Bulk Modulus (GPa) = 47.90203 65.23406 56.56804
# Shear Modulus (GPa) = -17.47852 31.10585 6.81366
#
# Velocity S-wave (km/s) = -2.57085 3.42962 1.60515
# Velocity P-wave (km/s) = 3.04978 6.35220 4.98255
#
# Compressibility (1/GPa) = 0.02087594
#
# Stress axis : x y z
#
# Youngs Moduli (GPa) = 182.91377 33.82086 60.12100
#
# Poissons Ratio (x) = -0.02291 0.13950
# Poissons Ratio (y) = -0.12392 0.82685
# Poissons Ratio (z) = 0.42443 0.46514
#
# Static dielectric constant tensor:
#      x y z
#    x 2.115710 0.000000 -0.040360 
#    y 0.000000 2.207530 0.000000 
#    z -0.040360 0.000000 2.046740 
# 
# From -- ./inp_files/258926.got.cif
#   From: 2010.05.17/outbox.cif.g08.bks.cpg/sg15_130_cif.got.tgz:258926.got - 2010.06.03 18:47:42.
