data_PCOD9269691
_publ_section_title
;
Structure prediction by ZEFSAII (Michael W. Deem and Ramdas Pophale) SiO2 
 PCOD9269691
Probable space group: C 2/C
;
_chemical_formula_sum "Si O2"
_cell_formula_units_Z 36
_cell_length_a 8.320391
_cell_length_b 11.454758
_cell_length_c 18.083243
_cell_angle_alpha 90.000000
_cell_angle_beta 118.028224
_cell_angle_gamma 90.000000
_cell_volume 1521.342791
_symmetry_space_group_name_H-M "C 2/C"
_symmetry_group_IT_number 15
_symmetry_cell_setting 'monoclinic'
loop_
_space_group_symop_operation_xyz
x,y,z
-x,y,1/2-z
-x,-y,-z
x,-y,1/2+z
1/2+x,1/2+y,z
1/2-x,1/2+y,1/2-z
1/2-x,1/2-y,-z
1/2+x,1/2-y,1/2+z
loop_
_atom_site_type_symbol
_atom_site_label
_atom_site_fract_x
_atom_site_fract_y
_atom_site_fract_z
Si Si1 0.637621 0.142283 0.010539
Si Si2 0.239545 0.005613 0.587621
Si Si3 0.233364 0.254529 0.085486
Si Si4 0.625900 0.279282 0.150677
Si Si5 0.500000 0.121568 0.750000
O O1 0.725404 0.029486 0.991413
O O2 0.432206 0.159077 0.936599
O O3 0.750000 0.250000 0.000000
O O4 0.639615 0.167632 0.098505
O O5 0.111250 0.106198 0.593841
O O6 0.427777 0.038996 0.669442
O O7 0.181399 0.877110 0.596606
O O8 0.439606 0.276644 0.155469
O O9 0.250000 0.250000 0.000000
O O10 0.821934 0.300652 0.231015
#
# Coordination Sequence:
#
# PCOD9269691 Si02
#       5
#     8   8   8   8   4
#     4   9  18  34  58  83 104 142 182 230 269 314
#     4   9  19  38  54  77 115 140 182 222 279 314
#     4  10  20  34  59  86 104 140 185 229 272 322
#     4   8  18  35  56  77 112 141 181 223 269 327
#     4   8  18  38  54  72 116 152 170 226 276 328
#
# _framework density 23.663307
#
# number of rings (size 3 to 8) (size 9 to 14) (size 15 to 20)
#    1.333    1.778    0.000    0.000    0.000   11.556 
#    4.000    2.222    4.889    0.000    0.000    0.000 
#    0.000    0.000    0.000    0.000    0.000    0.000 
#
# Total GULP energy -100272.162786 kJ/mol
# GULP energy per Si atom -5570.675710 kJ/mol
# Density = 2.360945 g / cm^3
# Si number density = 23.663307 Si / 1000 Ang^3
#
#
#
# Elastic Constant Matrix: (Units=GPa)
#
#
# Indices 1 2 3 4 5 6 
#
# 1 63.8058 4.3225 16.3497 0.0000 28.9416 0.0000
# 2 4.3225 67.7919 -9.3113 0.0000 -1.9711 0.0000
# 3 16.3497 -9.3113 97.5681 0.0000 25.9005 0.0000
# 4 0.0000 0.0000 0.0000 20.7380 0.0000 0.5542
# 5 28.9416 -1.9711 25.9005 0.0000 43.5198 0.0000
# 6 0.0000 0.0000 0.0000 0.5542 0.0000 27.0692
#
#
#
# Elastic Compliance Matrix: (Units=1/GPa)
#
#
# Indices 1 2 3 4 5 6 
#
# 1 0.022681 -0.001881 0.000055 0.000000 -0.015201 0.000000
# 2 -0.001881 0.015104 0.001476 0.000000 0.001056 0.000000
# 3 0.000055 0.001476 0.012319 0.000000 -0.007302 0.000000
# 4 0.000000 0.000000 0.000000 0.048247 0.000000 -0.000988
# 5 -0.015201 0.001056 -0.007302 0.000000 0.037481 0.000000
# 6 0.000000 0.000000 0.000000 -0.000988 0.000000 0.036963
#
#
# Mechanical properties :
#
#
# Convention : Reuss Voigt Hill
#
# Bulk Modulus (GPa) = 20.24038 27.98754 24.11396
# Shear Modulus (GPa) = 26.32109 32.78573 29.55341
#
# Velocity S-wave (km/s) = 3.33876 3.72628 3.53783
# Velocity P-wave (km/s) = 4.84099 5.51059 5.18661
#
# Compressibility (1/GPa) = 0.04940619
#
# Stress axis : x y z
#
# Youngs Moduli (GPa) = 44.08980 66.20587 81.17448
#
# Poissons Ratio (x) = 0.12451 -0.00448
# Poissons Ratio (y) = 0.08291 -0.11983
# Poissons Ratio (z) = -0.00243 -0.09773
#
# Static dielectric constant tensor:
#      x y z
#    x 1.935920 0.000000 0.015600 
#    y 0.000000 1.886920 0.000000 
#    z 0.015600 0.000000 1.982060 
# 
# From -- ./inp_files/229625.got.cif
#   From: 2010.05.17/outbox.cif.g08.bks.cpg/sg15_115_cif.got.tgz:229625.got - 2010.06.03 18:47:42.
