data_PCOD9269997
_publ_section_title
;
Structure prediction by ZEFSAII (Michael W. Deem and Ramdas Pophale) SiO2 
 PCOD9269997
Probable space group: C 2/C
;
_chemical_formula_sum "Si O2"
_cell_formula_units_Z 44
_cell_length_a 26.720011
_cell_length_b 8.045885
_cell_length_c 27.914160
_cell_angle_alpha 90.000000
_cell_angle_beta 160.580579
_cell_angle_gamma 90.000000
_cell_volume 1995.269777
_symmetry_space_group_name_H-M "C 2/C"
_symmetry_group_IT_number 15
_symmetry_cell_setting 'monoclinic'
loop_
_space_group_symop_operation_xyz
x,y,z
-x,y,1/2-z
-x,-y,-z
x,-y,1/2+z
1/2+x,1/2+y,z
1/2-x,1/2+y,1/2-z
1/2-x,1/2-y,-z
1/2+x,1/2-y,1/2+z
loop_
_atom_site_type_symbol
_atom_site_label
_atom_site_fract_x
_atom_site_fract_y
_atom_site_fract_z
Si Si1 0.908198 0.534226 0.986934
Si Si2 0.199755 0.084839 0.594475
Si Si3 0.307980 0.224410 0.244743
Si Si4 0.810082 0.344562 0.992413
Si Si5 0.000000 0.219421 0.250000
Si Si6 0.603653 0.276398 0.650251
O O1 0.017983 0.693294 0.087958
O O2 0.005312 0.390104 0.049283
O O3 0.753565 0.594839 0.824082
O O4 0.872101 0.463924 0.007103
O O5 0.201104 0.162307 0.542918
O O6 0.298063 0.213017 0.715932
O O7 0.027877 0.094980 0.456898
O O8 0.268618 0.905931 0.666982
O O9 0.211287 0.174971 0.204181
O O10 0.640990 0.383871 0.856552
O O11 0.924092 0.328007 0.139386
#
# Coordination Sequence:
#
# PCOD9269997 Si02
#       6
#     8   8   8   8   4   8
#     4  10  23  37  55  82 120 151 196 235 277 332
#     4  10  21  35  56  83 118 146 191 234 274 329
#     4  11  21  35  55  82 117 160 189 227 272 326
#     4  10  21  40  62  91 109 144 186 243 293 344
#     4  10  20  38  70  86 108 138 192 238 296 360
#     4  10  20  35  53  82 117 159 196 225 260 324
#
# _framework density 22.052156
#
# number of rings (size 3 to 8) (size 9 to 14) (size 15 to 20)
#    0.000    1.818    0.000    5.455    0.000   10.182 
#    0.000    0.000    0.000   18.545    0.000    0.000 
#    0.000    0.000    0.000    0.000    0.000    0.000 
#
# Total GULP energy -122995.392031 kJ/mol
# GULP energy per Si atom -5590.699638 kJ/mol
# Density = 2.200196 g / cm^3
# Si number density = 22.052156 Si / 1000 Ang^3
#
#
#
# Elastic Constant Matrix: (Units=GPa)
#
#
# Indices 1 2 3 4 5 6 
#
# 1 95.7075 5.6629 29.2648 0.0001 8.2707 0.0000
# 2 5.6629 51.3148 18.9330 -0.0013 0.7943 -0.0004
# 3 29.2648 18.9330 138.3047 -0.0024 8.1604 -0.0012
# 4 0.0001 -0.0013 -0.0024 41.6236 -0.0001 8.7757
# 5 8.2707 0.7943 8.1604 -0.0001 45.3090 0.0001
# 6 0.0000 -0.0004 -0.0012 8.7757 0.0001 15.1551
#
#
#
# Elastic Compliance Matrix: (Units=1/GPa)
#
#
# Indices 1 2 3 4 5 6 
#
# 1 0.011299 -0.000395 -0.002239 0.000000 -0.001652 0.000000
# 2 -0.000395 0.020539 -0.002740 0.000000 0.000206 0.000000
# 3 -0.002239 -0.002740 0.008139 0.000000 -0.001009 0.000000
# 4 0.000000 0.000000 0.000000 0.027366 0.000000 -0.015846
# 5 -0.001652 0.000206 -0.001009 0.000000 0.022550 0.000000
# 6 0.000000 0.000000 0.000000 -0.015846 0.000000 0.075160
#
#
# Mechanical properties :
#
#
# Convention : Reuss Voigt Hill
#
# Bulk Modulus (GPa) = 34.21381 43.67205 38.94293
# Shear Modulus (GPa) = 26.94756 35.84864 31.39810
#
# Velocity S-wave (km/s) = 3.49949 4.03628 3.77744
# Velocity P-wave (km/s) = 5.64599 6.44741 6.05996
#
# Compressibility (1/GPa) = 0.02922797
#
# Stress axis : x y z
#
# Youngs Moduli (GPa) = 88.50023 48.68792 122.86674
#
# Poissons Ratio (x) = 0.01924 0.27514
# Poissons Ratio (y) = 0.03497 0.33668
# Poissons Ratio (z) = 0.19818 0.13341
#
# Static dielectric constant tensor:
#      x y z
#    x 1.794670 0.000000 -0.005640 
#    y 0.000000 1.852040 0.000000 
#    z -0.005640 0.000000 1.843030 
# 
# From -- ./inp_files/68348.got.cif
#   From: 2010.05.17/outbox.cif.g08.bks.cpg/sg15_35_cif.got.tgz:68348.got - 2010.06.03 18:47:42.
