data_PCOD9269424
_publ_section_title
;
Structure prediction by ZEFSAII (Michael W. Deem and Ramdas Pophale) SiO2 
 PCOD9269424
Probable space group: C 2/C
;
_chemical_formula_sum "Si O2"
_cell_formula_units_Z 40
_cell_length_a 5.242048
_cell_length_b 17.957851
_cell_length_c 18.085497
_cell_angle_alpha 90.000000
_cell_angle_beta 74.707554
_cell_angle_gamma 90.000000
_cell_volume 1642.213246
_symmetry_space_group_name_H-M "C 2/C"
_symmetry_group_IT_number 15
_symmetry_cell_setting 'monoclinic'
loop_
_space_group_symop_operation_xyz
x,y,z
-x,y,1/2-z
-x,-y,-z
x,-y,1/2+z
1/2+x,1/2+y,z
1/2-x,1/2+y,1/2-z
1/2-x,1/2-y,-z
1/2+x,1/2-y,1/2+z
loop_
_atom_site_type_symbol
_atom_site_label
_atom_site_fract_x
_atom_site_fract_y
_atom_site_fract_z
Si Si1 0.470514 0.214877 0.665763
Si Si2 0.217515 0.911131 0.985565
Si Si3 0.945628 0.222306 0.920219
Si Si4 0.730049 0.440058 0.571439
Si Si5 0.200777 0.451355 0.297814
O O1 0.500000 0.234495 0.750000
O O2 0.207267 0.241311 0.643785
O O3 0.440078 0.124692 0.664864
O O4 0.743846 0.238510 0.605960
O O5 0.520221 0.886480 0.954845
O O6 0.049242 0.902680 0.924033
O O7 0.071458 0.866928 0.061540
O O8 0.243241 0.997804 0.005304
O O9 0.750000 0.250000 0.000000
O O10 0.761186 0.485611 0.643773
O O11 0.500000 0.431445 0.250000
O O12 0.000000 0.479649 0.250000
#
# Coordination Sequence:
#
# PCOD9269424 Si02
#       5
#     8   8   8   8   8
#     4  11  23  39  62  91 123 156 202 260 319 361
#     4  10  21  34  56  84 116 154 188 235 302 347
#     4  12  24  41  63  91 124 159 212 263 299 362
#     4  10  20  34  56  83 121 150 185 238 292 372
#     4  11  21  34  58  89 123 159 194 249 311 373
#
# _framework density 24.357372000000002
#
# number of rings (size 3 to 8) (size 9 to 14) (size 15 to 20)
#    0.000    1.200    2.000    6.000    5.600    0.000 
#    0.000    0.000    0.000   12.000    0.000    0.000 
#    0.000    0.000    0.000    0.000    0.000    0.000 
#
# Total GULP energy -111739.832366 kJ/mol
# GULP energy per Si atom -5586.991618 kJ/mol
# Density = 2.430193 g / cm^3
# Si number density = 24.357372 Si / 1000 Ang^3
#
#
#
# Elastic Constant Matrix: (Units=GPa)
#
#
# Indices 1 2 3 4 5 6 
#
# 1 223.6644 18.9626 48.6220 0.0000 9.7152 0.0000
# 2 18.9626 41.3539 10.0991 0.0000 -13.3479 0.0000
# 3 48.6220 10.0991 72.1772 0.0000 6.8046 0.0000
# 4 0.0000 0.0000 0.0000 23.1329 0.0000 -8.5919
# 5 9.7152 -13.3479 6.8046 0.0000 57.7723 0.0000
# 6 0.0000 0.0000 0.0000 -8.5919 0.0000 16.8022
#
#
#
# Elastic Compliance Matrix: (Units=1/GPa)
#
#
# Indices 1 2 3 4 5 6 
#
# 1 0.005391 -0.001993 -0.003260 0.000000 -0.000983 0.000000
# 2 -0.001993 0.028239 -0.003292 0.000000 0.007247 0.000000
# 3 -0.003260 -0.003292 0.016717 0.000000 -0.002181 0.000000
# 4 0.000000 0.000000 0.000000 0.053364 0.000000 0.027288
# 5 -0.000983 0.007247 -0.002181 0.000000 0.019406 0.000000
# 6 0.000000 0.000000 0.000000 0.027288 0.000000 0.073470
#
#
# Mechanical properties :
#
#
# Convention : Reuss Voigt Hill
#
# Bulk Modulus (GPa) = 30.06902 54.72919 42.39911
# Shear Modulus (GPa) = 22.24565 36.84227 29.54396
#
# Velocity S-wave (km/s) = 3.02537 3.89340 3.48650
# Velocity P-wave (km/s) = 4.95737 6.53678 5.80108
#
# Compressibility (1/GPa) = 0.03325682
#
# Stress axis : x y z
#
# Youngs Moduli (GPa) = 185.47893 35.41248 59.81826
#
# Poissons Ratio (x) = 0.07059 0.19503
# Poissons Ratio (y) = 0.36973 0.19690
# Poissons Ratio (z) = 0.60472 0.11656
#
# Static dielectric constant tensor:
#      x y z
#    x 1.998110 0.000000 0.018360 
#    y 0.000000 2.026520 0.000000 
#    z 0.018360 0.000000 1.956520 
# 
# From -- ./inp_files/227122.got.cif
#   From: 2010.05.17/outbox.cif.g08.bks.cpg/sg15_114_cif.got.tgz:227122.got - 2010.06.03 18:47:42.
