data_PCOD9269471
_publ_section_title
;
Structure prediction by ZEFSAII (Michael W. Deem and Ramdas Pophale) SiO2 
 PCOD9269471
Probable space group: C 2/C
;
_chemical_formula_sum "Si O2"
_cell_formula_units_Z 56
_cell_length_a 25.545307
_cell_length_b 16.538773
_cell_length_c 8.170424
_cell_angle_alpha 90.000000
_cell_angle_beta 44.661851
_cell_angle_gamma 90.000000
_cell_volume 2426.418439
_symmetry_space_group_name_H-M "C 2/C"
_symmetry_group_IT_number 15
_symmetry_cell_setting 'monoclinic'
loop_
_space_group_symop_operation_xyz
x,y,z
-x,y,1/2-z
-x,-y,-z
x,-y,1/2+z
1/2+x,1/2+y,z
1/2-x,1/2+y,1/2-z
1/2-x,1/2-y,-z
1/2+x,1/2-y,1/2+z
loop_
_atom_site_type_symbol
_atom_site_label
_atom_site_fract_x
_atom_site_fract_y
_atom_site_fract_z
Si Si1 0.081492 0.918103 0.075436
Si Si2 0.822475 0.955489 0.932616
Si Si3 0.217225 0.552981 0.938268
Si Si4 0.052594 0.747682 0.302324
Si Si5 0.819522 0.296415 0.764953
Si Si6 0.566387 0.164255 0.739772
Si Si7 0.078719 0.579255 0.043268
O O1 0.067611 0.828762 0.172447
O O2 0.000000 0.959222 0.250000
O O3 0.135927 0.968198 0.074604
O O4 0.117464 0.913544 0.815984
O O5 0.758749 0.983801 0.946917
O O6 0.780835 0.910894 0.174225
O O7 0.188766 0.615781 0.135224
O O8 0.148186 0.535439 0.971680
O O9 0.110693 0.750661 0.318244
O O10 0.072263 0.666612 0.153483
O O11 0.973064 0.734379 0.564080
O O12 0.852218 0.312404 0.511596
O O13 0.750000 0.250000 0.000000
O O14 0.500000 0.146578 0.750000
O O15 0.580865 0.095939 0.845409
O O16 0.000000 0.537149 0.250000
#
# Coordination Sequence:
#
# PCOD9269471 Si02
#       7
#     8   8   8   8   8   8   8
#     4  11  21  39  62  84 116 159 206 250 289 348
#     4  10  24  41  57  84 121 166 208 242 285 341
#     4  10  22  40  59  81 121 161 198 250 294 342
#     4   9  19  35  58  88 117 147 190 247 306 355
#     4  10  20  34  56  88 118 151 193 241 304 363
#     4   9  18  33  54  86 118 143 178 236 305 357
#     4   9  18  36  61  89 114 145 193 248 303 358
#
# _framework density 23.079284000000001
#
# number of rings (size 3 to 8) (size 9 to 14) (size 15 to 20)
#    0.000    2.286    0.000    3.429    0.000    5.714 
#    0.000   11.429    0.000    2.571    0.000    0.000 
#    0.000    0.000    0.000    0.000    0.000    0.000 
#
# Total GULP energy -156013.478725 kJ/mol
# GULP energy per Si atom -5571.909954 kJ/mol
# Density = 2.302675 g / cm^3
# Si number density = 23.079284 Si / 1000 Ang^3
#
#
#
# Elastic Constant Matrix: (Units=GPa)
#
#
# Indices 1 2 3 4 5 6 
#
# 1 87.2438 11.6852 21.2407 0.0000 -8.7064 0.0000
# 2 11.6852 62.7705 40.2117 0.0000 8.2585 0.0000
# 3 21.2407 40.2117 215.4044 0.0000 10.9990 0.0000
# 4 0.0000 0.0000 0.0000 2.5870 0.0000 -2.7895
# 5 -8.7064 8.2585 10.9990 0.0000 43.4947 0.0000
# 6 0.0000 0.0000 0.0000 -2.7895 0.0000 14.6892
#
#
#
# Elastic Compliance Matrix: (Units=1/GPa)
#
#
# Indices 1 2 3 4 5 6 
#
# 1 0.012288 -0.002065 -0.000985 0.000000 0.003101 0.000000
# 2 -0.002065 0.018740 -0.003133 0.000000 -0.003179 0.000000
# 3 -0.000985 -0.003133 0.005373 0.000000 -0.000961 0.000000
# 4 0.000000 0.000000 0.000000 0.486081 0.000000 0.092307
# 5 0.003101 -0.003179 -0.000961 0.000000 0.024459 0.000000
# 6 0.000000 0.000000 0.000000 0.092307 0.000000 0.085606
#
#
# Mechanical properties :
#
#
# Convention : Reuss Voigt Hill
#
# Bulk Modulus (GPa) = 41.60067 56.85489 49.22778
# Shear Modulus (GPa) = 7.65786 31.63957 19.64872
#
# Velocity S-wave (km/s) = 1.82353 3.70659 2.92097
# Velocity P-wave (km/s) = 4.74320 6.55794 5.72296
#
# Compressibility (1/GPa) = 0.02403807
#
# Stress axis : x y z
#
# Youngs Moduli (GPa) = 81.38148 53.36051 186.10269
#
# Poissons Ratio (x) = 0.11017 0.18323
# Poissons Ratio (y) = 0.16803 0.58297
# Poissons Ratio (z) = 0.08013 0.16715
#
# Static dielectric constant tensor:
#      x y z
#    x 1.952100 0.000000 0.012940 
#    y 0.000000 1.858370 0.000000 
#    z 0.012940 0.000000 1.966870 
# 
# From -- ./inp_files/67126.got.cif
#   From: 2010.05.17/outbox.cif.g08.bks.cpg/sg15_34_cif.got.tgz:67126.got - 2010.06.03 18:47:42.
