data_PCOD9269411
_publ_section_title
;
Structure prediction by ZEFSAII (Michael W. Deem and Ramdas Pophale) SiO2 
 PCOD9269411
Probable space group: C 2/C
;
_chemical_formula_sum "Si O2"
_cell_formula_units_Z 48
_cell_length_a 8.358978
_cell_length_b 11.535679
_cell_length_c 24.939305
_cell_angle_alpha 90.000000
_cell_angle_beta 108.788499
_cell_angle_gamma 90.000000
_cell_volume 2276.666717
_symmetry_space_group_name_H-M "C 2/C"
_symmetry_group_IT_number 15
_symmetry_cell_setting 'monoclinic'
loop_
_space_group_symop_operation_xyz
x,y,z
-x,y,1/2-z
-x,-y,-z
x,-y,1/2+z
1/2+x,1/2+y,z
1/2-x,1/2+y,1/2-z
1/2-x,1/2-y,-z
1/2+x,1/2-y,1/2+z
loop_
_atom_site_type_symbol
_atom_site_label
_atom_site_fract_x
_atom_site_fract_y
_atom_site_fract_z
Si Si1 0.709500 0.200621 0.646880
Si Si2 0.274821 0.867295 0.932112
Si Si3 0.748648 0.513978 0.275757
Si Si4 0.051311 0.399081 0.868987
Si Si5 0.493703 0.405010 0.827982
Si Si6 0.124600 0.385615 0.437521
O O1 0.780939 0.103359 0.694071
O O2 0.844971 0.284782 0.634359
O O3 0.595153 0.284144 0.670755
O O4 0.575910 0.141490 0.591934
O O5 0.422164 0.876773 0.904158
O O6 0.221801 0.732222 0.932342
O O7 0.107368 0.933343 0.892139
O O8 0.331970 0.910633 0.996275
O O9 0.657912 0.512212 0.208589
O O10 0.634842 0.604430 0.297150
O O11 0.939430 0.554538 0.306594
O O12 0.162910 0.506320 0.902816
#
# Coordination Sequence:
#
# PCOD9269411 Si02
#       6
#     8   8   8   8   8   8
#     4  10  21  36  56  84 110 139 186 230 272 330
#     4   9  18  36  59  81 113 150 183 224 273 327
#     4   9  20  37  54  75 107 143 179 224 274 323
#     4  10  20  34  56  82 110 145 182 226 276 321
#     4   9  19  37  56  76 107 146 179 221 275 323
#     4   9  19  37  56  81 116 148 182 225 271 327
#
# _framework density 21.083455000000001
#
# number of rings (size 3 to 8) (size 9 to 14) (size 15 to 20)
#    0.000    2.667    0.000    0.500    0.000    5.333 
#    0.000   17.500    0.000    0.000    0.000    0.000 
#    0.000    0.000    0.000    0.000    0.000    0.000 
#
# Total GULP energy -133767.153439 kJ/mol
# GULP energy per Si atom -5573.631393 kJ/mol
# Density = 2.103547 g / cm^3
# Si number density = 21.083455 Si / 1000 Ang^3
#
#
#
# Elastic Constant Matrix: (Units=GPa)
#
#
# Indices 1 2 3 4 5 6 
#
# 1 54.5191 37.8626 35.1590 0.0000 0.2783 0.0000
# 2 37.8626 75.2702 67.8172 0.0000 10.4551 0.0000
# 3 35.1590 67.8172 160.3079 0.0000 35.5128 0.0000
# 4 0.0000 0.0000 0.0000 24.6202 0.0000 2.0564
# 5 0.2783 10.4551 35.5128 0.0000 26.4417 0.0000
# 6 0.0000 0.0000 0.0000 2.0564 0.0000 35.6803
#
#
#
# Elastic Compliance Matrix: (Units=1/GPa)
#
#
# Indices 1 2 3 4 5 6 
#
# 1 0.029465 -0.013704 -0.002558 0.000000 0.008543 0.000000
# 2 -0.013704 0.028372 -0.009316 0.000000 0.001437 0.000000
# 3 -0.002558 -0.009316 0.014119 0.000000 -0.015252 0.000000
# 4 0.000000 0.000000 0.000000 0.040814 0.000000 -0.002352
# 5 0.008543 0.001437 -0.015252 0.000000 0.057645 0.000000
# 6 0.000000 0.000000 0.000000 -0.002352 0.000000 0.028162
#
#
# Mechanical properties :
#
#
# Convention : Reuss Voigt Hill
#
# Bulk Modulus (GPa) = 48.07268 63.53054 55.80161
# Shear Modulus (GPa) = 19.48064 27.29899 23.38982
#
# Velocity S-wave (km/s) = 3.04300 3.60225 3.33437
# Velocity P-wave (km/s) = 5.93271 6.89201 6.43028
#
# Compressibility (1/GPa) = 0.02080184
#
# Stress axis : x y z
#
# Youngs Moduli (GPa) = 33.93841 35.24547 70.82901
#
# Poissons Ratio (x) = 0.48300 0.18115
# Poissons Ratio (y) = 0.46509 0.65981
# Poissons Ratio (z) = 0.08680 0.32833
#
# Static dielectric constant tensor:
#      x y z
#    x 1.772360 0.000000 0.040290 
#    y 0.000000 1.768450 0.000000 
#    z 0.040290 0.000000 1.820460 
# 
# From -- ./inp_files/263570.got.cif
#   From: 2010.05.17/outbox.cif.g08.bks.cpg/sg15_132_cif.got.tgz:263570.got - 2010.06.03 18:47:42.
