data_PCOD9269090
_publ_section_title
;
Structure prediction by ZEFSAII (Michael W. Deem and Ramdas Pophale) SiO2 
 PCOD9269090
Probable space group: C 2/C
;
_chemical_formula_sum "Si O2"
_cell_formula_units_Z 36
_cell_length_a 19.889660
_cell_length_b 13.426553
_cell_length_c 20.338127
_cell_angle_alpha 90.000000
_cell_angle_beta 21.068503
_cell_angle_gamma 90.000000
_cell_volume 1952.460564
_symmetry_space_group_name_H-M "C 2/C"
_symmetry_group_IT_number 15
_symmetry_cell_setting 'monoclinic'
loop_
_space_group_symop_operation_xyz
x,y,z
-x,y,1/2-z
-x,-y,-z
x,-y,1/2+z
1/2+x,1/2+y,z
1/2-x,1/2+y,1/2-z
1/2-x,1/2-y,-z
1/2+x,1/2-y,1/2+z
loop_
_atom_site_type_symbol
_atom_site_label
_atom_site_fract_x
_atom_site_fract_y
_atom_site_fract_z
Si Si1 0.290492 0.128567 0.684647
Si Si2 0.521580 0.002700 0.879820
Si Si3 0.660657 0.649382 0.555067
Si Si4 0.125911 0.850452 0.937507
Si Si5 0.500000 0.001208 0.750000
O O1 0.430279 0.091012 0.613853
O O2 0.317265 0.245689 0.646559
O O3 0.350153 0.062783 0.566132
O O4 0.075843 0.111727 0.902671
O O5 0.701354 0.927685 0.721507
O O6 0.491397 0.043189 0.832955
O O7 0.500000 0.616591 0.750000
O O8 0.750000 0.750000 0.500000
O O9 0.586911 0.670265 0.549938
O O10 0.819021 0.567512 0.409688
#
# Coordination Sequence:
#
# PCOD9269090 Si02
#       5
#     8   8   8   8   4
#     4  11  21  35  54  79 107 138 175 212 261 307
#     4  10  22  36  54  79 105 138 174 217 256 311
#     4  11  19  27  47  76 106 133 158 201 260 323
#     4  11  20  34  53  78 107 138 174 210 258 312
#     4  10  20  34  50  72 104 132 168 212 262 300
#
# _framework density 18.438272000000001
#
# number of rings (size 3 to 8) (size 9 to 14) (size 15 to 20)
#    0.000    1.333    3.333    4.667    0.000    0.000 
#    0.000    0.000    0.000    1.333    0.000    0.000 
#    0.000    0.000    0.000    0.000    0.000    0.000 
#
# Total GULP energy -100361.608100 kJ/mol
# GULP energy per Si atom -5575.644894 kJ/mol
# Density = 1.839631 g / cm^3
# Si number density = 18.438272 Si / 1000 Ang^3
#
#
#
# Elastic Constant Matrix: (Units=GPa)
#
#
# Indices 1 2 3 4 5 6 
#
# 1 90.2601 20.7951 -9.0125 0.0002 16.2577 -0.0002
# 2 20.7951 41.0308 7.8961 -0.0018 1.7896 -0.0007
# 3 -9.0125 7.8961 79.5904 -0.0041 -3.9414 -0.0006
# 4 0.0002 -0.0018 -0.0041 15.8011 -0.0011 0.0460
# 5 16.2577 1.7896 -3.9414 -0.0011 30.2730 0.0007
# 6 -0.0002 -0.0007 -0.0006 0.0460 0.0007 19.4826
#
#
#
# Elastic Compliance Matrix: (Units=1/GPa)
#
#
# Indices 1 2 3 4 5 6 
#
# 1 0.014204 -0.007279 0.001987 -0.000001 -0.006939 0.000000
# 2 -0.007279 0.028674 -0.003582 0.000003 0.001747 0.000001
# 3 0.001987 -0.003582 0.013187 0.000003 0.000862 0.000000
# 4 -0.000001 0.000003 0.000003 0.063287 0.000003 -0.000150
# 5 -0.006939 0.001747 0.000862 0.000003 0.036768 -0.000001
# 6 0.000000 0.000001 0.000000 -0.000150 -0.000001 0.051328
#
#
# Mechanical properties :
#
#
# Convention : Reuss Voigt Hill
#
# Bulk Modulus (GPa) = 26.09777 27.80429 26.95103
# Shear Modulus (GPa) = 21.01102 25.85818 23.43460
#
# Velocity S-wave (km/s) = 3.37936 3.74895 3.56894
# Velocity P-wave (km/s) = 5.42325 5.81824 5.62421
#
# Compressibility (1/GPa) = 0.03831745
#
# Stress axis : x y z
#
# Youngs Moduli (GPa) = 70.40103 34.87471 75.82991
#
# Poissons Ratio (x) = 0.25384 -0.15067
# Poissons Ratio (y) = 0.51243 0.27165
# Poissons Ratio (z) = -0.13988 0.12494
#
# Static dielectric constant tensor:
#      x y z
#    x 1.703550 0.000000 0.033310 
#    y 0.000000 1.602530 0.000000 
#    z 0.033310 0.000000 1.707640 
# 
# From -- ./inp_files/37578.got.cif
#   From: 2010.05.17/outbox.cif.g08.bks.cpg/sg15_19_cif.got.tgz:37578.got - 2010.06.03 18:47:42.
