data_PCOD9269863
_publ_section_title
;
Structure prediction by ZEFSAII (Michael W. Deem and Ramdas Pophale) SiO2 
 PCOD9269863
Probable space group: C 2/C
;
_chemical_formula_sum "Si O2"
_cell_formula_units_Z 64
_cell_length_a 17.816190
_cell_length_b 14.643052
_cell_length_c 14.813717
_cell_angle_alpha 90.000000
_cell_angle_beta 133.330742
_cell_angle_gamma 90.000000
_cell_volume 2811.166530
_symmetry_space_group_name_H-M "C 2/C"
_symmetry_group_IT_number 15
_symmetry_cell_setting 'monoclinic'
loop_
_space_group_symop_operation_xyz
x,y,z
-x,y,1/2-z
-x,-y,-z
x,-y,1/2+z
1/2+x,1/2+y,z
1/2-x,1/2+y,1/2-z
1/2-x,1/2-y,-z
1/2+x,1/2-y,1/2+z
loop_
_atom_site_type_symbol
_atom_site_label
_atom_site_fract_x
_atom_site_fract_y
_atom_site_fract_z
Si Si1 0.891168 0.110873 0.400251
Si Si2 0.050127 0.748327 0.690300
Si Si3 0.738540 0.776038 0.136548
Si Si4 0.661111 0.991056 0.383621
Si Si5 0.234846 0.819876 0.067586
Si Si6 0.382529 0.183962 0.122705
Si Si7 0.882289 0.106028 0.877216
Si Si8 0.500453 0.944882 0.094582
O O1 0.930297 0.152844 0.336952
O O2 0.798399 0.180284 0.349260
O O3 0.996723 0.117897 0.547908
O O4 0.865100 0.003094 0.376073
O O5 0.165022 0.706549 0.792773
O O6 0.998129 0.666053 0.588846
O O7 0.000000 0.749800 0.750000
O O8 0.827813 0.761381 0.135341
O O9 0.791668 0.853807 0.240025
O O10 0.635119 0.804763 0.997907
O O11 0.753386 0.921238 0.461315
O O12 0.596397 0.974025 0.238237
O O13 0.593483 0.970576 0.416565
O O14 0.684473 0.095849 0.407252
O O15 0.136861 0.830120 0.049921
O O16 0.250000 0.750000 0.000000
O O17 0.500000 0.170656 0.250000
O O18 0.500000 0.000000 0.000000
#
# Coordination Sequence:
#
# PCOD9269863 Si02
#       8
#     8   8   8   8   8   8   8   8
#     4  11  25  46  72 100 147 196 240 311 363 445
#     4  11  21  42  66 101 143 183 241 306 369 439
#     4  11  25  45  70 101 139 190 247 297 359 446
#     4  10  21  40  58  98 141 165 231 293 353 435
#     4  11  22  41  65  96 141 183 228 302 360 426
#     4  11  23  43  69 100 143 181 228 301 371 427
#     4  11  25  46  70 105 143 193 253 295 368 447
#     4  10  20  34  62  99 131 178 222 288 367 427
#
# _framework density 22.766349000000002
#
# number of rings (size 3 to 8) (size 9 to 14) (size 15 to 20)
#    0.000    1.250    5.000    2.250    1.750    2.000 
#    0.000    5.625    0.000    0.000    0.000    0.000 
#    0.000    0.000    0.000    0.000    0.000    0.000 
#
# Total GULP energy -178250.148021 kJ/mol
# GULP energy per Si atom -5570.317126 kJ/mol
# Density = 2.271453 g / cm^3
# Si number density = 22.766349 Si / 1000 Ang^3
#
#
#
# Elastic Constant Matrix: (Units=GPa)
#
#
# Indices 1 2 3 4 5 6 
#
# 1 82.1455 39.1858 44.4667 0.0000 -7.9618 0.0000
# 2 39.1858 140.5422 57.9322 0.0000 -7.5948 0.0000
# 3 44.4667 57.9322 72.0118 0.0000 -8.2249 0.0000
# 4 0.0000 0.0000 0.0000 29.7805 0.0000 2.2261
# 5 -7.9618 -7.5948 -8.2249 0.0000 33.5617 0.0000
# 6 0.0000 0.0000 0.0000 2.2261 0.0000 39.6173
#
#
#
# Elastic Compliance Matrix: (Units=1/GPa)
#
#
# Indices 1 2 3 4 5 6 
#
# 1 0.018411 -0.000652 -0.010660 0.000000 0.001607 0.000000
# 2 -0.000652 0.010672 -0.008153 0.000000 0.000262 0.000000
# 3 -0.010660 -0.008153 0.027292 0.000000 0.002315 0.000000
# 4 0.000000 0.000000 0.000000 0.033721 0.000000 -0.001895
# 5 0.001607 0.000262 0.002315 0.000000 0.030804 0.000000
# 6 0.000000 0.000000 0.000000 -0.001895 0.000000 0.025348
#
#
# Mechanical properties :
#
#
# Convention : Reuss Voigt Hill
#
# Bulk Modulus (GPa) = 57.32364 64.20765 60.76564
# Shear Modulus (GPa) = 26.17895 30.79957 28.48926
#
# Velocity S-wave (km/s) = 3.39469 3.68211 3.54132
# Velocity P-wave (km/s) = 6.37174 6.80745 6.59319
#
# Compressibility (1/GPa) = 0.01744481
#
# Stress axis : x y z
#
# Youngs Moduli (GPa) = 54.31506 93.70419 36.64032
#
# Poissons Ratio (x) = 0.06112 0.39060
# Poissons Ratio (y) = 0.03543 0.29872
# Poissons Ratio (z) = 0.57902 0.76394
#
# Static dielectric constant tensor:
#      x y z
#    x 2.003910 0.000000 0.044120 
#    y 0.000000 1.915930 0.000000 
#    z 0.044120 0.000000 2.080810 
# 
# From -- ./inp_files/162587.got.cif
#   From: 2010.05.17/outbox.cif.g08.bks.cpg/sg15_82_cif.got.tgz:162587.got - 2010.06.03 18:47:42.
