data_PCOD9269384
_publ_section_title
;
Structure prediction by ZEFSAII (Michael W. Deem and Ramdas Pophale) SiO2 
 PCOD9269384
Probable space group: C 2/C
;
_chemical_formula_sum "Si O2"
_cell_formula_units_Z 52
_cell_length_a 13.754165
_cell_length_b 28.218723
_cell_length_c 7.347261
_cell_angle_alpha 90.000000
_cell_angle_beta 116.326851
_cell_angle_gamma 90.000000
_cell_volume 2555.878036
_symmetry_space_group_name_H-M "C 2/C"
_symmetry_group_IT_number 15
_symmetry_cell_setting 'monoclinic'
loop_
_space_group_symop_operation_xyz
x,y,z
-x,y,1/2-z
-x,-y,-z
x,-y,1/2+z
1/2+x,1/2+y,z
1/2-x,1/2+y,1/2-z
1/2-x,1/2-y,-z
1/2+x,1/2-y,1/2+z
loop_
_atom_site_type_symbol
_atom_site_label
_atom_site_fract_x
_atom_site_fract_y
_atom_site_fract_z
Si Si1 0.759765 0.416420 0.514377
Si Si2 0.953523 0.050614 0.515635
Si Si3 0.122444 0.874966 0.066660
Si Si4 0.009912 0.784017 0.538162
Si Si5 0.957639 0.318742 0.011476
Si Si6 0.500000 0.100714 0.250000
Si Si7 0.779450 0.163255 0.225596
O O1 0.675480 0.450766 0.553485
O O2 0.706380 0.400584 0.276334
O O3 0.752967 0.371334 0.639598
O O4 0.887957 0.428203 0.620289
O O5 0.000000 0.062897 0.750000
O O6 0.015328 0.091765 0.456209
O O7 0.000000 0.000000 0.500000
O O8 0.076445 0.823853 0.097420
O O9 0.177179 0.864412 0.917169
O O10 0.001327 0.730435 0.466488
O O11 0.000000 0.781863 0.750000
O O12 0.129153 0.804016 0.613618
O O13 0.000000 0.326888 0.250000
O O14 0.829092 0.310445 0.921545
O O15 0.985536 0.363733 0.909792
#
# Coordination Sequence:
#
# PCOD9269384 Si02
#       7
#     8   8   8   8   8   4   8
#     4  10  21  37  57  83 113 145 189 224 277 341
#     4  10  22  36  61  91 113 136 178 231 288 340
#     4  10  20  36  56  82 112 146 181 235 286 329
#     4   9  19  32  52  77 114 148 191 233 285 321
#     4  10  21  35  51  80 111 151 202 233 266 327
#     4  10  22  38  56  80 112 158 188 224 274 324
#     4  10  20  34  56  77 111 155 184 234 284 323
#
# _framework density 20.345258999999999
#
# number of rings (size 3 to 8) (size 9 to 14) (size 15 to 20)
#    0.000    2.154    1.538    0.923    2.154    8.000 
#    0.000    3.077    0.000    3.692    2.000    0.000 
#    0.000    0.000    0.000    0.000    0.000    0.000 
#
# Total GULP energy -144799.064116 kJ/mol
# GULP energy per Si atom -5569.194774 kJ/mol
# Density = 2.029895 g / cm^3
# Si number density = 20.345259 Si / 1000 Ang^3
#
#
#
# Elastic Constant Matrix: (Units=GPa)
#
#
# Indices 1 2 3 4 5 6 
#
# 1 97.3508 13.2325 41.3455 0.0000 26.3757 0.0000
# 2 13.2325 41.1941 7.5788 0.0000 4.4421 0.0000
# 3 41.3455 7.5788 93.1773 0.0000 5.1980 0.0000
# 4 0.0000 0.0000 0.0000 5.5602 0.0000 0.9761
# 5 26.3757 4.4421 5.1980 0.0000 41.9283 0.0000
# 6 0.0000 0.0000 0.0000 0.9761 0.0000 17.4080
#
#
#
# Elastic Compliance Matrix: (Units=1/GPa)
#
#
# Indices 1 2 3 4 5 6 
#
# 1 0.015705 -0.002949 -0.006238 0.000000 -0.008794 0.000000
# 2 -0.002949 0.025436 -0.000719 0.000000 -0.000751 0.000000
# 3 -0.006238 -0.000719 0.013428 0.000000 0.002336 0.000000
# 4 0.000000 0.000000 0.000000 0.181637 0.000000 -0.010185
# 5 -0.008794 -0.000751 0.002336 0.000000 0.029172 0.000000
# 6 0.000000 0.000000 0.000000 -0.010185 0.000000 0.058016
#
#
# Mechanical properties :
#
#
# Convention : Reuss Voigt Hill
#
# Bulk Modulus (GPa) = 28.77054 39.55955 34.16505
# Shear Modulus (GPa) = 14.09277 24.28366 19.18821
#
# Velocity S-wave (km/s) = 2.63474 3.45857 3.07437
# Velocity P-wave (km/s) = 4.84021 5.95275 5.42508
#
# Compressibility (1/GPa) = 0.03475777
#
# Stress axis : x y z
#
# Youngs Moduli (GPa) = 63.67435 39.31485 74.46850
#
# Poissons Ratio (x) = 0.11593 0.46456
# Poissons Ratio (y) = 0.18776 0.05351
# Poissons Ratio (z) = 0.39722 0.02825
#
# Static dielectric constant tensor:
#      x y z
#    x 1.809290 0.000000 0.035570 
#    y 0.000000 1.714280 0.000000 
#    z 0.035570 0.000000 1.766470 
# 
# From -- ./inp_files/44351.got.cif
#   From: 2010.05.17/outbox.cif.g08.bks.cpg/sg15_23_cif.got.tgz:44351.got - 2010.06.03 18:47:42.
