data_PCOD9269793
_publ_section_title
;
Structure prediction by ZEFSAII (Michael W. Deem and Ramdas Pophale) SiO2 
 PCOD9269793
Probable space group: C 2/C
;
_chemical_formula_sum "Si O2"
_cell_formula_units_Z 40
_cell_length_a 22.186709
_cell_length_b 8.274762
_cell_length_c 19.140198
_cell_angle_alpha 90.000000
_cell_angle_beta 147.954782
_cell_angle_gamma 90.000000
_cell_volume 1864.457810
_symmetry_space_group_name_H-M "C 2/C"
_symmetry_group_IT_number 15
_symmetry_cell_setting 'monoclinic'
loop_
_space_group_symop_operation_xyz
x,y,z
-x,y,1/2-z
-x,-y,-z
x,-y,1/2+z
1/2+x,1/2+y,z
1/2-x,1/2+y,1/2-z
1/2-x,1/2-y,-z
1/2+x,1/2-y,1/2+z
loop_
_atom_site_type_symbol
_atom_site_label
_atom_site_fract_x
_atom_site_fract_y
_atom_site_fract_z
Si Si1 0.315755 0.972697 0.839587
Si Si2 0.982609 0.258511 0.515032
Si Si3 0.729248 0.351913 0.127823
Si Si4 0.014826 0.060921 0.127567
Si Si5 0.124143 0.266599 0.340395
O O1 0.413677 0.880599 0.893093
O O2 0.275237 0.836127 0.853008
O O3 0.227696 0.039795 0.696298
O O4 0.373588 0.133549 0.927520
O O5 0.964695 0.173868 0.421232
O O6 0.014475 0.120660 0.600527
O O7 0.839177 0.382351 0.188717
O O8 0.612634 0.391622 0.974564
O O9 0.093166 0.100379 0.269954
O O10 0.250000 0.250000 0.500000
O O11 0.000000 0.318172 0.250000
#
# Coordination Sequence:
#
# PCOD9269793 Si02
#       5
#     8   8   8   8   8
#     4  10  20  34  61 106 131 164 207 289 361 401
#     4   9  19  35  63  98 135 162 208 282 359 398
#     4  11  22  37  66 100 129 168 222 279 348 397
#     4  10  20  39  62  95 131 169 219 280 332 401
#     4  12  25  43  65  94 132 187 234 261 314 414
#
# _framework density 21.453956999999999
#
# number of rings (size 3 to 8) (size 9 to 14) (size 15 to 20)
#    0.000    1.600    4.000    1.200    5.600    0.000 
#    0.000    0.000    0.000    6.000    0.000    0.000 
#    0.000    0.000    0.000    0.000    0.000    0.000 
#
# Total GULP energy -111436.476506 kJ/mol
# GULP energy per Si atom -5571.823825 kJ/mol
# Density = 2.140513 g / cm^3
# Si number density = 21.453957 Si / 1000 Ang^3
#
#
#
# Elastic Constant Matrix: (Units=GPa)
#
#
# Indices 1 2 3 4 5 6 
#
# 1 112.9919 23.3267 36.4673 0.0000 34.1016 0.0000
# 2 23.3267 98.5986 42.4030 0.0000 -3.6941 0.0000
# 3 36.4673 42.4030 157.0147 0.0000 2.7939 0.0000
# 4 0.0000 0.0000 0.0000 32.3480 0.0000 -0.1593
# 5 34.1016 -3.6941 2.7939 0.0000 33.9137 0.0000
# 6 0.0000 0.0000 0.0000 -0.1593 0.0000 15.5802
#
#
#
# Elastic Compliance Matrix: (Units=1/GPa)
#
#
# Indices 1 2 3 4 5 6 
#
# 1 0.014752 -0.003046 -0.002337 0.000000 -0.014973 0.000000
# 2 -0.003046 0.012181 -0.002664 0.000000 0.004609 0.000000
# 3 -0.002337 -0.002664 0.007606 0.000000 0.001433 0.000000
# 4 0.000000 0.000000 0.000000 0.030915 0.000000 0.000316
# 5 -0.014973 0.004609 0.001433 0.000000 0.044927 0.000000
# 6 0.000000 0.000000 0.000000 0.000316 0.000000 0.064187
#
#
# Mechanical properties :
#
#
# Convention : Reuss Voigt Hill
#
# Bulk Modulus (GPa) = 54.21717 63.66658 58.94187
# Shear Modulus (GPa) = 25.40495 34.12892 29.76694
#
# Velocity S-wave (km/s) = 3.44490 3.99281 3.72893
# Velocity P-wave (km/s) = 6.41478 7.14122 6.78772
#
# Compressibility (1/GPa) = 0.01844434
#
# Stress axis : x y z
#
# Youngs Moduli (GPa) = 67.78538 82.09362 131.48110
#
# Poissons Ratio (x) = 0.25006 0.30731
# Poissons Ratio (y) = 0.20647 0.35029
# Poissons Ratio (z) = 0.15843 0.21871
#
# Static dielectric constant tensor:
#      x y z
#    x 1.897940 0.000000 0.031480 
#    y 0.000000 1.744320 0.000000 
#    z 0.031480 0.000000 1.902260 
# 
# From -- ./inp_files/255111.got.cif
#   From: 2010.05.17/outbox.cif.g08.bks.cpg/sg15_128_cif.got.tgz:255111.got - 2010.06.03 18:47:42.
