data_PCOD9269485
_publ_section_title
;
Structure prediction by ZEFSAII (Michael W. Deem and Ramdas Pophale) SiO2 
 PCOD9269485
Probable space group: C 2/C
;
_chemical_formula_sum "Si O2"
_cell_formula_units_Z 44
_cell_length_a 5.346074
_cell_length_b 18.820959
_cell_length_c 18.465057
_cell_angle_alpha 90.000000
_cell_angle_beta 71.331409
_cell_angle_gamma 90.000000
_cell_volume 1760.168646
_symmetry_space_group_name_H-M "C 2/C"
_symmetry_group_IT_number 15
_symmetry_cell_setting 'monoclinic'
loop_
_space_group_symop_operation_xyz
x,y,z
-x,y,1/2-z
-x,-y,-z
x,-y,1/2+z
1/2+x,1/2+y,z
1/2-x,1/2+y,1/2-z
1/2-x,1/2-y,-z
1/2+x,1/2-y,1/2+z
loop_
_atom_site_type_symbol
_atom_site_label
_atom_site_fract_x
_atom_site_fract_y
_atom_site_fract_z
Si Si1 0.736110 0.427790 0.012271
Si Si2 0.808700 0.237077 0.201952
Si Si3 0.500000 0.506390 0.250000
Si Si4 0.928384 0.398703 0.146116
Si Si5 0.681716 0.514293 0.376028
Si Si6 0.972066 0.209603 0.026539
O O1 0.917157 0.398391 0.059575
O O2 0.594550 0.496894 0.059055
O O3 0.851904 0.447897 0.922819
O O4 0.526323 0.366848 0.011594
O O5 0.500000 0.228912 0.250000
O O6 0.871052 0.320967 0.181275
O O7 0.000000 0.214872 0.250000
O O8 0.879026 0.202350 0.118123
O O9 0.706185 0.453765 0.193051
O O10 0.639125 0.548723 0.302120
O O11 0.190591 0.437022 0.150223
O O12 0.250000 0.250000 0.000000
O O13 0.750000 0.250000 0.000000
#
# Coordination Sequence:
#
# PCOD9269485 Si02
#       6
#     8   8   4   8   8   8
#     4  10  23  40  63  95 124 170 227 276 334 409
#     4  12  25  42  67 102 137 177 230 287 348 408
#     4  10  20  34  56  92 126 160 216 256 340 402
#     4  11  20  37  65  90 127 168 221 280 333 397
#     4  10  21  39  62  95 128 167 217 278 343 400
#     4  12  25  46  72 100 136 185 234 284 348 415
#
# _framework density 24.997606000000001
#
# number of rings (size 3 to 8) (size 9 to 14) (size 15 to 20)
#    0.000    1.091    2.727    4.364    2.545    0.000 
#    1.636    1.818    0.000    0.000    0.000    0.000 
#    0.000    0.000    0.000    0.000    0.000    0.000 
#
# Total GULP energy -123028.337904 kJ/mol
# GULP energy per Si atom -5592.197177 kJ/mol
# Density = 2.494071 g / cm^3
# Si number density = 24.997606 Si / 1000 Ang^3
#
#
#
# Elastic Constant Matrix: (Units=GPa)
#
#
# Indices 1 2 3 4 5 6 
#
# 1 143.5833 29.0787 76.7399 0.0000 26.4581 0.0000
# 2 29.0787 57.2255 18.7701 0.0000 3.9134 0.0000
# 3 76.7399 18.7701 204.2622 0.0000 54.0433 0.0000
# 4 0.0000 0.0000 0.0000 35.8981 0.0000 7.6444
# 5 26.4581 3.9134 54.0433 0.0000 49.5523 0.0000
# 6 0.0000 0.0000 0.0000 7.6444 0.0000 26.0853
#
#
#
# Elastic Compliance Matrix: (Units=1/GPa)
#
#
# Indices 1 2 3 4 5 6 
#
# 1 0.009543 -0.003821 -0.002763 0.000000 -0.001780 0.000000
# 2 -0.003821 0.019558 -0.000693 0.000000 0.001251 0.000000
# 3 -0.002763 -0.000693 0.007861 0.000000 -0.007043 0.000000
# 4 0.000000 0.000000 0.000000 0.029711 0.000000 -0.008707
# 5 -0.001780 0.001251 -0.007043 0.000000 0.028714 0.000000
# 6 0.000000 0.000000 0.000000 -0.008707 0.000000 0.040887
#
#
# Mechanical properties :
#
#
# Convention : Reuss Voigt Hill
#
# Bulk Modulus (GPa) = 44.62674 72.69426 58.66050
# Shear Modulus (GPa) = 31.58593 41.00596 36.29595
#
# Velocity S-wave (km/s) = 3.55851 4.05457 3.81462
# Velocity P-wave (km/s) = 5.89705 7.14584 6.55127
#
# Compressibility (1/GPa) = 0.02240809
#
# Stress axis : x y z
#
# Youngs Moduli (GPa) = 104.78478 51.12962 127.21127
#
# Poissons Ratio (x) = 0.19538 0.35151
# Poissons Ratio (y) = 0.40042 0.08811
# Poissons Ratio (z) = 0.28955 0.03541
#
# Static dielectric constant tensor:
#      x y z
#    x 1.997340 0.000000 -0.001340 
#    y 0.000000 2.020040 0.000000 
#    z -0.001340 0.000000 2.025320 
# 
# From -- ./inp_files/184797.got.cif
#   From: 2010.05.17/outbox.cif.g08.bks.cpg/sg15_93_cif.got.tgz:184797.got - 2010.06.03 18:47:42.
