data_PCOD9269114
_publ_section_title
;
Structure prediction by ZEFSAII (Michael W. Deem and Ramdas Pophale) SiO2 
 PCOD9269114
Probable space group: C 2/C
;
_chemical_formula_sum "Si O2"
_cell_formula_units_Z 56
_cell_length_a 11.411183
_cell_length_b 25.526235
_cell_length_c 10.285364
_cell_angle_alpha 90.000000
_cell_angle_beta 72.049834
_cell_angle_gamma 90.000000
_cell_volume 2850.138580
_symmetry_space_group_name_H-M "C 2/C"
_symmetry_group_IT_number 15
_symmetry_cell_setting 'monoclinic'
loop_
_space_group_symop_operation_xyz
x,y,z
-x,y,1/2-z
-x,-y,-z
x,-y,1/2+z
1/2+x,1/2+y,z
1/2-x,1/2+y,1/2-z
1/2-x,1/2-y,-z
1/2+x,1/2-y,1/2+z
loop_
_atom_site_type_symbol
_atom_site_label
_atom_site_fract_x
_atom_site_fract_y
_atom_site_fract_z
Si Si1 0.766359 0.839122 0.005804
Si Si2 0.835756 0.299524 0.199314
Si Si3 0.920927 0.941126 0.401179
Si Si4 0.246963 0.649622 0.028169
Si Si5 0.858291 0.290458 0.707079
Si Si6 0.587831 0.438477 0.601501
Si Si7 0.516129 0.277356 0.993049
O O1 0.704740 0.810824 0.904795
O O2 0.800453 0.898473 0.956698
O O3 0.896944 0.811485 0.997275
O O4 0.681248 0.830442 0.161229
O O5 0.720938 0.259788 0.223796
O O6 0.947456 0.259875 0.138677
O O7 0.824679 0.336372 0.078481
O O8 0.804261 0.907259 0.484484
O O9 0.000000 0.920417 0.250000
O O10 0.011572 0.939479 0.493589
O O11 0.882157 0.000713 0.381606
O O12 0.162210 0.663658 0.181070
O O13 0.369699 0.685755 0.007775
O O14 0.985162 0.263689 0.618398
O O15 0.500000 0.419703 0.750000
#
# Coordination Sequence:
#
# PCOD9269114 Si02
#       7
#     8   8   8   8   8   8   8
#     4  11  21  34  52  75 104 137 169 207 257 300
#     4  10  22  33  48  76 100 139 178 199 248 310
#     4  10  20  34  53  77 102 134 169 208 263 311
#     4  11  21  34  52  75 104 137 169 207 257 300
#     4  10  22  33  48  76 100 139 178 199 248 310
#     4  10  20  34  53  77 102 134 169 208 263 311
#     4  10  20  34  51  72 109 138 164 214 244 296
#
# _framework density 19.648167000000001
#
# number of rings (size 3 to 8) (size 9 to 14) (size 15 to 20)
#    0.000    1.714    1.429    5.143    4.000    5.714 
#    0.000    0.000    0.000    0.000    0.000    6.000 
#    0.000    0.000    0.000    0.000    0.000    0.000 
#
# Total GULP energy -156273.405704 kJ/mol
# GULP energy per Si atom -5581.193061 kJ/mol
# Density = 1.960345 g / cm^3
# Si number density = 19.648167 Si / 1000 Ang^3
#
#
#
# Elastic Constant Matrix: (Units=GPa)
#
#
# Indices 1 2 3 4 5 6 
#
# 1 21.7741 6.2546 8.3895 0.0000 2.9939 0.0000
# 2 6.2546 74.9832 13.8804 0.0000 -13.8785 0.0000
# 3 8.3895 13.8804 121.8156 0.0000 -0.9056 0.0000
# 4 0.0000 0.0000 0.0000 30.5792 0.0000 -15.4575
# 5 2.9939 -13.8785 -0.9056 0.0000 34.1579 0.0000
# 6 0.0000 0.0000 0.0000 -15.4575 0.0000 10.5704
#
#
#
# Elastic Compliance Matrix: (Units=1/GPa)
#
#
# Indices 1 2 3 4 5 6 
#
# 1 0.049275 -0.004744 -0.002900 0.000000 -0.006323 0.000000
# 2 -0.004744 0.015196 -0.001356 0.000000 0.006554 0.000000
# 3 -0.002900 -0.001356 0.008563 0.000000 -0.000070 0.000000
# 4 0.000000 0.000000 0.000000 0.125392 0.000000 0.183367
# 5 -0.006323 0.006554 -0.000070 0.000000 0.032491 0.000000
# 6 0.000000 0.000000 0.000000 0.183367 0.000000 0.362750
#
#
# Mechanical properties :
#
#
# Convention : Reuss Voigt Hill
#
# Bulk Modulus (GPa) = 18.17040 30.62466 24.39753
# Shear Modulus (GPa) = 7.93635 27.73140 17.83388
#
# Velocity S-wave (km/s) = 2.01196 3.76093 3.01601
# Velocity P-wave (km/s) = 3.82953 5.87196 4.95707
#
# Compressibility (1/GPa) = 0.05503458
#
# Stress axis : x y z
#
# Youngs Moduli (GPa) = 20.29407 65.80626 116.78338
#
# Poissons Ratio (x) = 0.31217 0.33869
# Poissons Ratio (y) = 0.09627 0.15837
# Poissons Ratio (z) = 0.05886 0.08924
#
# Static dielectric constant tensor:
#      x y z
#    x 1.734390 0.000000 -0.020290 
#    y 0.000000 1.701370 0.000000 
#    z -0.020290 0.000000 1.755890 
# 
# From -- ./inp_files/34220.got.cif
#   From: 2010.05.17/outbox.cif.g08.bks.cpg/sg15_18_cif.got.tgz:34220.got - 2010.06.03 18:47:42.
