data_PCOD9269525
_publ_section_title
;
Structure prediction by ZEFSAII (Michael W. Deem and Ramdas Pophale) SiO2 
 PCOD9269525
Probable space group: C 2/C
;
_chemical_formula_sum "Si O2"
_cell_formula_units_Z 60
_cell_length_a 18.300486
_cell_length_b 13.812191
_cell_length_c 10.365075
_cell_angle_alpha 90.000000
_cell_angle_beta 106.452468
_cell_angle_gamma 90.000000
_cell_volume 2512.703073
_symmetry_space_group_name_H-M "C 2/C"
_symmetry_group_IT_number 15
_symmetry_cell_setting 'monoclinic'
loop_
_space_group_symop_operation_xyz
x,y,z
-x,y,1/2-z
-x,-y,-z
x,-y,1/2+z
1/2+x,1/2+y,z
1/2-x,1/2+y,1/2-z
1/2-x,1/2-y,-z
1/2+x,1/2-y,1/2+z
loop_
_atom_site_type_symbol
_atom_site_label
_atom_site_fract_x
_atom_site_fract_y
_atom_site_fract_z
Si Si1 0.920217 0.168927 0.278843
Si Si2 0.857877 0.290175 0.440760
Si Si3 0.000000 0.113897 0.750000
Si Si4 0.126017 0.010925 0.413987
Si Si5 0.134243 0.830094 0.141241
Si Si6 0.206951 0.564714 0.767863
Si Si7 0.241526 0.623089 0.394947
Si Si8 0.330204 0.805303 0.040501
O O1 0.925855 0.220229 0.422901
O O2 0.874375 0.068552 0.224915
O O3 0.879975 0.251124 0.172897
O O4 0.000000 0.151869 0.250000
O O5 0.854505 0.388431 0.356706
O O6 0.829999 0.329030 0.565639
O O7 0.790919 0.213233 0.371889
O O8 0.068420 0.167325 0.712807
O O9 0.048113 0.049030 0.873779
O O10 0.118474 0.094785 0.516386
O O11 0.197565 0.941450 0.487359
O O12 0.215477 0.875641 0.224918
O O13 0.138164 0.723317 0.082090
O O14 0.216775 0.450933 0.772209
O O15 0.184841 0.590700 0.905742
O O16 0.250000 0.750000 0.000000
#
# Coordination Sequence:
#
# PCOD9269525 Si02
#       8
#     8   8   4   8   8   8   8   8
#     4  10  20  34  57  86 120 163 199 240 309 380
#     4  10  22  37  57  89 120 153 203 252 307 363
#     4  12  20  28  48  80 124 160 184 222 310 380
#     4  10  21  33  52  81 120 166 193 232 305 382
#     4   9  19  31  47  77 112 149 194 237 281 364
#     4   9  18  37  59  77 109 156 198 245 301 347
#     4  10  22  37  58  88 122 154 200 266 301 344
#     4   8  16  34  53  77 107 150 207 246 277 345
#
# _framework density 23.878668000000001
#
# number of rings (size 3 to 8) (size 9 to 14) (size 15 to 20)
#    0.000    2.400    0.667    2.000    5.600    2.133 
#    0.000    0.000    0.000    3.200    1.733    0.000 
#    0.000    0.000    0.000    0.000    0.000    0.000 
#
# Total GULP energy -167188.411898 kJ/mol
# GULP energy per Si atom -5572.947063 kJ/mol
# Density = 2.382432 g / cm^3
# Si number density = 23.878668 Si / 1000 Ang^3
#
#
#
# Elastic Constant Matrix: (Units=GPa)
#
#
# Indices 1 2 3 4 5 6 
#
# 1 73.1187 33.0333 24.6108 0.0000 -23.3183 0.0000
# 2 33.0333 100.8903 24.7038 0.0000 -5.5211 0.0000
# 3 24.6108 24.7038 28.3476 0.0000 -11.1194 0.0000
# 4 0.0000 0.0000 0.0000 40.0242 0.0000 -3.7128
# 5 -23.3183 -5.5211 -11.1194 0.0000 47.2580 0.0000
# 6 0.0000 0.0000 0.0000 -3.7128 0.0000 30.5549
#
#
#
# Elastic Compliance Matrix: (Units=1/GPa)
#
#
# Indices 1 2 3 4 5 6 
#
# 1 0.022081 -0.003612 -0.013126 0.000000 0.007385 0.000000
# 2 -0.003612 0.013256 -0.009373 0.000000 -0.002439 0.000000
# 3 -0.013126 -0.009373 0.057145 0.000000 0.005874 0.000000
# 4 0.000000 0.000000 0.000000 0.025270 0.000000 0.003071
# 5 0.007385 -0.002439 0.005874 0.000000 0.025902 0.000000
# 6 0.000000 0.000000 0.000000 0.003071 0.000000 0.033101
#
#
# Mechanical properties :
#
#
# Convention : Reuss Voigt Hill
#
# Bulk Modulus (GPa) = 24.83876 40.78362 32.81119
# Shear Modulus (GPa) = 20.62737 31.56799 26.09768
#
# Velocity S-wave (km/s) = 2.94231 3.63990 3.30953
# Velocity P-wave (km/s) = 4.68695 5.89761 5.32679
#
# Compressibility (1/GPa) = 0.04025966
#
# Stress axis : x y z
#
# Youngs Moduli (GPa) = 45.28699 75.43829 17.49945
#
# Poissons Ratio (x) = 0.27245 0.22971
# Poissons Ratio (y) = 0.16356 0.16402
# Poissons Ratio (z) = 0.59446 0.70709
#
# Static dielectric constant tensor:
#      x y z
#    x 1.700710 0.000000 0.102650 
#    y 0.000000 1.973600 0.000000 
#    z 0.102650 0.000000 1.997980 
# 
# From -- ./inp_files/105375.got.cif
#   From: 2010.05.17/outbox.cif.g08.bks.cpg/sg15_53_cif.got.tgz:105375.got - 2010.06.03 18:47:42.
