data_PCOD9269438
_publ_section_title
;
Structure prediction by ZEFSAII (Michael W. Deem and Ramdas Pophale) SiO2 
 PCOD9269438
Probable space group: C 2/C
;
_chemical_formula_sum "Si O2"
_cell_formula_units_Z 64
_cell_length_a 18.051629
_cell_length_b 9.487485
_cell_length_c 19.138844
_cell_angle_alpha 90.000000
_cell_angle_beta 114.834697
_cell_angle_gamma 90.000000
_cell_volume 2974.685037
_symmetry_space_group_name_H-M "C 2/C"
_symmetry_group_IT_number 15
_symmetry_cell_setting 'monoclinic'
loop_
_space_group_symop_operation_xyz
x,y,z
-x,y,1/2-z
-x,-y,-z
x,-y,1/2+z
1/2+x,1/2+y,z
1/2-x,1/2+y,1/2-z
1/2-x,1/2-y,-z
1/2+x,1/2-y,1/2+z
loop_
_atom_site_type_symbol
_atom_site_label
_atom_site_fract_x
_atom_site_fract_y
_atom_site_fract_z
Si Si1 0.583974 0.298409 0.140864
Si Si2 0.199957 0.449737 0.079479
Si Si3 0.927001 0.799037 0.988013
Si Si4 0.645677 0.475383 0.936526
Si Si5 0.195578 0.429849 0.733192
Si Si6 0.532399 0.605662 0.153628
Si Si7 0.172486 0.267430 0.275121
Si Si8 0.203735 0.251635 0.562508
O O1 0.618175 0.174559 0.203286
O O2 0.571996 0.448912 0.172784
O O3 0.651346 0.311347 0.106500
O O4 0.502247 0.256303 0.067472
O O5 0.140593 0.321138 0.044140
O O6 0.291364 0.434873 0.085451
O O7 0.200431 0.489236 0.160955
O O8 0.166029 0.594858 0.032169
O O9 0.958394 0.843813 0.923706
O O10 0.887232 0.928765 0.013052
O O11 0.563054 0.417222 0.868752
O O12 0.695419 0.353410 0.995914
O O13 0.186286 0.563853 0.779215
O O14 0.272547 0.322107 0.760179
O O15 0.582147 0.715609 0.220588
O O16 0.209239 0.224117 0.364744
#
# Coordination Sequence:
#
# PCOD9269438 Si02
#       8
#     8   8   8   8   8   8   8   8
#     4   9  18  33  53  82 111 141 187 246 279 342
#     4  10  22  34  53  85 116 146 187 239 293 355
#     4  11  19  34  57  84 114 143 198 242 291 344
#     4  11  21  37  56  81 118 158 185 239 300 360
#     4  10  21  35  56  84 117 141 196 243 299 335
#     4  11  19  35  59  82 111 153 197 238 292 341
#     4  10  20  34  56  85 109 148 192 249 285 347
#     4  10  20  36  55  81 115 146 193 236 302 343
#
# _framework density 21.514882
#
# number of rings (size 3 to 8) (size 9 to 14) (size 15 to 20)
#    0.000    2.000    3.750    3.000    0.000    3.000 
#    0.000    2.500    0.000    0.000    0.000    3.500 
#    0.000    0.000    0.000    0.000    0.000    0.000 
#
# Total GULP energy -178556.500192 kJ/mol
# GULP energy per Si atom -5579.890631 kJ/mol
# Density = 2.146591 g / cm^3
# Si number density = 21.514882 Si / 1000 Ang^3
#
#
#
# Elastic Constant Matrix: (Units=GPa)
#
#
# Indices 1 2 3 4 5 6 
#
# 1 86.4770 28.8928 8.2360 0.0000 21.4053 0.0000
# 2 28.8928 112.3959 32.3108 0.0000 25.5308 0.0000
# 3 8.2360 32.3108 35.7759 0.0000 13.9328 0.0000
# 4 0.0000 0.0000 0.0000 35.8925 0.0000 14.4862
# 5 21.4053 25.5308 13.9328 0.0000 29.9408 0.0000
# 6 0.0000 0.0000 0.0000 14.4862 0.0000 28.4709
#
#
#
# Elastic Compliance Matrix: (Units=1/GPa)
#
#
# Indices 1 2 3 4 5 6 
#
# 1 0.014443 -0.002240 0.002413 0.000000 -0.009539 0.000000
# 2 -0.002240 0.013440 -0.009506 0.000000 -0.005436 0.000000
# 3 0.002413 -0.009506 0.040911 0.000000 -0.012657 0.000000
# 4 0.000000 0.000000 0.000000 0.035061 0.000000 -0.017839
# 5 -0.009539 -0.005436 -0.012657 0.000000 0.050744 0.000000
# 6 0.000000 0.000000 0.000000 -0.017839 0.000000 0.044200
#
#
# Mechanical properties :
#
#
# Convention : Reuss Voigt Hill
#
# Bulk Modulus (GPa) = 19.94885 41.50312 30.72599
# Shear Modulus (GPa) = 21.35159 29.87480 25.61319
#
# Velocity S-wave (km/s) = 3.15367 3.73039 3.45409
# Velocity P-wave (km/s) = 4.74901 6.15522 5.49726
#
# Compressibility (1/GPa) = 0.05012820
#
# Stress axis : x y z
#
# Youngs Moduli (GPa) = 69.23585 74.40285 24.44353
#
# Poissons Ratio (x) = 0.16664 -0.05897
# Poissons Ratio (y) = 0.15506 0.23236
# Poissons Ratio (z) = -0.16703 0.70727
#
# Static dielectric constant tensor:
#      x y z
#    x 1.860110 0.000000 0.011710 
#    y 0.000000 1.839340 0.000000 
#    z 0.011710 0.000000 1.791850 
# 
# From -- ./inp_files/279386.got.cif
#   From: 2010.05.17/outbox.cif.g08.bks.cpg/sg15_140_cif.got.tgz:279386.got - 2010.06.03 18:47:42.
