data_PCOD9269628
_publ_section_title
;
Structure prediction by ZEFSAII (Michael W. Deem and Ramdas Pophale) SiO2 
 PCOD9269628
Probable space group: C 2/C
;
_chemical_formula_sum "Si O2"
_cell_formula_units_Z 56
_cell_length_a 15.152529
_cell_length_b 12.327376
_cell_length_c 23.484299
_cell_angle_alpha 90.000000
_cell_angle_beta 31.222106
_cell_angle_gamma 90.000000
_cell_volume 2273.852695
_symmetry_space_group_name_H-M "C 2/C"
_symmetry_group_IT_number 15
_symmetry_cell_setting 'monoclinic'
loop_
_space_group_symop_operation_xyz
x,y,z
-x,y,1/2-z
-x,-y,-z
x,-y,1/2+z
1/2+x,1/2+y,z
1/2-x,1/2+y,1/2-z
1/2-x,1/2-y,-z
1/2+x,1/2-y,1/2+z
loop_
_atom_site_type_symbol
_atom_site_label
_atom_site_fract_x
_atom_site_fract_y
_atom_site_fract_z
Si Si1 0.500000 0.658005 0.750000
Si Si2 0.105750 0.156684 0.005963
Si Si3 0.985387 0.362550 0.382654
Si Si4 0.217585 0.349571 0.675920
Si Si5 0.500000 0.963885 0.250000
Si Si6 0.657101 0.699313 0.857784
Si Si7 0.120695 0.572706 0.350680
Si Si8 0.003661 0.969918 0.359697
O O1 0.652425 0.737235 0.685843
O O2 0.553866 0.585331 0.666685
O O3 0.125206 0.271801 0.025975
O O4 0.914729 0.146680 0.083661
O O5 0.110905 0.064207 0.050830
O O6 0.209085 0.153784 0.890488
O O7 0.961856 0.399698 0.330157
O O8 0.172784 0.305398 0.274423
O O9 0.999279 0.469423 0.414236
O O10 0.117257 0.373774 0.789813
O O11 0.155752 0.449049 0.671627
O O12 0.592362 0.821385 0.903958
O O13 0.529616 0.621523 0.894017
O O14 0.310448 0.524251 0.254333
#
# Coordination Sequence:
#
# PCOD9269628 Si02
#       8
#     4   8   8   8   4   8   8   8
#     4  11  18  33  64  84 120 153 183 254 298 340
#     4  11  22  38  63  87 116 156 204 241 284 351
#     4  10  20  38  60  88 115 156 198 239 297 351
#     4   9  17  36  60  88 107 156 199 235 291 345
#     4   9  20  33  64  80 124 159 183 236 308 354
#     4  11  20  38  65  85 116 157 206 243 278 351
#     4   9  17  36  61  82 108 152 200 234 277 349
#     4  10  20  34  58  90 116 148 192 238 297 343
#
# _framework density 24.627804000000001
#
# number of rings (size 3 to 8) (size 9 to 14) (size 15 to 20)
#    0.000    2.000    4.286    2.143    0.000    1.143 
#    0.000    1.429    9.429    0.000    0.000    0.000 
#    0.000    0.000    0.000    0.000    0.000    0.000 
#
# Total GULP energy -156569.661092 kJ/mol
# GULP energy per Si atom -5591.773610 kJ/mol
# Density = 2.457175 g / cm^3
# Si number density = 24.627804 Si / 1000 Ang^3
#
#
#
# Elastic Constant Matrix: (Units=GPa)
#
#
# Indices 1 2 3 4 5 6 
#
# 1 86.0505 50.3605 8.3229 -0.0001 15.4040 0.0000
# 2 50.3605 175.1437 30.8745 -0.0002 25.9815 0.0001
# 3 8.3229 30.8745 49.6420 -0.0010 17.1702 0.0006
# 4 -0.0001 -0.0002 -0.0010 21.8985 0.0004 17.6653
# 5 15.4040 25.9815 17.1702 0.0004 30.7833 -0.0002
# 6 0.0000 0.0001 0.0006 17.6653 -0.0002 56.7951
#
#
#
# Elastic Compliance Matrix: (Units=1/GPa)
#
#
# Indices 1 2 3 4 5 6 
#
# 1 0.014544 -0.003719 0.001619 0.000000 -0.005041 0.000000
# 2 -0.003719 0.007776 -0.003205 0.000000 -0.002915 0.000000
# 3 0.001619 -0.003205 0.026281 0.000002 -0.012764 -0.000001
# 4 0.000000 0.000000 0.000002 0.060961 -0.000002 -0.018961
# 5 -0.005041 -0.002915 -0.012764 -0.000002 0.044587 0.000001
# 6 0.000000 0.000000 -0.000001 -0.018961 0.000001 0.023505
#
#
# Mechanical properties :
#
#
# Convention : Reuss Voigt Hill
#
# Bulk Modulus (GPa) = 26.32290 54.43912 40.38101
# Shear Modulus (GPa) = 24.88451 36.64725 30.76588
#
# Velocity S-wave (km/s) = 3.18216 3.86170 3.53828
# Velocity P-wave (km/s) = 4.92068 6.48355 5.75541
#
# Compressibility (1/GPa) = 0.03798973
#
# Stress axis : x y z
#
# Youngs Moduli (GPa) = 68.75827 128.59482 38.05056
#
# Poissons Ratio (x) = 0.47829 -0.06159
# Poissons Ratio (y) = 0.25574 0.12194
# Poissons Ratio (z) = -0.11129 0.41212
#
# Static dielectric constant tensor:
#      x y z
#    x 2.021910 0.000000 -0.068860 
#    y 0.000000 1.960610 0.000000 
#    z -0.068860 0.000000 2.005150 
# 
# From -- ./inp_files/277062.got.cif
#   From: 2010.05.17/outbox.cif.g08.bks.cpg/sg15_139_cif.got.tgz:277062.got - 2010.06.03 18:47:42.
