data_PCOD9269150
_publ_section_title
;
Structure prediction by ZEFSAII (Michael W. Deem and Ramdas Pophale) SiO2 
 PCOD9269150
Probable space group: C 2/C
;
_chemical_formula_sum "Si O2"
_cell_formula_units_Z 52
_cell_length_a 25.807348
_cell_length_b 19.026796
_cell_length_c 7.978082
_cell_angle_alpha 90.000000
_cell_angle_beta 37.240476
_cell_angle_gamma 90.000000
_cell_volume 2370.712798
_symmetry_space_group_name_H-M "C 2/C"
_symmetry_group_IT_number 15
_symmetry_cell_setting 'monoclinic'
loop_
_space_group_symop_operation_xyz
x,y,z
-x,y,1/2-z
-x,-y,-z
x,-y,1/2+z
1/2+x,1/2+y,z
1/2-x,1/2+y,1/2-z
1/2-x,1/2-y,-z
1/2+x,1/2-y,1/2+z
loop_
_atom_site_type_symbol
_atom_site_label
_atom_site_fract_x
_atom_site_fract_y
_atom_site_fract_z
Si Si1 0.217891 0.386845 0.648518
Si Si2 0.150724 0.803729 0.047126
Si Si3 0.117804 0.611105 0.860997
Si Si4 0.587801 0.017612 0.613116
Si Si5 0.600535 0.243801 0.531430
Si Si6 0.264560 0.325905 0.163877
Si Si7 0.500000 0.237866 0.250000
O O1 0.301744 0.377124 0.548496
O O2 0.147709 0.331629 0.906088
O O3 0.240106 0.367335 0.399467
O O4 0.171443 0.459932 0.792757
O O5 0.141246 0.777059 0.260282
O O6 0.059990 0.789037 0.200687
O O7 0.213669 0.747833 0.799238
O O8 0.096599 0.557952 0.765384
O O9 0.217057 0.631938 0.637915
O O10 0.088807 0.567226 0.102453
O O11 0.061554 0.682417 0.992606
O O12 0.500000 0.040818 0.750000
O O13 0.637101 0.298391 0.578575
O O14 0.500000 0.238555 0.750000
#
# Coordination Sequence:
#
# PCOD9269150 Si02
#       7
#     8   8   8   8   8   8   4
#     4   9  18  33  52  74 109 141 179 208 265 319
#     4   8  17  32  49  73 105 149 168 214 267 312
#     4  11  23  36  52  78 108 143 178 220 269 311
#     4  12  24  34  53  80 106 141 181 219 262 322
#     4   9  16  29  53  79 100 138 178 217 259 313
#     4   8  17  35  51  70 107 141 175 213 266 315
#     4  10  20  34  52  76 114 140 180 216 260 314
#
# _framework density 21.934332000000001
#
# number of rings (size 3 to 8) (size 9 to 14) (size 15 to 20)
#    0.000    2.462    0.769    3.692    8.615    0.000 
#    2.769    2.308    0.000    0.000    2.000    3.231 
#    0.000    0.000    0.000    0.000    0.000    0.000 
#
# Total GULP energy -144886.364020 kJ/mol
# GULP energy per Si atom -5572.552462 kJ/mol
# Density = 2.188441 g / cm^3
# Si number density = 21.934332 Si / 1000 Ang^3
#
#
#
# Elastic Constant Matrix: (Units=GPa)
#
#
# Indices 1 2 3 4 5 6 
#
# 1 144.3068 47.7677 26.1865 0.0000 -36.5837 0.0000
# 2 47.7677 55.5269 24.8190 0.0000 -17.8950 0.0000
# 3 26.1865 24.8190 55.3961 0.0000 -11.0353 0.0000
# 4 0.0000 0.0000 0.0000 27.6761 0.0000 -0.1870
# 5 -36.5837 -17.8950 -11.0353 0.0000 44.3034 0.0000
# 6 0.0000 0.0000 0.0000 -0.1870 0.0000 37.1728
#
#
#
# Elastic Compliance Matrix: (Units=1/GPa)
#
#
# Indices 1 2 3 4 5 6 
#
# 1 0.010949 -0.007147 -0.000787 0.000000 0.005958 0.000000
# 2 -0.007147 0.029403 -0.009054 0.000000 0.003720 0.000000
# 3 -0.000787 -0.009054 0.022751 0.000000 0.001360 0.000000
# 4 0.000000 0.000000 0.000000 0.036133 0.000000 0.000182
# 5 0.005958 0.003720 0.001360 0.000000 0.029333 0.000000
# 6 0.000000 0.000000 0.000000 0.000182 0.000000 0.026902
#
#
# Mechanical properties :
#
#
# Convention : Reuss Voigt Hill
#
# Bulk Modulus (GPa) = 34.33149 50.30847 42.31998
# Shear Modulus (GPa) = 25.10595 32.26090 28.68342
#
# Velocity S-wave (km/s) = 3.38686 3.83925 3.62013
# Velocity P-wave (km/s) = 5.56600 6.52985 6.06709
#
# Compressibility (1/GPa) = 0.02912778
#
# Stress axis : x y z
#
# Youngs Moduli (GPa) = 91.33559 34.00991 43.95397
#
# Poissons Ratio (x) = 0.24307 0.03458
# Poissons Ratio (y) = 0.65277 0.39796
# Poissons Ratio (z) = 0.07185 0.30793
#
# Static dielectric constant tensor:
#      x y z
#    x 1.983380 0.000000 0.049470 
#    y 0.000000 1.820410 0.000000 
#    z 0.049470 0.000000 1.919370 
# 
# From -- ./inp_files/63374.got.cif
#   From: 2010.05.17/outbox.cif.g08.bks.cpg/sg15_32_cif.got.tgz:63374.got - 2010.06.03 18:47:42.
