data_PCOD9269977
_publ_section_title
;
Structure prediction by ZEFSAII (Michael W. Deem and Ramdas Pophale) SiO2 
 PCOD9269977
Probable space group: C 2/C
;
_chemical_formula_sum "Si O2"
_cell_formula_units_Z 56
_cell_length_a 5.045904
_cell_length_b 17.944019
_cell_length_c 30.541417
_cell_angle_alpha 90.000000
_cell_angle_beta 108.987372
_cell_angle_gamma 90.000000
_cell_volume 2614.874795
_symmetry_space_group_name_H-M "C 2/C"
_symmetry_group_IT_number 15
_symmetry_cell_setting 'monoclinic'
loop_
_space_group_symop_operation_xyz
x,y,z
-x,y,1/2-z
-x,-y,-z
x,-y,1/2+z
1/2+x,1/2+y,z
1/2-x,1/2+y,1/2-z
1/2-x,1/2-y,-z
1/2+x,1/2-y,1/2+z
loop_
_atom_site_type_symbol
_atom_site_label
_atom_site_fract_x
_atom_site_fract_y
_atom_site_fract_z
Si Si1 0.697172 0.363667 0.299558
Si Si2 0.582920 0.873858 0.435737
Si Si3 0.822616 0.956487 0.858574
Si Si4 0.206423 0.863453 0.148397
Si Si5 0.264157 0.534972 0.454749
Si Si6 0.687506 0.665837 0.986584
Si Si7 0.199315 0.954415 0.801181
O O1 0.500000 0.338453 0.250000
O O2 0.562225 0.337910 0.338494
O O3 0.695147 0.454671 0.300006
O O4 0.017910 0.343609 0.308995
O O5 0.682098 0.843546 0.394036
O O6 0.299151 0.848144 0.443373
O O7 0.859710 0.849959 0.477707
O O8 0.565471 0.964113 0.434465
O O9 0.857745 0.938423 0.911672
O O10 0.525040 0.932887 0.821358
O O11 0.063565 0.928964 0.839511
O O12 0.826544 0.046854 0.856717
O O13 0.500000 0.500000 0.500000
O O14 0.148613 0.605098 0.475198
O O15 0.750000 0.750000 0.000000
O O16 0.000000 0.930874 0.750000
#
# Coordination Sequence:
#
# PCOD9269977 Si02
#       7
#     8   8   8   8   8   8   8
#     4   9  15  23  37  61  94 126 153 192 246 294
#     4  10  20  35  53  73 100 137 173 207 252 303
#     4   9  17  27  43  66  93 128 167 203 247 304
#     4   9  16  26  41  62  90 125 163 196 235 296
#     4   9  20  35  54  77 106 141 178 215 257 311
#     4  11  22  36  53  75 103 134 170 215 259 302
#     4   9  16  26  40  62  95 129 159 200 256 308
#
# _framework density 21.415939999999999
#
# number of rings (size 3 to 8) (size 9 to 14) (size 15 to 20)
#    0.000    2.571    0.000    2.571    0.000   12.571 
#    0.000    0.000    0.000    0.000    0.000    0.000 
#    0.000   22.857    0.000    2.571    0.000    1.143 
#
# Total GULP energy -155951.808887 kJ/mol
# GULP energy per Si atom -5569.707460 kJ/mol
# Density = 2.136720 g / cm^3
# Si number density = 21.415940 Si / 1000 Ang^3
#
#
#
# Elastic Constant Matrix: (Units=GPa)
#
#
# Indices 1 2 3 4 5 6 
#
# 1 92.6961 3.4428 -4.8417 0.0000 -9.5787 0.0000
# 2 3.4428 47.3224 6.6475 0.0000 -6.3052 0.0000
# 3 -4.8417 6.6475 74.9885 0.0000 -13.7758 0.0000
# 4 0.0000 0.0000 0.0000 -0.1880 0.0000 -3.4460
# 5 -9.5787 -6.3052 -13.7758 0.0000 31.5326 0.0000
# 6 0.0000 0.0000 0.0000 -3.4460 0.0000 10.4839
#
#
#
# Elastic Compliance Matrix: (Units=1/GPa)
#
#
# Indices 1 2 3 4 5 6 
#
# 1 0.011298 -0.000502 0.001507 0.000000 0.003990 0.000000
# 2 -0.000502 0.021836 -0.001298 0.000000 0.003647 0.000000
# 3 0.001507 -0.001298 0.014770 0.000000 0.006651 0.000000
# 4 0.000000 0.000000 0.000000 -0.757190 0.000000 -0.248880
# 5 0.003990 0.003647 0.006651 0.000000 0.036560 0.000000
# 6 0.000000 0.000000 0.000000 -0.248880 0.000000 0.013580
#
#
# Mechanical properties :
#
#
# Convention : Reuss Voigt Hill
#
# Bulk Modulus (GPa) = 21.13409 25.05601 23.09505
# Shear Modulus (GPa) = -7.77862 22.34959 7.28549
#
# Velocity S-wave (km/s) = -1.90789 3.23398 1.84642
# Velocity P-wave (km/s) = 2.24420 5.06655 3.91831
#
# Compressibility (1/GPa) = 0.04731691
#
# Stress axis : x y z
#
# Youngs Moduli (GPa) = 88.51450 45.79500 67.70704
#
# Poissons Ratio (x) = 0.02299 -0.10203
# Poissons Ratio (y) = 0.04443 0.08790
# Poissons Ratio (z) = -0.13338 0.05945
#
# Static dielectric constant tensor:
#      x y z
#    x 1.790940 0.000000 0.028610 
#    y 0.000000 1.751740 0.000000 
#    z 0.028610 0.000000 1.938600 
# 
# From -- ./inp_files/286267.got.cif
#   From: 2010.05.17/outbox.cif.g08.bks.cpg/sg15_144_cif.got.tgz:286267.got - 2010.06.03 18:47:42.
