data_PCOD9269682
_publ_section_title
;
Structure prediction by ZEFSAII (Michael W. Deem and Ramdas Pophale) SiO2 
 PCOD9269682
Probable space group: C 2/C
;
_chemical_formula_sum "Si O2"
_cell_formula_units_Z 56
_cell_length_a 10.904087
_cell_length_b 9.157522
_cell_length_c 28.972961
_cell_angle_alpha 90.000000
_cell_angle_beta 61.402894
_cell_angle_gamma 90.000000
_cell_volume 2540.143281
_symmetry_space_group_name_H-M "C 2/C"
_symmetry_group_IT_number 15
_symmetry_cell_setting 'monoclinic'
loop_
_space_group_symop_operation_xyz
x,y,z
-x,y,1/2-z
-x,-y,-z
x,-y,1/2+z
1/2+x,1/2+y,z
1/2-x,1/2+y,1/2-z
1/2-x,1/2-y,-z
1/2+x,1/2-y,1/2+z
loop_
_atom_site_type_symbol
_atom_site_label
_atom_site_fract_x
_atom_site_fract_y
_atom_site_fract_z
Si Si1 0.127232 0.336803 0.694351
Si Si2 0.030434 0.442530 0.918163
Si Si3 0.887212 0.071264 0.053226
Si Si4 0.303109 0.888642 0.035388
Si Si5 0.380736 0.896995 0.365381
Si Si6 0.937881 0.861241 0.649167
Si Si7 0.523618 0.667486 0.624084
O O1 0.114923 0.507746 0.682004
O O2 0.280313 0.306430 0.687417
O O3 0.105627 0.253168 0.649600
O O4 0.000000 0.297153 0.750000
O O5 0.996185 0.542517 0.880735
O O6 0.062630 0.284872 0.890110
O O7 0.141768 0.511921 0.932352
O O8 0.890063 0.434090 0.974857
O O9 0.834818 0.218720 0.038293
O O10 0.942709 0.131745 0.092339
O O11 0.766723 0.951342 0.086228
O O12 0.000000 0.000000 0.000000
O O13 0.137565 0.898013 0.068235
O O14 0.433619 0.730714 0.352980
O O15 0.945381 0.032165 0.660633
#
# Coordination Sequence:
#
# PCOD9269682 Si02
#       7
#     8   8   8   8   8   8   8
#     4  10  23  45  66  88 119 152 203 265 315 369
#     4  10  20  34  59  83 121 168 205 237 295 350
#     4  11  22  35  55  88 127 165 207 249 291 358
#     4  11  20  35  55  87 120 163 206 241 284 359
#     4  10  21  40  60  86 127 164 202 255 306 363
#     4  11  23  40  61  91 123 157 207 251 306 368
#     4  11  22  39  62  85 120 159 196 251 307 355
#
# _framework density 22.046002000000001
#
# number of rings (size 3 to 8) (size 9 to 14) (size 15 to 20)
#    0.000    1.429    5.714    1.286    2.000    6.286 
#    0.000    0.714    0.000    0.000    0.000    0.000 
#    0.000    0.000    0.000    0.000    0.000    0.000 
#
# Total GULP energy -156299.239018 kJ/mol
# GULP energy per Si atom -5582.115679 kJ/mol
# Density = 2.199582 g / cm^3
# Si number density = 22.046002 Si / 1000 Ang^3
#
#
#
# Elastic Constant Matrix: (Units=GPa)
#
#
# Indices 1 2 3 4 5 6 
#
# 1 52.9601 40.1245 5.3111 0.0000 -7.0231 0.0000
# 2 40.1245 94.7939 6.1946 0.0000 -9.6626 0.0000
# 3 5.3111 6.1946 67.8602 0.0000 -28.5257 0.0000
# 4 0.0000 0.0000 0.0000 11.9269 0.0000 3.9865
# 5 -7.0231 -9.6626 -28.5257 0.0000 26.8508 0.0000
# 6 0.0000 0.0000 0.0000 3.9865 0.0000 49.0421
#
#
#
# Elastic Compliance Matrix: (Units=1/GPa)
#
#
# Indices 1 2 3 4 5 6 
#
# 1 0.028060 -0.011537 0.000356 0.000000 0.003566 0.000000
# 2 -0.011537 0.015748 0.001046 0.000000 0.003761 0.000000
# 3 0.000356 0.001046 0.026761 0.000000 0.028900 0.000000
# 4 0.000000 0.000000 0.000000 0.086186 0.000000 -0.007006
# 5 0.003566 0.003761 0.028900 0.000000 0.070232 0.000000
# 6 0.000000 0.000000 0.000000 -0.007006 0.000000 0.020960
#
#
# Mechanical properties :
#
#
# Convention : Reuss Voigt Hill
#
# Bulk Modulus (GPa) = 19.88088 35.43053 27.65570
# Shear Modulus (GPa) = 17.54486 28.49621 23.02054
#
# Velocity S-wave (km/s) = 2.82411 3.59915 3.23492
# Velocity P-wave (km/s) = 4.43527 5.77736 5.15022
#
# Compressibility (1/GPa) = 0.05029959
#
# Stress axis : x y z
#
# Youngs Moduli (GPa) = 35.63755 63.50146 37.36736
#
# Poissons Ratio (x) = 0.73263 -0.01330
# Poissons Ratio (y) = 0.41116 -0.03910
# Poissons Ratio (z) = -0.01268 -0.06645
#
# Static dielectric constant tensor:
#      x y z
#    x 1.849340 0.000000 -0.000470 
#    y 0.000000 1.881520 0.000000 
#    z -0.000470 0.000000 1.808060 
# 
# From -- ./inp_files/310205.got.cif
#   From: 2010.05.17/outbox.cif.g08.bks.cpg/sg15_156_cif.got.tgz:310205.got - 2010.06.03 18:47:42.
