data_PCOD9269009
_publ_section_title
;
Structure prediction by ZEFSAII (Michael W. Deem and Ramdas Pophale) SiO2 
 PCOD9269009
Probable space group: C 2/C
;
_chemical_formula_sum "Si O2"
_cell_formula_units_Z 48
_cell_length_a 11.312848
_cell_length_b 18.745301
_cell_length_c 11.240963
_cell_angle_alpha 90.000000
_cell_angle_beta 91.913138
_cell_angle_gamma 90.000000
_cell_volume 2382.460670
_symmetry_space_group_name_H-M "C 2/C"
_symmetry_group_IT_number 15
_symmetry_cell_setting 'monoclinic'
loop_
_space_group_symop_operation_xyz
x,y,z
-x,y,1/2-z
-x,-y,-z
x,-y,1/2+z
1/2+x,1/2+y,z
1/2-x,1/2+y,1/2-z
1/2-x,1/2-y,-z
1/2+x,1/2-y,1/2+z
loop_
_atom_site_type_symbol
_atom_site_label
_atom_site_fract_x
_atom_site_fract_y
_atom_site_fract_z
Si Si1 0.031674 0.082968 0.027325
Si Si2 0.866846 0.676087 0.396088
Si Si3 0.276649 0.422663 0.780129
Si Si4 0.959950 0.453913 0.614008
Si Si5 0.136083 0.933861 0.298684
Si Si6 0.821074 0.834768 0.412063
O O1 0.100376 0.092780 0.151291
O O2 0.122502 0.102606 0.924836
O O3 0.914288 0.128009 0.004036
O O4 0.000000 0.000000 0.000000
O O5 0.780626 0.641094 0.295018
O O6 0.878075 0.759966 0.373152
O O7 0.800383 0.673574 0.520814
O O8 0.980066 0.624396 0.398394
O O9 0.180920 0.447286 0.875902
O O10 0.300007 0.490231 0.695483
O O11 0.000000 0.479305 0.750000
O O12 0.000000 0.500000 0.500000
O O13 0.195233 0.885468 0.201127
O O14 0.000000 0.943677 0.250000
#
# Coordination Sequence:
#
# PCOD9269009 Si02
#       6
#     8   8   8   8   8   8
#     4  11  21  35  62  94 119 149 199 262 305 355
#     4  10  23  41  61  84 121 170 200 243 306 368
#     4  11  22  36  62  91 121 157 201 250 306 365
#     4  10  23  39  61  88 124 169 209 250 296 373
#     4  10  20  33  59  92 117 149 192 254 303 349
#     4  10  21  40  63  85 121 157 202 251 310 355
#
# _framework density 20.147238000000002
#
# number of rings (size 3 to 8) (size 9 to 14) (size 15 to 20)
#    0.000    1.667    3.333    2.000    4.667    6.000 
#    0.000    3.333    3.667    0.000    0.000    0.000 
#    0.000    0.000    0.000    0.000    0.000    0.000 
#
# Total GULP energy -133936.997400 kJ/mol
# GULP energy per Si atom -5580.708225 kJ/mol
# Density = 2.010138 g / cm^3
# Si number density = 20.147238 Si / 1000 Ang^3
#
#
#
# Elastic Constant Matrix: (Units=GPa)
#
#
# Indices 1 2 3 4 5 6 
#
# 1 37.7247 6.7542 7.7780 0.0000 -8.9680 0.0000
# 2 6.7542 99.4217 4.4269 0.0000 3.4901 0.0000
# 3 7.7780 4.4269 66.0232 0.0000 -16.8018 0.0000
# 4 0.0000 0.0000 0.0000 29.3572 0.0000 -4.2329
# 5 -8.9680 3.4901 -16.8018 0.0000 30.2663 0.0000
# 6 0.0000 0.0000 0.0000 -4.2329 0.0000 25.3475
#
#
#
# Elastic Compliance Matrix: (Units=1/GPa)
#
#
# Indices 1 2 3 4 5 6 
#
# 1 0.029103 -0.002213 -0.001189 0.000000 0.008219 0.000000
# 2 -0.002213 0.010341 -0.001052 0.000000 -0.002432 0.000000
# 3 -0.001189 -0.001052 0.017815 0.000000 0.009659 0.000000
# 4 0.000000 0.000000 0.000000 0.034904 0.000000 0.005829
# 5 0.008219 -0.002432 0.009659 0.000000 0.041117 0.000000
# 6 0.000000 0.000000 0.000000 0.005829 0.000000 0.040425
#
#
# Mechanical properties :
#
#
# Convention : Reuss Voigt Hill
#
# Bulk Modulus (GPa) = 20.68149 26.78753 23.73451
# Shear Modulus (GPa) = 25.16012 29.27491 27.21752
#
# Velocity S-wave (km/s) = 3.53769 3.81602 3.67949
# Velocity P-wave (km/s) = 5.19369 5.72196 5.46421
#
# Compressibility (1/GPa) = 0.04835242
#
# Stress axis : x y z
#
# Youngs Moduli (GPa) = 34.36093 96.70551 56.13350
#
# Poissons Ratio (x) = 0.21398 0.06672
# Poissons Ratio (y) = 0.07603 0.05903
# Poissons Ratio (z) = 0.04084 0.10169
#
# Static dielectric constant tensor:
#      x y z
#    x 1.734800 0.000000 -0.030700 
#    y 0.000000 1.710900 0.000000 
#    z -0.030700 0.000000 1.780050 
# 
# From -- ./inp_files/87379.got.cif
#   From: 2010.05.17/outbox.cif.g08.bks.cpg/sg15_44_cif.got.tgz:87379.got - 2010.06.03 18:47:42.
