data_PCOD9269001
_publ_section_title
;
Structure prediction by ZEFSAII (Michael W. Deem and Ramdas Pophale) SiO2 
 PCOD9269001
Probable space group: C 2/C
;
_chemical_formula_sum "Si O2"
_cell_formula_units_Z 56
_cell_length_a 14.367260
_cell_length_b 11.638496
_cell_length_c 14.798634
_cell_angle_alpha 90.000000
_cell_angle_beta 74.180759
_cell_angle_gamma 90.000000
_cell_volume 2380.809352
_symmetry_space_group_name_H-M "C 2/C"
_symmetry_group_IT_number 15
_symmetry_cell_setting 'monoclinic'
loop_
_space_group_symop_operation_xyz
x,y,z
-x,y,1/2-z
-x,-y,-z
x,-y,1/2+z
1/2+x,1/2+y,z
1/2-x,1/2+y,1/2-z
1/2-x,1/2-y,-z
1/2+x,1/2-y,1/2+z
loop_
_atom_site_type_symbol
_atom_site_label
_atom_site_fract_x
_atom_site_fract_y
_atom_site_fract_z
Si Si1 0.725482 0.566700 0.174316
Si Si2 0.174722 0.278864 0.100947
Si Si3 0.371588 0.663820 0.621185
Si Si4 0.358272 0.005978 0.981276
Si Si5 0.190984 0.082137 0.388130
Si Si6 0.440381 0.236616 0.484508
Si Si7 0.597766 0.351759 0.196858
O O1 0.648417 0.656990 0.150712
O O2 0.738066 0.591828 0.276489
O O3 0.683815 0.440023 0.173623
O O4 0.818710 0.562132 0.084793
O O5 0.256343 0.324584 0.147968
O O6 0.109078 0.385979 0.089832
O O7 0.250000 0.250000 0.000000
O O8 0.382192 0.526738 0.602893
O O9 0.448885 0.720907 0.533538
O O10 0.394912 0.718760 0.712556
O O11 0.268040 0.951065 0.946555
O O12 0.427194 0.899822 0.985447
O O13 0.131713 0.196390 0.429352
O O14 0.409353 0.284767 0.393700
O O15 0.500000 0.420093 0.250000
#
# Coordination Sequence:
#
# PCOD9269001 Si02
#       7
#     8   8   8   8   8   8   8
#     4  10  20  36  56  83 115 158 206 238 296 361
#     4   9  20  39  57  77 113 165 198 238 297 360
#     4   9  20  36  55  86 118 156 191 244 310 353
#     4  10  21  36  57  89 119 157 195 253 295 361
#     4  10  20  33  59  88 119 155 194 258 295 355
#     4  11  20  34  59  90 120 145 198 250 304 350
#     4   9  19  34  57  88 117 143 186 252 301 344
#
# _framework density 23.521412000000002
#
# number of rings (size 3 to 8) (size 9 to 14) (size 15 to 20)
#    0.000    2.286    1.429    0.857    2.000    2.286 
#    0.000    2.857    0.000    2.571    0.000    0.000 
#    0.000    0.000    0.000    0.000    0.000    0.000 
#
# Total GULP energy -155925.142290 kJ/mol
# GULP energy per Si atom -5568.755082 kJ/mol
# Density = 2.346788 g / cm^3
# Si number density = 23.521412 Si / 1000 Ang^3
#
#
#
# Elastic Constant Matrix: (Units=GPa)
#
#
# Indices 1 2 3 4 5 6 
#
# 1 34.0140 18.4460 10.0635 0.0000 2.8408 0.0000
# 2 18.4460 126.6818 29.8559 0.0000 -5.7889 0.0000
# 3 10.0635 29.8559 104.3781 0.0000 13.7927 0.0000
# 4 0.0000 0.0000 0.0000 -5.5265 0.0000 4.4850
# 5 2.8408 -5.7889 13.7927 0.0000 19.0691 0.0000
# 6 0.0000 0.0000 0.0000 4.4850 0.0000 41.3826
#
#
#
# Elastic Compliance Matrix: (Units=1/GPa)
#
#
# Indices 1 2 3 4 5 6 
#
# 1 0.032768 -0.004776 -0.001057 0.000000 -0.005567 0.000000
# 2 -0.004776 0.009573 -0.003047 0.000000 0.005822 0.000000
# 3 -0.001057 -0.003047 0.011782 0.000000 -0.009289 0.000000
# 4 0.000000 0.000000 0.000000 -0.166317 0.000000 0.018025
# 5 -0.005567 0.005822 -0.009289 0.000000 0.061756 0.000000
# 6 0.000000 0.000000 0.000000 0.018025 0.000000 0.022211
#
#
# Mechanical properties :
#
#
# Convention : Reuss Voigt Hill
#
# Bulk Modulus (GPa) = 27.50223 42.42275 34.96249
# Shear Modulus (GPa) = 3020.28352 24.76560 1522.52456
#
# Velocity S-wave (km/s) = 35.87262 3.24836 25.46955
# Velocity P-wave (km/s) = 41.56333 5.66957 29.66188
#
# Compressibility (1/GPa) = 0.03636069
#
# Stress axis : x y z
#
# Youngs Moduli (GPa) = 30.51786 104.45544 84.87831
#
# Poissons Ratio (x) = 0.49892 0.08975
# Poissons Ratio (y) = 0.14577 0.25864
# Poissons Ratio (z) = 0.03227 0.31829
#
# Static dielectric constant tensor:
#      x y z
#    x 2.348580 0.000000 0.174080 
#    y 0.000000 2.187180 0.000000 
#    z 0.174080 0.000000 1.967670 
# 
# From -- ./inp_files/161237.got.cif
#   From: 2010.05.17/outbox.cif.g08.bks.cpg/sg15_81_cif.got.tgz:161237.got - 2010.06.03 18:47:42.
