data_PCOD9269835
_publ_section_title
;
Structure prediction by ZEFSAII (Michael W. Deem and Ramdas Pophale) SiO2 
 PCOD9269835
Probable space group: C 2/C
;
_chemical_formula_sum "Si O2"
_cell_formula_units_Z 60
_cell_length_a 13.367090
_cell_length_b 24.311755
_cell_length_c 12.325742
_cell_angle_alpha 90.000000
_cell_angle_beta 123.724680
_cell_angle_gamma 90.000000
_cell_volume 3331.507646
_symmetry_space_group_name_H-M "C 2/C"
_symmetry_group_IT_number 15
_symmetry_cell_setting 'monoclinic'
loop_
_space_group_symop_operation_xyz
x,y,z
-x,y,1/2-z
-x,-y,-z
x,-y,1/2+z
1/2+x,1/2+y,z
1/2-x,1/2+y,1/2-z
1/2-x,1/2-y,-z
1/2+x,1/2-y,1/2+z
loop_
_atom_site_type_symbol
_atom_site_label
_atom_site_fract_x
_atom_site_fract_y
_atom_site_fract_z
Si Si1 0.688194 0.335720 0.011164
Si Si2 0.754587 0.078350 0.122839
Si Si3 0.065670 0.273437 0.404910
Si Si4 0.750313 0.415523 0.244336
Si Si5 0.370091 0.532302 0.638622
Si Si6 0.500000 0.091515 0.250000
Si Si7 0.507536 0.126826 0.500851
Si Si8 0.243706 0.961068 0.645470
O O1 0.669194 0.380324 0.904696
O O2 0.589321 0.288269 0.959978
O O3 0.808502 0.303651 0.046131
O O4 0.713847 0.369256 0.136200
O O5 0.615007 0.095837 0.037036
O O6 0.788816 0.075038 0.269159
O O7 0.773613 0.016735 0.091982
O O8 0.000736 0.312015 0.454057
O O9 0.000000 0.271645 0.250000
O O10 0.661914 0.421178 0.293704
O O11 0.746324 0.474999 0.182860
O O12 0.880298 0.402907 0.374281
O O13 0.500000 0.510127 0.750000
O O14 0.353968 0.549916 0.505878
O O15 0.512803 0.123841 0.372675
O O16 0.622370 0.056149 0.311702
#
# Coordination Sequence:
#
# PCOD9269835 Si02
#       8
#     8   8   8   8   8   4   8   8
#     4  10  20  37  56  86 113 142 192 235 293 335
#     4   9  21  35  54  85 115 153 186 235 279 336
#     4  10  20  35  59  84 111 145 187 244 289 340
#     4  11  21  35  61  83 116 156 188 238 292 337
#     4  11  23  38  53  79 122 163 194 220 275 356
#     4  10  20  34  62  88 122 142 188 244 288 338
#     4  10  20  36  61  87 114 147 191 246 300 327
#     4  10  21  34  56  89 117 156 192 227 278 355
#
# _framework density 18.009865000000001
#
# number of rings (size 3 to 8) (size 9 to 14) (size 15 to 20)
#    0.000    1.867    4.000    0.000    1.867    4.267 
#    2.400    0.000    1.467    0.800    0.000    0.000 
#    0.000    0.000    0.000    0.000    0.000    0.000 
#
# Total GULP energy -167247.842489 kJ/mol
# GULP energy per Si atom -5574.928083 kJ/mol
# Density = 1.796887 g / cm^3
# Si number density = 18.009865 Si / 1000 Ang^3
#
#
#
# Elastic Constant Matrix: (Units=GPa)
#
#
# Indices 1 2 3 4 5 6 
#
# 1 22.1703 14.9606 27.9231 0.0000 -11.6621 0.0000
# 2 14.9606 76.1199 46.3270 0.0000 -14.2921 0.0000
# 3 27.9231 46.3270 136.0786 0.0000 -22.4530 0.0000
# 4 0.0000 0.0000 0.0000 29.3471 0.0000 2.9901
# 5 -11.6621 -14.2921 -22.4530 0.0000 19.5216 0.0000
# 6 0.0000 0.0000 0.0000 2.9901 0.0000 10.4986
#
#
#
# Elastic Compliance Matrix: (Units=1/GPa)
#
#
# Indices 1 2 3 4 5 6 
#
# 1 0.075836 -0.003280 -0.009091 0.000000 0.032447 0.000000
# 2 -0.003280 0.017517 -0.004317 0.000000 0.005900 0.000000
# 3 -0.009091 -0.004317 0.011437 0.000000 0.004562 0.000000
# 4 0.000000 0.000000 0.000000 0.035093 0.000000 -0.009995
# 5 0.032447 0.005900 0.004562 0.000000 0.080176 0.000000
# 6 0.000000 0.000000 0.000000 -0.009995 0.000000 0.098098
#
#
# Mechanical properties :
#
#
# Convention : Reuss Voigt Hill
#
# Bulk Modulus (GPa) = 14.00288 45.86559 29.93423
# Shear Modulus (GPa) = 13.32134 21.55066 17.43600
#
# Velocity S-wave (km/s) = 2.72264 3.46295 3.11486
# Velocity P-wave (km/s) = 4.20424 6.44295 5.44000
#
# Compressibility (1/GPa) = 0.07141388
#
# Stress axis : x y z
#
# Youngs Moduli (GPa) = 13.18628 57.08784 87.43782
#
# Poissons Ratio (x) = 0.18724 0.79492
# Poissons Ratio (y) = 0.04325 0.37747
# Poissons Ratio (z) = 0.11988 0.24645
#
# Static dielectric constant tensor:
#      x y z
#    x 1.640490 0.000000 -0.010570 
#    y 0.000000 1.610300 0.000000 
#    z -0.010570 0.000000 1.634390 
# 
# From -- ./inp_files/100676.got.cif
#   From: 2010.05.17/outbox.cif.g08.bks.cpg/sg15_51_cif.got.tgz:100676.got - 2010.06.03 18:47:42.
