data_PCOD9269207
_publ_section_title
;
Structure prediction by ZEFSAII (Michael W. Deem and Ramdas Pophale) SiO2 
 PCOD9269207
Probable space group: C 2/C
;
_chemical_formula_sum "Si O2"
_cell_formula_units_Z 36
_cell_length_a 19.412138
_cell_length_b 16.090537
_cell_length_c 5.856966
_cell_angle_alpha 90.000000
_cell_angle_beta 58.716947
_cell_angle_gamma 90.000000
_cell_volume 1563.456599
_symmetry_space_group_name_H-M "C 2/C"
_symmetry_group_IT_number 15
_symmetry_cell_setting 'monoclinic'
loop_
_space_group_symop_operation_xyz
x,y,z
-x,y,1/2-z
-x,-y,-z
x,-y,1/2+z
1/2+x,1/2+y,z
1/2-x,1/2+y,1/2-z
1/2-x,1/2-y,-z
1/2+x,1/2-y,1/2+z
loop_
_atom_site_type_symbol
_atom_site_label
_atom_site_fract_x
_atom_site_fract_y
_atom_site_fract_z
Si Si1 0.076656 0.279042 0.734516
Si Si2 0.906816 0.472262 0.178528
Si Si3 0.500000 0.340687 0.750000
Si Si4 0.654532 0.334217 0.713576
Si Si5 0.675431 0.163661 0.449024
O O1 0.122348 0.217396 0.485826
O O2 0.000000 0.322212 0.750000
O O3 0.034846 0.219340 0.994592
O O4 0.136564 0.339793 0.765804
O O5 0.873944 0.506064 0.482564
O O6 0.887308 0.376027 0.265789
O O7 0.000000 0.500000 0.000000
O O8 0.578981 0.382752 0.729757
O O9 0.680841 0.262613 0.487844
O O10 0.737357 0.375665 0.652331
#
# Coordination Sequence:
#
# PCOD9269207 Si02
#       5
#     8   8   4   8   8
#     4   9  17  29  48  76 112 145 184 238 305 367
#     4  10  24  43  57  80 116 166 215 244 285 353
#     4   8  16  30  42  78 110 136 172 214 310 376
#     4   9  18  32  54  82 112 145 189 256 317 352
#     4  10  20  34  53  80 110 151 206 250 297 355
#
# _framework density 23.025905000000002
#
# number of rings (size 3 to 8) (size 9 to 14) (size 15 to 20)
#    0.000    2.667    0.000    0.667    3.111   10.667 
#    8.000    0.000    0.000    0.000    0.000    1.556 
#    0.000    0.000    0.000    0.000    0.000    0.000 
#
# Total GULP energy -100233.924856 kJ/mol
# GULP energy per Si atom -5568.551381 kJ/mol
# Density = 2.297350 g / cm^3
# Si number density = 23.025905 Si / 1000 Ang^3
#
#
#
# Elastic Constant Matrix: (Units=GPa)
#
#
# Indices 1 2 3 4 5 6 
#
# 1 233.3323 13.8255 58.2443 0.0000 -11.8243 0.0000
# 2 13.8255 15.3974 7.8620 0.0000 1.2161 0.0000
# 3 58.2443 7.8620 90.8242 0.0000 16.8678 0.0000
# 4 0.0000 0.0000 0.0000 12.1092 0.0000 -6.8324
# 5 -11.8243 1.2161 16.8678 0.0000 41.8976 0.0000
# 6 0.0000 0.0000 0.0000 -6.8324 0.0000 12.8023
#
#
#
# Elastic Compliance Matrix: (Units=1/GPa)
#
#
# Indices 1 2 3 4 5 6 
#
# 1 0.005628 -0.003305 -0.003930 0.000000 0.003266 0.000000
# 2 -0.003305 0.069897 -0.003654 0.000000 -0.001490 0.000000
# 3 -0.003930 -0.003654 0.015167 0.000000 -0.007109 0.000000
# 4 0.000000 0.000000 0.000000 0.118165 0.000000 0.063063
# 5 0.003266 -0.001490 -0.007109 0.000000 0.027695 0.000000
# 6 0.000000 0.000000 0.000000 0.063063 0.000000 0.111767
#
#
# Mechanical properties :
#
#
# Convention : Reuss Voigt Hill
#
# Bulk Modulus (GPa) = 14.51078 55.49083 35.00080
# Shear Modulus (GPa) = 12.72044 30.66995 21.69519
#
# Velocity S-wave (km/s) = 2.35295 3.65358 3.07287
# Velocity P-wave (km/s) = 3.70101 6.47687 5.27481
#
# Compressibility (1/GPa) = 0.06891430
#
# Stress axis : x y z
#
# Youngs Moduli (GPa) = 177.68276 14.30672 65.93276
#
# Poissons Ratio (x) = 0.04728 0.25910
# Poissons Ratio (y) = 0.58722 0.24094
# Poissons Ratio (z) = 0.69824 0.05228
#
# Static dielectric constant tensor:
#      x y z
#    x 2.031130 0.000000 0.020450 
#    y 0.000000 1.883040 0.000000 
#    z 0.020450 0.000000 1.906690 
# 
# From -- ./inp_files/10089.got.cif
#   From: 2010.05.17/outbox.cif.g08.bks.cpg/sg15_6_cif.got.tgz:10089.got - 2010.06.03 18:47:42.
