data_PCOD9269486
_publ_section_title
;
Structure prediction by ZEFSAII (Michael W. Deem and Ramdas Pophale) SiO2 
 PCOD9269486
Probable space group: C 2/C
;
_chemical_formula_sum "Si O2"
_cell_formula_units_Z 48
_cell_length_a 12.032805
_cell_length_b 19.111251
_cell_length_c 20.219034
_cell_angle_alpha 90.000000
_cell_angle_beta 147.822787
_cell_angle_gamma 90.000000
_cell_volume 2476.101160
_symmetry_space_group_name_H-M "C 2/C"
_symmetry_group_IT_number 15
_symmetry_cell_setting 'monoclinic'
loop_
_space_group_symop_operation_xyz
x,y,z
-x,y,1/2-z
-x,-y,-z
x,-y,1/2+z
1/2+x,1/2+y,z
1/2-x,1/2+y,1/2-z
1/2-x,1/2-y,-z
1/2+x,1/2-y,1/2+z
loop_
_atom_site_type_symbol
_atom_site_label
_atom_site_fract_x
_atom_site_fract_y
_atom_site_fract_z
Si Si1 0.857727 0.189428 0.428433
Si Si2 0.321034 0.648701 0.809955
Si Si3 0.015279 0.703090 0.157504
Si Si4 0.804610 0.969483 0.199051
Si Si5 0.579048 0.108009 0.064744
Si Si6 0.090644 0.698737 0.955833
O O1 0.694456 0.163638 0.290738
O O2 0.698675 0.203181 0.409120
O O3 0.055208 0.148236 0.558303
O O4 0.958387 0.255172 0.441425
O O5 0.417945 0.716470 0.821062
O O6 0.357815 0.577000 0.789526
O O7 0.072410 0.664769 0.678635
O O8 0.014285 0.663407 0.087667
O O9 0.000000 0.975170 0.250000
O O10 0.713112 0.046328 0.164714
O O11 0.627239 0.926226 0.070536
O O12 0.690785 0.142147 0.056425
O O13 0.250000 0.750000 0.000000
#
# Coordination Sequence:
#
# PCOD9269486 Si02
#       6
#     8   8   8   8   8   8
#     4  10  20  34  56  93 113 151 191 255 296 343
#     4  10  20  34  57  85 114 151 195 246 293 352
#     4  10  20  34  62  88 120 146 198 247 304 349
#     4  10  22  35  60  86 119 156 197 246 302 357
#     4  10  21  40  57  88 121 154 197 249 297 360
#     4  10  22  36  56  86 121 156 195 247 302 351
#
# _framework density 19.385316
#
# number of rings (size 3 to 8) (size 9 to 14) (size 15 to 20)
#    0.000    2.000    1.667    1.500    7.000    3.333 
#    0.000    0.833    0.000   12.000    0.000    0.000 
#    0.000    0.000    0.000    0.000    0.000    0.000 
#
# Total GULP energy -133642.077633 kJ/mol
# GULP energy per Si atom -5568.419901 kJ/mol
# Density = 1.934119 g / cm^3
# Si number density = 19.385316 Si / 1000 Ang^3
#
#
#
# Elastic Constant Matrix: (Units=GPa)
#
#
# Indices 1 2 3 4 5 6 
#
# 1 67.0580 34.1550 27.1099 -0.0001 -4.9835 0.0000
# 2 34.1550 76.8490 27.5463 -0.0008 0.0789 -0.0001
# 3 27.1099 27.5463 90.2264 -0.0013 -20.1641 -0.0002
# 4 -0.0001 -0.0008 -0.0013 20.6111 -0.0003 -8.6308
# 5 -4.9835 0.0789 -20.1641 -0.0003 20.4985 0.0000
# 6 0.0000 -0.0001 -0.0002 -8.6308 0.0000 27.1579
#
#
#
# Elastic Compliance Matrix: (Units=1/GPa)
#
#
# Indices 1 2 3 4 5 6 
#
# 1 0.020400 -0.007868 -0.003348 -0.000001 0.001696 0.000000
# 2 -0.007868 0.018184 -0.004654 0.000000 -0.006561 0.000000
# 3 -0.003348 -0.004654 0.017089 0.000001 0.016014 0.000001
# 4 -0.000001 0.000000 0.000001 0.055965 0.000002 0.017786
# 5 0.001696 -0.006561 0.016014 0.000002 0.064974 0.000001
# 6 0.000000 0.000000 0.000001 0.017786 0.000001 0.042474
#
#
# Mechanical properties :
#
#
# Convention : Reuss Voigt Hill
#
# Bulk Modulus (GPa) = 41.78383 45.75064 43.76724
# Shear Modulus (GPa) = 19.31965 23.34168 21.33066
#
# Velocity S-wave (km/s) = 3.16034 3.47377 3.32075
# Velocity P-wave (km/s) = 5.90916 6.30407 6.10981
#
# Compressibility (1/GPa) = 0.02393270
#
# Stress axis : x y z
#
# Youngs Moduli (GPa) = 49.02067 54.99240 58.51745
#
# Poissons Ratio (x) = 0.43268 0.19592
# Poissons Ratio (y) = 0.38570 0.27233
# Poissons Ratio (z) = 0.16413 0.25593
#
# Static dielectric constant tensor:
#      x y z
#    x 1.646170 0.000000 -0.015800 
#    y 0.000000 1.717300 0.000000 
#    z -0.015800 0.000000 1.749160 
# 
# From -- ./inp_files/240465.got.cif
#   From: 2010.05.17/outbox.cif.g08.bks.cpg/sg15_121_cif.got.tgz:240465.got - 2010.06.03 18:47:42.
