data_PCOD9269466
_publ_section_title
;
Structure prediction by ZEFSAII (Michael W. Deem and Ramdas Pophale) SiO2 
 PCOD9269466
Probable space group: C 2/C
;
_chemical_formula_sum "Si O2"
_cell_formula_units_Z 40
_cell_length_a 12.915625
_cell_length_b 31.331047
_cell_length_c 4.905210
_cell_angle_alpha 90.000000
_cell_angle_beta 89.650090
_cell_angle_gamma 90.000000
_cell_volume 1984.905528
_symmetry_space_group_name_H-M "C 2/C"
_symmetry_group_IT_number 15
_symmetry_cell_setting 'monoclinic'
loop_
_space_group_symop_operation_xyz
x,y,z
-x,y,1/2-z
-x,-y,-z
x,-y,1/2+z
1/2+x,1/2+y,z
1/2-x,1/2+y,1/2-z
1/2-x,1/2-y,-z
1/2+x,1/2-y,1/2+z
loop_
_atom_site_type_symbol
_atom_site_label
_atom_site_fract_x
_atom_site_fract_y
_atom_site_fract_z
Si Si1 0.265377 0.713456 0.770740
Si Si2 0.378666 0.684297 0.265963
Si Si3 0.120776 0.363590 0.314466
Si Si4 0.113395 0.970653 0.822102
Si Si5 0.758803 0.394876 0.666274
O O1 0.323402 0.718064 0.477901
O O2 0.163756 0.684017 0.742449
O O3 0.250000 0.750000 0.000000
O O4 0.343449 0.685221 0.952702
O O5 0.500000 0.690242 0.250000
O O6 0.333733 0.639393 0.368772
O O7 0.159241 0.375313 0.616965
O O8 0.000000 0.365373 0.250000
O O9 0.180632 0.396327 0.117221
O O10 0.205285 0.938194 0.759233
O O11 0.000000 0.951560 0.750000
O O12 0.118798 0.012394 0.629034
#
# Coordination Sequence:
#
# PCOD9269466 Si02
#       5
#     8   8   8   8   8
#     4  10  21  36  54  80 110 140 181 230 279 332
#     4  10  20  35  55  80 108 141 178 220 278 334
#     4  10  21  37  58  80 105 148 195 232 274 323
#     4  10  20  34  56  87 118 147 177 218 282 344
#     4  10  20  36  58  81 111 144 184 232 270 330
#
# _framework density 20.152090999999999
#
# number of rings (size 3 to 8) (size 9 to 14) (size 15 to 20)
#    0.000    2.000    0.000    3.600    0.000    0.800 
#    0.000   12.000    0.000   12.000    0.000    0.000 
#    0.000    0.000    0.000    0.000    0.000    0.000 
#
# Total GULP energy -111444.165783 kJ/mol
# GULP energy per Si atom -5572.208289 kJ/mol
# Density = 2.010622 g / cm^3
# Si number density = 20.152091 Si / 1000 Ang^3
#
#
#
# Elastic Constant Matrix: (Units=GPa)
#
#
# Indices 1 2 3 4 5 6 
#
# 1 107.7884 25.7635 16.9955 0.0000 -13.9228 0.0000
# 2 25.7635 39.6119 0.5646 0.0000 -7.0301 0.0000
# 3 16.9955 0.5646 105.8373 0.0000 -3.4036 0.0000
# 4 0.0000 0.0000 0.0000 20.4605 0.0000 -5.5740
# 5 -13.9228 -7.0301 -3.4036 0.0000 21.8280 0.0000
# 6 0.0000 0.0000 0.0000 -5.5740 0.0000 12.1544
#
#
#
# Elastic Compliance Matrix: (Units=1/GPa)
#
#
# Indices 1 2 3 4 5 6 
#
# 1 0.011819 -0.006758 -0.001698 0.000000 0.005097 0.000000
# 2 -0.006758 0.030642 0.001106 0.000000 0.005730 0.000000
# 3 -0.001698 0.001106 0.009741 0.000000 0.000792 0.000000
# 4 0.000000 0.000000 0.000000 0.055853 0.000000 0.025614
# 5 0.005097 0.005730 0.000792 0.000000 0.051033 0.000000
# 6 0.000000 0.000000 0.000000 0.025614 0.000000 0.094021
#
#
# Mechanical properties :
#
#
# Convention : Reuss Voigt Hill
#
# Bulk Modulus (GPa) = 26.66582 37.76499 32.21541
# Shear Modulus (GPa) = 17.83749 24.88286 21.36017
#
# Velocity S-wave (km/s) = 2.97836 3.51772 3.25922
# Velocity P-wave (km/s) = 5.00885 5.93968 5.49401
#
# Compressibility (1/GPa) = 0.03750119
#
# Stress axis : x y z
#
# Youngs Moduli (GPa) = 84.61034 32.63533 102.66213
#
# Poissons Ratio (x) = 0.22055 0.17431
# Poissons Ratio (y) = 0.57181 -0.11355
# Poissons Ratio (z) = 0.14366 -0.03610
#
# Static dielectric constant tensor:
#      x y z
#    x 1.709810 0.000000 -0.004840 
#    y 0.000000 1.814520 0.000000 
#    z -0.004840 0.000000 1.727560 
# 
# From -- ./inp_files/5491.got.cif
#   From: 2010.05.17/outbox.cif.g08.bks.cpg/sg15_3_cif.got.tgz:5491.got - 2010.06.03 18:47:42.
