data_PCOD9269575
_publ_section_title
;
Structure prediction by ZEFSAII (Michael W. Deem and Ramdas Pophale) SiO2 
 PCOD9269575
Probable space group: C 2/C
;
_chemical_formula_sum "Si O2"
_cell_formula_units_Z 56
_cell_length_a 9.114482
_cell_length_b 33.787241
_cell_length_c 12.882388
_cell_angle_alpha 90.000000
_cell_angle_beta 136.198260
_cell_angle_gamma 90.000000
_cell_volume 2745.938395
_symmetry_space_group_name_H-M "C 2/C"
_symmetry_group_IT_number 15
_symmetry_cell_setting 'monoclinic'
loop_
_space_group_symop_operation_xyz
x,y,z
-x,y,1/2-z
-x,-y,-z
x,-y,1/2+z
1/2+x,1/2+y,z
1/2-x,1/2+y,1/2-z
1/2-x,1/2-y,-z
1/2+x,1/2-y,1/2+z
loop_
_atom_site_type_symbol
_atom_site_label
_atom_site_fract_x
_atom_site_fract_y
_atom_site_fract_z
Si Si1 0.324918 0.954960 0.834610
Si Si2 0.262757 0.999339 0.013589
Si Si3 0.950759 0.703839 0.550396
Si Si4 0.456395 0.131826 0.398376
Si Si5 0.642951 0.358887 0.545227
Si Si6 0.973653 0.942225 0.478433
Si Si7 0.843947 0.785917 0.404268
O O1 0.414399 0.912512 0.915504
O O2 0.139929 0.947412 0.658278
O O3 0.249069 0.979221 0.894585
O O4 0.514846 0.977975 0.875192
O O5 0.079890 0.031779 0.941934
O O6 0.231492 0.965066 0.084123
O O7 0.954362 0.663713 0.487838
O O8 0.919261 0.740906 0.457223
O O9 0.761630 0.703322 0.538273
O O10 0.163200 0.710711 0.725104
O O11 0.678591 0.133650 0.450499
O O12 0.271676 0.140790 0.219689
O O13 0.477468 0.395659 0.457523
O O14 0.526544 0.317286 0.473528
#
# Coordination Sequence:
#
# PCOD9269575 Si02
#       7
#     8   8   8   8   8   8   8
#     4  10  20  37  57  82 114 153 198 245 293 349
#     4  10  20  34  58  82 112 150 198 244 290 344
#     4  10  22  41  64  91 122 153 193 239 291 351
#     4  10  21  38  62  88 119 158 200 243 294 351
#     4  10  21  38  62  88 119 158 200 243 294 351
#     4  10  20  37  57  82 114 153 198 245 293 349
#     4  10  22  41  64  91 122 153 193 239 291 351
#
# _framework density 20.393757000000001
#
# number of rings (size 3 to 8) (size 9 to 14) (size 15 to 20)
#    0.000    2.000    1.429    1.714    2.000    2.857 
#    0.000    8.571    0.000    0.000    0.000    0.000 
#    0.000    0.000    0.000    0.000    0.000    0.000 
#
# Total GULP energy -156494.487066 kJ/mol
# GULP energy per Si atom -5589.088824 kJ/mol
# Density = 2.034734 g / cm^3
# Si number density = 20.393757 Si / 1000 Ang^3
#
#
#
# Elastic Constant Matrix: (Units=GPa)
#
#
# Indices 1 2 3 4 5 6 
#
# 1 63.5365 42.1139 16.4272 0.0000 -10.5002 0.0000
# 2 42.1139 145.0155 41.4918 0.0000 -9.4052 0.0000
# 3 16.4272 41.4918 24.1677 0.0000 -7.7214 0.0000
# 4 0.0000 0.0000 0.0000 34.0291 0.0000 0.2493
# 5 -10.5002 -9.4052 -7.7214 0.0000 27.0455 0.0000
# 6 0.0000 0.0000 0.0000 0.2493 0.0000 26.6695
#
#
#
# Elastic Compliance Matrix: (Units=1/GPa)
#
#
# Indices 1 2 3 4 5 6 
#
# 1 0.020712 -0.004170 -0.005296 0.000000 0.005079 0.000000
# 2 -0.004170 0.014505 -0.023079 0.000000 -0.003164 0.000000
# 3 -0.005296 -0.023079 0.089547 0.000000 0.015483 0.000000
# 4 0.000000 0.000000 0.000000 0.029389 0.000000 -0.000275
# 5 0.005079 -0.003164 0.015483 0.000000 0.042267 0.000000
# 6 0.000000 0.000000 0.000000 -0.000275 0.000000 0.037499
#
#
# Mechanical properties :
#
#
# Convention : Reuss Voigt Hill
#
# Bulk Modulus (GPa) = 16.75788 48.08728 32.42258
# Shear Modulus (GPa) = 15.67896 26.39459 21.03677
#
# Velocity S-wave (km/s) = 2.77575 3.60147 3.21523
# Velocity P-wave (km/s) = 4.30210 6.39724 5.45127
#
# Compressibility (1/GPa) = 0.05967341
#
# Stress axis : x y z
#
# Youngs Moduli (GPa) = 48.28177 68.94156 11.16737
#
# Poissons Ratio (x) = 0.28750 0.05914
# Poissons Ratio (y) = 0.20135 0.25773
# Poissons Ratio (z) = 0.25569 1.59110
#
# Static dielectric constant tensor:
#      x y z
#    x 1.719820 0.000000 0.013970 
#    y 0.000000 1.708230 0.000000 
#    z 0.013970 0.000000 1.728560 
# 
# From -- ./inp_files/139560.got.cif
#   From: 2010.05.17/outbox.cif.g08.bks.cpg/sg15_70_cif.got.tgz:139560.got - 2010.06.03 18:47:42.
