data_PCOD9269668
_publ_section_title
;
Structure prediction by ZEFSAII (Michael W. Deem and Ramdas Pophale) SiO2 
 PCOD9269668
Probable space group: C 2/C
;
_chemical_formula_sum "Si O2"
_cell_formula_units_Z 52
_cell_length_a 12.201150
_cell_length_b 22.470429
_cell_length_c 14.359852
_cell_angle_alpha 90.000000
_cell_angle_beta 136.387530
_cell_angle_gamma 90.000000
_cell_volume 2715.631828
_symmetry_space_group_name_H-M "C 2/C"
_symmetry_group_IT_number 15
_symmetry_cell_setting 'monoclinic'
loop_
_space_group_symop_operation_xyz
x,y,z
-x,y,1/2-z
-x,-y,-z
x,-y,1/2+z
1/2+x,1/2+y,z
1/2-x,1/2+y,1/2-z
1/2-x,1/2-y,-z
1/2+x,1/2-y,1/2+z
loop_
_atom_site_type_symbol
_atom_site_label
_atom_site_fract_x
_atom_site_fract_y
_atom_site_fract_z
Si Si1 0.083976 0.310773 0.070996
Si Si2 0.099951 0.177026 0.111299
Si Si3 0.830208 0.377548 0.019257
Si Si4 0.433377 0.981215 0.313767
Si Si5 0.056021 0.383204 0.677602
Si Si6 0.500000 0.651549 0.250000
Si Si7 0.787433 0.879236 0.345455
O O1 0.108675 0.241385 0.069812
O O2 0.219122 0.337657 0.221724
O O3 0.918896 0.322536 0.025413
O O4 0.062076 0.347330 0.962549
O O5 0.270239 0.146135 0.220402
O O6 0.039509 0.187078 0.180385
O O7 0.969177 0.135770 0.979892
O O8 0.807052 0.367563 0.115387
O O9 0.942462 0.433851 0.068094
O O10 0.656292 0.385959 0.870118
O O11 0.500000 0.986544 0.250000
O O12 0.264546 0.946888 0.210701
O O13 0.432271 0.048199 0.348122
O O14 0.000000 0.381005 0.750000
#
# Coordination Sequence:
#
# PCOD9269668 Si02
#       7
#     8   8   8   8   8   4   8
#     4  11  21  37  58  88 117 159 195 230 297 350
#     4  11  23  37  58  91 121 150 193 242 293 347
#     4   9  18  34  58  92 122 155 179 236 298 359
#     4   8  17  37  60  81 115 156 197 233 289 347
#     4  11  24  42  62  80 110 163 209 240 279 337
#     4  10  20  34  58  96 126 146 182 234 300 360
#     4   9  20  34  58  90 124 147 184 241 301 352
#
# _framework density 19.148399000000001
#
# number of rings (size 3 to 8) (size 9 to 14) (size 15 to 20)
#    0.000    2.154    1.538    2.308    2.154    4.923 
#    0.000    0.769    0.000    0.000    0.000    0.000 
#    0.000    0.000    0.000    0.000    0.000    0.000 
#
# Total GULP energy -144975.249140 kJ/mol
# GULP energy per Si atom -5575.971121 kJ/mol
# Density = 1.910482 g / cm^3
# Si number density = 19.148399 Si / 1000 Ang^3
#
#
#
# Elastic Constant Matrix: (Units=GPa)
#
#
# Indices 1 2 3 4 5 6 
#
# 1 40.6798 4.9248 14.5753 0.0000 -10.5560 0.0000
# 2 4.9248 118.4378 32.1605 0.0000 4.3831 0.0000
# 3 14.5753 32.1605 120.8911 0.0000 -1.5986 0.0000
# 4 0.0000 0.0000 0.0000 -58.8507 0.0000 27.0947
# 5 -10.5560 4.3831 -1.5986 0.0000 30.8837 0.0000
# 6 0.0000 0.0000 0.0000 27.0947 0.0000 -9.5934
#
#
#
# Elastic Compliance Matrix: (Units=1/GPa)
#
#
# Indices 1 2 3 4 5 6 
#
# 1 0.028266 -0.000689 -0.003098 0.000000 0.009599 0.000000
# 2 -0.000689 0.009180 -0.002381 0.000000 -0.001662 0.000000
# 3 -0.003098 -0.002381 0.009276 0.000000 -0.000241 0.000000
# 4 0.000000 0.000000 0.000000 0.056583 0.000000 0.159807
# 5 0.009599 -0.001662 -0.000241 0.000000 0.035884 0.000000
# 6 0.000000 0.000000 0.000000 0.159807 0.000000 0.347107
#
#
# Mechanical properties :
#
#
# Convention : Reuss Voigt Hill
#
# Bulk Modulus (GPa) = 29.08180 42.59224 35.83702
# Shear Modulus (GPa) = 9.80213 7.71113 8.75663
#
# Velocity S-wave (km/s) = 2.26498 2.00893 2.14079
# Velocity P-wave (km/s) = 4.69689 5.26047 4.98665
#
# Compressibility (1/GPa) = 0.03438576
#
# Stress axis : x y z
#
# Youngs Moduli (GPa) = 35.37778 108.93315 107.80980
#
# Poissons Ratio (x) = 0.07511 0.33395
# Poissons Ratio (y) = 0.02439 0.25669
# Poissons Ratio (z) = 0.10959 0.25937
#
# Static dielectric constant tensor:
#      x y z
#    x 1.671810 0.000000 -0.029030 
#    y 0.000000 1.667620 0.000000 
#    z -0.029030 0.000000 1.689770 
# 
# From -- ./inp_files/148128.got.cif
#   From: 2010.05.17/outbox.cif.g08.bks.cpg/sg15_75_cif.got.tgz:148128.got - 2010.06.03 18:47:42.
