data_PCOD9269751
_publ_section_title
;
Structure prediction by ZEFSAII (Michael W. Deem and Ramdas Pophale) SiO2 
 PCOD9269751
Probable space group: C 2/C
;
_chemical_formula_sum "Si O2"
_cell_formula_units_Z 48
_cell_length_a 19.587773
_cell_length_b 22.952842
_cell_length_c 8.083609
_cell_angle_alpha 90.000000
_cell_angle_beta 143.792352
_cell_angle_gamma 90.000000
_cell_volume 2146.859556
_symmetry_space_group_name_H-M "C 2/C"
_symmetry_group_IT_number 15
_symmetry_cell_setting 'monoclinic'
loop_
_space_group_symop_operation_xyz
x,y,z
-x,y,1/2-z
-x,-y,-z
x,-y,1/2+z
1/2+x,1/2+y,z
1/2-x,1/2+y,1/2-z
1/2-x,1/2-y,-z
1/2+x,1/2-y,1/2+z
loop_
_atom_site_type_symbol
_atom_site_label
_atom_site_fract_x
_atom_site_fract_y
_atom_site_fract_z
Si Si1 0.938331 0.406040 0.305485
Si Si2 0.668668 0.399084 0.465377
Si Si3 0.763676 0.686018 0.594293
Si Si4 0.923347 0.894526 0.853342
Si Si5 0.341652 0.872544 0.557045
Si Si6 0.235642 0.525604 0.840004
O O1 0.840156 0.355537 0.122113
O O2 0.870558 0.462350 0.242514
O O3 0.000000 0.413558 0.250000
O O4 0.034387 0.387062 0.626332
O O5 0.616381 0.380847 0.537179
O O6 0.758874 0.358554 0.548976
O O7 0.738869 0.458586 0.639821
O O8 0.559146 0.405438 0.127574
O O9 0.750000 0.750000 0.500000
O O10 0.635834 0.657660 0.364097
O O11 0.829074 0.677641 0.896260
O O12 0.853833 0.950409 0.652392
O O13 0.293621 0.931189 0.369997
#
# Coordination Sequence:
#
# PCOD9269751 Si02
#       6
#     8   8   8   8   8   8
#     4  10  21  42  64  93 132 159 217 271 310 382
#     4  11  20  36  58  90 129 163 208 249 316 372
#     4  10  22  44  65  87 119 162 218 271 329 377
#     4   9  21  38  56  87 129 161 207 268 297 378
#     4  10  21  38  62  91 126 165 211 260 311 381
#     4  10  20  34  60  88 126 173 204 245 312 380
#
# _framework density 22.358241
#
# number of rings (size 3 to 8) (size 9 to 14) (size 15 to 20)
#    0.000    2.333    0.000    5.500    0.000    4.667 
#    9.000    6.667    0.000    1.000    0.000    0.000 
#    0.000    0.000    0.000    0.000    0.000    0.000 
#
# Total GULP energy -134039.734112 kJ/mol
# GULP energy per Si atom -5584.988921 kJ/mol
# Density = 2.230735 g / cm^3
# Si number density = 22.358241 Si / 1000 Ang^3
#
#
#
# Elastic Constant Matrix: (Units=GPa)
#
#
# Indices 1 2 3 4 5 6 
#
# 1 76.2936 6.8636 8.5084 0.0000 2.5839 0.0000
# 2 6.8636 55.9725 19.3287 0.0000 4.6738 0.0000
# 3 8.5084 19.3287 165.9448 0.0000 9.6001 0.0000
# 4 0.0000 0.0000 0.0000 20.6192 0.0000 -4.5645
# 5 2.5839 4.6738 9.6001 0.0000 37.8187 0.0000
# 6 0.0000 0.0000 0.0000 -4.5645 0.0000 9.6067
#
#
#
# Elastic Compliance Matrix: (Units=1/GPa)
#
#
# Indices 1 2 3 4 5 6 
#
# 1 0.013309 -0.001414 -0.000482 0.000000 -0.000612 0.000000
# 2 -0.001414 0.018883 -0.002027 0.000000 -0.001722 0.000000
# 3 -0.000482 -0.002027 0.006364 0.000000 -0.001332 0.000000
# 4 0.000000 0.000000 0.000000 0.054199 0.000000 0.025752
# 5 -0.000612 -0.001722 -0.001332 0.000000 0.027035 0.000000
# 6 0.000000 0.000000 0.000000 0.025752 0.000000 0.116330
#
#
# Mechanical properties :
#
#
# Convention : Reuss Voigt Hill
#
# Bulk Modulus (GPa) = 32.56432 40.84584 36.70508
# Shear Modulus (GPa) = 19.66921 31.17625 25.42273
#
# Velocity S-wave (km/s) = 2.96924 3.73821 3.37569
# Velocity P-wave (km/s) = 5.13338 6.07789 5.62550
#
# Compressibility (1/GPa) = 0.03070845
#
# Stress axis : x y z
#
# Youngs Moduli (GPa) = 75.13708 52.95696 157.13353
#
# Poissons Ratio (x) = 0.07490 0.07577
# Poissons Ratio (y) = 0.10627 0.31856
# Poissons Ratio (z) = 0.03623 0.10736
#
# Static dielectric constant tensor:
#      x y z
#    x 1.900860 0.000000 -0.040940 
#    y 0.000000 1.794530 0.000000 
#    z -0.040940 0.000000 1.874260 
# 
# From -- ./inp_files/59168.got.cif
#   From: 2010.05.17/outbox.cif.g08.bks.cpg/sg15_30_cif.got.tgz:59168.got - 2010.06.03 18:47:42.
