data_PCOD9269088
_publ_section_title
;
Structure prediction by ZEFSAII (Michael W. Deem and Ramdas Pophale) SiO2 
 PCOD9269088
Probable space group: C 2/C
;
_chemical_formula_sum "Si O2"
_cell_formula_units_Z 56
_cell_length_a 20.164319
_cell_length_b 29.221250
_cell_length_c 20.702480
_cell_angle_alpha 90.000000
_cell_angle_beta 166.367805
_cell_angle_gamma 90.000000
_cell_volume 2875.031562
_symmetry_space_group_name_H-M "C 2/C"
_symmetry_group_IT_number 15
_symmetry_cell_setting 'monoclinic'
loop_
_space_group_symop_operation_xyz
x,y,z
-x,y,1/2-z
-x,-y,-z
x,-y,1/2+z
1/2+x,1/2+y,z
1/2-x,1/2+y,1/2-z
1/2-x,1/2-y,-z
1/2+x,1/2-y,1/2+z
loop_
_atom_site_type_symbol
_atom_site_label
_atom_site_fract_x
_atom_site_fract_y
_atom_site_fract_z
Si Si1 0.188904 0.717735 0.221338
Si Si2 0.000000 0.905923 0.250000
Si Si3 0.705805 0.998310 0.580626
Si Si4 0.000000 0.470621 0.750000
Si Si5 0.355539 0.219240 0.173527
Si Si6 0.068598 0.126545 0.044424
Si Si7 0.163854 0.394158 0.054397
Si Si8 0.627069 0.463002 0.070518
O O1 0.403560 0.760383 0.426045
O O2 0.144155 0.701393 0.253787
O O3 0.328713 0.672830 0.323624
O O4 0.187239 0.881294 0.372505
O O5 0.230670 0.937190 0.506307
O O6 0.609345 0.001201 0.414899
O O7 0.994253 0.974992 0.875007
O O8 0.722745 0.051487 0.617700
O O9 0.458973 0.971348 0.383592
O O10 0.500000 0.193938 0.250000
O O11 0.544144 0.265335 0.360178
O O12 0.331415 0.108604 0.250496
O O13 0.966958 0.086839 0.995750
O O14 0.815005 0.133964 0.754027
O O15 0.500000 0.500000 0.000000
#
# Coordination Sequence:
#
# PCOD9269088 Si02
#       8
#     8   4   8   4   8   8   8   8
#     4  10  21  38  53  68  95 132 171 220 273 317
#     4  10  20  34  50  70 104 141 180 229 258 314
#     4  11  20  35  54  76 108 145 174 218 256 307
#     4  10  20  34  54  74 100 149 188 203 260 314
#     4   8  14  27  47  64  79 107 152 204 257 303
#     4  12  23  34  55  77 101 136 179 222 266 328
#     4  11  20  35  50  74 103 136 181 219 266 308
#     4  12  21  34  53  81 111 141 174 215 263 310
#
# _framework density 19.478047
#
# number of rings (size 3 to 8) (size 9 to 14) (size 15 to 20)
#    0.000    1.429    2.857    5.571    0.000    0.000 
#    2.571    0.000    3.143    0.000    0.000    0.000 
#    0.000    0.000    0.000   12.857    0.000    0.000 
#
# Total GULP energy -156343.712720 kJ/mol
# GULP energy per Si atom -5583.704026 kJ/mol
# Density = 1.943371 g / cm^3
# Si number density = 19.478047 Si / 1000 Ang^3
#
#
#
# Elastic Constant Matrix: (Units=GPa)
#
#
# Indices 1 2 3 4 5 6 
#
# 1 28.4476 14.5727 7.3167 -0.0128 -5.3993 -0.0058
# 2 14.5727 83.4982 -0.2259 -0.0159 8.6899 -0.0107
# 3 7.3167 -0.2259 84.9636 -0.0452 3.4946 -0.0226
# 4 -0.0128 -0.0159 -0.0452 15.3645 -0.0163 -0.2894
# 5 -5.3993 8.6899 3.4946 -0.0163 32.2416 -0.0057
# 6 -0.0058 -0.0107 -0.0226 -0.2894 -0.0057 16.2152
#
#
#
# Elastic Compliance Matrix: (Units=1/GPa)
#
#
# Indices 1 2 3 4 5 6 
#
# 1 0.042380 -0.008429 -0.004076 0.000025 0.009811 0.000008
# 2 -0.008429 0.014001 0.000981 0.000005 -0.005291 0.000006
# 3 -0.004076 0.000981 0.012217 0.000031 -0.002271 0.000016
# 4 0.000025 0.000005 0.000031 0.065107 0.000033 0.001162
# 5 0.009811 -0.005291 -0.002271 0.000033 0.034331 0.000009
# 6 0.000008 0.000006 0.000016 0.001162 0.000009 0.061691
#
#
# Mechanical properties :
#
#
# Convention : Reuss Voigt Hill
#
# Bulk Modulus (GPa) = 21.95346 26.69293 24.32320
# Shear Modulus (GPa) = 18.65967 24.44732 21.55350
#
# Velocity S-wave (km/s) = 3.09849 3.54661 3.33010
# Velocity P-wave (km/s) = 4.90879 5.52315 5.22500
#
# Compressibility (1/GPa) = 0.04555090
#
# Stress axis : x y z
#
# Youngs Moduli (GPa) = 23.59591 71.42528 81.85480
#
# Poissons Ratio (x) = 0.60201 0.33360
# Poissons Ratio (y) = 0.19888 -0.08027
# Poissons Ratio (z) = 0.09617 -0.07005
#
# Static dielectric constant tensor:
#      x y z
#    x 1.729280 0.000000 -0.009530 
#    y 0.000000 1.709140 -0.000020 
#    z -0.009530 -0.000020 1.720340 
# 
# From -- ./inp_files/282650.got.cif
#   From: 2010.05.17/outbox.cif.g08.bks.cpg/sg15_142_cif.got.tgz:282650.got - 2010.06.03 18:47:42.
