data_PCOD9269982
_publ_section_title
;
Structure prediction by ZEFSAII (Michael W. Deem and Ramdas Pophale) SiO2 
 PCOD9269982
Probable space group: C 2/C
;
_chemical_formula_sum "Si O2"
_cell_formula_units_Z 52
_cell_length_a 17.611017
_cell_length_b 27.733629
_cell_length_c 5.449637
_cell_angle_alpha 90.000000
_cell_angle_beta 114.371454
_cell_angle_gamma 90.000000
_cell_volume 2424.512036
_symmetry_space_group_name_H-M "C 2/C"
_symmetry_group_IT_number 15
_symmetry_cell_setting 'monoclinic'
loop_
_space_group_symop_operation_xyz
x,y,z
-x,y,1/2-z
-x,-y,-z
x,-y,1/2+z
1/2+x,1/2+y,z
1/2-x,1/2+y,1/2-z
1/2-x,1/2-y,-z
1/2+x,1/2-y,1/2+z
loop_
_atom_site_type_symbol
_atom_site_label
_atom_site_fract_x
_atom_site_fract_y
_atom_site_fract_z
Si Si1 0.399441 0.864361 0.092324
Si Si2 0.247405 0.877823 0.559033
Si Si3 0.664281 0.278927 0.355561
Si Si4 0.592615 0.240084 0.756823
Si Si5 0.802999 0.980486 0.854107
Si Si6 0.000000 0.470283 0.750000
Si Si7 0.164054 0.557953 0.668353
O O1 0.500000 0.865249 0.250000
O O2 0.377918 0.815870 0.216782
O O3 0.375037 0.917666 0.148159
O O4 0.336429 0.858169 0.779027
O O5 0.184371 0.834551 0.437140
O O6 0.211173 0.923149 0.667206
O O7 0.267976 0.904188 0.332625
O O8 0.750000 0.250000 0.500000
O O9 0.603864 0.261155 0.498002
O O10 0.639121 0.268745 0.038887
O O11 0.500000 0.238942 0.750000
O O12 0.843445 0.001493 0.662040
O O13 0.712383 0.007900 0.754240
O O14 0.000000 0.500000 0.500000
O O15 0.913445 0.442322 0.621526
#
# Coordination Sequence:
#
# PCOD9269982 Si02
#       7
#     8   8   8   8   8   4   8
#     4  11  23  37  58  84 123 173 216 258 311 371
#     4  11  23  37  58  88 119 163 217 261 315 368
#     4  12  24  42  70  95 128 166 218 268 332 386
#     4  11  26  46  66  95 131 169 214 273 328 387
#     4  10  20  35  53  76 117 158 195 258 293 353
#     4  12  26  38  54  76 116 178 230 258 302 352
#     4  11  23  37  54  79 124 164 214 261 308 360
#
# _framework density 21.447614999999999
#
# number of rings (size 3 to 8) (size 9 to 14) (size 15 to 20)
#    0.000    0.923    3.077    4.615    5.385    0.000 
#    0.000    0.000    0.000    0.000    0.000    0.000 
#    0.000   49.231    0.000    0.000    0.000    0.000 
#
# Total GULP energy -144857.621154 kJ/mol
# GULP energy per Si atom -5571.446967 kJ/mol
# Density = 2.139880 g / cm^3
# Si number density = 21.447615 Si / 1000 Ang^3
#
#
#
# Elastic Constant Matrix: (Units=GPa)
#
#
# Indices 1 2 3 4 5 6 
#
# 1 28.0723 1.2300 0.6103 0.0000 -15.5019 0.0000
# 2 1.2300 117.4460 7.3325 0.0000 -1.1714 0.0000
# 3 0.6103 7.3325 86.4289 0.0000 -19.5437 0.0000
# 4 0.0000 0.0000 0.0000 34.2889 0.0000 -3.6695
# 5 -15.5019 -1.1714 -19.5437 0.0000 29.4317 0.0000
# 6 0.0000 0.0000 0.0000 -3.6695 0.0000 32.6378
#
#
#
# Elastic Compliance Matrix: (Units=1/GPa)
#
#
# Indices 1 2 3 4 5 6 
#
# 1 0.053729 -0.000679 0.007144 0.000000 0.033016 0.000000
# 2 -0.000679 0.008569 -0.000854 0.000000 -0.000584 0.000000
# 3 0.007144 -0.000854 0.014633 0.000000 0.013445 0.000000
# 4 0.000000 0.000000 0.000000 0.029519 0.000000 0.003319
# 5 0.033016 -0.000584 0.013445 0.000000 0.060272 0.000000
# 6 0.000000 0.000000 0.000000 0.003319 0.000000 0.031012
#
#
# Mechanical properties :
#
#
# Convention : Reuss Voigt Hill
#
# Bulk Modulus (GPa) = 11.34416 27.81030 19.57723
# Shear Modulus (GPa) = 23.15921 34.12332 28.64126
#
# Velocity S-wave (km/s) = 3.28960 3.99307 3.65828
# Velocity P-wave (km/s) = 4.44177 5.85271 5.19536
#
# Compressibility (1/GPa) = 0.08815110
#
# Stress axis : x y z
#
# Youngs Moduli (GPa) = 18.61204 116.69738 68.34073
#
# Poissons Ratio (x) = 0.07929 -0.48823
# Poissons Ratio (y) = 0.01265 0.05838
# Poissons Ratio (z) = -0.13297 0.09969
#
# Static dielectric constant tensor:
#      x y z
#    x 1.885570 0.000000 -0.043430 
#    y 0.000000 1.809570 0.000000 
#    z -0.043430 0.000000 1.925780 
# 
# From -- ./inp_files/9022.got.cif
#   From: 2010.05.17/outbox.cif.g08.bks.cpg/sg15_5_cif.got.tgz:9022.got - 2010.06.03 18:47:42.
