data_PCOD9269708
_publ_section_title
;
Structure prediction by ZEFSAII (Michael W. Deem and Ramdas Pophale) SiO2 
 PCOD9269708
Probable space group: C 2/C
;
_chemical_formula_sum "Si O2"
_cell_formula_units_Z 48
_cell_length_a 10.451706
_cell_length_b 21.313892
_cell_length_c 12.522614
_cell_angle_alpha 90.000000
_cell_angle_beta 127.782755
_cell_angle_gamma 90.000000
_cell_volume 2204.746188
_symmetry_space_group_name_H-M "C 2/C"
_symmetry_group_IT_number 15
_symmetry_cell_setting 'monoclinic'
loop_
_space_group_symop_operation_xyz
x,y,z
-x,y,1/2-z
-x,-y,-z
x,-y,1/2+z
1/2+x,1/2+y,z
1/2-x,1/2+y,1/2-z
1/2-x,1/2-y,-z
1/2+x,1/2-y,1/2+z
loop_
_atom_site_type_symbol
_atom_site_label
_atom_site_fract_x
_atom_site_fract_y
_atom_site_fract_z
Si Si1 0.351587 0.408218 0.603280
Si Si2 0.196343 0.428893 0.089986
Si Si3 0.626572 0.815322 0.212624
Si Si4 0.109513 0.782432 0.997097
Si Si5 0.146639 0.436626 0.674714
Si Si6 0.838318 0.973843 0.973166
O O1 0.500000 0.435057 0.750000
O O2 0.417287 0.350529 0.569340
O O3 0.222713 0.388903 0.627110
O O4 0.270459 0.459782 0.484889
O O5 0.164870 0.375426 0.160088
O O6 0.187636 0.494215 0.149371
O O7 0.347437 0.431693 0.085069
O O8 0.043699 0.428501 0.930565
O O9 0.500000 0.826760 0.250000
O O10 0.799846 0.792663 0.345627
O O11 0.543566 0.761754 0.097935
O O12 0.250000 0.750000 0.000000
O O13 0.234841 0.437567 0.832288
O O14 0.000000 0.000000 0.000000
#
# Coordination Sequence:
#
# PCOD9269708 Si02
#       6
#     8   8   8   8   8   8
#     4  11  20  34  58  88 122 162 209 268 324 384
#     4  10  22  35  61  88 128 165 213 262 326 392
#     4  10  20  38  60  94 126 166 220 277 325 383
#     4  10  20  34  59  91 120 161 216 266 322 374
#     4  10  20  36  55  89 124 163 205 261 329 387
#     4  11  22  38  58  90 124 165 209 259 325 385
#
# _framework density 21.771214000000001
#
# number of rings (size 3 to 8) (size 9 to 14) (size 15 to 20)
#    0.000    1.667    1.667    5.000    0.000    2.667 
#    0.000    0.000    0.000    1.000    4.333    0.000 
#    0.000    0.000    0.000    0.000    0.000    0.000 
#
# Total GULP energy -133821.706266 kJ/mol
# GULP energy per Si atom -5575.904428 kJ/mol
# Density = 2.172166 g / cm^3
# Si number density = 21.771214 Si / 1000 Ang^3
#
#
#
# Elastic Constant Matrix: (Units=GPa)
#
#
# Indices 1 2 3 4 5 6 
#
# 1 83.3207 18.4746 38.6022 0.0000 -18.2370 0.0000
# 2 18.4746 81.4721 36.4405 0.0000 -8.1451 0.0000
# 3 38.6022 36.4405 126.9256 0.0000 -1.0982 0.0000
# 4 0.0000 0.0000 0.0000 29.6537 0.0000 -6.1198
# 5 -18.2370 -8.1451 -1.0982 0.0000 25.0853 0.0000
# 6 0.0000 0.0000 0.0000 -6.1198 0.0000 26.1626
#
#
#
# Elastic Compliance Matrix: (Units=1/GPa)
#
#
# Indices 1 2 3 4 5 6 
#
# 1 0.017021 -0.000447 -0.004944 0.000000 0.012013 0.000000
# 2 -0.000447 0.014596 -0.004018 0.000000 0.004238 0.000000
# 3 -0.004944 -0.004018 0.010497 0.000000 -0.004440 0.000000
# 4 0.000000 0.000000 0.000000 0.035433 0.000000 0.008288
# 5 0.012013 0.004238 -0.004440 0.000000 0.049779 0.000000
# 6 0.000000 0.000000 0.000000 0.008288 0.000000 0.040161
#
#
# Mechanical properties :
#
#
# Convention : Reuss Voigt Hill
#
# Bulk Modulus (GPa) = 42.92606 53.19475 48.06040
# Shear Modulus (GPa) = 25.76359 29.39372 27.57866
#
# Velocity S-wave (km/s) = 3.44376 3.67838 3.56300
# Velocity P-wave (km/s) = 5.96425 6.52129 6.24898
#
# Compressibility (1/GPa) = 0.02329587
#
# Stress axis : x y z
#
# Youngs Moduli (GPa) = 58.75122 68.50994 95.26086
#
# Poissons Ratio (x) = 0.03064 0.47099
# Poissons Ratio (y) = 0.02628 0.38275
# Poissons Ratio (z) = 0.29048 0.27527
#
# Static dielectric constant tensor:
#      x y z
#    x 1.728140 0.000000 -0.079010 
#    y 0.000000 1.812540 0.000000 
#    z -0.079010 0.000000 1.804570 
# 
# From -- ./inp_files/89774.got.cif
#   From: 2010.05.17/outbox.cif.g08.bks.cpg/sg15_45_cif.got.tgz:89774.got - 2010.06.03 18:47:42.
