data_PCOD9269821
_publ_section_title
;
Structure prediction by ZEFSAII (Michael W. Deem and Ramdas Pophale) SiO2 
 PCOD9269821
Probable space group: C 2/C
;
_chemical_formula_sum "Si O2"
_cell_formula_units_Z 44
_cell_length_a 11.955298
_cell_length_b 9.467263
_cell_length_c 21.572204
_cell_angle_alpha 90.000000
_cell_angle_beta 46.621168
_cell_angle_gamma 90.000000
_cell_volume 1774.644203
_symmetry_space_group_name_H-M "C 2/C"
_symmetry_group_IT_number 15
_symmetry_cell_setting 'monoclinic'
loop_
_space_group_symop_operation_xyz
x,y,z
-x,y,1/2-z
-x,-y,-z
x,-y,1/2+z
1/2+x,1/2+y,z
1/2-x,1/2+y,1/2-z
1/2-x,1/2-y,-z
1/2+x,1/2-y,1/2+z
loop_
_atom_site_type_symbol
_atom_site_label
_atom_site_fract_x
_atom_site_fract_y
_atom_site_fract_z
Si Si1 0.233465 0.319224 0.576051
Si Si2 0.293981 0.447087 0.744179
Si Si3 0.000000 0.863380 0.250000
Si Si4 0.043799 0.736042 0.486654
Si Si5 0.821878 0.661118 0.799455
Si Si6 0.034106 0.492194 0.077053
O O1 0.250000 0.250000 0.500000
O O2 0.404759 0.345721 0.536138
O O3 0.136546 0.457795 0.595313
O O4 0.128784 0.229239 0.664355
O O5 0.431637 0.533556 0.723212
O O6 0.249762 0.512976 0.695312
O O7 0.311793 0.280223 0.747911
O O8 0.143151 0.494811 0.838892
O O9 0.201940 0.778428 0.394994
O O10 0.074999 0.663672 0.540039
O O11 0.958755 0.607861 0.480905
O O12 0.000000 0.654033 0.750000
#
# Coordination Sequence:
#
# PCOD9269821 Si02
#       6
#     8   8   4   8   8   8
#     4  10  20  34  62 103 133 177 233 281 340 408
#     4  11  22  42  66 101 137 180 229 286 345 409
#     4  12  20  36  68 100 140 180 232 286 342 416
#     4   9  18  36  61  91 131 170 226 279 336 407
#     4  11  25  44  68 101 138 180 230 289 348 416
#     4   9  18  35  61  93 130 174 223 278 334 406
#
# _framework density 24.793703000000001
#
# number of rings (size 3 to 8) (size 9 to 14) (size 15 to 20)
#    0.000    1.818    2.727    3.273    2.545    1.455 
#    6.545    0.909    0.000    2.182    0.000    0.000 
#    0.000    0.000    0.000    0.000    0.000    0.000 
#
# Total GULP energy -122874.324919 kJ/mol
# GULP energy per Si atom -5585.196587 kJ/mol
# Density = 2.473727 g / cm^3
# Si number density = 24.793703 Si / 1000 Ang^3
#
#
#
# Elastic Constant Matrix: (Units=GPa)
#
#
# Indices 1 2 3 4 5 6 
#
# 1 119.4259 59.1090 24.4652 0.0000 -33.6264 0.0000
# 2 59.1090 79.8063 35.1660 0.0000 -3.0137 0.0000
# 3 24.4652 35.1660 103.0311 0.0000 -11.4961 0.0000
# 4 0.0000 0.0000 0.0000 44.7953 0.0000 10.8005
# 5 -33.6264 -3.0137 -11.4961 0.0000 31.6798 0.0000
# 6 0.0000 0.0000 0.0000 10.8005 0.0000 9.1675
#
#
#
# Elastic Compliance Matrix: (Units=1/GPa)
#
#
# Indices 1 2 3 4 5 6 
#
# 1 0.023364 -0.017817 0.003242 0.000000 0.024282 0.000000
# 2 -0.017817 0.028341 -0.007558 0.000000 -0.018958 0.000000
# 3 0.003242 -0.007558 0.012318 0.000000 0.007193 0.000000
# 4 0.000000 0.000000 0.000000 0.031181 0.000000 -0.036735
# 5 0.024282 -0.018958 0.007193 0.000000 0.058146 0.000000
# 6 0.000000 0.000000 0.000000 -0.036735 0.000000 0.152359
#
#
# Mechanical properties :
#
#
# Convention : Reuss Voigt Hill
#
# Bulk Modulus (GPa) = 50.60975 59.97152 55.29063
# Shear Modulus (GPa) = 14.02290 29.36339 21.69315
#
# Velocity S-wave (km/s) = 2.38078 3.44511 2.96116
# Velocity P-wave (km/s) = 5.29284 6.32975 5.83438
#
# Compressibility (1/GPa) = 0.01975904
#
# Stress axis : x y z
#
# Youngs Moduli (GPa) = 42.80013 35.28478 81.18197
#
# Poissons Ratio (x) = 0.62866 -0.26323
# Poissons Ratio (y) = 0.76256 0.61356
# Poissons Ratio (z) = -0.13878 0.26667
#
# Static dielectric constant tensor:
#      x y z
#    x 2.063050 0.000000 0.073860 
#    y 0.000000 2.113920 0.000000 
#    z 0.073860 0.000000 1.863560 
# 
# From -- ./inp_files/236800.got.cif
#   From: 2010.05.17/outbox.cif.g08.bks.cpg/sg15_119_cif.got.tgz:236800.got - 2010.06.03 18:47:42.
