data_PCOD9269533
_publ_section_title
;
Structure prediction by ZEFSAII (Michael W. Deem and Ramdas Pophale) SiO2 
 PCOD9269533
Probable space group: C 2/C
;
_chemical_formula_sum "Si O2"
_cell_formula_units_Z 48
_cell_length_a 15.688061
_cell_length_b 10.810254
_cell_length_c 22.119333
_cell_angle_alpha 90.000000
_cell_angle_beta 144.824638
_cell_angle_gamma 90.000000
_cell_volume 2161.029299
_symmetry_space_group_name_H-M "C 2/C"
_symmetry_group_IT_number 15
_symmetry_cell_setting 'monoclinic'
loop_
_space_group_symop_operation_xyz
x,y,z
-x,y,1/2-z
-x,-y,-z
x,-y,1/2+z
1/2+x,1/2+y,z
1/2-x,1/2+y,1/2-z
1/2-x,1/2-y,-z
1/2+x,1/2-y,1/2+z
loop_
_atom_site_type_symbol
_atom_site_label
_atom_site_fract_x
_atom_site_fract_y
_atom_site_fract_z
Si Si1 0.654138 0.523656 0.516023
Si Si2 0.489949 0.491269 0.179584
Si Si3 0.665359 0.357475 0.632699
Si Si4 0.688493 0.917154 0.662865
Si Si5 0.592790 0.219412 0.862020
Si Si6 0.015071 0.359700 0.452861
O O1 0.613226 0.441312 0.433576
O O2 0.717113 0.440997 0.606959
O O3 0.493340 0.579619 0.441007
O O4 0.759217 0.638393 0.560163
O O5 0.500000 0.427120 0.250000
O O6 0.659540 0.507998 0.258072
O O7 0.421281 0.630780 0.148562
O O8 0.775561 0.349124 0.753579
O O9 0.613093 0.219453 0.588833
O O10 0.653611 0.848554 0.579274
O O11 0.545347 0.001989 0.588072
O O12 0.500000 0.178008 0.750000
O O13 0.533451 0.184297 0.894395
#
# Coordination Sequence:
#
# PCOD9269533 Si02
#       6
#     8   8   8   8   8   8
#     4  10  20  35  54  89 122 150 205 244 311 365
#     4  10  20  34  57  88 117 155 192 261 311 355
#     4  10  22  37  59  85 122 169 194 257 304 374
#     4  10  22  37  55  87 120 161 211 242 312 371
#     4  11  21  33  59  91 120 157 192 262 310 356
#     4  11  22  38  60  85 124 166 200 258 306 369
#
# _framework density 22.211638000000001
#
# number of rings (size 3 to 8) (size 9 to 14) (size 15 to 20)
#    0.000    1.667    3.333    2.500    4.667    4.000 
#    0.000    0.000    0.000   12.000    0.000    0.000 
#    0.000    0.000    0.000    0.000    0.000    0.000 
#
# Total GULP energy -133671.408580 kJ/mol
# GULP energy per Si atom -5569.642024 kJ/mol
# Density = 2.216108 g / cm^3
# Si number density = 22.211638 Si / 1000 Ang^3
#
#
#
# Elastic Constant Matrix: (Units=GPa)
#
#
# Indices 1 2 3 4 5 6 
#
# 1 57.3040 10.6408 15.9522 0.0000 -20.8774 0.0000
# 2 10.6408 29.3304 7.9224 0.0000 -2.9575 0.0000
# 3 15.9522 7.9224 155.9379 0.0001 -32.2145 0.0001
# 4 0.0000 0.0000 0.0001 6.4376 0.0000 -4.4790
# 5 -20.8774 -2.9575 -32.2145 0.0000 32.1554 0.0000
# 6 0.0000 0.0000 0.0001 -4.4790 0.0000 14.1250
#
#
#
# Elastic Compliance Matrix: (Units=1/GPa)
#
#
# Indices 1 2 3 4 5 6 
#
# 1 0.024514 -0.007577 0.001288 0.000000 0.016509 0.000000
# 2 -0.007577 0.036992 -0.001788 0.000000 -0.003308 0.000000
# 3 0.001288 -0.001788 0.008210 0.000000 0.008897 0.000000
# 4 0.000000 0.000000 0.000000 0.199310 -0.000001 0.063202
# 5 0.016509 -0.003308 0.008897 -0.000001 0.050426 0.000000
# 6 0.000000 0.000000 0.000000 0.063202 0.000000 0.090838
#
#
# Mechanical properties :
#
#
# Convention : Reuss Voigt Hill
#
# Bulk Modulus (GPa) = 18.66953 34.62256 26.64604
# Shear Modulus (GPa) = 11.25370 24.41407 17.83389
#
# Velocity S-wave (km/s) = 2.25335 3.31895 2.83664
# Velocity P-wave (km/s) = 3.89790 5.50533 4.76982
#
# Compressibility (1/GPa) = 0.05356323
#
# Stress axis : x y z
#
# Youngs Moduli (GPa) = 40.79309 27.03262 121.80585
#
# Poissons Ratio (x) = 0.20481 -0.15686
# Poissons Ratio (y) = 0.30907 0.21774
# Poissons Ratio (z) = -0.05253 0.04832
#
# Static dielectric constant tensor:
#      x y z
#    x 1.907100 0.000000 -0.029240 
#    y 0.000000 1.851480 0.000000 
#    z -0.029240 0.000000 1.879870 
# 
# From -- ./inp_files/277298.got.cif
#   From: 2010.05.17/outbox.cif.g08.bks.cpg/sg15_139_cif.got.tgz:277298.got - 2010.06.03 18:47:42.
