data_PCOD9269152
_publ_section_title
;
Structure prediction by ZEFSAII (Michael W. Deem and Ramdas Pophale) SiO2 
 PCOD9269152
Probable space group: C 2/C
;
_chemical_formula_sum "Si O2"
_cell_formula_units_Z 48
_cell_length_a 13.170245
_cell_length_b 32.796873
_cell_length_c 5.528673
_cell_angle_alpha 90.000000
_cell_angle_beta 54.415017
_cell_angle_gamma 90.000000
_cell_volume 1942.106461
_symmetry_space_group_name_H-M "C 2/C"
_symmetry_group_IT_number 15
_symmetry_cell_setting 'monoclinic'
loop_
_space_group_symop_operation_xyz
x,y,z
-x,y,1/2-z
-x,-y,-z
x,-y,1/2+z
1/2+x,1/2+y,z
1/2-x,1/2+y,1/2-z
1/2-x,1/2-y,-z
1/2+x,1/2-y,1/2+z
loop_
_atom_site_type_symbol
_atom_site_label
_atom_site_fract_x
_atom_site_fract_y
_atom_site_fract_z
Si Si1 0.381162 0.878352 0.765402
Si Si2 0.683701 0.007254 0.852146
Si Si3 0.771239 0.071191 0.402400
Si Si4 0.171416 0.147703 0.942513
Si Si5 0.400446 0.720185 0.695701
Si Si6 0.320167 0.200704 0.125560
O O1 0.500000 0.893061 0.750000
O O2 0.336750 0.907607 0.608852
O O3 0.411198 0.834165 0.603869
O O4 0.265729 0.869429 0.106150
O O5 0.730880 0.051528 0.714435
O O6 0.617940 0.006534 0.198787
O O7 0.792503 0.972120 0.735207
O O8 0.860516 0.108797 0.343989
O O9 0.069151 0.175543 0.951620
O O10 0.250550 0.179813 0.997100
O O11 0.500000 0.735878 0.750000
O O12 0.378288 0.754496 0.523265
O O13 0.279468 0.709978 0.024630
#
# Coordination Sequence:
#
# PCOD9269152 Si02
#       6
#     8   8   8   8   8   8
#     4  10  20  34  52  77 113 154 198 243 291 346
#     4   8  16  30  52  76 107 147 196 238 294 354
#     4   9  18  32  53  78 111 150 197 241 298 355
#     4  10  20  35  55  79 113 150 195 244 290 350
#     4  10  20  36  57  84 116 149 190 241 291 343
#     4   9  20  36  54  81 115 152 194 234 283 350
#
# _framework density 24.715433999999998
#
# number of rings (size 3 to 8) (size 9 to 14) (size 15 to 20)
#    1.000    1.667    0.000    2.000    0.000    3.333 
#    0.000    2.500    0.000    0.000    0.000    1.167 
#    0.000    0.667    0.000    0.000    0.000    0.000 
#
# Total GULP energy -133604.606155 kJ/mol
# GULP energy per Si atom -5566.858590 kJ/mol
# Density = 2.465918 g / cm^3
# Si number density = 24.715434 Si / 1000 Ang^3
#
#
#
# Elastic Constant Matrix: (Units=GPa)
#
#
# Indices 1 2 3 4 5 6 
#
# 1 42.9010 35.4977 0.2847 0.0000 21.6848 0.0000
# 2 35.4977 204.5800 21.9169 0.0000 23.2360 0.0000
# 3 0.2847 21.9169 107.8550 0.0000 16.4909 0.0000
# 4 0.0000 0.0000 0.0000 45.0261 0.0000 36.0340
# 5 21.6848 23.2360 16.4909 0.0000 38.1158 0.0000
# 6 0.0000 0.0000 0.0000 36.0340 0.0000 37.4074
#
#
#
# Elastic Compliance Matrix: (Units=1/GPa)
#
#
# Indices 1 2 3 4 5 6 
#
# 1 0.037233 -0.004599 0.003905 0.000000 -0.020068 0.000000
# 2 -0.004599 0.005859 -0.001106 0.000000 -0.000477 0.000000
# 3 0.003905 -0.001106 0.010411 0.000000 -0.006052 0.000000
# 4 0.000000 0.000000 0.000000 0.096945 0.000000 -0.093385
# 5 -0.020068 -0.000477 -0.006052 0.000000 0.040562 0.000000
# 6 0.000000 0.000000 0.000000 -0.093385 0.000000 0.116689
#
#
# Mechanical properties :
#
#
# Convention : Reuss Voigt Hill
#
# Bulk Modulus (GPa) = 20.03905 52.30383 36.17144
# Shear Modulus (GPa) = 15.24697 43.95231 29.59964
#
# Velocity S-wave (km/s) = 2.48644 4.22161 3.46442
# Velocity P-wave (km/s) = 4.04583 6.70604 5.53804
#
# Compressibility (1/GPa) = 0.04990257
#
# Stress axis : x y z
#
# Youngs Moduli (GPa) = 26.85789 170.68634 96.04855
#
# Poissons Ratio (x) = 0.78507 -0.37505
# Poissons Ratio (y) = 0.12353 0.10618
# Poissons Ratio (z) = -0.10487 0.18870
#
# Static dielectric constant tensor:
#      x y z
#    x 1.932930 0.000000 -0.002300 
#    y 0.000000 2.011630 0.000000 
#    z -0.002300 0.000000 2.019210 
# 
# From -- ./inp_files/8649.got.cif
#   From: 2010.05.17/outbox.cif.g08.bks.cpg/sg15_5_cif.got.tgz:8649.got - 2010.06.03 18:47:42.
