data_PCOD9269498
_publ_section_title
;
Structure prediction by ZEFSAII (Michael W. Deem and Ramdas Pophale) SiO2 
 PCOD9269498
Probable space group: C 2/C
;
_chemical_formula_sum "Si O2"
_cell_formula_units_Z 56
_cell_length_a 9.571273
_cell_length_b 31.305573
_cell_length_c 13.365528
_cell_angle_alpha 90.000000
_cell_angle_beta 44.648080
_cell_angle_gamma 90.000000
_cell_volume 2814.352706
_symmetry_space_group_name_H-M "C 2/C"
_symmetry_group_IT_number 15
_symmetry_cell_setting 'monoclinic'
loop_
_space_group_symop_operation_xyz
x,y,z
-x,y,1/2-z
-x,-y,-z
x,-y,1/2+z
1/2+x,1/2+y,z
1/2-x,1/2+y,1/2-z
1/2-x,1/2-y,-z
1/2+x,1/2-y,1/2+z
loop_
_atom_site_type_symbol
_atom_site_label
_atom_site_fract_x
_atom_site_fract_y
_atom_site_fract_z
Si Si1 0.558503 0.547330 0.059318
Si Si2 0.671373 0.705980 0.920934
Si Si3 0.947829 0.454856 0.474063
Si Si4 0.999956 0.706668 0.580867
Si Si5 0.817265 0.507592 0.291849
Si Si6 0.177460 0.375808 0.424074
Si Si7 0.992957 0.121110 0.580152
O O1 0.724868 0.558569 0.056148
O O2 0.674624 0.506471 0.954476
O O3 0.530670 0.582967 0.987623
O O4 0.336310 0.532237 0.201459
O O5 0.822357 0.712533 0.751372
O O6 0.540014 0.665226 0.961446
O O7 0.806170 0.696416 0.950117
O O8 0.548160 0.748916 0.002337
O O9 0.000000 0.500000 0.500000
O O10 0.084360 0.465153 0.306185
O O11 0.036139 0.416449 0.491765
O O12 0.938680 0.668213 0.538842
O O13 0.000000 0.532301 0.250000
O O14 0.303298 0.377298 0.461440
O O15 0.326287 0.381201 0.252724
#
# Coordination Sequence:
#
# PCOD9269498 Si02
#       7
#     8   8   8   8   8   8   8
#     4  10  20  36  57  76 107 147 181 231 277 330
#     4   9  18  34  59  84 108 145 181 227 284 345
#     4  11  23  35  55  81 110 146 191 235 278 327
#     4   9  18  35  58  83 111 140 183 230 283 342
#     4   9  20  35  54  77 104 143 184 229 277 326
#     4  10  21  34  53  84 112 140 189 236 269 331
#     4  10  20  34  57  81 109 146 187 228 279 331
#
# _framework density 19.898004
#
# number of rings (size 3 to 8) (size 9 to 14) (size 15 to 20)
#    0.000    2.286    1.429    0.857    6.000    2.286 
#    0.000    1.429    0.000    3.429    0.000    0.000 
#    0.000    0.000    0.000    0.000    0.000    0.000 
#
# Total GULP energy -155990.949300 kJ/mol
# GULP energy per Si atom -5571.105332 kJ/mol
# Density = 1.985272 g / cm^3
# Si number density = 19.898004 Si / 1000 Ang^3
#
#
#
# Elastic Constant Matrix: (Units=GPa)
#
#
# Indices 1 2 3 4 5 6 
#
# 1 187.1664 108.9362 47.2194 0.0000 -28.2275 0.0000
# 2 108.9362 135.7526 31.0050 0.0000 -15.0028 0.0000
# 3 47.2194 31.0050 26.7898 0.0000 -11.6815 0.0000
# 4 0.0000 0.0000 0.0000 34.0898 0.0000 2.8615
# 5 -28.2275 -15.0028 -11.6815 0.0000 33.8989 0.0000
# 6 0.0000 0.0000 0.0000 2.8615 0.0000 38.0939
#
#
#
# Elastic Compliance Matrix: (Units=1/GPa)
#
#
# Indices 1 2 3 4 5 6 
#
# 1 0.013735 -0.007418 -0.014203 0.000000 0.003260 0.000000
# 2 -0.007418 0.014027 -0.003702 0.000000 -0.001245 0.000000
# 3 -0.014203 -0.003702 0.071522 0.000000 0.011181 0.000000
# 4 0.000000 0.000000 0.000000 0.029520 0.000000 -0.002217
# 5 0.003260 -0.001245 0.011181 0.000000 0.035516 0.000000
# 6 0.000000 0.000000 0.000000 -0.002217 0.000000 0.026417
#
#
# Mechanical properties :
#
#
# Convention : Reuss Voigt Hill
#
# Bulk Modulus (GPa) = 20.56005 80.44776 50.50391
# Shear Modulus (GPa) = 19.41029 32.05306 25.73167
#
# Velocity S-wave (km/s) = 3.12667 4.01792 3.59998
# Velocity P-wave (km/s) = 4.83631 7.87672 6.53577
#
# Compressibility (1/GPa) = 0.04863801
#
# Stress axis : x y z
#
# Youngs Moduli (GPa) = 72.80690 71.29249 13.98179
#
# Poissons Ratio (x) = 0.52882 0.19858
# Poissons Ratio (y) = 0.54006 0.05176
# Poissons Ratio (z) = 1.03407 0.26393
#
# Static dielectric constant tensor:
#      x y z
#    x 1.835150 0.000000 -0.001550 
#    y 0.000000 1.662370 0.000000 
#    z -0.001550 0.000000 1.800250 
# 
# From -- ./inp_files/139445.got.cif
#   From: 2010.05.17/outbox.cif.g08.bks.cpg/sg15_70_cif.got.tgz:139445.got - 2010.06.03 18:47:42.
