data_PCOD9269262
_publ_section_title
;
Structure prediction by ZEFSAII (Michael W. Deem and Ramdas Pophale) SiO2 
 PCOD9269262
Probable space group: C 2/C
;
_chemical_formula_sum "Si O2"
_cell_formula_units_Z 56
_cell_length_a 20.084862
_cell_length_b 14.917657
_cell_length_c 9.724898
_cell_angle_alpha 90.000000
_cell_angle_beta 91.995558
_cell_angle_gamma 90.000000
_cell_volume 2911.997901
_symmetry_space_group_name_H-M "C 2/C"
_symmetry_group_IT_number 15
_symmetry_cell_setting 'monoclinic'
loop_
_space_group_symop_operation_xyz
x,y,z
-x,y,1/2-z
-x,-y,-z
x,-y,1/2+z
1/2+x,1/2+y,z
1/2-x,1/2+y,1/2-z
1/2-x,1/2-y,-z
1/2+x,1/2-y,1/2+z
loop_
_atom_site_type_symbol
_atom_site_label
_atom_site_fract_x
_atom_site_fract_y
_atom_site_fract_z
Si Si1 0.702492 0.602322 0.533217
Si Si2 0.188210 0.311712 0.049546
Si Si3 0.426906 0.197481 0.757828
Si Si4 0.834747 0.386540 0.741938
Si Si5 0.662833 0.203545 0.992755
Si Si6 0.228344 0.969515 0.304375
Si Si7 0.545733 0.998014 0.636246
O O1 0.672172 0.691295 0.464684
O O2 0.779990 0.634466 0.552147
O O3 0.695300 0.519304 0.430484
O O4 0.682181 0.574211 0.684770
O O5 0.133845 0.266571 0.149420
O O6 0.222655 0.393435 0.133482
O O7 0.250000 0.250000 0.000000
O O8 0.152253 0.353607 0.911318
O O9 0.500000 0.242604 0.750000
O O10 0.401397 0.180355 0.600804
O O11 0.438897 0.100092 0.824686
O O12 0.770563 0.450752 0.734287
O O13 0.886787 0.443200 0.838861
O O14 0.828855 0.301596 0.841888
O O15 0.500000 0.955575 0.750000
O O16 0.500000 0.000000 0.500000
#
# Coordination Sequence:
#
# PCOD9269262 Si02
#       7
#     8   8   8   8   8   8   8
#     4  10  20  34  54  80 115 150 195 243 296 345
#     4  12  24  37  58  89 122 155 202 255 300 348
#     4  11  23  39  58  83 122 162 202 236 291 363
#     4  11  21  34  54  83 120 159 194 247 282 347
#     4  10  21  35  55  80 116 157 197 240 293 346
#     4  11  20  34  55  83 116 150 190 245 299 350
#     4  11  21  33  54  80 116 162 200 224 272 358
#
# _framework density 19.230782000000001
#
# number of rings (size 3 to 8) (size 9 to 14) (size 15 to 20)
#    0.000    1.143    4.286    3.429    6.000    0.000 
#    0.000    0.000    0.000    0.000    0.000    4.000 
#    0.000    0.000    0.000    0.000    0.000    0.000 
#
# Total GULP energy -155871.035515 kJ/mol
# GULP energy per Si atom -5566.822697 kJ/mol
# Density = 1.918701 g / cm^3
# Si number density = 19.230782 Si / 1000 Ang^3
#
#
#
# Elastic Constant Matrix: (Units=GPa)
#
#
# Indices 1 2 3 4 5 6 
#
# 1 44.3433 13.5318 8.1130 0.0000 -2.3803 0.0000
# 2 13.5318 43.3134 24.7427 0.0000 -1.1182 0.0000
# 3 8.1130 24.7427 130.6334 0.0000 12.4390 0.0000
# 4 0.0000 0.0000 0.0000 18.8465 0.0000 -1.6667
# 5 -2.3803 -1.1182 12.4390 0.0000 31.9202 0.0000
# 6 0.0000 0.0000 0.0000 -1.6667 0.0000 12.7593
#
#
#
# Elastic Compliance Matrix: (Units=1/GPa)
#
#
# Indices 1 2 3 4 5 6 
#
# 1 0.025017 -0.007615 -0.000274 0.000000 0.001705 0.000000
# 2 -0.007615 0.028473 -0.005152 0.000000 0.002437 0.000000
# 3 -0.000274 -0.005152 0.009001 0.000000 -0.003708 0.000000
# 4 0.000000 0.000000 0.000000 0.053680 0.000000 0.007012
# 5 0.001705 0.002437 -0.003708 0.000000 0.032986 0.000000
# 6 0.000000 0.000000 0.000000 0.007012 0.000000 0.079290
#
#
# Mechanical properties :
#
#
# Convention : Reuss Voigt Hill
#
# Bulk Modulus (GPa) = 27.46611 34.56279 31.01445
# Shear Modulus (GPa) = 18.75011 24.16536 21.45773
#
# Velocity S-wave (km/s) = 3.12589 3.54870 3.34399
# Velocity P-wave (km/s) = 5.22893 5.89938 5.57424
#
# Compressibility (1/GPa) = 0.03640850
#
# Stress axis : x y z
#
# Youngs Moduli (GPa) = 39.97313 35.12139 111.09935
#
# Poissons Ratio (x) = 0.26746 0.03041
# Poissons Ratio (y) = 0.30441 0.57239
# Poissons Ratio (z) = 0.01094 0.18095
#
# Static dielectric constant tensor:
#      x y z
#    x 1.754140 0.000000 -0.069820 
#    y 0.000000 1.703680 0.000000 
#    z -0.069820 0.000000 1.727670 
# 
# From -- ./inp_files/55645.got.cif
#   From: 2010.05.17/outbox.cif.g08.bks.cpg/sg15_28_cif.got.tgz:55645.got - 2010.06.03 18:47:42.
