data_PCOD9269425
_publ_section_title
;
Structure prediction by ZEFSAII (Michael W. Deem and Ramdas Pophale) SiO2 
 PCOD9269425
Probable space group: C 2/C
;
_chemical_formula_sum "Si O2"
_cell_formula_units_Z 52
_cell_length_a 16.415797
_cell_length_b 8.491727
_cell_length_c 32.395460
_cell_angle_alpha 90.000000
_cell_angle_beta 33.833587
_cell_angle_gamma 90.000000
_cell_volume 2514.362196
_symmetry_space_group_name_H-M "C 2/C"
_symmetry_group_IT_number 15
_symmetry_cell_setting 'monoclinic'
loop_
_space_group_symop_operation_xyz
x,y,z
-x,y,1/2-z
-x,-y,-z
x,-y,1/2+z
1/2+x,1/2+y,z
1/2-x,1/2+y,1/2-z
1/2-x,1/2-y,-z
1/2+x,1/2-y,1/2+z
loop_
_atom_site_type_symbol
_atom_site_label
_atom_site_fract_x
_atom_site_fract_y
_atom_site_fract_z
Si Si1 0.945839 0.581283 0.396906
Si Si2 0.000000 0.403115 0.750000
Si Si3 0.710247 0.801010 0.062668
Si Si4 0.075592 0.850504 0.150518
Si Si5 0.601716 0.370391 0.796134
Si Si6 0.620817 0.969662 0.982706
Si Si7 0.701757 0.953144 0.231682
O O1 0.816335 0.486268 0.427344
O O2 0.933484 0.763404 0.390121
O O3 0.933187 0.530376 0.449639
O O4 0.093347 0.512834 0.314164
O O5 0.936595 0.287157 0.811222
O O6 0.877654 0.505291 0.777795
O O7 0.553205 0.720319 0.137150
O O8 0.833353 0.714841 0.037118
O O9 0.750000 0.750000 0.000000
O O10 0.228322 0.939095 0.089659
O O11 0.939914 0.972383 0.211909
O O12 0.710316 0.235762 0.733088
O O13 0.657576 0.440598 0.816372
O O14 0.500000 0.000000 0.000000
#
# Coordination Sequence:
#
# PCOD9269425 Si02
#       7
#     8   4   8   8   8   8   8
#     4   9  18  36  56  76 111 150 185 225 280 345
#     4  10  22  36  54  82 112 140 186 240 286 334
#     4   8  17  34  56  79 110 149 187 228 279 336
#     4  10  21  37  55  79 112 150 184 231 287 344
#     4  10  20  36  58  82 112 153 193 229 289 354
#     4  10  20  34  56  84 109 142 189 237 280 329
#     4  10  20  36  57  83 110 147 189 234 284 342
#
# _framework density 20.681190000000001
#
# number of rings (size 3 to 8) (size 9 to 14) (size 15 to 20)
#    0.000    2.462    0.000    2.308    0.000    5.538 
#    0.000   11.538    0.000    0.000    0.000    0.000 
#    0.000    0.000    0.000    0.000    0.000    0.000 
#
# Total GULP energy -144817.910531 kJ/mol
# GULP energy per Si atom -5569.919636 kJ/mol
# Density = 2.063412 g / cm^3
# Si number density = 20.681190 Si / 1000 Ang^3
#
#
#
# Elastic Constant Matrix: (Units=GPa)
#
#
# Indices 1 2 3 4 5 6 
#
# 1 130.7965 44.7291 -0.6059 0.0001 -2.9004 -0.0012
# 2 44.7291 103.6058 -10.8179 0.0004 3.3366 -0.0029
# 3 -0.6059 -10.8179 15.4551 0.0004 8.6783 -0.0004
# 4 0.0001 0.0004 0.0004 9.2555 0.0000 -7.6395
# 5 -2.9004 3.3366 8.6783 0.0000 19.3782 0.0000
# 6 -0.0012 -0.0029 -0.0004 -7.6395 0.0000 26.1401
#
#
#
# Elastic Compliance Matrix: (Units=1/GPa)
#
#
# Indices 1 2 3 4 5 6 
#
# 1 0.009361 -0.004785 -0.005653 0.000000 0.004757 0.000000
# 2 -0.004785 0.013566 0.014724 0.000000 -0.009646 0.000002
# 3 -0.005653 0.014724 0.102450 -0.000002 -0.049262 0.000002
# 4 0.000000 0.000000 -0.000002 0.142393 0.000001 0.041614
# 5 0.004757 -0.009646 -0.049262 0.000001 0.076039 -0.000001
# 6 0.000000 0.000002 0.000002 0.041614 -0.000001 0.050417
#
#
# Mechanical properties :
#
#
# Convention : Reuss Voigt Hill
#
# Bulk Modulus (GPa) = 7.46551 35.16310 21.31430
# Shear Modulus (GPa) = 11.61972 25.39156 18.50564
#
# Velocity S-wave (km/s) = 2.37291 3.50774 2.99458
# Velocity P-wave (km/s) = 3.33545 5.78317 4.72071
#
# Compressibility (1/GPa) = 0.13394937
#
# Stress axis : x y z
#
# Youngs Moduli (GPa) = 106.82568 73.71496 9.76087
#
# Poissons Ratio (x) = 0.35271 0.05518
# Poissons Ratio (y) = 0.51114 -0.14372
# Poissons Ratio (z) = 0.60390 -1.08540
#
# Static dielectric constant tensor:
#      x y z
#    x 1.760530 0.000000 -0.026400 
#    y 0.000000 1.808740 0.000000 
#    z -0.026400 0.000000 1.785480 
# 
# From -- ./inp_files/242424.got.cif
#   From: 2010.05.17/outbox.cif.g08.bks.cpg/sg15_122_cif.got.tgz:242424.got - 2010.06.03 18:47:42.
