data_PCOD9269356
_publ_section_title
;
Structure prediction by ZEFSAII (Michael W. Deem and Ramdas Pophale) SiO2 
 PCOD9269356
Probable space group: C 2/C
;
_chemical_formula_sum "Si O2"
_cell_formula_units_Z 64
_cell_length_a 22.764405
_cell_length_b 9.522529
_cell_length_c 15.089063
_cell_angle_alpha 90.000000
_cell_angle_beta 64.754973
_cell_angle_gamma 90.000000
_cell_volume 2958.528035
_symmetry_space_group_name_H-M "C 2/C"
_symmetry_group_IT_number 15
_symmetry_cell_setting 'monoclinic'
loop_
_space_group_symop_operation_xyz
x,y,z
-x,y,1/2-z
-x,-y,-z
x,-y,1/2+z
1/2+x,1/2+y,z
1/2-x,1/2+y,1/2-z
1/2-x,1/2-y,-z
1/2+x,1/2-y,1/2+z
loop_
_atom_site_type_symbol
_atom_site_label
_atom_site_fract_x
_atom_site_fract_y
_atom_site_fract_z
Si Si1 0.752718 0.688217 0.345431
Si Si2 0.643360 0.897092 0.581747
Si Si3 0.464044 0.153036 0.608314
Si Si4 0.742022 0.887635 0.202129
Si Si5 0.382709 0.186985 0.813942
Si Si6 0.600879 0.665654 0.495731
Si Si7 0.862602 0.855415 0.008518
Si Si8 0.602910 0.071614 0.454114
O O1 0.795055 0.666623 0.406772
O O2 0.768881 0.821072 0.274524
O O3 0.769956 0.551746 0.275434
O O4 0.675779 0.688591 0.415298
O O5 0.597592 0.767338 0.583529
O O6 0.616025 0.022713 0.659411
O O7 0.653034 0.985103 0.483539
O O8 0.445544 0.215550 0.714476
O O9 0.448472 0.269843 0.543931
O O10 0.535028 0.087916 0.552626
O O11 0.415366 0.024573 0.616410
O O12 0.679246 0.801464 0.211276
O O13 0.789185 0.888033 0.085569
O O14 0.371414 0.283065 0.907197
O O15 0.596854 0.499076 0.512574
O O16 0.879645 0.733084 0.068067
#
# Coordination Sequence:
#
# PCOD9269356 Si02
#       8
#     8   8   8   8   8   8   8   8
#     4  10  20  34  55  86 114 157 190 242 293 365
#     4   9  20  34  56  82 114 148 192 238 294 352
#     4  10  20  39  65  83 111 153 213 248 293 354
#     4  10  21  33  54  85 118 152 196 237 297 362
#     4  10  20  37  58  84 112 157 198 245 294 358
#     4  10  20  38  55  85 120 151 191 241 307 360
#     4  10  22  35  54  85 124 150 189 244 306 359
#     4   9  21  39  61  86 109 157 199 253 291 351
#
# _framework density 21.632380999999999
#
# number of rings (size 3 to 8) (size 9 to 14) (size 15 to 20)
#    0.000    2.250    1.250    0.750    3.500    5.500 
#    0.000    0.000    0.000    4.500    0.000    0.000 
#    0.000    0.000    0.000    0.000    0.000    0.000 
#
# Total GULP energy -178365.761199 kJ/mol
# GULP energy per Si atom -5573.930037 kJ/mol
# Density = 2.158314 g / cm^3
# Si number density = 21.632381 Si / 1000 Ang^3
#
#
#
# Elastic Constant Matrix: (Units=GPa)
#
#
# Indices 1 2 3 4 5 6 
#
# 1 65.0802 19.6186 28.2407 0.0000 23.6776 0.0000
# 2 19.6186 137.9433 15.5534 0.0000 16.6653 0.0000
# 3 28.2407 15.5534 68.5428 0.0000 0.1459 0.0000
# 4 0.0000 0.0000 0.0000 27.8151 0.0000 4.2560
# 5 23.6776 16.6653 0.1459 0.0000 23.0087 0.0000
# 6 0.0000 0.0000 0.0000 4.2560 0.0000 26.3615
#
#
#
# Elastic Compliance Matrix: (Units=1/GPa)
#
#
# Indices 1 2 3 4 5 6 
#
# 1 0.034388 0.001085 -0.014338 0.000000 -0.036083 0.000000
# 2 0.001085 0.008205 -0.002294 0.000000 -0.007045 0.000000
# 3 -0.014338 -0.002294 0.020983 0.000000 0.016283 0.000000
# 4 0.000000 0.000000 0.000000 0.036862 0.000000 -0.005951
# 5 -0.036083 -0.007045 0.016283 0.000000 0.085593 0.000000
# 6 0.000000 0.000000 0.000000 -0.005951 0.000000 0.038895
#
#
# Mechanical properties :
#
#
# Convention : Reuss Voigt Hill
#
# Bulk Modulus (GPa) = 30.78593 44.26575 37.52584
# Shear Modulus (GPa) = 18.73737 29.31395 24.02566
#
# Velocity S-wave (km/s) = 2.94627 3.68516 3.33623
# Velocity P-wave (km/s) = 5.08295 6.21404 5.67674
#
# Compressibility (1/GPa) = 0.03248237
#
# Stress axis : x y z
#
# Youngs Moduli (GPa) = 29.07995 121.88011 47.65844
#
# Poissons Ratio (x) = -0.13226 0.68332
# Poissons Ratio (y) = -0.03156 0.10932
# Poissons Ratio (z) = 0.41694 0.27958
#
# Static dielectric constant tensor:
#      x y z
#    x 1.832500 0.000000 -0.007320 
#    y 0.000000 1.814770 0.000000 
#    z -0.007320 0.000000 1.825830 
# 
# From -- ./inp_files/176577.got.cif
#   From: 2010.05.17/outbox.cif.g08.bks.cpg/sg15_89_cif.got.tgz:176577.got - 2010.06.03 18:47:42.
