data_PCOD9269406
_publ_section_title
;
Structure prediction by ZEFSAII (Michael W. Deem and Ramdas Pophale) SiO2 
 PCOD9269406
Probable space group: C 2/C
;
_chemical_formula_sum "Si O2"
_cell_formula_units_Z 48
_cell_length_a 7.758135
_cell_length_b 18.096570
_cell_length_c 13.288141
_cell_angle_alpha 90.000000
_cell_angle_beta 73.027090
_cell_angle_gamma 90.000000
_cell_volume 1784.336947
_symmetry_space_group_name_H-M "C 2/C"
_symmetry_group_IT_number 15
_symmetry_cell_setting 'monoclinic'
loop_
_space_group_symop_operation_xyz
x,y,z
-x,y,1/2-z
-x,-y,-z
x,-y,1/2+z
1/2+x,1/2+y,z
1/2-x,1/2+y,1/2-z
1/2-x,1/2-y,-z
1/2+x,1/2-y,1/2+z
loop_
_atom_site_type_symbol
_atom_site_label
_atom_site_fract_x
_atom_site_fract_y
_atom_site_fract_z
Si Si1 0.407258 0.051119 0.857596
Si Si2 0.324071 0.930516 0.605231
Si Si3 0.555025 0.518770 0.376982
Si Si4 0.679302 0.680516 0.394769
Si Si5 0.817993 0.768770 0.876982
Si Si6 0.485146 0.301119 0.357596
O O1 0.500000 0.094041 0.750000
O O2 0.521695 0.974724 0.861307
O O3 0.215087 0.037671 0.839781
O O4 0.383742 0.078246 0.976691
O O5 0.260785 0.848368 0.642354
O O6 0.137375 0.977022 0.644485
O O7 0.500000 0.500000 0.500000
O O8 0.653139 0.598368 0.357646
O O9 0.531860 0.727023 0.355514
O O10 0.610433 0.671755 0.523309
O O11 0.866998 0.724724 0.361306
O O12 0.695132 0.712328 0.839781
O O13 0.750000 0.750000 0.000000
O O14 0.500000 0.344041 0.250000
#
# Coordination Sequence:
#
# PCOD9269406 Si02
#       6
#     8   8   8   8   8   8
#     4  10  20  34  56  82 107 140 186 225 273 324
#     4   9  19  35  55  77 109 143 176 227 273 321
#     4   9  18  34  57  73 106 144 178 216 275 322
#     4   9  19  35  55  77 109 143 176 227 273 321
#     4   9  18  34  57  73 106 144 178 216 275 322
#     4  10  20  34  56  82 107 140 186 225 273 324
#
# _framework density 26.900748
#
# number of rings (size 3 to 8) (size 9 to 14) (size 15 to 20)
#    0.000    2.667    0.000    1.000    0.000    4.000 
#    0.000    3.333   88.000    0.000    0.000    0.000 
#    0.000    0.000    0.000    0.000    0.000    0.000 
#
# Total GULP energy -133963.085758 kJ/mol
# GULP energy per Si atom -5581.795240 kJ/mol
# Density = 2.683952 g / cm^3
# Si number density = 26.900748 Si / 1000 Ang^3
#
#
#
# Elastic Constant Matrix: (Units=GPa)
#
#
# Indices 1 2 3 4 5 6 
#
# 1 168.6937 38.6220 26.8345 0.0000 0.3388 0.0000
# 2 38.6220 82.9467 16.3617 0.0000 0.3386 0.0000
# 3 26.8345 16.3617 160.5413 0.0000 -0.2151 0.0000
# 4 0.0000 0.0000 0.0000 13.5720 0.0000 0.2924
# 5 0.3388 0.3386 -0.2151 0.0000 59.7973 0.0000
# 6 0.0000 0.0000 0.0000 0.2924 0.0000 32.7989
#
#
#
# Elastic Compliance Matrix: (Units=1/GPa)
#
#
# Indices 1 2 3 4 5 6 
#
# 1 0.006740 -0.002976 -0.000823 0.000000 -0.000024 0.000000
# 2 -0.002976 0.013618 -0.000891 0.000000 -0.000063 0.000000
# 3 -0.000823 -0.000891 0.006457 0.000000 0.000033 0.000000
# 4 0.000000 0.000000 0.000000 0.073696 0.000000 -0.000657
# 5 -0.000024 -0.000063 0.000033 0.000000 0.016724 0.000000
# 6 0.000000 0.000000 0.000000 -0.000657 0.000000 0.030495
#
#
# Mechanical properties :
#
#
# Convention : Reuss Voigt Hill
#
# Bulk Modulus (GPa) = 57.35411 63.97980 60.66695
# Shear Modulus (GPa) = 30.68981 43.25785 36.97383
#
# Velocity S-wave (km/s) = 3.38132 4.01441 3.71138
# Velocity P-wave (km/s) = 6.05073 6.73220 6.40054
#
# Compressibility (1/GPa) = 0.01743554
#
# Stress axis : x y z
#
# Youngs Moduli (GPa) = 148.36222 73.43482 154.86214
#
# Poissons Ratio (x) = 0.21854 0.12751
# Poissons Ratio (y) = 0.44151 0.13790
# Poissons Ratio (z) = 0.12216 0.06539
#
# Static dielectric constant tensor:
#      x y z
#    x 2.100850 0.000000 -0.001860 
#    y 0.000000 2.147080 0.000000 
#    z -0.001860 0.000000 2.222930 
# 
# From -- ./inp_files/79761.got.cif
#   From: 2010.05.17/outbox.cif.g08.bks.cpg/sg15_40_cif.got.tgz:79761.got - 2010.06.03 18:47:42.
