data_PCOD9269327
_publ_section_title
;
Structure prediction by ZEFSAII (Michael W. Deem and Ramdas Pophale) SiO2 
 PCOD9269327
Probable space group: C 2/C
;
_chemical_formula_sum "Si O2"
_cell_formula_units_Z 52
_cell_length_a 12.186400
_cell_length_b 18.085166
_cell_length_c 22.327745
_cell_angle_alpha 90.000000
_cell_angle_beta 37.128457
_cell_angle_gamma 90.000000
_cell_volume 2970.263208
_symmetry_space_group_name_H-M "C 2/C"
_symmetry_group_IT_number 15
_symmetry_cell_setting 'monoclinic'
loop_
_space_group_symop_operation_xyz
x,y,z
-x,y,1/2-z
-x,-y,-z
x,-y,1/2+z
1/2+x,1/2+y,z
1/2-x,1/2+y,1/2-z
1/2-x,1/2-y,-z
1/2+x,1/2-y,1/2+z
loop_
_atom_site_type_symbol
_atom_site_label
_atom_site_fract_x
_atom_site_fract_y
_atom_site_fract_z
Si Si1 0.995495 0.046243 0.563823
Si Si2 0.704747 0.601703 0.171662
Si Si3 0.655308 0.999135 0.285802
Si Si4 0.500000 0.099046 0.250000
Si Si5 0.681032 0.996814 0.991109
Si Si6 0.068905 0.665626 0.031856
Si Si7 0.222354 0.813500 0.936057
O O1 0.061397 0.130156 0.523637
O O2 0.801183 0.044287 0.681968
O O3 0.148586 0.008218 0.539002
O O4 0.000000 0.000000 0.500000
O O5 0.500000 0.626528 0.250000
O O6 0.726644 0.549778 0.220553
O O7 0.853362 0.665184 0.117070
O O8 0.764284 0.552788 0.088604
O O9 0.496677 0.965016 0.396823
O O10 0.538525 0.048635 0.290522
O O11 0.674209 0.149804 0.163931
O O12 0.630080 0.081053 0.993509
O O13 0.134902 0.683933 0.070586
O O14 0.159473 0.730098 0.953862
#
# Coordination Sequence:
#
# PCOD9269327 Si02
#       7
#     8   8   8   4   8   8   8
#     4  11  19  32  57  83 111 145 189 232 271 331
#     4  11  20  35  61  80 112 149 183 231 287 340
#     4  11  19  33  55  83 112 142 190 228 276 328
#     4  12  18  34  58  82 106 152 184 228 286 326
#     4  10  20  36  56  84 110 145 186 235 282 328
#     4   9  19  37  51  77 113 145 180 230 278 333
#     4  10  20  34  55  81 112 147 182 232 280 329
#
# _framework density 17.506867
#
# number of rings (size 3 to 8) (size 9 to 14) (size 15 to 20)
#    0.000    1.538    7.692    1.846    0.000    0.000 
#    1.385    3.077    5.077    1.846    0.000    0.000 
#    0.000    0.000    0.000    0.000    0.000    0.000 
#
# Total GULP energy -144865.215070 kJ/mol
# GULP energy per Si atom -5571.739041 kJ/mol
# Density = 1.746702 g / cm^3
# Si number density = 17.506867 Si / 1000 Ang^3
#
#
#
# Elastic Constant Matrix: (Units=GPa)
#
#
# Indices 1 2 3 4 5 6 
#
# 1 88.0181 21.9193 20.0517 0.0003 -10.3322 0.0004
# 2 21.9193 45.4966 41.9508 0.0006 -9.0367 0.0004
# 3 20.0517 41.9508 110.3974 0.0047 -15.5620 0.0009
# 4 0.0003 0.0006 0.0047 7.3342 0.0004 -2.7283
# 5 -10.3322 -9.0367 -15.5620 0.0004 32.3856 -0.0008
# 6 0.0004 0.0004 0.0009 -2.7283 -0.0008 8.9269
#
#
#
# Elastic Compliance Matrix: (Units=1/GPa)
#
#
# Indices 1 2 3 4 5 6 
#
# 1 0.013114 -0.006067 0.000295 0.000000 0.002633 0.000000
# 2 -0.006067 0.037015 -0.012637 0.000006 0.002321 0.000002
# 3 0.000295 -0.012637 0.014291 -0.000010 0.003435 -0.000004
# 4 0.000000 0.000006 -0.000010 0.153837 -0.000004 0.047016
# 5 0.002633 0.002321 0.003435 -0.000004 0.034016 0.000001
# 6 0.000000 0.000002 -0.000004 0.047016 0.000001 0.126391
#
#
# Mechanical properties :
#
#
# Convention : Reuss Voigt Hill
#
# Bulk Modulus (GPa) = 36.22881 45.75063 40.98972
# Shear Modulus (GPa) = 11.77351 20.39537 16.08444
#
# Velocity S-wave (km/s) = 2.59609 3.41690 3.03438
# Velocity P-wave (km/s) = 5.45208 6.46194 5.97837
#
# Compressibility (1/GPa) = 0.02760234
#
# Stress axis : x y z
#
# Youngs Moduli (GPa) = 76.25417 27.01583 69.97497
#
# Poissons Ratio (x) = 0.16390 -0.02061
# Poissons Ratio (y) = 0.46261 0.88425
# Poissons Ratio (z) = -0.02246 0.34139
#
# Static dielectric constant tensor:
#      x y z
#    x 1.612940 0.000000 -0.010090 
#    y 0.000000 1.588210 0.000000 
#    z -0.010090 0.000000 1.649210 
# 
# From -- ./inp_files/239731.got.cif
#   From: 2010.05.17/outbox.cif.g08.bks.cpg/sg15_120_cif.got.tgz:239731.got - 2010.06.03 18:47:42.
