data_PCOD9269981
_publ_section_title
;
Structure prediction by ZEFSAII (Michael W. Deem and Ramdas Pophale) SiO2 
 PCOD9269981
Probable space group: C 2/C
;
_chemical_formula_sum "Si O2"
_cell_formula_units_Z 40
_cell_length_a 14.446840
_cell_length_b 5.208261
_cell_length_c 22.624504
_cell_angle_alpha 90.000000
_cell_angle_beta 90.083501
_cell_angle_gamma 90.000000
_cell_volume 1702.331786
_symmetry_space_group_name_H-M "C 2/C"
_symmetry_group_IT_number 15
_symmetry_cell_setting 'monoclinic'
loop_
_space_group_symop_operation_xyz
x,y,z
-x,y,1/2-z
-x,-y,-z
x,-y,1/2+z
1/2+x,1/2+y,z
1/2-x,1/2+y,1/2-z
1/2-x,1/2-y,-z
1/2+x,1/2-y,1/2+z
loop_
_atom_site_type_symbol
_atom_site_label
_atom_site_fract_x
_atom_site_fract_y
_atom_site_fract_z
Si Si1 0.796079 0.834126 0.182843
Si Si2 0.695805 0.443296 0.542359
Si Si3 0.172434 0.175090 0.419412
Si Si4 0.613511 0.836796 0.257639
Si Si5 0.508351 0.752577 0.041190
O O1 0.805194 0.915373 0.114316
O O2 0.687927 0.847406 0.202545
O O3 0.853358 0.069191 0.213053
O O4 0.848227 0.576555 0.203249
O O5 0.750000 0.250000 0.500000
O O6 0.750783 0.609966 0.589925
O O7 0.666875 0.647736 0.490764
O O8 0.609933 0.287512 0.567303
O O9 0.067839 0.260933 0.407825
O O10 0.500000 0.847425 0.250000
O O11 0.500000 0.500000 0.000000
O O12 0.500000 0.000000 0.000000
#
# Coordination Sequence:
#
# PCOD9269981 Si02
#       5
#     8   8   8   8   8
#     4  10  23  40  65  94 120 158 202 255 303 371
#     4  10  20  36  56  80 123 161 193 240 286 342
#     4  10  22  37  56  88 120 157 203 239 292 356
#     4  10  22  44  65  89 125 153 198 259 319 360
#     4  10  20  35  53  76 113 157 194 237 282 330
#
# _framework density 23.497184000000001
#
# number of rings (size 3 to 8) (size 9 to 14) (size 15 to 20)
#    0.000    2.000    2.000    0.600    2.800    1.600 
#    3.600    0.000    0.000    0.000    0.000    0.000 
#    0.000    0.000    0.000    0.000    0.000    0.000 
#
# Total GULP energy -111415.994786 kJ/mol
# GULP energy per Si atom -5570.799739 kJ/mol
# Density = 2.344370 g / cm^3
# Si number density = 23.497184 Si / 1000 Ang^3
#
#
#
# Elastic Constant Matrix: (Units=GPa)
#
#
# Indices 1 2 3 4 5 6 
#
# 1 205.9050 30.3922 34.1874 0.0000 -6.5762 0.0000
# 2 30.3922 131.5691 13.4751 0.0000 13.1306 0.0000
# 3 34.1874 13.4751 76.7386 0.0000 1.7916 0.0000
# 4 0.0000 0.0000 0.0000 35.5796 0.0000 6.9613
# 5 -6.5762 13.1306 1.7916 0.0000 23.4491 0.0000
# 6 0.0000 0.0000 0.0000 6.9613 0.0000 44.0279
#
#
#
# Elastic Compliance Matrix: (Units=1/GPa)
#
#
# Indices 1 2 3 4 5 6 
#
# 1 0.005502 -0.001280 -0.002283 0.000000 0.002434 0.000000
# 2 -0.001280 0.008482 -0.000801 0.000000 -0.005047 0.000000
# 3 -0.002283 -0.000801 0.014219 0.000000 -0.001278 0.000000
# 4 0.000000 0.000000 0.000000 0.029003 0.000000 -0.004586
# 5 0.002434 -0.005047 -0.001278 0.000000 0.046252 0.000000
# 6 0.000000 0.000000 0.000000 -0.004586 0.000000 0.023438
#
#
# Mechanical properties :
#
#
# Convention : Reuss Voigt Hill
#
# Bulk Modulus (GPa) = 51.35073 63.36912 57.35992
# Shear Modulus (GPa) = 35.18202 43.02185 39.10193
#
# Velocity S-wave (km/s) = 3.87368 4.28359 4.08378
# Velocity P-wave (km/s) = 6.47368 7.17585 6.83379
#
# Compressibility (1/GPa) = 0.01947392
#
# Stress axis : x y z
#
# Youngs Moduli (GPa) = 181.73770 117.89558 70.32816
#
# Poissons Ratio (x) = 0.15092 0.16059
# Poissons Ratio (y) = 0.23265 0.05635
# Poissons Ratio (z) = 0.41498 0.09447
#
# Static dielectric constant tensor:
#      x y z
#    x 2.247790 0.000000 0.164030 
#    y 0.000000 1.866470 0.000000 
#    z 0.164030 0.000000 2.090660 
# 
# From -- ./inp_files/271694.got.cif
#   From: 2010.05.17/outbox.cif.g08.bks.cpg/sg15_136_cif.got.tgz:271694.got - 2010.06.03 18:47:42.
