data_PCOD9269972
_publ_section_title
;
Structure prediction by ZEFSAII (Michael W. Deem and Ramdas Pophale) SiO2 
 PCOD9269972
Probable space group: C 2/C
;
_chemical_formula_sum "Si O2"
_cell_formula_units_Z 64
_cell_length_a 8.094795
_cell_length_b 27.401275
_cell_length_c 14.473720
_cell_angle_alpha 90.000000
_cell_angle_beta 99.855507
_cell_angle_gamma 90.000000
_cell_volume 3163.005509
_symmetry_space_group_name_H-M "C 2/C"
_symmetry_group_IT_number 15
_symmetry_cell_setting 'monoclinic'
loop_
_space_group_symop_operation_xyz
x,y,z
-x,y,1/2-z
-x,-y,-z
x,-y,1/2+z
1/2+x,1/2+y,z
1/2-x,1/2+y,1/2-z
1/2-x,1/2-y,-z
1/2+x,1/2-y,1/2+z
loop_
_atom_site_type_symbol
_atom_site_label
_atom_site_fract_x
_atom_site_fract_y
_atom_site_fract_z
Si Si1 0.167525 0.325936 0.332638
Si Si2 0.388299 0.280252 0.888139
Si Si3 0.241867 0.779050 0.814426
Si Si4 0.303759 0.418183 0.144386
Si Si5 0.159658 0.069184 0.645624
Si Si6 0.789739 0.818221 0.059672
Si Si7 0.941079 0.653503 0.469537
Si Si8 0.555925 0.948866 0.464633
O O1 0.277233 0.278956 0.314848
O O2 0.276889 0.374766 0.342910
O O3 0.107636 0.325243 0.433843
O O4 0.000000 0.328904 0.250000
O O5 0.566589 0.276216 0.854527
O O6 0.280191 0.300058 0.790891
O O7 0.287566 0.230897 0.905109
O O8 0.419236 0.305762 0.990276
O O9 0.362740 0.812472 0.884878
O O10 0.323121 0.443526 0.245203
O O11 0.464383 0.435939 0.100306
O O12 0.327979 0.359277 0.139187
O O13 0.113487 0.428266 0.098382
O O14 0.291893 0.043771 0.591769
O O15 0.640265 0.841695 0.984322
O O16 0.891261 0.596355 0.463909
O O17 0.500000 0.000000 0.500000
#
# Coordination Sequence:
#
# PCOD9269972 Si02
#       8
#     8   8   8   8   8   8   8   8
#     4  11  18  32  56  87 121 163 204 247 300 360
#     4  10  21  32  52  76 123 170 202 243 290 348
#     4  11  20  34  53  81 118 170 210 238 295 370
#     4  10  21  38  61  94 126 146 204 256 318 371
#     4  10  21  35  64  95 123 157 191 262 319 369
#     4  10  20  35  52  83 119 161 198 257 292 343
#     4  10  21  34  57  81 111 154 205 248 303 374
#     4  10  22  41  65  88 117 157 199 260 324 383
#
# _framework density 20.233920000000001
#
# number of rings (size 3 to 8) (size 9 to 14) (size 15 to 20)
#    0.000    1.750    2.500    3.750    3.500    2.000 
#    0.000    0.000   11.000    1.500    0.000    0.000 
#    0.000    0.000    0.000    0.000    0.000    0.000 
#
# Total GULP energy -178202.839366 kJ/mol
# GULP energy per Si atom -5568.838730 kJ/mol
# Density = 2.018787 g / cm^3
# Si number density = 20.233920 Si / 1000 Ang^3
#
#
#
# Elastic Constant Matrix: (Units=GPa)
#
#
# Indices 1 2 3 4 5 6 
#
# 1 79.0729 -5.5685 4.5214 0.0000 -20.8331 0.0000
# 2 -5.5685 50.1545 6.5332 0.0000 -11.8042 0.0000
# 3 4.5214 6.5332 46.4676 0.0000 -18.4732 0.0000
# 4 0.0000 0.0000 0.0000 3.0294 0.0000 -4.5593
# 5 -20.8331 -11.8042 -18.4732 0.0000 27.3417 0.0000
# 6 0.0000 0.0000 0.0000 -4.5593 0.0000 21.3429
#
#
#
# Elastic Compliance Matrix: (Units=1/GPa)
#
#
# Indices 1 2 3 4 5 6 
#
# 1 0.018007 0.005990 0.005316 0.000000 0.019899 0.000000
# 2 0.005990 0.024216 0.002712 0.000000 0.016851 0.000000
# 3 0.005316 0.002712 0.031033 0.000000 0.026189 0.000000
# 4 0.000000 0.000000 0.000000 0.486517 0.000000 0.103930
# 5 0.019899 0.016851 0.026189 0.000000 0.076705 0.000000
# 6 0.000000 0.000000 0.000000 0.103930 0.000000 0.069056
#
#
# Mechanical properties :
#
#
# Convention : Reuss Voigt Hill
#
# Bulk Modulus (GPa) = 9.87242 20.74078 15.30660
# Shear Modulus (GPa) = 7.02976 21.69005 14.35990
#
# Velocity S-wave (km/s) = 1.86595 3.27764 2.66690
# Velocity P-wave (km/s) = 3.08741 4.95950 4.13091
#
# Compressibility (1/GPa) = 0.10129233
#
# Stress axis : x y z
#
# Youngs Moduli (GPa) = 55.53394 41.29462 32.22349
#
# Poissons Ratio (x) = -0.24735 -0.17131
# Poissons Ratio (y) = -0.33265 -0.08738
# Poissons Ratio (z) = -0.29524 -0.11197
#
# Static dielectric constant tensor:
#      x y z
#    x 1.801680 0.000000 -0.012390 
#    y 0.000000 1.791710 0.000000 
#    z -0.012390 0.000000 1.767820 
# 
# From -- ./inp_files/139285.got.cif
#   From: 2010.05.17/outbox.cif.g08.bks.cpg/sg15_70_cif.got.tgz:139285.got - 2010.06.03 18:47:42.
