data_PCOD9269039
_publ_section_title
;
Structure prediction by ZEFSAII (Michael W. Deem and Ramdas Pophale) SiO2 
 PCOD9269039
Probable space group: C 2/C
;
_chemical_formula_sum "Si O2"
_cell_formula_units_Z 64
_cell_length_a 16.737947
_cell_length_b 21.635872
_cell_length_c 19.336675
_cell_angle_alpha 90.000000
_cell_angle_beta 149.427937
_cell_angle_gamma 90.000000
_cell_volume 3561.666438
_symmetry_space_group_name_H-M "C 2/C"
_symmetry_group_IT_number 15
_symmetry_cell_setting 'monoclinic'
loop_
_space_group_symop_operation_xyz
x,y,z
-x,y,1/2-z
-x,-y,-z
x,-y,1/2+z
1/2+x,1/2+y,z
1/2-x,1/2+y,1/2-z
1/2-x,1/2-y,-z
1/2+x,1/2-y,1/2+z
loop_
_atom_site_type_symbol
_atom_site_label
_atom_site_fract_x
_atom_site_fract_y
_atom_site_fract_z
Si Si1 0.255345 0.398172 0.795281
Si Si2 0.685798 0.004582 0.963357
Si Si3 0.964452 0.816783 0.040697
Si Si4 0.273204 0.104876 0.786551
Si Si5 0.684131 0.018658 0.117169
Si Si6 0.337311 0.630240 0.586820
Si Si7 0.553311 0.828415 0.968917
Si Si8 0.316618 0.021025 0.686994
O O1 0.384277 0.349328 0.914934
O O2 0.248912 0.427952 0.714367
O O3 0.274299 0.459534 0.856561
O O4 0.088111 0.363323 0.675396
O O5 0.497059 0.998329 0.821062
O O6 0.729759 0.039233 0.925249
O O7 0.770535 0.938511 0.024727
O O8 0.710415 0.033594 0.056994
O O9 0.863788 0.835557 0.033617
O O10 0.977801 0.743569 0.044177
O O11 0.133565 0.847127 0.177378
O O12 0.305912 0.074557 0.736192
O O13 0.228078 0.045447 0.799666
O O14 0.413537 0.137805 0.932979
O O15 0.500000 0.000000 0.000000
O O16 0.500000 0.628482 0.750000
O O17 0.208966 0.663717 0.538945
#
# Coordination Sequence:
#
# PCOD9269039 Si02
#       8
#     8   8   8   8   8   8   8   8
#     4  11  21  36  58  85 108 154 201 242 279 339
#     4  11  18  35  56  90 112 147 189 237 300 353
#     4  12  26  37  54  87 120 161 196 239 284 334
#     4  11  21  41  57  82 119 149 202 242 290 341
#     4  11  17  35  61  83 113 149 188 239 298 347
#     4  12  22  37  53  84 123 162 196 229 279 349
#     4  12  22  40  59  78 121 165 202 228 279 358
#     4  10  20  33  62  82 111 147 192 249 292 345
#
# _framework density 17.969116
#
# number of rings (size 3 to 8) (size 9 to 14) (size 15 to 20)
#    0.000    0.750    8.750    1.125    0.000    2.500 
#    2.250    0.000    0.000    0.000    0.000   15.750 
#    0.000    0.000    0.000    0.000    0.000    0.000 
#
# Total GULP energy -178523.661048 kJ/mol
# GULP energy per Si atom -5578.864408 kJ/mol
# Density = 1.792822 g / cm^3
# Si number density = 17.969116 Si / 1000 Ang^3
#
#
#
# Elastic Constant Matrix: (Units=GPa)
#
#
# Indices 1 2 3 4 5 6 
#
# 1 71.8785 22.7498 11.3162 -0.0095 -40.4398 -0.0045
# 2 22.7498 86.6686 18.1464 -0.0502 -7.9661 -0.0539
# 3 11.3162 18.1464 59.2665 -0.1356 -15.5802 -0.1977
# 4 -0.0095 -0.0502 -0.1356 2.4157 -0.0487 -30.6362
# 5 -40.4398 -7.9661 -15.5802 -0.0487 33.8189 -0.0687
# 6 -0.0045 -0.0539 -0.1977 -30.6362 -0.0687 -33.8767
#
#
#
# Elastic Compliance Matrix: (Units=1/GPa)
#
#
# Indices 1 2 3 4 5 6 
#
# 1 0.050986 -0.009631 0.009835 -0.000033 0.063230 -0.000147
# 2 -0.009631 0.014200 -0.005299 0.000011 -0.010613 0.000021
# 3 0.009835 -0.005299 0.022051 -0.000039 0.020671 -0.000128
# 4 -0.000033 0.000011 -0.000039 0.033199 -0.000069 -0.030023
# 5 0.063230 -0.010613 0.020671 -0.000069 0.112201 -0.000278
# 6 -0.000147 0.000021 -0.000128 -0.030023 -0.000278 -0.002366
#
#
# Mechanical properties :
#
#
# Convention : Reuss Voigt Hill
#
# Bulk Modulus (GPa) = 12.97885 35.80428 24.39157
# Shear Modulus (GPa) = 18.78686 11.51167 15.14927
#
# Velocity S-wave (km/s) = 3.23694 2.53383 2.90672
# Velocity P-wave (km/s) = 4.60531 5.34126 4.98688
#
# Compressibility (1/GPa) = 0.07704842
#
# Stress axis : x y z
#
# Youngs Moduli (GPa) = 19.61308 70.42112 45.34947
#
# Poissons Ratio (x) = 0.67823 -0.44603
# Poissons Ratio (y) = 0.18890 0.24030
# Poissons Ratio (z) = -0.19290 0.37315
#
# Static dielectric constant tensor:
#      x y z
#    x 1.654360 0.000000 -0.015420 
#    y 0.000000 1.592380 0.000000 
#    z -0.015420 0.000000 1.682140 
# 
# From -- ./inp_files/249935.got.cif
#   From: 2010.05.17/outbox.cif.g08.bks.cpg/sg15_125_cif.got.tgz:249935.got - 2010.06.03 18:47:42.
