data_PCOD9269034
_publ_section_title
;
Structure prediction by ZEFSAII (Michael W. Deem and Ramdas Pophale) SiO2 
 PCOD9269034
Probable space group: C 2/C
;
_chemical_formula_sum "Si O2"
_cell_formula_units_Z 60
_cell_length_a 9.341224
_cell_length_b 19.681669
_cell_length_c 26.476556
_cell_angle_alpha 90.000000
_cell_angle_beta 37.658246
_cell_angle_gamma 90.000000
_cell_volume 2973.945938
_symmetry_space_group_name_H-M "C 2/C"
_symmetry_group_IT_number 15
_symmetry_cell_setting 'monoclinic'
loop_
_space_group_symop_operation_xyz
x,y,z
-x,y,1/2-z
-x,-y,-z
x,-y,1/2+z
1/2+x,1/2+y,z
1/2-x,1/2+y,1/2-z
1/2-x,1/2-y,-z
1/2+x,1/2-y,1/2+z
loop_
_atom_site_type_symbol
_atom_site_label
_atom_site_fract_x
_atom_site_fract_y
_atom_site_fract_z
Si Si1 0.776974 0.493746 0.729697
Si Si2 0.013000 0.925514 0.554166
Si Si3 0.000000 0.587020 0.750000
Si Si4 0.996006 0.358083 0.807819
Si Si5 0.891589 0.682764 0.447473
Si Si6 0.234122 0.477063 0.379530
Si Si7 0.454800 0.582914 0.571007
Si Si8 0.385619 0.112378 0.026375
O O1 0.929212 0.538997 0.723755
O O2 0.861004 0.503245 0.649120
O O3 0.513960 0.521974 0.802482
O O4 0.803847 0.415793 0.740159
O O5 0.110202 0.921304 0.470055
O O6 0.173735 0.880777 0.546160
O O7 0.749498 0.898561 0.624887
O O8 0.998799 0.004526 0.574840
O O9 0.753943 0.618107 0.838445
O O10 0.988939 0.316658 0.862647
O O11 0.000000 0.326026 0.750000
O O12 0.750000 0.750000 0.500000
O O13 0.699295 0.622482 0.505741
O O14 0.077270 0.667492 0.440269
O O15 0.166400 0.541755 0.431358
O O16 0.121092 0.406755 0.429605
#
# Coordination Sequence:
#
# PCOD9269034 Si02
#       8
#     8   8   4   8   8   8   8   8
#     4  11  19  31  50  93 125 148 178 234 309 373
#     4  10  20  33  61  96 118 148 189 245 322 370
#     4  12  18  30  58  86 122 148 184 246 300 366
#     4  11  20  38  62  90 116 154 196 255 308 362
#     4  11  25  42  61  79 116 170 214 247 292 354
#     4  10  21  30  52  88 125 148 179 234 313 361
#     4  10  20  35  58  88 122 155 194 240 302 372
#     4  11  19  35  55  84 116 155 192 246 296 360
#
# _framework density 20.175215999999999
#
# number of rings (size 3 to 8) (size 9 to 14) (size 15 to 20)
#    0.000    1.333    3.333    4.800    1.867    0.000 
#    0.000    2.667   14.667    0.000    0.000    0.000 
#    0.000    0.000    0.000    0.000    0.000    0.000 
#
# Total GULP energy -167321.610533 kJ/mol
# GULP energy per Si atom -5577.387018 kJ/mol
# Density = 2.012930 g / cm^3
# Si number density = 20.175216 Si / 1000 Ang^3
#
#
#
# Elastic Constant Matrix: (Units=GPa)
#
#
# Indices 1 2 3 4 5 6 
#
# 1 141.2858 14.3897 15.7274 0.0086 17.0337 -0.0011
# 2 14.3897 24.5625 -9.1587 -0.0073 -0.0059 0.0041
# 3 15.7274 -9.1587 76.6539 -0.0094 9.1575 0.0022
# 4 0.0086 -0.0073 -0.0094 9.3601 -0.0009 -3.3563
# 5 17.0337 -0.0059 9.1575 -0.0009 40.8665 0.0022
# 6 -0.0011 0.0041 0.0022 -3.3563 0.0022 9.1153
#
#
#
# Elastic Compliance Matrix: (Units=1/GPa)
#
#
# Indices 1 2 3 4 5 6 
#
# 1 0.008226 -0.005564 -0.001996 -0.000014 -0.002982 -0.000001
# 2 -0.005564 0.046429 0.006588 0.000046 0.000850 -0.000006
# 3 -0.001996 0.006588 0.014532 0.000022 -0.002423 0.000002
# 4 -0.000014 0.000046 0.000022 0.123087 0.000001 0.045321
# 5 -0.002982 0.000850 -0.002423 0.000001 0.026256 -0.000006
# 6 -0.000001 -0.000006 0.000002 0.045321 -0.000006 0.126393
#
#
# Mechanical properties :
#
#
# Convention : Reuss Voigt Hill
#
# Bulk Modulus (GPa) = 14.87200 31.60210 23.23705
# Shear Modulus (GPa) = 13.53973 26.63795 20.08884
#
# Velocity S-wave (km/s) = 2.59338 3.63758 3.15892
# Velocity P-wave (km/s) = 4.04412 5.77412 4.98475
#
# Compressibility (1/GPa) = 0.06724045
#
# Stress axis : x y z
#
# Youngs Moduli (GPa) = 121.56024 21.53831 68.81435
#
# Poissons Ratio (x) = 0.11985 0.13738
# Poissons Ratio (y) = 0.67642 -0.45332
# Poissons Ratio (z) = 0.24268 -0.14188
#
# Static dielectric constant tensor:
#      x y z
#    x 1.782410 -0.000010 0.022850 
#    y -0.000010 1.674650 0.000010 
#    z 0.022850 0.000010 1.847780 
# 
# From -- ./inp_files/290082.got.cif
#   From: 2010.05.17/outbox.cif.g08.bks.cpg/sg15_146_cif.got.tgz:290082.got - 2010.06.03 18:47:42.
