data_PCOD9269056
_publ_section_title
;
Structure prediction by ZEFSAII (Michael W. Deem and Ramdas Pophale) SiO2 
 PCOD9269056
Probable space group: C 2/C
;
_chemical_formula_sum "Si O2"
_cell_formula_units_Z 32
_cell_length_a 10.118351
_cell_length_b 17.344450
_cell_length_c 18.152777
_cell_angle_alpha 90.000000
_cell_angle_beta 150.733696
_cell_angle_gamma 90.000000
_cell_volume 1557.421935
_symmetry_space_group_name_H-M "C 2/C"
_symmetry_group_IT_number 15
_symmetry_cell_setting 'monoclinic'
loop_
_space_group_symop_operation_xyz
x,y,z
-x,y,1/2-z
-x,-y,-z
x,-y,1/2+z
1/2+x,1/2+y,z
1/2-x,1/2+y,1/2-z
1/2-x,1/2-y,-z
1/2+x,1/2-y,1/2+z
loop_
_atom_site_type_symbol
_atom_site_label
_atom_site_fract_x
_atom_site_fract_y
_atom_site_fract_z
Si Si1 0.421211 0.549933 0.874184
Si Si2 0.595789 0.039532 0.972503
Si Si3 0.289190 0.619449 0.361820
Si Si4 0.570571 0.306866 0.864517
O O1 0.298507 0.472455 0.851290
O O2 0.175132 0.568520 0.700289
O O3 0.701247 0.519076 0.972687
O O4 0.489679 0.618700 0.964485
O O5 0.768945 0.114612 0.074249
O O6 0.500000 0.000000 0.000000
O O7 0.347512 0.663964 0.314724
O O8 0.000000 0.643621 0.250000
O O9 0.500000 0.273786 0.750000
O O10 0.750000 0.250000 0.000000
#
# Coordination Sequence:
#
# PCOD9269056 Si02
#       4
#     8   8   8   8
#     4  10  20  33  65  97 131 170 215 274 340 388
#     4  11  21  39  65 102 135 169 225 286 332 387
#     4  10  20  39  64  96 131 169 223 271 331 398
#     4  11  27  45  67  92 137 181 223 272 340 414
#
# _framework density 20.546776999999999
#
# number of rings (size 3 to 8) (size 9 to 14) (size 15 to 20)
#    0.000    1.500    2.500    3.750    3.500    0.000 
#    0.000    3.750    0.000    0.000    0.000    0.000 
#    0.000    0.000    0.000    0.000    0.000    0.000 
#
# Total GULP energy -89180.411021 kJ/mol
# GULP energy per Si atom -5573.775689 kJ/mol
# Density = 2.050001 g / cm^3
# Si number density = 20.546777 Si / 1000 Ang^3
#
#
#
# Elastic Constant Matrix: (Units=GPa)
#
#
# Indices 1 2 3 4 5 6 
#
# 1 164.3737 31.2121 67.8767 0.0029 3.5505 0.0018
# 2 31.2121 30.4399 -2.1341 0.0100 3.0497 -0.0050
# 3 67.8767 -2.1341 128.7765 0.0165 -14.7101 -0.0071
# 4 0.0029 0.0100 0.0165 13.6800 -0.0024 -10.0005
# 5 3.5505 3.0497 -14.7101 -0.0024 44.3284 0.0011
# 6 0.0018 -0.0050 -0.0071 -10.0005 0.0011 13.6431
#
#
#
# Elastic Compliance Matrix: (Units=1/GPa)
#
#
# Indices 1 2 3 4 5 6 
#
# 1 0.010802 -0.011293 -0.006123 0.000014 -0.002120 0.000002
# 2 -0.011293 0.044897 0.006701 -0.000049 0.000039 -0.000015
# 3 -0.006123 0.006701 0.011545 -0.000022 0.003861 -0.000007
# 4 0.000014 -0.000049 -0.000022 0.157492 0.000000 0.115443
# 5 -0.002120 0.000039 0.003861 0.000000 0.024007 0.000001
# 6 0.000002 -0.000015 -0.000007 0.115443 0.000001 0.157917
#
#
# Mechanical properties :
#
#
# Convention : Reuss Voigt Hill
#
# Bulk Modulus (GPa) = 21.82742 57.49994 39.66368
# Shear Modulus (GPa) = 11.27743 29.43932 20.35837
#
# Velocity S-wave (km/s) = 2.34533 3.78933 3.15116
# Velocity P-wave (km/s) = 4.24034 6.86957 5.70839
#
# Compressibility (1/GPa) = 0.04581393
#
# Stress axis : x y z
#
# Youngs Moduli (GPa) = 92.57147 22.27301 86.61817
#
# Poissons Ratio (x) = 0.25154 0.53038
# Poissons Ratio (y) = 1.04544 -0.58044
# Poissons Ratio (z) = 0.56684 -0.14926
#
# Static dielectric constant tensor:
#      x y z
#    x 1.780190 0.000000 -0.083170 
#    y 0.000000 1.751290 0.000010 
#    z -0.083170 0.000010 1.847970 
# 
# From -- ./inp_files/28530.got.cif
#   From: 2010.05.17/outbox.cif.g08.bks.cpg/sg15_15_cif.got.tgz:28530.got - 2010.06.03 18:47:42.
