data_PCOD9269853
_publ_section_title
;
Structure prediction by ZEFSAII (Michael W. Deem and Ramdas Pophale) SiO2 
 PCOD9269853
Probable space group: C 2/C
;
_chemical_formula_sum "Si O2"
_cell_formula_units_Z 36
_cell_length_a 20.568664
_cell_length_b 17.369182
_cell_length_c 8.751654
_cell_angle_alpha 90.000000
_cell_angle_beta 31.303614
_cell_angle_gamma 90.000000
_cell_volume 1624.509178
_symmetry_space_group_name_H-M "C 2/C"
_symmetry_group_IT_number 15
_symmetry_cell_setting 'monoclinic'
loop_
_space_group_symop_operation_xyz
x,y,z
-x,y,1/2-z
-x,-y,-z
x,-y,1/2+z
1/2+x,1/2+y,z
1/2-x,1/2+y,1/2-z
1/2-x,1/2-y,-z
1/2+x,1/2-y,1/2+z
loop_
_atom_site_type_symbol
_atom_site_label
_atom_site_fract_x
_atom_site_fract_y
_atom_site_fract_z
Si Si1 0.265280 0.142452 0.026712
Si Si2 0.000000 0.979731 0.750000
Si Si3 0.192318 0.817534 0.016229
Si Si4 0.186640 0.968315 0.134656
Si Si5 0.549158 0.730657 0.324919
O O1 0.213573 0.175806 0.292612
O O2 0.170794 0.176242 0.091041
O O3 0.250798 0.049678 0.043783
O O4 0.399406 0.183615 0.737762
O O5 0.105889 0.939417 0.440366
O O6 0.916705 0.024400 0.793223
O O7 0.263762 0.895205 0.929334
O O8 0.048184 0.805506 0.358031
O O9 0.250000 0.750000 0.000000
O O10 0.500000 0.732231 0.250000
#
# Coordination Sequence:
#
# PCOD9269853 Si02
#       5
#     8   4   8   8   8
#     4  11  25  44  64 101 139 171 219 282 338 404
#     4  10  20  34  62  94 126 164 216 288 320 376
#     4  12  25  43  69  98 134 180 224 279 336 400
#     4  11  23  37  62  98 130 171 224 280 329 389
#     4  11  24  41  69  98 134 176 220 272 345 395
#
# _framework density 22.160537999999999
#
# number of rings (size 3 to 8) (size 9 to 14) (size 15 to 20)
#    0.000    0.889    4.444    3.333    6.222    0.000 
#    0.000    1.111    0.000    0.000    0.000    0.000 
#    0.000    0.000    0.000    0.000    0.000    0.000 
#
# Total GULP energy -100284.856182 kJ/mol
# GULP energy per Si atom -5571.380899 kJ/mol
# Density = 2.211010 g / cm^3
# Si number density = 22.160538 Si / 1000 Ang^3
#
#
#
# Elastic Constant Matrix: (Units=GPa)
#
#
# Indices 1 2 3 4 5 6 
#
# 1 123.0326 53.7443 17.5497 0.0000 12.2122 0.0000
# 2 53.7443 177.4099 24.9794 0.0000 -5.9951 0.0000
# 3 17.5497 24.9794 53.7424 0.0000 9.9399 0.0000
# 4 0.0000 0.0000 0.0000 -10.3932 0.0000 48.5254
# 5 12.2122 -5.9951 9.9399 0.0000 22.9687 0.0000
# 6 0.0000 0.0000 0.0000 48.5254 0.0000 -68.5976
#
#
#
# Elastic Compliance Matrix: (Units=1/GPa)
#
#
# Indices 1 2 3 4 5 6 
#
# 1 0.010219 -0.003190 -0.000756 0.000000 -0.005939 0.000000
# 2 -0.003190 0.007228 -0.003240 0.000000 0.004984 0.000000
# 3 -0.000756 -0.003240 0.022220 0.000000 -0.010060 0.000000
# 4 0.000000 0.000000 0.000000 0.041783 0.000000 0.029557
# 5 -0.005939 0.004984 -0.010060 0.000000 0.052349 0.000000
# 6 0.000000 0.000000 0.000000 0.029557 0.000000 0.006330
#
#
# Mechanical properties :
#
#
# Convention : Reuss Voigt Hill
#
# Bulk Modulus (GPa) = 39.53202 60.74793 50.13998
# Shear Modulus (GPa) = 30.68766 5.98971 18.33868
#
# Velocity S-wave (km/s) = 3.72531 1.64582 2.87982
# Velocity P-wave (km/s) = 6.03171 5.57529 5.80799
#
# Compressibility (1/GPa) = 0.02529595
#
# Stress axis : x y z
#
# Youngs Moduli (GPa) = 97.86038 138.35915 45.00356
#
# Poissons Ratio (x) = 0.44135 0.03402
# Poissons Ratio (y) = 0.31216 0.14579
# Poissons Ratio (z) = 0.07397 0.44823
#
# Static dielectric constant tensor:
#      x y z
#    x 1.882440 0.000000 -0.016750 
#    y 0.000000 1.932000 0.000000 
#    z -0.016750 0.000000 1.932720 
# 
# From -- ./inp_files/56904.got.cif
#   From: 2010.05.17/outbox.cif.g08.bks.cpg/sg15_29_cif.got.tgz:56904.got - 2010.06.03 18:47:42.
