data_PCOD9269355
_publ_section_title
;
Structure prediction by ZEFSAII (Michael W. Deem and Ramdas Pophale) SiO2 
 PCOD9269355
Probable space group: C 2/C
;
_chemical_formula_sum "Si O2"
_cell_formula_units_Z 56
_cell_length_a 6.958352
_cell_length_b 12.175874
_cell_length_c 28.227733
_cell_angle_alpha 90.000000
_cell_angle_beta 112.546844
_cell_angle_gamma 90.000000
_cell_volume 2208.770743
_symmetry_space_group_name_H-M "C 2/C"
_symmetry_group_IT_number 15
_symmetry_cell_setting 'monoclinic'
loop_
_space_group_symop_operation_xyz
x,y,z
-x,y,1/2-z
-x,-y,-z
x,-y,1/2+z
1/2+x,1/2+y,z
1/2-x,1/2+y,1/2-z
1/2-x,1/2-y,-z
1/2+x,1/2-y,1/2+z
loop_
_atom_site_type_symbol
_atom_site_label
_atom_site_fract_x
_atom_site_fract_y
_atom_site_fract_z
Si Si1 0.642336 0.761039 0.585031
Si Si2 0.419449 0.512785 0.835467
Si Si3 0.184116 0.452304 0.229196
Si Si4 0.358308 0.535562 0.056219
Si Si5 0.211115 0.399301 0.955252
Si Si6 0.858904 0.170687 0.196921
Si Si7 0.575994 0.067383 0.875881
O O1 0.738174 0.856897 0.561836
O O2 0.771488 0.652709 0.583578
O O3 0.396543 0.779877 0.555296
O O4 0.706241 0.766744 0.647095
O O5 0.374718 0.579462 0.782809
O O6 0.588901 0.536864 0.891782
O O7 0.483069 0.392518 0.823165
O O8 0.215151 0.512730 0.847949
O O9 0.241771 0.572162 0.213120
O O10 0.000000 0.462531 0.250000
O O11 0.113922 0.388482 0.174553
O O12 0.570475 0.582996 0.051558
O O13 0.243520 0.458588 0.008106
O O14 0.040824 0.471230 0.909497
O O15 0.000000 0.230507 0.250000
#
# Coordination Sequence:
#
# PCOD9269355 Si02
#       7
#     8   8   8   8   8   8   8
#     4  11  21  36  58  88 116 149 203 245 302 360
#     4   8  17  33  54  77 110 149 192 231 292 355
#     4   9  16  31  55  78 107 149 184 231 293 357
#     4   9  20  38  59  85 113 158 202 245 290 361
#     4  10  20  40  59  79 122 155 198 250 300 355
#     4   9  17  32  55  79 108 151 190 236 298 354
#     4  10  20  34  55  86 112 152 193 244 303 355
#
# _framework density 25.353467999999999
#
# number of rings (size 3 to 8) (size 9 to 14) (size 15 to 20)
#    0.000    2.571    1.429    0.429    0.000    2.286 
#    2.571    6.429    0.000    4.286    0.000    0.000 
#    0.000    0.000    0.000    0.000    0.000    0.000 
#
# Total GULP energy -156055.278906 kJ/mol
# GULP energy per Si atom -5573.402818 kJ/mol
# Density = 2.529576 g / cm^3
# Si number density = 25.353468 Si / 1000 Ang^3
#
#
#
# Elastic Constant Matrix: (Units=GPa)
#
#
# Indices 1 2 3 4 5 6 
#
# 1 80.6865 24.5576 13.6140 0.0000 0.5334 0.0000
# 2 24.5576 60.2948 2.0287 0.0000 -7.3871 0.0000
# 3 13.6140 2.0287 161.1546 0.0000 7.7477 0.0000
# 4 0.0000 0.0000 0.0000 31.9939 0.0000 11.7662
# 5 0.5334 -7.3871 7.7477 0.0000 35.7874 0.0000
# 6 0.0000 0.0000 0.0000 11.7662 0.0000 12.7452
#
#
#
# Elastic Compliance Matrix: (Units=1/GPa)
#
#
# Indices 1 2 3 4 5 6 
#
# 1 0.014404 -0.005979 -0.001083 0.000000 -0.001214 0.000000
# 2 -0.005979 0.019521 0.000062 0.000000 0.004105 0.000000
# 3 -0.001083 0.000062 0.006361 0.000000 -0.001348 0.000000
# 4 0.000000 0.000000 0.000000 0.047323 0.000000 -0.043688
# 5 -0.001214 0.004105 -0.001348 0.000000 0.029100 0.000000
# 6 0.000000 0.000000 0.000000 -0.043688 0.000000 0.118793
#
#
# Mechanical properties :
#
#
# Convention : Reuss Voigt Hill
#
# Bulk Modulus (GPa) = 38.04344 42.50405 40.27374
# Shear Modulus (GPa) = 19.36004 33.56769 26.46387
#
# Velocity S-wave (km/s) = 2.76634 3.64261 3.23429
# Velocity P-wave (km/s) = 5.02407 5.87303 5.46506
#
# Compressibility (1/GPa) = 0.02628574
#
# Stress axis : x y z
#
# Youngs Moduli (GPa) = 69.42419 51.22622 157.21401
#
# Poissons Ratio (x) = 0.30628 0.17029
# Poissons Ratio (y) = 0.41509 -0.00975
# Poissons Ratio (z) = 0.07520 -0.00318
#
# Static dielectric constant tensor:
#      x y z
#    x 2.080170 0.000000 0.125620 
#    y 0.000000 1.999120 0.000000 
#    z 0.125620 0.000000 2.096530 
# 
# From -- ./inp_files/288852.got.cif
#   From: 2010.05.17/outbox.cif.g08.bks.cpg/sg15_145_cif.got.tgz:288852.got - 2010.06.03 18:47:42.
