data_PCOD9269973
_publ_section_title
;
Structure prediction by ZEFSAII (Michael W. Deem and Ramdas Pophale) SiO2 
 PCOD9269973
Probable space group: C 2/C
;
_chemical_formula_sum "Si O2"
_cell_formula_units_Z 64
_cell_length_a 32.217355
_cell_length_b 17.471120
_cell_length_c 11.843508
_cell_angle_alpha 90.000000
_cell_angle_beta 30.286040
_cell_angle_gamma 90.000000
_cell_volume 3361.977521
_symmetry_space_group_name_H-M "C 2/C"
_symmetry_group_IT_number 15
_symmetry_cell_setting 'monoclinic'
loop_
_space_group_symop_operation_xyz
x,y,z
-x,y,1/2-z
-x,-y,-z
x,-y,1/2+z
1/2+x,1/2+y,z
1/2-x,1/2+y,1/2-z
1/2-x,1/2-y,-z
1/2+x,1/2-y,1/2+z
loop_
_atom_site_type_symbol
_atom_site_label
_atom_site_fract_x
_atom_site_fract_y
_atom_site_fract_z
Si Si1 0.780925 0.410071 0.643944
Si Si2 0.723245 0.338974 0.551605
Si Si3 0.747537 0.581461 0.752930
Si Si4 0.702887 0.687126 0.684018
Si Si5 0.880769 0.118237 0.831926
Si Si6 0.562104 0.538118 0.204681
Si Si7 0.584169 0.788889 0.118447
Si Si8 0.457902 0.320699 0.586110
O O1 0.763696 0.389924 0.554041
O O2 0.791452 0.499852 0.645397
O O3 0.859225 0.362653 0.500628
O O4 0.698934 0.379843 0.900611
O O5 0.750000 0.250000 0.500000
O O6 0.746678 0.375371 0.375024
O O7 0.623551 0.340549 0.793337
O O8 0.768346 0.640060 0.604739
O O9 0.652548 0.559889 0.948493
O O10 0.750000 0.750000 0.500000
O O11 0.654189 0.634400 0.710034
O O12 0.639258 0.728101 0.918731
O O13 0.954699 0.178073 0.681732
O O14 0.920705 0.034919 0.757305
O O15 0.500000 0.519842 0.250000
O O16 0.532885 0.611442 0.343127
O O17 0.500000 0.802233 0.250000
O O18 0.562553 0.753513 0.291502
#
# Coordination Sequence:
#
# PCOD9269973 Si02
#       8
#     8   8   8   8   8   8   8   8
#     4  11  25  41  62  94 128 171 214 260 322 389
#     4  11  22  41  65  89 129 169 216 260 325 391
#     4  10  24  39  64  92 127 172 208 260 327 390
#     4  12  22  39  64  91 127 156 219 272 317 372
#     4  11  24  33  57  95 128 163 203 264 326 381
#     4  10  20  35  52  85 135 167 200 243 321 404
#     4  12  22  42  64  91 122 175 222 266 314 384
#     4  11  21  36  60  89 125 173 208 257 321 388
#
# _framework density 19.036415000000002
#
# number of rings (size 3 to 8) (size 9 to 14) (size 15 to 20)
#    0.000    1.000    6.250    1.500    8.750    0.000 
#    0.000    0.000    0.000    4.500    0.000    0.000 
#    0.000    0.000    0.000    0.000    0.000    0.000 
#
# Total GULP energy -178698.515193 kJ/mol
# GULP energy per Si atom -5584.328600 kJ/mol
# Density = 1.899309 g / cm^3
# Si number density = 19.036415 Si / 1000 Ang^3
#
#
#
# Elastic Constant Matrix: (Units=GPa)
#
#
# Indices 1 2 3 4 5 6 
#
# 1 90.3751 54.3584 1.0331 0.0000 -10.2014 0.0000
# 2 54.3584 126.9582 41.9798 0.0000 0.1300 0.0000
# 3 1.0331 41.9798 56.5789 0.0000 -7.1202 0.0000
# 4 0.0000 0.0000 0.0000 29.6335 0.0000 -0.6288
# 5 -10.2014 0.1300 -7.1202 0.0000 24.3005 0.0000
# 6 0.0000 0.0000 0.0000 -0.6288 0.0000 35.8476
#
#
#
# Elastic Compliance Matrix: (Units=1/GPa)
#
#
# Indices 1 2 3 4 5 6 
#
# 1 0.018885 -0.011169 0.009290 0.000000 0.010710 0.000000
# 2 -0.011169 0.017181 -0.013648 0.000000 -0.008780 0.000000
# 3 0.009290 -0.013648 0.029208 0.000000 0.012531 0.000000
# 4 0.000000 0.000000 0.000000 0.033758 0.000000 0.000592
# 5 0.010710 -0.008780 0.012531 0.000000 0.049366 0.000000
# 6 0.000000 0.000000 0.000000 0.000592 0.000000 0.027906
#
#
# Mechanical properties :
#
#
# Convention : Reuss Voigt Hill
#
# Bulk Modulus (GPa) = 29.22281 52.07276 40.64778
# Shear Modulus (GPa) = 22.85549 29.72573 26.29061
#
# Velocity S-wave (km/s) = 3.46875 3.95589 3.72031
# Velocity P-wave (km/s) = 5.60601 6.94832 6.31294
#
# Compressibility (1/GPa) = 0.03421985
#
# Stress axis : x y z
#
# Youngs Moduli (GPa) = 52.95108 58.20551 34.23661
#
# Poissons Ratio (x) = 0.65008 -0.31805
# Poissons Ratio (y) = 0.59139 0.46727
# Poissons Ratio (z) = -0.49190 0.79441
#
# Static dielectric constant tensor:
#      x y z
#    x 1.669370 0.000000 0.026180 
#    y 0.000000 1.700560 0.000000 
#    z 0.026180 0.000000 1.718940 
# 
# From -- ./inp_files/127271.got.cif
#   From: 2010.05.17/outbox.cif.g08.bks.cpg/sg15_64_cif.got.tgz:127271.got - 2010.06.03 18:47:42.
