data_PCOD9269279
_publ_section_title
;
Structure prediction by ZEFSAII (Michael W. Deem and Ramdas Pophale) SiO2 
 PCOD9269279
Probable space group: C 2/C
;
_chemical_formula_sum "Si O2"
_cell_formula_units_Z 48
_cell_length_a 11.457686
_cell_length_b 20.740877
_cell_length_c 11.180689
_cell_angle_alpha 90.000000
_cell_angle_beta 104.038382
_cell_angle_gamma 90.000000
_cell_volume 2577.650772
_symmetry_space_group_name_H-M "C 2/C"
_symmetry_group_IT_number 15
_symmetry_cell_setting 'monoclinic'
loop_
_space_group_symop_operation_xyz
x,y,z
-x,y,1/2-z
-x,-y,-z
x,-y,1/2+z
1/2+x,1/2+y,z
1/2-x,1/2+y,1/2-z
1/2-x,1/2-y,-z
1/2+x,1/2-y,1/2+z
loop_
_atom_site_type_symbol
_atom_site_label
_atom_site_fract_x
_atom_site_fract_y
_atom_site_fract_z
Si Si1 0.210122 0.326036 0.845272
Si Si2 0.635835 0.982734 0.137930
Si Si3 0.103580 0.340930 0.184498
Si Si4 0.139726 0.471330 0.887905
Si Si5 0.703272 0.260284 0.123407
Si Si6 0.067179 0.232961 0.982563
O O1 0.157680 0.395773 0.862983
O O2 0.209646 0.305397 0.705605
O O3 0.132682 0.269652 0.890016
O O4 0.341980 0.319300 0.938870
O O5 0.631436 0.905805 0.122098
O O6 0.502815 0.013846 0.124593
O O7 0.691668 0.995393 0.281603
O O8 0.692286 0.001370 0.024445
O O9 0.212783 0.310280 0.284851
O O10 0.000000 0.359565 0.250000
O O11 0.056368 0.286793 0.083278
O O12 0.566819 0.285627 0.085337
O O13 0.750000 0.250000 0.000000
#
# Coordination Sequence:
#
# PCOD9269279 Si02
#       6
#     8   8   8   8   8   8
#     4  10  22  36  58  84 123 154 196 247 301 362
#     4  10  21  32  55  84 113 154 192 251 299 342
#     4  11  19  36  55  82 121 150 193 247 296 346
#     4  10  20  34  54  84 113 150 192 248 301 347
#     4  11  23  33  58  87 119 160 196 244 298 365
#     4  10  21  38  56  84 120 159 194 242 300 359
#
# _framework density 18.621607000000001
#
# number of rings (size 3 to 8) (size 9 to 14) (size 15 to 20)
#    0.000    1.667    5.000    0.500    4.667    1.333 
#    0.000    0.000    0.000    1.000    0.000    0.000 
#    0.000    0.000    0.000    0.000    0.000    0.000 
#
# Total GULP energy -133671.463821 kJ/mol
# GULP energy per Si atom -5569.644326 kJ/mol
# Density = 1.857922 g / cm^3
# Si number density = 18.621607 Si / 1000 Ang^3
#
#
#
# Elastic Constant Matrix: (Units=GPa)
#
#
# Indices 1 2 3 4 5 6 
#
# 1 63.9649 0.0077 20.1650 0.0000 16.5589 0.0000
# 2 0.0077 54.3083 4.2674 0.0000 6.8822 0.0000
# 3 20.1650 4.2674 121.5217 0.0000 -20.8452 0.0000
# 4 0.0000 0.0000 0.0000 14.5716 0.0000 -4.8094
# 5 16.5589 6.8822 -20.8452 0.0000 31.7658 0.0000
# 6 0.0000 0.0000 0.0000 -4.8094 0.0000 23.4907
#
#
#
# Elastic Compliance Matrix: (Units=1/GPa)
#
#
# Indices 1 2 3 4 5 6 
#
# 1 0.021888 0.002566 -0.006507 0.000000 -0.016235 0.000000
# 2 0.002566 0.019494 -0.002326 0.000000 -0.007087 0.000000
# 3 -0.006507 -0.002326 0.011335 0.000000 0.011334 0.000000
# 4 0.000000 0.000000 0.000000 0.073600 0.000000 0.015069
# 5 -0.016235 -0.007087 0.011334 0.000000 0.048916 0.000000
# 6 0.000000 0.000000 0.000000 0.015069 0.000000 0.045655
#
#
# Mechanical properties :
#
#
# Convention : Reuss Voigt Hill
#
# Bulk Modulus (GPa) = 24.88721 32.07502 28.48112
# Shear Modulus (GPa) = 20.25799 28.32260 24.29030
#
# Velocity S-wave (km/s) = 3.30187 3.90417 3.61559
# Velocity P-wave (km/s) = 5.28490 6.13070 5.72344
#
# Compressibility (1/GPa) = 0.04018128
#
# Stress axis : x y z
#
# Youngs Moduli (GPa) = 45.68817 51.29806 88.22582
#
# Poissons Ratio (x) = -0.13161 0.57408
# Poissons Ratio (y) = -0.11722 0.20521
# Poissons Ratio (z) = 0.29729 0.11932
#
# Static dielectric constant tensor:
#      x y z
#    x 1.640160 0.000000 0.008580 
#    y 0.000000 1.651600 0.000000 
#    z 0.008580 0.000000 1.831430 
# 
# From -- ./inp_files/88524.got.cif
#   From: 2010.05.17/outbox.cif.g08.bks.cpg/sg15_45_cif.got.tgz:88524.got - 2010.06.03 18:47:42.
