data_PCOD9269819
_publ_section_title
;
Structure prediction by ZEFSAII (Michael W. Deem and Ramdas Pophale) SiO2 
 PCOD9269819
Probable space group: C 2/C
;
_chemical_formula_sum "Si O2"
_cell_formula_units_Z 56
_cell_length_a 19.192436
_cell_length_b 14.691881
_cell_length_c 14.804608
_cell_angle_alpha 90.000000
_cell_angle_beta 139.115937
_cell_angle_gamma 90.000000
_cell_volume 2732.337449
_symmetry_space_group_name_H-M "C 2/C"
_symmetry_group_IT_number 15
_symmetry_cell_setting 'monoclinic'
loop_
_space_group_symop_operation_xyz
x,y,z
-x,y,1/2-z
-x,-y,-z
x,-y,1/2+z
1/2+x,1/2+y,z
1/2-x,1/2+y,1/2-z
1/2-x,1/2-y,-z
1/2+x,1/2-y,1/2+z
loop_
_atom_site_type_symbol
_atom_site_label
_atom_site_fract_x
_atom_site_fract_y
_atom_site_fract_z
Si Si1 0.014325 0.710386 0.030016
Si Si2 0.181808 0.485163 0.422231
Si Si3 0.440276 0.404508 0.948565
Si Si4 0.595389 0.961848 0.028742
Si Si5 0.886603 0.102958 0.187161
Si Si6 0.594236 0.801982 0.273268
Si Si7 0.794083 0.415881 0.731642
O O1 0.131454 0.665017 0.155212
O O2 0.011234 0.817716 0.047055
O O3 0.933322 0.644678 0.006093
O O4 0.963399 0.703625 0.879981
O O5 0.110869 0.498789 0.443041
O O6 0.302582 0.472233 0.574678
O O7 0.163702 0.391220 0.350784
O O8 0.165063 0.560224 0.328735
O O9 0.401905 0.395551 0.808446
O O10 0.331381 0.399568 0.898305
O O11 0.500000 0.500000 0.000000
O O12 0.692318 0.999009 0.185014
O O13 0.500000 0.000000 0.000000
O O14 0.852058 0.208357 0.140944
O O15 0.000000 0.090498 0.250000
O O16 0.500000 0.817476 0.250000
#
# Coordination Sequence:
#
# PCOD9269819 Si02
#       7
#     8   8   8   8   8   8   8
#     4  10  23  42  62  97 136 169 226 278 338 406
#     4  12  22  37  69  94 136 177 220 272 345 398
#     4  11  24  45  69  92 131 182 224 284 340 400
#     4  10  21  39  62  97 135 166 219 275 331 410
#     4  10  22  40  59  97 134 167 225 276 340 408
#     4  10  20  34  61  98 132 168 208 282 339 397
#     4  11  23  41  67 100 133 178 227 273 344 404
#
# _framework density 20.495270999999999
#
# number of rings (size 3 to 8) (size 9 to 14) (size 15 to 20)
#    0.000    1.429    2.857    3.000    2.000    1.143 
#    7.714    0.714    6.286    0.000    0.000    0.000 
#    0.000    0.000    0.000    0.000    0.000    0.000 
#
# Total GULP energy -155945.235636 kJ/mol
# GULP energy per Si atom -5569.472701 kJ/mol
# Density = 2.044862 g / cm^3
# Si number density = 20.495271 Si / 1000 Ang^3
#
#
#
# Elastic Constant Matrix: (Units=GPa)
#
#
# Indices 1 2 3 4 5 6 
#
# 1 91.2396 24.3884 28.8635 0.0000 -9.9682 0.0000
# 2 24.3884 118.8418 33.8032 0.0000 19.1653 0.0000
# 3 28.8635 33.8032 65.0578 0.0000 1.4617 0.0000
# 4 0.0000 0.0000 0.0000 42.2889 0.0000 18.9066
# 5 -9.9682 19.1653 1.4617 0.0000 30.3509 0.0000
# 6 0.0000 0.0000 0.0000 18.9066 0.0000 18.5636
#
#
#
# Elastic Compliance Matrix: (Units=1/GPa)
#
#
# Indices 1 2 3 4 5 6 
#
# 1 0.013902 -0.002443 -0.005041 0.000000 0.006351 0.000000
# 2 -0.002443 0.011528 -0.004729 0.000000 -0.007854 0.000000
# 3 -0.005041 -0.004729 0.020056 0.000000 0.000365 0.000000
# 4 0.000000 0.000000 0.000000 0.043416 0.000000 -0.044218
# 5 0.006351 -0.007854 0.000365 0.000000 0.039976 0.000000
# 6 0.000000 0.000000 0.000000 -0.044218 0.000000 0.098904
#
#
# Mechanical properties :
#
#
# Convention : Reuss Voigt Hill
#
# Bulk Modulus (GPa) = 47.48520 49.91659 48.70090
# Shear Modulus (GPa) = 19.28798 30.77963 25.03381
#
# Velocity S-wave (km/s) = 3.07105 3.87950 3.49871
# Velocity P-wave (km/s) = 5.98284 6.66899 6.33521
#
# Compressibility (1/GPa) = 0.02105919
#
# Stress axis : x y z
#
# Youngs Moduli (GPa) = 71.93289 86.74735 49.85941
#
# Poissons Ratio (x) = 0.21196 0.25133
# Poissons Ratio (y) = 0.17576 0.23579
# Poissons Ratio (z) = 0.36260 0.41024
#
# Static dielectric constant tensor:
#      x y z
#    x 1.729660 0.000000 0.012090 
#    y 0.000000 1.810880 0.000000 
#    z 0.012090 0.000000 1.817870 
# 
# From -- ./inp_files/168490.got.cif
#   From: 2010.05.17/outbox.cif.g08.bks.cpg/sg15_85_cif.got.tgz:168490.got - 2010.06.03 18:47:42.
