data_PCOD9269828
_publ_section_title
;
Structure prediction by ZEFSAII (Michael W. Deem and Ramdas Pophale) SiO2 
 PCOD9269828
Probable space group: C 2/C
;
_chemical_formula_sum "Si O2"
_cell_formula_units_Z 36
_cell_length_a 23.359115
_cell_length_b 15.768766
_cell_length_c 14.679493
_cell_angle_alpha 90.000000
_cell_angle_beta 160.626381
_cell_angle_gamma 90.000000
_cell_volume 1793.683089
_symmetry_space_group_name_H-M "C 2/C"
_symmetry_group_IT_number 15
_symmetry_cell_setting 'monoclinic'
loop_
_space_group_symop_operation_xyz
x,y,z
-x,y,1/2-z
-x,-y,-z
x,-y,1/2+z
1/2+x,1/2+y,z
1/2-x,1/2+y,1/2-z
1/2-x,1/2-y,-z
1/2+x,1/2-y,1/2+z
loop_
_atom_site_type_symbol
_atom_site_label
_atom_site_fract_x
_atom_site_fract_y
_atom_site_fract_z
Si Si1 0.000000 0.217731 0.250000
Si Si2 0.685860 0.908811 0.065932
Si Si3 0.174291 0.582692 0.954161
Si Si4 0.853904 0.617723 0.792877
Si Si5 0.508440 0.715975 0.057807
O O1 0.165930 0.158868 0.503133
O O2 0.991661 0.254449 0.339627
O O3 0.651237 0.931354 0.120155
O O4 0.836972 0.839266 0.286950
O O5 0.738586 0.992439 0.089396
O O6 0.500000 0.878832 0.750000
O O7 0.323014 0.654063 0.194771
O O8 0.128687 0.573330 0.778617
O O9 0.000000 0.599338 0.750000
O O10 0.975785 0.701131 0.981332
#
# Coordination Sequence:
#
# PCOD9269828 Si02
#       5
#     4   8   8   8   8
#     4   8  16  32  54  92 110 134 186 254 278 316
#     4  10  23  40  55  82 123 155 187 235 288 346
#     4  10  21  35  62  87 118 145 192 240 294 333
#     4  10  21  34  62  86 114 149 196 239 282 337
#     4  10  20  34  62  87 116 146 195 240 287 333
#
# _framework density 20.070435
#
# number of rings (size 3 to 8) (size 9 to 14) (size 15 to 20)
#    0.000    2.222    0.000    3.333    9.333    4.444 
#    0.000    0.000    4.889    0.000    0.000    0.000 
#    0.000    0.000    0.000    0.000    0.000    0.000 
#
# Total GULP energy -100284.981233 kJ/mol
# GULP energy per Si atom -5571.387846 kJ/mol
# Density = 2.002475 g / cm^3
# Si number density = 20.070435 Si / 1000 Ang^3
#
#
#
# Elastic Constant Matrix: (Units=GPa)
#
#
# Indices 1 2 3 4 5 6 
#
# 1 115.0177 29.0141 12.4392 0.0000 -12.9147 0.0000
# 2 29.0141 89.3883 20.3204 0.0000 -5.0052 0.0000
# 3 12.4392 20.3204 62.5970 0.0000 1.9894 0.0000
# 4 0.0000 0.0000 0.0000 1873.5792 0.0000 748.5382
# 5 -12.9147 -5.0052 1.9894 0.0000 33.8994 0.0000
# 6 0.0000 0.0000 0.0000 748.5382 0.0000 337.2487
#
#
#
# Elastic Compliance Matrix: (Units=1/GPa)
#
#
# Indices 1 2 3 4 5 6 
#
# 1 0.009902 -0.002753 -0.001183 0.000000 0.003436 0.000000
# 2 -0.002753 0.012983 -0.003702 0.000000 0.001085 0.000000
# 3 -0.001183 -0.003702 0.017476 0.000000 -0.002023 0.000000
# 4 0.000000 0.000000 0.000000 0.004713 0.000000 -0.010461
# 5 0.003436 0.001085 -0.002023 0.000000 0.031087 0.000000
# 6 0.000000 0.000000 0.000000 -0.010461 0.000000 0.026185
#
#
# Mechanical properties :
#
#
# Convention : Reuss Voigt Hill
#
# Bulk Modulus (GPa) = 39.86370 43.39448 41.62909
# Shear Modulus (GPa) = 39.68726 462.62741 251.15733
#
# Velocity S-wave (km/s) = 4.45162 15.19876 11.19864
# Velocity P-wave (km/s) = 6.80644 18.15685 13.71129
#
# Compressibility (1/GPa) = 0.02508548
#
# Stress axis : x y z
#
# Youngs Moduli (GPa) = 100.98491 77.02361 57.21991
#
# Poissons Ratio (x) = 0.21203 0.06771
# Poissons Ratio (y) = 0.27799 0.21183
# Poissons Ratio (z) = 0.11950 0.28515
#
# Static dielectric constant tensor:
#      x y z
#    x 0.628530 0.000000 -1.257030 
#    y 0.000000 1.809500 0.000000 
#    z -1.257030 0.000000 0.279700 
# 
# From -- ./inp_files/77590.got.cif
#   From: 2010.05.17/outbox.cif.g08.bks.cpg/sg15_39_cif.got.tgz:77590.got - 2010.06.03 18:47:42.
