data_PCOD9269094
_publ_section_title
;
Structure prediction by ZEFSAII (Michael W. Deem and Ramdas Pophale) SiO2 
 PCOD9269094
Probable space group: C 2/C
;
_chemical_formula_sum "Si O2"
_cell_formula_units_Z 52
_cell_length_a 14.573908
_cell_length_b 31.644966
_cell_length_c 5.257202
_cell_angle_alpha 90.000000
_cell_angle_beta 111.597892
_cell_angle_gamma 90.000000
_cell_volume 2254.344096
_symmetry_space_group_name_H-M "C 2/C"
_symmetry_group_IT_number 15
_symmetry_cell_setting 'monoclinic'
loop_
_space_group_symop_operation_xyz
x,y,z
-x,y,1/2-z
-x,-y,-z
x,-y,1/2+z
1/2+x,1/2+y,z
1/2-x,1/2+y,1/2-z
1/2-x,1/2-y,-z
1/2+x,1/2-y,1/2+z
loop_
_atom_site_type_symbol
_atom_site_label
_atom_site_fract_x
_atom_site_fract_y
_atom_site_fract_z
Si Si1 0.127574 0.016178 0.316263
Si Si2 0.068657 0.220400 0.070187
Si Si3 0.151442 0.483655 0.051789
Si Si4 0.274546 0.110057 0.741197
Si Si5 0.340733 0.365834 0.881205
Si Si6 0.432976 0.816090 0.431131
Si Si7 0.000000 0.090730 0.250000
O O1 0.242616 0.007102 0.395891
O O2 0.091948 0.982641 0.489762
O O3 0.088554 0.058395 0.408988
O O4 0.152083 0.184684 0.135961
O O5 0.108718 0.268269 0.120719
O O6 0.000000 0.214166 0.250000
O O7 0.000000 0.216611 0.750000
O O8 0.102487 0.490063 0.728332
O O9 0.174993 0.435405 0.151118
O O10 0.231752 0.115807 0.411998
O O11 0.352679 0.147515 0.855985
O O12 0.193793 0.118532 0.879691
O O13 0.450446 0.381339 0.915703
O O14 0.500000 0.821502 0.250000
O O15 0.500000 0.818960 0.750000
#
# Coordination Sequence:
#
# PCOD9269094 Si02
#       7
#     8   8   8   8   8   8   4
#     4  10  20  34  50  73 111 162 216 248 280 346
#     4  10  21  42  62  93 133 179 216 258 332 380
#     4  10  20  38  58  83 126 168 204 270 322 368
#     4  12  25  42  65 101 126 165 229 275 332 386
#     4  12  25  37  61  94 140 174 219 274 305 378
#     4  10  23  45  75  94 124 166 212 277 346 423
#     4  12  24  36  56  86 126 184 218 238 296 370
#
# _framework density 23.066576999999999
#
# number of rings (size 3 to 8) (size 9 to 14) (size 15 to 20)
#    0.000    1.231    0.769    6.923    0.000    2.462 
#    0.000    0.000    0.000    2.769    0.000    0.000 
#    0.000    0.000    0.000    0.000    0.000    0.000 
#
# Total GULP energy -145203.424005 kJ/mol
# GULP energy per Si atom -5584.747077 kJ/mol
# Density = 2.301408 g / cm^3
# Si number density = 23.066577 Si / 1000 Ang^3
#
#
#
# Elastic Constant Matrix: (Units=GPa)
#
#
# Indices 1 2 3 4 5 6 
#
# 1 64.5662 36.5243 27.7974 0.0000 -26.1625 0.0000
# 2 36.5243 162.9519 27.2289 0.0000 -8.1525 0.0000
# 3 27.7974 27.2289 141.4637 0.0000 -38.0167 0.0000
# 4 0.0000 0.0000 0.0000 27.1260 0.0000 4.0574
# 5 -26.1625 -8.1525 -38.0167 0.0000 37.2575 0.0000
# 6 0.0000 0.0000 0.0000 4.0574 0.0000 24.1856
#
#
#
# Elastic Compliance Matrix: (Units=1/GPa)
#
#
# Indices 1 2 3 4 5 6 
#
# 1 0.024847 -0.004821 0.000621 0.000000 0.017027 0.000000
# 2 -0.004821 0.007277 -0.001289 0.000000 -0.003108 0.000000
# 3 0.000621 -0.001289 0.009970 0.000000 0.010328 0.000000
# 4 0.000000 0.000000 0.000000 0.037814 0.000000 -0.006344
# 5 0.017027 -0.003108 0.010328 0.000000 0.048655 0.000000
# 6 0.000000 0.000000 0.000000 -0.006344 0.000000 0.042411
#
#
# Mechanical properties :
#
#
# Convention : Reuss Voigt Hill
#
# Bulk Modulus (GPa) = 32.13595 61.34255 46.73925
# Shear Modulus (GPa) = 25.99776 36.20924 31.10350
#
# Velocity S-wave (km/s) = 3.36084 3.96633 3.67607
# Velocity P-wave (km/s) = 5.38724 6.90124 6.19070
#
# Compressibility (1/GPa) = 0.03111780
#
# Stress axis : x y z
#
# Youngs Moduli (GPa) = 40.24601 137.41458 100.29705
#
# Poissons Ratio (x) = 0.66251 -0.06232
# Poissons Ratio (y) = 0.19404 0.12924
# Poissons Ratio (z) = -0.02501 0.17707
#
# Static dielectric constant tensor:
#      x y z
#    x 1.893370 0.000000 0.069870 
#    y 0.000000 1.892590 0.000000 
#    z 0.069870 0.000000 1.968340 
# 
# From -- ./inp_files/9123.got.cif
#   From: 2010.05.17/outbox.cif.g08.bks.cpg/sg15_5_cif.got.tgz:9123.got - 2010.06.03 18:47:42.
