data_PCOD9269278
_publ_section_title
;
Structure prediction by ZEFSAII (Michael W. Deem and Ramdas Pophale) SiO2 
 PCOD9269278
Probable space group: C 2/C
;
_chemical_formula_sum "Si O2"
_cell_formula_units_Z 60
_cell_length_a 20.804476
_cell_length_b 18.653917
_cell_length_c 20.783155
_cell_angle_alpha 90.000000
_cell_angle_beta 21.054392
_cell_angle_gamma 90.000000
_cell_volume 2897.610295
_symmetry_space_group_name_H-M "C 2/C"
_symmetry_group_IT_number 15
_symmetry_cell_setting 'monoclinic'
loop_
_space_group_symop_operation_xyz
x,y,z
-x,y,1/2-z
-x,-y,-z
x,-y,1/2+z
1/2+x,1/2+y,z
1/2-x,1/2+y,1/2-z
1/2-x,1/2-y,-z
1/2+x,1/2-y,1/2+z
loop_
_atom_site_type_symbol
_atom_site_label
_atom_site_fract_x
_atom_site_fract_y
_atom_site_fract_z
Si Si1 0.172162 0.015717 0.121535
Si Si2 0.151829 0.326590 0.365547
Si Si3 0.707899 0.474461 0.816865
Si Si4 0.000000 0.408838 0.250000
Si Si5 0.448609 0.334668 0.528669
Si Si6 0.421619 0.970651 0.997564
Si Si7 0.507800 0.806332 0.123863
Si Si8 0.909006 0.152635 0.217774
O O1 0.083430 0.081541 0.246232
O O2 0.000000 0.979603 0.250000
O O3 0.297291 0.969087 0.051519
O O4 0.319559 0.047828 0.934943
O O5 0.108099 0.246763 0.429920
O O6 0.056415 0.392568 0.489870
O O7 0.116531 0.318660 0.322024
O O8 0.358178 0.344344 0.181260
O O9 0.681170 0.396638 0.872895
O O10 0.803368 0.482199 0.658079
O O11 0.879551 0.505162 0.697252
O O12 0.500000 0.500000 0.000000
O O13 0.036942 0.358555 0.276605
O O14 0.459172 0.351617 0.595741
O O15 0.510437 0.724251 0.145902
O O16 0.702011 0.825112 0.915161
#
# Coordination Sequence:
#
# PCOD9269278 Si02
#       8
#     8   8   8   4   8   8   8   8
#     4  11  26  41  62  81 124 166 219 261 304 373
#     4  11  22  36  63  89 133 162 205 261 313 388
#     4  11  22  37  63  95 128 164 200 256 326 385
#     4  10  26  38  54  84 114 166 214 260 306 364
#     4  11  20  36  59  96 126 163 198 253 325 384
#     4  11  24  41  61  93 126 170 212 263 317 378
#     4  10  21  34  52  81 120 159 205 250 305 362
#     4  10  20  34  54  83 117 165 206 250 297 367
#
# _framework density 20.706717999999999
#
# number of rings (size 3 to 8) (size 9 to 14) (size 15 to 20)
#    0.000    1.333    2.667    4.800   10.267    2.133 
#    0.000    0.000    0.000    0.000    0.000    3.733 
#    0.000    0.000    0.000    0.000    0.000    0.000 
#
# Total GULP energy -167249.545878 kJ/mol
# GULP energy per Si atom -5574.984863 kJ/mol
# Density = 2.065959 g / cm^3
# Si number density = 20.706718 Si / 1000 Ang^3
#
#
#
# Elastic Constant Matrix: (Units=GPa)
#
#
# Indices 1 2 3 4 5 6 
#
# 1 62.7825 8.6404 21.1913 0.0035 -19.6317 0.0007
# 2 8.6404 85.7243 22.8785 -0.0073 -4.1456 -0.0120
# 3 21.1913 22.8785 108.9773 -0.0113 -23.4258 -0.0318
# 4 0.0035 -0.0073 -0.0113 27.8717 -0.0001 -9.5951
# 5 -19.6317 -4.1456 -23.4258 -0.0001 31.8628 0.0106
# 6 0.0007 -0.0120 -0.0318 -9.5951 0.0106 -3.9080
#
#
#
# Elastic Compliance Matrix: (Units=1/GPa)
#
#
# Indices 1 2 3 4 5 6 
#
# 1 0.020030 -0.001145 -0.001228 0.000007 0.011290 0.000030
# 2 -0.001145 0.012427 -0.002601 -0.000002 -0.001001 -0.000014
# 3 -0.001228 -0.002601 0.011551 -0.000010 0.007398 -0.000041
# 4 0.000007 -0.000002 -0.000010 0.019444 0.000013 -0.047740
# 5 0.011290 -0.001001 0.007398 0.000013 0.043649 0.000032
# 6 0.000030 -0.000014 -0.000041 -0.047740 0.000032 -0.138673
#
#
# Mechanical properties :
#
#
# Convention : Reuss Voigt Hill
#
# Bulk Modulus (GPa) = 29.36053 40.32273 34.84163
# Shear Modulus (GPa) = -486.82026 24.81691 -231.00168
#
# Velocity S-wave (km/s) = -15.34969 3.46569 -10.57360
# Velocity P-wave (km/s) = 17.31879 5.96072 11.49805
#
# Compressibility (1/GPa) = 0.03405933
#
# Stress axis : x y z
#
# Youngs Moduli (GPa) = 49.92458 80.47265 86.57050
#
# Poissons Ratio (x) = 0.09216 0.10629
# Poissons Ratio (y) = 0.05718 0.22520
# Poissons Ratio (z) = 0.06129 0.20934
#
# Static dielectric constant tensor:
#      x y z
#    x 1.793540 -0.000010 -0.034200 
#    y -0.000010 1.859660 0.000030 
#    z -0.034200 0.000030 1.791520 
# 
# From -- ./inp_files/253505.got.cif
#   From: 2010.05.17/outbox.cif.g08.bks.cpg/sg15_127_cif.got.tgz:253505.got - 2010.06.03 18:47:42.
