data_PCOD9269296
_publ_section_title
;
Structure prediction by ZEFSAII (Michael W. Deem and Ramdas Pophale) SiO2 
 PCOD9269296
Probable space group: C 2/C
;
_chemical_formula_sum "Si O2"
_cell_formula_units_Z 52
_cell_length_a 26.982455
_cell_length_b 8.862790
_cell_length_c 10.787736
_cell_angle_alpha 90.000000
_cell_angle_beta 107.462883
_cell_angle_gamma 90.000000
_cell_volume 2460.879443
_symmetry_space_group_name_H-M "C 2/C"
_symmetry_group_IT_number 15
_symmetry_cell_setting 'monoclinic'
loop_
_space_group_symop_operation_xyz
x,y,z
-x,y,1/2-z
-x,-y,-z
x,-y,1/2+z
1/2+x,1/2+y,z
1/2-x,1/2+y,1/2-z
1/2-x,1/2-y,-z
1/2+x,1/2-y,1/2+z
loop_
_atom_site_type_symbol
_atom_site_label
_atom_site_fract_x
_atom_site_fract_y
_atom_site_fract_z
Si Si1 0.401276 0.795341 0.225871
Si Si2 0.060749 0.134000 0.619786
Si Si3 0.026097 0.658450 0.496346
Si Si4 0.101153 0.634861 0.338970
Si Si5 0.836231 0.038972 0.292877
Si Si6 0.000000 0.897733 0.750000
Si Si7 0.302934 0.658010 0.529485
O O1 0.426003 0.831962 0.376769
O O2 0.354526 0.684153 0.225616
O O3 0.449432 0.713218 0.192305
O O4 0.387792 0.956840 0.157370
O O5 0.087412 0.282401 0.700138
O O6 0.012981 0.204604 0.508912
O O7 0.110403 0.038142 0.613593
O O8 0.030680 0.019524 0.687313
O O9 0.049060 0.662439 0.377456
O O10 0.000000 0.500000 0.500000
O O11 0.148338 0.727250 0.433293
O O12 0.804904 0.074587 0.396031
O O13 0.810742 0.937008 0.164162
O O14 0.250000 0.750000 0.500000
#
# Coordination Sequence:
#
# PCOD9269296 Si02
#       7
#     8   8   8   8   8   4   8
#     4  11  23  36  60  98 142 187 238 283 340 423
#     4  10  21  37  63  93 140 191 228 285 345 417
#     4  12  21  33  60  93 140 185 237 267 342 407
#     4  11  22  42  60  95 142 180 235 290 351 413
#     4  10  25  48  73 107 139 182 240 296 362 433
#     4  10  20  34  54  86 134 182 228 270 332 416
#     4  11  26  52  79 101 137 181 236 305 372 422
#
# _framework density 21.130656999999999
#
# number of rings (size 3 to 8) (size 9 to 14) (size 15 to 20)
#    0.000    1.231    4.615    0.923    0.000    8.615 
#    0.000    1.538    0.000    0.000    0.000    0.000 
#    0.000    0.000    0.000    0.000    0.000    0.000 
#
# Total GULP energy -144883.992198 kJ/mol
# GULP energy per Si atom -5572.461238 kJ/mol
# Density = 2.108256 g / cm^3
# Si number density = 21.130657 Si / 1000 Ang^3
#
#
#
# Elastic Constant Matrix: (Units=GPa)
#
#
# Indices 1 2 3 4 5 6 
#
# 1 102.1994 40.5871 44.0698 0.0000 -15.6249 0.0000
# 2 40.5871 133.3979 34.7661 0.0000 -0.9671 0.0000
# 3 44.0698 34.7661 66.7823 0.0000 -6.7494 0.0000
# 4 0.0000 0.0000 0.0000 25.1171 0.0000 8.9566
# 5 -15.6249 -0.9671 -6.7494 0.0000 32.0038 0.0000
# 6 0.0000 0.0000 0.0000 8.9566 0.0000 43.2395
#
#
#
# Elastic Compliance Matrix: (Units=1/GPa)
#
#
# Indices 1 2 3 4 5 6 
#
# 1 0.015119 -0.002437 -0.008143 0.000000 0.005590 0.000000
# 2 -0.002437 0.009082 -0.003282 0.000000 -0.001608 0.000000
# 3 -0.008143 -0.003282 0.022116 0.000000 0.000589 0.000000
# 4 0.000000 0.000000 0.000000 0.042989 0.000000 -0.008905
# 5 0.005590 -0.001608 0.000589 0.000000 0.034051 0.000000
# 6 0.000000 0.000000 0.000000 -0.008905 0.000000 0.024971
#
#
# Mechanical properties :
#
#
# Convention : Reuss Voigt Hill
#
# Bulk Modulus (GPa) = 53.78769 60.13616 56.96193
# Shear Modulus (GPa) = 27.43488 32.26917 29.85203
#
# Velocity S-wave (km/s) = 3.60716 3.91209 3.76271
# Velocity P-wave (km/s) = 6.54667 6.99477 6.77443
#
# Compressibility (1/GPa) = 0.01859162
#
# Stress axis : x y z
#
# Youngs Moduli (GPa) = 66.14272 110.11297 45.21651
#
# Poissons Ratio (x) = 0.26837 0.36821
# Poissons Ratio (y) = 0.16120 0.14840
# Poissons Ratio (z) = 0.53861 0.36138
#
# Static dielectric constant tensor:
#      x y z
#    x 1.671680 0.000000 0.051400 
#    y 0.000000 1.825380 0.000000 
#    z 0.051400 0.000000 1.833570 
# 
# From -- ./inp_files/121567.got.cif
#   From: 2010.05.17/outbox.cif.g08.bks.cpg/sg15_61_cif.got.tgz:121567.got - 2010.06.03 18:47:42.
