data_PCOD9269914
_publ_section_title
;
Structure prediction by ZEFSAII (Michael W. Deem and Ramdas Pophale) SiO2 
 PCOD9269914
Probable space group: C 2/C
;
_chemical_formula_sum "Si O2"
_cell_formula_units_Z 60
_cell_length_a 21.894741
_cell_length_b 23.596124
_cell_length_c 15.181511
_cell_angle_alpha 90.000000
_cell_angle_beta 22.356751
_cell_angle_gamma 90.000000
_cell_volume 2983.351747
_symmetry_space_group_name_H-M "C 2/C"
_symmetry_group_IT_number 15
_symmetry_cell_setting 'monoclinic'
loop_
_space_group_symop_operation_xyz
x,y,z
-x,y,1/2-z
-x,-y,-z
x,-y,1/2+z
1/2+x,1/2+y,z
1/2-x,1/2+y,1/2-z
1/2-x,1/2-y,-z
1/2+x,1/2-y,1/2+z
loop_
_atom_site_type_symbol
_atom_site_label
_atom_site_fract_x
_atom_site_fract_y
_atom_site_fract_z
Si Si1 0.155194 0.364656 0.644670
Si Si2 0.397127 0.760868 0.178129
Si Si3 0.352606 0.991134 0.129032
Si Si4 0.597677 0.320838 0.304943
Si Si5 0.616353 0.179946 0.522329
Si Si6 0.698374 0.139348 0.807535
Si Si7 0.193828 0.105615 0.369669
Si Si8 0.000000 0.462363 0.750000
O O1 0.250380 0.317971 0.462207
O O2 0.249110 0.377740 0.608979
O O3 0.136580 0.420923 0.609107
O O4 0.971992 0.352490 0.914955
O O5 0.514058 0.774730 0.102275
O O6 0.263335 0.713161 0.371751
O O7 0.313801 0.819208 0.259217
O O8 0.500868 0.735897 0.957554
O O9 0.291631 0.927202 0.225033
O O10 0.219248 0.038810 0.323373
O O11 0.422958 0.994455 0.935627
O O12 0.500000 0.000000 0.000000
O O13 0.662091 0.342212 0.312938
O O14 0.477754 0.367018 0.422703
O O15 0.500000 0.153888 0.750000
O O16 0.686142 0.135711 0.359653
#
# Coordination Sequence:
#
# PCOD9269914 Si02
#       8
#     8   8   8   8   8   8   8   4
#     4  11  19  41  62  90 129 169 200 255 318 387
#     4  11  22  41  64  91 127 160 212 265 317 378
#     4  11  20  39  66  90 124 166 210 261 311 379
#     4  11  23  39  64  94 129 161 208 263 326 377
#     4  11  23  41  63  90 119 168 212 263 317 377
#     4  11  21  40  65  88 127 168 209 254 320 378
#     4  11  24  39  62  95 127 160 211 261 312 377
#     4  10  20  34  66  90 118 170 216 246 306 386
#
# _framework density 20.111608
#
# number of rings (size 3 to 8) (size 9 to 14) (size 15 to 20)
#    0.000    1.067    8.000    0.800    0.933    1.067 
#    0.000    1.333    0.000    1.600    0.000    0.000 
#    0.000    0.000    0.000    0.000    0.000    0.000 
#
# Total GULP energy -167536.783231 kJ/mol
# GULP energy per Si atom -5584.559441 kJ/mol
# Density = 2.006583 g / cm^3
# Si number density = 20.111608 Si / 1000 Ang^3
#
#
#
# Elastic Constant Matrix: (Units=GPa)
#
#
# Indices 1 2 3 4 5 6 
#
# 1 55.0653 6.3223 11.7536 0.0064 -20.0380 -0.0024
# 2 6.3223 81.7959 -2.6999 0.0083 -11.2846 -0.0109
# 3 11.7536 -2.6999 35.3418 -0.0028 -4.9286 -0.0053
# 4 0.0064 0.0083 -0.0028 15.6889 -0.0037 -0.0262
# 5 -20.0380 -11.2846 -4.9286 -0.0037 40.4452 0.0017
# 6 -0.0024 -0.0109 -0.0053 -0.0262 0.0017 27.6124
#
#
#
# Elastic Compliance Matrix: (Units=1/GPa)
#
#
# Indices 1 2 3 4 5 6 
#
# 1 0.023475 -0.000548 -0.006356 -0.000008 0.010703 0.000000
# 2 -0.000548 0.012806 0.001649 -0.000005 0.003502 0.000005
# 3 -0.006356 0.001649 0.030681 0.000007 0.001050 0.000006
# 4 -0.000008 -0.000005 0.000007 0.063740 0.000001 0.000060
# 5 0.010703 0.003502 0.001050 0.000001 0.031132 0.000001
# 6 0.000000 0.000005 0.000006 0.000060 0.000001 0.036216
#
#
# Mechanical properties :
#
#
# Convention : Reuss Voigt Hill
#
# Bulk Modulus (GPa) = 17.71437 22.55054 20.13246
# Shear Modulus (GPa) = 21.98999 27.20444 24.59722
#
# Velocity S-wave (km/s) = 3.31024 3.68186 3.50099
# Velocity P-wave (km/s) = 4.84122 5.41404 5.13562
#
# Compressibility (1/GPa) = 0.05645134
#
# Stress axis : x y z
#
# Youngs Moduli (GPa) = 42.59936 78.09143 32.59311
#
# Poissons Ratio (x) = 0.04277 0.20717
# Poissons Ratio (y) = 0.02333 -0.05374
# Poissons Ratio (z) = 0.27077 -0.12876
#
# Static dielectric constant tensor:
#      x y z
#    x 1.711590 0.000000 0.019470 
#    y 0.000000 1.726050 0.000010 
#    z 0.019470 0.000010 1.731280 
# 
# From -- ./inp_files/169916.got.cif
#   From: 2010.05.17/outbox.cif.g08.bks.cpg/sg15_85_cif.got.tgz:169916.got - 2010.06.03 18:47:42.
