data_PCOD9269423
_publ_section_title
;
Structure prediction by ZEFSAII (Michael W. Deem and Ramdas Pophale) SiO2 
 PCOD9269423
Probable space group: C 2/C
;
_chemical_formula_sum "Si O2"
_cell_formula_units_Z 48
_cell_length_a 18.416410
_cell_length_b 5.547789
_cell_length_c 18.765285
_cell_angle_alpha 90.000000
_cell_angle_beta 59.687608
_cell_angle_gamma 90.000000
_cell_volume 1655.140933
_symmetry_space_group_name_H-M "C 2/C"
_symmetry_group_IT_number 15
_symmetry_cell_setting 'monoclinic'
loop_
_space_group_symop_operation_xyz
x,y,z
-x,y,1/2-z
-x,-y,-z
x,-y,1/2+z
1/2+x,1/2+y,z
1/2-x,1/2+y,1/2-z
1/2-x,1/2-y,-z
1/2+x,1/2-y,1/2+z
loop_
_atom_site_type_symbol
_atom_site_label
_atom_site_fract_x
_atom_site_fract_y
_atom_site_fract_z
Si Si1 0.186446 0.141783 0.349994
Si Si2 0.000000 0.765086 0.250000
Si Si3 0.624628 0.089866 0.642009
Si Si4 0.557365 0.371414 0.067804
Si Si5 0.750000 0.750000 0.500000
Si Si6 0.498113 0.853125 0.079185
Si Si7 0.250612 0.371529 0.838762
O O1 0.225541 0.360521 0.379795
O O2 0.238198 0.108913 0.251410
O O3 0.098808 0.271383 0.373136
O O4 0.192948 0.868109 0.376089
O O5 0.088252 0.616772 0.211584
O O6 0.008740 0.881815 0.167592
O O7 0.700140 0.996505 0.555349
O O8 0.542462 0.133708 0.635678
O O9 0.661081 0.305710 0.669514
O O10 0.543550 0.612235 0.031266
O O11 0.524156 0.126970 0.044529
O O12 0.655475 0.363305 0.035544
#
# Coordination Sequence:
#
# PCOD9269423 Si02
#       7
#     8   4   8   8   4   8   8
#     4  10  21  37  54  85 121 153 189 241 298 350
#     4   8  18  32  54  88 114 140 186 242 288 334
#     4  10  20  37  62  89 116 152 198 243 289 345
#     4  10  20  34  56  83 115 149 186 236 290 340
#     4   8  20  38  58  88 122 150 192 246 294 340
#     4  10  21  36  59  83 115 150 193 239 289 343
#     4  10  21  35  57  83 119 156 191 237 297 352
#
# _framework density 29.000548999999999
#
# number of rings (size 3 to 8) (size 9 to 14) (size 15 to 20)
#    0.000    2.667    0.000    3.000    0.000   13.333 
#    0.000    0.000    0.000   14.000    0.000    0.000 
#    0.000    0.000    0.000    0.000    0.000    0.000 
#
# Total GULP energy -133756.767042 kJ/mol
# GULP energy per Si atom -5573.198627 kJ/mol
# Density = 2.893454 g / cm^3
# Si number density = 29.000549 Si / 1000 Ang^3
#
#
#
# Elastic Constant Matrix: (Units=GPa)
#
#
# Indices 1 2 3 4 5 6 
#
# 1 109.3987 41.3931 -23.0019 -0.0053 -45.5453 0.0220
# 2 41.3931 215.4839 20.2027 -0.0089 -19.1433 0.0398
# 3 -23.0019 20.2027 116.8953 -0.0048 -21.1238 0.0022
# 4 -0.0053 -0.0089 -0.0048 20.8810 -0.0010 6.0885
# 5 -45.5453 -19.1433 -21.1238 -0.0010 41.8424 -0.0004
# 6 0.0220 0.0398 0.0022 6.0885 -0.0004 48.2759
#
#
#
# Elastic Compliance Matrix: (Units=1/GPa)
#
#
# Indices 1 2 3 4 5 6 
#
# 1 0.027144 -0.003315 0.012081 0.000013 0.034129 -0.000012
# 2 -0.003315 0.005267 -0.001958 0.000002 -0.002187 -0.000003
# 3 0.012081 -0.001958 0.014839 0.000008 0.019746 -0.000005
# 4 0.000013 0.000002 0.000008 0.049719 0.000020 -0.006270
# 5 0.034129 -0.002187 0.019746 0.000020 0.070016 -0.000017
# 6 -0.000012 -0.000003 -0.000005 -0.006270 -0.000017 0.021505
#
#
# Mechanical properties :
#
#
# Convention : Reuss Voigt Hill
#
# Bulk Modulus (GPa) = 16.42932 57.66285 37.04609
# Shear Modulus (GPa) = 25.61990 49.07879 37.34934
#
# Velocity S-wave (km/s) = 2.97548 4.11827 3.59260
# Velocity P-wave (km/s) = 4.18116 6.52227 5.47824
#
# Compressibility (1/GPa) = 0.06086678
#
# Stress axis : x y z
#
# Youngs Moduli (GPa) = 36.84064 189.87049 67.39188
#
# Poissons Ratio (x) = 0.62941 -0.81419
# Poissons Ratio (y) = 0.12212 0.13194
# Poissons Ratio (z) = -0.44509 0.37172
#
# Static dielectric constant tensor:
#      x y z
#    x 2.253240 -0.000020 0.059960 
#    y -0.000020 2.475190 -0.000010 
#    z 0.059960 -0.000010 2.202260 
# 
# From -- ./inp_files/278863.got.cif
#   From: 2010.05.17/outbox.cif.g08.bks.cpg/sg15_140_cif.got.tgz:278863.got - 2010.06.03 18:47:42.
