data_PCOD9269883
_publ_section_title
;
Structure prediction by ZEFSAII (Michael W. Deem and Ramdas Pophale) SiO2 
 PCOD9269883
Probable space group: C 2/C
;
_chemical_formula_sum "Si O2"
_cell_formula_units_Z 52
_cell_length_a 16.402340
_cell_length_b 9.291423
_cell_length_c 15.747474
_cell_angle_alpha 90.000000
_cell_angle_beta 122.995044
_cell_angle_gamma 90.000000
_cell_volume 2012.865414
_symmetry_space_group_name_H-M "C 2/C"
_symmetry_group_IT_number 15
_symmetry_cell_setting 'monoclinic'
loop_
_space_group_symop_operation_xyz
x,y,z
-x,y,1/2-z
-x,-y,-z
x,-y,1/2+z
1/2+x,1/2+y,z
1/2-x,1/2+y,1/2-z
1/2-x,1/2-y,-z
1/2+x,1/2-y,1/2+z
loop_
_atom_site_type_symbol
_atom_site_label
_atom_site_fract_x
_atom_site_fract_y
_atom_site_fract_z
Si Si1 0.906981 0.306439 0.332093
Si Si2 0.349947 0.393205 0.219736
Si Si3 0.500000 0.364141 0.750000
Si Si4 0.137218 0.512918 0.052934
Si Si5 0.293887 0.670168 0.875222
Si Si6 0.861366 0.297596 0.583245
Si Si7 0.903908 0.080019 0.474561
O O1 0.996581 0.240040 0.330180
O O2 0.925241 0.443436 0.404013
O O3 0.819357 0.325580 0.214789
O O4 0.873109 0.184105 0.380117
O O5 0.413624 0.524319 0.220631
O O6 0.241130 0.441279 0.135556
O O7 0.347998 0.370415 0.318347
O O8 0.375768 0.242240 0.188890
O O9 0.158775 0.681514 0.067800
O O10 0.115978 0.448058 0.947879
O O11 0.321359 0.536222 0.950089
O O12 0.750000 0.250000 0.500000
O O13 0.923347 0.181252 0.565297
O O14 0.000000 0.000000 0.500000
#
# Coordination Sequence:
#
# PCOD9269883 Si02
#       7
#     8   8   4   8   8   8   8
#     4  10  20  36  63  92 126 167 211 267 313 385
#     4  10  20  34  64  90 121 163 217 258 308 385
#     4  12  18  34  62  98 120 152 220 278 292 366
#     4   9  19  38  60  88 123 169 205 256 326 383
#     4  11  20  40  67  94 121 177 221 251 323 405
#     4   9  20  37  60  87 129 165 204 262 327 375
#     4  11  22  40  67  94 124 173 216 260 322 393
#
# _framework density 25.833818999999998
#
# number of rings (size 3 to 8) (size 9 to 14) (size 15 to 20)
#    0.000    1.846    3.077    2.769    0.000    0.000 
#    0.000    6.923   10.154    0.000    0.000    0.000 
#    0.000    0.000    0.000    0.000    0.000    0.000 
#
# Total GULP energy -145458.068071 kJ/mol
# GULP energy per Si atom -5594.541080 kJ/mol
# Density = 2.577502 g / cm^3
# Si number density = 25.833819 Si / 1000 Ang^3
#
#
#
# Elastic Constant Matrix: (Units=GPa)
#
#
# Indices 1 2 3 4 5 6 
#
# 1 101.5475 14.8673 3.6735 0.0000 -5.5333 0.0000
# 2 14.8673 128.8623 39.5189 0.0000 2.6092 0.0000
# 3 3.6735 39.5189 60.5005 0.0000 -6.7813 0.0000
# 4 0.0000 0.0000 0.0000 30.6017 0.0000 -1.4794
# 5 -5.5333 2.6092 -6.7813 0.0000 27.5815 0.0000
# 6 0.0000 0.0000 0.0000 -1.4794 0.0000 45.0969
#
#
#
# Elastic Compliance Matrix: (Units=1/GPa)
#
#
# Indices 1 2 3 4 5 6 
#
# 1 0.010156 -0.001386 0.000547 0.000000 0.002303 0.000000
# 2 -0.001386 0.010070 -0.006820 0.000000 -0.002907 0.000000
# 3 0.000547 -0.006820 0.021631 0.000000 0.006073 0.000000
# 4 0.000000 0.000000 0.000000 0.032730 0.000000 0.001074
# 5 0.002303 -0.002907 0.006073 0.000000 0.038486 0.000000
# 6 0.000000 0.000000 0.000000 0.001074 0.000000 0.022210
#
#
# Mechanical properties :
#
#
# Convention : Reuss Voigt Hill
#
# Bulk Modulus (GPa) = 37.67937 45.22552 41.45244
# Shear Modulus (GPa) = 31.35817 36.17940 33.76879
#
# Velocity S-wave (km/s) = 3.48780 3.74634 3.61938
# Velocity P-wave (km/s) = 5.55307 6.02144 5.79199
#
# Compressibility (1/GPa) = 0.02653972
#
# Stress axis : x y z
#
# Youngs Moduli (GPa) = 98.46149 99.30039 46.23008
#
# Poissons Ratio (x) = 0.13764 -0.02528
# Poissons Ratio (y) = 0.13648 0.31528
# Poissons Ratio (z) = -0.05385 0.67720
#
# Static dielectric constant tensor:
#      x y z
#    x 2.085790 0.000000 0.025070 
#    y 0.000000 2.076890 0.000000 
#    z 0.025070 0.000000 2.063730 
# 
# From -- ./inp_files/209225.got.cif
#   From: 2010.05.17/outbox.cif.g08.bks.cpg/sg15_105_cif.got.tgz:209225.got - 2010.06.03 18:47:42.
