data_PCOD9269215
_publ_section_title
;
Structure prediction by ZEFSAII (Michael W. Deem and Ramdas Pophale) SiO2 
 PCOD9269215
Probable space group: C 2/C
;
_chemical_formula_sum "Si O2"
_cell_formula_units_Z 48
_cell_length_a 5.201658
_cell_length_b 24.419532
_cell_length_c 20.497968
_cell_angle_alpha 90.000000
_cell_angle_beta 57.334906
_cell_angle_gamma 90.000000
_cell_volume 2191.893113
_symmetry_space_group_name_H-M "C 2/C"
_symmetry_group_IT_number 15
_symmetry_cell_setting 'monoclinic'
loop_
_space_group_symop_operation_xyz
x,y,z
-x,y,1/2-z
-x,-y,-z
x,-y,1/2+z
1/2+x,1/2+y,z
1/2-x,1/2+y,1/2-z
1/2-x,1/2-y,-z
1/2+x,1/2-y,1/2+z
loop_
_atom_site_type_symbol
_atom_site_label
_atom_site_fract_x
_atom_site_fract_y
_atom_site_fract_z
Si Si1 0.445580 0.582402 0.169098
Si Si2 0.908849 0.373376 0.036427
Si Si3 0.025635 0.536222 0.341140
Si Si4 0.864949 0.052661 0.557009
Si Si5 0.850595 0.193715 0.379689
Si Si6 0.690749 0.257635 0.086364
O O1 0.246225 0.551324 0.250944
O O2 0.765769 0.550184 0.125394
O O3 0.468796 0.646020 0.182101
O O4 0.257273 0.577633 0.128372
O O5 0.644343 0.414216 0.049409
O O6 0.745079 0.321475 0.093508
O O7 0.155196 0.406233 0.044731
O O8 0.106387 0.343804 0.952778
O O9 0.874594 0.477086 0.361150
O O10 0.000000 0.000000 0.500000
O O11 0.653084 0.234267 0.361709
O O12 0.068768 0.224312 0.401844
O O13 0.750000 0.250000 0.000000
#
# Coordination Sequence:
#
# PCOD9269215 Si02
#       6
#     8   8   8   8   8   8
#     4  10  20  36  57  80 107 141 190 241 280 332
#     4  11  21  34  52  80 118 151 179 224 281 344
#     4  10  21  36  53  82 111 143 189 237 289 332
#     4  12  22  34  53  81 118 154 186 229 281 343
#     4  11  19  34  57  83 112 148 189 234 285 344
#     4  10  20  34  53  82 116 149 182 225 282 344
#
# _framework density 21.898876000000001
#
# number of rings (size 3 to 8) (size 9 to 14) (size 15 to 20)
#    0.000    1.333    0.000    9.500    0.000    0.000 
#    0.000    0.000    0.000    0.000    0.000   93.333 
#    0.000    0.000    0.000    0.000    0.000    0.000 
#
# Total GULP energy -133865.248951 kJ/mol
# GULP energy per Si atom -5577.718706 kJ/mol
# Density = 2.184903 g / cm^3
# Si number density = 21.898876 Si / 1000 Ang^3
#
#
#
# Elastic Constant Matrix: (Units=GPa)
#
#
# Indices 1 2 3 4 5 6 
#
# 1 173.7395 52.4485 22.3024 0.0000 -40.7389 0.0000
# 2 52.4485 142.5579 41.8631 0.0000 -14.2947 0.0000
# 3 22.3024 41.8631 47.3795 0.0000 -5.0459 0.0000
# 4 0.0000 0.0000 0.0000 -41.8009 0.0000 -21.4835
# 5 -40.7389 -14.2947 -5.0459 0.0000 14.9223 0.0000
# 6 0.0000 0.0000 0.0000 -21.4835 0.0000 63.5969
#
#
#
# Elastic Compliance Matrix: (Units=1/GPa)
#
#
# Indices 1 2 3 4 5 6 
#
# 1 0.016529 -0.001089 -0.002203 0.000000 0.043338 0.000000
# 2 -0.001089 0.010189 -0.008057 0.000000 0.004064 0.000000
# 3 -0.002203 -0.008057 0.028838 0.000000 -0.003982 0.000000
# 4 0.000000 0.000000 0.000000 -0.020384 0.000000 -0.006886
# 5 0.043338 0.004064 -0.003982 0.000000 0.187874 0.000000
# 6 0.000000 0.000000 0.000000 -0.006886 0.000000 0.013398
#
#
# Mechanical properties :
#
#
# Convention : Reuss Voigt Hill
#
# Bulk Modulus (GPa) = 30.43391 66.32277 48.37834
# Shear Modulus (GPa) = 18.51198 23.81452 21.16325
#
# Velocity S-wave (km/s) = 2.91063 3.30127 3.11208
# Velocity P-wave (km/s) = 5.02228 6.69947 5.92056
#
# Compressibility (1/GPa) = 0.03285808
#
# Stress axis : x y z
#
# Youngs Moduli (GPa) = 60.49922 98.14743 34.67604
#
# Poissons Ratio (x) = 0.10685 0.07640
# Poissons Ratio (y) = 0.06586 0.27939
# Poissons Ratio (z) = 0.13329 0.79080
#
# Static dielectric constant tensor:
#      x y z
#    x 1.524630 0.000000 -0.514260 
#    y 0.000000 1.848720 0.000000 
#    z -0.514260 0.000000 1.352140 
# 
# From -- ./inp_files/286306.got.cif
#   From: 2010.05.17/outbox.cif.g08.bks.cpg/sg15_144_cif.got.tgz:286306.got - 2010.06.03 18:47:42.
