data_PCOD9269167
_publ_section_title
;
Structure prediction by ZEFSAII (Michael W. Deem and Ramdas Pophale) SiO2 
 PCOD9269167
Probable space group: C 2/C
;
_chemical_formula_sum "Si O2"
_cell_formula_units_Z 36
_cell_length_a 11.203231
_cell_length_b 16.909000
_cell_length_c 13.384829
_cell_angle_alpha 90.000000
_cell_angle_beta 39.744095
_cell_angle_gamma 90.000000
_cell_volume 1621.135595
_symmetry_space_group_name_H-M "C 2/C"
_symmetry_group_IT_number 15
_symmetry_cell_setting 'monoclinic'
loop_
_space_group_symop_operation_xyz
x,y,z
-x,y,1/2-z
-x,-y,-z
x,-y,1/2+z
1/2+x,1/2+y,z
1/2-x,1/2+y,1/2-z
1/2-x,1/2-y,-z
1/2+x,1/2-y,1/2+z
loop_
_atom_site_type_symbol
_atom_site_label
_atom_site_fract_x
_atom_site_fract_y
_atom_site_fract_z
Si Si1 0.646462 0.932340 0.368807
Si Si2 0.313004 0.475841 0.061823
Si Si3 0.000000 0.009461 0.250000
Si Si4 0.000427 0.710012 0.414264
Si Si5 0.232491 0.844786 0.909275
O O1 0.571115 0.847758 0.453254
O O2 0.500000 0.000000 0.500000
O O3 0.843416 0.955628 0.295546
O O4 0.679824 0.934878 0.227938
O O5 0.385572 0.442900 0.909093
O O6 0.500000 0.500000 0.000000
O O7 0.736590 0.936497 0.591596
O O8 0.969970 0.803357 0.451727
O O9 0.863575 0.691858 0.409516
O O10 0.196620 0.680997 0.245537
#
# Coordination Sequence:
#
# PCOD9269167 Si02
#       5
#     8   8   4   8   8
#     4  11  21  36  57  86 117 152 194 232 286 346
#     4  10  21  34  56  82 115 153 191 226 285 343
#     4  10  22  36  54  80 122 148 186 244 274 336
#     4  10  21  32  54  81 119 146 184 229 295 352
#     4  10  20  34  52  80 115 156 175 231 300 341
#
# _framework density 22.206655999999999
#
# number of rings (size 3 to 8) (size 9 to 14) (size 15 to 20)
#    0.000    1.778    4.444    0.000    6.222    0.889 
#    0.000    0.000    0.000    0.000    0.000   24.889 
#    0.000    0.000    0.000    0.000    0.000    0.000 
#
# Total GULP energy -100280.590507 kJ/mol
# GULP energy per Si atom -5571.143917 kJ/mol
# Density = 2.215611 g / cm^3
# Si number density = 22.206656 Si / 1000 Ang^3
#
#
#
# Elastic Constant Matrix: (Units=GPa)
#
#
# Indices 1 2 3 4 5 6 
#
# 1 38.2578 5.1650 24.8595 -0.0004 11.5023 0.0000
# 2 5.1650 51.8820 39.3140 -0.0022 12.1444 0.0017
# 3 24.8595 39.3140 161.0130 -0.0043 55.0092 0.0034
# 4 -0.0004 -0.0022 -0.0043 86.6458 0.0006 21.8881
# 5 11.5023 12.1444 55.0092 0.0006 51.1910 -0.0004
# 6 0.0000 0.0017 0.0034 21.8881 -0.0004 21.4529
#
#
#
# Elastic Compliance Matrix: (Units=1/GPa)
#
#
# Indices 1 2 3 4 5 6 
#
# 1 0.029304 0.000545 -0.003735 0.000000 -0.002700 0.000001
# 2 0.000545 0.023689 -0.006172 0.000001 0.000890 -0.000002
# 3 -0.003735 -0.006172 0.011862 0.000001 -0.010444 -0.000003
# 4 0.000000 0.000001 0.000001 0.015549 -0.000002 -0.015864
# 5 -0.002700 0.000890 -0.010444 -0.000002 0.031153 0.000004
# 6 0.000001 -0.000002 -0.000003 -0.015864 0.000004 0.062800
#
#
# Mechanical properties :
#
#
# Convention : Reuss Voigt Hill
#
# Bulk Modulus (GPa) = 21.67774 43.31442 32.49608
# Shear Modulus (GPa) = 23.98565 43.97891 33.98228
#
# Velocity S-wave (km/s) = 3.29007 4.45504 3.91612
# Velocity P-wave (km/s) = 4.92095 6.78312 5.92564
#
# Compressibility (1/GPa) = 0.04613028
#
# Stress axis : x y z
#
# Youngs Moduli (GPa) = 34.12557 42.21361 84.29961
#
# Poissons Ratio (x) = -0.02300 0.31485
# Poissons Ratio (y) = -0.01859 0.52033
# Poissons Ratio (z) = 0.12745 0.26056
#
# Static dielectric constant tensor:
#      x y z
#    x 1.833410 0.000000 -0.002170 
#    y 0.000000 1.558190 0.000000 
#    z -0.002170 0.000000 2.001930 
# 
# From -- ./inp_files/252926.got.cif
#   From: 2010.05.17/outbox.cif.g08.bks.cpg/sg15_127_cif.got.tgz:252926.got - 2010.06.03 18:47:42.
