data_PCOD9269235
_publ_section_title
;
Structure prediction by ZEFSAII (Michael W. Deem and Ramdas Pophale) SiO2 
 PCOD9269235
Probable space group: C 2/C
;
_chemical_formula_sum "Si O2"
_cell_formula_units_Z 60
_cell_length_a 20.650230
_cell_length_b 22.711441
_cell_length_c 14.699777
_cell_angle_alpha 90.000000
_cell_angle_beta 152.275718
_cell_angle_gamma 90.000000
_cell_volume 3207.274454
_symmetry_space_group_name_H-M "C 2/C"
_symmetry_group_IT_number 15
_symmetry_cell_setting 'monoclinic'
loop_
_space_group_symop_operation_xyz
x,y,z
-x,y,1/2-z
-x,-y,-z
x,-y,1/2+z
1/2+x,1/2+y,z
1/2-x,1/2+y,1/2-z
1/2-x,1/2-y,-z
1/2+x,1/2-y,1/2+z
loop_
_atom_site_type_symbol
_atom_site_label
_atom_site_fract_x
_atom_site_fract_y
_atom_site_fract_z
Si Si1 0.005727 0.374692 0.958656
Si Si2 0.825771 0.866317 0.330306
Si Si3 0.093250 0.809344 0.453685
Si Si4 0.704203 0.557710 0.879155
Si Si5 0.775060 0.930302 0.879424
Si Si6 0.476561 0.533602 0.112888
Si Si7 0.884583 0.254010 0.831307
Si Si8 0.000000 0.408324 0.750000
O O1 0.890947 0.424264 0.840585
O O2 0.954509 0.315840 0.945008
O O3 0.983594 0.369340 0.820637
O O4 0.170802 0.381968 0.174582
O O5 0.830008 0.888422 0.230386
O O6 0.939987 0.904572 0.523763
O O7 0.852806 0.796845 0.364820
O O8 0.148982 0.871609 0.562091
O O9 0.232887 0.772325 0.603957
O O10 0.000000 0.820022 0.250000
O O11 0.995980 0.773965 0.401403
O O12 0.609209 0.501861 0.739946
O O13 0.690918 0.571466 0.969599
O O14 0.868083 0.550407 0.069785
O O15 0.846375 0.989559 0.934191
O O16 0.500000 0.539867 0.250000
#
# Coordination Sequence:
#
# PCOD9269235 Si02
#       8
#     8   8   8   8   8   8   8   4
#     4   9  19  32  47  74 104 141 167 198 251 298
#     4  11  20  33  51  74 103 133 176 213 250 304
#     4  11  20  29  47  73 107 144 169 195 241 309
#     4   9  17  31  49  76 103 136 160 203 250 307
#     4   9  18  33  49  72 109 134 165 198 248 312
#     4  10  20  34  54  75  98 131 172 218 264 302
#     4  11  21  32  45  71 106 140 175 210 242 292
#     4   8  16  30  48  72 114 132 164 192 236 318
#
# _framework density 18.707473
#
# number of rings (size 3 to 8) (size 9 to 14) (size 15 to 20)
#    0.000    2.133    1.333    3.600    0.933    2.667 
#    0.000    0.000    0.000    0.800    0.000    0.000 
#    0.000    0.000    0.000    0.000    0.000    0.000 
#
# Total GULP energy -167189.165317 kJ/mol
# GULP energy per Si atom -5572.972177 kJ/mol
# Density = 1.866489 g / cm^3
# Si number density = 18.707473 Si / 1000 Ang^3
#
#
#
# Elastic Constant Matrix: (Units=GPa)
#
#
# Indices 1 2 3 4 5 6 
#
# 1 32.0726 4.0077 22.1656 0.0000 19.0497 0.0000
# 2 4.0077 74.7226 36.4282 0.0000 10.5006 0.0000
# 3 22.1656 36.4282 66.4383 0.0000 29.9485 0.0000
# 4 0.0000 0.0000 0.0000 19.4120 0.0000 -2.7267
# 5 19.0497 10.5006 29.9485 0.0000 24.5858 0.0000
# 6 0.0000 0.0000 0.0000 -2.7267 0.0000 9.5034
#
#
#
# Elastic Compliance Matrix: (Units=1/GPa)
#
#
# Indices 1 2 3 4 5 6 
#
# 1 0.058602 0.003758 -0.000933 0.000000 -0.045875 0.000000
# 2 0.003758 0.019626 -0.015355 0.000000 0.007410 0.000000
# 3 -0.000933 -0.015355 0.045464 0.000000 -0.048100 0.000000
# 4 0.000000 0.000000 0.000000 0.053678 0.000000 0.015401
# 5 -0.045875 0.007410 -0.048100 0.000000 0.131645 0.000000
# 6 0.000000 0.000000 0.000000 0.015401 0.000000 0.109644
#
#
# Mechanical properties :
#
#
# Convention : Reuss Voigt Hill
#
# Bulk Modulus (GPa) = 10.13857 33.15961 21.64909
# Shear Modulus (GPa) = 10.49109 18.07571 14.28340
#
# Velocity S-wave (km/s) = 2.37068 3.11180 2.76617
# Velocity P-wave (km/s) = 3.59511 5.53849 4.66903
#
# Compressibility (1/GPa) = 0.09863320
#
# Stress axis : x y z
#
# Youngs Moduli (GPa) = 17.06428 50.95381 21.99561
#
# Poissons Ratio (x) = -0.19150 0.02051
# Poissons Ratio (y) = -0.06413 0.33774
# Poissons Ratio (z) = 0.01591 0.78238
#
# Static dielectric constant tensor:
#      x y z
#    x 1.690600 0.000000 0.034130 
#    y 0.000000 1.669730 0.000000 
#    z 0.034130 0.000000 1.651980 
# 
# From -- ./inp_files/169495.got.cif
#   From: 2010.05.17/outbox.cif.g08.bks.cpg/sg15_85_cif.got.tgz:169495.got - 2010.06.03 18:47:42.
