data_PCOD9269149
_publ_section_title
;
Structure prediction by ZEFSAII (Michael W. Deem and Ramdas Pophale) SiO2 
 PCOD9269149
Probable space group: C 2/C
;
_chemical_formula_sum "Si O2"
_cell_formula_units_Z 48
_cell_length_a 22.611576
_cell_length_b 13.304535
_cell_length_c 19.693592
_cell_angle_alpha 90.000000
_cell_angle_beta 159.281851
_cell_angle_gamma 90.000000
_cell_volume 2095.935277
_symmetry_space_group_name_H-M "C 2/C"
_symmetry_group_IT_number 15
_symmetry_cell_setting 'monoclinic'
loop_
_space_group_symop_operation_xyz
x,y,z
-x,y,1/2-z
-x,-y,-z
x,-y,1/2+z
1/2+x,1/2+y,z
1/2-x,1/2+y,1/2-z
1/2-x,1/2-y,-z
1/2+x,1/2-y,1/2+z
loop_
_atom_site_type_symbol
_atom_site_label
_atom_site_fract_x
_atom_site_fract_y
_atom_site_fract_z
Si Si1 0.741043 0.597193 0.937391
Si Si2 0.080548 0.363903 0.039846
Si Si3 0.457791 0.468263 0.561023
Si Si4 0.409699 0.059224 0.796766
Si Si5 0.000000 0.254026 0.750000
Si Si6 0.478499 0.355352 0.458813
Si Si7 0.000000 0.441597 0.250000
O O1 0.614341 0.522241 0.763152
O O2 0.620920 0.678043 0.842036
O O3 0.894642 0.674673 0.085653
O O4 0.842583 0.515467 0.089063
O O5 0.056988 0.386023 0.095418
O O6 0.278498 0.370656 0.236440
O O7 0.984986 0.448451 0.893888
O O8 0.021556 0.249537 0.971263
O O9 0.292288 0.445245 0.425457
O O10 0.508379 0.371171 0.571151
O O11 0.411541 0.556674 0.457280
O O12 0.497242 0.105346 0.822952
#
# Coordination Sequence:
#
# PCOD9269149 Si02
#       7
#     8   8   8   8   4   8   4
#     4  10  20  34  52  75 114 150 189 235 289 344
#     4  10  21  39  62  88 117 153 195 243 292 349
#     4  10  21  37  57  86 118 152 194 242 292 347
#     4  10  22  39  60  87 119 155 196 239 293 348
#     4   9  20  34  50  77 104 152 196 229 286 353
#     4  10  21  36  61  88 113 151 197 243 292 344
#     4  11  22  36  58  85 118 158 190 237 294 347
#
# _framework density 22.901468999999999
#
# number of rings (size 3 to 8) (size 9 to 14) (size 15 to 20)
#    0.000    2.000    0.000    3.000    0.000   10.667 
#    0.000    0.000    0.000   10.000    0.000    0.000 
#    0.000    0.000    0.000    0.000    0.000    0.000 
#
# Total GULP energy -133611.732627 kJ/mol
# GULP energy per Si atom -5567.155526 kJ/mol
# Density = 2.284934 g / cm^3
# Si number density = 22.901469 Si / 1000 Ang^3
#
#
#
# Elastic Constant Matrix: (Units=GPa)
#
#
# Indices 1 2 3 4 5 6 
#
# 1 103.3217 -7.9137 11.7406 0.0017 10.5596 -0.0010
# 2 -7.9137 30.7808 -4.3154 0.0028 2.7321 -0.0005
# 3 11.7406 -4.3154 83.7606 0.0010 -8.5536 0.0005
# 4 0.0017 0.0028 0.0010 53.2381 0.0013 -27.3872
# 5 10.5596 2.7321 -8.5536 0.0013 23.7136 -0.0010
# 6 -0.0010 -0.0005 0.0005 -27.3872 -0.0010 58.2840
#
#
#
# Elastic Compliance Matrix: (Units=1/GPa)
#
#
# Indices 1 2 3 4 5 6 
#
# 1 0.010724 0.003002 -0.001943 0.000000 -0.005822 0.000000
# 2 0.003002 0.033812 0.000817 -0.000002 -0.004937 -0.000001
# 3 -0.001943 0.000817 0.012804 -0.000001 0.005389 0.000000
# 4 0.000000 -0.000002 -0.000001 0.024771 -0.000001 0.011640
# 5 -0.005822 -0.004937 0.005389 -0.000001 0.047275 0.000000
# 6 0.000000 -0.000001 0.000000 0.011640 0.000000 0.022627
#
#
# Mechanical properties :
#
#
# Convention : Reuss Voigt Hill
#
# Bulk Modulus (GPa) = 16.36897 24.09844 20.23370
# Shear Modulus (GPa) = 29.65137 41.60394 35.62765
#
# Velocity S-wave (km/s) = 3.60215 4.26684 3.94851
# Velocity P-wave (km/s) = 4.94608 5.90085 5.44444
#
# Compressibility (1/GPa) = 0.06109121
#
# Stress axis : x y z
#
# Youngs Moduli (GPa) = 93.24670 29.57506 78.10302
#
# Poissons Ratio (x) = -0.08877 0.15176
# Poissons Ratio (y) = -0.27988 -0.06382
# Poissons Ratio (z) = 0.18119 -0.02417
#
# Static dielectric constant tensor:
#      x y z
#    x 2.062090 0.000000 -0.104580 
#    y 0.000000 1.800950 -0.000010 
#    z -0.104580 -0.000010 1.926900 
# 
# From -- ./inp_files/255744.got.cif
#   From: 2010.05.17/outbox.cif.g08.bks.cpg/sg15_128_cif.got.tgz:255744.got - 2010.06.03 18:47:42.
