data_PCOD9269180
_publ_section_title
;
Structure prediction by ZEFSAII (Michael W. Deem and Ramdas Pophale) SiO2 
 PCOD9269180
Probable space group: C 2/C
;
_chemical_formula_sum "Si O2"
_cell_formula_units_Z 48
_cell_length_a 15.086047
_cell_length_b 13.454530
_cell_length_c 17.376621
_cell_angle_alpha 90.000000
_cell_angle_beta 34.867155
_cell_angle_gamma 90.000000
_cell_volume 2016.317835
_symmetry_space_group_name_H-M "C 2/C"
_symmetry_group_IT_number 15
_symmetry_cell_setting 'monoclinic'
loop_
_space_group_symop_operation_xyz
x,y,z
-x,y,1/2-z
-x,-y,-z
x,-y,1/2+z
1/2+x,1/2+y,z
1/2-x,1/2+y,1/2-z
1/2-x,1/2-y,-z
1/2+x,1/2-y,1/2+z
loop_
_atom_site_type_symbol
_atom_site_label
_atom_site_fract_x
_atom_site_fract_y
_atom_site_fract_z
Si Si1 0.478758 0.990976 0.889615
Si Si2 0.198295 0.381925 0.353926
Si Si3 0.513668 0.530666 0.580436
Si Si4 0.735170 0.848022 0.662994
Si Si5 0.371785 0.183304 0.956683
Si Si6 0.867071 0.152479 0.236234
O O1 0.567296 0.900680 0.785536
O O2 0.587611 0.064816 0.867072
O O3 0.399771 0.077634 0.896482
O O4 0.352289 0.943037 0.035531
O O5 0.369577 0.399419 0.200782
O O6 0.210500 0.267192 0.373890
O O7 0.500000 0.500000 0.500000
O O8 0.669767 0.593987 0.470055
O O9 0.490111 0.438155 0.655241
O O10 0.788080 0.874155 0.712211
O O11 0.528735 0.249112 0.845745
O O12 0.250000 0.250000 0.000000
O O13 0.276838 0.164703 0.103732
#
# Coordination Sequence:
#
# PCOD9269180 Si02
#       6
#     8   8   8   8   8   8
#     4  11  21  37  58  89 134 165 212 268 320 396
#     4  11  19  35  57  91 129 169 205 262 338 385
#     4  10  20  34  52  88 125 161 205 254 332 387
#     4  11  22  33  62  95 128 170 204 265 341 393
#     4  12  26  42  61  88 126 178 220 263 319 385
#     4  11  23  39  60  88 129 164 219 266 318 392
#
# _framework density 23.805771
#
# number of rings (size 3 to 8) (size 9 to 14) (size 15 to 20)
#    0.000    1.000    6.667    2.500    7.000    0.000 
#    0.000    0.000    0.000    0.000    0.000    7.000 
#    0.000    0.000    0.000    0.000    0.000    0.000 
#
# Total GULP energy -133653.572188 kJ/mol
# GULP energy per Si atom -5568.898841 kJ/mol
# Density = 2.375159 g / cm^3
# Si number density = 23.805771 Si / 1000 Ang^3
#
#
#
# Elastic Constant Matrix: (Units=GPa)
#
#
# Indices 1 2 3 4 5 6 
#
# 1 18.3753 4.6249 -1.3799 0.0002 -2.3273 0.0000
# 2 4.6249 153.9435 28.1259 0.0007 0.8545 -0.0001
# 3 -1.3799 28.1259 159.8353 0.0011 -6.5354 -0.0002
# 4 0.0002 0.0007 0.0011 49.6981 -0.0002 -10.8483
# 5 -2.3273 0.8545 -6.5354 -0.0002 14.9119 0.0000
# 6 0.0000 -0.0001 -0.0002 -10.8483 0.0000 20.1051
#
#
#
# Elastic Compliance Matrix: (Units=1/GPa)
#
#
# Indices 1 2 3 4 5 6 
#
# 1 0.056199 -0.001963 0.001216 0.000000 0.009416 0.000000
# 2 -0.001963 0.006793 -0.001263 0.000000 -0.001249 0.000000
# 3 0.001216 -0.001263 0.006619 0.000000 0.003163 0.000000
# 4 0.000000 0.000000 0.000000 0.022808 0.000000 0.012307
# 5 0.009416 -0.001249 0.003163 0.000000 0.069988 0.000000
# 6 0.000000 0.000000 0.000000 0.012307 0.000000 0.056379
#
#
# Mechanical properties :
#
#
# Convention : Reuss Voigt Hill
#
# Bulk Modulus (GPa) = 15.24643 43.87732 29.56188
# Shear Modulus (GPa) = 20.43582 36.99525 28.71553
#
# Velocity S-wave (km/s) = 2.93309 3.94642 3.47687
# Velocity P-wave (km/s) = 4.22955 6.26394 5.34444
#
# Compressibility (1/GPa) = 0.06558912
#
# Stress axis : x y z
#
# Youngs Moduli (GPa) = 17.79396 147.21908 151.09033
#
# Poissons Ratio (x) = 0.28895 -0.18366
# Poissons Ratio (y) = 0.03492 0.19087
# Poissons Ratio (z) = -0.02163 0.18598
#
# Static dielectric constant tensor:
#      x y z
#    x 2.388010 -0.000020 -0.370990 
#    y -0.000020 1.450600 0.000030 
#    z -0.370990 0.000030 2.270660 
# 
# From -- ./inp_files/211324.got.cif
#   From: 2010.05.17/outbox.cif.g08.bks.cpg/sg15_106_cif.got.tgz:211324.got - 2010.06.03 18:47:42.
