data_PCOD9269507
_publ_section_title
;
Structure prediction by ZEFSAII (Michael W. Deem and Ramdas Pophale) SiO2 
 PCOD9269507
Probable space group: C 2/C
;
_chemical_formula_sum "Si O2"
_cell_formula_units_Z 48
_cell_length_a 20.069759
_cell_length_b 8.967964
_cell_length_c 12.107534
_cell_angle_alpha 90.000000
_cell_angle_beta 93.997982
_cell_angle_gamma 90.000000
_cell_volume 2173.870005
_symmetry_space_group_name_H-M "C 2/C"
_symmetry_group_IT_number 15
_symmetry_cell_setting 'monoclinic'
loop_
_space_group_symop_operation_xyz
x,y,z
-x,y,1/2-z
-x,-y,-z
x,-y,1/2+z
1/2+x,1/2+y,z
1/2-x,1/2+y,1/2-z
1/2-x,1/2-y,-z
1/2+x,1/2-y,1/2+z
loop_
_atom_site_type_symbol
_atom_site_label
_atom_site_fract_x
_atom_site_fract_y
_atom_site_fract_z
Si Si1 0.857597 0.943924 0.542526
Si Si2 0.784216 0.243326 0.201133
Si Si3 0.013680 0.531813 0.132196
Si Si4 0.894219 0.755652 0.121568
Si Si5 0.862908 0.280551 0.860044
Si Si6 0.232749 0.566414 0.396159
O O1 0.843014 0.848317 0.650282
O O2 0.886431 0.829157 0.457569
O O3 0.901197 0.090511 0.559821
O O4 0.786467 0.008365 0.489860
O O5 0.715228 0.195094 0.131579
O O6 0.788339 0.420387 0.178834
O O7 0.771506 0.185332 0.322973
O O8 0.963079 0.670053 0.140551
O O9 0.000000 0.446048 0.250000
O O10 0.091427 0.575220 0.141714
O O11 0.000000 0.500000 0.000000
O O12 0.868994 0.796284 0.241708
O O13 0.835099 0.646228 0.071093
#
# Coordination Sequence:
#
# PCOD9269507 Si02
#       6
#     8   8   8   8   8   8
#     4  11  20  34  58  85 116 152 196 242 302 368
#     4  10  20  34  57  83 118 156 192 244 304 360
#     4  10  23  43  64  87 120 163 208 252 307 364
#     4  10  22  38  58  85 119 156 196 253 305 354
#     4   9  20  38  57  81 118 157 194 248 305 354
#     4  10  20  35  53  86 119 152 193 242 301 360
#
# _framework density 22.080435999999999
#
# number of rings (size 3 to 8) (size 9 to 14) (size 15 to 20)
#    0.000    2.000    0.000    5.500    4.667    0.667 
#    6.000    1.667    0.000    0.000    0.000    0.000 
#    0.000    0.000    0.000    0.000    0.000    0.000 
#
# Total GULP energy -133722.448498 kJ/mol
# GULP energy per Si atom -5571.768687 kJ/mol
# Density = 2.203018 g / cm^3
# Si number density = 22.080436 Si / 1000 Ang^3
#
#
#
# Elastic Constant Matrix: (Units=GPa)
#
#
# Indices 1 2 3 4 5 6 
#
# 1 29.7665 -1.5036 2.1868 0.0000 -6.9201 0.0000
# 2 -1.5036 46.0588 9.5350 0.0000 -15.0058 0.0000
# 3 2.1868 9.5350 78.3422 0.0000 -6.0961 0.0000
# 4 0.0000 0.0000 0.0000 41.9765 0.0000 5.5072
# 5 -6.9201 -15.0058 -6.0961 0.0000 21.1783 0.0000
# 6 0.0000 0.0000 0.0000 5.5072 0.0000 15.2906
#
#
#
# Elastic Compliance Matrix: (Units=1/GPa)
#
#
# Indices 1 2 3 4 5 6 
#
# 1 0.037980 0.006953 -0.000570 0.000000 0.017172 0.000000
# 2 0.006953 0.029786 -0.002046 0.000000 0.022788 0.000000
# 3 -0.000570 -0.002046 0.013198 0.000000 0.002163 0.000000
# 4 0.000000 0.000000 0.000000 0.025004 0.000000 -0.009006
# 5 0.017172 0.022788 0.002163 0.000000 0.069598 0.000000
# 6 0.000000 0.000000 0.000000 -0.009006 0.000000 0.068643
#
#
# Mechanical properties :
#
#
# Convention : Reuss Voigt Hill
#
# Bulk Modulus (GPa) = 11.15617 19.40044 15.27831
# Shear Modulus (GPa) = 18.83837 25.28569 22.06203
#
# Velocity S-wave (km/s) = 2.92408 3.38770 3.16439
# Velocity P-wave (km/s) = 4.05756 4.90992 4.50395
#
# Compressibility (1/GPa) = 0.08963647
#
# Stress axis : x y z
#
# Youngs Moduli (GPa) = 26.32956 33.57283 75.77045
#
# Poissons Ratio (x) = -0.23342 0.04320
# Poissons Ratio (y) = -0.18306 0.15504
# Poissons Ratio (z) = 0.01501 0.06869
#
# Static dielectric constant tensor:
#      x y z
#    x 1.792230 0.000000 0.033680 
#    y 0.000000 1.813220 0.000000 
#    z 0.033680 0.000000 1.943690 
# 
# From -- ./inp_files/116275.got.cif
#   From: 2010.05.17/outbox.cif.g08.bks.cpg/sg15_59_cif.got.tgz:116275.got - 2010.06.03 18:47:42.
