data_PCOD9269774
_publ_section_title
;
Structure prediction by ZEFSAII (Michael W. Deem and Ramdas Pophale) SiO2 
 PCOD9269774
Probable space group: C 2/C
;
_chemical_formula_sum "Si O2"
_cell_formula_units_Z 48
_cell_length_a 28.254773
_cell_length_b 16.249924
_cell_length_c 9.218298
_cell_angle_alpha 90.000000
_cell_angle_beta 28.657270
_cell_angle_gamma 90.000000
_cell_volume 2029.762334
_symmetry_space_group_name_H-M "C 2/C"
_symmetry_group_IT_number 15
_symmetry_cell_setting 'monoclinic'
loop_
_space_group_symop_operation_xyz
x,y,z
-x,y,1/2-z
-x,-y,-z
x,-y,1/2+z
1/2+x,1/2+y,z
1/2-x,1/2+y,1/2-z
1/2-x,1/2-y,-z
1/2+x,1/2-y,1/2+z
loop_
_atom_site_type_symbol
_atom_site_label
_atom_site_fract_x
_atom_site_fract_y
_atom_site_fract_z
Si Si1 0.066369 0.046515 0.703248
Si Si2 0.704060 0.923933 0.189148
Si Si3 0.500000 0.980503 0.750000
Si Si4 0.239711 0.403592 0.755655
Si Si5 0.881259 0.633471 0.172138
Si Si6 0.176289 0.880233 0.390313
Si Si7 0.500000 0.730836 0.250000
O O1 0.137242 0.972220 0.458348
O O2 0.000000 0.076262 0.750000
O O3 0.143099 0.113468 0.558156
O O4 0.000000 0.000000 0.000000
O O5 0.790437 0.870707 0.031369
O O6 0.590524 0.921476 0.549765
O O7 0.731988 0.013482 0.179007
O O8 0.705694 0.912609 0.012734
O O9 0.555282 0.048040 0.496589
O O10 0.163492 0.349832 0.870113
O O11 0.782060 0.632034 0.530820
O O12 0.953905 0.709257 0.996540
O O13 0.087452 0.824417 0.577926
#
# Coordination Sequence:
#
# PCOD9269774 Si02
#       7
#     8   8   4   8   8   8   4
#     4  11  19  31  55  88 121 154 188 241 317 376
#     4  10  20  34  60  92 130 158 193 262 317 382
#     4   9  18  34  60  92 122 155 196 246 332 367
#     4  10  20  35  55  90 128 155 199 255 311 368
#     4  10  22  39  62  89 121 165 218 262 297 375
#     4  11  22  40  60  90 124 160 216 262 305 369
#     4  11  24  42  68  84 118 179 224 254 308 359
#
# _framework density 23.648088000000001
#
# number of rings (size 3 to 8) (size 9 to 14) (size 15 to 20)
#    0.000    1.667    0.833    7.500    0.000    7.333 
#    0.000    0.833    0.000    2.000    0.000    0.000 
#    0.000    0.000    0.000    0.000    0.000    0.000 
#
# Total GULP energy -133770.633725 kJ/mol
# GULP energy per Si atom -5573.776405 kJ/mol
# Density = 2.359426 g / cm^3
# Si number density = 23.648088 Si / 1000 Ang^3
#
#
#
# Elastic Constant Matrix: (Units=GPa)
#
#
# Indices 1 2 3 4 5 6 
#
# 1 115.8578 1.7626 33.3086 0.0000 -6.8798 0.0000
# 2 1.7626 35.2656 14.7367 0.0000 -14.7408 0.0000
# 3 33.3086 14.7367 136.8627 0.0000 -20.5184 0.0000
# 4 0.0000 0.0000 0.0000 17.1479 0.0000 -11.3345
# 5 -6.8798 -14.7408 -20.5184 0.0000 52.7511 0.0000
# 6 0.0000 0.0000 0.0000 -11.3345 0.0000 19.9655
#
#
#
# Elastic Compliance Matrix: (Units=1/GPa)
#
#
# Indices 1 2 3 4 5 6 
#
# 1 0.009302 0.000701 -0.002260 0.000000 0.000530 0.000000
# 2 0.000701 0.032821 -0.002459 0.000000 0.008306 0.000000
# 3 -0.002260 -0.002459 0.008468 0.000000 0.002312 0.000000
# 4 0.000000 0.000000 0.000000 0.093343 0.000000 0.052991
# 5 0.000530 0.008306 0.002312 0.000000 0.022246 0.000000
# 6 0.000000 0.000000 0.000000 0.052991 0.000000 0.080170
#
#
# Mechanical properties :
#
#
# Convention : Reuss Voigt Hill
#
# Bulk Modulus (GPa) = 23.49936 43.06687 33.28312
# Shear Modulus (GPa) = 18.61704 33.85142 26.23423
#
# Velocity S-wave (km/s) = 2.80885 3.78758 3.33432
# Velocity P-wave (km/s) = 4.52528 6.11382 5.37852
#
# Compressibility (1/GPa) = 0.04255435
#
# Stress axis : x y z
#
# Youngs Moduli (GPa) = 107.50643 30.46838 118.09220
#
# Poissons Ratio (x) = -0.02136 0.26687
# Poissons Ratio (y) = -0.07536 0.29043
# Poissons Ratio (z) = 0.24294 0.07493
#
# Static dielectric constant tensor:
#      x y z
#    x 2.018780 0.000000 0.012770 
#    y 0.000000 1.964620 0.000000 
#    z 0.012770 0.000000 1.971470 
# 
# From -- ./inp_files/70561.got.cif
#   From: 2010.05.17/outbox.cif.g08.bks.cpg/sg15_36_cif.got.tgz:70561.got - 2010.06.03 18:47:42.
