data_PCOD9269130
_publ_section_title
;
Structure prediction by ZEFSAII (Michael W. Deem and Ramdas Pophale) SiO2 
 PCOD9269130
Probable space group: C 2/C
;
_chemical_formula_sum "Si O2"
_cell_formula_units_Z 56
_cell_length_a 11.722454
_cell_length_b 25.789521
_cell_length_c 14.329338
_cell_angle_alpha 90.000000
_cell_angle_beta 39.276904
_cell_angle_gamma 90.000000
_cell_volume 2742.451203
_symmetry_space_group_name_H-M "C 2/C"
_symmetry_group_IT_number 15
_symmetry_cell_setting 'monoclinic'
loop_
_space_group_symop_operation_xyz
x,y,z
-x,y,1/2-z
-x,-y,-z
x,-y,1/2+z
1/2+x,1/2+y,z
1/2-x,1/2+y,1/2-z
1/2-x,1/2-y,-z
1/2+x,1/2-y,1/2+z
loop_
_atom_site_type_symbol
_atom_site_label
_atom_site_fract_x
_atom_site_fract_y
_atom_site_fract_z
Si Si1 0.896311 0.862145 0.221261
Si Si2 0.500000 0.803782 0.750000
Si Si3 0.500000 0.552894 0.250000
Si Si4 0.736697 0.033186 0.849335
Si Si5 0.826670 0.876489 0.725032
Si Si6 0.433957 0.042069 0.186461
Si Si7 0.397855 0.712654 0.047770
Si Si8 0.987745 0.672584 0.472670
O O1 0.879584 0.924287 0.224281
O O2 0.692409 0.843216 0.360776
O O3 0.000000 0.851072 0.250000
O O4 0.004382 0.829657 0.077964
O O5 0.307744 0.775590 0.856835
O O6 0.525674 0.832434 0.633371
O O7 0.668077 0.514653 0.157864
O O8 0.514901 0.591483 0.327985
O O9 0.638380 0.009057 0.821471
O O10 0.599270 0.057379 0.012312
O O11 0.728387 0.915838 0.714758
O O12 0.880447 0.820490 0.652609
O O13 0.657786 0.861212 0.898086
O O14 0.500000 0.035138 0.250000
O O15 0.505276 0.765902 0.978799
#
# Coordination Sequence:
#
# PCOD9269130 Si02
#       8
#     8   4   4   8   8   8   8   8
#     4  12  22  34  57  89 125 161 195 245 295 356
#     4  10  20  34  51  82 124 164 185 232 302 356
#     4  10  22  44  65  84 118 158 207 260 296 354
#     4  10  22  39  60  90 118 156 207 250 302 358
#     4  10  23  40  64  88 120 162 205 243 306 360
#     4  10  22  39  61  87 120 160 198 253 308 361
#     4  11  24  35  56  89 126 157 203 239 295 367
#     4  11  22  37  57  86 124 162 199 242 300 357
#
# _framework density 20.419689000000002
#
# number of rings (size 3 to 8) (size 9 to 14) (size 15 to 20)
#    0.000    1.429    3.571    2.143    8.000    1.143 
#    0.000    3.571    0.000    0.000    0.000    0.000 
#    0.000    0.000    0.000    0.000    0.000    0.000 
#
# Total GULP energy -156044.926917 kJ/mol
# GULP energy per Si atom -5573.033104 kJ/mol
# Density = 2.037321 g / cm^3
# Si number density = 20.419689 Si / 1000 Ang^3
#
#
#
# Elastic Constant Matrix: (Units=GPa)
#
#
# Indices 1 2 3 4 5 6 
#
# 1 87.1973 33.2047 14.1627 0.0000 6.0938 0.0000
# 2 33.2047 98.2331 19.9871 0.0000 -0.0858 0.0000
# 3 14.1627 19.9871 62.3883 0.0000 -6.9701 0.0000
# 4 0.0000 0.0000 0.0000 27.8371 0.0000 -11.0827
# 5 6.0938 -0.0858 -6.9701 0.0000 16.6884 0.0000
# 6 0.0000 0.0000 0.0000 -11.0827 0.0000 16.0947
#
#
#
# Elastic Compliance Matrix: (Units=1/GPa)
#
#
# Indices 1 2 3 4 5 6 
#
# 1 0.013901 -0.004196 -0.002497 0.000000 -0.006141 0.000000
# 2 -0.004196 0.012191 -0.002911 0.000000 0.000379 0.000000
# 3 -0.002497 -0.002911 0.018491 0.000000 0.008620 0.000000
# 4 0.000000 0.000000 0.000000 0.049491 0.000000 0.034079
# 5 -0.006141 0.000379 0.008620 0.000000 0.065766 0.000000
# 6 0.000000 0.000000 0.000000 0.034079 0.000000 0.085599
#
#
# Mechanical properties :
#
#
# Convention : Reuss Voigt Hill
#
# Bulk Modulus (GPa) = 39.40940 42.50311 40.95625
# Shear Modulus (GPa) = 18.30796 24.15497 21.23146
#
# Velocity S-wave (km/s) = 2.99755 3.44310 3.22802
# Velocity P-wave (km/s) = 5.59661 6.05529 5.83046
#
# Compressibility (1/GPa) = 0.02537466
#
# Stress axis : x y z
#
# Youngs Moduli (GPa) = 71.93808 82.02948 54.08016
#
# Poissons Ratio (x) = 0.34419 0.13506
# Poissons Ratio (y) = 0.30185 0.15741
# Poissons Ratio (z) = 0.17966 0.23876
#
# Static dielectric constant tensor:
#      x y z
#    x 1.721670 0.000000 -0.017140 
#    y 0.000000 1.795980 0.000000 
#    z -0.017140 0.000000 1.692890 
# 
# From -- ./inp_files/148555.got.cif
#   From: 2010.05.17/outbox.cif.g08.bks.cpg/sg15_75_cif.got.tgz:148555.got - 2010.06.03 18:47:42.
