data_PCOD9269964
_publ_section_title
;
Structure prediction by ZEFSAII (Michael W. Deem and Ramdas Pophale) SiO2 
 PCOD9269964
Probable space group: C 2/C
;
_chemical_formula_sum "Si O2"
_cell_formula_units_Z 56
_cell_length_a 25.398619
_cell_length_b 15.079898
_cell_length_c 9.348824
_cell_angle_alpha 90.000000
_cell_angle_beta 59.151570
_cell_angle_gamma 90.000000
_cell_volume 3074.109531
_symmetry_space_group_name_H-M "C 2/C"
_symmetry_group_IT_number 15
_symmetry_cell_setting 'monoclinic'
loop_
_space_group_symop_operation_xyz
x,y,z
-x,y,1/2-z
-x,-y,-z
x,-y,1/2+z
1/2+x,1/2+y,z
1/2-x,1/2+y,1/2-z
1/2-x,1/2-y,-z
1/2+x,1/2-y,1/2+z
loop_
_atom_site_type_symbol
_atom_site_label
_atom_site_fract_x
_atom_site_fract_y
_atom_site_fract_z
Si Si1 0.924199 0.868551 0.606080
Si Si2 0.780475 0.677206 0.351641
Si Si3 0.500000 0.281642 0.250000
Si Si4 0.584113 0.756009 0.890958
Si Si5 0.785334 0.001944 0.029332
Si Si6 0.630908 0.556575 0.824647
Si Si7 0.784205 0.176604 0.359812
Si Si8 0.500000 0.276974 0.750000
O O1 0.954078 0.836461 0.416384
O O2 0.857626 0.825318 0.733591
O O3 0.965469 0.837608 0.681532
O O4 0.914990 0.973873 0.608452
O O5 0.750000 0.750000 0.500000
O O6 0.851469 0.697464 0.227026
O O7 0.768763 0.573456 0.400662
O O8 0.744343 0.686519 0.254909
O O9 0.458550 0.232156 0.189369
O O10 0.600605 0.651358 0.890217
O O11 0.547468 0.779341 0.087011
O O12 0.814831 0.966316 0.136605
O O13 0.770418 0.916633 0.955564
O O14 0.839838 0.054450 0.873349
O O15 0.750000 0.250000 0.500000
#
# Coordination Sequence:
#
# PCOD9269964 Si02
#       8
#     8   8   4   8   8   8   8   4
#     4  10  20  35  52  79 117 160 193 241 294 343
#     4  12  22  38  62  88 115 162 197 243 306 360
#     4  10  22  37  52  84 119 160 208 240 281 370
#     4  11  22  36  58  83 118 160 201 246 300 351
#     4  11  21  37  55  89 125 152 190 249 301 359
#     4  11  20  35  56  83 126 155 196 250 287 365
#     4  11  23  38  61  89 120 152 197 253 315 359
#     4  10  22  35  50  80 117 160 210 240 277 358
#
# _framework density 18.216657999999999
#
# number of rings (size 3 to 8) (size 9 to 14) (size 15 to 20)
#    0.000    1.143    4.286    5.143    0.000    3.429 
#    0.000    0.000    0.000    0.000    0.000   17.000 
#    0.000    0.000    0.000    0.000    0.000    0.000 
#
# Total GULP energy -156181.216276 kJ/mol
# GULP energy per Si atom -5577.900581 kJ/mol
# Density = 1.817520 g / cm^3
# Si number density = 18.216658 Si / 1000 Ang^3
#
#
#
# Elastic Constant Matrix: (Units=GPa)
#
#
# Indices 1 2 3 4 5 6 
#
# 1 115.1280 45.1176 49.8981 0.0000 -3.0217 0.0000
# 2 45.1176 57.5141 48.1853 0.0000 -9.9130 0.0000
# 3 49.8981 48.1853 125.5671 0.0000 -11.3750 0.0000
# 4 0.0000 0.0000 0.0000 -9.0831 0.0000 31.3955
# 5 -3.0217 -9.9130 -11.3750 0.0000 40.7518 0.0000
# 6 0.0000 0.0000 0.0000 31.3955 0.0000 -18.7864
#
#
#
# Elastic Compliance Matrix: (Units=1/GPa)
#
#
# Indices 1 2 3 4 5 6 
#
# 1 0.012932 -0.008851 -0.001899 0.000000 -0.001724 0.000000
# 2 -0.008851 0.032203 -0.008403 0.000000 0.004832 0.000000
# 3 -0.001899 -0.008403 0.012050 0.000000 0.001179 0.000000
# 4 0.000000 0.000000 0.000000 0.023050 0.000000 0.038520
# 5 -0.001724 0.004832 0.001179 0.000000 0.025915 0.000000
# 6 0.000000 0.000000 0.000000 0.038520 0.000000 0.011144
#
#
# Mechanical properties :
#
#
# Convention : Reuss Voigt Hill
#
# Bulk Modulus (GPa) = 52.96676 64.95678 58.96177
# Shear Modulus (GPa) = 30.88461 12.91035 21.89748
#
# Velocity S-wave (km/s) = 4.12200 2.66505 3.47083
# Velocity P-wave (km/s) = 7.19678 6.72349 6.96415
#
# Compressibility (1/GPa) = 0.01887977
#
# Stress axis : x y z
#
# Youngs Moduli (GPa) = 77.32495 31.05289 82.99083
#
# Poissons Ratio (x) = 0.27486 0.15757
# Poissons Ratio (y) = 0.68444 0.69733
# Poissons Ratio (z) = 0.14681 0.26092
#
# Static dielectric constant tensor:
#      x y z
#    x 1.647770 0.000000 0.001610 
#    y 0.000000 1.572450 0.000000 
#    z 0.001610 0.000000 1.763670 
# 
# From -- ./inp_files/61501.got.cif
#   From: 2010.05.17/outbox.cif.g08.bks.cpg/sg15_31_cif.got.tgz:61501.got - 2010.06.03 18:47:42.
