data_PCOD9269220
_publ_section_title
;
Structure prediction by ZEFSAII (Michael W. Deem and Ramdas Pophale) SiO2 
 PCOD9269220
Probable space group: C 2/C
;
_chemical_formula_sum "Si O2"
_cell_formula_units_Z 44
_cell_length_a 18.398489
_cell_length_b 22.266242
_cell_length_c 10.533868
_cell_angle_alpha 90.000000
_cell_angle_beta 26.305984
_cell_angle_gamma 90.000000
_cell_volume 1912.415388
_symmetry_space_group_name_H-M "C 2/C"
_symmetry_group_IT_number 15
_symmetry_cell_setting 'monoclinic'
loop_
_space_group_symop_operation_xyz
x,y,z
-x,y,1/2-z
-x,-y,-z
x,-y,1/2+z
1/2+x,1/2+y,z
1/2-x,1/2+y,1/2-z
1/2-x,1/2-y,-z
1/2+x,1/2-y,1/2+z
loop_
_atom_site_type_symbol
_atom_site_label
_atom_site_fract_x
_atom_site_fract_y
_atom_site_fract_z
Si Si1 0.383085 0.723369 0.698523
Si Si2 0.622726 0.807006 0.205120
Si Si3 0.534430 0.440281 0.560336
Si Si4 0.837751 0.375350 0.090775
Si Si5 0.662187 0.639736 0.331193
Si Si6 0.000000 0.056339 0.750000
O O1 0.451763 0.772866 0.494679
O O2 0.289499 0.672090 0.769434
O O3 0.540430 0.697083 0.528110
O O4 0.250000 0.750000 0.000000
O O5 0.633927 0.850881 0.310780
O O6 0.750000 0.750000 0.000000
O O7 0.674570 0.844362 0.999917
O O8 0.731871 0.436679 0.243948
O O9 0.434333 0.403513 0.615471
O O10 0.467842 0.507687 0.689055
O O11 0.500000 0.408463 0.750000
O O12 0.000000 0.376449 0.750000
O O13 0.649592 0.600876 0.479813
#
# Coordination Sequence:
#
# PCOD9269220 Si02
#       6
#     8   8   8   8   8   4
#     4  10  21  34  56  87 113 149 190 224 282 346
#     4  10  20  34  53  83 115 148 184 230 280 338
#     4   9  19  34  60  82 103 149 199 232 278 341
#     4  11  20  35  58  80 112 153 196 233 278 342
#     4  10  20  35  58  85 115 145 194 232 285 346
#     4  10  20  36  62  82 114 146 188 246 294 326
#
# _framework density 23.007555
#
# number of rings (size 3 to 8) (size 9 to 14) (size 15 to 20)
#    0.545    1.455    3.636    0.545    0.000    2.909 
#    0.000    0.000    4.000    3.273    0.000    0.000 
#    0.000    0.000    0.000    0.000    0.000    0.000 
#
# Total GULP energy -122615.252236 kJ/mol
# GULP energy per Si atom -5573.420556 kJ/mol
# Density = 2.295519 g / cm^3
# Si number density = 23.007555 Si / 1000 Ang^3
#
#
#
# Elastic Constant Matrix: (Units=GPa)
#
#
# Indices 1 2 3 4 5 6 
#
# 1 37.0871 20.8491 30.4561 0.0014 0.8880 -0.0049
# 2 20.8491 81.5727 62.9263 -0.0007 10.7430 0.0006
# 3 30.4561 62.9263 215.8300 -0.0044 3.7289 0.0050
# 4 0.0014 -0.0007 -0.0044 52.9982 -0.0005 18.7110
# 5 0.8880 10.7430 3.7289 -0.0005 28.0877 0.0043
# 6 -0.0049 0.0006 0.0050 18.7110 0.0043 18.0874
#
#
#
# Elastic Compliance Matrix: (Units=1/GPa)
#
#
# Indices 1 2 3 4 5 6 
#
# 1 0.032849 -0.006496 -0.002773 -0.000007 0.001814 0.000017
# 2 -0.006496 0.017979 -0.004220 0.000000 -0.006111 0.000000
# 3 -0.002773 -0.004220 0.006240 0.000002 0.000873 -0.000005
# 4 -0.000007 0.000000 0.000002 0.029725 0.000005 -0.030750
# 5 0.001814 -0.006111 0.000873 0.000005 0.037767 -0.000014
# 6 0.000017 0.000000 -0.000005 -0.030750 -0.000014 0.087097
#
#
# Mechanical properties :
#
#
# Convention : Reuss Voigt Hill
#
# Bulk Modulus (GPa) = 33.23226 62.55032 47.89129
# Shear Modulus (GPa) = 20.10751 34.51854 27.31303
#
# Velocity S-wave (km/s) = 2.95948 3.87759 3.44922
# Velocity P-wave (km/s) = 5.11404 6.87703 6.05999
#
# Compressibility (1/GPa) = 0.03009124
#
# Stress axis : x y z
#
# Youngs Moduli (GPa) = 30.44246 55.61967 160.26278
#
# Poissons Ratio (x) = 0.36129 0.44438
# Poissons Ratio (y) = 0.19775 0.67627
# Poissons Ratio (z) = 0.08441 0.23470
#
# Static dielectric constant tensor:
#      x y z
#    x 1.882250 0.000000 -0.008970 
#    y 0.000000 1.947050 0.000000 
#    z -0.008970 0.000000 1.943620 
# 
# From -- ./inp_files/79992.got.cif
#   From: 2010.05.17/outbox.cif.g08.bks.cpg/sg15_40_cif.got.tgz:79992.got - 2010.06.03 18:47:42.
