data_PCOD9269636
_publ_section_title
;
Structure prediction by ZEFSAII (Michael W. Deem and Ramdas Pophale) SiO2 
 PCOD9269636
Probable space group: C 2/C
;
_chemical_formula_sum "Si O2"
_cell_formula_units_Z 64
_cell_length_a 23.808873
_cell_length_b 9.370196
_cell_length_c 18.286327
_cell_angle_alpha 90.000000
_cell_angle_beta 124.118170
_cell_angle_gamma 90.000000
_cell_volume 3377.401544
_symmetry_space_group_name_H-M "C 2/C"
_symmetry_group_IT_number 15
_symmetry_cell_setting 'monoclinic'
loop_
_space_group_symop_operation_xyz
x,y,z
-x,y,1/2-z
-x,-y,-z
x,-y,1/2+z
1/2+x,1/2+y,z
1/2-x,1/2+y,1/2-z
1/2-x,1/2-y,-z
1/2+x,1/2-y,1/2+z
loop_
_atom_site_type_symbol
_atom_site_label
_atom_site_fract_x
_atom_site_fract_y
_atom_site_fract_z
Si Si1 0.810844 0.229738 0.447851
Si Si2 0.696451 0.523455 0.447656
Si Si3 0.831615 0.868998 0.208681
Si Si4 0.831757 0.333023 0.055266
Si Si5 0.576762 0.922176 0.892200
Si Si6 0.188838 0.610077 0.785157
Si Si7 0.700054 0.395115 0.699991
Si Si8 0.423541 0.899396 0.784390
O O1 0.743625 0.309865 0.368360
O O2 0.865086 0.326379 0.528856
O O3 0.843679 0.159686 0.400104
O O4 0.788089 0.103847 0.485517
O O5 0.649583 0.454451 0.351409
O O6 0.767665 0.588900 0.470347
O O7 0.664388 0.665913 0.458093
O O8 0.879225 0.740427 0.267833
O O9 0.829986 0.985910 0.269924
O O10 0.898835 0.415226 0.081409
O O11 0.814944 0.356531 0.130165
O O12 0.501401 0.892986 0.865039
O O13 0.577398 0.901036 0.805100
O O14 0.238313 0.481595 0.794900
O O15 0.210478 0.753358 0.757713
O O16 0.114832 0.541261 0.715539
#
# Coordination Sequence:
#
# PCOD9269636 Si02
#       8
#     8   8   8   8   8   8   8   8
#     4  12  21  37  61  92 119 156 206 248 300 362
#     4  11  20  33  60  92 118 145 200 260 300 339
#     4  12  21  37  61  90 121 158 198 253 301 357
#     4  10  20  34  58  91 122 148 194 257 305 353
#     4  10  21  38  62  88 118 162 201 250 306 362
#     4  11  20  37  55  85 120 159 199 244 301 361
#     4  12  23  36  59  89 123 160 197 250 302 356
#     4  10  21  39  62  85 121 159 207 248 304 363
#
# _framework density 18.949479
#
# number of rings (size 3 to 8) (size 9 to 14) (size 15 to 20)
#    0.000    1.000    7.500    1.125    0.000    0.000 
#    0.000    2.500    2.750    0.000    0.000    0.000 
#    0.000    0.000    0.000    0.000    0.000    0.000 
#
# Total GULP energy -178268.461236 kJ/mol
# GULP energy per Si atom -5570.889414 kJ/mol
# Density = 1.890635 g / cm^3
# Si number density = 18.949479 Si / 1000 Ang^3
#
#
#
# Elastic Constant Matrix: (Units=GPa)
#
#
# Indices 1 2 3 4 5 6 
#
# 1 43.9264 32.3982 24.0182 0.0000 11.8787 0.0000
# 2 32.3982 129.7952 30.9697 0.0000 20.1116 0.0000
# 3 24.0182 30.9697 45.5246 0.0000 18.4697 0.0000
# 4 0.0000 0.0000 0.0000 19.7451 0.0000 -4.0170
# 5 11.8787 20.1116 18.4697 0.0000 28.6186 0.0000
# 6 0.0000 0.0000 0.0000 -4.0170 0.0000 25.5388
#
#
#
# Elastic Compliance Matrix: (Units=1/GPa)
#
#
# Indices 1 2 3 4 5 6 
#
# 1 0.034683 -0.005004 -0.014198 0.000000 -0.001717 0.000000
# 2 -0.005004 0.010153 -0.003001 0.000000 -0.003122 0.000000
# 3 -0.014198 -0.003001 0.038273 0.000000 -0.016698 0.000000
# 4 0.000000 0.000000 0.000000 0.052320 0.000000 0.008229
# 5 -0.001717 -0.003122 -0.016698 0.000000 0.048625 0.000000
# 6 0.000000 0.000000 0.000000 0.008229 0.000000 0.040451
#
#
# Mechanical properties :
#
#
# Convention : Reuss Voigt Hill
#
# Bulk Modulus (GPa) = 25.83687 43.77981 34.80834
# Shear Modulus (GPa) = 17.74240 23.57119 20.65679
#
# Velocity S-wave (km/s) = 3.06322 3.53072 3.30525
# Velocity P-wave (km/s) = 5.11618 6.30673 5.74239
#
# Compressibility (1/GPa) = 0.03870438
#
# Stress axis : x y z
#
# Youngs Moduli (GPa) = 28.83234 98.49258 26.12816
#
# Poissons Ratio (x) = 0.49281 0.37097
# Poissons Ratio (y) = 0.14426 0.07840
# Poissons Ratio (z) = 0.40937 0.29554
#
# Static dielectric constant tensor:
#      x y z
#    x 1.708370 0.000000 -0.031300 
#    y 0.000000 1.702690 0.000000 
#    z -0.031300 0.000000 1.682440 
# 
# From -- ./inp_files/255071.got.cif
#   From: 2010.05.17/outbox.cif.g08.bks.cpg/sg15_128_cif.got.tgz:255071.got - 2010.06.03 18:47:42.
