data_PCOD9269635
_publ_section_title
;
Structure prediction by ZEFSAII (Michael W. Deem and Ramdas Pophale) SiO2 
 PCOD9269635
Probable space group: C 2/C
;
_chemical_formula_sum "Si O2"
_cell_formula_units_Z 60
_cell_length_a 20.825376
_cell_length_b 13.230219
_cell_length_c 13.998936
_cell_angle_alpha 90.000000
_cell_angle_beta 129.130885
_cell_angle_gamma 90.000000
_cell_volume 2991.935652
_symmetry_space_group_name_H-M "C 2/C"
_symmetry_group_IT_number 15
_symmetry_cell_setting 'monoclinic'
loop_
_space_group_symop_operation_xyz
x,y,z
-x,y,1/2-z
-x,-y,-z
x,-y,1/2+z
1/2+x,1/2+y,z
1/2-x,1/2+y,1/2-z
1/2-x,1/2-y,-z
1/2+x,1/2-y,1/2+z
loop_
_atom_site_type_symbol
_atom_site_label
_atom_site_fract_x
_atom_site_fract_y
_atom_site_fract_z
Si Si1 0.215042 0.154560 0.198155
Si Si2 0.722739 0.986376 0.374496
Si Si3 0.816933 0.158189 0.824810
Si Si4 0.578015 0.524783 0.141945
Si Si5 0.500000 0.617064 0.250000
Si Si6 0.449965 0.217994 0.553441
Si Si7 0.422151 0.070690 0.899706
Si Si8 0.327639 0.042588 0.461537
O O1 0.243656 0.269823 0.218732
O O2 0.122550 0.122966 0.138577
O O3 0.267637 0.104023 0.334301
O O4 0.240862 0.091569 0.129321
O O5 0.780529 0.897857 0.384655
O O6 0.633394 0.969976 0.240087
O O7 0.715177 0.982647 0.479967
O O8 0.856296 0.067194 0.801243
O O9 0.892505 0.233787 0.917929
O O10 0.552034 0.549095 0.225561
O O11 0.500000 0.500000 0.000000
O O12 0.545397 0.694552 0.363776
O O13 0.536062 0.175532 0.592678
O O14 0.402542 0.120952 0.551606
O O15 0.500000 0.000000 0.000000
O O16 0.363155 0.052842 0.936174
#
# Coordination Sequence:
#
# PCOD9269635 Si02
#       8
#     8   8   8   8   4   8   8   8
#     4   9  22  38  61  86 123 167 203 259 323 364
#     4  10  20  35  59  85 122 156 202 252 309 371
#     4  10  22  40  58  85 126 161 205 260 303 373
#     4  11  24  42  61  93 129 165 208 270 317 370
#     4  12  24  36  66  92 120 166 218 256 320 372
#     4  10  20  34  58  91 120 157 206 252 316 374
#     4   9  19  36  54  88 129 153 191 257 311 362
#     4   9  19  35  60  92 122 159 203 262 312 377
#
# _framework density 20.053908
#
# number of rings (size 3 to 8) (size 9 to 14) (size 15 to 20)
#    0.000    2.133    1.333    1.600    5.600    2.667 
#    0.000    1.333    0.000    8.000    0.000    0.000 
#    0.000    0.000    0.000    0.000    0.000    0.000 
#
# Total GULP energy -167301.009100 kJ/mol
# GULP energy per Si atom -5576.700303 kJ/mol
# Density = 2.000826 g / cm^3
# Si number density = 20.053908 Si / 1000 Ang^3
#
#
#
# Elastic Constant Matrix: (Units=GPa)
#
#
# Indices 1 2 3 4 5 6 
#
# 1 125.6370 75.9863 46.8446 0.0000 -19.7232 0.0000
# 2 75.9863 123.2296 32.4673 0.0000 -10.8353 0.0000
# 3 46.8446 32.4673 37.0256 0.0000 -4.0104 0.0000
# 4 0.0000 0.0000 0.0000 34.3959 0.0000 13.6953
# 5 -19.7232 -10.8353 -4.0104 0.0000 42.0479 0.0000
# 6 0.0000 0.0000 0.0000 13.6953 0.0000 30.6676
#
#
#
# Elastic Compliance Matrix: (Units=1/GPa)
#
#
# Indices 1 2 3 4 5 6 
#
# 1 0.019989 -0.006914 -0.018596 0.000000 0.005821 0.000000
# 2 -0.006914 0.013090 -0.002745 0.000000 -0.000132 0.000000
# 3 -0.018596 -0.002745 0.052464 0.000000 -0.004426 0.000000
# 4 0.000000 0.000000 0.000000 0.035361 0.000000 -0.015791
# 5 0.005821 -0.000132 -0.004426 0.000000 0.026056 0.000000
# 6 0.000000 0.000000 0.000000 -0.015791 0.000000 0.039660
#
#
# Mechanical properties :
#
#
# Convention : Reuss Voigt Hill
#
# Bulk Modulus (GPa) = 34.44497 66.27650 50.36073
# Shear Modulus (GPa) = 19.77792 30.12856 24.95324
#
# Velocity S-wave (km/s) = 3.14385 3.88026 3.53130
# Velocity P-wave (km/s) = 5.51288 7.29357 6.46483
#
# Compressibility (1/GPa) = 0.02903182
#
# Stress axis : x y z
#
# Youngs Moduli (GPa) = 50.02836 76.39432 19.06076
#
# Poissons Ratio (x) = 0.52820 0.35446
# Poissons Ratio (y) = 0.34590 0.05232
# Poissons Ratio (z) = 0.93034 0.20970
#
# Static dielectric constant tensor:
#      x y z
#    x 1.735240 0.000000 0.064760 
#    y 0.000000 1.747820 0.000000 
#    z 0.064760 0.000000 1.738320 
# 
# From -- ./inp_files/167705.got.cif
#   From: 2010.05.17/outbox.cif.g08.bks.cpg/sg15_84_cif.got.tgz:167705.got - 2010.06.03 18:47:42.
