data_PCOD9269122
_publ_section_title
;
Structure prediction by ZEFSAII (Michael W. Deem and Ramdas Pophale) SiO2 
 PCOD9269122
Probable space group: C 2/C
;
_chemical_formula_sum "Si O2"
_cell_formula_units_Z 44
_cell_length_a 19.824356
_cell_length_b 10.521838
_cell_length_c 7.720206
_cell_angle_alpha 90.000000
_cell_angle_beta 90.436109
_cell_angle_gamma 90.000000
_cell_volume 1610.300794
_symmetry_space_group_name_H-M "C 2/C"
_symmetry_group_IT_number 15
_symmetry_cell_setting 'monoclinic'
loop_
_space_group_symop_operation_xyz
x,y,z
-x,y,1/2-z
-x,-y,-z
x,-y,1/2+z
1/2+x,1/2+y,z
1/2-x,1/2+y,1/2-z
1/2-x,1/2-y,-z
1/2+x,1/2-y,1/2+z
loop_
_atom_site_type_symbol
_atom_site_label
_atom_site_fract_x
_atom_site_fract_y
_atom_site_fract_z
Si Si1 0.000000 0.585151 0.750000
Si Si2 0.669388 0.325009 0.835935
Si Si3 0.463585 0.682052 0.010679
Si Si4 0.101388 0.826189 0.369312
Si Si5 0.135829 0.592430 0.613101
Si Si6 0.775696 0.017955 0.476780
O O1 0.069031 0.522356 0.683307
O O2 0.979052 0.679341 0.592860
O O3 0.662933 0.182705 0.769174
O O4 0.701706 0.371121 0.015661
O O5 0.713255 0.401134 0.695935
O O6 0.590948 0.369513 0.852526
O O7 0.425876 0.687066 0.825550
O O8 0.536677 0.621903 0.977375
O O9 0.115961 0.690899 0.460457
O O10 0.168714 0.907477 0.402900
O O11 0.200027 0.521288 0.542515
#
# Coordination Sequence:
#
# PCOD9269122 Si02
#       6
#     4   8   8   8   8   8
#     4   8  16  34  58  80 106 138 182 226 276 324
#     4  10  20  34  51  77 109 144 181 219 266 319
#     4   9  17  31  52  78 111 146 178 219 268 326
#     4   9  17  31  52  79 110 144 182 218 265 323
#     4   9  19  37  58  80 110 144 180 228 274 322
#     4  11  21  35  54  79 114 147 182 225 272 324
#
# _framework density 27.324086000000001
#
# number of rings (size 3 to 8) (size 9 to 14) (size 15 to 20)
#    0.000    2.545    0.000    4.364    0.000    0.727 
#    0.000   25.455    0.000    1.091    0.000    2.545 
#    0.000    0.000    0.000    0.000    0.000    0.000 
#
# Total GULP energy -122939.687047 kJ/mol
# GULP energy per Si atom -5588.167593 kJ/mol
# Density = 2.726190 g / cm^3
# Si number density = 27.324086 Si / 1000 Ang^3
#
#
#
# Elastic Constant Matrix: (Units=GPa)
#
#
# Indices 1 2 3 4 5 6 
#
# 1 203.1029 32.0994 70.2994 0.0000 -50.8442 0.0000
# 2 32.0994 52.1006 21.0280 0.0000 -7.6110 0.0000
# 3 70.2994 21.0280 112.8612 0.0000 -0.0224 0.0000
# 4 0.0000 0.0000 0.0000 22.8916 0.0000 7.6192
# 5 -50.8442 -7.6110 -0.0224 0.0000 70.4885 0.0000
# 6 0.0000 0.0000 0.0000 7.6192 0.0000 41.2103
#
#
#
# Elastic Compliance Matrix: (Units=1/GPa)
#
#
# Indices 1 2 3 4 5 6 
#
# 1 0.008417 -0.002402 -0.004794 0.000000 0.005811 0.000000
# 2 -0.002402 0.021800 -0.002565 0.000000 0.000620 0.000000
# 3 -0.004794 -0.002565 0.012324 0.000000 -0.003731 0.000000
# 4 0.000000 0.000000 0.000000 0.046549 0.000000 -0.008606
# 5 0.005811 0.000620 -0.003731 0.000000 0.018444 0.000000
# 6 0.000000 0.000000 0.000000 -0.008606 0.000000 0.025857
#
#
# Mechanical properties :
#
#
# Convention : Reuss Voigt Hill
#
# Bulk Modulus (GPa) = 43.44533 68.32426 55.88479
# Shear Modulus (GPa) = 31.13598 43.22728 37.18163
#
# Velocity S-wave (km/s) = 3.37932 3.98178 3.69286
# Velocity P-wave (km/s) = 5.58220 6.79697 6.21932
#
# Compressibility (1/GPa) = 0.02301744
#
# Stress axis : x y z
#
# Youngs Moduli (GPa) = 118.80294 45.87252 81.14281
#
# Poissons Ratio (x) = 0.11019 0.38902
# Poissons Ratio (y) = 0.28538 0.20815
# Poissons Ratio (z) = 0.56958 0.11768
#
# Static dielectric constant tensor:
#      x y z
#    x 2.138330 0.000000 0.024670 
#    y 0.000000 2.102460 0.000000 
#    z 0.024670 0.000000 2.206750 
# 
# From -- ./inp_files/47084.got.cif
#   From: 2010.05.17/outbox.cif.g08.bks.cpg/sg15_24_cif.got.tgz:47084.got - 2010.06.03 18:47:42.
