data_PCOD9269785
_publ_section_title
;
Structure prediction by ZEFSAII (Michael W. Deem and Ramdas Pophale) SiO2 
 PCOD9269785
Probable space group: C 2/C
;
_chemical_formula_sum "Si O2"
_cell_formula_units_Z 48
_cell_length_a 28.727872
_cell_length_b 13.509574
_cell_length_c 14.559477
_cell_angle_alpha 90.000000
_cell_angle_beta 158.839632
_cell_angle_gamma 90.000000
_cell_volume 2039.733976
_symmetry_space_group_name_H-M "C 2/C"
_symmetry_group_IT_number 15
_symmetry_cell_setting 'monoclinic'
loop_
_space_group_symop_operation_xyz
x,y,z
-x,y,1/2-z
-x,-y,-z
x,-y,1/2+z
1/2+x,1/2+y,z
1/2-x,1/2+y,1/2-z
1/2-x,1/2-y,-z
1/2+x,1/2-y,1/2+z
loop_
_atom_site_type_symbol
_atom_site_label
_atom_site_fract_x
_atom_site_fract_y
_atom_site_fract_z
Si Si1 0.858739 0.751891 0.311128
Si Si2 0.152407 0.982965 0.263235
Si Si3 0.000000 0.792889 0.750000
Si Si4 0.189714 0.962107 0.032930
Si Si5 0.428521 0.785330 0.746527
Si Si6 0.132675 0.485358 0.975641
Si Si7 0.000000 0.132310 0.750000
O O1 0.854366 0.868873 0.280175
O O2 0.919570 0.738514 0.522482
O O3 0.936195 0.702841 0.369843
O O4 0.707711 0.728298 0.024056
O O5 0.246018 0.029910 0.357774
O O6 0.217608 0.012940 0.479027
O O7 0.000000 0.000000 0.000000
O O8 0.900002 0.865734 0.619189
O O9 0.310001 0.951618 0.321436
O O10 0.109312 0.055446 0.922323
O O11 0.413179 0.889624 0.667917
O O12 0.529400 0.709411 0.887013
O O13 0.000000 0.542894 0.750000
#
# Coordination Sequence:
#
# PCOD9269785 Si02
#       7
#     8   8   4   8   8   8   4
#     4  10  20  34  60  95 127 170 213 271 323 386
#     4  11  19  35  63  97 125 161 222 274 315 381
#     4  11  18  34  62 100 133 160 214 285 322 368
#     4  11  21  34  62  97 128 165 221 274 316 383
#     4  10  20  36  60  91 128 174 212 258 328 394
#     4  11  24  41  62  93 136 182 212 261 344 394
#     4  11  20  34  66  96 125 162 226 279 308 384
#
# _framework density 23.53248
#
# number of rings (size 3 to 8) (size 9 to 14) (size 15 to 20)
#    0.000    1.333    7.500    1.000    0.000    0.667 
#    0.000    0.000    1.833    6.000    0.000    0.000 
#    0.000    0.000    0.000    0.000    0.000    0.000 
#
# Total GULP energy -133916.207281 kJ/mol
# GULP energy per Si atom -5579.841970 kJ/mol
# Density = 2.347892 g / cm^3
# Si number density = 23.532480 Si / 1000 Ang^3
#
#
#
# Elastic Constant Matrix: (Units=GPa)
#
#
# Indices 1 2 3 4 5 6 
#
# 1 146.4586 6.2407 51.5863 0.0000 -25.0905 0.0000
# 2 6.2407 45.3768 -0.3829 0.0000 -2.8035 0.0000
# 3 51.5863 -0.3829 91.7700 0.0000 -8.6216 0.0000
# 4 0.0000 0.0000 0.0000 12.1569 0.0000 -6.3004
# 5 -25.0905 -2.8035 -8.6216 0.0000 58.1619 0.0000
# 6 0.0000 0.0000 0.0000 -6.3004 0.0000 20.0813
#
#
#
# Elastic Compliance Matrix: (Units=1/GPa)
#
#
# Indices 1 2 3 4 5 6 
#
# 1 0.009119 -0.001099 -0.004833 0.000000 0.003164 0.000000
# 2 -0.001099 0.022240 0.000778 0.000000 0.000713 0.000000
# 3 -0.004833 0.000778 0.013614 0.000000 -0.000030 0.000000
# 4 0.000000 0.000000 0.000000 0.098230 0.000000 0.030819
# 5 0.003164 0.000713 -0.000030 0.000000 0.018589 0.000000
# 6 0.000000 0.000000 0.000000 0.030819 0.000000 0.059467
#
#
# Mechanical properties :
#
#
# Convention : Reuss Voigt Hill
#
# Bulk Modulus (GPa) = 28.84930 44.27706 36.56318
# Shear Modulus (GPa) = 20.56573 33.15746 26.86160
#
# Velocity S-wave (km/s) = 2.95944 3.75775 3.38223
# Velocity P-wave (km/s) = 4.89527 6.13871 5.55191
#
# Compressibility (1/GPa) = 0.03466288
#
# Stress axis : x y z
#
# Youngs Moduli (GPa) = 109.65740 44.96497 73.45215
#
# Poissons Ratio (x) = 0.04944 0.35503
# Poissons Ratio (y) = 0.12056 -0.05713
# Poissons Ratio (z) = 0.53003 -0.03497
#
# Static dielectric constant tensor:
#      x y z
#    x 2.004130 0.000000 0.081300 
#    y 0.000000 1.885020 0.000000 
#    z 0.081300 0.000000 1.994360 
# 
# From -- ./inp_files/182575.got.cif
#   From: 2010.05.17/outbox.cif.g08.bks.cpg/sg15_92_cif.got.tgz:182575.got - 2010.06.03 18:47:42.
