data_PCOD9269535
_publ_section_title
;
Structure prediction by ZEFSAII (Michael W. Deem and Ramdas Pophale) SiO2 
 PCOD9269535
Probable space group: C 2/C
;
_chemical_formula_sum "Si O2"
_cell_formula_units_Z 60
_cell_length_a 27.656592
_cell_length_b 8.068497
_cell_length_c 12.543786
_cell_angle_alpha 90.000000
_cell_angle_beta 85.062620
_cell_angle_gamma 90.000000
_cell_volume 2788.723345
_symmetry_space_group_name_H-M "C 2/C"
_symmetry_group_IT_number 15
_symmetry_cell_setting 'monoclinic'
loop_
_space_group_symop_operation_xyz
x,y,z
-x,y,1/2-z
-x,-y,-z
x,-y,1/2+z
1/2+x,1/2+y,z
1/2-x,1/2+y,1/2-z
1/2-x,1/2-y,-z
1/2+x,1/2-y,1/2+z
loop_
_atom_site_type_symbol
_atom_site_label
_atom_site_fract_x
_atom_site_fract_y
_atom_site_fract_z
Si Si1 0.914624 0.510819 0.294372
Si Si2 0.862042 0.447182 0.002258
Si Si3 0.697085 0.729230 0.059104
Si Si4 0.557016 0.168239 0.417004
Si Si5 0.376475 0.512308 0.550551
Si Si6 0.970564 0.165428 0.032453
Si Si7 0.839778 0.246773 0.205414
Si Si8 0.500000 0.211722 0.750000
O O1 0.880135 0.606458 0.382410
O O2 0.938580 0.638505 0.208859
O O3 0.880380 0.369131 0.247717
O O4 0.960268 0.398173 0.320015
O O5 0.912923 0.511629 0.043514
O O6 0.831860 0.336296 0.091481
O O7 0.831489 0.611447 0.980961
O O8 0.697059 0.731781 0.188469
O O9 0.750000 0.750000 0.000000
O O10 0.666214 0.571209 0.020571
O O11 0.589646 0.327527 0.439637
O O12 0.502476 0.196678 0.466484
O O13 0.415264 0.369895 0.509543
O O14 0.355470 0.436347 0.664238
O O15 0.973896 0.190507 0.159652
O O16 0.000000 0.000000 0.000000
#
# Coordination Sequence:
#
# PCOD9269535 Si02
#       8
#     8   8   8   8   8   8   8   4
#     4  10  20  34  57  88 122 167 206 248 301 367
#     4   9  19  38  60  86 121 162 206 257 312 375
#     4  10  23  42  64  90 121 158 205 263 330 392
#     4   9  19  36  55  84 123 165 209 248 297 360
#     4  10  21  38  60  88 122 163 206 260 314 365
#     4  10  21  35  58  86 123 168 207 256 299 363
#     4  10  21  38  63  88 120 162 200 259 323 369
#     4  12  20  34  58  84 124 166 210 252 300 368
#
# _framework density 21.515219999999999
#
# number of rings (size 3 to 8) (size 9 to 14) (size 15 to 20)
#    0.000    2.133    2.667    0.000    1.867    3.733 
#    0.000    6.000    0.000    0.000    0.000    0.000 
#    0.000    0.000    0.000    0.000    0.000    0.000 
#
# Total GULP energy -167036.430135 kJ/mol
# GULP energy per Si atom -5567.881004 kJ/mol
# Density = 2.146625 g / cm^3
# Si number density = 21.515220 Si / 1000 Ang^3
#
#
#
# Elastic Constant Matrix: (Units=GPa)
#
#
# Indices 1 2 3 4 5 6 
#
# 1 74.4433 14.9989 54.5285 0.0000 -22.4577 0.0000
# 2 14.9989 54.5263 34.5756 0.0000 -1.4452 0.0000
# 3 54.5285 34.5756 152.0553 0.0000 -31.6633 0.0000
# 4 0.0000 0.0000 0.0000 36.5680 0.0000 7.8742
# 5 -22.4577 -1.4452 -31.6633 0.0000 32.7035 0.0000
# 6 0.0000 0.0000 0.0000 7.8742 0.0000 13.6603
#
#
#
# Elastic Compliance Matrix: (Units=1/GPa)
#
#
# Indices 1 2 3 4 5 6 
#
# 1 0.020159 -0.002241 -0.004832 0.000000 0.009066 0.000000
# 2 -0.002241 0.022278 -0.005483 0.000000 -0.005863 0.000000
# 3 -0.004832 -0.005483 0.011040 0.000000 0.007129 0.000000
# 4 0.000000 0.000000 0.000000 0.031222 0.000000 -0.017997
# 5 0.009066 -0.005863 0.007129 0.000000 0.043447 0.000000
# 6 0.000000 0.000000 0.000000 -0.017997 0.000000 0.083579
#
#
# Mechanical properties :
#
#
# Convention : Reuss Voigt Hill
#
# Bulk Modulus (GPa) = 35.25397 54.35899 44.80648
# Shear Modulus (GPa) = 20.30122 28.38115 24.34119
#
# Velocity S-wave (km/s) = 3.07510 3.63591 3.36720
# Velocity P-wave (km/s) = 5.38790 6.55337 5.99901
#
# Compressibility (1/GPa) = 0.02836560
#
# Stress axis : x y z
#
# Youngs Moduli (GPa) = 49.60633 44.88816 90.57576
#
# Poissons Ratio (x) = 0.10060 0.43763
# Poissons Ratio (y) = 0.11117 0.49661
# Poissons Ratio (z) = 0.23968 0.24611
#
# Static dielectric constant tensor:
#      x y z
#    x 1.803680 0.000000 0.026720 
#    y 0.000000 1.845140 0.000000 
#    z 0.026720 0.000000 1.865970 
# 
# From -- ./inp_files/125871.got.cif
#   From: 2010.05.17/outbox.cif.g08.bks.cpg/sg15_63_cif.got.tgz:125871.got - 2010.06.03 18:47:42.
