data_PCOD9269618
_publ_section_title
;
Structure prediction by ZEFSAII (Michael W. Deem and Ramdas Pophale) SiO2 
 PCOD9269618
Probable space group: C 2/C
;
_chemical_formula_sum "Si O2"
_cell_formula_units_Z 40
_cell_length_a 7.494145
_cell_length_b 16.715173
_cell_length_c 12.567642
_cell_angle_alpha 90.000000
_cell_angle_beta 92.631705
_cell_angle_gamma 90.000000
_cell_volume 1572.636977
_symmetry_space_group_name_H-M "C 2/C"
_symmetry_group_IT_number 15
_symmetry_cell_setting 'monoclinic'
loop_
_space_group_symop_operation_xyz
x,y,z
-x,y,1/2-z
-x,-y,-z
x,-y,1/2+z
1/2+x,1/2+y,z
1/2-x,1/2+y,1/2-z
1/2-x,1/2-y,-z
1/2+x,1/2-y,1/2+z
loop_
_atom_site_type_symbol
_atom_site_label
_atom_site_fract_x
_atom_site_fract_y
_atom_site_fract_z
Si Si1 0.049512 0.393861 0.063006
Si Si2 0.429767 0.397551 0.968778
Si Si3 0.533031 0.245421 0.080057
Si Si4 0.247632 0.314294 0.239071
Si Si5 0.785862 0.029439 0.864963
O O1 0.076891 0.332183 0.161323
O O2 0.920795 0.462857 0.103888
O O3 0.250019 0.413360 0.033018
O O4 0.966819 0.344002 0.963068
O O5 0.369769 0.440957 0.858086
O O6 0.477349 0.304944 0.982517
O O7 0.596875 0.435953 0.034368
O O8 0.378338 0.266359 0.161647
O O9 0.712661 0.270273 0.147459
O O10 0.305016 0.406240 0.271527
#
# Coordination Sequence:
#
# PCOD9269618 Si02
#       5
#     8   8   8   8   8
#     4  11  20  36  64  87 120 165 210 253 305 375
#     4   9  19  35  55  83 121 156 195 252 312 359
#     4   9  19  36  62  85 120 167 197 255 317 361
#     4   9  18  34  57  86 116 157 206 245 302 368
#     4  10  20  34  58  88 116 159 207 249 301 376
#
# _framework density 25.434985999999999
#
# number of rings (size 3 to 8) (size 9 to 14) (size 15 to 20)
#    0.000    2.400    0.000    4.800    0.000    3.200 
#    0.000    2.000   44.000    0.000   20.800    0.000 
#    0.000    0.000    0.000    0.000    0.000    0.000 
#
# Total GULP energy -111384.388533 kJ/mol
# GULP energy per Si atom -5569.219427 kJ/mol
# Density = 2.537709 g / cm^3
# Si number density = 25.434986 Si / 1000 Ang^3
#
#
#
# Elastic Constant Matrix: (Units=GPa)
#
#
# Indices 1 2 3 4 5 6 
#
# 1 110.8482 1.5369 18.0631 0.0000 8.4911 0.0000
# 2 1.5369 72.3754 46.5691 0.0000 7.0060 0.0000
# 3 18.0631 46.5691 93.0988 0.0000 16.8145 0.0000
# 4 0.0000 0.0000 0.0000 38.2155 0.0000 8.8994
# 5 8.4911 7.0060 16.8145 0.0000 48.1332 0.0000
# 6 0.0000 0.0000 0.0000 8.8994 0.0000 31.7651
#
#
#
# Elastic Compliance Matrix: (Units=1/GPa)
#
#
# Indices 1 2 3 4 5 6 
#
# 1 0.009466 0.001416 -0.002355 0.000000 -0.001053 0.000000
# 2 0.001416 0.020605 -0.010668 0.000000 0.000478 0.000000
# 3 -0.002355 -0.010668 0.017268 0.000000 -0.004064 0.000000
# 4 0.000000 0.000000 0.000000 0.027994 0.000000 -0.007843
# 5 -0.001053 0.000478 -0.004064 0.000000 0.022312 0.000000
# 6 0.000000 0.000000 0.000000 -0.007843 0.000000 0.033678
#
#
# Mechanical properties :
#
#
# Convention : Reuss Voigt Hill
#
# Bulk Modulus (GPa) = 41.44846 45.40674 43.42760
# Shear Modulus (GPa) = 30.75457 37.63298 34.19377
#
# Velocity S-wave (km/s) = 3.48105 3.85070 3.67053
# Velocity P-wave (km/s) = 5.69984 6.13688 5.92239
#
# Compressibility (1/GPa) = 0.02412635
#
# Stress axis : x y z
#
# Youngs Moduli (GPa) = 105.64002 48.53304 57.90976
#
# Poissons Ratio (x) = -0.06873 0.13636
# Poissons Ratio (y) = -0.14959 0.61776
# Poissons Ratio (z) = 0.24875 0.51773
#
# Static dielectric constant tensor:
#      x y z
#    x 2.164120 0.000000 -0.118030 
#    y 0.000000 2.143140 0.000000 
#    z -0.118030 0.000000 2.058220 
# 
# From -- ./inp_files/135194.got.cif
#   From: 2010.05.17/outbox.cif.g08.bks.cpg/sg15_68_cif.got.tgz:135194.got - 2010.06.03 18:47:42.
