data_PCOD9269561
_publ_section_title
;
Structure prediction by ZEFSAII (Michael W. Deem and Ramdas Pophale) SiO2 
 PCOD9269561
Probable space group: C 2/C
;
_chemical_formula_sum "Si O2"
_cell_formula_units_Z 52
_cell_length_a 10.665780
_cell_length_b 24.916448
_cell_length_c 9.019506
_cell_angle_alpha 90.000000
_cell_angle_beta 74.078229
_cell_angle_gamma 90.000000
_cell_volume 2305.009572
_symmetry_space_group_name_H-M "C 2/C"
_symmetry_group_IT_number 15
_symmetry_cell_setting 'monoclinic'
loop_
_space_group_symop_operation_xyz
x,y,z
-x,y,1/2-z
-x,-y,-z
x,-y,1/2+z
1/2+x,1/2+y,z
1/2-x,1/2+y,1/2-z
1/2-x,1/2-y,-z
1/2+x,1/2-y,1/2+z
loop_
_atom_site_type_symbol
_atom_site_label
_atom_site_fract_x
_atom_site_fract_y
_atom_site_fract_z
Si Si1 0.648063 0.563207 0.252175
Si Si2 0.921151 0.153058 0.012240
Si Si3 0.000000 0.340266 0.250000
Si Si4 0.157768 0.377417 0.454765
Si Si5 0.265573 0.514983 0.974165
Si Si6 0.000000 0.688362 0.250000
Si Si7 0.000000 0.921756 0.250000
Si Si8 0.105258 0.744321 0.482607
O O1 0.500000 0.556818 0.250000
O O2 0.643630 0.622765 0.325322
O O3 0.686029 0.524129 0.375465
O O4 0.741085 0.545008 0.086859
O O5 0.002422 0.205903 0.024572
O O6 0.798808 0.151686 0.936719
O O7 0.020921 0.114116 0.890719
O O8 0.111073 0.372192 0.301304
O O9 0.051675 0.302265 0.104488
O O10 0.153775 0.441026 0.491692
O O11 0.070790 0.348158 0.606343
O O12 0.378916 0.542363 0.837558
O O13 0.098544 0.725412 0.313277
O O14 0.250000 0.750000 0.500000
#
# Coordination Sequence:
#
# PCOD9269561 Si02
#       8
#     8   8   4   8   8   4   4   8
#     4  10  20  34  57  94 131 162 209 268 331 397
#     4  10  23  37  63  91 132 171 210 272 333 395
#     4  10  24  42  61  95 128 169 231 274 324 412
#     4   9  22  43  66  89 128 177 220 277 342 384
#     4  10  20  35  61  88 129 165 204 265 343 391
#     4  10  23  44  64  85 132 175 226 284 313 398
#     4   8  17  32  55  84 120 166 193 244 331 384
#     4  11  26  38  64  96 131 173 222 266 336 402
#
# _framework density 22.559559
#
# number of rings (size 3 to 8) (size 9 to 14) (size 15 to 20)
#    0.000    2.462    0.769    0.923   11.846    2.462 
#    0.000    6.154    0.000   11.077    0.000    0.000 
#    0.000    0.000    0.000    0.000    0.000    0.000 
#
# Total GULP energy -144770.277974 kJ/mol
# GULP energy per Si atom -5568.087614 kJ/mol
# Density = 2.250821 g / cm^3
# Si number density = 22.559559 Si / 1000 Ang^3
#
#
#
# Elastic Constant Matrix: (Units=GPa)
#
#
# Indices 1 2 3 4 5 6 
#
# 1 85.9254 26.1524 28.2424 0.0000 38.7193 0.0000
# 2 26.1524 69.3835 29.4103 0.0000 26.4329 0.0000
# 3 28.2424 29.4103 69.6288 0.0000 36.1090 0.0000
# 4 0.0000 0.0000 0.0000 37.9980 0.0000 -5.3550
# 5 38.7193 26.4329 36.1090 0.0000 45.2261 0.0000
# 6 0.0000 0.0000 0.0000 -5.3550 0.0000 -67.6488
#
#
#
# Elastic Compliance Matrix: (Units=1/GPa)
#
#
# Indices 1 2 3 4 5 6 
#
# 1 0.019126 -0.001489 0.001555 0.000000 -0.016746 0.000000
# 2 -0.001489 0.019257 -0.004018 0.000000 -0.006773 0.000000
# 3 0.001555 -0.004018 0.025430 0.000000 -0.019287 0.000000
# 4 0.000000 0.000000 0.000000 0.026027 0.000000 -0.002060
# 5 -0.016746 -0.006773 -0.019287 0.000000 0.055805 0.000000
# 6 0.000000 0.000000 0.000000 -0.002060 0.000000 -0.014619
#
#
# Mechanical properties :
#
#
# Convention : Reuss Voigt Hill
#
# Bulk Modulus (GPa) = 17.88561 43.61644 30.75103
# Shear Modulus (GPa) = 31.73292 12.52390 22.12841
#
# Velocity S-wave (km/s) = 3.75457 2.35871 3.13531
# Velocity P-wave (km/s) = 5.17118 5.17628 5.17374
#
# Compressibility (1/GPa) = 0.05591086
#
# Stress axis : x y z
#
# Youngs Moduli (GPa) = 52.28526 51.92924 39.32324
#
# Poissons Ratio (x) = 0.07730 -0.06116
# Poissons Ratio (y) = 0.07783 0.15800
# Poissons Ratio (z) = -0.08133 0.20865
#
# Static dielectric constant tensor:
#      x y z
#    x 1.908990 0.000000 0.021130 
#    y 0.000000 2.008650 0.000000 
#    z 0.021130 0.000000 1.855850 
# 
# From -- ./inp_files/33590.got.cif
#   From: 2010.05.17/outbox.cif.g08.bks.cpg/sg15_17_cif.got.tgz:33590.got - 2010.06.03 18:47:42.
