data_PCOD9269959
_publ_section_title
;
Structure prediction by ZEFSAII (Michael W. Deem and Ramdas Pophale) SiO2 
 PCOD9269959
Probable space group: C 2/C
;
_chemical_formula_sum "Si O2"
_cell_formula_units_Z 64
_cell_length_a 5.884694
_cell_length_b 24.115429
_cell_length_c 25.755527
_cell_angle_alpha 90.000000
_cell_angle_beta 73.411790
_cell_angle_gamma 90.000000
_cell_volume 3502.899421
_symmetry_space_group_name_H-M "C 2/C"
_symmetry_group_IT_number 15
_symmetry_cell_setting 'monoclinic'
loop_
_space_group_symop_operation_xyz
x,y,z
-x,y,1/2-z
-x,-y,-z
x,-y,1/2+z
1/2+x,1/2+y,z
1/2-x,1/2+y,1/2-z
1/2-x,1/2-y,-z
1/2+x,1/2-y,1/2+z
loop_
_atom_site_type_symbol
_atom_site_label
_atom_site_fract_x
_atom_site_fract_y
_atom_site_fract_z
Si Si1 0.731258 0.876757 0.263050
Si Si2 0.624198 0.289401 0.466643
Si Si3 0.117580 0.422083 0.465886
Si Si4 0.352837 0.531433 0.466124
Si Si5 0.721525 0.251246 0.274553
Si Si6 0.086213 0.330990 0.384213
Si Si7 0.169165 0.125102 0.444806
Si Si8 0.094118 0.728059 0.112519
O O1 0.500000 0.904192 0.250000
O O2 0.773439 0.818346 0.230003
O O3 0.640695 0.859805 0.326227
O O4 0.000000 0.902067 0.250000
O O5 0.750000 0.250000 0.500000
O O6 0.491479 0.334430 0.509710
O O7 0.461309 0.251168 0.441148
O O8 0.814447 0.318764 0.416524
O O9 0.237922 0.480545 0.442342
O O10 0.177375 0.372073 0.423673
O O11 0.176691 0.405384 0.521242
O O12 0.841978 0.435481 0.488025
O O13 0.500000 0.500000 0.500000
O O14 0.512526 0.577498 0.428089
O O15 0.500000 0.234406 0.250000
O O16 0.635047 0.232209 0.336491
O O17 0.000000 0.234117 0.250000
O O18 0.217447 0.271778 0.376721
O O19 0.310815 0.165911 0.398252
#
# Coordination Sequence:
#
# PCOD9269959 Si02
#       8
#     8   8   8   8   8   8   8   8
#     4  10  20  35  52  76 114 152 186 237 281 342
#     4  12  22  31  47  78 123 156 184 223 273 356
#     4  10  20  36  55  76 110 148 189 238 286 344
#     4   9  20  38  53  72 109 144 189 240 279 332
#     4  10  20  37  53  74 113 158 189 236 278 336
#     4  12  21  33  55  81 112 158 190 227 294 356
#     4  11  21  33  51  79 116 152 190 226 282 341
#     4  12  23  33  52  82 118 156 191 230 288 356
#
# _framework density 18.270579999999999
#
# number of rings (size 3 to 8) (size 9 to 14) (size 15 to 20)
#    0.000    1.250    6.250    2.625    0.000    0.000 
#    0.000    0.000    0.000    0.000    0.000    0.000 
#   11.250    0.000    0.000    0.000    0.000    0.000 
#
# Total GULP energy -178283.483483 kJ/mol
# GULP energy per Si atom -5571.358859 kJ/mol
# Density = 1.822900 g / cm^3
# Si number density = 18.270580 Si / 1000 Ang^3
#
#
#
# Elastic Constant Matrix: (Units=GPa)
#
#
# Indices 1 2 3 4 5 6 
#
# 1 87.7460 12.0992 11.8942 0.0000 -9.7980 0.0000
# 2 12.0992 72.9689 11.3228 0.0000 -9.8762 0.0000
# 3 11.8942 11.3228 47.6084 0.0000 -13.7865 0.0000
# 4 0.0000 0.0000 0.0000 7.6509 0.0000 -4.5323
# 5 -9.7980 -9.8762 -13.7865 0.0000 32.8734 0.0000
# 6 0.0000 0.0000 0.0000 -4.5323 0.0000 33.1553
#
#
#
# Elastic Compliance Matrix: (Units=1/GPa)
#
#
# Indices 1 2 3 4 5 6 
#
# 1 0.012123 -0.001378 -0.002020 0.000000 0.002352 0.000000
# 2 -0.001378 0.014698 -0.002267 0.000000 0.003054 0.000000
# 3 -0.002020 -0.002267 0.024673 0.000000 0.009065 0.000000
# 4 0.000000 0.000000 0.000000 0.142221 0.000000 0.019441
# 5 0.002352 0.003054 0.009065 0.000000 0.035840 0.000000
# 6 0.000000 0.000000 0.000000 0.019441 0.000000 0.032819
#
#
# Mechanical properties :
#
#
# Convention : Reuss Voigt Hill
#
# Bulk Modulus (GPa) = 24.89764 30.99508 27.94636
# Shear Modulus (GPa) = 17.41603 26.26972 21.84287
#
# Velocity S-wave (km/s) = 3.09079 3.79597 3.46138
# Velocity P-wave (km/s) = 5.13751 6.01779 5.59499
#
# Compressibility (1/GPa) = 0.04016446
#
# Stress axis : x y z
#
# Youngs Moduli (GPa) = 82.48767 68.03566 40.52957
#
# Poissons Ratio (x) = 0.09378 0.08186
# Poissons Ratio (y) = 0.11370 0.09188
# Poissons Ratio (z) = 0.16661 0.15423
#
# Static dielectric constant tensor:
#      x y z
#    x 1.666250 0.000000 0.000270 
#    y 0.000000 1.544920 0.000000 
#    z 0.000270 0.000000 1.619990 
# 
# From -- ./inp_files/261805.got.cif
#   From: 2010.05.17/outbox.cif.g08.bks.cpg/sg15_131_cif.got.tgz:261805.got - 2010.06.03 18:47:42.
