data_PCOD9269282
_publ_section_title
;
Structure prediction by ZEFSAII (Michael W. Deem and Ramdas Pophale) SiO2 
 PCOD9269282
Probable space group: C 2/C
;
_chemical_formula_sum "Si O2"
_cell_formula_units_Z 60
_cell_length_a 14.686199
_cell_length_b 23.864821
_cell_length_c 8.909569
_cell_angle_alpha 90.000000
_cell_angle_beta 102.724215
_cell_angle_gamma 90.000000
_cell_volume 3045.969380
_symmetry_space_group_name_H-M "C 2/C"
_symmetry_group_IT_number 15
_symmetry_cell_setting 'monoclinic'
loop_
_space_group_symop_operation_xyz
x,y,z
-x,y,1/2-z
-x,-y,-z
x,-y,1/2+z
1/2+x,1/2+y,z
1/2-x,1/2+y,1/2-z
1/2-x,1/2-y,-z
1/2+x,1/2-y,1/2+z
loop_
_atom_site_type_symbol
_atom_site_label
_atom_site_fract_x
_atom_site_fract_y
_atom_site_fract_z
Si Si1 0.811157 0.051282 0.237703
Si Si2 0.909954 0.687044 0.323710
Si Si3 0.894167 0.437755 0.943126
Si Si4 0.698474 0.681325 0.194682
Si Si5 0.911441 0.973923 0.050083
Si Si6 0.577847 0.724788 0.402168
Si Si7 0.538987 0.343262 0.424750
Si Si8 0.500000 0.017943 0.750000
O O1 0.712924 0.046691 0.121024
O O2 0.825714 0.117684 0.262177
O O3 0.820920 0.027874 0.409145
O O4 0.885948 0.014916 0.175180
O O5 0.912222 0.625121 0.395562
O O6 0.808226 0.689685 0.205798
O O7 0.911881 0.730716 0.461591
O O8 0.000000 0.693933 0.250000
O O9 0.948745 0.478515 0.850312
O O10 0.928731 0.446086 0.124926
O O11 0.667791 0.716394 0.329944
O O12 0.630620 0.688348 0.025531
O O13 0.935480 0.908726 0.088902
O O14 0.000000 0.000000 0.000000
O O15 0.500000 0.740600 0.250000
O O16 0.538882 0.669261 0.475211
O O17 0.500000 0.323110 0.250000
#
# Coordination Sequence:
#
# PCOD9269282 Si02
#       8
#     8   8   8   8   8   8   8   4
#     4  10  20  34  54  84 117 151 193 233 284 348
#     4  11  22  40  62  88 119 156 201 247 295 351
#     4  10  21  37  60  84 117 152 194 237 290 340
#     4   9  21  39  60  85 118 159 196 245 299 354
#     4  11  20  32  54  83 119 154 190 235 290 350
#     4  10  21  39  62  85 117 155 198 248 301 355
#     4  10  20  37  58  87 120 155 197 243 300 352
#     4  10  20  38  58  82 114 150 188 236 290 334
#
# _framework density 19.698163999999998
#
# number of rings (size 3 to 8) (size 9 to 14) (size 15 to 20)
#    0.000    1.867    0.667    3.600    0.933    2.133 
#    0.000    7.333    0.000    0.000    0.000    0.000 
#    0.000    0.000    0.000    0.000    0.000    0.000 
#
# Total GULP energy -167237.850657 kJ/mol
# GULP energy per Si atom -5574.595022 kJ/mol
# Density = 1.965333 g / cm^3
# Si number density = 19.698164 Si / 1000 Ang^3
#
#
#
# Elastic Constant Matrix: (Units=GPa)
#
#
# Indices 1 2 3 4 5 6 
#
# 1 103.3198 41.2147 60.5211 0.0000 4.1620 0.0000
# 2 41.2147 65.2608 32.9510 0.0000 -1.9196 0.0000
# 3 60.5211 32.9510 146.0612 0.0000 24.0912 0.0000
# 4 0.0000 0.0000 0.0000 24.8046 0.0000 -5.4376
# 5 4.1620 -1.9196 24.0912 0.0000 31.0822 0.0000
# 6 0.0000 0.0000 0.0000 -5.4376 0.0000 16.4349
#
#
#
# Elastic Compliance Matrix: (Units=1/GPa)
#
#
# Indices 1 2 3 4 5 6 
#
# 1 0.015408 -0.007170 -0.004991 0.000000 0.001363 0.000000
# 2 -0.007170 0.021248 -0.002519 0.000000 0.004225 0.000000
# 3 -0.004991 -0.002519 0.010776 0.000000 -0.007840 0.000000
# 4 0.000000 0.000000 0.000000 0.043468 0.000000 0.014382
# 5 0.001363 0.004225 -0.007840 0.000000 0.038327 0.000000
# 6 0.000000 0.000000 0.000000 0.014382 0.000000 0.065605
#
#
# Mechanical properties :
#
#
# Convention : Reuss Voigt Hill
#
# Bulk Modulus (GPa) = 55.34162 64.89059 60.11611
# Shear Modulus (GPa) = 21.71866 26.46134 24.09000
#
# Velocity S-wave (km/s) = 3.32410 3.66914 3.50087
# Velocity P-wave (km/s) = 6.54895 7.13891 6.85028
#
# Compressibility (1/GPa) = 0.01806958
#
# Stress axis : x y z
#
# Youngs Moduli (GPa) = 64.90182 47.06382 92.79821
#
# Poissons Ratio (x) = 0.33746 0.46320
# Poissons Ratio (y) = 0.46537 0.23378
# Poissons Ratio (z) = 0.32396 0.11857
#
# Static dielectric constant tensor:
#      x y z
#    x 1.662780 0.000000 0.079290 
#    y 0.000000 1.714700 0.000000 
#    z 0.079290 0.000000 1.646440 
# 
# From -- ./inp_files/42248.got.cif
#   From: 2010.05.17/outbox.cif.g08.bks.cpg/sg15_22_cif.got.tgz:42248.got - 2010.06.03 18:47:42.
