data_PCOD9269462
_publ_section_title
;
Structure prediction by ZEFSAII (Michael W. Deem and Ramdas Pophale) SiO2 
 PCOD9269462
Probable space group: C 2/C
;
_chemical_formula_sum "Si O2"
_cell_formula_units_Z 52
_cell_length_a 9.032607
_cell_length_b 20.749437
_cell_length_c 26.308511
_cell_angle_alpha 90.000000
_cell_angle_beta 31.793750
_cell_angle_gamma 90.000000
_cell_volume 2597.846405
_symmetry_space_group_name_H-M "C 2/C"
_symmetry_group_IT_number 15
_symmetry_cell_setting 'monoclinic'
loop_
_space_group_symop_operation_xyz
x,y,z
-x,y,1/2-z
-x,-y,-z
x,-y,1/2+z
1/2+x,1/2+y,z
1/2-x,1/2+y,1/2-z
1/2-x,1/2-y,-z
1/2+x,1/2-y,1/2+z
loop_
_atom_site_type_symbol
_atom_site_label
_atom_site_fract_x
_atom_site_fract_y
_atom_site_fract_z
Si Si1 0.923652 0.784825 0.550558
Si Si2 0.500000 0.239984 0.750000
Si Si3 0.550962 0.250265 0.847580
Si Si4 0.104701 0.508674 0.663815
Si Si5 0.843310 0.910806 0.518879
Si Si6 0.903538 0.820818 0.415074
Si Si7 0.831893 0.111034 0.751271
O O1 0.962732 0.858759 0.523911
O O2 0.728148 0.744469 0.568777
O O3 0.221487 0.750462 0.455897
O O4 0.820681 0.781342 0.638901
O O5 0.572937 0.274433 0.782495
O O6 0.779482 0.196702 0.658007
O O7 0.672605 0.177712 0.811167
O O8 0.130139 0.453832 0.613387
O O9 0.411266 0.543439 0.575166
O O10 0.000000 0.486752 0.750000
O O11 0.886369 0.562030 0.708694
O O12 0.741060 0.863128 0.504044
O O13 0.943500 0.867505 0.355924
O O14 0.000000 0.084797 0.750000
#
# Coordination Sequence:
#
# PCOD9269462 Si02
#       7
#     8   4   8   8   8   8   8
#     4  11  21  37  61  96 126 153 200 255 321 369
#     4  10  20  34  56  86 126 166 196 238 290 386
#     4  10  21  35  58  95 125 153 197 256 303 371
#     4  11  23  43  65  85 119 167 218 254 293 372
#     4  11  22  39  67  91 120 164 210 259 307 358
#     4  11  20  37  64  92 123 159 204 252 311 376
#     4  11  20  39  65  87 118 166 205 250 302 377
#
# _framework density 20.016580000000001
#
# number of rings (size 3 to 8) (size 9 to 14) (size 15 to 20)
#    0.000    1.231    6.154    1.385    1.077    0.000 
#    5.538    0.769    8.462    0.000    0.000    0.000 
#    0.000    0.000    0.000    0.000    0.000    0.000 
#
# Total GULP energy -144912.703784 kJ/mol
# GULP energy per Si atom -5573.565530 kJ/mol
# Density = 1.997102 g / cm^3
# Si number density = 20.016580 Si / 1000 Ang^3
#
#
#
# Elastic Constant Matrix: (Units=GPa)
#
#
# Indices 1 2 3 4 5 6 
#
# 1 46.9164 -1.0165 23.0444 -0.1048 24.1934 0.0678
# 2 -1.0165 42.9532 30.2401 -0.0270 14.8393 0.1287
# 3 23.0444 30.2401 106.7145 -0.3588 31.5589 0.3104
# 4 -0.1048 -0.0270 -0.3588 22.7346 0.2666 3.2332
# 5 24.1934 14.8393 31.5589 0.2666 44.5166 -0.0734
# 6 0.0678 0.1287 0.3104 3.2332 -0.0734 8.6408
#
#
#
# Elastic Compliance Matrix: (Units=1/GPa)
#
#
# Indices 1 2 3 4 5 6 
#
# 1 0.033249 0.010414 -0.004753 0.000381 -0.018174 -0.000542
# 2 0.010414 0.033206 -0.008489 0.000138 -0.010712 -0.000414
# 3 -0.004753 -0.008489 0.014178 0.000318 -0.004641 -0.000504
# 4 0.000381 0.000138 0.000318 0.046479 -0.000785 -0.017415
# 5 -0.018174 -0.010712 -0.004641 -0.000785 0.039208 0.001096
# 6 -0.000542 -0.000414 -0.000504 -0.017415 0.001096 0.122285
#
#
# Mechanical properties :
#
#
# Convention : Reuss Voigt Hill
#
# Bulk Modulus (GPa) = 13.33766 33.45780 23.39773
# Shear Modulus (GPa) = 15.66160 24.79947 20.23053
#
# Velocity S-wave (km/s) = 2.80023 3.52369 3.18258
# Velocity P-wave (km/s) = 4.13918 5.77118 5.02192
#
# Compressibility (1/GPa) = 0.07497568
#
# Stress axis : x y z
#
# Youngs Moduli (GPa) = 30.07654 30.11491 70.53310
#
# Poissons Ratio (x) = -0.31361 0.33526
# Poissons Ratio (y) = -0.31321 0.59876
# Poissons Ratio (z) = 0.14296 0.25565
#
# Static dielectric constant tensor:
#      x y z
#    x 1.780050 0.000040 0.034250 
#    y 0.000040 1.683170 -0.000010 
#    z 0.034250 -0.000010 1.767670 
# 
# From -- ./inp_files/266048.got.cif
#   From: 2010.05.17/outbox.cif.g08.bks.cpg/sg15_134_cif.got.tgz:266048.got - 2010.06.03 18:47:42.
