data_PCOD9269141
_publ_section_title
;
Structure prediction by ZEFSAII (Michael W. Deem and Ramdas Pophale) SiO2 
 PCOD9269141
Probable space group: C 2/C
;
_chemical_formula_sum "Si O2"
_cell_formula_units_Z 44
_cell_length_a 8.298153
_cell_length_b 6.796065
_cell_length_c 29.918261
_cell_angle_alpha 90.000000
_cell_angle_beta 112.691278
_cell_angle_gamma 90.000000
_cell_volume 1556.636695
_symmetry_space_group_name_H-M "C 2/C"
_symmetry_group_IT_number 15
_symmetry_cell_setting 'monoclinic'
loop_
_space_group_symop_operation_xyz
x,y,z
-x,y,1/2-z
-x,-y,-z
x,-y,1/2+z
1/2+x,1/2+y,z
1/2-x,1/2+y,1/2-z
1/2-x,1/2-y,-z
1/2+x,1/2-y,1/2+z
loop_
_atom_site_type_symbol
_atom_site_label
_atom_site_fract_x
_atom_site_fract_y
_atom_site_fract_z
Si Si1 0.018207 0.859412 0.347333
Si Si2 0.584822 0.798781 0.380925
Si Si3 0.458770 0.248338 0.530058
Si Si4 0.003658 0.205577 0.560242
Si Si5 0.638102 0.129346 0.792812
Si Si6 0.500000 0.234440 0.250000
O O1 0.822175 0.778475 0.321605
O O2 0.004908 0.090466 0.357740
O O3 0.093565 0.771465 0.402244
O O4 0.072239 0.842894 0.301559
O O5 0.505403 0.867846 0.419821
O O6 0.789999 0.757637 0.411179
O O7 0.572235 0.930333 0.335351
O O8 0.250000 0.250000 0.500000
O O9 0.499128 0.473345 0.547547
O O10 0.551830 0.195970 0.492962
O O11 0.500000 0.252811 0.750000
O O12 0.652319 0.935361 0.763067
#
# Coordination Sequence:
#
# PCOD9269141 Si02
#       6
#     8   8   8   8   8   4
#     4  10  20  34  52  74 103 138 180 216 270 324
#     4   9  17  30  52  77 102 140 178 220 268 323
#     4   8  13  25  49  79 111 139 174 218 270 323
#     4   8  15  28  47  80 109 135 177 223 263 322
#     4   9  22  35  50  74 103 136 175 226 269 318
#     4  10  24  34  50  74 102 142 174 222 268 312
#
# _framework density 28.266069000000002
#
# number of rings (size 3 to 8) (size 9 to 14) (size 15 to 20)
#    0.545    2.545    0.000    0.000    3.818    1.455 
#    0.000    0.000    0.000    1.091    0.000  114.545 
#    0.000    0.000    0.000    0.000    0.000    0.000 
#
# Total GULP energy -122577.057834 kJ/mol
# GULP energy per Si atom -5571.684447 kJ/mol
# Density = 2.820173 g / cm^3
# Si number density = 28.266069 Si / 1000 Ang^3
#
#
#
# Elastic Constant Matrix: (Units=GPa)
#
#
# Indices 1 2 3 4 5 6 
#
# 1 66.7921 10.4918 24.1294 0.0000 -0.8785 0.0000
# 2 10.4918 63.7323 57.4114 0.0000 -8.9332 0.0000
# 3 24.1294 57.4114 247.8071 0.0000 -47.2054 0.0000
# 4 0.0000 0.0000 0.0000 55.7840 0.0000 -4.8631
# 5 -0.8785 -8.9332 -47.2054 0.0000 48.0761 0.0000
# 6 0.0000 0.0000 0.0000 -4.8631 0.0000 20.1455
#
#
#
# Elastic Compliance Matrix: (Units=1/GPa)
#
#
# Indices 1 2 3 4 5 6 
#
# 1 0.015711 -0.001471 -0.001459 0.000000 -0.001419 0.000000
# 2 -0.001471 0.020007 -0.004661 0.000000 -0.000886 0.000000
# 3 -0.001459 -0.004661 0.006258 0.000000 0.005252 0.000000
# 4 0.000000 0.000000 0.000000 0.018312 0.000000 0.004420
# 5 -0.001419 -0.000886 0.005252 0.000000 0.025766 0.000000
# 6 0.000000 0.000000 0.000000 0.004420 0.000000 0.050706
#
#
# Mechanical properties :
#
#
# Convention : Reuss Voigt Hill
#
# Bulk Modulus (GPa) = 37.32104 62.48852 49.90478
# Shear Modulus (GPa) = 31.08035 43.88772 37.48403
#
# Velocity S-wave (km/s) = 3.31956 3.94466 3.64554
# Velocity P-wave (km/s) = 5.28439 6.54999 5.95093
#
# Compressibility (1/GPa) = 0.02679454
#
# Stress axis : x y z
#
# Youngs Moduli (GPa) = 63.64792 49.98236 159.80339
#
# Poissons Ratio (x) = 0.07351 0.23323
# Poissons Ratio (y) = 0.09360 0.74479
# Poissons Ratio (z) = 0.09289 0.23295
#
# Static dielectric constant tensor:
#      x y z
#    x 2.344010 0.000000 -0.157500 
#    y 0.000000 2.304300 0.000000 
#    z -0.157500 0.000000 2.393920 
# 
# From -- ./inp_files/309542.got.cif
#   From: 2010.05.17/outbox.cif.g08.bks.cpg/sg15_155_cif.got.tgz:309542.got - 2010.06.03 18:47:42.
