data_PCOD9269419
_publ_section_title
;
Structure prediction by ZEFSAII (Michael W. Deem and Ramdas Pophale) SiO2 
 PCOD9269419
Probable space group: C 2/C
;
_chemical_formula_sum "Si O2"
_cell_formula_units_Z 48
_cell_length_a 11.090636
_cell_length_b 8.288979
_cell_length_c 21.261106
_cell_angle_alpha 90.000000
_cell_angle_beta 101.735610
_cell_angle_gamma 90.000000
_cell_volume 1913.678072
_symmetry_space_group_name_H-M "C 2/C"
_symmetry_group_IT_number 15
_symmetry_cell_setting 'monoclinic'
loop_
_space_group_symop_operation_xyz
x,y,z
-x,y,1/2-z
-x,-y,-z
x,-y,1/2+z
1/2+x,1/2+y,z
1/2-x,1/2+y,1/2-z
1/2-x,1/2-y,-z
1/2+x,1/2-y,1/2+z
loop_
_atom_site_type_symbol
_atom_site_label
_atom_site_fract_x
_atom_site_fract_y
_atom_site_fract_z
Si Si1 0.634502 0.868957 0.997936
Si Si2 0.035282 0.146568 0.080279
Si Si3 0.635070 0.189719 0.254357
Si Si4 0.770185 0.145590 0.065721
Si Si5 0.709947 0.977154 0.382889
Si Si6 0.106738 0.358773 0.208576
O O1 0.531394 0.757451 0.017467
O O2 0.750000 0.750000 0.000000
O O3 0.624228 0.961822 0.931203
O O4 0.672922 0.003023 0.053465
O O5 0.150008 0.027983 0.087363
O O6 0.066181 0.259790 0.143096
O O7 0.904727 0.064164 0.076068
O O8 0.500000 0.269821 0.250000
O O9 0.666659 0.077315 0.318262
O O10 0.754322 0.300714 0.259385
O O11 0.617013 0.051453 0.200051
O O12 0.784008 0.284061 0.119258
O O13 0.750000 0.250000 0.000000
O O14 0.000000 0.330473 0.250000
#
# Coordination Sequence:
#
# PCOD9269419 Si02
#       6
#     8   8   8   8   8   8
#     4   9  20  37  57  84 116 149 190 234 287 349
#     4  10  21  39  58  80 117 155 189 242 299 351
#     4  10  21  40  62  85 116 154 200 249 296 353
#     4  10  20  34  56  83 111 147 190 230 285 349
#     4   9  20  38  57  84 115 148 193 243 294 350
#     4  10  22  39  60  86 120 156 197 249 303 357
#
# _framework density 25.08259
#
# number of rings (size 3 to 8) (size 9 to 14) (size 15 to 20)
#    0.000    2.333    0.000    2.000    0.000   12.000 
#    0.000   15.000    0.000    0.000    0.000    0.000 
#    0.000    0.000    0.000    0.000    0.000    0.000 
#
# Total GULP energy -134160.519158 kJ/mol
# GULP energy per Si atom -5590.021632 kJ/mol
# Density = 2.502550 g / cm^3
# Si number density = 25.082590 Si / 1000 Ang^3
#
#
#
# Elastic Constant Matrix: (Units=GPa)
#
#
# Indices 1 2 3 4 5 6 
#
# 1 155.1657 39.3162 10.8439 0.0000 12.4486 0.0000
# 2 39.3162 61.5646 -3.7550 0.0000 -6.7322 0.0000
# 3 10.8439 -3.7550 57.2603 0.0000 -6.4960 0.0000
# 4 0.0000 0.0000 0.0000 25.5925 0.0000 2.8448
# 5 12.4486 -6.7322 -6.4960 0.0000 35.0479 0.0000
# 6 0.0000 0.0000 0.0000 2.8448 0.0000 40.8493
#
#
#
# Elastic Compliance Matrix: (Units=1/GPa)
#
#
# Indices 1 2 3 4 5 6 
#
# 1 0.008553 -0.006130 -0.002554 0.000000 -0.004689 0.000000
# 2 -0.006130 0.021109 0.003322 0.000000 0.006848 0.000000
# 3 -0.002554 0.003322 0.018735 0.000000 0.005018 0.000000
# 4 0.000000 0.000000 0.000000 0.039379 0.000000 -0.002742
# 5 -0.004689 0.006848 0.005018 0.000000 0.032443 0.000000
# 6 0.000000 0.000000 0.000000 -0.002742 0.000000 0.024671
#
#
# Mechanical properties :
#
#
# Convention : Reuss Voigt Hill
#
# Bulk Modulus (GPa) = 26.54399 40.75565 33.64982
# Shear Modulus (GPa) = 29.73157 35.47030 32.60094
#
# Velocity S-wave (km/s) = 3.44662 3.76459 3.60911
# Velocity P-wave (km/s) = 5.14243 5.93127 5.55088
#
# Compressibility (1/GPa) = 0.03767332
#
# Stress axis : x y z
#
# Youngs Moduli (GPa) = 116.92270 47.37206 53.37661
#
# Poissons Ratio (x) = 0.29041 0.13630
# Poissons Ratio (y) = 0.71678 -0.17732
# Poissons Ratio (z) = 0.29857 -0.15738
#
# Static dielectric constant tensor:
#      x y z
#    x 1.991950 0.000000 -0.004270 
#    y 0.000000 1.951600 0.000000 
#    z -0.004270 0.000000 2.047340 
# 
# From -- ./inp_files/267773.got.cif
#   From: 2010.05.17/outbox.cif.g08.bks.cpg/sg15_134_cif.got.tgz:267773.got - 2010.06.03 18:47:42.
