data_PCOD9269017
_publ_section_title
;
Structure prediction by ZEFSAII (Michael W. Deem and Ramdas Pophale) SiO2 
 PCOD9269017
Probable space group: C 2/C
;
_chemical_formula_sum "Si O2"
_cell_formula_units_Z 60
_cell_length_a 17.393478
_cell_length_b 19.108160
_cell_length_c 11.480349
_cell_angle_alpha 90.000000
_cell_angle_beta 56.889378
_cell_angle_gamma 90.000000
_cell_volume 3195.995169
_symmetry_space_group_name_H-M "C 2/C"
_symmetry_group_IT_number 15
_symmetry_cell_setting 'monoclinic'
loop_
_space_group_symop_operation_xyz
x,y,z
-x,y,1/2-z
-x,-y,-z
x,-y,1/2+z
1/2+x,1/2+y,z
1/2-x,1/2+y,1/2-z
1/2-x,1/2-y,-z
1/2+x,1/2-y,1/2+z
loop_
_atom_site_type_symbol
_atom_site_label
_atom_site_fract_x
_atom_site_fract_y
_atom_site_fract_z
Si Si1 0.308675 0.551934 0.794261
Si Si2 0.164653 0.727605 0.372005
Si Si3 0.723445 0.196225 0.920566
Si Si4 0.477328 0.228825 0.402629
Si Si5 0.775052 0.094647 0.343765
Si Si6 0.625719 0.378409 0.497196
Si Si7 0.000000 0.950764 0.250000
Si Si8 0.562506 0.622060 0.460043
O O1 0.276300 0.622508 0.885623
O O2 0.241792 0.485629 0.860903
O O3 0.324922 0.579397 0.649029
O O4 0.405329 0.524269 0.766981
O O5 0.239778 0.763241 0.224184
O O6 0.204223 0.658848 0.399487
O O7 0.136954 0.794534 0.472850
O O8 0.073744 0.705025 0.376246
O O9 0.750000 0.250000 0.000000
O O10 0.614329 0.182548 0.014779
O O11 0.500000 0.247767 0.250000
O O12 0.448018 0.296768 0.499938
O O13 0.831736 0.102684 0.415670
O O14 0.841509 0.104867 0.177378
O O15 0.518943 0.396039 0.563589
O O16 0.957320 0.913335 0.399723
#
# Coordination Sequence:
#
# PCOD9269017 Si02
#       8
#     8   8   8   8   8   8   4   8
#     4  10  25  36  58  88 121 156 194 254 301 360
#     4  10  22  37  59  87 117 161 199 248 295 358
#     4  11  20  37  62  90 121 154 195 250 310 348
#     4  11  19  35  61  94 119 147 204 263 291 342
#     4  12  23  37  59  84 120 164 201 237 306 369
#     4   9  22  40  53  82 124 155 200 244 293 357
#     4  10  20  36  54  84 128 146 190 246 304 360
#     4  10  20  33  60  88 115 158 195 243 304 359
#
# _framework density 18.773495
#
# number of rings (size 3 to 8) (size 9 to 14) (size 15 to 20)
#    0.000    1.600    3.333    2.400    3.733    1.067 
#    0.000    0.667    0.000    0.000    0.000    0.000 
#    0.000    0.000    0.000    0.000    0.000    0.000 
#
# Total GULP energy -167155.702758 kJ/mol
# GULP energy per Si atom -5571.856759 kJ/mol
# Density = 1.873077 g / cm^3
# Si number density = 18.773495 Si / 1000 Ang^3
#
#
#
# Elastic Constant Matrix: (Units=GPa)
#
#
# Indices 1 2 3 4 5 6 
#
# 1 89.2506 38.8972 33.4317 0.0000 4.8856 0.0000
# 2 38.8972 121.4909 22.7847 0.0000 5.1852 0.0000
# 3 33.4317 22.7847 55.4203 0.0000 -0.6139 0.0000
# 4 0.0000 0.0000 0.0000 19.9117 0.0000 -9.1345
# 5 4.8856 5.1852 -0.6139 0.0000 27.0044 0.0000
# 6 0.0000 0.0000 0.0000 -9.1345 0.0000 7.4288
#
#
#
# Elastic Compliance Matrix: (Units=1/GPa)
#
#
# Indices 1 2 3 4 5 6 
#
# 1 0.015916 -0.003454 -0.008208 0.000000 -0.002403 0.000000
# 2 -0.003454 0.009756 -0.001942 0.000000 -0.001293 0.000000
# 3 -0.008208 -0.001942 0.023820 0.000000 0.002399 0.000000
# 4 0.000000 0.000000 0.000000 0.115210 0.000000 0.141664
# 5 -0.002403 -0.001293 0.002399 0.000000 0.037768 0.000000
# 6 0.000000 0.000000 0.000000 0.141664 0.000000 0.308803
#
#
# Mechanical properties :
#
#
# Convention : Reuss Voigt Hill
#
# Bulk Modulus (GPa) = 44.87265 50.70986 47.79125
# Shear Modulus (GPa) = 9.15906 22.27220 15.71563
#
# Velocity S-wave (km/s) = 2.21118 3.44810 2.89644
# Velocity P-wave (km/s) = 5.52024 6.55153 6.05787
#
# Compressibility (1/GPa) = 0.02228529
#
# Stress axis : x y z
#
# Youngs Moduli (GPa) = 62.83158 102.49883 41.98157
#
# Poissons Ratio (x) = 0.35401 0.34457
# Poissons Ratio (y) = 0.21701 0.08152
# Poissons Ratio (z) = 0.51569 0.19904
#
# Static dielectric constant tensor:
#      x y z
#    x 2.447660 0.000000 0.472400 
#    y 0.000000 1.700170 0.000000 
#    z 0.472400 0.000000 1.958950 
# 
# From -- ./inp_files/106677.got.cif
#   From: 2010.05.17/outbox.cif.g08.bks.cpg/sg15_54_cif.got.tgz:106677.got - 2010.06.03 18:47:42.
