data_PCOD9269366
_publ_section_title
;
Structure prediction by ZEFSAII (Michael W. Deem and Ramdas Pophale) SiO2 
 PCOD9269366
Probable space group: C 2/C
;
_chemical_formula_sum "Si O2"
_cell_formula_units_Z 56
_cell_length_a 14.973252
_cell_length_b 25.494420
_cell_length_c 9.797903
_cell_angle_alpha 90.000000
_cell_angle_beta 124.683004
_cell_angle_gamma 90.000000
_cell_volume 3075.611634
_symmetry_space_group_name_H-M "C 2/C"
_symmetry_group_IT_number 15
_symmetry_cell_setting 'monoclinic'
loop_
_space_group_symop_operation_xyz
x,y,z
-x,y,1/2-z
-x,-y,-z
x,-y,1/2+z
1/2+x,1/2+y,z
1/2-x,1/2+y,1/2-z
1/2-x,1/2-y,-z
1/2+x,1/2-y,1/2+z
loop_
_atom_site_type_symbol
_atom_site_label
_atom_site_fract_x
_atom_site_fract_y
_atom_site_fract_z
Si Si1 0.528861 0.949877 0.116635
Si Si2 0.532301 0.857782 0.627196
Si Si3 0.373303 0.415054 0.094306
Si Si4 0.730205 0.317437 0.605364
Si Si5 0.762808 0.100751 0.786674
Si Si6 0.185301 0.295678 0.121919
Si Si7 0.074695 0.976291 0.944997
O O1 0.500000 0.957075 0.250000
O O2 0.654549 0.932630 0.217427
O O3 0.468161 0.901497 0.989739
O O4 0.500000 0.000000 0.000000
O O5 0.500000 0.879933 0.750000
O O6 0.649965 0.832200 0.740070
O O7 0.436548 0.816299 0.512052
O O8 0.500000 0.412449 0.250000
O O9 0.299392 0.407277 0.162349
O O10 0.349992 0.473564 0.022035
O O11 0.345123 0.369088 0.963370
O O12 0.745884 0.302856 0.458517
O O13 0.687438 0.266465 0.647640
O O14 0.735847 0.162807 0.773417
O O15 0.858666 0.074875 0.956571
O O16 0.000000 0.965911 0.750000
O O17 0.000000 0.000000 0.000000
#
# Coordination Sequence:
#
# PCOD9269366 Si02
#       7
#     8   8   8   8   8   8   8
#     4  11  25  38  57  83 109 149 192 232 281 341
#     4   9  18  36  55  82 115 143 186 234 279 337
#     4  10  20  34  55  88 119 146 189 235 283 342
#     4   9  17  30  57  83 112 145 184 233 284 326
#     4  10  21  38  57  79 121 148 183 239 286 331
#     4   8  17  32  53  84 111 147 182 233 281 330
#     4  11  21  37  56  83 116 153 186 231 282 342
#
# _framework density 18.20776
#
# number of rings (size 3 to 8) (size 9 to 14) (size 15 to 20)
#    0.000    2.286    2.857    1.286    4.000    4.000 
#    0.000    0.000    0.000    4.286    0.000    0.000 
#    0.000    0.000    0.000    0.000    0.000    0.000 
#
# Total GULP energy -155972.390426 kJ/mol
# GULP energy per Si atom -5570.442515 kJ/mol
# Density = 1.816632 g / cm^3
# Si number density = 18.207760 Si / 1000 Ang^3
#
#
#
# Elastic Constant Matrix: (Units=GPa)
#
#
# Indices 1 2 3 4 5 6 
#
# 1 59.5508 25.7883 25.4472 0.0000 -6.7259 0.0000
# 2 25.7883 137.3978 68.5998 0.0000 6.1881 0.0000
# 3 25.4472 68.5998 97.7858 0.0000 -1.3960 0.0000
# 4 0.0000 0.0000 0.0000 13.2120 0.0000 -4.1370
# 5 -6.7259 6.1881 -1.3960 0.0000 22.2382 0.0000
# 6 0.0000 0.0000 0.0000 -4.1370 0.0000 16.7592
#
#
#
# Elastic Compliance Matrix: (Units=1/GPa)
#
#
# Indices 1 2 3 4 5 6 
#
# 1 0.020016 -0.002299 -0.003504 0.000000 0.006474 0.000000
# 2 -0.002299 0.011764 -0.007718 0.000000 -0.004453 0.000000
# 3 -0.003504 -0.007718 0.016583 0.000000 0.002129 0.000000
# 4 0.000000 0.000000 0.000000 0.082029 0.000000 0.020249
# 5 0.006474 -0.004453 0.002129 0.000000 0.048298 0.000000
# 6 0.000000 0.000000 0.000000 0.020249 0.000000 0.064667
#
#
# Mechanical properties :
#
#
# Convention : Reuss Voigt Hill
#
# Bulk Modulus (GPa) = 46.90053 59.37832 53.13943
# Shear Modulus (GPa) = 18.01766 22.10183 20.05974
#
# Velocity S-wave (km/s) = 3.14914 3.48784 3.32281
# Velocity P-wave (km/s) = 6.24798 6.99302 6.63097
#
# Compressibility (1/GPa) = 0.02132172
#
# Stress axis : x y z
#
# Youngs Moduli (GPa) = 49.95916 85.00844 60.30343
#
# Poissons Ratio (x) = 0.19545 0.21128
# Poissons Ratio (y) = 0.11487 0.46541
# Poissons Ratio (z) = 0.17503 0.65607
#
# Static dielectric constant tensor:
#      x y z
#    x 1.632390 0.000000 -0.003300 
#    y 0.000000 1.672550 0.000000 
#    z -0.003300 0.000000 1.624110 
# 
# From -- ./inp_files/42516.got.cif
#   From: 2010.05.17/outbox.cif.g08.bks.cpg/sg15_22_cif.got.tgz:42516.got - 2010.06.03 18:47:42.
