data_PCOD9269085
_publ_section_title
;
Structure prediction by ZEFSAII (Michael W. Deem and Ramdas Pophale) SiO2 
 PCOD9269085
Probable space group: C 2/C
;
_chemical_formula_sum "Si O2"
_cell_formula_units_Z 64
_cell_length_a 18.611855
_cell_length_b 24.463852
_cell_length_c 8.753918
_cell_angle_alpha 90.000000
_cell_angle_beta 117.420355
_cell_angle_gamma 90.000000
_cell_volume 3538.014690
_symmetry_space_group_name_H-M "C 2/C"
_symmetry_group_IT_number 15
_symmetry_cell_setting 'monoclinic'
loop_
_space_group_symop_operation_xyz
x,y,z
-x,y,1/2-z
-x,-y,-z
x,-y,1/2+z
1/2+x,1/2+y,z
1/2-x,1/2+y,1/2-z
1/2-x,1/2-y,-z
1/2+x,1/2-y,1/2+z
loop_
_atom_site_type_symbol
_atom_site_label
_atom_site_fract_x
_atom_site_fract_y
_atom_site_fract_z
Si Si1 0.021701 0.589976 0.948108
Si Si2 0.828501 0.282180 0.020616
Si Si3 0.228645 0.858196 0.727590
Si Si4 0.357420 0.065305 0.944887
Si Si5 0.950715 0.289635 0.897763
Si Si6 0.682946 0.038716 0.245409
Si Si7 0.173784 0.679408 0.470935
Si Si8 0.612927 0.736699 0.122603
O O1 0.000000 0.581741 0.750000
O O2 0.950487 0.565101 0.982985
O O3 0.026302 0.654767 0.989514
O O4 0.106378 0.562227 0.075376
O O5 0.886625 0.271965 0.220696
O O6 0.750000 0.250000 0.000000
O O7 0.790397 0.338781 0.922384
O O8 0.877632 0.261833 0.921240
O O9 0.240288 0.923027 0.720639
O O10 0.263374 0.835534 0.599677
O O11 0.145261 0.825118 0.674356
O O12 0.308701 0.024319 0.789257
O O13 0.342303 0.046408 0.103518
O O14 0.331024 0.128395 0.919452
O O15 0.910733 0.312878 0.703994
O O16 0.024451 0.247236 0.966574
O O17 0.178388 0.733329 0.576887
#
# Coordination Sequence:
#
# PCOD9269085 Si02
#       8
#     8   8   8   8   8   8   8   8
#     4  12  21  32  49  70 100 135 181 212 257 297
#     4   9  18  32  47  69  99 134 172 208 251 304
#     4   9  20  35  47  68 100 137 172 219 258 301
#     4  11  22  34  48  70  93 139 175 224 247 302
#     4  11  20  32  50  72 106 138 173 213 256 302
#     4  11  22  36  50  66 106 133 185 215 259 307
#     4  10  20  34  49  70 103 132 176 215 257 307
#     4  11  19  29  53  72  94 139 178 209 260 308
#
# _framework density 18.089241000000001
#
# number of rings (size 3 to 8) (size 9 to 14) (size 15 to 20)
#    0.000    1.500    5.000    3.375    0.000    1.000 
#    0.000    0.000    0.000    0.000    0.000    0.000 
#    0.000    0.000    0.000  236.250    0.000    0.250 
#
# Total GULP energy -178247.261047 kJ/mol
# GULP energy per Si atom -5570.226908 kJ/mol
# Density = 1.804807 g / cm^3
# Si number density = 18.089241 Si / 1000 Ang^3
#
#
#
# Elastic Constant Matrix: (Units=GPa)
#
#
# Indices 1 2 3 4 5 6 
#
# 1 52.5056 34.0964 3.5068 0.0000 1.7398 0.0000
# 2 34.0964 84.3525 14.3554 0.0000 5.2900 0.0000
# 3 3.5068 14.3554 27.1673 0.0000 -10.6897 0.0000
# 4 0.0000 0.0000 0.0000 22.4587 0.0000 -0.0550
# 5 1.7398 5.2900 -10.6897 0.0000 22.3999 0.0000
# 6 0.0000 0.0000 0.0000 -0.0550 0.0000 21.2597
#
#
#
# Elastic Compliance Matrix: (Units=1/GPa)
#
#
# Indices 1 2 3 4 5 6 
#
# 1 0.026056 -0.011273 0.003502 0.000000 0.002310 0.000000
# 2 -0.011273 0.019124 -0.012414 0.000000 -0.009565 0.000000
# 3 0.003502 -0.012414 0.054127 0.000000 0.028490 0.000000
# 4 0.000000 0.000000 0.000000 0.044526 0.000000 0.000115
# 5 0.002310 -0.009565 0.028490 0.000000 0.060319 0.000000
# 6 0.000000 0.000000 0.000000 0.000115 0.000000 0.047038
#
#
# Mechanical properties :
#
#
# Convention : Reuss Voigt Hill
#
# Bulk Modulus (GPa) = 16.96714 29.77140 23.36927
# Shear Modulus (GPa) = 16.06665 20.69478 18.38071
#
# Velocity S-wave (km/s) = 2.98348 3.38603 3.19111
# Velocity P-wave (km/s) = 4.61175 5.63744 5.15020
#
# Compressibility (1/GPa) = 0.05893744
#
# Stress axis : x y z
#
# Youngs Moduli (GPa) = 38.37947 52.28989 18.47522
#
# Poissons Ratio (x) = 0.58946 -0.06471
# Poissons Ratio (y) = 0.43265 0.22935
# Poissons Ratio (z) = -0.13442 0.64912
#
# Static dielectric constant tensor:
#      x y z
#    x 1.664880 0.000000 -0.021890 
#    y 0.000000 1.643450 0.000000 
#    z -0.021890 0.000000 1.670390 
# 
# From -- ./inp_files/58481.got.cif
#   From: 2010.05.17/outbox.cif.g08.bks.cpg/sg15_30_cif.got.tgz:58481.got - 2010.06.03 18:47:42.
