data_PCOD9269189
_publ_section_title
;
Structure prediction by ZEFSAII (Michael W. Deem and Ramdas Pophale) SiO2 
 PCOD9269189
Probable space group: C 2/C
;
_chemical_formula_sum "Si O2"
_cell_formula_units_Z 48
_cell_length_a 10.941128
_cell_length_b 25.752819
_cell_length_c 14.088755
_cell_angle_alpha 90.000000
_cell_angle_beta 147.542879
_cell_angle_gamma 90.000000
_cell_volume 2130.420924
_symmetry_space_group_name_H-M "C 2/C"
_symmetry_group_IT_number 15
_symmetry_cell_setting 'monoclinic'
loop_
_space_group_symop_operation_xyz
x,y,z
-x,y,1/2-z
-x,-y,-z
x,-y,1/2+z
1/2+x,1/2+y,z
1/2-x,1/2+y,1/2-z
1/2-x,1/2-y,-z
1/2+x,1/2-y,1/2+z
loop_
_atom_site_type_symbol
_atom_site_label
_atom_site_fract_x
_atom_site_fract_y
_atom_site_fract_z
Si Si1 0.546840 0.427785 0.575375
Si Si2 0.000000 0.902331 0.750000
Si Si3 0.270157 0.954952 0.438677
Si Si4 0.140452 0.473663 0.221472
Si Si5 0.500000 0.225563 0.750000
Si Si6 0.454853 0.146625 0.324516
Si Si7 0.625652 0.815114 0.522580
O O1 0.530367 0.434603 0.676481
O O2 0.291814 0.428821 0.368266
O O3 0.706340 0.475902 0.650768
O O4 0.696782 0.376596 0.654743
O O5 0.217931 0.865032 0.895203
O O6 0.357317 0.958085 0.387584
O O7 0.373079 0.902551 0.551852
O O8 0.000000 0.953706 0.250000
O O9 0.386470 0.003988 0.569209
O O10 0.519779 0.191634 0.667723
O O11 0.286497 0.264524 0.621220
O O12 0.500000 0.170921 0.250000
O O13 0.473636 0.178467 0.436040
#
# Coordination Sequence:
#
# PCOD9269189 Si02
#       7
#     8   4   8   8   4   8   8
#     4   9  18  34  53  78 110 150 203 255 304 344
#     4   9  18  32  56  86 116 142 186 256 292 348
#     4  10  20  34  53  76 110 156 206 256 304 347
#     4   9  19  34  52  76 106 151 209 257 305 348
#     4   9  18  38  64  90 118 148 178 240 304 366
#     4  10  20  36  56  82 118 160 197 243 297 366
#     4   9  19  36  61  89 116 149 187 233 304 365
#
# _framework density 22.530757999999999
#
# number of rings (size 3 to 8) (size 9 to 14) (size 15 to 20)
#    0.000    2.667    0.000    1.000    1.167    1.333 
#    0.000    4.167    0.000    0.000    0.000    0.000 
#    0.000    0.000    0.000    0.000    0.000    0.000 
#
# Total GULP energy -133817.653473 kJ/mol
# GULP energy per Si atom -5575.735561 kJ/mol
# Density = 2.247948 g / cm^3
# Si number density = 22.530758 Si / 1000 Ang^3
#
#
#
# Elastic Constant Matrix: (Units=GPa)
#
#
# Indices 1 2 3 4 5 6 
#
# 1 152.3747 25.7649 36.7910 0.0000 -24.3419 0.0000
# 2 25.7649 40.5058 30.0710 0.0000 -2.0407 0.0000
# 3 36.7910 30.0710 129.0172 0.0000 3.3160 0.0000
# 4 0.0000 0.0000 0.0000 74.6209 0.0000 6.5361
# 5 -24.3419 -2.0407 3.3160 0.0000 37.4729 0.0000
# 6 0.0000 0.0000 0.0000 6.5361 0.0000 25.8501
#
#
#
# Elastic Compliance Matrix: (Units=1/GPa)
#
#
# Indices 1 2 3 4 5 6 
#
# 1 0.008492 -0.003900 -0.001653 0.000000 0.005450 0.000000
# 2 -0.003900 0.031835 -0.006302 0.000000 -0.000242 0.000000
# 3 -0.001653 -0.006302 0.009750 0.000000 -0.002279 0.000000
# 4 0.000000 0.000000 0.000000 0.013705 0.000000 -0.003465
# 5 0.005450 -0.000242 -0.002279 0.000000 0.030415 0.000000
# 6 0.000000 0.000000 0.000000 -0.003465 0.000000 0.039561
#
#
# Mechanical properties :
#
#
# Convention : Reuss Voigt Hill
#
# Bulk Modulus (GPa) = 37.92544 56.35014 47.13779
# Shear Modulus (GPa) = 30.07452 42.87351 36.47401
#
# Velocity S-wave (km/s) = 3.65748 4.36694 4.02786
# Velocity P-wave (km/s) = 5.89114 7.10574 6.52675
#
# Compressibility (1/GPa) = 0.02636752
#
# Stress axis : x y z
#
# Youngs Moduli (GPa) = 117.75915 31.41240 102.56915
#
# Poissons Ratio (x) = 0.12251 0.16951
# Poissons Ratio (y) = 0.45926 0.64634
# Poissons Ratio (z) = 0.19461 0.19795
#
# Static dielectric constant tensor:
#      x y z
#    x 1.861200 0.000000 -0.010060 
#    y 0.000000 1.835490 0.000000 
#    z -0.010060 0.000000 1.926470 
# 
# From -- ./inp_files/148880.got.cif
#   From: 2010.05.17/outbox.cif.g08.bks.cpg/sg15_75_cif.got.tgz:148880.got - 2010.06.03 18:47:42.
