data_PCOD9269887
_publ_section_title
;
Structure prediction by ZEFSAII (Michael W. Deem and Ramdas Pophale) SiO2 
 PCOD9269887
Probable space group: C 2/C
;
_chemical_formula_sum "Si O2"
_cell_formula_units_Z 48
_cell_length_a 8.880697
_cell_length_b 28.038885
_cell_length_c 15.898955
_cell_angle_alpha 90.000000
_cell_angle_beta 145.009034
_cell_angle_gamma 90.000000
_cell_volume 2270.230022
_symmetry_space_group_name_H-M "C 2/C"
_symmetry_group_IT_number 15
_symmetry_cell_setting 'monoclinic'
loop_
_space_group_symop_operation_xyz
x,y,z
-x,y,1/2-z
-x,-y,-z
x,-y,1/2+z
1/2+x,1/2+y,z
1/2-x,1/2+y,1/2-z
1/2-x,1/2-y,-z
1/2+x,1/2-y,1/2+z
loop_
_atom_site_type_symbol
_atom_site_label
_atom_site_fract_x
_atom_site_fract_y
_atom_site_fract_z
Si Si1 0.131902 0.810365 0.655791
Si Si2 0.273776 0.495311 0.825769
Si Si3 0.531089 0.588273 0.666844
Si Si4 0.500000 0.271004 0.250000
Si Si5 0.500000 0.740107 0.250000
Si Si6 0.409919 0.318781 0.378650
Si Si7 0.052008 0.399376 0.675506
O O1 0.275980 0.764658 0.680353
O O2 0.318734 0.848609 0.788367
O O3 0.936733 0.791532 0.638780
O O4 0.028644 0.833952 0.523062
O O5 0.333134 0.538592 0.791176
O O6 0.244832 0.445333 0.761745
O O7 0.000000 0.500940 0.750000
O O8 0.500000 0.500000 0.000000
O O9 0.500000 0.595668 0.750000
O O10 0.702110 0.631658 0.707100
O O11 0.232021 0.590747 0.494566
O O12 0.568519 0.300223 0.367333
O O13 0.727997 0.775204 0.323477
O O14 0.000000 0.393974 0.750000
#
# Coordination Sequence:
#
# PCOD9269887 Si02
#       7
#     8   8   8   4   4   8   8
#     4  11  20  41  65  91 128 173 221 280 331 413
#     4  11  22  44  73 101 134 179 230 279 346 412
#     4  12  25  44  68 103 136 173 230 285 344 411
#     4  10  20  34  64  92 116 168 220 272 332 392
#     4  10  26  38  56 102 134 172 228 280 352 394
#     4  11  21  40  60  92 131 173 218 279 335 406
#     4  11  21  43  71  94 126 182 229 271 342 420
#
# _framework density 21.143232000000001
#
# number of rings (size 3 to 8) (size 9 to 14) (size 15 to 20)
#    0.000    1.000    6.667    1.000    1.167    2.000 
#    4.500    0.000    0.000    0.000    0.000    0.000 
#    0.000    0.000    0.000    0.000    0.000    0.000 
#
# Total GULP energy -133641.274883 kJ/mol
# GULP energy per Si atom -5568.386453 kJ/mol
# Density = 2.109511 g / cm^3
# Si number density = 21.143232 Si / 1000 Ang^3
#
#
#
# Elastic Constant Matrix: (Units=GPa)
#
#
# Indices 1 2 3 4 5 6 
#
# 1 104.6784 42.8375 36.8232 0.0000 -24.3192 0.0000
# 2 42.8375 114.3956 9.1213 0.0000 -3.7508 0.0000
# 3 36.8232 9.1213 82.9908 0.0000 -8.2875 0.0000
# 4 0.0000 0.0000 0.0000 32.4931 0.0000 1.9959
# 5 -24.3192 -3.7508 -8.2875 0.0000 30.4471 0.0000
# 6 0.0000 0.0000 0.0000 1.9959 0.0000 47.5486
#
#
#
# Elastic Compliance Matrix: (Units=1/GPa)
#
#
# Indices 1 2 3 4 5 6 
#
# 1 0.016135 -0.005251 -0.005510 0.000000 0.010741 0.000000
# 2 -0.005251 0.010549 0.000906 0.000000 -0.002648 0.000000
# 3 -0.005510 0.000906 0.014356 0.000000 -0.000381 0.000000
# 4 0.000000 0.000000 0.000000 0.030855 0.000000 -0.001295
# 5 0.010741 -0.002648 -0.000381 0.000000 0.040993 0.000000
# 6 0.000000 0.000000 0.000000 -0.001295 0.000000 0.021085
#
#
# Mechanical properties :
#
#
# Convention : Reuss Voigt Hill
#
# Bulk Modulus (GPa) = 46.87795 53.29209 50.08502
# Shear Modulus (GPa) = 31.09568 36.31664 33.70616
#
# Velocity S-wave (km/s) = 3.83915 4.14895 3.99705
# Velocity P-wave (km/s) = 6.47085 6.94346 6.71132
#
# Compressibility (1/GPa) = 0.02133199
#
# Stress axis : x y z
#
# Youngs Moduli (GPa) = 61.97555 94.79787 69.65495
#
# Poissons Ratio (x) = 0.49775 0.38377
# Poissons Ratio (y) = 0.32541 -0.06310
# Poissons Ratio (z) = 0.34146 -0.08588
#
# Static dielectric constant tensor:
#      x y z
#    x 1.732870 0.000000 0.024790 
#    y 0.000000 1.852710 0.000000 
#    z 0.024790 0.000000 1.861650 
# 
# From -- ./inp_files/139072.got.cif
#   From: 2010.05.17/outbox.cif.g08.bks.cpg/sg15_70_cif.got.tgz:139072.got - 2010.06.03 18:47:42.
