data_PCOD9269301
_publ_section_title
;
Structure prediction by ZEFSAII (Michael W. Deem and Ramdas Pophale) SiO2 
 PCOD9269301
Probable space group: C 2/C
;
_chemical_formula_sum "Si O2"
_cell_formula_units_Z 48
_cell_length_a 33.034211
_cell_length_b 11.798731
_cell_length_c 10.112383
_cell_angle_alpha 90.000000
_cell_angle_beta 153.371775
_cell_angle_gamma 90.000000
_cell_volume 1766.542647
_symmetry_space_group_name_H-M "C 2/C"
_symmetry_group_IT_number 15
_symmetry_cell_setting 'monoclinic'
loop_
_space_group_symop_operation_xyz
x,y,z
-x,y,1/2-z
-x,-y,-z
x,-y,1/2+z
1/2+x,1/2+y,z
1/2-x,1/2+y,1/2-z
1/2-x,1/2-y,-z
1/2+x,1/2-y,1/2+z
loop_
_atom_site_type_symbol
_atom_site_label
_atom_site_fract_x
_atom_site_fract_y
_atom_site_fract_z
Si Si1 0.820766 0.328132 0.352646
Si Si2 0.500000 0.223265 0.750000
Si Si3 0.056315 0.052282 0.047813
Si Si4 0.272913 0.503281 0.581540
Si Si5 0.403461 0.957347 0.822010
Si Si6 0.500000 0.837751 0.750000
Si Si7 0.654275 0.322423 0.023908
O O1 0.858897 0.437342 0.549154
O O2 0.914745 0.276769 0.573839
O O3 0.761487 0.376879 0.056557
O O4 0.749679 0.270537 0.248454
O O5 0.472202 0.142757 0.548527
O O6 0.588907 0.284292 0.951798
O O7 0.091758 0.169642 0.212282
O O8 0.146354 0.979824 0.283363
O O9 0.000000 0.056643 0.750000
O O10 0.000000 0.000000 0.000000
O O11 0.177506 0.565721 0.309205
O O12 0.316642 0.550240 0.843933
O O13 0.450221 0.074364 0.001095
#
# Coordination Sequence:
#
# PCOD9269301 Si02
#       7
#     8   4   8   8   8   4   8
#     4   9  18  31  55  85 117 142 191 249 307 347
#     4  11  22  38  58  80 122 163 214 230 272 367
#     4  11  19  32  57  90 124 150 188 249 314 359
#     4   9  18  33  53  89 118 138 190 251 309 346
#     4   9  19  34  56  85 112 157 197 246 294 345
#     4   9  16  32  56  84 114 143 188 252 316 351
#     4  10  20  34  54  87 120 156 192 238 296 354
#
# _framework density 27.171719
#
# number of rings (size 3 to 8) (size 9 to 14) (size 15 to 20)
#    0.000    2.333    1.667    1.500    0.000    2.667 
#    0.000    0.000    1.833    1.000    0.000    0.000 
#    0.000    0.000    0.000    0.000    0.000    0.000 
#
# Total GULP energy -133626.805241 kJ/mol
# GULP energy per Si atom -5567.783552 kJ/mol
# Density = 2.710987 g / cm^3
# Si number density = 27.171719 Si / 1000 Ang^3
#
#
#
# Elastic Constant Matrix: (Units=GPa)
#
#
# Indices 1 2 3 4 5 6 
#
# 1 220.6375 35.9643 81.8945 0.0000 53.0651 0.0000
# 2 35.9643 59.9037 36.5520 0.0000 4.1568 0.0000
# 3 81.8945 36.5520 120.2111 0.0000 23.8500 0.0000
# 4 0.0000 0.0000 0.0000 26.7829 0.0000 5.7678
# 5 53.0651 4.1568 23.8500 0.0000 85.7320 0.0000
# 6 0.0000 0.0000 0.0000 5.7678 0.0000 28.3411
#
#
#
# Elastic Compliance Matrix: (Units=1/GPa)
#
#
# Indices 1 2 3 4 5 6 
#
# 1 0.006901 -0.001768 -0.003528 0.000000 -0.003204 0.000000
# 2 -0.001768 0.020999 -0.005499 0.000000 0.001606 0.000000
# 3 -0.003528 -0.005499 0.012604 0.000000 -0.001056 0.000000
# 4 0.000000 0.000000 0.000000 0.039049 0.000000 -0.007947
# 5 -0.003204 0.001606 -0.001056 0.000000 0.013863 0.000000
# 6 0.000000 0.000000 0.000000 -0.007947 0.000000 0.036902
#
#
# Mechanical properties :
#
#
# Convention : Reuss Voigt Hill
#
# Bulk Modulus (GPa) = 52.87308 78.84153 65.85731
# Shear Modulus (GPa) = 31.60330 44.59395 38.09862
#
# Velocity S-wave (km/s) = 3.41412 4.05556 3.74858
# Velocity P-wave (km/s) = 5.91969 7.14206 6.55941
#
# Compressibility (1/GPa) = 0.01891322
#
# Stress axis : x y z
#
# Youngs Moduli (GPa) = 144.91691 47.62134 79.34215
#
# Poissons Ratio (x) = 0.08419 0.27990
# Poissons Ratio (y) = 0.25621 0.43632
# Poissons Ratio (z) = 0.51123 0.26188
#
# Static dielectric constant tensor:
#      x y z
#    x 2.142800 0.000000 0.022710 
#    y 0.000000 2.181270 0.000000 
#    z 0.022710 0.000000 2.139880 
# 
# From -- ./inp_files/70657.got.cif
#   From: 2010.05.17/outbox.cif.g08.bks.cpg/sg15_36_cif.got.tgz:70657.got - 2010.06.03 18:47:42.
