data_PCOD9269318
_publ_section_title
;
Structure prediction by ZEFSAII (Michael W. Deem and Ramdas Pophale) SiO2 
 PCOD9269318
Probable space group: C 2/C
;
_chemical_formula_sum "Si O2"
_cell_formula_units_Z 64
_cell_length_a 18.733727
_cell_length_b 13.436115
_cell_length_c 31.747544
_cell_angle_alpha 90.000000
_cell_angle_beta 29.290417
_cell_angle_gamma 90.000000
_cell_volume 3909.551704
_symmetry_space_group_name_H-M "C 2/C"
_symmetry_group_IT_number 15
_symmetry_cell_setting 'monoclinic'
loop_
_space_group_symop_operation_xyz
x,y,z
-x,y,1/2-z
-x,-y,-z
x,-y,1/2+z
1/2+x,1/2+y,z
1/2-x,1/2+y,1/2-z
1/2-x,1/2-y,-z
1/2+x,1/2-y,1/2+z
loop_
_atom_site_type_symbol
_atom_site_label
_atom_site_fract_x
_atom_site_fract_y
_atom_site_fract_z
Si Si1 0.699734 0.533380 0.703854
Si Si2 0.509049 0.227597 0.421746
Si Si3 0.734673 0.881467 0.415508
Si Si4 0.566690 0.399868 0.104341
Si Si5 0.363246 0.256529 0.878724
Si Si6 0.686978 0.701759 0.192053
Si Si7 0.013037 0.502795 0.074915
Si Si8 0.751463 0.090191 0.506272
O O1 0.683447 0.598554 0.669856
O O2 0.586449 0.565199 0.797605
O O3 0.676349 0.416782 0.705954
O O4 0.865689 0.544389 0.634156
O O5 0.382232 0.208124 0.521896
O O6 0.459699 0.310212 0.414233
O O7 0.666275 0.242830 0.361922
O O8 0.517086 0.117474 0.396141
O O9 0.835748 0.872473 0.404736
O O10 0.904919 0.443205 0.431531
O O11 0.650696 0.491949 0.039245
O O12 0.310428 0.284471 0.859409
O O13 0.538727 0.248439 0.785591
O O14 0.280792 0.158201 0.937089
O O15 0.325654 0.341761 0.932044
O O16 0.132142 0.520916 0.976488
#
# Coordination Sequence:
#
# PCOD9269318 Si02
#       8
#     8   8   8   8   8   8   8   8
#     4  11  19  31  56  82 106 135 182 229 272 306
#     4   9  21  34  53  78 109 143 177 218 271 318
#     4   9  19  31  52  79 108 136 173 218 275 313
#     4  11  20  34  54  81 109 143 178 222 266 323
#     4  10  21  34  54  80 111 134 178 222 271 317
#     4  10  20  35  54  79 109 137 178 231 266 312
#     4   8  19  32  53  76 107 136 175 217 267 318
#     4  10  20  34  55  79 105 145 173 217 270 324
#
# _framework density 16.370163000000002
#
# number of rings (size 3 to 8) (size 9 to 14) (size 15 to 20)
#    0.750    1.500    1.250    2.625    5.250    0.000 
#    0.000    0.625    0.000    3.000    0.000    0.000 
#    0.000    0.000    0.000    0.000    0.000    0.000 
#
# Total GULP energy -178176.654925 kJ/mol
# GULP energy per Si atom -5568.020466 kJ/mol
# Density = 1.633290 g / cm^3
# Si number density = 16.370163 Si / 1000 Ang^3
#
#
#
# Elastic Constant Matrix: (Units=GPa)
#
#
# Indices 1 2 3 4 5 6 
#
# 1 38.4840 23.0374 28.4330 0.0004 -5.9439 0.0001
# 2 23.0374 56.4800 21.2416 0.0001 9.7478 0.0000
# 3 28.4330 21.2416 66.6733 -0.0012 1.1762 0.0004
# 4 0.0004 0.0001 -0.0012 20.8943 0.0001 2.1105
# 5 -5.9439 9.7478 1.1762 0.0001 21.9249 -0.0001
# 6 0.0001 0.0000 0.0004 2.1105 -0.0001 26.0596
#
#
#
# Elastic Compliance Matrix: (Units=1/GPa)
#
#
# Indices 1 2 3 4 5 6 
#
# 1 0.054548 -0.019977 -0.017332 -0.000002 0.024600 0.000000
# 2 -0.019977 0.029197 -0.000459 0.000000 -0.018372 0.000000
# 3 -0.017332 -0.000459 0.022637 0.000002 -0.005709 -0.000001
# 4 -0.000002 0.000000 0.000002 0.048255 -0.000001 -0.003908
# 5 0.024600 -0.018372 -0.005709 -0.000001 0.060754 0.000000
# 6 0.000000 0.000000 -0.000001 -0.003908 0.000000 0.038690
#
#
# Mechanical properties :
#
#
# Convention : Reuss Voigt Hill
#
# Bulk Modulus (GPa) = 32.41779 34.11793 33.26786
# Shear Modulus (GPa) = 14.71035 19.70409 17.20722
#
# Velocity S-wave (km/s) = 3.00093 3.47314 3.24564
# Velocity P-wave (km/s) = 5.64388 6.08033 5.86617
#
# Compressibility (1/GPa) = 0.03084726
#
# Stress axis : x y z
#
# Youngs Moduli (GPa) = 18.33248 34.25021 44.17641
#
# Poissons Ratio (x) = 0.68421 0.76565
# Poissons Ratio (y) = 0.36622 0.02026
# Poissons Ratio (z) = 0.31773 0.01571
#
# Static dielectric constant tensor:
#      x y z
#    x 1.545000 0.000000 -0.017040 
#    y 0.000000 1.544460 0.000000 
#    z -0.017040 0.000000 1.574390 
# 
# From -- ./inp_files/316164.got.cif
#   From: 2010.05.17/outbox.cif.g08.bks.cpg/sg15_159_cif.got.tgz:316164.got - 2010.06.03 18:47:42.
