data_PCOD9269739
_publ_section_title
;
Structure prediction by ZEFSAII (Michael W. Deem and Ramdas Pophale) SiO2 
 PCOD9269739
Probable space group: C 2/C
;
_chemical_formula_sum "Si O2"
_cell_formula_units_Z 56
_cell_length_a 14.234059
_cell_length_b 19.737566
_cell_length_c 13.515443
_cell_angle_alpha 90.000000
_cell_angle_beta 143.189742
_cell_angle_gamma 90.000000
_cell_volume 2275.100002
_symmetry_space_group_name_H-M "C 2/C"
_symmetry_group_IT_number 15
_symmetry_cell_setting 'monoclinic'
loop_
_space_group_symop_operation_xyz
x,y,z
-x,y,1/2-z
-x,-y,-z
x,-y,1/2+z
1/2+x,1/2+y,z
1/2-x,1/2+y,1/2-z
1/2-x,1/2-y,-z
1/2+x,1/2-y,1/2+z
loop_
_atom_site_type_symbol
_atom_site_label
_atom_site_fract_x
_atom_site_fract_y
_atom_site_fract_z
Si Si1 0.175384 0.166219 0.214216
Si Si2 0.814925 0.986725 0.823113
Si Si3 0.894201 0.605276 0.798753
Si Si4 0.185350 0.343199 0.049252
Si Si5 0.554146 0.734239 0.629211
Si Si6 0.245987 0.616417 0.013225
Si Si7 0.676221 0.531886 0.892186
O O1 0.211027 0.093011 0.196706
O O2 0.314214 0.217272 0.306430
O O3 0.161095 0.154906 0.321004
O O4 0.026880 0.194419 0.029557
O O5 0.681392 0.030338 0.764283
O O6 0.792213 0.011815 0.693211
O O7 0.000000 0.000000 0.000000
O O8 0.878917 0.634301 0.895957
O O9 0.794305 0.645329 0.629723
O O10 0.073716 0.604755 0.916288
O O11 0.356833 0.315438 0.221745
O O12 0.205291 0.405887 0.990660
O O13 0.075349 0.281166 0.927354
O O14 0.320478 0.542375 0.056557
O O15 0.500000 0.557426 0.750000
#
# Coordination Sequence:
#
# PCOD9269739 Si02
#       7
#     8   8   8   8   8   8   8
#     4  10  20  36  57  82 116 148 197 228 278 329
#     4  10  20  34  60  87 113 146 185 237 295 349
#     4  10  20  36  57  85 116 145 185 234 300 342
#     4  10  21  39  61  80 118 149 195 232 283 337
#     4  10  21  37  57  84 109 160 196 230 266 337
#     4  10  21  35  56  86 117 145 182 241 287 350
#     4  10  21  35  58  84 111 142 185 240 297 338
#
# _framework density 24.614304000000001
#
# number of rings (size 3 to 8) (size 9 to 14) (size 15 to 20)
#    0.000    2.000    1.429    2.571    2.000    2.857 
#    0.000    5.000    0.000    0.000    0.000    0.000 
#    0.000    0.000    0.000    0.000    0.000    0.000 
#
# Total GULP energy -156425.131854 kJ/mol
# GULP energy per Si atom -5586.611852 kJ/mol
# Density = 2.455828 g / cm^3
# Si number density = 24.614304 Si / 1000 Ang^3
#
#
#
# Elastic Constant Matrix: (Units=GPa)
#
#
# Indices 1 2 3 4 5 6 
#
# 1 52.2918 13.3781 9.5840 0.0000 6.9723 0.0000
# 2 13.3781 90.8148 19.4038 0.0000 11.7688 0.0000
# 3 9.5840 19.4038 70.5918 0.0000 7.9635 0.0000
# 4 0.0000 0.0000 0.0000 28.6855 0.0000 17.8772
# 5 6.9723 11.7688 7.9635 0.0000 29.7563 0.0000
# 6 0.0000 0.0000 0.0000 17.8772 0.0000 11.5084
#
#
#
# Elastic Compliance Matrix: (Units=1/GPa)
#
#
# Indices 1 2 3 4 5 6 
#
# 1 0.020471 -0.002186 -0.001789 0.000000 -0.003453 0.000000
# 2 -0.002186 0.012384 -0.002694 0.000000 -0.003665 0.000000
# 3 -0.001789 -0.002694 0.015448 0.000000 -0.002650 0.000000
# 4 0.000000 0.000000 0.000000 1.093089 0.000000 -1.698013
# 5 -0.003453 -0.003665 -0.002650 0.000000 0.036574 0.000000
# 6 0.000000 0.000000 0.000000 -1.698013 0.000000 2.724601
#
#
# Mechanical properties :
#
#
# Convention : Reuss Voigt Hill
#
# Bulk Modulus (GPa) = 28.59921 33.15892 30.87906
# Shear Modulus (GPa) = 1.27306 25.41221 13.34263
#
# Velocity S-wave (km/s) = 0.71995 3.21661 2.33076
# Velocity P-wave (km/s) = 3.51216 5.22457 4.45148
#
# Compressibility (1/GPa) = 0.03496601
#
# Stress axis : x y z
#
# Youngs Moduli (GPa) = 48.84963 80.74990 64.73254
#
# Poissons Ratio (x) = 0.17651 0.11580
# Poissons Ratio (y) = 0.10678 0.17438
# Poissons Ratio (z) = 0.08739 0.21752
#
# Static dielectric constant tensor:
#      x y z
#    x 2.012730 0.000000 -0.058850 
#    y 0.000000 1.984490 0.000000 
#    z -0.058850 0.000000 1.993220 
# 
# From -- ./inp_files/156246.got.cif
#   From: 2010.05.17/outbox.cif.g08.bks.cpg/sg15_79_cif.got.tgz:156246.got - 2010.06.03 18:47:42.
