data_PCOD9269799
_publ_section_title
;
Structure prediction by ZEFSAII (Michael W. Deem and Ramdas Pophale) SiO2 
 PCOD9269799
Probable space group: C 2/C
;
_chemical_formula_sum "Si O2"
_cell_formula_units_Z 44
_cell_length_a 12.669643
_cell_length_b 13.554409
_cell_length_c 13.821404
_cell_angle_alpha 90.000000
_cell_angle_beta 46.430453
_cell_angle_gamma 90.000000
_cell_volume 1719.722885
_symmetry_space_group_name_H-M "C 2/C"
_symmetry_group_IT_number 15
_symmetry_cell_setting 'monoclinic'
loop_
_space_group_symop_operation_xyz
x,y,z
-x,y,1/2-z
-x,-y,-z
x,-y,1/2+z
1/2+x,1/2+y,z
1/2-x,1/2+y,1/2-z
1/2-x,1/2-y,-z
1/2+x,1/2-y,1/2+z
loop_
_atom_site_type_symbol
_atom_site_label
_atom_site_fract_x
_atom_site_fract_y
_atom_site_fract_z
Si Si1 0.794850 0.404613 0.716640
Si Si2 0.868440 0.918557 0.084577
Si Si3 0.335767 0.635890 0.875133
Si Si4 0.109011 0.783133 0.956981
Si Si5 0.500000 0.935130 0.750000
Si Si6 0.779014 0.437562 0.516128
O O1 0.749917 0.516752 0.780218
O O2 0.658819 0.333654 0.825575
O O3 0.839824 0.392258 0.576859
O O4 0.914918 0.375159 0.720960
O O5 0.807024 0.888652 0.018024
O O6 0.942342 0.818429 0.077038
O O7 0.000000 0.000000 0.000000
O O8 0.500000 0.669881 0.750000
O O9 0.194669 0.680403 0.910495
O O10 0.331187 0.518703 0.870622
O O11 0.314234 0.659624 0.001909
O O12 0.597438 0.004656 0.620353
#
# Coordination Sequence:
#
# PCOD9269799 Si02
#       6
#     8   8   8   8   4   8
#     4  10  20  34  61  86 125 169 213 272 313 382
#     4   9  17  34  53  86 124 158 218 258 314 375
#     4  11  22  35  58  91 128 167 207 267 325 378
#     4  10  21  36  53  89 130 164 202 266 328 372
#     4  10  20  38  52  92 130 154 220 270 316 360
#     4  11  21  35  63  93 127 170 219 263 319 379
#
# _framework density 25.585516999999999
#
# number of rings (size 3 to 8) (size 9 to 14) (size 15 to 20)
#    0.000    1.818    5.455    1.636    3.818    0.000 
#    0.000    0.000    0.000    2.182    0.000   11.455 
#    0.000    0.000    0.000    0.000    0.000    0.000 
#
# Total GULP energy -122571.851952 kJ/mol
# GULP energy per Si atom -5571.447816 kJ/mol
# Density = 2.552728 g / cm^3
# Si number density = 25.585517 Si / 1000 Ang^3
#
#
#
# Elastic Constant Matrix: (Units=GPa)
#
#
# Indices 1 2 3 4 5 6 
#
# 1 138.0589 24.8389 46.1989 0.0000 27.3781 0.0000
# 2 24.8389 58.8349 9.9493 0.0000 -4.1323 0.0000
# 3 46.1989 9.9493 108.2440 0.0000 24.0449 0.0000
# 4 0.0000 0.0000 0.0000 14.4410 0.0000 3.2541
# 5 27.3781 -4.1323 24.0449 0.0000 60.8325 0.0000
# 6 0.0000 0.0000 0.0000 3.2541 0.0000 39.4255
#
#
#
# Elastic Compliance Matrix: (Units=1/GPa)
#
#
# Indices 1 2 3 4 5 6 
#
# 1 0.009599 -0.003784 -0.002995 0.000000 -0.003393 0.000000
# 2 -0.003784 0.018976 -0.000870 0.000000 0.003336 0.000000
# 3 -0.002995 -0.000870 0.011303 0.000000 -0.003179 0.000000
# 4 0.000000 0.000000 0.000000 0.070560 0.000000 -0.005824
# 5 -0.003393 0.003336 -0.003179 0.000000 0.019449 0.000000
# 6 0.000000 0.000000 0.000000 -0.005824 0.000000 0.025845
#
#
# Mechanical properties :
#
#
# Convention : Reuss Voigt Hill
#
# Bulk Modulus (GPa) = 40.68622 51.90135 46.29379
# Shear Modulus (GPa) = 27.89798 37.88318 32.89058
#
# Velocity S-wave (km/s) = 3.30567 3.85210 3.58930
# Velocity P-wave (km/s) = 5.52327 6.33359 5.94226
#
# Compressibility (1/GPa) = 0.02457835
#
# Stress axis : x y z
#
# Youngs Moduli (GPa) = 104.17237 52.69843 88.47286
#
# Poissons Ratio (x) = 0.19944 0.26501
# Poissons Ratio (y) = 0.39424 0.07697
# Poissons Ratio (z) = 0.31204 0.04585
#
# Static dielectric constant tensor:
#      x y z
#    x 2.100180 0.000000 -0.016760 
#    y 0.000000 2.105540 0.000000 
#    z -0.016760 0.000000 2.072320 
# 
# From -- ./inp_files/153252.got.cif
#   From: 2010.05.17/outbox.cif.g08.bks.cpg/sg15_77_cif.got.tgz:153252.got - 2010.06.03 18:47:42.
