data_PCOD9269891
_publ_section_title
;
Structure prediction by ZEFSAII (Michael W. Deem and Ramdas Pophale) SiO2 
 PCOD9269891
Probable space group: C 2/C
;
_chemical_formula_sum "Si O2"
_cell_formula_units_Z 60
_cell_length_a 11.279158
_cell_length_b 13.498904
_cell_length_c 18.408009
_cell_angle_alpha 90.000000
_cell_angle_beta 76.788464
_cell_angle_gamma 90.000000
_cell_volume 2728.554564
_symmetry_space_group_name_H-M "C 2/C"
_symmetry_group_IT_number 15
_symmetry_cell_setting 'monoclinic'
loop_
_space_group_symop_operation_xyz
x,y,z
-x,y,1/2-z
-x,-y,-z
x,-y,1/2+z
1/2+x,1/2+y,z
1/2-x,1/2+y,1/2-z
1/2-x,1/2-y,-z
1/2+x,1/2-y,1/2+z
loop_
_atom_site_type_symbol
_atom_site_label
_atom_site_fract_x
_atom_site_fract_y
_atom_site_fract_z
Si Si1 0.202902 0.532607 0.436775
Si Si2 0.136969 0.736092 0.070053
Si Si3 0.292166 0.839860 0.700745
Si Si4 0.965477 0.060691 0.933972
Si Si5 0.852846 0.831312 0.275732
Si Si6 0.114282 0.974180 0.782401
Si Si7 0.000000 0.537171 0.250000
Si Si8 0.058439 0.503376 0.090739
O O1 0.230190 0.622616 0.377400
O O2 0.327623 0.471247 0.429808
O O3 0.151811 0.553771 0.524989
O O4 0.080165 0.483975 0.418021
O O5 0.038866 0.820015 0.059752
O O6 0.171672 0.772084 0.146904
O O7 0.092077 0.621815 0.076266
O O8 0.250000 0.750000 0.000000
O O9 0.306453 0.725273 0.711889
O O10 0.412636 0.891628 0.715946
O O11 0.193497 0.877586 0.772695
O O12 0.062166 0.023309 0.861196
O O13 0.000000 0.000000 0.000000
O O14 0.809374 0.943863 0.273919
O O15 0.000000 0.837986 0.250000
O O16 0.000000 0.946753 0.750000
O O17 0.066804 0.479753 0.175423
#
# Coordination Sequence:
#
# PCOD9269891 Si02
#       8
#     8   8   8   8   8   8   4   8
#     4  10  21  39  57  90 131 162 201 258 328 372
#     4  12  22  37  64  93 125 154 221 270 302 371
#     4  11  20  37  66  93 124 161 213 263 320 374
#     4  12  26  41  59  94 132 168 211 258 325 386
#     4  11  20  40  67  96 115 164 219 259 308 375
#     4  11  23  40  64  91 129 167 209 266 320 377
#     4  10  20  34  64  94 114 154 218 256 310 368
#     4  10  21  36  63  92 121 162 210 270 314 365
#
# _framework density 21.989664999999999
#
# number of rings (size 3 to 8) (size 9 to 14) (size 15 to 20)
#    0.000    1.067    7.333    0.800    3.733    0.000 
#    0.000    0.667    1.467    0.000    0.000    0.000 
#    0.000    0.000    0.000    0.000    0.000    0.000 
#
# Total GULP energy -167305.571496 kJ/mol
# GULP energy per Si atom -5576.852383 kJ/mol
# Density = 2.193962 g / cm^3
# Si number density = 21.989665 Si / 1000 Ang^3
#
#
#
# Elastic Constant Matrix: (Units=GPa)
#
#
# Indices 1 2 3 4 5 6 
#
# 1 50.8122 29.0733 21.8624 0.0000 -9.5237 0.0000
# 2 29.0733 61.6008 28.4327 0.0000 8.5282 0.0000
# 3 21.8624 28.4327 158.4192 0.0000 -11.5194 0.0000
# 4 0.0000 0.0000 0.0000 29.7437 0.0000 7.1522
# 5 -9.5237 8.5282 -11.5194 0.0000 37.3836 0.0000
# 6 0.0000 0.0000 0.0000 7.1522 0.0000 25.5788
#
#
#
# Elastic Compliance Matrix: (Units=1/GPa)
#
#
# Indices 1 2 3 4 5 6 
#
# 1 0.031280 -0.016071 -0.000600 0.000000 0.011450 0.000000
# 2 -0.016071 0.026975 -0.003446 0.000000 -0.011310 0.000000
# 3 -0.000600 -0.003446 0.007221 0.000000 0.002859 0.000000
# 4 0.000000 0.000000 0.000000 0.036044 0.000000 -0.010078
# 5 0.011450 -0.011310 0.002859 0.000000 0.033128 0.000000
# 6 0.000000 0.000000 0.000000 -0.010078 0.000000 0.041913
#
#
# Mechanical properties :
#
#
# Convention : Reuss Voigt Hill
#
# Bulk Modulus (GPa) = 39.61584 47.72989 43.67287
# Shear Modulus (GPa) = 22.20158 31.30549 26.75353
#
# Velocity S-wave (km/s) = 3.18093 3.77722 3.49182
# Velocity P-wave (km/s) = 5.61657 6.38560 6.01339
#
# Compressibility (1/GPa) = 0.02524243
#
# Stress axis : x y z
#
# Youngs Moduli (GPa) = 31.96922 37.07145 138.47646
#
# Poissons Ratio (x) = 0.59579 0.08304
# Poissons Ratio (y) = 0.51379 0.47717
# Poissons Ratio (z) = 0.01917 0.12774
#
# Static dielectric constant tensor:
#      x y z
#    x 1.557290 0.000000 0.195200 
#    y 0.000000 1.801710 0.000000 
#    z 0.195200 0.000000 1.699600 
# 
# From -- ./inp_files/197843.got.cif
#   From: 2010.05.17/outbox.cif.g08.bks.cpg/sg15_99_cif.got.tgz:197843.got - 2010.06.03 18:47:42.
