data_PCOD9269752
_publ_section_title
;
Structure prediction by ZEFSAII (Michael W. Deem and Ramdas Pophale) SiO2 
 PCOD9269752
Probable space group: C 2/C
;
_chemical_formula_sum "Si O2"
_cell_formula_units_Z 52
_cell_length_a 5.323949
_cell_length_b 23.367371
_cell_length_c 19.055690
_cell_angle_alpha 90.000000
_cell_angle_beta 117.228669
_cell_angle_gamma 90.000000
_cell_volume 2107.957207
_symmetry_space_group_name_H-M "C 2/C"
_symmetry_group_IT_number 15
_symmetry_cell_setting 'monoclinic'
loop_
_space_group_symop_operation_xyz
x,y,z
-x,y,1/2-z
-x,-y,-z
x,-y,1/2+z
1/2+x,1/2+y,z
1/2-x,1/2+y,1/2-z
1/2-x,1/2-y,-z
1/2+x,1/2-y,1/2+z
loop_
_atom_site_type_symbol
_atom_site_label
_atom_site_fract_x
_atom_site_fract_y
_atom_site_fract_z
Si Si1 0.657493 0.419104 0.059631
Si Si2 0.764215 0.320627 0.170205
Si Si3 0.071973 0.239437 0.094972
Si Si4 0.071835 0.662649 0.004776
Si Si5 0.285003 0.606100 0.165690
Si Si6 0.721435 0.453821 0.616275
Si Si7 0.500000 0.764223 0.750000
O O1 0.601920 0.370588 0.109928
O O2 0.730333 0.478111 0.106721
O O3 0.908245 0.393026 0.042031
O O4 0.397595 0.430532 0.974003
O O5 0.613308 0.278443 0.204756
O O6 0.000000 0.349649 0.250000
O O7 0.912466 0.279307 0.132160
O O8 0.279206 0.203773 0.172614
O O9 0.873138 0.194832 0.031214
O O10 0.147247 0.288385 0.047172
O O11 0.113089 0.648249 0.091559
O O12 0.500000 0.632647 0.250000
O O13 0.487764 0.567007 0.142414
O O14 0.035309 0.569601 0.168932
#
# Coordination Sequence:
#
# PCOD9269752 Si02
#       7
#     8   8   8   8   8   8   4
#     4   9  20  40  64  89 122 163 217 261 326 383
#     4   9  19  36  56  88 124 160 207 262 317 385
#     4   9  19  40  58  90 125 162 215 260 324 375
#     4   9  20  40  64  87 123 171 210 263 321 391
#     4  11  24  43  65  97 132 171 220 268 324 387
#     4  10  23  43  66  92 128 171 213 274 323 384
#     4  10  20  34  60  88 128 164 208 268 318 384
#
# _framework density 24.668433
#
# number of rings (size 3 to 8) (size 9 to 14) (size 15 to 20)
#    0.000    2.462    0.000    0.462    2.154    8.615 
#   18.000    2.308    0.000    0.000    0.000    0.000 
#    0.000    0.000    0.000    0.000    0.000    0.000 
#
# Total GULP energy -145126.896575 kJ/mol
# GULP energy per Si atom -5581.803714 kJ/mol
# Density = 2.461229 g / cm^3
# Si number density = 24.668433 Si / 1000 Ang^3
#
#
#
# Elastic Constant Matrix: (Units=GPa)
#
#
# Indices 1 2 3 4 5 6 
#
# 1 82.5051 24.6179 30.3795 0.0000 -14.9636 0.0000
# 2 24.6179 94.7672 24.3037 0.0000 -18.3536 0.0000
# 3 30.3795 24.3037 122.3134 0.0000 -7.9813 0.0000
# 4 0.0000 0.0000 0.0000 7.5663 0.0000 -40.5152
# 5 -14.9636 -18.3536 -7.9813 0.0000 36.5060 0.0000
# 6 0.0000 0.0000 0.0000 -40.5152 0.0000 -13.5311
#
#
#
# Elastic Compliance Matrix: (Units=1/GPa)
#
#
# Indices 1 2 3 4 5 6 
#
# 1 0.014628 -0.002232 -0.002913 0.000000 0.004237 0.000000
# 2 -0.002232 0.012517 -0.001605 0.000000 0.005027 0.000000
# 3 -0.002913 -0.001605 0.009219 0.000000 0.000015 0.000000
# 4 0.000000 0.000000 0.000000 0.007759 0.000000 -0.023233
# 5 0.004237 0.005027 0.000015 0.000000 0.031660 0.000000
# 6 0.000000 0.000000 0.000000 -0.023233 0.000000 -0.004339
#
#
# Mechanical properties :
#
#
# Convention : Reuss Voigt Hill
#
# Bulk Modulus (GPa) = 43.73741 50.90977 47.32359
# Shear Modulus (GPa) = 54.01571 20.79388 37.40480
#
# Velocity S-wave (km/s) = 4.68447 2.90648 3.89820
# Velocity P-wave (km/s) = 6.85767 5.65207 6.28385
#
# Compressibility (1/GPa) = 0.02286372
#
# Stress axis : x y z
#
# Youngs Moduli (GPa) = 68.36420 79.88993 108.47080
#
# Poissons Ratio (x) = 0.17833 0.31599
# Poissons Ratio (y) = 0.15261 0.17406
# Poissons Ratio (z) = 0.19915 0.12820
#
# Static dielectric constant tensor:
#      x y z
#    x 2.137860 0.000000 0.089310 
#    y 0.000000 1.943650 0.000000 
#    z 0.089310 0.000000 2.056370 
# 
# From -- ./inp_files/227962.got.cif
#   From: 2010.05.17/outbox.cif.g08.bks.cpg/sg15_114_cif.got.tgz:227962.got - 2010.06.03 18:47:42.
