data_PCOD9269517
_publ_section_title
;
Structure prediction by ZEFSAII (Michael W. Deem and Ramdas Pophale) SiO2 
 PCOD9269517
Probable space group: C 2/C
;
_chemical_formula_sum "Si O2"
_cell_formula_units_Z 48
_cell_length_a 23.914787
_cell_length_b 8.042568
_cell_length_c 20.873679
_cell_angle_alpha 90.000000
_cell_angle_beta 40.153059
_cell_angle_gamma 90.000000
_cell_volume 2588.848563
_symmetry_space_group_name_H-M "C 2/C"
_symmetry_group_IT_number 15
_symmetry_cell_setting 'monoclinic'
loop_
_space_group_symop_operation_xyz
x,y,z
-x,y,1/2-z
-x,-y,-z
x,-y,1/2+z
1/2+x,1/2+y,z
1/2-x,1/2+y,1/2-z
1/2-x,1/2-y,-z
1/2+x,1/2-y,1/2+z
loop_
_atom_site_type_symbol
_atom_site_label
_atom_site_fract_x
_atom_site_fract_y
_atom_site_fract_z
Si Si1 0.089295 0.162077 0.950307
Si Si2 0.410018 0.657125 0.191494
Si Si3 0.075803 0.509458 0.988427
Si Si4 0.877532 0.206155 0.723334
Si Si5 0.036360 0.485991 0.289167
Si Si6 0.185955 0.820368 0.852509
O O1 0.129727 0.339915 0.932816
O O2 0.071533 0.183555 0.889446
O O3 0.151009 0.002361 0.904053
O O4 0.001012 0.148652 0.070120
O O5 0.387941 0.479351 0.242111
O O6 0.416485 0.813487 0.233004
O O7 0.335808 0.687573 0.203739
O O8 0.128071 0.675748 0.933243
O O9 0.000000 0.500000 0.000000
O O10 0.037480 0.501673 0.092406
O O11 0.909636 0.347823 0.743054
O O12 0.783191 0.269745 0.784069
O O13 0.000000 0.480462 0.250000
#
# Coordination Sequence:
#
# PCOD9269517 Si02
#       6
#     8   8   8   8   8   8
#     4  10  20  34  57  85 120 149 191 244 291 347
#     4  10  21  37  58  85 118 156 198 240 293 347
#     4  11  19  36  60  83 113 155 202 239 287 345
#     4  11  22  33  58  92 119 146 191 254 300 338
#     4  11  23  40  60  84 118 159 202 237 286 361
#     4  11  21  32  58  94 118 144 189 255 300 337
#
# _framework density 18.541060000000002
#
# number of rings (size 3 to 8) (size 9 to 14) (size 15 to 20)
#    0.000    1.333    5.000    3.000    9.333    0.667 
#    0.000    0.833    0.000    5.000    0.000    0.000 
#    0.000    0.000    0.000    0.000    0.000    0.000 
#
# Total GULP energy -133770.876037 kJ/mol
# GULP energy per Si atom -5573.786502 kJ/mol
# Density = 1.849886 g / cm^3
# Si number density = 18.541060 Si / 1000 Ang^3
#
#
#
# Elastic Constant Matrix: (Units=GPa)
#
#
# Indices 1 2 3 4 5 6 
#
# 1 101.9240 82.4058 43.8331 -0.0010 9.8286 0.0006
# 2 82.4058 218.4547 38.3993 -0.0035 -0.9158 0.0035
# 3 43.8331 38.3993 45.0887 -0.0025 1.6983 0.0015
# 4 -0.0010 -0.0035 -0.0025 4.6125 0.0015 5.9054
# 5 9.8286 -0.9158 1.6983 0.0015 23.6304 -0.0007
# 6 0.0006 0.0035 0.0015 5.9054 -0.0007 16.6143
#
#
#
# Elastic Compliance Matrix: (Units=1/GPa)
#
#
# Indices 1 2 3 4 5 6 
#
# 1 0.022163 -0.005483 -0.016566 -0.000014 -0.008240 0.000006
# 2 -0.005483 0.006747 -0.000513 0.000008 0.002579 -0.000004
# 3 -0.016566 -0.000513 0.038566 0.000035 0.004099 -0.000015
# 4 -0.000014 0.000008 0.000035 0.397845 -0.000027 -0.141410
# 5 -0.008240 0.002579 0.004099 -0.000027 0.045551 0.000011
# 6 0.000006 -0.000004 -0.000015 -0.141410 0.000011 0.110452
#
#
# Mechanical properties :
#
#
# Convention : Reuss Voigt Hill
#
# Bulk Modulus (GPa) = 44.73881 77.19376 60.96628
# Shear Modulus (GPa) = 7.41952 22.36005 14.88978
#
# Velocity S-wave (km/s) = 2.00259 3.47648 2.83692
# Velocity P-wave (km/s) = 5.43407 7.60519 6.60939
#
# Compressibility (1/GPa) = 0.02235196
#
# Stress axis : x y z
#
# Youngs Moduli (GPa) = 45.11960 148.21706 25.92991
#
# Poissons Ratio (x) = 0.81269 0.42956
# Poissons Ratio (y) = 0.24739 0.01329
# Poissons Ratio (z) = 0.74746 0.07598
#
# Static dielectric constant tensor:
#      x y z
#    x 1.576430 0.000000 -0.035640 
#    y 0.000000 1.745000 0.000000 
#    z -0.035640 0.000000 1.680990 
# 
# From -- ./inp_files/254790.got.cif
#   From: 2010.05.17/outbox.cif.g08.bks.cpg/sg15_128_cif.got.tgz:254790.got - 2010.06.03 18:47:42.
