data_PCOD9269049
_publ_section_title
;
Structure prediction by ZEFSAII (Michael W. Deem and Ramdas Pophale) SiO2 
 PCOD9269049
Probable space group: C 2/C
;
_chemical_formula_sum "Si O2"
_cell_formula_units_Z 52
_cell_length_a 29.571935
_cell_length_b 15.562887
_cell_length_c 5.785790
_cell_angle_alpha 90.000000
_cell_angle_beta 69.524309
_cell_angle_gamma 90.000000
_cell_volume 2494.531810
_symmetry_space_group_name_H-M "C 2/C"
_symmetry_group_IT_number 15
_symmetry_cell_setting 'monoclinic'
loop_
_space_group_symop_operation_xyz
x,y,z
-x,y,1/2-z
-x,-y,-z
x,-y,1/2+z
1/2+x,1/2+y,z
1/2-x,1/2+y,1/2-z
1/2-x,1/2-y,-z
1/2+x,1/2-y,1/2+z
loop_
_atom_site_type_symbol
_atom_site_label
_atom_site_fract_x
_atom_site_fract_y
_atom_site_fract_z
Si Si1 0.920758 0.692323 0.414613
Si Si2 0.000000 0.155177 0.750000
Si Si3 0.838600 0.047292 0.240053
Si Si4 0.240356 0.177358 0.207452
Si Si5 0.500000 0.369458 0.750000
Si Si6 0.500000 0.047913 0.250000
Si Si7 0.104391 0.196021 0.167193
Si Si8 0.828796 0.269951 0.802377
O O1 0.953833 0.610234 0.338534
O O2 0.897702 0.712093 0.704808
O O3 0.876198 0.687476 0.322369
O O4 0.955105 0.777077 0.323056
O O5 0.000364 0.098798 0.515976
O O6 0.786141 0.093139 0.337517
O O7 0.879754 0.120666 0.187554
O O8 0.843807 0.995221 0.474588
O O9 0.202295 0.219628 0.452764
O O10 0.291390 0.166884 0.244186
O O11 0.250000 0.250000 0.000000
O O12 0.448660 0.319706 0.838421
O O13 0.500000 0.000000 0.500000
O O14 0.147966 0.199696 0.909512
#
# Coordination Sequence:
#
# PCOD9269049 Si02
#       8
#     8   4   8   8   4   4   8   8
#     4  10  21  38  69  96 134 188 237 281 335 417
#     4   9  18  30  56  96 126 159 220 279 316 376
#     4  12  27  45  68 102 147 183 217 289 378 418
#     4  11  23  41  69 102 133 182 242 298 336 431
#     4  10  20  33  62  97 134 162 224 282 320 381
#     4  11  28  47  68 107 156 191 232 295 368 417
#     4  11  22  41  69 107 134 184 241 285 339 431
#     4  11  20  38  72 101 135 168 254 294 332 395
#
# _framework density 20.845596
#
# number of rings (size 3 to 8) (size 9 to 14) (size 15 to 20)
#    0.000    1.231    4.615    0.923    4.308    1.231 
#    0.000    2.308    0.000    0.000    0.000    0.000 
#    0.000    0.000    0.000    0.000    0.000    0.000 
#
# Total GULP energy -144813.927820 kJ/mol
# GULP energy per Si atom -5569.766455 kJ/mol
# Density = 2.079815 g / cm^3
# Si number density = 20.845596 Si / 1000 Ang^3
#
#
#
# Elastic Constant Matrix: (Units=GPa)
#
#
# Indices 1 2 3 4 5 6 
#
# 1 194.1997 56.6356 40.4228 0.0000 12.9297 0.0000
# 2 56.6356 78.1800 48.7029 0.0000 6.6137 0.0000
# 3 40.4228 48.7029 162.8500 0.0000 12.6952 0.0000
# 4 0.0000 0.0000 0.0000 10.8279 0.0000 -13.8579
# 5 12.9297 6.6137 12.6952 0.0000 40.1236 0.0000
# 6 0.0000 0.0000 0.0000 -13.8579 0.0000 18.7942
#
#
#
# Elastic Compliance Matrix: (Units=1/GPa)
#
#
# Indices 1 2 3 4 5 6 
#
# 1 0.006605 -0.004566 -0.000171 0.000000 -0.001322 0.000000
# 2 -0.004566 0.018927 -0.004510 0.000000 -0.000221 0.000000
# 3 -0.000171 -0.004510 0.007658 0.000000 -0.001625 0.000000
# 4 0.000000 0.000000 0.000000 1.640160 0.000000 1.209376
# 5 -0.001322 -0.000221 -0.001625 0.000000 0.025899 0.000000
# 6 0.000000 0.000000 0.000000 1.209376 0.000000 0.944944
#
#
# Mechanical properties :
#
#
# Convention : Reuss Voigt Hill
#
# Bulk Modulus (GPa) = 68.04382 80.75024 74.39703
# Shear Modulus (GPa) = 1.87435 33.24703 17.56069
#
# Velocity S-wave (km/s) = 0.94927 3.99798 2.90559
# Velocity P-wave (km/s) = 5.82359 7.75456 6.85738
#
# Compressibility (1/GPa) = 0.01469641
#
# Stress axis : x y z
#
# Youngs Moduli (GPa) = 151.40991 52.83429 130.57634
#
# Poissons Ratio (x) = 0.24126 0.02229
# Poissons Ratio (y) = 0.69140 0.58886
# Poissons Ratio (z) = 0.02585 0.23827
#
# Static dielectric constant tensor:
#      x y z
#    x 1.770960 0.000000 0.038000 
#    y 0.000000 1.746380 0.000000 
#    z 0.038000 0.000000 1.903590 
# 
# From -- ./inp_files/18207.got.cif
#   From: 2010.05.17/outbox.cif.g08.bks.cpg/sg15_10_cif.got.tgz:18207.got - 2010.06.03 18:47:42.
