data_PCOD9269456
_publ_section_title
;
Structure prediction by ZEFSAII (Michael W. Deem and Ramdas Pophale) SiO2 
 PCOD9269456
Probable space group: C 2/C
;
_chemical_formula_sum "Si O2"
_cell_formula_units_Z 52
_cell_length_a 5.161172
_cell_length_b 20.610879
_cell_length_c 28.708609
_cell_angle_alpha 90.000000
_cell_angle_beta 127.576321
_cell_angle_gamma 90.000000
_cell_volume 2420.355378
_symmetry_space_group_name_H-M "C 2/C"
_symmetry_group_IT_number 15
_symmetry_cell_setting 'monoclinic'
loop_
_space_group_symop_operation_xyz
x,y,z
-x,y,1/2-z
-x,-y,-z
x,-y,1/2+z
1/2+x,1/2+y,z
1/2-x,1/2+y,1/2-z
1/2-x,1/2-y,-z
1/2+x,1/2-y,1/2+z
loop_
_atom_site_type_symbol
_atom_site_label
_atom_site_fract_x
_atom_site_fract_y
_atom_site_fract_z
Si Si1 0.098530 0.803492 0.170871
Si Si2 0.000000 0.142134 0.750000
Si Si3 0.683018 0.810460 0.548009
Si Si4 0.961251 0.667427 0.124004
Si Si5 0.393009 0.919759 0.142936
Si Si6 0.626672 0.169287 0.937370
Si Si7 0.388384 0.950771 0.791505
O O1 0.217354 0.865947 0.155572
O O2 0.186687 0.812260 0.234477
O O3 0.165725 0.732985 0.157759
O O4 0.704334 0.807422 0.123786
O O5 0.227964 0.097126 0.805814
O O6 0.528628 0.842857 0.576540
O O7 0.560206 0.836454 0.484824
O O8 0.634906 0.731549 0.542976
O O9 0.073278 0.823127 0.589019
O O10 0.069274 0.611660 0.171030
O O11 0.290221 0.897714 0.079828
O O12 0.382182 0.992587 0.160624
O O13 0.500000 0.941558 0.750000
O O14 0.000000 0.966099 0.750000
#
# Coordination Sequence:
#
# PCOD9269456 Si02
#       7
#     8   4   8   8   8   8   8
#     4  10  21  35  63  91 125 159 217 271 325 376
#     4  10  20  34  56  86 118 156 206 270 310 378
#     4  10  21  42  65  96 130 167 211 269 326 384
#     4  11  24  42  63  94 127 170 216 260 320 394
#     4  11  21  40  60  94 121 170 214 266 319 386
#     4   9  21  36  67  95 127 163 214 268 334 376
#     4  12  27  45  66  89 133 181 215 262 333 397
#
# _framework density 21.484449000000001
#
# number of rings (size 3 to 8) (size 9 to 14) (size 15 to 20)
#    0.000    1.538    2.308    2.308    5.385    3.077 
#    0.000    1.538    0.000    0.000    0.000    0.000 
#    0.000    0.000    0.000    0.000    0.000    0.000 
#
# Total GULP energy -144979.204006 kJ/mol
# GULP energy per Si atom -5576.123231 kJ/mol
# Density = 2.143555 g / cm^3
# Si number density = 21.484449 Si / 1000 Ang^3
#
#
#
# Elastic Constant Matrix: (Units=GPa)
#
#
# Indices 1 2 3 4 5 6 
#
# 1 89.4840 28.0421 25.3941 0.0000 -29.1030 0.0000
# 2 28.0421 93.3002 47.2050 0.0000 -33.9254 0.0000
# 3 25.3941 47.2050 88.1151 0.0000 -42.4024 0.0000
# 4 0.0000 0.0000 0.0000 28.9428 0.0000 4.1487
# 5 -29.1030 -33.9254 -42.4024 0.0000 47.3114 0.0000
# 6 0.0000 0.0000 0.0000 4.1487 0.0000 17.1341
#
#
#
# Elastic Compliance Matrix: (Units=1/GPa)
#
#
# Indices 1 2 3 4 5 6 
#
# 1 0.014143 -0.001653 0.000749 0.000000 0.008185 0.000000
# 2 -0.001653 0.015981 -0.005380 0.000000 0.005620 0.000000
# 3 0.000749 -0.005380 0.021769 0.000000 0.016113 0.000000
# 4 0.000000 0.000000 0.000000 0.035793 0.000000 -0.008667
# 5 0.008185 0.005620 0.016113 0.000000 0.044643 0.000000
# 6 0.000000 0.000000 0.000000 -0.008667 0.000000 0.060462
#
#
# Mechanical properties :
#
#
# Convention : Reuss Voigt Hill
#
# Bulk Modulus (GPa) = 25.43012 52.46464 38.94738
# Shear Modulus (GPa) = 22.88671 30.02822 26.45747
#
# Velocity S-wave (km/s) = 3.26739 3.74260 3.51304
# Velocity P-wave (km/s) = 5.10849 6.56878 5.88411
#
# Compressibility (1/GPa) = 0.03932345
#
# Stress axis : x y z
#
# Youngs Moduli (GPa) = 70.70667 62.57556 45.93670
#
# Poissons Ratio (x) = 0.10345 -0.03439
# Poissons Ratio (y) = 0.11690 0.24714
# Poissons Ratio (z) = -0.05294 0.33666
#
# Static dielectric constant tensor:
#      x y z
#    x 1.882580 0.000000 0.027290 
#    y 0.000000 1.828320 0.000000 
#    z 0.027290 0.000000 1.834080 
# 
# From -- ./inp_files/261125.got.cif
#   From: 2010.05.17/outbox.cif.g08.bks.cpg/sg15_131_cif.got.tgz:261125.got - 2010.06.03 18:47:42.
