data_PCOD9269670
_publ_section_title
;
Structure prediction by ZEFSAII (Michael W. Deem and Ramdas Pophale) SiO2 
 PCOD9269670
Probable space group: C 2/C
;
_chemical_formula_sum "Si O2"
_cell_formula_units_Z 48
_cell_length_a 26.134222
_cell_length_b 7.794314
_cell_length_c 19.687486
_cell_angle_alpha 90.000000
_cell_angle_beta 32.836581
_cell_angle_gamma 90.000000
_cell_volume 2174.568564
_symmetry_space_group_name_H-M "C 2/C"
_symmetry_group_IT_number 15
_symmetry_cell_setting 'monoclinic'
loop_
_space_group_symop_operation_xyz
x,y,z
-x,y,1/2-z
-x,-y,-z
x,-y,1/2+z
1/2+x,1/2+y,z
1/2-x,1/2+y,1/2-z
1/2-x,1/2-y,-z
1/2+x,1/2-y,1/2+z
loop_
_atom_site_type_symbol
_atom_site_label
_atom_site_fract_x
_atom_site_fract_y
_atom_site_fract_z
Si Si1 0.792142 0.355569 0.017053
Si Si2 0.533882 0.173577 0.104414
Si Si3 0.671950 0.915356 0.715278
Si Si4 0.097007 0.639558 0.445368
Si Si5 0.430840 0.656426 0.068525
Si Si6 0.256163 0.285756 0.859716
O O1 0.744702 0.241057 0.128720
O O2 0.764522 0.556230 0.063839
O O3 0.750000 0.250000 0.000000
O O4 0.904976 0.323092 0.895395
O O5 0.422136 0.146211 0.220302
O O6 0.568419 0.317991 0.013092
O O7 0.577611 0.008186 0.019691
O O8 0.649339 0.926953 0.820235
O O9 0.707262 0.103169 0.651428
O O10 0.165524 0.759774 0.413391
O O11 0.995742 0.699948 0.532224
O O12 0.334965 0.646616 0.217924
O O13 0.500000 0.500000 0.000000
#
# Coordination Sequence:
#
# PCOD9269670 Si02
#       6
#     8   8   8   8   8   8
#     4  11  27  44  61  90 126 172 226 264 303 361
#     4  10  20  41  62  89 132 160 196 268 322 373
#     4  11  21  40  66  90 131 171 204 256 323 386
#     4  10  20  34  58  99 128 157 193 259 326 389
#     4  11  20  32  59  98 129 156 200 252 325 393
#     4  11  22  38  64  93 129 168 211 254 324 381
#
# _framework density 22.073343999999999
#
# number of rings (size 3 to 8) (size 9 to 14) (size 15 to 20)
#    0.000    1.333    3.333    4.000    7.000    1.333 
#    0.000    0.000    0.000    2.000    0.000    0.000 
#    0.000    0.000    0.000    0.000    0.000    0.000 
#
# Total GULP energy -133632.508268 kJ/mol
# GULP energy per Si atom -5568.021178 kJ/mol
# Density = 2.202310 g / cm^3
# Si number density = 22.073344 Si / 1000 Ang^3
#
#
#
# Elastic Constant Matrix: (Units=GPa)
#
#
# Indices 1 2 3 4 5 6 
#
# 1 124.9101 15.2476 18.8502 -0.0021 -20.0532 0.0014
# 2 15.2476 64.1936 4.3785 0.0041 -1.4675 -0.0009
# 3 18.8502 4.3785 64.1691 0.0009 -21.0805 -0.0007
# 4 -0.0021 0.0041 0.0009 27.6122 -0.0001 -6.2384
# 5 -20.0532 -1.4675 -21.0805 -0.0001 28.4648 -0.0007
# 6 0.0014 -0.0009 -0.0007 -6.2384 -0.0007 17.2985
#
#
#
# Elastic Compliance Matrix: (Units=1/GPa)
#
#
# Indices 1 2 3 4 5 6 
#
# 1 0.009310 -0.002032 -0.000629 0.000001 0.005988 0.000000
# 2 -0.002032 0.016094 -0.000924 -0.000003 -0.001286 0.000000
# 3 -0.000629 -0.000924 0.020709 0.000000 0.014846 0.000001
# 4 0.000001 -0.000003 0.000000 0.039428 0.000001 0.014219
# 5 0.005988 -0.001286 0.014846 0.000001 0.050278 0.000002
# 6 0.000000 0.000000 0.000001 0.014219 0.000002 0.062936
#
#
# Mechanical properties :
#
#
# Convention : Reuss Voigt Hill
#
# Bulk Modulus (GPa) = 25.67783 36.69172 31.18478
# Shear Modulus (GPa) = 22.84092 28.99486 25.91789
#
# Velocity S-wave (km/s) = 3.22028 3.62825 3.43034
# Velocity P-wave (km/s) = 5.04828 5.84902 5.46334
#
# Compressibility (1/GPa) = 0.03894410
#
# Stress axis : x y z
#
# Youngs Moduli (GPa) = 107.41097 62.13478 48.28900
#
# Poissons Ratio (x) = 0.12623 0.03038
# Poissons Ratio (y) = 0.21821 0.04460
# Poissons Ratio (z) = 0.06757 0.05739
#
# Static dielectric constant tensor:
#      x y z
#    x 1.580710 0.001470 -0.019860 
#    y 0.001470 -8.381520 0.000570 
#    z -0.019860 0.000570 1.854860 
# 
# From -- ./inp_files/251791.got.cif
#   From: 2010.05.17/outbox.cif.g08.bks.cpg/sg15_126_cif.got.tgz:251791.got - 2010.06.03 18:47:42.
