data_PCOD9269720
_publ_section_title
;
Structure prediction by ZEFSAII (Michael W. Deem and Ramdas Pophale) SiO2 
 PCOD9269720
Probable space group: C 2/C
;
_chemical_formula_sum "Si O2"
_cell_formula_units_Z 52
_cell_length_a 8.432526
_cell_length_b 17.968977
_cell_length_c 15.752071
_cell_angle_alpha 90.000000
_cell_angle_beta 111.578581
_cell_angle_gamma 90.000000
_cell_volume 2219.532487
_symmetry_space_group_name_H-M "C 2/C"
_symmetry_group_IT_number 15
_symmetry_cell_setting 'monoclinic'
loop_
_space_group_symop_operation_xyz
x,y,z
-x,y,1/2-z
-x,-y,-z
x,-y,1/2+z
1/2+x,1/2+y,z
1/2-x,1/2+y,1/2-z
1/2-x,1/2-y,-z
1/2+x,1/2-y,1/2+z
loop_
_atom_site_type_symbol
_atom_site_label
_atom_site_fract_x
_atom_site_fract_y
_atom_site_fract_z
Si Si1 0.696686 0.752269 0.361500
Si Si2 0.668749 0.125871 0.482643
Si Si3 0.299830 0.459223 0.543736
Si Si4 0.501641 0.115267 0.616074
Si Si5 0.805408 0.610546 0.311582
Si Si6 0.989448 0.829399 0.518282
Si Si7 0.000000 0.512898 0.250000
O O1 0.581588 0.824810 0.339010
O O2 0.722458 0.692344 0.292427
O O3 0.880551 0.786167 0.424526
O O4 0.600613 0.705893 0.416667
O O5 0.635069 0.148802 0.575075
O O6 0.493954 0.121200 0.392887
O O7 0.812561 0.174294 0.464719
O O8 0.745429 0.042801 0.512921
O O9 0.302996 0.440737 0.644698
O O10 0.450714 0.417732 0.523779
O O11 0.143076 0.410948 0.477198
O O12 0.532624 0.041875 0.677487
O O13 0.839176 0.568342 0.230154
#
# Coordination Sequence:
#
# PCOD9269720 Si02
#       7
#     8   8   8   8   8   8   4
#     4   9  20  38  48  84 112 151 166 240 276 335
#     4  11  17  31  56  95 102 140 184 238 262 341
#     4   9  16  34  53  87 108 140 171 240 264 329
#     4  10  20  34  60  77 114 138 192 216 285 319
#     4  10  20  34  60  77 114 138 192 216 285 319
#     4   9  18  30  59  81 119 134 180 223 297 316
#     4  12  20  38  60  82 100 168 184 230 260 354
#
# _framework density 23.428360000000001
#
# number of rings (size 3 to 8) (size 9 to 14) (size 15 to 20)
#    0.000    2.154    3.077    4.154    0.000    2.462 
#    0.000    3.077    0.000   12.923    0.000    0.000 
#    0.000    0.000    0.000    0.000    0.000    0.000 
#
# Total GULP energy -144756.831650 kJ/mol
# GULP energy per Si atom -5567.570448 kJ/mol
# Density = 2.337504 g / cm^3
# Si number density = 23.428360 Si / 1000 Ang^3
#
#
#
# Elastic Constant Matrix: (Units=GPa)
#
#
# Indices 1 2 3 4 5 6 
#
# 1 98.6353 24.2875 8.0520 0.0000 -9.5919 0.0000
# 2 24.2875 116.9959 1.4717 0.0000 -5.3561 0.0000
# 3 8.0520 1.4717 39.2835 0.0000 -4.5680 0.0000
# 4 0.0000 0.0000 0.0000 -4.1452 0.0000 -23.5957
# 5 -9.5919 -5.3561 -4.5680 0.0000 15.9966 0.0000
# 6 0.0000 0.0000 0.0000 -23.5957 0.0000 24.5704
#
#
#
# Elastic Compliance Matrix: (Units=1/GPa)
#
#
# Indices 1 2 3 4 5 6 
#
# 1 0.011327 -0.002073 -0.001588 0.000000 0.005645 0.000000
# 2 -0.002073 0.009060 0.000304 0.000000 0.001877 0.000000
# 3 -0.001588 0.000304 0.026553 0.000000 0.006732 0.000000
# 4 0.000000 0.000000 0.000000 -0.037307 0.000000 -0.035827
# 5 0.005645 0.001877 0.006732 0.000000 0.068449 0.000000
# 6 0.000000 0.000000 0.000000 -0.035827 0.000000 0.006294
#
#
# Mechanical properties :
#
#
# Convention : Reuss Voigt Hill
#
# Bulk Modulus (GPa) = 24.85961 35.83745 30.34853
# Shear Modulus (GPa) = 47.84748 22.02459 34.93604
#
# Velocity S-wave (km/s) = 4.52407 3.06940 3.86578
# Velocity P-wave (km/s) = 6.15821 5.28124 5.73651
#
# Compressibility (1/GPa) = 0.04022589
#
# Stress axis : x y z
#
# Youngs Moduli (GPa) = 88.28185 110.37793 37.66072
#
# Poissons Ratio (x) = 0.22882 0.05980
# Poissons Ratio (y) = 0.18302 -0.01144
# Poissons Ratio (z) = 0.14017 -0.03353
#
# Static dielectric constant tensor:
#      x y z
#    x 1.964980 0.000000 -0.065790 
#    y 0.000000 2.014720 0.000000 
#    z -0.065790 0.000000 1.987450 
# 
# From -- ./inp_files/190499.got.cif
#   From: 2010.05.17/outbox.cif.g08.bks.cpg/sg15_96_cif.got.tgz:190499.got - 2010.06.03 18:47:42.
