data_PCOD9269685
_publ_section_title
;
Structure prediction by ZEFSAII (Michael W. Deem and Ramdas Pophale) SiO2 
 PCOD9269685
Probable space group: C 2/C
;
_chemical_formula_sum "Si O2"
_cell_formula_units_Z 32
_cell_length_a 16.224812
_cell_length_b 19.099050
_cell_length_c 10.343845
_cell_angle_alpha 90.000000
_cell_angle_beta 156.000321
_cell_angle_gamma 90.000000
_cell_volume 1303.710844
_symmetry_space_group_name_H-M "C 2/C"
_symmetry_group_IT_number 15
_symmetry_cell_setting 'monoclinic'
loop_
_space_group_symop_operation_xyz
x,y,z
-x,y,1/2-z
-x,-y,-z
x,-y,1/2+z
1/2+x,1/2+y,z
1/2-x,1/2+y,1/2-z
1/2-x,1/2-y,-z
1/2+x,1/2-y,1/2+z
loop_
_atom_site_type_symbol
_atom_site_label
_atom_site_fract_x
_atom_site_fract_y
_atom_site_fract_z
Si Si1 0.781061 0.202259 0.869033
Si Si2 0.893261 0.647136 0.468861
Si Si3 0.231429 0.466890 0.908739
Si Si4 0.261839 0.062684 0.804277
O O1 0.589998 0.178617 0.679487
O O2 0.766985 0.146400 0.733176
O O3 0.762712 0.284549 0.815575
O O4 0.000000 0.193681 0.250000
O O5 0.767611 0.595876 0.195962
O O6 0.000000 0.614066 0.750000
O O7 0.304027 0.532755 0.929526
O O8 0.996476 0.460634 0.617473
O O9 0.328757 0.463248 0.190051
#
# Coordination Sequence:
#
# PCOD9269685 Si02
#       4
#     8   8   8   8
#     4  10  20  36  57  82 114 147 185 230 278 329
#     4  10  20  34  59  84 111 147 187 229 276 334
#     4   9  19  33  56  83 108 146 189 225 278 328
#     4   9  19  34  55  82 111 145 186 233 269 333
#
# _framework density 24.545321000000001
#
# number of rings (size 3 to 8) (size 9 to 14) (size 15 to 20)
#    0.000    2.500    0.000    3.000   10.500    1.000 
#    0.000    1.250    0.000    0.000    0.000    0.000 
#    0.000    0.000    0.000    0.000    0.000    0.000 
#
# Total GULP energy -89144.109069 kJ/mol
# GULP energy per Si atom -5571.506817 kJ/mol
# Density = 2.448945 g / cm^3
# Si number density = 24.545321 Si / 1000 Ang^3
#
#
#
# Elastic Constant Matrix: (Units=GPa)
#
#
# Indices 1 2 3 4 5 6 
#
# 1 103.7108 27.4368 27.7480 0.0000 -36.4665 0.0000
# 2 27.4368 120.7820 15.2996 0.0000 -23.8059 0.0000
# 3 27.7480 15.2996 68.8134 0.0000 -1.8260 0.0000
# 4 0.0000 0.0000 0.0000 5.1615 0.0000 -6.5074
# 5 -36.4665 -23.8059 -1.8260 0.0000 54.2360 0.0000
# 6 0.0000 0.0000 0.0000 -6.5074 0.0000 14.8931
#
#
#
# Elastic Compliance Matrix: (Units=1/GPa)
#
#
# Indices 1 2 3 4 5 6 
#
# 1 0.014568 -0.000793 -0.005452 0.000000 0.009263 0.000000
# 2 -0.000793 0.009365 -0.001669 0.000000 0.003521 0.000000
# 3 -0.005452 -0.001669 0.017000 0.000000 -0.003826 0.000000
# 4 0.000000 0.000000 0.000000 0.431374 0.000000 0.188485
# 5 0.009263 0.003521 -0.003826 0.000000 0.026083 0.000000
# 6 0.000000 0.000000 0.000000 0.188485 0.000000 0.149502
#
#
# Mechanical properties :
#
#
# Convention : Reuss Voigt Hill
#
# Bulk Modulus (GPa) = 39.83289 48.25275 44.04282
# Shear Modulus (GPa) = 7.43950 29.71291 18.57621
#
# Velocity S-wave (km/s) = 1.74284 3.48305 2.75401
# Velocity P-wave (km/s) = 4.50705 5.98972 5.30049
#
# Compressibility (1/GPa) = 0.02510488
#
# Stress axis : x y z
#
# Youngs Moduli (GPa) = 68.64440 106.78133 58.82316
#
# Poissons Ratio (x) = 0.08466 0.32071
# Poissons Ratio (y) = 0.05442 0.09818
# Poissons Ratio (z) = 0.37426 0.17822
#
# Static dielectric constant tensor:
#      x y z
#    x 1.981390 0.000000 -0.069360 
#    y 0.000000 2.032250 0.000000 
#    z -0.069360 0.000000 2.296410 
# 
# From -- ./inp_files/28604.got.cif
#   From: 2010.05.17/outbox.cif.g08.bks.cpg/sg15_15_cif.got.tgz:28604.got - 2010.06.03 18:47:42.
