data_PCOD9269898
_publ_section_title
;
Structure prediction by ZEFSAII (Michael W. Deem and Ramdas Pophale) SiO2 
 PCOD9269898
Probable space group: C 2/C
;
_chemical_formula_sum "Si O2"
_cell_formula_units_Z 44
_cell_length_a 12.533927
_cell_length_b 20.673162
_cell_length_c 12.682968
_cell_angle_alpha 90.000000
_cell_angle_beta 46.658447
_cell_angle_gamma 90.000000
_cell_volume 2390.087142
_symmetry_space_group_name_H-M "C 2/C"
_symmetry_group_IT_number 15
_symmetry_cell_setting 'monoclinic'
loop_
_space_group_symop_operation_xyz
x,y,z
-x,y,1/2-z
-x,-y,-z
x,-y,1/2+z
1/2+x,1/2+y,z
1/2-x,1/2+y,1/2-z
1/2-x,1/2-y,-z
1/2+x,1/2-y,1/2+z
loop_
_atom_site_type_symbol
_atom_site_label
_atom_site_fract_x
_atom_site_fract_y
_atom_site_fract_z
Si Si1 0.919994 0.250575 0.410316
Si Si2 0.500000 0.815845 0.750000
Si Si3 0.092049 0.794475 0.352943
Si Si4 0.669961 0.076018 0.013598
Si Si5 0.000000 0.898675 0.250000
Si Si6 0.895854 0.632336 0.662959
Si Si7 0.500000 0.033839 0.750000
O O1 0.750000 0.250000 0.500000
O O2 0.958055 0.214134 0.492908
O O3 0.000000 0.227794 0.250000
O O4 0.965335 0.324192 0.403491
O O5 0.439710 0.769180 0.697044
O O6 0.372392 0.863175 0.881333
O O7 0.261497 0.816926 0.246082
O O8 0.017068 0.852334 0.339879
O O9 0.594571 0.012743 0.111180
O O10 0.597797 0.096243 0.952030
O O11 0.843646 0.067052 0.874133
O O12 0.890182 0.578638 0.757224
#
# Coordination Sequence:
#
# PCOD9269898 Si02
#       7
#     8   4   8   8   4   8   4
#     4  12  22  35  56  86 124 158 187 232 295 370
#     4  10  20  34  64  96 118 151 199 246 298 366
#     4  10  21  36  61  90 126 150 191 246 307 359
#     4  10  22  38  61  90 115 157 205 248 295 342
#     4   9  22  37  62  90 121 150 191 260 308 333
#     4  11  21  39  61  85 120 159 197 247 296 349
#     4  11  22  41  62  78 115 165 216 238 280 355
#
# _framework density 18.409369999999999
#
# number of rings (size 3 to 8) (size 9 to 14) (size 15 to 20)
#    0.000    1.455    4.545    0.545    2.545    2.182 
#    0.000    3.636    8.000    0.000    0.000    0.000 
#    0.000    0.000    0.000    0.000    0.000    0.000 
#
# Total GULP energy -122649.095453 kJ/mol
# GULP energy per Si atom -5574.958884 kJ/mol
# Density = 1.836747 g / cm^3
# Si number density = 18.409370 Si / 1000 Ang^3
#
#
#
# Elastic Constant Matrix: (Units=GPa)
#
#
# Indices 1 2 3 4 5 6 
#
# 1 105.7693 40.2527 57.4566 0.0000 8.6666 0.0000
# 2 40.2527 58.4163 26.7559 0.0000 -5.6762 0.0000
# 3 57.4566 26.7559 112.5299 0.0000 13.1441 0.0000
# 4 0.0000 0.0000 0.0000 15.5680 0.0000 13.4108
# 5 8.6666 -5.6762 13.1441 0.0000 43.2870 0.0000
# 6 0.0000 0.0000 0.0000 13.4108 0.0000 19.5252
#
#
#
# Elastic Compliance Matrix: (Units=1/GPa)
#
#
# Indices 1 2 3 4 5 6 
#
# 1 0.016177 -0.008702 -0.005888 0.000000 -0.002592 0.000000
# 2 -0.008702 0.024602 -0.002060 0.000000 0.005594 0.000000
# 3 -0.005888 -0.002060 0.012728 0.000000 -0.002956 0.000000
# 4 0.000000 0.000000 0.000000 0.157311 0.000000 -0.108049
# 5 -0.002592 0.005594 -0.002956 0.000000 0.025252 0.000000
# 6 0.000000 0.000000 0.000000 -0.108049 0.000000 0.125429
#
#
# Mechanical properties :
#
#
# Convention : Reuss Voigt Hill
#
# Bulk Modulus (GPa) = 49.48740 58.40511 53.94625
# Shear Modulus (GPa) = 12.45224 25.82607 19.13916
#
# Velocity S-wave (km/s) = 2.60361 3.74956 3.22785
# Velocity P-wave (km/s) = 5.99820 7.10917 6.57718
#
# Compressibility (1/GPa) = 0.02020716
#
# Stress axis : x y z
#
# Youngs Moduli (GPa) = 61.81496 40.64747 78.56748
#
# Poissons Ratio (x) = 0.35372 0.46261
# Poissons Ratio (y) = 0.53793 0.16182
# Poissons Ratio (z) = 0.36397 0.08372
#
# Static dielectric constant tensor:
#      x y z
#    x 1.649110 0.000000 0.004500 
#    y 0.000000 1.632480 0.000000 
#    z 0.004500 0.000000 1.662150 
# 
# From -- ./inp_files/30777.got.cif
#   From: 2010.05.17/outbox.cif.g08.bks.cpg/sg15_16_cif.got.tgz:30777.got - 2010.06.03 18:47:42.
