data_PCOD9269063
_publ_section_title
;
Structure prediction by ZEFSAII (Michael W. Deem and Ramdas Pophale) SiO2 
 PCOD9269063
Probable space group: C 2/C
;
_chemical_formula_sum "Si O2"
_cell_formula_units_Z 56
_cell_length_a 27.242884
_cell_length_b 18.320933
_cell_length_c 5.281312
_cell_angle_alpha 90.000000
_cell_angle_beta 117.906797
_cell_angle_gamma 90.000000
_cell_volume 2329.444231
_symmetry_space_group_name_H-M "C 2/C"
_symmetry_group_IT_number 15
_symmetry_cell_setting 'monoclinic'
loop_
_space_group_symop_operation_xyz
x,y,z
-x,y,1/2-z
-x,-y,-z
x,-y,1/2+z
1/2+x,1/2+y,z
1/2-x,1/2+y,1/2-z
1/2-x,1/2-y,-z
1/2+x,1/2-y,1/2+z
loop_
_atom_site_type_symbol
_atom_site_label
_atom_site_fract_x
_atom_site_fract_y
_atom_site_fract_z
Si Si1 0.878142 0.980575 0.958545
Si Si2 0.870431 0.367924 0.006222
Si Si3 0.475070 0.080474 0.939054
Si Si4 0.374625 0.319286 0.040909
Si Si5 0.742228 0.542483 0.826446
Si Si6 0.686624 0.166855 0.634004
Si Si7 0.563424 0.716807 0.312302
O O1 0.910989 0.996988 0.785542
O O2 0.823778 0.031862 0.827536
O O3 0.853952 0.899158 0.917209
O O4 0.909752 0.427330 0.233307
O O5 0.822192 0.352841 0.093006
O O6 0.909866 0.297252 0.118143
O O7 0.853872 0.372707 0.672623
O O8 0.500000 0.116226 0.750000
O O9 0.500000 0.117697 0.250000
O O10 0.500000 0.000000 0.000000
O O11 0.400956 0.323261 0.383369
O O12 0.329904 0.252523 0.927882
O O13 0.422050 0.305943 0.940536
O O14 0.763588 0.494010 0.639279
O O15 0.756956 0.627429 0.817914
O O16 0.500000 0.713129 0.250000
#
# Coordination Sequence:
#
# PCOD9269063 Si02
#       7
#     8   8   8   8   8   8   8
#     4  10  21  40  66  90 122 160 195 246 313 377
#     4  10  20  35  55  79 112 159 200 252 300 345
#     4  10  20  34  45  66 105 142 203 240 279 344
#     4  10  21  38  63  93 120 161 212 247 299 368
#     4  10  21  40  58  86 121 156 199 247 317 368
#     4  10  21  38  57  85 119 153 206 253 297 362
#     4  10  20  35  61  89 122 159 202 258 302 352
#
# _framework density 24.04007
#
# number of rings (size 3 to 8) (size 9 to 14) (size 15 to 20)
#    0.000    2.000    0.000    3.429    0.000    2.286 
#   15.429    5.714    0.000    8.571    0.000    0.000 
#    0.000    0.000    0.000    0.000    0.000    0.000 
#
# Total GULP energy -156083.173408 kJ/mol
# GULP energy per Si atom -5574.399050 kJ/mol
# Density = 2.398535 g / cm^3
# Si number density = 24.040070 Si / 1000 Ang^3
#
#
#
# Elastic Constant Matrix: (Units=GPa)
#
#
# Indices 1 2 3 4 5 6 
#
# 1 53.2762 15.1856 15.5205 0.0000 -16.0129 0.0000
# 2 15.1856 65.2770 15.3617 0.0000 1.8395 0.0000
# 3 15.5205 15.3617 119.0024 0.0000 -49.8174 0.0000
# 4 0.0000 0.0000 0.0000 3.1574 0.0000 -11.2982
# 5 -16.0129 1.8395 -49.8174 0.0000 42.3332 0.0000
# 6 0.0000 0.0000 0.0000 -11.2982 0.0000 1.9096
#
#
#
# Elastic Compliance Matrix: (Units=1/GPa)
#
#
# Indices 1 2 3 4 5 6 
#
# 1 0.023632 -0.006623 0.003223 0.000000 0.013020 0.000000
# 2 -0.006623 0.018493 -0.005733 0.000000 -0.010055 0.000000
# 3 0.003223 -0.005733 0.018404 0.000000 0.023126 0.000000
# 4 0.000000 0.000000 0.000000 -0.015701 0.000000 -0.092898
# 5 0.013020 -0.010055 0.023126 0.000000 0.056199 0.000000
# 6 0.000000 0.000000 0.000000 -0.092898 0.000000 -0.025962
#
#
# Mechanical properties :
#
#
# Convention : Reuss Voigt Hill
#
# Bulk Modulus (GPa) = 23.66076 36.63235 30.14655
# Shear Modulus (GPa) = 46.54756 22.24589 34.39672
#
# Velocity S-wave (km/s) = 4.40506 3.04528 3.78671
# Velocity P-wave (km/s) = 5.97798 5.25701 5.62905
#
# Compressibility (1/GPa) = 0.04226407
#
# Stress axis : x y z
#
# Youngs Moduli (GPa) = 42.31491 54.07596 54.33632
#
# Poissons Ratio (x) = 0.35815 -0.17515
# Poissons Ratio (y) = 0.28026 0.31149
# Poissons Ratio (z) = -0.13640 0.30999
#
# Static dielectric constant tensor:
#      x y z
#    x 1.989470 0.000000 -0.005450 
#    y 0.000000 1.945040 0.000000 
#    z -0.005450 0.000000 2.216530 
# 
# From -- ./inp_files/18483.got.cif
#   From: 2010.05.17/outbox.cif.g08.bks.cpg/sg15_10_cif.got.tgz:18483.got - 2010.06.03 18:47:42.
