data_PCOD9269007
_publ_section_title
;
Structure prediction by ZEFSAII (Michael W. Deem and Ramdas Pophale) SiO2 
 PCOD9269007
Probable space group: C 2/C
;
_chemical_formula_sum "Si O2"
_cell_formula_units_Z 64
_cell_length_a 24.099801
_cell_length_b 25.223826
_cell_length_c 11.182617
_cell_angle_alpha 90.000000
_cell_angle_beta 151.831042
_cell_angle_gamma 90.000000
_cell_volume 3209.055528
_symmetry_space_group_name_H-M "C 2/C"
_symmetry_group_IT_number 15
_symmetry_cell_setting 'monoclinic'
loop_
_space_group_symop_operation_xyz
x,y,z
-x,y,1/2-z
-x,-y,-z
x,-y,1/2+z
1/2+x,1/2+y,z
1/2-x,1/2+y,1/2-z
1/2-x,1/2-y,-z
1/2+x,1/2-y,1/2+z
loop_
_atom_site_type_symbol
_atom_site_label
_atom_site_fract_x
_atom_site_fract_y
_atom_site_fract_z
Si Si1 0.572030 0.786188 0.105950
Si Si2 0.605671 0.337728 0.720482
Si Si3 0.842316 0.824205 0.256909
Si Si4 0.289211 0.857361 0.279364
Si Si5 0.865788 0.526627 0.872224
Si Si6 0.667242 0.205579 0.229014
Si Si7 0.682156 0.139877 0.018985
Si Si8 0.629770 0.020237 0.880352
O O1 0.600784 0.724892 0.180125
O O2 0.624876 0.808250 0.084053
O O3 0.634750 0.819100 0.330462
O O4 0.436068 0.798961 0.869344
O O5 0.469025 0.350189 0.480680
O O6 0.679881 0.364958 0.754791
O O7 0.677696 0.349471 0.978780
O O8 0.756583 0.859734 0.173254
O O9 0.846055 0.767277 0.334257
O O10 0.787111 0.807573 0.025393
O O11 0.356280 0.910394 0.368072
O O12 0.814862 0.511492 0.645506
O O13 0.809756 0.502285 0.885561
O O14 0.000644 0.506431 0.128443
O O15 0.656966 0.165994 0.098815
O O16 0.621818 0.083277 0.885952
#
# Coordination Sequence:
#
# PCOD9269007 Si02
#       8
#     8   8   8   8   8   8   8   8
#     4  10  20  33  59  91 124 154 202 246 303 379
#     4  10  20  37  60  87 119 163 207 246 290 372
#     4  10  22  38  54  88 127 165 207 245 296 371
#     4  11  20  37  59  86 117 160 204 247 313 366
#     4  10  22  37  57  87 119 158 199 263 322 384
#     4  10  22  34  55  90 131 163 197 248 307 370
#     4  11  20  36  61  88 120 163 201 247 318 376
#     4  10  22  38  58  87 126 150 202 261 326 383
#
# _framework density 19.943563999999999
#
# number of rings (size 3 to 8) (size 9 to 14) (size 15 to 20)
#    0.000    1.750    2.500    3.750    3.500    6.000 
#    0.000    3.750    0.000    0.750    3.250    0.000 
#    0.000    0.000    0.000    0.000    0.000    0.000 
#
# Total GULP energy -178462.175141 kJ/mol
# GULP energy per Si atom -5576.942973 kJ/mol
# Density = 1.989817 g / cm^3
# Si number density = 19.943564 Si / 1000 Ang^3
#
#
#
# Elastic Constant Matrix: (Units=GPa)
#
#
# Indices 1 2 3 4 5 6 
#
# 1 81.5947 25.3812 22.8988 0.0000 5.8270 0.0000
# 2 25.3812 59.2531 17.0011 0.0000 5.9016 0.0000
# 3 22.8988 17.0011 57.5227 0.0000 10.9499 0.0000
# 4 0.0000 0.0000 0.0000 22.0583 0.0000 2.8630
# 5 5.8270 5.9016 10.9499 0.0000 23.8712 0.0000
# 6 0.0000 0.0000 0.0000 2.8630 0.0000 26.1767
#
#
#
# Elastic Compliance Matrix: (Units=1/GPa)
#
#
# Indices 1 2 3 4 5 6 
#
# 1 0.015134 -0.005176 -0.004421 0.000000 -0.000387 0.000000
# 2 -0.005176 0.020322 -0.003539 0.000000 -0.002137 0.000000
# 3 -0.004421 -0.003539 0.021715 0.000000 -0.008006 0.000000
# 4 0.000000 0.000000 0.000000 0.045987 0.000000 -0.005030
# 5 -0.000387 -0.002137 -0.008006 0.000000 0.046187 0.000000
# 6 0.000000 0.000000 0.000000 -0.005030 0.000000 0.038752
#
#
# Mechanical properties :
#
#
# Convention : Reuss Voigt Hill
#
# Bulk Modulus (GPa) = 32.36390 36.54808 34.45599
# Shear Modulus (GPa) = 22.25500 23.29385 22.77443
#
# Velocity S-wave (km/s) = 3.34413 3.42129 3.38293
# Velocity P-wave (km/s) = 5.58336 5.82860 5.70730
#
# Compressibility (1/GPa) = 0.03089862
#
# Stress axis : x y z
#
# Youngs Moduli (GPa) = 66.07614 49.20759 46.05200
#
# Poissons Ratio (x) = 0.25468 0.20361
# Poissons Ratio (y) = 0.34198 0.16298
# Poissons Ratio (z) = 0.29214 0.17415
#
# Static dielectric constant tensor:
#      x y z
#    x 1.764640 0.000000 0.013290 
#    y 0.000000 1.705620 0.000000 
#    z 0.013290 0.000000 1.744270 
# 
# From -- ./inp_files/120272.got.cif
#   From: 2010.05.17/outbox.cif.g08.bks.cpg/sg15_61_cif.got.tgz:120272.got - 2010.06.03 18:47:42.
