data_PCOD9269461
_publ_section_title
;
Structure prediction by ZEFSAII (Michael W. Deem and Ramdas Pophale) SiO2 
 PCOD9269461
Probable space group: C 2/C
;
_chemical_formula_sum "Si O2"
_cell_formula_units_Z 56
_cell_length_a 12.571243
_cell_length_b 27.684759
_cell_length_c 7.349539
_cell_angle_alpha 90.000000
_cell_angle_beta 113.643806
_cell_angle_gamma 90.000000
_cell_volume 2343.156343
_symmetry_space_group_name_H-M "C 2/C"
_symmetry_group_IT_number 15
_symmetry_cell_setting 'monoclinic'
loop_
_space_group_symop_operation_xyz
x,y,z
-x,y,1/2-z
-x,-y,-z
x,-y,1/2+z
1/2+x,1/2+y,z
1/2-x,1/2+y,1/2-z
1/2-x,1/2-y,-z
1/2+x,1/2-y,1/2+z
loop_
_atom_site_type_symbol
_atom_site_label
_atom_site_fract_x
_atom_site_fract_y
_atom_site_fract_z
Si Si1 0.810683 0.371162 0.824763
Si Si2 0.364536 0.567487 0.199418
Si Si3 0.406824 0.230045 0.443973
Si Si4 0.334101 0.770568 0.303741
Si Si5 0.507438 0.944093 0.539630
Si Si6 0.204721 0.380054 0.122766
Si Si7 0.864752 0.960584 0.117233
O O1 0.692565 0.379103 0.856059
O O2 0.893788 0.327678 0.932983
O O3 0.799531 0.368454 0.598262
O O4 0.872065 0.420606 0.927301
O O5 0.500000 0.571164 0.250000
O O6 0.320618 0.515966 0.088803
O O7 0.350320 0.557683 0.404084
O O8 0.544402 0.240473 0.502192
O O9 0.372980 0.244935 0.626656
O O10 0.293391 0.246811 0.247816
O O11 0.305606 0.827783 0.294015
O O12 0.500000 0.937279 0.750000
O O13 0.404107 0.912340 0.390769
O O14 0.500000 0.000000 0.500000
O O15 0.309002 0.419373 0.208218
O O16 0.000000 0.963752 0.250000
#
# Coordination Sequence:
#
# PCOD9269461 Si02
#       7
#     8   8   8   8   8   8   8
#     4  10  21  38  59  86 120 158 204 250 307 368
#     4  10  20  35  55  84 118 162 203 249 303 358
#     4  10  22  42  64  92 123 157 204 254 311 373
#     4  10  22  42  65  91 123 159 201 256 312 369
#     4  10  20  34  56  86 121 157 198 247 301 365
#     4  10  21  38  59  85 122 159 200 255 305 365
#     4  10  20  35  55  82 120 159 206 250 299 365
#
# _framework density 23.899388999999999
#
# number of rings (size 3 to 8) (size 9 to 14) (size 15 to 20)
#    0.000    2.000    1.429    2.571    0.000    4.000 
#   10.286    0.000    0.000    0.000    0.000    0.000 
#    0.000    0.000    0.000    0.000    0.000    0.000 
#
# Total GULP energy -156047.706970 kJ/mol
# GULP energy per Si atom -5573.132392 kJ/mol
# Density = 2.384499 g / cm^3
# Si number density = 23.899389 Si / 1000 Ang^3
#
#
#
# Elastic Constant Matrix: (Units=GPa)
#
#
# Indices 1 2 3 4 5 6 
#
# 1 115.4781 37.6625 28.8617 0.0000 29.1335 0.0000
# 2 37.6625 87.1320 9.6562 0.0000 24.4875 0.0000
# 3 28.8617 9.6562 48.0472 0.0000 12.8982 0.0000
# 4 0.0000 0.0000 0.0000 35.0051 0.0000 10.3910
# 5 29.1335 24.4875 12.8982 0.0000 37.4752 0.0000
# 6 0.0000 0.0000 0.0000 10.3910 0.0000 33.2426
#
#
#
# Elastic Compliance Matrix: (Units=1/GPa)
#
#
# Indices 1 2 3 4 5 6 
#
# 1 0.012486 -0.003178 -0.005303 0.000000 -0.005805 0.000000
# 2 -0.003178 0.014874 0.000954 0.000000 -0.007577 0.000000
# 3 -0.005303 0.000954 0.025195 0.000000 -0.005172 0.000000
# 4 0.000000 0.000000 0.000000 0.031489 0.000000 -0.009843
# 5 -0.005805 -0.007577 -0.005172 0.000000 0.037928 0.000000
# 6 0.000000 0.000000 0.000000 -0.009843 0.000000 0.033159
#
#
# Mechanical properties :
#
#
# Convention : Reuss Voigt Hill
#
# Bulk Modulus (GPa) = 26.66636 44.77978 35.72307
# Shear Modulus (GPa) = 27.36926 32.77639 30.07283
#
# Velocity S-wave (km/s) = 3.38773 3.70730 3.55111
# Velocity P-wave (km/s) = 5.14629 6.09122 5.63858
#
# Compressibility (1/GPa) = 0.03750043
#
# Stress axis : x y z
#
# Youngs Moduli (GPa) = 80.08919 67.23038 39.68998
#
# Poissons Ratio (x) = 0.21365 0.21049
# Poissons Ratio (y) = 0.25452 -0.03785
# Poissons Ratio (z) = 0.42474 -0.06412
#
# Static dielectric constant tensor:
#      x y z
#    x 2.032210 0.000000 0.073980 
#    y 0.000000 1.890650 0.000000 
#    z 0.073980 0.000000 2.046330 
# 
# From -- ./inp_files/35318.got.cif
#   From: 2010.05.17/outbox.cif.g08.bks.cpg/sg15_18_cif.got.tgz:35318.got - 2010.06.03 18:47:42.
