data_PCOD9269217
_publ_section_title
;
Structure prediction by ZEFSAII (Michael W. Deem and Ramdas Pophale) SiO2 
 PCOD9269217
Probable space group: C 2/C
;
_chemical_formula_sum "Si O2"
_cell_formula_units_Z 48
_cell_length_a 25.361086
_cell_length_b 10.965602
_cell_length_c 21.928007
_cell_angle_alpha 90.000000
_cell_angle_beta 20.646055
_cell_angle_gamma 90.000000
_cell_volume 2150.177649
_symmetry_space_group_name_H-M "C 2/C"
_symmetry_group_IT_number 15
_symmetry_cell_setting 'monoclinic'
loop_
_space_group_symop_operation_xyz
x,y,z
-x,y,1/2-z
-x,-y,-z
x,-y,1/2+z
1/2+x,1/2+y,z
1/2-x,1/2+y,1/2-z
1/2-x,1/2-y,-z
1/2+x,1/2-y,1/2+z
loop_
_atom_site_type_symbol
_atom_site_label
_atom_site_fract_x
_atom_site_fract_y
_atom_site_fract_z
Si Si1 0.313962 0.994866 0.601892
Si Si2 0.658493 0.384338 0.656632
Si Si3 0.347327 0.514147 0.591729
Si Si4 0.955301 0.272157 0.510146
Si Si5 0.699306 0.618784 0.978375
Si Si6 0.344084 0.251072 0.602669
O O1 0.213708 0.968429 0.651879
O O2 0.420785 0.878875 0.499823
O O3 0.226232 0.001301 0.761652
O O4 0.379346 0.131282 0.526094
O O5 0.481264 0.374845 0.835327
O O6 0.726139 0.427228 0.518187
O O7 0.724004 0.251322 0.603431
O O8 0.443377 0.636834 0.496643
O O9 0.253466 0.540275 0.631697
O O10 0.417144 0.379868 0.506255
O O11 0.832852 0.277499 0.697818
O O12 0.110520 0.281922 0.376865
#
# Coordination Sequence:
#
# PCOD9269217 Si02
#       6
#     8   8   8   8   8   8
#     4  10  21  36  57  88 121 153 195 244 294 347
#     4  10  22  40  61  90 117 158 198 249 293 355
#     4  10  21  34  59  86 116 155 193 242 290 349
#     4  10  20  34  53  82 117 151 191 239 291 340
#     4  10  22  39  63  87 120 154 203 244 298 349
#     4  10  22  34  51  86 116 152 189 241 293 344
#
# _framework density 22.323737000000001
#
# number of rings (size 3 to 8) (size 9 to 14) (size 15 to 20)
#    0.000    2.000    1.667    1.000    9.333    0.000 
#    6.000    0.833    0.000    0.000    0.000    0.000 
#    0.000    0.000    0.000    0.000    0.000    0.000 
#
# Total GULP energy -133813.878311 kJ/mol
# GULP energy per Si atom -5575.578263 kJ/mol
# Density = 2.227293 g / cm^3
# Si number density = 22.323737 Si / 1000 Ang^3
#
#
#
# Elastic Constant Matrix: (Units=GPa)
#
#
# Indices 1 2 3 4 5 6 
#
# 1 183.5115 77.5747 34.7055 0.0007 18.9428 -0.0003
# 2 77.5747 182.7048 17.3517 0.0008 -8.5251 -0.0004
# 3 34.7055 17.3517 35.1781 0.0005 0.9159 -0.0004
# 4 0.0007 0.0008 0.0005 13.7180 -0.0005 -0.0898
# 5 18.9428 -8.5251 0.9159 -0.0005 33.3989 0.0003
# 6 -0.0003 -0.0004 -0.0004 -0.0898 0.0003 42.3780
#
#
#
# Elastic Compliance Matrix: (Units=1/GPa)
#
#
# Indices 1 2 3 4 5 6 
#
# 1 0.008719 -0.003316 -0.006821 0.000000 -0.005605 0.000000
# 2 -0.003316 0.007084 -0.000319 0.000000 0.003698 0.000000
# 3 -0.006821 -0.000319 0.035240 -0.000001 0.002821 0.000000
# 4 0.000000 0.000000 -0.000001 0.072898 0.000001 0.000154
# 5 -0.005605 0.003698 0.002821 0.000001 0.033986 0.000000
# 6 0.000000 0.000000 0.000000 0.000154 0.000000 0.023597
#
#
# Mechanical properties :
#
#
# Convention : Reuss Voigt Hill
#
# Bulk Modulus (GPa) = 33.18761 73.40647 53.29704
# Shear Modulus (GPa) = 23.53150 36.01647 29.77398
#
# Velocity S-wave (km/s) = 3.25022 4.02104 3.65600
# Velocity P-wave (km/s) = 5.38368 7.38325 6.46128
#
# Compressibility (1/GPa) = 0.03013172
#
# Stress axis : x y z
#
# Youngs Moduli (GPa) = 114.68591 141.16183 28.37691
#
# Poissons Ratio (x) = 0.46808 0.19355
# Poissons Ratio (y) = 0.38029 0.00906
# Poissons Ratio (z) = 0.78225 0.04505
#
# Static dielectric constant tensor:
#      x y z
#    x 1.820140 0.000000 0.016440 
#    y 0.000000 1.864480 0.000000 
#    z 0.016440 0.000000 1.938270 
# 
# From -- ./inp_files/255335.got.cif
#   From: 2010.05.17/outbox.cif.g08.bks.cpg/sg15_128_cif.got.tgz:255335.got - 2010.06.03 18:47:42.
