data_PCOD9269463
_publ_section_title
;
Structure prediction by ZEFSAII (Michael W. Deem and Ramdas Pophale) SiO2 
 PCOD9269463
Probable space group: C 2/C
;
_chemical_formula_sum "Si O2"
_cell_formula_units_Z 56
_cell_length_a 8.939632
_cell_length_b 22.031532
_cell_length_c 14.592387
_cell_angle_alpha 90.000000
_cell_angle_beta 73.088213
_cell_angle_gamma 90.000000
_cell_volume 2749.735089
_symmetry_space_group_name_H-M "C 2/C"
_symmetry_group_IT_number 15
_symmetry_cell_setting 'monoclinic'
loop_
_space_group_symop_operation_xyz
x,y,z
-x,y,1/2-z
-x,-y,-z
x,-y,1/2+z
1/2+x,1/2+y,z
1/2-x,1/2+y,1/2-z
1/2-x,1/2-y,-z
1/2+x,1/2-y,1/2+z
loop_
_atom_site_type_symbol
_atom_site_label
_atom_site_fract_x
_atom_site_fract_y
_atom_site_fract_z
Si Si1 0.221093 0.431176 0.301986
Si Si2 0.587963 0.978559 0.077215
Si Si3 0.391831 0.727022 0.690386
Si Si4 0.606892 0.203152 0.022728
Si Si5 0.194098 0.920238 0.008890
Si Si6 0.096999 0.706854 0.824207
Si Si7 0.656903 0.604723 0.907510
O O1 0.304999 0.441526 0.384183
O O2 0.163994 0.361344 0.314858
O O3 0.319197 0.433363 0.191594
O O4 0.060862 0.469400 0.330893
O O5 0.692264 0.916545 0.060176
O O6 0.720200 0.029411 0.067288
O O7 0.500000 0.000000 0.000000
O O8 0.500000 0.697038 0.750000
O O9 0.485358 0.779505 0.622785
O O10 0.244691 0.749352 0.775209
O O11 0.346349 0.675079 0.624922
O O12 0.528807 0.214739 0.936902
O O13 0.750000 0.250000 0.000000
O O14 0.692019 0.138320 0.014700
O O15 0.012991 0.907694 0.018656
O O16 0.000000 0.711982 0.750000
#
# Coordination Sequence:
#
# PCOD9269463 Si02
#       7
#     8   8   8   8   8   8   8
#     4   9  18  34  56  81 112 141 187 253 299 345
#     4  10  21  35  51  78 116 147 182 240 305 358
#     4  11  20  35  61  91 119 158 205 261 313 364
#     4  11  20  37  60  87 125 160 201 255 317 371
#     4  10  20  34  56  87 114 150 195 240 305 374
#     4  10  20  34  56  88 116 151 206 258 301 364
#     4  11  18  32  58  84 106 144 200 249 289 347
#
# _framework density 20.365599
#
# number of rings (size 3 to 8) (size 9 to 14) (size 15 to 20)
#    0.000    1.714    2.857    4.714    0.000    0.571 
#    0.000    1.429    0.000    0.000    0.000    0.000 
#    0.000    0.000    0.000    0.000    0.000    0.000 
#
# Total GULP energy -155888.145974 kJ/mol
# GULP energy per Si atom -5567.433785 kJ/mol
# Density = 2.031925 g / cm^3
# Si number density = 20.365599 Si / 1000 Ang^3
#
#
#
# Elastic Constant Matrix: (Units=GPa)
#
#
# Indices 1 2 3 4 5 6 
#
# 1 83.3631 7.2288 15.5977 0.0000 -1.1492 0.0000
# 2 7.2288 44.5653 24.7356 0.0000 -7.7578 0.0000
# 3 15.5977 24.7356 61.7179 0.0000 -12.5605 0.0000
# 4 0.0000 0.0000 0.0000 29.8182 0.0000 -10.1455
# 5 -1.1492 -7.7578 -12.5605 0.0000 46.6556 0.0000
# 6 0.0000 0.0000 0.0000 -10.1455 0.0000 22.8876
#
#
#
# Elastic Compliance Matrix: (Units=1/GPa)
#
#
# Indices 1 2 3 4 5 6 
#
# 1 0.012611 -0.000403 -0.003149 0.000000 -0.000604 0.000000
# 2 -0.000403 0.029012 -0.011157 0.000000 0.001810 0.000000
# 3 -0.003149 -0.011157 0.022299 0.000000 0.004070 0.000000
# 4 0.000000 0.000000 0.000000 0.039493 0.000000 0.017506
# 5 -0.000604 0.001810 0.004070 0.000000 0.022816 0.000000
# 6 0.000000 0.000000 0.000000 0.017506 0.000000 0.051452
#
#
# Mechanical properties :
#
#
# Convention : Reuss Voigt Hill
#
# Bulk Modulus (GPa) = 28.98209 31.64118 30.31164
# Shear Modulus (GPa) = 22.87257 29.34457 26.10857
#
# Velocity S-wave (km/s) = 3.35490 3.80002 3.58438
# Velocity P-wave (km/s) = 5.41008 5.90118 5.66096
#
# Compressibility (1/GPa) = 0.03450407
#
# Stress axis : x y z
#
# Youngs Moduli (GPa) = 79.29293 34.46805 44.84596
#
# Poissons Ratio (x) = 0.01390 0.14120
# Poissons Ratio (y) = 0.03197 0.50036
# Poissons Ratio (z) = 0.24966 0.38457
#
# Static dielectric constant tensor:
#      x y z
#    x 1.847810 0.000000 0.010630 
#    y 0.000000 1.764060 0.000000 
#    z 0.010630 0.000000 1.777380 
# 
# From -- ./inp_files/138213.got.cif
#   From: 2010.05.17/outbox.cif.g08.bks.cpg/sg15_70_cif.got.tgz:138213.got - 2010.06.03 18:47:42.
