data_PCOD9269091
_publ_section_title
;
Structure prediction by ZEFSAII (Michael W. Deem and Ramdas Pophale) SiO2 
 PCOD9269091
Probable space group: C 2/C
;
_chemical_formula_sum "Si O2"
_cell_formula_units_Z 36
_cell_length_a 13.845501
_cell_length_b 24.648059
_cell_length_c 13.757742
_cell_angle_alpha 90.000000
_cell_angle_beta 159.191316
_cell_angle_gamma 90.000000
_cell_volume 1667.903771
_symmetry_space_group_name_H-M "C 2/C"
_symmetry_group_IT_number 15
_symmetry_cell_setting 'monoclinic'
loop_
_space_group_symop_operation_xyz
x,y,z
-x,y,1/2-z
-x,-y,-z
x,-y,1/2+z
1/2+x,1/2+y,z
1/2-x,1/2+y,1/2-z
1/2-x,1/2-y,-z
1/2+x,1/2-y,1/2+z
loop_
_atom_site_type_symbol
_atom_site_label
_atom_site_fract_x
_atom_site_fract_y
_atom_site_fract_z
Si Si1 0.000000 0.710008 0.250000
Si Si2 0.236380 0.054627 0.052035
Si Si3 0.565563 0.603795 0.099953
Si Si4 0.970707 0.456987 0.383775
Si Si5 0.151064 0.711624 0.180936
O O1 0.921701 0.686114 0.280978
O O2 0.250000 0.750000 0.500000
O O3 0.500000 0.081485 0.250000
O O4 0.140020 0.081443 0.061904
O O5 0.338633 0.994808 0.178286
O O6 0.000000 0.054493 0.750000
O O7 0.689013 0.663857 0.223271
O O8 0.730671 0.568782 0.335624
O O9 0.245498 0.591561 0.804647
O O10 0.000000 0.500000 0.500000
O O11 0.363047 0.762112 0.380631
#
# Coordination Sequence:
#
# PCOD9269091 Si02
#       5
#     4   8   8   8   8
#     4   8  16  30  44  62  96 138 166 214 256 270
#     4  11  21  34  53  79 105 135 178 221 257 320
#     4  11  21  35  55  76 108 148 178 212 268 319
#     4  10  20  37  54  74 107 140 173 220 278 314
#     4  10  20  34  50  73 106 141 183 222 251 297
#
# _framework density 21.58398
#
# number of rings (size 3 to 8) (size 9 to 14) (size 15 to 20)
#    0.000    1.778    0.000    8.000    1.556    0.000 
#    8.000    0.000    0.000    0.000    0.000    0.000 
#    0.000   62.222    0.000    0.000    0.000    0.000 
#
# Total GULP energy -100235.807923 kJ/mol
# GULP energy per Si atom -5568.655996 kJ/mol
# Density = 2.153485 g / cm^3
# Si number density = 21.583980 Si / 1000 Ang^3
#
#
#
# Elastic Constant Matrix: (Units=GPa)
#
#
# Indices 1 2 3 4 5 6 
#
# 1 15.7028 1.3007 16.3689 -0.0015 8.6683 0.0007
# 2 1.3007 59.6416 3.5531 -0.0035 -4.4506 -0.0013
# 3 16.3689 3.5531 159.5237 -0.0108 4.4379 -0.0010
# 4 -0.0015 -0.0035 -0.0108 12.2444 -0.0019 16.9014
# 5 8.6683 -4.4506 4.4379 -0.0019 23.4222 -0.0016
# 6 0.0007 -0.0013 -0.0010 16.9014 -0.0016 25.3941
#
#
#
# Elastic Compliance Matrix: (Units=1/GPa)
#
#
# Indices 1 2 3 4 5 6 
#
# 1 0.090760 -0.003929 -0.008314 0.000054 -0.032760 -0.000041
# 2 -0.003929 0.017213 -0.000112 0.000042 0.004746 -0.000027
# 3 -0.008314 -0.000112 0.007077 0.000057 0.001715 -0.000037
# 4 0.000054 0.000042 0.000057 1.004547 0.000014 -0.668590
# 5 -0.032760 0.004746 0.001715 0.000014 0.055396 -0.000004
# 6 -0.000041 -0.000027 -0.000037 -0.668590 -0.000004 0.484369
#
#
# Mechanical properties :
#
#
# Convention : Reuss Voigt Hill
#
# Bulk Modulus (GPa) = 11.06937 30.81260 20.94098
# Shear Modulus (GPa) = 2.91684 26.45517 14.68600
#
# Velocity S-wave (km/s) = 1.16375 3.50478 2.61130
# Velocity P-wave (km/s) = 2.63541 5.53937 4.33763
#
# Compressibility (1/GPa) = 0.09033940
#
# Stress axis : x y z
#
# Youngs Moduli (GPa) = 11.01812 58.09441 141.31116
#
# Poissons Ratio (x) = 0.22823 1.17487
# Poissons Ratio (y) = 0.04329 0.01587
# Poissons Ratio (z) = 0.09161 0.00652
#
# Static dielectric constant tensor:
#      x y z
#    x 1.790850 -0.000010 -0.023800 
#    y -0.000010 1.858620 0.000000 
#    z -0.023800 0.000000 1.757110 
# 
# From -- ./inp_files/156712.got.cif
#   From: 2010.05.17/outbox.cif.g08.bks.cpg/sg15_79_cif.got.tgz:156712.got - 2010.06.03 18:47:42.
