data_PCOD9269212
_publ_section_title
;
Structure prediction by ZEFSAII (Michael W. Deem and Ramdas Pophale) SiO2 
 PCOD9269212
Probable space group: C 2/C
;
_chemical_formula_sum "Si O2"
_cell_formula_units_Z 40
_cell_length_a 9.185918
_cell_length_b 28.393143
_cell_length_c 8.635482
_cell_angle_alpha 90.000000
_cell_angle_beta 116.061666
_cell_angle_gamma 90.000000
_cell_volume 2023.273143
_symmetry_space_group_name_H-M "C 2/C"
_symmetry_group_IT_number 15
_symmetry_cell_setting 'monoclinic'
loop_
_space_group_symop_operation_xyz
x,y,z
-x,y,1/2-z
-x,-y,-z
x,-y,1/2+z
1/2+x,1/2+y,z
1/2-x,1/2+y,1/2-z
1/2-x,1/2-y,-z
1/2+x,1/2-y,1/2+z
loop_
_atom_site_type_symbol
_atom_site_label
_atom_site_fract_x
_atom_site_fract_y
_atom_site_fract_z
Si Si1 0.328490 0.197328 0.237289
Si Si2 0.186355 0.115965 0.384847
Si Si3 0.330647 0.699663 0.664610
Si Si4 0.487043 0.052406 0.427589
Si Si5 0.837388 0.619397 0.772188
O O1 0.500000 0.178056 0.250000
O O2 0.255832 0.164371 0.337132
O O3 0.357659 0.253086 0.279420
O O4 0.208074 0.202988 0.035093
O O5 0.314286 0.076448 0.387921
O O6 0.199721 0.114495 0.577698
O O7 0.000000 0.109677 0.250000
O O8 0.500000 0.672291 0.750000
O O9 0.184757 0.670510 0.666401
O O10 0.500000 0.052021 0.250000
O O11 0.631534 0.082501 0.576070
O O12 0.500000 0.000000 0.500000
O O13 0.000000 0.616477 0.750000
#
# Coordination Sequence:
#
# PCOD9269212 Si02
#       5
#     8   8   8   8   8
#     4  10  20  35  55  79 115 162 201 237 290 350
#     4  11  22  37  59  90 121 151 196 247 292 342
#     4  10  20  34  53  81 115 156 204 244 286 343
#     4  11  23  44  68  87 115 155 196 240 299 363
#     4  10  21  36  57  85 117 154 196 239 296 354
#
# _framework density 19.769945
#
# number of rings (size 3 to 8) (size 9 to 14) (size 15 to 20)
#    0.000    1.600    0.000    7.200    0.000    1.600 
#    0.000    5.000    0.000    0.000    0.000    0.000 
#    0.000    0.000    0.000    0.000    0.000    0.000 
#
# Total GULP energy -111402.829352 kJ/mol
# GULP energy per Si atom -5570.141468 kJ/mol
# Density = 1.972495 g / cm^3
# Si number density = 19.769945 Si / 1000 Ang^3
#
#
#
# Elastic Constant Matrix: (Units=GPa)
#
#
# Indices 1 2 3 4 5 6 
#
# 1 53.9634 29.4792 47.1731 0.0000 17.5406 0.0000
# 2 29.4792 115.6118 47.3396 0.0000 -8.9901 0.0000
# 3 47.1731 47.3396 144.1356 0.0000 4.7297 0.0000
# 4 0.0000 0.0000 0.0000 30.8731 0.0000 5.6227
# 5 17.5406 -8.9901 4.7297 0.0000 38.7831 0.0000
# 6 0.0000 0.0000 0.0000 5.6227 0.0000 19.4688
#
#
#
# Elastic Compliance Matrix: (Units=1/GPa)
#
#
# Indices 1 2 3 4 5 6 
#
# 1 0.035164 -0.006640 -0.008791 0.000000 -0.016371 0.000000
# 2 -0.006640 0.011543 -0.001812 0.000000 0.005900 0.000000
# 3 -0.008791 -0.001812 0.010335 0.000000 0.002295 0.000000
# 4 0.000000 0.000000 0.000000 0.034189 0.000000 -0.009874
# 5 -0.016371 0.005900 0.002295 0.000000 0.034276 0.000000
# 6 0.000000 0.000000 0.000000 -0.009874 0.000000 0.054216
#
#
# Mechanical properties :
#
#
# Convention : Reuss Voigt Hill
#
# Bulk Modulus (GPa) = 44.33087 62.41050 53.37068
# Shear Modulus (GPa) = 22.55030 30.47294 26.51162
#
# Velocity S-wave (km/s) = 3.38099 3.93030 3.66595
# Velocity P-wave (km/s) = 6.14113 7.22725 6.70622
#
# Compressibility (1/GPa) = 0.02255764
#
# Stress axis : x y z
#
# Youngs Moduli (GPa) = 28.43813 86.63024 96.76175
#
# Poissons Ratio (x) = 0.57521 0.85060
# Poissons Ratio (y) = 0.18882 0.17531
# Poissons Ratio (z) = 0.24999 0.15695
#
# Static dielectric constant tensor:
#      x y z
#    x 1.726650 0.000000 0.022070 
#    y 0.000000 1.741610 0.000000 
#    z 0.022070 0.000000 1.761430 
# 
# From -- ./inp_files/25120.got.cif
#   From: 2010.05.17/outbox.cif.g08.bks.cpg/sg15_13_cif.got.tgz:25120.got - 2010.06.03 18:47:42.
