data_PCOD9269899
_publ_section_title
;
Structure prediction by ZEFSAII (Michael W. Deem and Ramdas Pophale) SiO2 
 PCOD9269899
Probable space group: C 2/C
;
_chemical_formula_sum "Si O2"
_cell_formula_units_Z 60
_cell_length_a 21.813814
_cell_length_b 9.275958
_cell_length_c 21.647365
_cell_angle_alpha 90.000000
_cell_angle_beta 36.912125
_cell_angle_gamma 90.000000
_cell_volume 2630.710829
_symmetry_space_group_name_H-M "C 2/C"
_symmetry_group_IT_number 15
_symmetry_cell_setting 'monoclinic'
loop_
_space_group_symop_operation_xyz
x,y,z
-x,y,1/2-z
-x,-y,-z
x,-y,1/2+z
1/2+x,1/2+y,z
1/2-x,1/2+y,1/2-z
1/2-x,1/2-y,-z
1/2+x,1/2-y,1/2+z
loop_
_atom_site_type_symbol
_atom_site_label
_atom_site_fract_x
_atom_site_fract_y
_atom_site_fract_z
Si Si1 0.579696 0.954396 0.488723
Si Si2 0.020316 0.194950 0.865024
Si Si3 0.889419 0.010215 0.057816
Si Si4 0.688653 0.138525 0.091374
Si Si5 0.758044 0.262818 0.812037
Si Si6 0.813198 0.262083 0.546579
Si Si7 0.378940 0.188100 0.860201
Si Si8 0.500000 0.311466 0.250000
O O1 0.517909 0.857914 0.588403
O O2 0.672140 0.858685 0.387317
O O3 0.500000 0.000000 0.500000
O O4 0.633621 0.092086 0.474567
O O5 0.135617 0.202129 0.800482
O O6 0.037061 0.121269 0.783692
O O7 0.927041 0.104345 0.968525
O O8 0.843065 0.863422 0.069752
O O9 0.805341 0.101188 0.163852
O O10 0.000000 0.000000 0.000000
O O11 0.709552 0.174573 0.146289
O O12 0.580676 0.200353 0.160255
O O13 0.678599 0.968240 0.089665
O O14 0.750000 0.250000 0.000000
O O15 0.690827 0.268842 0.634656
O O16 0.861133 0.234425 0.439980
O O17 0.500000 0.174600 0.750000
#
# Coordination Sequence:
#
# PCOD9269899 Si02
#       8
#     8   8   8   8   8   8   8   4
#     4  11  24  45  68  96 138 180 229 278 342 409
#     4  10  23  42  66 101 128 169 232 272 333 400
#     4  11  23  44  66  95 136 177 226 278 337 408
#     4  11  19  35  64  92 128 173 221 271 325 403
#     4  10  22  40  64  94 125 171 230 274 325 391
#     4  11  24  41  67  99 137 182 216 281 347 411
#     4  11  24  42  63  97 140 178 220 275 352 414
#     4  10  20  34  64  96 124 164 212 280 326 382
#
# _framework density 22.807523
#
# number of rings (size 3 to 8) (size 9 to 14) (size 15 to 20)
#    0.000    1.333    2.000    4.800    1.867    2.133 
#    3.600    2.667    0.000    0.000    0.000    0.000 
#    0.000    0.000    0.000    0.000    0.000    0.000 
#
# Total GULP energy -167074.833620 kJ/mol
# GULP energy per Si atom -5569.161121 kJ/mol
# Density = 2.275561 g / cm^3
# Si number density = 22.807523 Si / 1000 Ang^3
#
#
#
# Elastic Constant Matrix: (Units=GPa)
#
#
# Indices 1 2 3 4 5 6 
#
# 1 97.3713 23.2614 16.3920 -0.0005 -19.8067 0.0002
# 2 23.2614 65.7390 32.3038 -0.0025 -19.9482 0.0006
# 3 16.3920 32.3038 114.7294 -0.0009 -35.5508 0.0003
# 4 -0.0005 -0.0025 -0.0009 -23.5800 0.0006 12.9139
# 5 -19.8067 -19.9482 -35.5508 0.0006 37.8987 -0.0002
# 6 0.0002 0.0006 0.0003 12.9139 -0.0002 15.6966
#
#
#
# Elastic Compliance Matrix: (Units=1/GPa)
#
#
# Indices 1 2 3 4 5 6 
#
# 1 0.011952 -0.002979 0.000819 0.000000 0.005446 0.000000
# 2 -0.002979 0.019621 -0.003357 -0.000001 0.005622 0.000001
# 3 0.000819 -0.003357 0.012871 0.000000 0.010734 0.000000
# 4 0.000000 -0.000001 0.000000 -0.029236 0.000000 0.024053
# 5 0.005446 0.005622 0.010734 0.000000 0.042261 0.000000
# 6 0.000000 0.000001 0.000000 0.024053 0.000000 0.043919
#
#
# Mechanical properties :
#
#
# Convention : Reuss Voigt Hill
#
# Bulk Modulus (GPa) = 29.93158 46.86158 38.39658
# Shear Modulus (GPa) = 40.46691 19.72857 30.09774
#
# Velocity S-wave (km/s) = 4.21679 2.94428 3.63663
# Velocity P-wave (km/s) = 6.07128 5.67006 5.87410
#
# Compressibility (1/GPa) = 0.03340953
#
# Stress axis : x y z
#
# Youngs Moduli (GPa) = 83.67094 50.96517 77.69685
#
# Poissons Ratio (x) = 0.15181 -0.06361
# Poissons Ratio (y) = 0.24923 0.26083
# Poissons Ratio (z) = -0.06850 0.17109
#
# Static dielectric constant tensor:
#      x y z
#    x 0.957370 0.000000 0.455610 
#    y 0.000000 1.943450 0.000000 
#    z 0.455610 0.000000 1.692250 
# 
# From -- ./inp_files/302067.got.cif
#   From: 2010.05.17/outbox.cif.g08.bks.cpg/sg15_152_cif.got.tgz:302067.got - 2010.06.03 18:47:42.
