data_PCOD9269534
_publ_section_title
;
Structure prediction by ZEFSAII (Michael W. Deem and Ramdas Pophale) SiO2 
 PCOD9269534
Probable space group: C 2/C
;
_chemical_formula_sum "Si O2"
_cell_formula_units_Z 44
_cell_length_a 13.843809
_cell_length_b 21.992977
_cell_length_c 12.000594
_cell_angle_alpha 90.000000
_cell_angle_beta 32.069894
_cell_angle_gamma 90.000000
_cell_volume 1939.986722
_symmetry_space_group_name_H-M "C 2/C"
_symmetry_group_IT_number 15
_symmetry_cell_setting 'monoclinic'
loop_
_space_group_symop_operation_xyz
x,y,z
-x,y,1/2-z
-x,-y,-z
x,-y,1/2+z
1/2+x,1/2+y,z
1/2-x,1/2+y,1/2-z
1/2-x,1/2-y,-z
1/2+x,1/2-y,1/2+z
loop_
_atom_site_type_symbol
_atom_site_label
_atom_site_fract_x
_atom_site_fract_y
_atom_site_fract_z
Si Si1 0.767542 0.464432 0.735615
Si Si2 0.921256 0.579505 0.704105
Si Si3 0.284798 0.709354 0.138837
Si Si4 0.090277 0.064082 0.779694
Si Si5 0.144654 0.168200 0.865394
Si Si6 0.000000 0.707568 0.250000
O O1 0.844533 0.511997 0.751877
O O2 0.723848 0.508510 0.673007
O O3 0.914698 0.416421 0.547234
O O4 0.575002 0.443234 0.970964
O O5 0.761009 0.628802 0.839002
O O6 0.000000 0.585380 0.750000
O O7 0.203757 0.762442 0.295100
O O8 0.138937 0.675227 0.201029
O O9 0.426171 0.673610 0.077817
O O10 0.397818 0.746982 0.935124
O O11 0.182687 0.128576 0.715920
O O12 0.000000 0.063141 0.750000
#
# Coordination Sequence:
#
# PCOD9269534 Si02
#       6
#     8   8   8   8   8   4
#     4   9  20  37  58  88 118 150 188 244 294 356
#     4  10  20  39  62  83 115 157 201 240 298 345
#     4   9  18  34  50  77 117 146 196 242 290 345
#     4  10  20  34  57  88 119 149 188 237 298 362
#     4  10  22  35  54  83 115 156 200 246 289 351
#     4   8  16  28  54  70 100 162 172 224 306 338
#
# _framework density 22.680568999999998
#
# number of rings (size 3 to 8) (size 9 to 14) (size 15 to 20)
#    0.000    2.545    0.000    1.091    7.636    2.909 
#    0.000    0.909    2.000    0.000    0.000    0.000 
#    0.000    0.000    0.000    0.000    0.000    0.000 
#
# Total GULP energy -122558.795174 kJ/mol
# GULP energy per Si atom -5570.854326 kJ/mol
# Density = 2.262895 g / cm^3
# Si number density = 22.680569 Si / 1000 Ang^3
#
#
#
# Elastic Constant Matrix: (Units=GPa)
#
#
# Indices 1 2 3 4 5 6 
#
# 1 210.9413 58.9868 16.7726 -0.0099 -30.5532 0.0133
# 2 58.9868 74.8976 18.7800 -0.0117 -12.9769 -0.0092
# 3 16.7726 18.7800 50.7059 0.0034 -24.5071 0.0092
# 4 -0.0099 -0.0117 0.0034 22.9528 -0.0071 -5.9796
# 5 -30.5532 -12.9769 -24.5071 -0.0071 33.8633 -0.0085
# 6 0.0133 -0.0092 0.0092 -5.9796 -0.0085 -12.5851
#
#
#
# Elastic Compliance Matrix: (Units=1/GPa)
#
#
# Indices 1 2 3 4 5 6 
#
# 1 0.006798 -0.004933 0.002506 0.000004 0.006056 0.000007
# 2 -0.004933 0.018449 -0.006052 0.000002 -0.001761 -0.000023
# 3 0.002506 -0.006052 0.032460 0.000004 0.023433 0.000013
# 4 0.000004 0.000002 0.000004 0.038769 0.000010 -0.018420
# 5 0.006056 -0.001761 0.023433 0.000010 0.051279 -0.000015
# 6 0.000007 -0.000023 0.000013 -0.018420 -0.000015 -0.070707
#
#
# Mechanical properties :
#
#
# Convention : Reuss Voigt Hill
#
# Bulk Modulus (GPa) = 24.54126 58.40261 41.47194
# Shear Modulus (GPa) = 46.47304 24.97990 35.72647
#
# Velocity S-wave (km/s) = 4.53153 3.32230 3.97319
# Velocity P-wave (km/s) = 6.18252 6.36576 6.27481
#
# Compressibility (1/GPa) = 0.04074770
#
# Stress axis : x y z
#
# Youngs Moduli (GPa) = 147.10096 54.20369 30.80726
#
# Poissons Ratio (x) = 0.26738 -0.07719
# Poissons Ratio (y) = 0.72562 0.18645
# Poissons Ratio (z) = -0.36856 0.32806
#
# Static dielectric constant tensor:
#      x y z
#    x 1.850500 -0.000080 -0.078480 
#    y -0.000080 1.966530 0.000120 
#    z -0.078480 0.000120 1.995380 
# 
# From -- ./inp_files/91138.got.cif
#   From: 2010.05.17/outbox.cif.g08.bks.cpg/sg15_46_cif.got.tgz:91138.got - 2010.06.03 18:47:42.
