data_PCOD9269798
_publ_section_title
;
Structure prediction by ZEFSAII (Michael W. Deem and Ramdas Pophale) SiO2 
 PCOD9269798
Probable space group: C 2/C
;
_chemical_formula_sum "Si O2"
_cell_formula_units_Z 64
_cell_length_a 9.943567
_cell_length_b 29.103666
_cell_length_c 14.857790
_cell_angle_alpha 90.000000
_cell_angle_beta 54.474309
_cell_angle_gamma 90.000000
_cell_volume 3499.380621
_symmetry_space_group_name_H-M "C 2/C"
_symmetry_group_IT_number 15
_symmetry_cell_setting 'monoclinic'
loop_
_space_group_symop_operation_xyz
x,y,z
-x,y,1/2-z
-x,-y,-z
x,-y,1/2+z
1/2+x,1/2+y,z
1/2-x,1/2+y,1/2-z
1/2-x,1/2-y,-z
1/2+x,1/2-y,1/2+z
loop_
_atom_site_type_symbol
_atom_site_label
_atom_site_fract_x
_atom_site_fract_y
_atom_site_fract_z
Si Si1 0.721877 0.662068 0.393451
Si Si2 0.512874 0.575326 0.044767
Si Si3 0.972163 0.243902 0.508011
Si Si4 0.229412 0.990780 0.352331
Si Si5 0.628014 0.200254 0.623067
Si Si6 0.819972 0.389319 0.516910
Si Si7 0.051147 0.336054 0.868302
Si Si8 0.492593 0.020093 0.901921
O O1 0.594106 0.620042 0.436311
O O2 0.620365 0.707775 0.459216
O O3 0.817323 0.670968 0.262492
O O4 0.872656 0.649335 0.400590
O O5 0.393075 0.533184 0.114113
O O6 0.626545 0.554937 0.919521
O O7 0.639820 0.588479 0.074783
O O8 0.797901 0.219669 0.596545
O O9 0.951908 0.262010 0.413096
O O10 0.982245 0.288698 0.565963
O O11 0.342543 0.985306 0.220791
O O12 0.347182 0.000001 0.393842
O O13 0.500000 0.188395 0.750000
O O14 0.673303 0.156100 0.546419
O O15 0.870669 0.373589 0.595975
O O16 0.948543 0.426468 0.430265
O O17 0.500000 0.000000 0.000000
#
# Coordination Sequence:
#
# PCOD9269798 Si02
#       8
#     8   8   8   8   8   8   8   8
#     4  11  22  38  64  84 119 168 197 248 313 361
#     4  10  21  40  62  87 120 157 202 249 311 359
#     4  10  20  39  55  89 118 155 199 252 298 362
#     4   9  22  42  61  89 123 161 201 258 311 371
#     4  10  20  34  61  86 119 153 197 247 303 355
#     4  10  22  39  58  91 117 153 203 248 298 365
#     4  10  24  38  58  89 123 155 206 250 299 374
#     4  10  22  38  65  88 122 162 204 251 315 373
#
# _framework density 18.288948999999999
#
# number of rings (size 3 to 8) (size 9 to 14) (size 15 to 20)
#    0.000    2.000    1.250    1.125    7.000    1.500 
#    2.250    1.875    0.000    4.500    0.000    0.000 
#    0.000    0.000    0.000    0.000    0.000    0.000 
#
# Total GULP energy -178544.650814 kJ/mol
# GULP energy per Si atom -5579.520338 kJ/mol
# Density = 1.824732 g / cm^3
# Si number density = 18.288949 Si / 1000 Ang^3
#
#
#
# Elastic Constant Matrix: (Units=GPa)
#
#
# Indices 1 2 3 4 5 6 
#
# 1 117.2190 51.3592 70.2809 0.0000 -6.1039 0.0000
# 2 51.3592 77.5096 28.1533 0.0000 -9.3118 0.0000
# 3 70.2809 28.1533 92.2875 0.0000 -7.0718 0.0000
# 4 0.0000 0.0000 0.0000 15.9788 0.0000 -7.6495
# 5 -6.1039 -9.3118 -7.0718 0.0000 23.6743 0.0000
# 6 0.0000 0.0000 0.0000 -7.6495 0.0000 30.0568
#
#
#
# Elastic Compliance Matrix: (Units=1/GPa)
#
#
# Indices 1 2 3 4 5 6 
#
# 1 0.019820 -0.008823 -0.012564 0.000000 -0.002113 0.000000
# 2 -0.008823 0.018919 0.001375 0.000000 0.005577 0.000000
# 3 -0.012564 0.001375 0.020241 0.000000 0.003348 0.000000
# 4 0.000000 0.000000 0.000000 0.071266 0.000000 0.018137
# 5 -0.002113 0.005577 0.003348 0.000000 0.044889 0.000000
# 6 0.000000 0.000000 0.000000 0.018137 0.000000 0.037886
#
#
# Mechanical properties :
#
#
# Convention : Reuss Voigt Hill
#
# Bulk Modulus (GPa) = 52.75571 65.17810 58.96691
# Shear Modulus (GPa) = 19.27808 23.09018 21.18413
#
# Velocity S-wave (km/s) = 3.25019 3.55705 3.40708
# Velocity P-wave (km/s) = 6.55692 7.25159 6.91299
#
# Compressibility (1/GPa) = 0.01895529
#
# Stress axis : x y z
#
# Youngs Moduli (GPa) = 50.45435 52.85809 49.40550
#
# Poissons Ratio (x) = 0.46639 0.62073
# Poissons Ratio (y) = 0.44518 -0.06795
# Poissons Ratio (z) = 0.63391 -0.07270
#
# Static dielectric constant tensor:
#      x y z
#    x 1.644560 0.000000 0.015680 
#    y 0.000000 1.618230 0.000000 
#    z 0.015680 0.000000 1.616910 
# 
# From -- ./inp_files/139519.got.cif
#   From: 2010.05.17/outbox.cif.g08.bks.cpg/sg15_70_cif.got.tgz:139519.got - 2010.06.03 18:47:42.
