data_PCOD9269663
_publ_section_title
;
Structure prediction by ZEFSAII (Michael W. Deem and Ramdas Pophale) SiO2 
 PCOD9269663
Probable space group: C 2/C
;
_chemical_formula_sum "Si O2"
_cell_formula_units_Z 48
_cell_length_a 9.381488
_cell_length_b 11.860289
_cell_length_c 24.484504
_cell_angle_alpha 90.000000
_cell_angle_beta 58.738842
_cell_angle_gamma 90.000000
_cell_volume 2328.779255
_symmetry_space_group_name_H-M "C 2/C"
_symmetry_group_IT_number 15
_symmetry_cell_setting 'monoclinic'
loop_
_space_group_symop_operation_xyz
x,y,z
-x,y,1/2-z
-x,-y,-z
x,-y,1/2+z
1/2+x,1/2+y,z
1/2-x,1/2+y,1/2-z
1/2-x,1/2-y,-z
1/2+x,1/2-y,1/2+z
loop_
_atom_site_type_symbol
_atom_site_label
_atom_site_fract_x
_atom_site_fract_y
_atom_site_fract_z
Si Si1 0.884982 0.982540 0.888004
Si Si2 0.537412 0.755919 0.179785
Si Si3 0.676469 0.566551 0.902875
Si Si4 0.656600 0.150705 0.875506
Si Si5 0.367673 0.976352 0.961476
Si Si6 0.423878 0.751050 0.997935
O O1 0.894065 0.857988 0.861660
O O2 0.818847 0.076512 0.857861
O O3 0.756988 0.992106 0.964527
O O4 0.064735 0.014743 0.877181
O O5 0.500000 0.733387 0.250000
O O6 0.673939 0.855450 0.148686
O O7 0.375519 0.796741 0.177237
O O8 0.750927 0.475284 0.930671
O O9 0.553319 0.653467 0.959201
O O10 0.500612 0.069232 0.918479
O O11 0.625004 0.241464 0.929327
O O12 0.477902 0.871610 0.961475
O O13 0.250000 0.750000 0.000000
#
# Coordination Sequence:
#
# PCOD9269663 Si02
#       6
#     8   8   8   8   8   8
#     4  11  21  37  64  89 118 153 193 239 301 357
#     4  11  26  43  58  80 116 162 212 250 279 327
#     4  11  22  37  61  91 122 154 194 236 298 358
#     4  10  21  38  60  87 123 154 190 241 298 353
#     4  10  20  34  58  95 126 151 181 232 307 369
#     4  11  19  32  60  94 125 142 178 236 301 370
#
# _framework density 20.611657000000001
#
# number of rings (size 3 to 8) (size 9 to 14) (size 15 to 20)
#    0.000    1.333    3.333    5.500    2.333    4.000 
#    0.000    0.000    0.000    0.000    0.000    0.000 
#    0.000    0.000    0.000    0.000    0.000    0.000 
#
# Total GULP energy -133915.891882 kJ/mol
# GULP energy per Si atom -5579.828828 kJ/mol
# Density = 2.056474 g / cm^3
# Si number density = 20.611657 Si / 1000 Ang^3
#
#
#
# Elastic Constant Matrix: (Units=GPa)
#
#
# Indices 1 2 3 4 5 6 
#
# 1 127.9064 22.7173 24.1314 0.0000 28.9155 0.0000
# 2 22.7173 79.2786 24.1267 0.0000 13.2904 0.0000
# 3 24.1314 24.1267 49.4712 0.0000 26.5569 0.0000
# 4 0.0000 0.0000 0.0000 12.6343 0.0000 5.7251
# 5 28.9155 13.2904 26.5569 0.0000 28.1133 0.0000
# 6 0.0000 0.0000 0.0000 5.7251 0.0000 33.6323
#
#
#
# Elastic Compliance Matrix: (Units=1/GPa)
#
#
# Indices 1 2 3 4 5 6 
#
# 1 0.010406 -0.001628 0.002131 0.000000 -0.011946 0.000000
# 2 -0.001628 0.015069 -0.007363 0.000000 0.001506 0.000000
# 3 0.002131 -0.007363 0.044782 0.000000 -0.041014 0.000000
# 4 0.000000 0.000000 0.000000 0.085765 0.000000 -0.014600
# 5 -0.011946 0.001506 -0.041014 0.000000 0.085888 0.000000
# 6 0.000000 0.000000 0.000000 -0.014600 0.000000 0.032219
#
#
# Mechanical properties :
#
#
# Convention : Reuss Voigt Hill
#
# Bulk Modulus (GPa) = 17.68774 44.28967 30.98870
# Shear Modulus (GPa) = 16.30285 27.25471 21.77878
#
# Velocity S-wave (km/s) = 2.81544 3.64028 3.25410
# Velocity P-wave (km/s) = 4.37824 6.26125 5.40242
#
# Compressibility (1/GPa) = 0.05653633
#
# Stress axis : x y z
#
# Youngs Moduli (GPa) = 96.09873 66.36352 22.33028
#
# Poissons Ratio (x) = 0.10801 -0.04758
# Poissons Ratio (y) = 0.15641 0.16443
# Poissons Ratio (z) = -0.20477 0.48867
#
# Static dielectric constant tensor:
#      x y z
#    x 1.825020 0.000000 0.013470 
#    y 0.000000 1.933020 0.000000 
#    z 0.013470 0.000000 1.694290 
# 
# From -- ./inp_files/263055.got.cif
#   From: 2010.05.17/outbox.cif.g08.bks.cpg/sg15_132_cif.got.tgz:263055.got - 2010.06.03 18:47:42.
