data_PCOD9269160
_publ_section_title
;
Structure prediction by ZEFSAII (Michael W. Deem and Ramdas Pophale) SiO2 
 PCOD9269160
Probable space group: C 2/C
;
_chemical_formula_sum "Si O2"
_cell_formula_units_Z 52
_cell_length_a 24.420372
_cell_length_b 12.776447
_cell_length_c 9.256593
_cell_angle_alpha 90.000000
_cell_angle_beta 136.839698
_cell_angle_gamma 90.000000
_cell_volume 1975.587302
_symmetry_space_group_name_H-M "C 2/C"
_symmetry_group_IT_number 15
_symmetry_cell_setting 'monoclinic'
loop_
_space_group_symop_operation_xyz
x,y,z
-x,y,1/2-z
-x,-y,-z
x,-y,1/2+z
1/2+x,1/2+y,z
1/2-x,1/2+y,1/2-z
1/2-x,1/2-y,-z
1/2+x,1/2-y,1/2+z
loop_
_atom_site_type_symbol
_atom_site_label
_atom_site_fract_x
_atom_site_fract_y
_atom_site_fract_z
Si Si1 0.126168 0.724503 0.956762
Si Si2 0.956270 0.068237 0.804254
Si Si3 0.500000 0.051572 0.250000
Si Si4 0.190479 0.792975 0.629938
Si Si5 0.821653 0.069343 0.125035
Si Si6 0.637668 0.910433 0.212746
Si Si7 0.575842 0.783988 0.679618
O O1 0.143240 0.836522 0.909873
O O2 0.099777 0.637744 0.787269
O O3 0.214980 0.695383 0.181810
O O4 0.075813 0.724196 0.006940
O O5 0.977993 0.188285 0.868074
O O6 0.000000 0.029427 0.750000
O O7 0.865350 0.035518 0.659053
O O8 0.000000 0.000000 0.000000
O O9 0.578151 0.019125 0.500274
O O10 0.454619 0.116289 0.290811
O O11 0.162576 0.890346 0.680232
O O12 0.160811 0.693621 0.667685
O O13 0.158747 0.754925 0.413192
O O14 0.726441 0.048522 0.922552
#
# Coordination Sequence:
#
# PCOD9269160 Si02
#       7
#     8   8   4   8   8   8   8
#     4   9  17  30  52  74  95 138 188 232 267 335
#     4  12  24  34  46  74 116 161 189 212 254 337
#     4  10  20  34  52  78 112 138 176 238 294 318
#     4   8  16  32  51  68  98 135 182 236 282 311
#     4   9  18  35  50  67 102 151 193 220 266 330
#     4   8  17  33  54  73  98 139 183 240 284 319
#     4  11  20  31  46  74 114 144 178 224 273 326
#
# _framework density 26.321286000000001
#
# number of rings (size 3 to 8) (size 9 to 14) (size 15 to 20)
#    0.000    2.462    0.769    4.154    4.308    0.615 
#    0.000    0.000    0.000    0.000    0.000    0.000 
#    0.000   60.308    4.000    0.923    2.462   16.308 
#
# Total GULP energy -144991.969115 kJ/mol
# GULP energy per Si atom -5576.614197 kJ/mol
# Density = 2.626138 g / cm^3
# Si number density = 26.321286 Si / 1000 Ang^3
#
#
#
# Elastic Constant Matrix: (Units=GPa)
#
#
# Indices 1 2 3 4 5 6 
#
# 1 134.9830 7.5157 35.4475 0.0000 -30.4342 0.0000
# 2 7.5157 44.1555 -0.3521 0.0000 -5.8121 0.0000
# 3 35.4475 -0.3521 135.4156 0.0000 -2.5203 0.0000
# 4 0.0000 0.0000 0.0000 17.9710 0.0000 0.9943
# 5 -30.4342 -5.8121 -2.5203 0.0000 62.9136 0.0000
# 6 0.0000 0.0000 0.0000 0.9943 0.0000 26.4077
#
#
#
# Elastic Compliance Matrix: (Units=1/GPa)
#
#
# Indices 1 2 3 4 5 6 
#
# 1 0.009004 -0.001002 -0.002282 0.000000 0.004172 0.000000
# 2 -0.001002 0.023039 0.000353 0.000000 0.001658 0.000000
# 3 -0.002282 0.000353 0.007969 0.000000 -0.000752 0.000000
# 4 0.000000 0.000000 0.000000 0.055761 0.000000 -0.002099
# 5 0.004172 0.001658 -0.000752 0.000000 0.018036 0.000000
# 6 0.000000 0.000000 0.000000 -0.002099 0.000000 0.037947
#
#
# Mechanical properties :
#
#
# Convention : Reuss Voigt Hill
#
# Bulk Modulus (GPa) = 29.28220 44.41960 36.85090
# Shear Modulus (GPa) = 29.58575 39.58800 34.58687
#
# Velocity S-wave (km/s) = 3.35628 3.88239 3.62888
# Velocity P-wave (km/s) = 5.11552 6.08357 5.62043
#
# Compressibility (1/GPa) = 0.03415044
#
# Stress axis : x y z
#
# Youngs Moduli (GPa) = 111.06256 43.40507 125.48742
#
# Poissons Ratio (x) = 0.04348 0.28635
# Poissons Ratio (y) = 0.11125 -0.04429
# Poissons Ratio (z) = 0.25343 -0.01532
#
# Static dielectric constant tensor:
#      x y z
#    x 1.994450 0.000000 0.030730 
#    y 0.000000 2.098680 0.000000 
#    z 0.030730 0.000000 2.185560 
# 
# From -- ./inp_files/57063.got.cif
#   From: 2010.05.17/outbox.cif.g08.bks.cpg/sg15_29_cif.got.tgz:57063.got - 2010.06.03 18:47:42.
