data_PCOD9269935
_publ_section_title
;
Structure prediction by ZEFSAII (Michael W. Deem and Ramdas Pophale) SiO2 
 PCOD9269935
Probable space group: C 2/C
;
_chemical_formula_sum "Si O2"
_cell_formula_units_Z 56
_cell_length_a 23.123544
_cell_length_b 20.820292
_cell_length_c 18.002034
_cell_angle_alpha 90.000000
_cell_angle_beta 24.315112
_cell_angle_gamma 90.000000
_cell_volume 3568.628895
_symmetry_space_group_name_H-M "C 2/C"
_symmetry_group_IT_number 15
_symmetry_cell_setting 'monoclinic'
loop_
_space_group_symop_operation_xyz
x,y,z
-x,y,1/2-z
-x,-y,-z
x,-y,1/2+z
1/2+x,1/2+y,z
1/2-x,1/2+y,1/2-z
1/2-x,1/2-y,-z
1/2+x,1/2-y,1/2+z
loop_
_atom_site_type_symbol
_atom_site_label
_atom_site_fract_x
_atom_site_fract_y
_atom_site_fract_z
Si Si1 0.955435 0.119084 0.426442
Si Si2 0.907604 0.248908 0.286511
Si Si3 0.933330 0.552841 0.522763
Si Si4 0.630405 0.133185 0.769866
Si Si5 0.404894 0.991074 0.289463
Si Si6 0.611692 0.555394 0.850173
Si Si7 0.591037 0.515918 0.711876
O O1 0.799964 0.130556 0.575633
O O2 0.934835 0.112023 0.539542
O O3 0.049885 0.178591 0.291833
O O4 0.019319 0.052055 0.320824
O O5 0.750000 0.250000 0.500000
O O6 0.921366 0.301110 0.205307
O O7 0.000000 0.265981 0.250000
O O8 0.925369 0.616639 0.582350
O O9 0.772082 0.538097 0.686722
O O10 0.000000 0.500000 0.500000
O O11 0.031649 0.547941 0.335883
O O12 0.587298 0.074385 0.766993
O O13 0.500000 0.984427 0.250000
O O14 0.246052 0.002638 0.499914
O O15 0.602534 0.560163 0.771904
O O16 0.500000 0.500000 0.000000
O O17 0.500000 0.542223 0.750000
#
# Coordination Sequence:
#
# PCOD9269935 Si02
#       7
#     8   8   8   8   8   8   8
#     4  10  20  36  50  69 103 138 166 199 247 297
#     4  12  22  35  51  74  99 132 175 203 234 287
#     4   9  19  33  48  71 102 131 162 204 253 296
#     4  10  20  35  50  69 103 138 164 204 246 292
#     4  11  19  31  50  78 104 125 165 210 248 295
#     4   9  19  33  50  70  97 135 168 196 248 307
#     4  11  19  32  53  75 103 134 164 202 252 300
#
# _framework density 15.692301
#
# number of rings (size 3 to 8) (size 9 to 14) (size 15 to 20)
#    0.000    1.714    4.286    1.714    2.000    0.000 
#    2.571    0.000    0.000    0.000    0.000    2.000 
#    0.000    0.000    0.000    0.000    0.000    0.000 
#
# Total GULP energy -155983.668697 kJ/mol
# GULP energy per Si atom -5570.845311 kJ/mol
# Density = 1.565658 g / cm^3
# Si number density = 15.692301 Si / 1000 Ang^3
#
#
#
# Elastic Constant Matrix: (Units=GPa)
#
#
# Indices 1 2 3 4 5 6 
#
# 1 136.6271 34.4650 38.2351 0.0000 -0.0544 -0.0013
# 2 34.4650 50.0475 18.0222 -0.0026 5.9183 0.0001
# 3 38.2351 18.0222 68.6914 -0.0019 0.5017 -0.0015
# 4 0.0000 -0.0026 -0.0019 21.4795 0.0002 6.9779
# 5 -0.0544 5.9183 0.5017 0.0002 30.3615 0.0012
# 6 -0.0013 0.0001 -0.0015 6.9779 0.0012 21.0974
#
#
#
# Elastic Compliance Matrix: (Units=1/GPa)
#
#
# Indices 1 2 3 4 5 6 
#
# 1 0.009826 -0.005444 -0.004050 -0.000001 0.001146 0.000001
# 2 -0.005444 0.025632 -0.003659 0.000003 -0.004946 -0.000002
# 3 -0.004050 -0.003659 0.017769 0.000001 0.000412 0.000001
# 4 -0.000001 0.000003 0.000001 0.052160 0.000000 -0.017252
# 5 0.001146 -0.004946 0.000412 0.000000 0.033896 -0.000002
# 6 0.000001 -0.000002 0.000001 -0.017252 -0.000002 0.053105
#
#
# Mechanical properties :
#
#
# Convention : Reuss Voigt Hill
#
# Bulk Modulus (GPa) = 37.14297 48.53452 42.83875
# Shear Modulus (GPa) = 21.96185 25.56394 23.76290
#
# Velocity S-wave (km/s) = 3.74509 4.04056 3.89563
# Velocity P-wave (km/s) = 6.51321 7.26390 6.89877
#
# Compressibility (1/GPa) = 0.02692299
#
# Stress axis : x y z
#
# Youngs Moduli (GPa) = 101.76877 39.01321 56.27840
#
# Poissons Ratio (x) = 0.21239 0.22790
# Poissons Ratio (y) = 0.55403 0.20590
# Poissons Ratio (z) = 0.41212 0.14273
#
# Static dielectric constant tensor:
#      x y z
#    x 1.559990 0.000000 0.014710 
#    y 0.000000 1.527040 0.000000 
#    z 0.014710 0.000000 1.550150 
# 
# From -- ./inp_files/57909.got.cif
#   From: 2010.05.17/outbox.cif.g08.bks.cpg/sg15_29_cif.got.tgz:57909.got - 2010.06.03 18:47:42.
