data_PCOD9269586
_publ_section_title
;
Structure prediction by ZEFSAII (Michael W. Deem and Ramdas Pophale) SiO2 
 PCOD9269586
Probable space group: C 2/C
;
_chemical_formula_sum "Si O2"
_cell_formula_units_Z 60
_cell_length_a 12.502431
_cell_length_b 24.085862
_cell_length_c 16.783756
_cell_angle_alpha 90.000000
_cell_angle_beta 42.431445
_cell_angle_gamma 90.000000
_cell_volume 3410.055100
_symmetry_space_group_name_H-M "C 2/C"
_symmetry_group_IT_number 15
_symmetry_cell_setting 'monoclinic'
loop_
_space_group_symop_operation_xyz
x,y,z
-x,y,1/2-z
-x,-y,-z
x,-y,1/2+z
1/2+x,1/2+y,z
1/2-x,1/2+y,1/2-z
1/2-x,1/2-y,-z
1/2+x,1/2-y,1/2+z
loop_
_atom_site_type_symbol
_atom_site_label
_atom_site_fract_x
_atom_site_fract_y
_atom_site_fract_z
Si Si1 0.926607 0.390088 0.122694
Si Si2 0.543627 0.578131 0.406426
Si Si3 0.480319 0.785622 0.353518
Si Si4 0.630565 0.333053 0.569817
Si Si5 0.687006 0.455078 0.147145
Si Si6 0.745240 0.414268 0.641710
Si Si7 0.500000 0.952100 0.250000
Si Si8 0.196656 0.022449 0.469644
O O1 0.777587 0.419365 0.163472
O O2 0.969830 0.417740 0.184853
O O3 0.910603 0.324767 0.151895
O O4 0.073424 0.400503 0.981034
O O5 0.419579 0.628680 0.476433
O O6 0.674740 0.594710 0.268416
O O7 0.625758 0.563655 0.443580
O O8 0.442253 0.523348 0.437466
O O9 0.500000 0.797413 0.250000
O O10 0.487119 0.719204 0.359093
O O11 0.303495 0.806598 0.469705
O O12 0.647552 0.376611 0.632873
O O13 0.500000 0.444457 0.250000
O O14 0.720673 0.520234 0.142735
O O15 0.743561 0.447078 0.025126
O O16 0.345483 0.989369 0.352032
#
# Coordination Sequence:
#
# PCOD9269586 Si02
#       8
#     8   8   8   8   8   8   4   8
#     4  11  24  35  57  81 118 151 184 230 283 340
#     4  11  21  36  54  80 113 145 187 231 275 336
#     4  10  20  35  55  84 111 143 187 238 287 330
#     4  10  20  34  58  84 111 142 186 238 291 330
#     4  12  22  37  54  80 115 154 187 220 278 347
#     4  11  19  37  55  80 111 150 181 231 290 341
#     4  12  22  36  52  82 112 148 178 236 280 330
#     4  11  24  33  53  82 111 149 189 221 277 341
#
# _framework density 17.595025
#
# number of rings (size 3 to 8) (size 9 to 14) (size 15 to 20)
#    0.000    1.067    4.667    3.200    3.733    0.000 
#    0.000    0.000    0.000    0.800    1.733    0.000 
#    0.000    0.000    0.000    0.000    0.000    0.000 
#
# Total GULP energy -167329.512134 kJ/mol
# GULP energy per Si atom -5577.650404 kJ/mol
# Density = 1.755498 g / cm^3
# Si number density = 17.595025 Si / 1000 Ang^3
#
#
#
# Elastic Constant Matrix: (Units=GPa)
#
#
# Indices 1 2 3 4 5 6 
#
# 1 73.7508 56.7638 -1.8466 0.0000 8.0114 0.0000
# 2 56.7638 119.8780 11.6035 0.0000 12.0509 0.0001
# 3 -1.8466 11.6035 48.6810 0.0004 1.9699 -0.0006
# 4 0.0000 0.0000 0.0004 21.6030 -0.0001 -10.8600
# 5 8.0114 12.0509 1.9699 -0.0001 25.5608 0.0000
# 6 0.0000 0.0001 -0.0006 -10.8600 0.0000 68.7555
#
#
#
# Elastic Compliance Matrix: (Units=1/GPa)
#
#
# Indices 1 2 3 4 5 6 
#
# 1 0.021980 -0.010519 0.003430 0.000000 -0.002194 0.000000
# 2 -0.010519 0.013975 -0.003608 0.000000 -0.003014 0.000000
# 3 0.003430 -0.003608 0.021574 0.000000 -0.001037 0.000000
# 4 0.000000 0.000000 0.000000 0.050283 0.000000 0.007942
# 5 -0.002194 -0.003014 -0.001037 0.000000 0.041311 0.000000
# 6 0.000000 0.000000 0.000000 0.007942 0.000000 0.015799
#
#
# Mechanical properties :
#
#
# Convention : Reuss Voigt Hill
#
# Bulk Modulus (GPa) = 27.67491 41.70568 34.69030
# Shear Modulus (GPa) = 25.20673 34.90313 30.05493
#
# Velocity S-wave (km/s) = 3.78908 4.45870 4.13746
# Velocity P-wave (km/s) = 5.90812 7.08952 6.52561
#
# Compressibility (1/GPa) = 0.03613381
#
# Stress axis : x y z
#
# Youngs Moduli (GPa) = 45.49684 71.55690 46.35214
#
# Poissons Ratio (x) = 0.75271 -0.15898
# Poissons Ratio (y) = 0.47858 0.16724
# Poissons Ratio (z) = -0.15605 0.25818
#
# Static dielectric constant tensor:
#      x y z
#    x 1.603150 0.000000 -0.017630 
#    y 0.000000 1.623090 0.000000 
#    z -0.017630 0.000000 1.670600 
# 
# From -- ./inp_files/148084.got.cif
#   From: 2010.05.17/outbox.cif.g08.bks.cpg/sg15_75_cif.got.tgz:148084.got - 2010.06.03 18:47:42.
