data_PCOD9269417
_publ_section_title
;
Structure prediction by ZEFSAII (Michael W. Deem and Ramdas Pophale) SiO2 
 PCOD9269417
Probable space group: C 2/C
;
_chemical_formula_sum "Si O2"
_cell_formula_units_Z 60
_cell_length_a 13.619779
_cell_length_b 22.618355
_cell_length_c 21.976550
_cell_angle_alpha 90.000000
_cell_angle_beta 30.188201
_cell_angle_gamma 90.000000
_cell_volume 3404.255111
_symmetry_space_group_name_H-M "C 2/C"
_symmetry_group_IT_number 15
_symmetry_cell_setting 'monoclinic'
loop_
_space_group_symop_operation_xyz
x,y,z
-x,y,1/2-z
-x,-y,-z
x,-y,1/2+z
1/2+x,1/2+y,z
1/2-x,1/2+y,1/2-z
1/2-x,1/2-y,-z
1/2+x,1/2-y,1/2+z
loop_
_atom_site_type_symbol
_atom_site_label
_atom_site_fract_x
_atom_site_fract_y
_atom_site_fract_z
Si Si1 0.500000 0.895184 0.750000
Si Si2 0.044228 0.458313 0.067793
Si Si3 0.492321 0.541328 0.364543
Si Si4 0.465866 0.821017 0.892045
Si Si5 0.014748 0.195835 0.669616
Si Si6 0.379617 0.079262 0.107414
Si Si7 0.076041 0.933790 0.951891
Si Si8 0.851838 0.911440 0.185174
O O1 0.477320 0.855873 0.822299
O O2 0.302780 0.931674 0.846948
O O3 0.982721 0.526961 0.091645
O O4 0.876014 0.427866 0.197899
O O5 0.264569 0.453761 0.972790
O O6 0.038125 0.428390 0.004297
O O7 0.649271 0.564291 0.231578
O O8 0.542986 0.578087 0.398673
O O9 0.544718 0.472003 0.346818
O O10 0.541479 0.755379 0.836541
O O11 0.576227 0.858872 0.884113
O O12 0.240658 0.816676 0.032671
O O13 0.000000 0.204089 0.750000
O O14 0.890917 0.140524 0.711833
O O15 0.953910 0.896272 0.066209
O O16 0.000000 0.000000 0.000000
#
# Coordination Sequence:
#
# PCOD9269417 Si02
#       8
#     4   8   8   8   8   8   8   8
#     4  12  20  40  58  82 122 148 190 234 286 350
#     4  10  21  34  55  81 114 145 184 233 287 337
#     4  10  20  34  56  83 110 150 186 226 284 350
#     4  11  22  36  60  83 112 154 187 238 288 343
#     4  11  22  36  56  87 114 147 194 234 296 337
#     4  10  20  36  54  82 110 148 187 230 286 339
#     4  10  22  33  55  83 111 153 184 228 285 343
#     4  10  21  35  51  82 117 143 181 237 286 337
#
# _framework density 17.625001000000001
#
# number of rings (size 3 to 8) (size 9 to 14) (size 15 to 20)
#    0.000    1.600    3.333    2.000    1.867    2.667 
#    0.000    0.000    0.000    0.800    3.467    0.000 
#    0.000    0.000    0.000    0.000    0.000    0.000 
#
# Total GULP energy -167396.173333 kJ/mol
# GULP energy per Si atom -5579.872444 kJ/mol
# Density = 1.758489 g / cm^3
# Si number density = 17.625001 Si / 1000 Ang^3
#
#
#
# Elastic Constant Matrix: (Units=GPa)
#
#
# Indices 1 2 3 4 5 6 
#
# 1 46.7271 31.9916 29.3964 -0.0002 -14.4154 -0.0031
# 2 31.9916 86.2059 29.4033 0.0262 -9.3154 -0.0067
# 3 29.3964 29.4033 121.0247 0.0283 -14.7851 -0.0038
# 4 -0.0002 0.0262 0.0283 18.3406 0.0074 2.0306
# 5 -14.4154 -9.3154 -14.7851 0.0074 39.9240 -0.0140
# 6 -0.0031 -0.0067 -0.0038 2.0306 -0.0140 24.7399
#
#
#
# Elastic Compliance Matrix: (Units=1/GPa)
#
#
# Indices 1 2 3 4 5 6 
#
# 1 0.033766 -0.010028 -0.004778 0.000018 0.008083 0.000004
# 2 -0.010028 0.015765 -0.001453 -0.000021 -0.000480 0.000004
# 3 -0.004778 -0.001453 0.009975 -0.000014 0.001630 0.000003
# 4 0.000018 -0.000021 -0.000014 0.055024 -0.000015 -0.004516
# 5 0.008083 -0.000480 0.001630 -0.000015 0.028458 0.000018
# 6 0.000004 0.000004 0.000003 -0.004516 0.000018 0.040791
#
#
# Mechanical properties :
#
#
# Convention : Reuss Voigt Hill
#
# Bulk Modulus (GPa) = 37.05226 48.39338 42.72282
# Shear Modulus (GPa) = 22.19337 27.47866 24.83602
#
# Velocity S-wave (km/s) = 3.55237 3.95279 3.75792
# Velocity P-wave (km/s) = 6.15581 6.95339 6.56672
#
# Compressibility (1/GPa) = 0.02698891
#
# Stress axis : x y z
#
# Youngs Moduli (GPa) = 29.61598 63.43079 100.24562
#
# Poissons Ratio (x) = 0.63606 0.47896
# Poissons Ratio (y) = 0.29698 0.14568
# Poissons Ratio (z) = 0.14150 0.09218
#
# Static dielectric constant tensor:
#      x y z
#    x 1.614530 0.000010 0.046840 
#    y 0.000010 1.588870 0.000020 
#    z 0.046840 0.000020 1.630720 
# 
# From -- ./inp_files/99815.got.cif
#   From: 2010.05.17/outbox.cif.g08.bks.cpg/sg15_50_cif.got.tgz:99815.got - 2010.06.03 18:47:42.
