data_PCOD9269331
_publ_section_title
;
Structure prediction by ZEFSAII (Michael W. Deem and Ramdas Pophale) SiO2 
 PCOD9269331
Probable space group: C 2/C
;
_chemical_formula_sum "Si O2"
_cell_formula_units_Z 40
_cell_length_a 7.711813
_cell_length_b 28.075649
_cell_length_c 6.922705
_cell_angle_alpha 90.000000
_cell_angle_beta 79.700986
_cell_angle_gamma 90.000000
_cell_volume 1474.714104
_symmetry_space_group_name_H-M "C 2/C"
_symmetry_group_IT_number 15
_symmetry_cell_setting 'monoclinic'
loop_
_space_group_symop_operation_xyz
x,y,z
-x,y,1/2-z
-x,-y,-z
x,-y,1/2+z
1/2+x,1/2+y,z
1/2-x,1/2+y,1/2-z
1/2-x,1/2-y,-z
1/2+x,1/2-y,1/2+z
loop_
_atom_site_type_symbol
_atom_site_label
_atom_site_fract_x
_atom_site_fract_y
_atom_site_fract_z
Si Si1 0.816321 0.462814 0.397052
Si Si2 0.291539 0.160172 0.275941
Si Si3 0.293983 0.236779 0.772067
Si Si4 0.785933 0.636576 0.828028
Si Si5 0.689218 0.561162 0.315490
O O1 0.719838 0.417563 0.316432
O O2 0.717666 0.513154 0.429680
O O3 0.833981 0.444794 0.613724
O O4 0.000000 0.468936 0.250000
O O5 0.500000 0.157839 0.250000
O O6 0.244341 0.214703 0.334592
O O7 0.214677 0.113697 0.398209
O O8 0.245163 0.150271 0.060069
O O9 0.500000 0.229611 0.750000
O O10 0.221028 0.184417 0.733887
O O11 0.250000 0.250000 0.000000
O O12 0.000000 0.632526 0.750000
O O13 0.500000 0.559460 0.250000
#
# Coordination Sequence:
#
# PCOD9269331 Si02
#       5
#     8   8   8   8   8
#     4  10  20  36  57  79 106 144 182 218 264 322
#     4  10  20  34  55  82 107 138 182 225 263 314
#     4   9  17  34  56  77 106 143 176 214 265 321
#     4   8  17  34  54  75 104 141 174 211 264 318
#     4  11  22  36  54  81 111 142 178 224 272 317
#
# _framework density 27.123902000000001
#
# number of rings (size 3 to 8) (size 9 to 14) (size 15 to 20)
#    0.000    2.400    0.000    2.400    0.000    3.200 
#    0.000   10.000    0.000    2.400    0.000    0.000 
#    0.000    0.000    0.000    0.000    0.000    0.000 
#
# Total GULP energy -111722.764877 kJ/mol
# GULP energy per Si atom -5586.138244 kJ/mol
# Density = 2.706217 g / cm^3
# Si number density = 27.123902 Si / 1000 Ang^3
#
#
#
# Elastic Constant Matrix: (Units=GPa)
#
#
# Indices 1 2 3 4 5 6 
#
# 1 61.7196 44.4339 -21.3074 0.0000 -1.1609 0.0000
# 2 44.4339 405.4623 19.7750 0.0000 28.9328 0.0000
# 3 -21.3074 19.7750 86.2742 0.0000 -3.3827 0.0000
# 4 0.0000 0.0000 0.0000 44.8979 0.0000 1.0926
# 5 -1.1609 28.9328 -3.3827 0.0000 27.2577 0.0000
# 6 0.0000 0.0000 0.0000 1.0926 0.0000 37.5741
#
#
#
# Elastic Compliance Matrix: (Units=1/GPa)
#
#
# Indices 1 2 3 4 5 6 
#
# 1 0.020363 -0.002847 0.005863 0.000000 0.004617 0.000000
# 2 -0.002847 0.003113 -0.001558 0.000000 -0.003618 0.000000
# 3 0.005863 -0.001558 0.013537 0.000000 0.003584 0.000000
# 4 0.000000 0.000000 0.000000 0.022289 0.000000 -0.000648
# 5 0.004617 -0.003618 0.003584 0.000000 0.041169 0.000000
# 6 0.000000 0.000000 0.000000 -0.000648 0.000000 0.026633
#
#
# Mechanical properties :
#
#
# Convention : Reuss Voigt Hill
#
# Bulk Modulus (GPa) = 25.04617 71.02878 48.03747
# Shear Modulus (GPa) = 36.36462 55.98293 46.17377
#
# Velocity S-wave (km/s) = 3.66551 4.54802 4.13040
# Velocity P-wave (km/s) = 5.21236 7.33641 6.36363
#
# Compressibility (1/GPa) = 0.03992626
#
# Stress axis : x y z
#
# Youngs Moduli (GPa) = 49.10967 321.28422 73.87405
#
# Poissons Ratio (x) = 0.91465 -0.43309
# Poissons Ratio (y) = 0.13981 0.11512
# Poissons Ratio (z) = -0.28791 0.50069
#
# Static dielectric constant tensor:
#      x y z
#    x 2.073090 0.000000 0.027660 
#    y 0.000000 2.249510 0.000000 
#    z 0.027660 0.000000 2.246670 
# 
# From -- ./inp_files/24412.got.cif
#   From: 2010.05.17/outbox.cif.g08.bks.cpg/sg15_13_cif.got.tgz:24412.got - 2010.06.03 18:47:42.
