data_PCOD9269768
_publ_section_title
;
Structure prediction by ZEFSAII (Michael W. Deem and Ramdas Pophale) SiO2 
 PCOD9269768
Probable space group: C 2/C
;
_chemical_formula_sum "Si O2"
_cell_formula_units_Z 64
_cell_length_a 29.615032
_cell_length_b 10.701883
_cell_length_c 8.959227
_cell_angle_alpha 90.000000
_cell_angle_beta 94.876462
_cell_angle_gamma 90.000000
_cell_volume 2829.228855
_symmetry_space_group_name_H-M "C 2/C"
_symmetry_group_IT_number 15
_symmetry_cell_setting 'monoclinic'
loop_
_space_group_symop_operation_xyz
x,y,z
-x,y,1/2-z
-x,-y,-z
x,-y,1/2+z
1/2+x,1/2+y,z
1/2-x,1/2+y,1/2-z
1/2-x,1/2-y,-z
1/2+x,1/2-y,1/2+z
loop_
_atom_site_type_symbol
_atom_site_label
_atom_site_fract_x
_atom_site_fract_y
_atom_site_fract_z
Si Si1 0.679850 0.998348 0.467796
Si Si2 0.336089 0.416187 0.920868
Si Si3 0.067732 0.049149 0.619782
Si Si4 0.310162 0.649147 0.753164
Si Si5 0.495688 0.312795 0.907400
Si Si6 0.711336 0.819068 0.227238
Si Si7 0.869707 0.366080 0.807192
Si Si8 0.950052 0.740798 0.173532
O O1 0.709116 0.074753 0.596329
O O2 0.663285 0.088969 0.333640
O O3 0.700676 0.881735 0.383837
O O4 0.636959 0.951999 0.552681
O O5 0.385956 0.476753 0.908312
O O6 0.303398 0.523358 0.845940
O O7 0.324165 0.289060 0.827691
O O8 0.325677 0.387319 0.090578
O O9 0.069318 0.125005 0.776512
O O10 0.044008 0.149209 0.497943
O O11 0.029881 0.943418 0.626958
O O12 0.263214 0.724774 0.739803
O O13 0.349742 0.730235 0.840287
O O14 0.500000 0.248106 0.750000
O O15 0.460232 0.239480 0.002317
O O16 0.917914 0.357162 0.743750
O O17 0.000000 0.731452 0.250000
#
# Coordination Sequence:
#
# PCOD9269768 Si02
#       8
#     8   8   8   8   8   8   8   8
#     4  10  25  46  71  89 131 180 237 275 333 396
#     4  12  26  40  65 105 134 179 223 279 335 406
#     4  10  20  36  56  93 137 171 210 263 333 407
#     4  12  26  41  67  99 143 170 224 285 341 401
#     4  10  20  34  60  91 135 176 205 255 341 422
#     4  11  25  46  67  97 131 185 227 280 338 394
#     4  11  23  47  67  97 129 179 223 285 330 402
#     4  10  21  41  64  94 135 174 205 275 348 394
#
# _framework density 22.621003999999999
#
# number of rings (size 3 to 8) (size 9 to 14) (size 15 to 20)
#    0.000    1.250    2.500    3.750    7.000    0.500 
#    2.250    0.625    0.000    0.000    0.000    0.000 
#    0.000    0.000    0.000    0.000    0.000    0.000 
#
# Total GULP energy -178647.960818 kJ/mol
# GULP energy per Si atom -5582.748776 kJ/mol
# Density = 2.256952 g / cm^3
# Si number density = 22.621004 Si / 1000 Ang^3
#
#
#
# Elastic Constant Matrix: (Units=GPa)
#
#
# Indices 1 2 3 4 5 6 
#
# 1 132.0207 14.0645 19.7168 0.0000 -17.8698 0.0000
# 2 14.0645 44.8604 10.6635 0.0000 -2.0485 0.0000
# 3 19.7168 10.6635 84.8524 0.0000 -19.5765 0.0000
# 4 0.0000 0.0000 0.0000 27.3032 0.0000 -9.4639
# 5 -17.8698 -2.0485 -19.5765 0.0000 26.7593 0.0000
# 6 0.0000 0.0000 0.0000 -9.4639 0.0000 22.4103
#
#
#
# Elastic Compliance Matrix: (Units=1/GPa)
#
#
# Indices 1 2 3 4 5 6 
#
# 1 0.008603 -0.002339 -0.000506 0.000000 0.005195 0.000000
# 2 -0.002339 0.023618 -0.002849 0.000000 -0.001838 0.000000
# 3 -0.000506 -0.002849 0.014596 0.000000 0.010122 0.000000
# 4 0.000000 0.000000 0.000000 0.042906 0.000000 0.018120
# 5 0.005195 -0.001838 0.010122 0.000000 0.048104 0.000000
# 6 0.000000 0.000000 0.000000 0.018120 0.000000 0.052274
#
#
# Mechanical properties :
#
#
# Convention : Reuss Voigt Hill
#
# Bulk Modulus (GPa) = 28.22632 38.95813 33.59223
# Shear Modulus (GPa) = 23.44121 29.78046 26.61084
#
# Velocity S-wave (km/s) = 3.22259 3.63229 3.43356
# Velocity P-wave (km/s) = 5.13340 5.90346 5.53185
#
# Compressibility (1/GPa) = 0.03542793
#
# Stress axis : x y z
#
# Youngs Moduli (GPa) = 116.24335 42.34054 68.51158
#
# Poissons Ratio (x) = 0.09906 0.03469
# Poissons Ratio (y) = 0.27195 0.19516
# Poissons Ratio (z) = 0.05886 0.12061
#
# Static dielectric constant tensor:
#      x y z
#    x 1.853560 0.000000 0.007220 
#    y 0.000000 1.876870 0.000000 
#    z 0.007220 0.000000 1.885200 
# 
# From -- ./inp_files/69388.got.cif
#   From: 2010.05.17/outbox.cif.g08.bks.cpg/sg15_35_cif.got.tgz:69388.got - 2010.06.03 18:47:42.
