data_PCOD9269387
_publ_section_title
;
Structure prediction by ZEFSAII (Michael W. Deem and Ramdas Pophale) SiO2 
 PCOD9269387
Probable space group: C 2/C
;
_chemical_formula_sum "Si O2"
_cell_formula_units_Z 48
_cell_length_a 19.661935
_cell_length_b 21.492171
_cell_length_c 5.283862
_cell_angle_alpha 90.000000
_cell_angle_beta 114.568566
_cell_angle_gamma 90.000000
_cell_volume 2030.690290
_symmetry_space_group_name_H-M "C 2/C"
_symmetry_group_IT_number 15
_symmetry_cell_setting 'monoclinic'
loop_
_space_group_symop_operation_xyz
x,y,z
-x,y,1/2-z
-x,-y,-z
x,-y,1/2+z
1/2+x,1/2+y,z
1/2-x,1/2+y,1/2-z
1/2-x,1/2-y,-z
1/2+x,1/2-y,1/2+z
loop_
_atom_site_type_symbol
_atom_site_label
_atom_site_fract_x
_atom_site_fract_y
_atom_site_fract_z
Si Si1 0.077299 0.716833 0.990115
Si Si2 0.221060 0.151191 0.051641
Si Si3 0.325231 0.788271 0.359383
Si Si4 0.611037 0.532558 0.401482
Si Si5 0.720702 0.020394 0.270232
Si Si6 0.060954 0.859875 0.125681
O O1 0.136630 0.708271 0.854043
O O2 0.000000 0.690829 0.750000
O O3 0.115355 0.697780 0.318048
O O4 0.060566 0.788951 0.030735
O O5 0.257395 0.166821 0.834221
O O6 0.138516 0.125554 0.888552
O O7 0.208001 0.218092 0.161500
O O8 0.264762 0.093731 0.240083
O O9 0.583302 0.493489 0.596764
O O10 0.701165 0.519375 0.559744
O O11 0.576914 0.400238 0.899389
O O12 0.680331 0.009469 0.471877
O O13 0.000000 0.868298 0.250000
#
# Coordination Sequence:
#
# PCOD9269387 Si02
#       6
#     8   8   8   8   8   8
#     4  11  23  42  61  87 115 145 197 244 310 362
#     4  10  21  40  57  85 123 147 218 235 298 348
#     4  10  24  37  64  87 110 163 182 261 296 354
#     4  10  21  36  50  77 106 162 204 249 276 316
#     4  10  20  34  56  78 112 165 185 257 278 331
#     4  11  23  37  58  82 119 169 204 249 286 330
#
# _framework density 23.637281000000002
#
# number of rings (size 3 to 8) (size 9 to 14) (size 15 to 20)
#    0.000    1.667    3.333    2.500    4.667    9.333 
#    0.000    0.000    0.000    0.000    0.000    0.000 
#    0.000   13.333    0.000    0.000    0.000    0.000 
#
# Total GULP energy -133988.480056 kJ/mol
# GULP energy per Si atom -5582.853336 kJ/mol
# Density = 2.358348 g / cm^3
# Si number density = 23.637281 Si / 1000 Ang^3
#
#
#
# Elastic Constant Matrix: (Units=GPa)
#
#
# Indices 1 2 3 4 5 6 
#
# 1 68.9315 3.1575 34.4460 0.0000 -10.8319 0.0000
# 2 3.1575 51.0579 11.2656 0.0000 -5.5203 0.0000
# 3 34.4460 11.2656 127.3787 0.0000 -22.1780 0.0000
# 4 0.0000 0.0000 0.0000 26.5937 0.0000 -14.6518
# 5 -10.8319 -5.5203 -22.1780 0.0000 35.3677 0.0000
# 6 0.0000 0.0000 0.0000 -14.6518 0.0000 15.6115
#
#
#
# Elastic Compliance Matrix: (Units=1/GPa)
#
#
# Indices 1 2 3 4 5 6 
#
# 1 0.016986 0.000149 -0.004150 0.000000 0.002623 0.000000
# 2 0.000149 0.020138 -0.001421 0.000000 0.002298 0.000000
# 3 -0.004150 -0.001421 0.009922 0.000000 0.004729 0.000000
# 4 0.000000 0.000000 0.000000 0.077867 0.000000 0.073080
# 5 0.002623 0.002298 0.004729 0.000000 0.032402 0.000000
# 6 0.000000 0.000000 0.000000 0.073080 0.000000 0.132644
#
#
# Mechanical properties :
#
#
# Convention : Reuss Voigt Hill
#
# Bulk Modulus (GPa) = 27.62286 38.34514 32.98400
# Shear Modulus (GPa) = 15.98104 28.74782 22.36443
#
# Velocity S-wave (km/s) = 2.60300 3.49120 3.07929
# Velocity P-wave (km/s) = 4.55474 5.70165 5.16016
#
# Compressibility (1/GPa) = 0.03620191
#
# Stress axis : x y z
#
# Youngs Moduli (GPa) = 58.87090 49.65633 100.78731
#
# Poissons Ratio (x) = -0.00739 0.41826
# Poissons Ratio (y) = -0.00876 0.14325
# Poissons Ratio (z) = 0.24431 0.07058
#
# Static dielectric constant tensor:
#      x y z
#    x 1.955400 0.000000 0.036080 
#    y 0.000000 1.915330 0.000000 
#    z 0.036080 0.000000 2.032020 
# 
# From -- ./inp_files/15564.got.cif
#   From: 2010.05.17/outbox.cif.g08.bks.cpg/sg15_8_cif.got.tgz:15564.got - 2010.06.03 18:47:42.
