data_PCOD9269087
_publ_section_title
;
Structure prediction by ZEFSAII (Michael W. Deem and Ramdas Pophale) SiO2 
 PCOD9269087
Probable space group: C 2/C
;
_chemical_formula_sum "Si O2"
_cell_formula_units_Z 36
_cell_length_a 12.778401
_cell_length_b 25.046823
_cell_length_c 11.667758
_cell_angle_alpha 90.000000
_cell_angle_beta 156.262237
_cell_angle_gamma 90.000000
_cell_volume 1503.272419
_symmetry_space_group_name_H-M "C 2/C"
_symmetry_group_IT_number 15
_symmetry_cell_setting 'monoclinic'
loop_
_space_group_symop_operation_xyz
x,y,z
-x,y,1/2-z
-x,-y,-z
x,-y,1/2+z
1/2+x,1/2+y,z
1/2-x,1/2+y,1/2-z
1/2-x,1/2-y,-z
1/2+x,1/2-y,1/2+z
loop_
_atom_site_type_symbol
_atom_site_label
_atom_site_fract_x
_atom_site_fract_y
_atom_site_fract_z
Si Si1 0.128695 0.399778 0.204736
Si Si2 0.395348 0.466793 0.784053
Si Si3 0.506055 0.213143 0.519115
Si Si4 0.000000 0.287035 0.750000
Si Si5 0.242304 0.919654 0.425161
O O1 0.356762 0.430034 0.503394
O O2 0.244569 0.403726 0.192851
O O3 0.856173 0.431300 0.937727
O O4 0.066220 0.337616 0.160149
O O5 0.286988 0.516102 0.600826
O O6 0.500000 0.500000 0.000000
O O7 0.732074 0.257146 0.760782
O O8 0.504030 0.191213 0.384996
O O9 0.750000 0.250000 0.500000
O O10 0.000000 0.895206 0.250000
O O11 0.500000 0.905164 0.750000
#
# Coordination Sequence:
#
# PCOD9269087 Si02
#       5
#     8   8   8   4   8
#     4  11  21  35  55  74 107 147 175 209 264 312
#     4  10  20  37  52  74 106 139 171 217 271 307
#     4  10  20  34  49  72 103 137 179 218 245 291
#     4   8  16  30  42  60  94 132 160 208 248 260
#     4  11  21  34  53  79 105 135 177 218 252 315
#
# _framework density 23.947756999999999
#
# number of rings (size 3 to 8) (size 9 to 14) (size 15 to 20)
#    0.000    1.778    0.000    8.000    1.556    0.000 
#    8.000    0.000    0.000    0.000    0.000    0.000 
#    0.000   62.222    0.000    0.000    0.000    0.000 
#
# Total GULP energy -100514.705472 kJ/mol
# GULP energy per Si atom -5584.150304 kJ/mol
# Density = 2.389325 g / cm^3
# Si number density = 23.947757 Si / 1000 Ang^3
#
#
#
# Elastic Constant Matrix: (Units=GPa)
#
#
# Indices 1 2 3 4 5 6 
#
# 1 35.8990 -5.6544 13.3570 0.0000 11.7547 -0.0001
# 2 -5.6544 107.9326 27.9386 -0.0001 -5.3523 0.0002
# 3 13.3570 27.9386 177.3527 0.0022 11.7610 -0.0059
# 4 0.0000 -0.0001 0.0022 43.9519 -0.0001 -55.8248
# 5 11.7547 -5.3523 11.7610 -0.0001 36.1061 -0.0001
# 6 -0.0001 0.0002 -0.0059 -55.8248 -0.0001 95.1315
#
#
#
# Elastic Compliance Matrix: (Units=1/GPa)
#
#
# Indices 1 2 3 4 5 6 
#
# 1 0.032002 0.001738 -0.002054 0.000000 -0.009492 0.000000
# 2 0.001738 0.009892 -0.001788 0.000000 0.001483 0.000000
# 3 -0.002054 -0.001788 0.006182 0.000001 -0.001610 0.000001
# 4 0.000000 0.000000 0.000001 0.089342 0.000000 0.052427
# 5 -0.009492 0.001483 -0.001610 0.000000 0.031530 0.000000
# 6 0.000000 0.000000 0.000001 0.052427 0.000000 0.041277
#
#
# Mechanical properties :
#
#
# Convention : Reuss Voigt Hill
#
# Bulk Modulus (GPa) = 22.79616 43.60741 33.20179
# Shear Modulus (GPa) = 21.82867 54.07411 37.95139
#
# Velocity S-wave (km/s) = 3.02240 4.75700 3.98522
# Velocity P-wave (km/s) = 4.66044 6.95852 5.92202
#
# Compressibility (1/GPa) = 0.04386704
#
# Stress axis : x y z
#
# Youngs Moduli (GPa) = 31.24812 101.08842 161.77168
#
# Poissons Ratio (x) = -0.17565 0.33235
# Poissons Ratio (y) = -0.05430 0.28918
# Poissons Ratio (z) = 0.06420 0.18070
#
# Static dielectric constant tensor:
#      x y z
#    x 1.007920 0.000000 0.080480 
#    y 0.000000 1.968810 0.000000 
#    z 0.080480 0.000000 1.890660 
# 
# From -- ./inp_files/7219.got.cif
#   From: 2010.05.17/outbox.cif.g08.bks.cpg/sg15_4_cif.got.tgz:7219.got - 2010.06.03 18:47:42.
