data_PCOD9269601
_publ_section_title
;
Structure prediction by ZEFSAII (Michael W. Deem and Ramdas Pophale) SiO2 
 PCOD9269601
Probable space group: C 2/C
;
_chemical_formula_sum "Si O2"
_cell_formula_units_Z 60
_cell_length_a 26.627490
_cell_length_b 11.744064
_cell_length_c 9.392230
_cell_angle_alpha 90.000000
_cell_angle_beta 83.788690
_cell_angle_gamma 90.000000
_cell_volume 2919.848883
_symmetry_space_group_name_H-M "C 2/C"
_symmetry_group_IT_number 15
_symmetry_cell_setting 'monoclinic'
loop_
_space_group_symop_operation_xyz
x,y,z
-x,y,1/2-z
-x,-y,-z
x,-y,1/2+z
1/2+x,1/2+y,z
1/2-x,1/2+y,1/2-z
1/2-x,1/2-y,-z
1/2+x,1/2-y,1/2+z
loop_
_atom_site_type_symbol
_atom_site_label
_atom_site_fract_x
_atom_site_fract_y
_atom_site_fract_z
Si Si1 0.597517 0.810005 0.709479
Si Si2 0.369731 0.055899 0.825730
Si Si3 0.458123 0.900454 0.507685
Si Si4 0.000000 0.763280 0.750000
Si Si5 0.916002 0.729290 0.600199
Si Si6 0.675767 0.603325 0.700487
Si Si7 0.179985 0.884232 0.870321
Si Si8 0.768378 0.290913 0.340396
O O1 0.569559 0.796151 0.566200
O O2 0.632032 0.699092 0.725477
O O3 0.634501 0.920710 0.694363
O O4 0.556165 0.840815 0.840420
O O5 0.403823 0.066214 0.956493
O O6 0.404771 0.114539 0.692946
O O7 0.318107 0.128452 0.843735
O O8 0.479964 0.812004 0.386609
O O9 0.500000 0.000000 0.500000
O O10 0.951239 0.812190 0.685410
O O11 0.862927 0.790154 0.601065
O O12 0.659476 0.488151 0.783454
O O13 0.691453 0.583489 0.530378
O O14 0.724753 0.641074 0.773545
O O15 0.221287 0.818954 0.762988
O O16 0.750000 0.250000 0.500000
#
# Coordination Sequence:
#
# PCOD9269601 Si02
#       8
#     8   8   8   4   8   8   8   8
#     4  11  22  38  61  93 125 165 211 258 323 373
#     4  10  21  37  57  89 130 160 202 260 315 378
#     4  11  21  35  59  90 129 166 204 249 315 388
#     4  10  20  34  58  86 118 162 202 246 316 370
#     4   9  21  39  60  87 124 165 203 266 308 380
#     4  11  24  42  67  89 124 173 212 273 315 391
#     4  10  23  44  63  91 126 165 220 263 326 373
#     4  11  23  40  63  94 128 168 214 261 322 390
#
# _framework density 20.549009000000002
#
# number of rings (size 3 to 8) (size 9 to 14) (size 15 to 20)
#    0.000    1.600    0.000    5.200    1.867    3.733 
#    7.200    0.667    0.000    8.800    0.000    0.000 
#    0.000    0.000    0.000    0.000    0.000    0.000 
#
# Total GULP energy -167306.042058 kJ/mol
# GULP energy per Si atom -5576.868069 kJ/mol
# Density = 2.050224 g / cm^3
# Si number density = 20.549009 Si / 1000 Ang^3
#
#
#
# Elastic Constant Matrix: (Units=GPa)
#
#
# Indices 1 2 3 4 5 6 
#
# 1 64.2218 -5.8370 39.2780 0.0000 3.0865 0.0000
# 2 -5.8370 68.2835 29.3738 0.0000 -8.5800 0.0000
# 3 39.2780 29.3738 188.2680 0.0000 -8.5403 0.0000
# 4 0.0000 0.0000 0.0000 26.8342 0.0000 8.4201
# 5 3.0865 -8.5800 -8.5403 0.0000 38.6748 0.0000
# 6 0.0000 0.0000 0.0000 8.4201 0.0000 15.3639
#
#
#
# Elastic Compliance Matrix: (Units=1/GPa)
#
#
# Indices 1 2 3 4 5 6 
#
# 1 0.018709 0.003315 -0.004500 0.000000 -0.001751 0.000000
# 2 0.003315 0.016631 -0.003163 0.000000 0.002727 0.000000
# 3 -0.004500 -0.003163 0.006796 0.000000 0.001158 0.000000
# 4 0.000000 0.000000 0.000000 0.045005 0.000000 -0.024665
# 5 -0.001751 0.002727 0.001158 0.000000 0.026857 0.000000
# 6 0.000000 0.000000 0.000000 -0.024665 0.000000 0.078605
#
#
# Mechanical properties :
#
#
# Convention : Reuss Voigt Hill
#
# Bulk Modulus (GPa) = 29.90345 49.60034 39.75190
# Shear Modulus (GPa) = 23.53538 33.37182 28.45360
#
# Velocity S-wave (km/s) = 3.38794 4.03427 3.72515
# Velocity P-wave (km/s) = 5.46700 6.77425 6.15543
#
# Compressibility (1/GPa) = 0.03344095
#
# Stress axis : x y z
#
# Youngs Moduli (GPa) = 53.45156 60.12752 147.13784
#
# Poissons Ratio (x) = -0.19931 0.66209
# Poissons Ratio (y) = -0.17718 0.46536
# Poissons Ratio (z) = 0.24052 0.19017
#
# Static dielectric constant tensor:
#      x y z
#    x 1.808100 0.000000 -0.005510 
#    y 0.000000 1.746910 0.000000 
#    z -0.005510 0.000000 1.760760 
# 
# From -- ./inp_files/65512.got.cif
#   From: 2010.05.17/outbox.cif.g08.bks.cpg/sg15_33_cif.got.tgz:65512.got - 2010.06.03 18:47:42.
