data_PCOD9269240
_publ_section_title
;
Structure prediction by ZEFSAII (Michael W. Deem and Ramdas Pophale) SiO2 
 PCOD9269240
Probable space group: C 2/C
;
_chemical_formula_sum "Si O2"
_cell_formula_units_Z 48
_cell_length_a 6.691737
_cell_length_b 7.935424
_cell_length_c 30.830394
_cell_angle_alpha 90.000000
_cell_angle_beta 86.616081
_cell_angle_gamma 90.000000
_cell_volume 1634.294027
_symmetry_space_group_name_H-M "C 2/C"
_symmetry_group_IT_number 15
_symmetry_cell_setting 'monoclinic'
loop_
_space_group_symop_operation_xyz
x,y,z
-x,y,1/2-z
-x,-y,-z
x,-y,1/2+z
1/2+x,1/2+y,z
1/2-x,1/2+y,1/2-z
1/2-x,1/2-y,-z
1/2+x,1/2-y,1/2+z
loop_
_atom_site_type_symbol
_atom_site_label
_atom_site_fract_x
_atom_site_fract_y
_atom_site_fract_z
Si Si1 0.026185 0.750728 0.983293
Si Si2 0.279158 0.602869 0.733774
Si Si3 0.860362 0.253268 0.650457
Si Si4 0.304573 0.251570 0.682676
Si Si5 0.449352 0.400097 0.068008
Si Si6 0.611339 0.103330 0.901042
O O1 0.990565 0.604327 0.948214
O O2 0.250000 0.750000 0.000000
O O3 0.898314 0.774440 0.028852
O O4 0.025418 0.918418 0.953794
O O5 0.500000 0.637594 0.750000
O O6 0.233740 0.738745 0.696372
O O7 0.293151 0.427511 0.708133
O O8 0.151771 0.615891 0.779672
O O9 0.870117 0.428196 0.624675
O O10 0.082521 0.220437 0.666482
O O11 0.817121 0.116457 0.613025
O O12 0.434446 0.236323 0.637071
O O13 0.668839 0.354573 0.083117
#
# Coordination Sequence:
#
# PCOD9269240 Si02
#       6
#     8   8   8   8   8   8
#     4   9  18  35  55  75 104 137 170 211 256 302
#     4  10  21  36  53  75 104 136 169 210 256 301
#     4  10  21  35  53  78 105 134 172 212 253 304
#     4  10  21  36  54  77 105 135 171 212 254 303
#     4   9  19  36  53  74 106 136 166 211 258 301
#     4  10  20  34  54  78 102 134 172 209 254 305
#
# _framework density 29.370480000000001
#
# number of rings (size 3 to 8) (size 9 to 14) (size 15 to 20)
#    0.000    2.333    0.000    2.000    0.000    3.333 
#    0.000    7.500    0.000    0.000    0.000    0.000 
#    0.000    0.000    0.000    0.000    0.000    0.000 
#
# Total GULP energy -134403.030591 kJ/mol
# GULP energy per Si atom -5600.126275 kJ/mol
# Density = 2.930363 g / cm^3
# Si number density = 29.370480 Si / 1000 Ang^3
#
#
#
# Elastic Constant Matrix: (Units=GPa)
#
#
# Indices 1 2 3 4 5 6 
#
# 1 77.7484 -21.4917 53.8728 0.0000 -9.7951 0.0000
# 2 -21.4917 143.9972 88.5073 0.0000 4.6693 0.0000
# 3 53.8728 88.5073 313.0006 0.0000 6.4398 0.0000
# 4 0.0000 0.0000 0.0000 78.8284 0.0000 11.1365
# 5 -9.7951 4.6693 6.4398 0.0000 77.1349 0.0000
# 6 0.0000 0.0000 0.0000 11.1365 0.0000 31.2354
#
#
#
# Elastic Compliance Matrix: (Units=1/GPa)
#
#
# Indices 1 2 3 4 5 6 
#
# 1 0.017911 0.005473 -0.004678 0.000000 0.002334 0.000000
# 2 0.005473 0.010085 -0.003802 0.000000 0.000402 0.000000
# 3 -0.004678 -0.003802 0.005091 0.000000 -0.000789 0.000000
# 4 0.000000 0.000000 0.000000 0.013359 0.000000 -0.004763
# 5 0.002334 0.000402 -0.000789 0.000000 0.013302 0.000000
# 6 0.000000 0.000000 0.000000 -0.004763 0.000000 0.033713
#
#
# Mechanical properties :
#
#
# Convention : Reuss Voigt Hill
#
# Bulk Modulus (GPa) = 36.93785 86.28035 61.60910
# Shear Modulus (GPa) = 46.08280 65.03026 55.55653
#
# Velocity S-wave (km/s) = 3.96538 4.71057 4.35394
# Velocity P-wave (km/s) = 5.79392 7.68285 6.80425
#
# Compressibility (1/GPa) = 0.02707250
#
# Stress axis : x y z
#
# Youngs Moduli (GPa) = 55.83298 99.15375 196.40726
#
# Poissons Ratio (x) = -0.54267 0.91886
# Poissons Ratio (y) = -0.30557 0.74676
# Poissons Ratio (z) = 0.26121 0.37699
#
# Static dielectric constant tensor:
#      x y z
#    x 2.442520 0.000000 -0.134180 
#    y 0.000000 2.290950 0.000000 
#    z -0.134180 0.000000 2.253650 
# 
# From -- ./inp_files/267625.got.cif
#   From: 2010.05.17/outbox.cif.g08.bks.cpg/sg15_134_cif.got.tgz:267625.got - 2010.06.03 18:47:42.
