data_PCOD9269435
_publ_section_title
;
Structure prediction by ZEFSAII (Michael W. Deem and Ramdas Pophale) SiO2 
 PCOD9269435
Probable space group: C 2/C
;
_chemical_formula_sum "Si O2"
_cell_formula_units_Z 48
_cell_length_a 17.741742
_cell_length_b 7.368571
_cell_length_c 16.239317
_cell_angle_alpha 90.000000
_cell_angle_beta 64.416134
_cell_angle_gamma 90.000000
_cell_volume 1914.836770
_symmetry_space_group_name_H-M "C 2/C"
_symmetry_group_IT_number 15
_symmetry_cell_setting 'monoclinic'
loop_
_space_group_symop_operation_xyz
x,y,z
-x,y,1/2-z
-x,-y,-z
x,-y,1/2+z
1/2+x,1/2+y,z
1/2-x,1/2+y,1/2-z
1/2-x,1/2-y,-z
1/2+x,1/2-y,1/2+z
loop_
_atom_site_type_symbol
_atom_site_label
_atom_site_fract_x
_atom_site_fract_y
_atom_site_fract_z
Si Si1 0.250000 0.750000 0.500000
Si Si2 0.969803 0.246177 0.956945
Si Si3 0.130963 0.420052 0.951578
Si Si4 0.184330 0.503729 0.162575
Si Si5 0.000000 0.595482 0.750000
Si Si6 0.037163 0.085859 0.358074
Si Si7 0.219939 0.123786 0.237225
O O1 0.158229 0.740876 0.499233
O O2 0.227745 0.554917 0.557355
O O3 0.902995 0.405075 0.985895
O O4 0.953631 0.150406 0.052329
O O5 0.059067 0.348159 0.924682
O O6 0.977574 0.089336 0.885781
O O7 0.215271 0.453983 0.860178
O O8 0.197186 0.318424 0.209984
O O9 0.234645 0.640670 0.196427
O O10 0.084422 0.521473 0.204910
O O11 0.007294 0.738678 0.821859
O O12 0.130364 0.028710 0.286253
#
# Coordination Sequence:
#
# PCOD9269435 Si02
#       7
#     4   8   8   8   4   8   8
#     4  10  20  34  56  84 118 144 186 248 300 330
#     4  10  21  36  59  83 115 155 198 234 290 359
#     4  10  20  37  58  87 116 153 198 245 290 354
#     4  10  21  38  59  85 113 151 192 239 290 350
#     4  10  20  34  58  84 114 144 188 240 294 336
#     4  10  20  37  59  85 116 155 192 241 295 352
#     4  10  20  36  60  83 114 154 197 231 288 359
#
# _framework density 25.067411
#
# number of rings (size 3 to 8) (size 9 to 14) (size 15 to 20)
#    0.000    2.000    0.000    5.000    0.000    2.667 
#    0.000    5.000    0.000   23.000    0.000    0.000 
#    0.000    0.000    0.000    0.000    0.000    0.000 
#
# Total GULP energy -133643.486293 kJ/mol
# GULP energy per Si atom -5568.478596 kJ/mol
# Density = 2.501036 g / cm^3
# Si number density = 25.067411 Si / 1000 Ang^3
#
#
#
# Elastic Constant Matrix: (Units=GPa)
#
#
# Indices 1 2 3 4 5 6 
#
# 1 92.8081 15.4309 21.7681 -0.0002 -19.9813 -0.0005
# 2 15.4309 65.8915 8.2307 -0.0004 -17.9600 -0.0010
# 3 21.7681 8.2307 72.9740 0.0000 -29.2971 -0.0001
# 4 -0.0002 -0.0004 0.0000 22.1045 0.0000 0.1204
# 5 -19.9813 -17.9600 -29.2971 0.0000 33.7720 -0.0001
# 6 -0.0005 -0.0010 -0.0001 0.1204 -0.0001 33.1769
#
#
#
# Elastic Compliance Matrix: (Units=1/GPa)
#
#
# Indices 1 2 3 4 5 6 
#
# 1 0.012496 -0.001243 -0.001357 0.000000 0.005555 0.000000
# 2 -0.001243 0.018238 0.002934 0.000000 0.011509 0.000001
# 3 -0.001357 0.002934 0.021607 0.000000 0.019501 0.000000
# 4 0.000000 0.000000 0.000000 0.045240 0.000000 -0.000164
# 5 0.005555 0.011509 0.019501 0.000000 0.055935 0.000001
# 6 0.000000 0.000001 0.000000 -0.000164 0.000001 0.030142
#
#
# Mechanical properties :
#
#
# Convention : Reuss Voigt Hill
#
# Bulk Modulus (GPa) = 18.86459 35.83699 27.35079
# Shear Modulus (GPa) = 24.91796 30.22696 27.57246
#
# Velocity S-wave (km/s) = 3.15626 3.47627 3.32012
# Velocity P-wave (km/s) = 4.56339 5.51723 5.06282
#
# Compressibility (1/GPa) = 0.05300936
#
# Stress axis : x y z
#
# Youngs Moduli (GPa) = 80.02663 54.83047 46.28226
#
# Poissons Ratio (x) = 0.06814 0.06281
# Poissons Ratio (y) = 0.09945 -0.13581
# Poissons Ratio (z) = 0.10861 -0.16089
#
# Static dielectric constant tensor:
#      x y z
#    x 2.064490 0.000000 0.092050 
#    y 0.000000 1.979900 0.000000 
#    z 0.092050 0.000000 2.082560 
# 
# From -- ./inp_files/208991.got.cif
#   From: 2010.05.17/outbox.cif.g08.bks.cpg/sg15_105_cif.got.tgz:208991.got - 2010.06.03 18:47:42.
