data_PCOD9269528
_publ_section_title
;
Structure prediction by ZEFSAII (Michael W. Deem and Ramdas Pophale) SiO2 
 PCOD9269528
Probable space group: C 2/C
;
_chemical_formula_sum "Si O2"
_cell_formula_units_Z 40
_cell_length_a 15.602702
_cell_length_b 8.989491
_cell_length_c 10.225611
_cell_angle_alpha 90.000000
_cell_angle_beta 82.148978
_cell_angle_gamma 90.000000
_cell_volume 1420.803981
_symmetry_space_group_name_H-M "C 2/C"
_symmetry_group_IT_number 15
_symmetry_cell_setting 'monoclinic'
loop_
_space_group_symop_operation_xyz
x,y,z
-x,y,1/2-z
-x,-y,-z
x,-y,1/2+z
1/2+x,1/2+y,z
1/2-x,1/2+y,1/2-z
1/2-x,1/2-y,-z
1/2+x,1/2-y,1/2+z
loop_
_atom_site_type_symbol
_atom_site_label
_atom_site_fract_x
_atom_site_fract_y
_atom_site_fract_z
Si Si1 0.000000 0.472363 0.250000
Si Si2 0.353289 0.265785 0.156850
Si Si3 0.270620 0.440139 0.363882
Si Si4 0.874624 0.344671 0.911864
Si Si5 0.381928 0.280845 0.859583
Si Si6 0.500000 0.474510 0.250000
O O1 0.029926 0.580865 0.122193
O O2 0.078345 0.349333 0.237623
O O3 0.273289 0.370119 0.217967
O O4 0.351930 0.134275 0.262570
O O5 0.434782 0.370847 0.182705
O O6 0.361245 0.223951 0.007328
O O7 0.186635 0.415755 0.468212
O O8 0.344141 0.331498 0.423568
O O9 0.303903 0.607039 0.342659
O O10 0.456135 0.407469 0.856182
#
# Coordination Sequence:
#
# PCOD9269528 Si02
#       6
#     4   8   8   8   8   4
#     4  11  23  34  58  87 127 142 184 251 291 324
#     4   9  17  34  60  81 108 150 196 225 280 344
#     4   8  19  39  61  76 114 156 193 231 280 343
#     4   9  19  39  57  80 118 157 183 234 293 336
#     4  10  20  34  57  87 111 146 195 235 281 340
#     4   9  17  32  56  83 113 142 184 239 277 328
#
# _framework density 28.153072999999999
#
# number of rings (size 3 to 8) (size 9 to 14) (size 15 to 20)
#    1.200    1.600    0.000    1.200    0.000    1.600 
#    3.600    0.000   13.200    0.000    0.000    0.000 
#    0.000    0.000    0.000    0.000    0.000    0.000 
#
# Total GULP energy -111376.704160 kJ/mol
# GULP energy per Si atom -5568.835208 kJ/mol
# Density = 2.808900 g / cm^3
# Si number density = 28.153073 Si / 1000 Ang^3
#
#
#
# Elastic Constant Matrix: (Units=GPa)
#
#
# Indices 1 2 3 4 5 6 
#
# 1 89.2921 56.9870 63.4824 0.0000 -34.6596 0.0000
# 2 56.9870 228.0514 51.4150 0.0000 -21.6675 0.0000
# 3 63.4824 51.4150 147.4282 0.0000 -43.4500 0.0000
# 4 0.0000 0.0000 0.0000 41.3161 0.0000 -20.4227
# 5 -34.6596 -21.6675 -43.4500 0.0000 54.9550 0.0000
# 6 0.0000 0.0000 0.0000 -20.4227 0.0000 52.6078
#
#
#
# Elastic Compliance Matrix: (Units=1/GPa)
#
#
# Indices 1 2 3 4 5 6 
#
# 1 0.019644 -0.003042 -0.005346 0.000000 0.006963 0.000000
# 2 -0.003042 0.005253 -0.000622 0.000000 -0.000339 0.000000
# 3 -0.005346 -0.000622 0.010738 0.000000 0.004873 0.000000
# 4 0.000000 0.000000 0.000000 0.029951 0.000000 0.011627
# 5 0.006963 -0.000339 0.004873 0.000000 0.026308 0.000000
# 6 0.000000 0.000000 0.000000 0.011627 0.000000 0.023522
#
#
# Mechanical properties :
#
#
# Convention : Reuss Voigt Hill
#
# Bulk Modulus (GPa) = 56.76717 89.83783 73.30250
# Shear Modulus (GPa) = 35.89187 49.30160 42.59674
#
# Velocity S-wave (km/s) = 3.57442 4.18927 3.89400
# Velocity P-wave (km/s) = 6.10269 7.44176 6.80524
#
# Compressibility (1/GPa) = 0.01761581
#
# Stress axis : x y z
#
# Youngs Moduli (GPa) = 50.90625 190.36175 93.12772
#
# Poissons Ratio (x) = 0.57908 0.49782
# Poissons Ratio (y) = 0.15486 0.05794
# Poissons Ratio (z) = 0.27212 0.11843
#
# Static dielectric constant tensor:
#      x y z
#    x 2.445470 0.000000 -0.104450 
#    y 0.000000 2.251620 0.000000 
#    z -0.104450 0.000000 2.090250 
# 
# From -- ./inp_files/116194.got.cif
#   From: 2010.05.17/outbox.cif.g08.bks.cpg/sg15_59_cif.got.tgz:116194.got - 2010.06.03 18:47:42.
