data_PCOD9269228
_publ_section_title
;
Structure prediction by ZEFSAII (Michael W. Deem and Ramdas Pophale) SiO2 
 PCOD9269228
Probable space group: C 2/C
;
_chemical_formula_sum "Si O2"
_cell_formula_units_Z 48
_cell_length_a 8.434764
_cell_length_b 16.194043
_cell_length_c 17.775792
_cell_angle_alpha 90.000000
_cell_angle_beta 67.397125
_cell_angle_gamma 90.000000
_cell_volume 2241.551463
_symmetry_space_group_name_H-M "C 2/C"
_symmetry_group_IT_number 15
_symmetry_cell_setting 'monoclinic'
loop_
_space_group_symop_operation_xyz
x,y,z
-x,y,1/2-z
-x,-y,-z
x,-y,1/2+z
1/2+x,1/2+y,z
1/2-x,1/2+y,1/2-z
1/2-x,1/2-y,-z
1/2+x,1/2-y,1/2+z
loop_
_atom_site_type_symbol
_atom_site_label
_atom_site_fract_x
_atom_site_fract_y
_atom_site_fract_z
Si Si1 0.295560 0.643076 0.180799
Si Si2 0.075935 0.408465 0.578810
Si Si3 0.066143 0.224679 0.571312
Si Si4 0.500000 0.526625 0.250000
Si Si5 0.500000 0.733131 0.750000
Si Si6 0.128389 0.829930 0.528514
Si Si7 0.758684 0.498549 0.580940
O O1 0.189383 0.596604 0.133713
O O2 0.360661 0.582932 0.233123
O O3 0.165959 0.710326 0.235895
O O4 0.465735 0.683469 0.113544
O O5 0.990260 0.318514 0.585859
O O6 0.196863 0.430089 0.485900
O O7 0.927929 0.476884 0.598978
O O8 0.250000 0.250000 0.500000
O O9 0.055353 0.195769 0.659569
O O10 0.959509 0.164938 0.537276
O O11 0.396191 0.482700 0.334804
O O12 0.250000 0.750000 0.500000
O O13 0.213288 0.915231 0.541401
#
# Coordination Sequence:
#
# PCOD9269228 Si02
#       7
#     8   8   8   4   4   8   8
#     4  10  21  35  60  85 119 154 198 244 287 365
#     4  10  20  39  60  82 116 160 201 233 307 352
#     4  11  20  39  60  90 117 161 199 249 297 363
#     4  10  20  34  53  92 111 146 200 242 288 348
#     4  10  20  34  61  88 109 160 202 238 292 364
#     4  11  21  35  58  89 120 153 198 248 302 348
#     4  10  22  36  61  88 114 156 197 251 292 362
#
# _framework density 21.413740000000001
#
# number of rings (size 3 to 8) (size 9 to 14) (size 15 to 20)
#    0.000    1.667    5.000    2.000    2.333    2.667 
#    0.000    0.833    0.000    0.000   17.333    0.000 
#    0.000    0.000    0.000    0.000    0.000    0.000 
#
# Total GULP energy -133839.213976 kJ/mol
# GULP energy per Si atom -5576.633916 kJ/mol
# Density = 2.136500 g / cm^3
# Si number density = 21.413740 Si / 1000 Ang^3
#
#
#
# Elastic Constant Matrix: (Units=GPa)
#
#
# Indices 1 2 3 4 5 6 
#
# 1 100.3314 31.4461 36.6932 0.0000 10.0976 0.0000
# 2 31.4461 89.3459 42.0533 0.0000 5.9797 0.0000
# 3 36.6932 42.0533 167.1551 0.0000 2.2324 0.0000
# 4 0.0000 0.0000 0.0000 18.3301 0.0000 -10.7600
# 5 10.0976 5.9797 2.2324 0.0000 35.5421 0.0000
# 6 0.0000 0.0000 0.0000 -10.7600 0.0000 8.8199
#
#
#
# Elastic Compliance Matrix: (Units=1/GPa)
#
#
# Indices 1 2 3 4 5 6 
#
# 1 0.011883 -0.003163 -0.001776 0.000000 -0.002732 0.000000
# 2 -0.003163 0.013673 -0.002729 0.000000 -0.001230 0.000000
# 3 -0.001776 -0.002729 0.007052 0.000000 0.000521 0.000000
# 4 0.000000 0.000000 0.000000 0.192187 0.000000 0.234462
# 5 -0.002732 -0.001230 0.000521 0.000000 0.029086 0.000000
# 6 0.000000 0.000000 0.000000 0.234462 0.000000 0.399415
#
#
# Mechanical properties :
#
#
# Convention : Reuss Voigt Hill
#
# Bulk Modulus (GPa) = 57.90221 64.13532 61.01876
# Shear Modulus (GPa) = 7.41411 28.98108 18.19759
#
# Velocity S-wave (km/s) = 1.86275 3.68283 2.91831
# Velocity P-wave (km/s) = 5.63248 6.93541 6.31763
#
# Compressibility (1/GPa) = 0.01727050
#
# Stress axis : x y z
#
# Youngs Moduli (GPa) = 84.15368 73.13867 141.80462
#
# Poissons Ratio (x) = 0.23137 0.25187
# Poissons Ratio (y) = 0.26622 0.38698
# Poissons Ratio (z) = 0.14947 0.19959
#
# Static dielectric constant tensor:
#      x y z
#    x 1.744940 0.000000 -0.045100 
#    y 0.000000 1.779730 0.000000 
#    z -0.045100 0.000000 1.793880 
# 
# From -- ./inp_files/191523.got.cif
#   From: 2010.05.17/outbox.cif.g08.bks.cpg/sg15_96_cif.got.tgz:191523.got - 2010.06.03 18:47:42.
