data_PCOD9269199
_publ_section_title
;
Structure prediction by ZEFSAII (Michael W. Deem and Ramdas Pophale) SiO2 
 PCOD9269199
Probable space group: C 2/C
;
_chemical_formula_sum "Si O2"
_cell_formula_units_Z 64
_cell_length_a 29.916178
_cell_length_b 14.328277
_cell_length_c 10.064808
_cell_angle_alpha 90.000000
_cell_angle_beta 69.150303
_cell_angle_gamma 90.000000
_cell_volume 4031.743772
_symmetry_space_group_name_H-M "C 2/C"
_symmetry_group_IT_number 15
_symmetry_cell_setting 'monoclinic'
loop_
_space_group_symop_operation_xyz
x,y,z
-x,y,1/2-z
-x,-y,-z
x,-y,1/2+z
1/2+x,1/2+y,z
1/2-x,1/2+y,1/2-z
1/2-x,1/2-y,-z
1/2+x,1/2-y,1/2+z
loop_
_atom_site_type_symbol
_atom_site_label
_atom_site_fract_x
_atom_site_fract_y
_atom_site_fract_z
Si Si1 0.750015 0.986713 0.150205
Si Si2 0.130636 0.829115 0.837438
Si Si3 0.687824 0.500841 0.163161
Si Si4 0.469222 0.384344 0.656674
Si Si5 0.275871 0.219158 0.837623
Si Si6 0.134012 0.187805 0.654062
Si Si7 0.535736 0.603145 0.830366
Si Si8 0.280703 0.197633 0.354390
O O1 0.768367 0.996588 0.280989
O O2 0.719929 0.892494 0.173774
O O3 0.727834 0.086425 0.134001
O O4 0.793846 0.968277 0.001086
O O5 0.077479 0.825196 0.833097
O O6 0.171434 0.761942 0.735795
O O7 0.150749 0.930407 0.773396
O O8 0.129975 0.815736 0.997707
O O9 0.665767 0.399931 0.165813
O O10 0.500000 0.352467 0.750000
O O11 0.452850 0.492385 0.698883
O O12 0.506338 0.386949 0.496220
O O13 0.241840 0.260345 0.756886
O O14 0.250000 0.250000 0.000000
O O15 0.082310 0.167106 0.770480
O O16 0.164276 0.275454 0.675232
O O17 0.500000 0.628325 0.750000
O O18 0.250000 0.250000 0.500000
#
# Coordination Sequence:
#
# PCOD9269199 Si02
#       8
#     8   8   8   8   8   8   8   8
#     4  12  22  36  52  79 116 149 189 231 262 327
#     4  12  22  36  53  82 113 150 191 223 280 335
#     4  12  20  32  55  76 111 151 182 223 271 321
#     4  10  22  34  54  80 111 142 182 234 286 330
#     4  12  23  35  54  82 113 148 189 233 277 326
#     4  12  22  34  57  80 111 154 192 221 271 344
#     4  10  20  34  53  79 108 145 184 231 274 333
#     4  12  21  37  55  80 109 152 192 219 272 336
#
# _framework density 15.874025
#
# number of rings (size 3 to 8) (size 9 to 14) (size 15 to 20)
#    0.000    0.500   10.000    0.000    0.000    2.000 
#    0.000    0.000    0.000    0.000    0.000    1.750 
#    0.000    0.000    0.000    0.000    0.000    0.000 
#
# Total GULP energy -178526.113473 kJ/mol
# GULP energy per Si atom -5578.941046 kJ/mol
# Density = 1.583790 g / cm^3
# Si number density = 15.874025 Si / 1000 Ang^3
#
#
#
# Elastic Constant Matrix: (Units=GPa)
#
#
# Indices 1 2 3 4 5 6 
#
# 1 119.7584 47.3786 34.1246 0.0000 2.5748 0.0000
# 2 47.3786 88.1897 21.0110 0.0000 5.0253 0.0000
# 3 34.1246 21.0110 81.6754 0.0000 12.6584 0.0000
# 4 0.0000 0.0000 0.0000 15.6318 0.0000 -7.3953
# 5 2.5748 5.0253 12.6584 0.0000 26.0522 0.0000
# 6 0.0000 0.0000 0.0000 -7.3953 0.0000 37.5302
#
#
#
# Elastic Compliance Matrix: (Units=1/GPa)
#
#
# Indices 1 2 3 4 5 6 
#
# 1 0.011497 -0.005397 -0.003677 0.000000 0.001691 0.000000
# 2 -0.005397 0.014632 -0.001249 0.000000 -0.001682 0.000000
# 3 -0.003677 -0.001249 0.015148 0.000000 -0.006756 0.000000
# 4 0.000000 0.000000 0.000000 0.070549 0.000000 0.013902
# 5 0.001691 -0.001682 -0.006756 0.000000 0.041824 0.000000
# 6 0.000000 0.000000 0.000000 0.013902 0.000000 0.029385
#
#
# Mechanical properties :
#
#
# Convention : Reuss Voigt Hill
#
# Bulk Modulus (GPa) = 48.46886 54.96131 51.71509
# Shear Modulus (GPa) = 23.74659 28.31679 26.03169
#
# Velocity S-wave (km/s) = 3.87193 4.22814 4.05395
# Velocity P-wave (km/s) = 7.11259 7.65081 7.38660
#
# Compressibility (1/GPa) = 0.02063180
#
# Stress axis : x y z
#
# Youngs Moduli (GPa) = 86.98220 68.34433 66.01427
#
# Poissons Ratio (x) = 0.36883 0.24275
# Poissons Ratio (y) = 0.46941 0.08242
# Poissons Ratio (z) = 0.31985 0.08533
#
# Static dielectric constant tensor:
#      x y z
#    x 1.535790 0.000000 0.015540 
#    y 0.000000 1.543290 0.000000 
#    z 0.015540 0.000000 1.507690 
# 
# From -- ./inp_files/66229.got.cif
#   From: 2010.05.17/outbox.cif.g08.bks.cpg/sg15_34_cif.got.tgz:66229.got - 2010.06.03 18:47:42.
