data_PCOD9269747
_publ_section_title
;
Structure prediction by ZEFSAII (Michael W. Deem and Ramdas Pophale) SiO2 
 PCOD9269747
Probable space group: C 2/C
;
_chemical_formula_sum "Si O2"
_cell_formula_units_Z 52
_cell_length_a 16.296256
_cell_length_b 9.013830
_cell_length_c 18.198874
_cell_angle_alpha 90.000000
_cell_angle_beta 45.060213
_cell_angle_gamma 90.000000
_cell_volume 1892.268018
_symmetry_space_group_name_H-M "C 2/C"
_symmetry_group_IT_number 15
_symmetry_cell_setting 'monoclinic'
loop_
_space_group_symop_operation_xyz
x,y,z
-x,y,1/2-z
-x,-y,-z
x,-y,1/2+z
1/2+x,1/2+y,z
1/2-x,1/2+y,1/2-z
1/2-x,1/2-y,-z
1/2+x,1/2-y,1/2+z
loop_
_atom_site_type_symbol
_atom_site_label
_atom_site_fract_x
_atom_site_fract_y
_atom_site_fract_z
Si Si1 0.237154 0.451553 0.618323
Si Si2 0.099309 0.010574 0.098492
Si Si3 0.219985 0.726787 0.351684
Si Si4 0.950859 0.272383 0.673617
Si Si5 0.588427 0.327796 0.880311
Si Si6 0.000000 0.250643 0.250000
Si Si7 0.452492 0.073968 0.929540
O O1 0.273895 0.466411 0.510466
O O2 0.224425 0.621097 0.653278
O O3 0.133082 0.349383 0.712602
O O4 0.352631 0.386070 0.584182
O O5 0.024235 0.864115 0.155985
O O6 0.029128 0.099290 0.077273
O O7 0.097308 0.124272 0.167498
O O8 0.127268 0.774463 0.347102
O O9 0.316447 0.643658 0.242776
O O10 0.154243 0.632883 0.455052
O O11 0.031979 0.401351 0.590546
O O12 0.562338 0.152344 0.901303
O O13 0.972352 0.357532 0.335702
#
# Coordination Sequence:
#
# PCOD9269747 Si02
#       7
#     8   8   8   8   8   4   8
#     4  11  20  37  63  92 126 161 191 251 319 370
#     4  11  22  42  61  85 124 168 203 249 304 351
#     4  11  20  36  63  95 127 155 197 249 318 381
#     4  11  24  36  63  98 123 152 201 263 307 371
#     4  10  20  34  60  88 121 158 195 235 311 381
#     4  10  24  42  66  80 118 176 220 240 290 368
#     4  11  22  40  59  90 122 163 207 252 299 355
#
# _framework density 27.480252
#
# number of rings (size 3 to 8) (size 9 to 14) (size 15 to 20)
#    0.000    1.231    6.154    1.846    0.000    1.846 
#    0.000    7.692    0.000    0.000    0.000    0.000 
#    0.000    0.000    0.000    0.000    0.000    0.000 
#
# Total GULP energy -145618.823578 kJ/mol
# GULP energy per Si atom -5600.723984 kJ/mol
# Density = 2.741771 g / cm^3
# Si number density = 27.480252 Si / 1000 Ang^3
#
#
#
# Elastic Constant Matrix: (Units=GPa)
#
#
# Indices 1 2 3 4 5 6 
#
# 1 75.2700 22.7292 25.2373 0.0000 4.2508 0.0000
# 2 22.7292 135.4106 7.5638 0.0000 2.5591 0.0000
# 3 25.2373 7.5638 157.6085 0.0000 -0.4144 0.0000
# 4 0.0000 0.0000 0.0000 48.9224 0.0000 3.2838
# 5 4.2508 2.5591 -0.4144 0.0000 43.0213 0.0000
# 6 0.0000 0.0000 0.0000 3.2838 0.0000 34.8348
#
#
#
# Elastic Compliance Matrix: (Units=1/GPa)
#
#
# Indices 1 2 3 4 5 6 
#
# 1 0.014827 -0.002337 -0.002266 0.000000 -0.001348 0.000000
# 2 -0.002337 0.007782 0.000000 0.000000 -0.000232 0.000000
# 3 -0.002266 0.000000 0.006708 0.000000 0.000288 0.000000
# 4 0.000000 0.000000 0.000000 0.020571 0.000000 -0.001939
# 5 -0.001348 -0.000232 0.000288 0.000000 0.023394 0.000000
# 6 0.000000 0.000000 0.000000 -0.001939 0.000000 0.028890
#
#
# Mechanical properties :
#
#
# Convention : Reuss Voigt Hill
#
# Bulk Modulus (GPa) = 49.72054 53.26109 51.49081
# Shear Modulus (GPa) = 42.34428 46.20630 44.27529
#
# Velocity S-wave (km/s) = 3.92969 4.10498 4.01829
# Velocity P-wave (km/s) = 6.22273 6.47236 6.34877
#
# Compressibility (1/GPa) = 0.02011241
#
# Stress axis : x y z
#
# Youngs Moduli (GPa) = 67.44521 128.50912 149.06760
#
# Poissons Ratio (x) = 0.30029 0.33772
# Poissons Ratio (y) = 0.15760 -0.00002
# Poissons Ratio (z) = 0.15280 -0.00001
#
# Static dielectric constant tensor:
#      x y z
#    x 2.255820 0.000000 -0.013150 
#    y 0.000000 2.076090 0.000000 
#    z -0.013150 0.000000 2.117360 
# 
# From -- ./inp_files/176130.got.cif
#   From: 2010.05.17/outbox.cif.g08.bks.cpg/sg15_89_cif.got.tgz:176130.got - 2010.06.03 18:47:42.
