data_PCOD9269251
_publ_section_title
;
Structure prediction by ZEFSAII (Michael W. Deem and Ramdas Pophale) SiO2 
 PCOD9269251
Probable space group: C 2/C
;
_chemical_formula_sum "Si O2"
_cell_formula_units_Z 60
_cell_length_a 8.584241
_cell_length_b 11.665649
_cell_length_c 32.471130
_cell_angle_alpha 90.000000
_cell_angle_beta 104.081072
_cell_angle_gamma 90.000000
_cell_volume 3153.977931
_symmetry_space_group_name_H-M "C 2/C"
_symmetry_group_IT_number 15
_symmetry_cell_setting 'monoclinic'
loop_
_space_group_symop_operation_xyz
x,y,z
-x,y,1/2-z
-x,-y,-z
x,-y,1/2+z
1/2+x,1/2+y,z
1/2-x,1/2+y,1/2-z
1/2-x,1/2-y,-z
1/2+x,1/2-y,1/2+z
loop_
_atom_site_type_symbol
_atom_site_label
_atom_site_fract_x
_atom_site_fract_y
_atom_site_fract_z
Si Si1 0.672212 0.805678 0.183052
Si Si2 0.853002 0.567511 0.186101
Si Si3 0.360236 0.062243 0.438527
Si Si4 0.066920 0.440804 0.387401
Si Si5 0.351092 0.245722 0.548681
Si Si6 0.500000 0.708107 0.250000
Si Si7 0.773101 0.528308 0.271659
Si Si8 0.871796 0.329476 0.483425
O O1 0.777924 0.694691 0.179823
O O2 0.553185 0.846389 0.139681
O O3 0.560197 0.779868 0.215295
O O4 0.770713 0.916110 0.205041
O O5 0.831456 0.497818 0.142508
O O6 0.778400 0.510203 0.222478
O O7 0.046053 0.566655 0.204909
O O8 0.213649 0.150773 0.427848
O O9 0.496426 0.119332 0.476407
O O10 0.451134 0.032391 0.402236
O O11 0.306111 0.942321 0.455921
O O12 0.168218 0.374416 0.428590
O O13 0.250000 0.250000 0.500000
O O14 0.533698 0.245223 0.544614
O O15 0.647382 0.627631 0.272320
O O16 0.750000 0.250000 0.500000
#
# Coordination Sequence:
#
# PCOD9269251 Si02
#       8
#     8   8   8   8   8   4   8   8
#     4  10  20  36  55  79 112 146 182 225 270 317
#     4   9  19  36  56  78 109 145 179 219 269 320
#     4   9  19  35  52  75 106 135 171 219 267 320
#     4  10  20  34  54  79 111 142 179 226 273 322
#     4   9  19  37  57  77 104 141 180 224 275 323
#     4  10  20  34  58  84 110 146 184 220 264 318
#     4   9  19  36  56  80 106 140 182 220 261 315
#     4   9  18  34  57  78  99 132 174 220 270 322
#
# _framework density 19.023596000000001
#
# number of rings (size 3 to 8) (size 9 to 14) (size 15 to 20)
#    0.000    2.667    0.000    2.400    0.000    6.933 
#    0.000    6.667    0.000    3.200    0.000    0.000 
#    0.000    0.000    0.000    0.000    0.000    0.000 
#
# Total GULP energy -167186.137795 kJ/mol
# GULP energy per Si atom -5572.871260 kJ/mol
# Density = 1.898030 g / cm^3
# Si number density = 19.023596 Si / 1000 Ang^3
#
#
#
# Elastic Constant Matrix: (Units=GPa)
#
#
# Indices 1 2 3 4 5 6 
#
# 1 38.2454 31.7707 1.1804 0.0000 -11.5352 0.0000
# 2 31.7707 76.8467 25.0085 0.0000 -6.5461 0.0000
# 3 1.1804 25.0085 72.0548 0.0000 -7.5098 0.0000
# 4 0.0000 0.0000 0.0000 30.1496 0.0000 -1.0386
# 5 -11.5352 -6.5461 -7.5098 0.0000 16.4607 0.0000
# 6 0.0000 0.0000 0.0000 -1.0386 0.0000 29.4173
#
#
#
# Elastic Compliance Matrix: (Units=1/GPa)
#
#
# Indices 1 2 3 4 5 6 
#
# 1 0.056074 -0.023784 0.010968 0.000000 0.034841 0.000000
# 2 -0.023784 0.024974 -0.009429 0.000000 -0.011037 0.000000
# 3 0.010968 -0.009429 0.018249 0.000000 0.012262 0.000000
# 4 0.000000 0.000000 0.000000 0.033208 0.000000 0.001172
# 5 0.034841 -0.011037 0.012262 0.000000 0.086371 0.000000
# 6 0.000000 0.000000 0.000000 0.001172 0.000000 0.034035
#
#
# Mechanical properties :
#
#
# Convention : Reuss Voigt Hill
#
# Bulk Modulus (GPa) = 18.24579 33.67400 25.95989
# Shear Modulus (GPa) = 15.83922 23.81801 19.82862
#
# Velocity S-wave (km/s) = 2.88863 3.54223 3.23200
# Velocity P-wave (km/s) = 4.55385 5.87107 5.25390
#
# Compressibility (1/GPa) = 0.05480716
#
# Stress axis : x y z
#
# Youngs Moduli (GPa) = 17.83342 40.04130 54.79732
#
# Poissons Ratio (x) = 0.95235 -0.60099
# Poissons Ratio (y) = 0.42415 0.51666
# Poissons Ratio (z) = -0.19559 0.37754
#
# Static dielectric constant tensor:
#      x y z
#    x 1.650510 0.000000 0.004550 
#    y 0.000000 1.720580 0.000000 
#    z 0.004550 0.000000 1.739920 
# 
# From -- ./inp_files/307219.got.cif
#   From: 2010.05.17/outbox.cif.g08.bks.cpg/sg15_154_cif.got.tgz:307219.got - 2010.06.03 18:47:42.
