data_PCOD9269382
_publ_section_title
;
Structure prediction by ZEFSAII (Michael W. Deem and Ramdas Pophale) SiO2 
 PCOD9269382
Probable space group: C 2/C
;
_chemical_formula_sum "Si O2"
_cell_formula_units_Z 44
_cell_length_a 8.379201
_cell_length_b 10.995436
_cell_length_c 19.893651
_cell_angle_alpha 90.000000
_cell_angle_beta 63.457940
_cell_angle_gamma 90.000000
_cell_volume 1639.689603
_symmetry_space_group_name_H-M "C 2/C"
_symmetry_group_IT_number 15
_symmetry_cell_setting 'monoclinic'
loop_
_space_group_symop_operation_xyz
x,y,z
-x,y,1/2-z
-x,-y,-z
x,-y,1/2+z
1/2+x,1/2+y,z
1/2-x,1/2+y,1/2-z
1/2-x,1/2-y,-z
1/2+x,1/2-y,1/2+z
loop_
_atom_site_type_symbol
_atom_site_label
_atom_site_fract_x
_atom_site_fract_y
_atom_site_fract_z
Si Si1 0.992764 0.806228 0.324190
Si Si2 0.714371 0.003548 0.567765
Si Si3 0.293309 0.981317 0.637407
Si Si4 0.090790 0.743331 0.451795
Si Si5 0.750000 0.250000 0.000000
Si Si6 0.793793 0.505031 0.783333
O O1 0.000000 0.740006 0.250000
O O2 0.963014 0.745648 0.403878
O O3 0.851340 0.914253 0.342887
O O4 0.181871 0.871006 0.298705
O O5 0.501510 0.018069 0.598792
O O6 0.782066 0.903750 0.503880
O O7 0.752654 0.951165 0.635708
O O8 0.805437 0.135851 0.550431
O O9 0.283946 0.870141 0.586759
O O10 0.260981 0.933325 0.720446
O O11 0.914326 0.724414 0.526804
O O12 0.000000 0.537868 0.750000
#
# Coordination Sequence:
#
# PCOD9269382 Si02
#       6
#     8   8   8   8   4   8
#     4   9  18  34  55  82 111 136 171 216 267 328
#     4   9  18  34  54  76 106 142 180 220 264 314
#     4   9  18  34  54  81 109 132 169 219 267 326
#     4  10  20  35  55  76 103 143 179 219 271 313
#     4  10  20  34  56  76 102 144 190 226 256 304
#     4   8  15  31  53  78 108 133 165 215 263 317
#
# _framework density 26.834350000000001
#
# number of rings (size 3 to 8) (size 9 to 14) (size 15 to 20)
#    0.000    2.909    0.000    0.545    0.000    3.636 
#    0.000   40.000    0.000   19.636    0.000    0.000 
#    0.000    0.000    0.000    0.000    0.000    0.000 
#
# Total GULP energy -122646.892888 kJ/mol
# GULP energy per Si atom -5574.858768 kJ/mol
# Density = 2.677327 g / cm^3
# Si number density = 26.834350 Si / 1000 Ang^3
#
#
#
# Elastic Constant Matrix: (Units=GPa)
#
#
# Indices 1 2 3 4 5 6 
#
# 1 88.7441 59.0780 31.3665 0.0000 5.8198 0.0000
# 2 59.0780 137.2070 39.0717 0.0000 -5.0445 0.0000
# 3 31.3665 39.0717 97.7239 0.0000 16.4934 0.0000
# 4 0.0000 0.0000 0.0000 44.6860 0.0000 2.8778
# 5 5.8198 -5.0445 16.4934 0.0000 42.0111 0.0000
# 6 0.0000 0.0000 0.0000 2.8778 0.0000 54.6567
#
#
#
# Elastic Compliance Matrix: (Units=1/GPa)
#
#
# Indices 1 2 3 4 5 6 
#
# 1 0.016608 -0.006564 -0.002340 0.000000 -0.002170 0.000000
# 2 -0.006564 0.011060 -0.002884 0.000000 0.003369 0.000000
# 3 -0.002340 -0.002884 0.013002 0.000000 -0.005127 0.000000
# 4 0.000000 0.000000 0.000000 0.022455 0.000000 -0.001182
# 5 -0.002170 0.003369 -0.005127 0.000000 0.026521 0.000000
# 6 0.000000 0.000000 0.000000 -0.001182 0.000000 0.018358
#
#
# Mechanical properties :
#
#
# Convention : Reuss Voigt Hill
#
# Bulk Modulus (GPa) = 58.49981 64.74528 61.62254
# Shear Modulus (GPa) = 36.42277 41.21467 38.81872
#
# Velocity S-wave (km/s) = 3.68818 3.92330 3.80755
# Velocity P-wave (km/s) = 6.32333 6.68604 6.50722
#
# Compressibility (1/GPa) = 0.01709407
#
# Stress axis : x y z
#
# Youngs Moduli (GPa) = 60.21334 90.41811 76.91091
#
# Poissons Ratio (x) = 0.59354 0.17995
# Poissons Ratio (y) = 0.39526 0.22178
# Poissons Ratio (z) = 0.14088 0.26073
#
# Static dielectric constant tensor:
#      x y z
#    x 2.283890 0.000000 -0.036150 
#    y 0.000000 2.096190 0.000000 
#    z -0.036150 0.000000 2.512400 
# 
# From -- ./inp_files/263440.got.cif
#   From: 2010.05.17/outbox.cif.g08.bks.cpg/sg15_132_cif.got.tgz:263440.got - 2010.06.03 18:47:42.
