data_PCOD9269531
_publ_section_title
;
Structure prediction by ZEFSAII (Michael W. Deem and Ramdas Pophale) SiO2 
 PCOD9269531
Probable space group: C 2/C
;
_chemical_formula_sum "Si O2"
_cell_formula_units_Z 56
_cell_length_a 28.964221
_cell_length_b 12.025397
_cell_length_c 7.557271
_cell_angle_alpha 90.000000
_cell_angle_beta 68.310238
_cell_angle_gamma 90.000000
_cell_volume 2445.878222
_symmetry_space_group_name_H-M "C 2/C"
_symmetry_group_IT_number 15
_symmetry_cell_setting 'monoclinic'
loop_
_space_group_symop_operation_xyz
x,y,z
-x,y,1/2-z
-x,-y,-z
x,-y,1/2+z
1/2+x,1/2+y,z
1/2-x,1/2+y,1/2-z
1/2-x,1/2-y,-z
1/2+x,1/2-y,1/2+z
loop_
_atom_site_type_symbol
_atom_site_label
_atom_site_fract_x
_atom_site_fract_y
_atom_site_fract_z
Si Si1 0.850240 0.862045 0.883050
Si Si2 0.705201 0.163844 0.529268
Si Si3 0.381607 0.255059 0.367216
Si Si4 0.038322 0.873477 0.027041
Si Si5 0.305589 0.587190 0.827749
Si Si6 0.057460 0.130514 0.029774
Si Si7 0.801296 0.587099 0.369607
O O1 0.840156 0.737710 0.837778
O O2 0.822409 0.873236 0.112160
O O3 0.908364 0.870548 0.843668
O O4 0.823120 0.959304 0.814331
O O5 0.750000 0.250000 0.500000
O O6 0.702933 0.133644 0.323882
O O7 0.702374 0.046307 0.630800
O O8 0.420240 0.286055 0.466897
O O9 0.338133 0.347341 0.425576
O O10 0.412877 0.287586 0.145656
O O11 0.351170 0.140321 0.384470
O O12 0.000000 0.884145 0.250000
O O13 0.000103 0.841777 0.925635
O O14 0.059197 0.998972 0.977580
O O15 0.248614 0.613473 0.949024
#
# Coordination Sequence:
#
# PCOD9269531 Si02
#       7
#     8   8   8   8   8   8   8
#     4  11  22  40  60  94 131 170 209 275 316 386
#     4  12  27  43  62  89 127 168 219 264 309 376
#     4  10  20  34  57  87 124 166 206 254 320 383
#     4   9  17  31  58  95 122 160 202 266 331 392
#     4  11  21  37  61  89 129 169 214 256 325 380
#     4   9  17  33  56  87 129 154 206 263 324 381
#     4  12  25  43  62  90 130 175 219 260 320 388
#
# _framework density 22.895662000000002
#
# number of rings (size 3 to 8) (size 9 to 14) (size 15 to 20)
#    0.000    1.429    5.714    1.286    0.000    0.000 
#    0.000    0.000    0.000    0.857    0.000    0.000 
#    0.000    0.000    0.000    0.000    0.000    0.000 
#
# Total GULP energy -156426.544553 kJ/mol
# GULP energy per Si atom -5586.662305 kJ/mol
# Density = 2.284355 g / cm^3
# Si number density = 22.895662 Si / 1000 Ang^3
#
#
#
# Elastic Constant Matrix: (Units=GPa)
#
#
# Indices 1 2 3 4 5 6 
#
# 1 170.4113 67.6593 26.9662 0.0000 -10.6245 0.0000
# 2 67.6593 152.5389 27.3302 0.0000 -3.8274 0.0000
# 3 26.9662 27.3302 59.9598 0.0000 0.2071 0.0000
# 4 0.0000 0.0000 0.0000 25.3140 0.0000 6.0323
# 5 -10.6245 -3.8274 0.2071 0.0000 51.3709 0.0000
# 6 0.0000 0.0000 0.0000 6.0323 0.0000 39.1315
#
#
#
# Elastic Compliance Matrix: (Units=1/GPa)
#
#
# Indices 1 2 3 4 5 6 
#
# 1 0.007421 -0.002896 -0.002022 0.000000 0.001327 0.000000
# 2 -0.002896 0.008284 -0.002474 0.000000 0.000028 0.000000
# 3 -0.002022 -0.002474 0.018717 0.000000 -0.000678 0.000000
# 4 0.000000 0.000000 0.000000 0.041010 0.000000 -0.006322
# 5 0.001327 0.000028 -0.000678 0.000000 0.019746 0.000000
# 6 0.000000 0.000000 0.000000 -0.006322 0.000000 0.026529
#
#
# Mechanical properties :
#
#
# Convention : Reuss Voigt Hill
#
# Bulk Modulus (GPa) = 50.91973 69.64684 60.28328
# Shear Modulus (GPa) = 34.95617 40.56024 37.75821
#
# Velocity S-wave (km/s) = 3.91162 4.21352 4.06537
# Velocity P-wave (km/s) = 6.53369 7.35914 6.95867
#
# Compressibility (1/GPa) = 0.01963875
#
# Stress axis : x y z
#
# Youngs Moduli (GPa) = 134.75954 120.71316 53.42721
#
# Poissons Ratio (x) = 0.34957 0.10803
# Poissons Ratio (y) = 0.39025 0.13216
# Poissons Ratio (z) = 0.27248 0.29861
#
# Static dielectric constant tensor:
#      x y z
#    x 1.961400 0.000000 -0.004560 
#    y 0.000000 1.839990 0.000000 
#    z -0.004560 0.000000 2.043000 
# 
# From -- ./inp_files/69058.got.cif
#   From: 2010.05.17/outbox.cif.g08.bks.cpg/sg15_35_cif.got.tgz:69058.got - 2010.06.03 18:47:42.
