data_PCOD9269293
_publ_section_title
;
Structure prediction by ZEFSAII (Michael W. Deem and Ramdas Pophale) SiO2 
 PCOD9269293
Probable space group: C 2/C
;
_chemical_formula_sum "Si O2"
_cell_formula_units_Z 52
_cell_length_a 5.226403
_cell_length_b 30.859778
_cell_length_c 17.328100
_cell_angle_alpha 90.000000
_cell_angle_beta 48.578150
_cell_angle_gamma 90.000000
_cell_volume 2095.685662
_symmetry_space_group_name_H-M "C 2/C"
_symmetry_group_IT_number 15
_symmetry_cell_setting 'monoclinic'
loop_
_space_group_symop_operation_xyz
x,y,z
-x,y,1/2-z
-x,-y,-z
x,-y,1/2+z
1/2+x,1/2+y,z
1/2-x,1/2+y,1/2-z
1/2-x,1/2-y,-z
1/2+x,1/2-y,1/2+z
loop_
_atom_site_type_symbol
_atom_site_label
_atom_site_fract_x
_atom_site_fract_y
_atom_site_fract_z
Si Si1 0.404649 0.535752 0.680152
Si Si2 0.601309 0.701967 0.930392
Si Si3 0.618771 0.608270 0.924664
Si Si4 0.500000 0.920591 0.750000
Si Si5 0.346208 0.455370 0.947789
Si Si6 0.802200 0.293185 0.565074
Si Si7 0.863240 0.382215 0.628097
O O1 0.500000 0.527462 0.750000
O O2 0.454097 0.584912 0.641604
O O3 0.650069 0.506052 0.576363
O O4 0.000000 0.528365 0.750000
O O5 0.783340 0.655532 0.879016
O O6 0.770330 0.748239 0.876481
O O7 0.606351 0.705838 0.022938
O O8 0.218064 0.704149 0.971711
O O9 0.760694 0.568771 0.951266
O O10 0.275721 0.622368 0.037306
O O11 0.252117 0.947776 0.853420
O O12 0.293267 0.892110 0.731086
O O13 0.196599 0.424780 0.911620
O O14 0.723151 0.337400 0.624241
#
# Coordination Sequence:
#
# PCOD9269293 Si02
#       7
#     8   8   8   4   8   8   8
#     4  12  28  44  62  86 127 166 206 255 316 363
#     4   9  17  33  56  87 118 148 197 243 299 349
#     4  10  23  39  64  91 115 160 213 254 297 368
#     4  10  20  34  54  86 124 160 190 252 310 364
#     4  11  21  40  61  87 120 160 206 255 306 364
#     4   9  17  31  55  88 120 151 187 247 299 361
#     4  10  20  34  61  90 123 157 206 251 311 359
#
# _framework density 24.812882999999999
#
# number of rings (size 3 to 8) (size 9 to 14) (size 15 to 20)
#    0.000    1.846    2.308    1.846    4.308    0.615 
#    0.000    0.000    1.692    1.846    0.000    0.000 
#    0.000    0.000    0.000    0.000    0.000    0.000 
#
# Total GULP energy -144940.178696 kJ/mol
# GULP energy per Si atom -5574.622258 kJ/mol
# Density = 2.475641 g / cm^3
# Si number density = 24.812883 Si / 1000 Ang^3
#
#
#
# Elastic Constant Matrix: (Units=GPa)
#
#
# Indices 1 2 3 4 5 6 
#
# 1 94.0300 15.2809 21.5887 0.0000 21.7822 0.0000
# 2 15.2809 207.7862 21.7878 0.0000 17.7011 0.0000
# 3 21.5887 21.7878 49.6961 0.0000 0.4687 0.0000
# 4 0.0000 0.0000 0.0000 -4.2270 0.0000 2.4468
# 5 21.7822 17.7011 0.4687 0.0000 29.7972 0.0000
# 6 0.0000 0.0000 0.0000 2.4468 0.0000 20.5660
#
#
#
# Elastic Compliance Matrix: (Units=1/GPa)
#
#
# Indices 1 2 3 4 5 6 
#
# 1 0.014541 0.000530 -0.006447 0.000000 -0.010843 0.000000
# 2 0.000530 0.005340 -0.002538 0.000000 -0.003520 0.000000
# 3 -0.006447 -0.002538 0.023981 0.000000 0.005843 0.000000
# 4 0.000000 0.000000 0.000000 -0.221334 0.000000 0.026333
# 5 -0.010843 -0.003520 0.005843 0.000000 0.043486 0.000000
# 6 0.000000 0.000000 0.000000 0.026333 0.000000 0.045491
#
#
# Mechanical properties :
#
#
# Convention : Reuss Voigt Hill
#
# Bulk Modulus (GPa) = 37.10379 52.09189 44.59784
# Shear Modulus (GPa) = -79.86890 28.75092 -25.55899
#
# Velocity S-wave (km/s) = -5.67964 3.40767 -3.21295
# Velocity P-wave (km/s) = 5.29389 6.04338 2.06122
#
# Compressibility (1/GPa) = 0.02695143
#
# Stress axis : x y z
#
# Youngs Moduli (GPa) = 68.77237 187.27879 41.70026
#
# Poissons Ratio (x) = -0.09933 0.26884
# Poissons Ratio (y) = -0.03648 0.10584
# Poissons Ratio (z) = 0.44337 0.47535
#
# Static dielectric constant tensor:
#      x y z
#    x 2.119550 0.000000 -0.095030 
#    y 0.000000 2.061530 0.000000 
#    z -0.095030 0.000000 2.003570 
# 
# From -- ./inp_files/130883.got.cif
#   From: 2010.05.17/outbox.cif.g08.bks.cpg/sg15_66_cif.got.tgz:130883.got - 2010.06.03 18:47:42.
