data_PCOD9269594
_publ_section_title
;
Structure prediction by ZEFSAII (Michael W. Deem and Ramdas Pophale) SiO2 
 PCOD9269594
Probable space group: C 2/C
;
_chemical_formula_sum "Si O2"
_cell_formula_units_Z 48
_cell_length_a 16.772644
_cell_length_b 31.018819
_cell_length_c 10.262401
_cell_angle_alpha 90.000000
_cell_angle_beta 27.494185
_cell_angle_gamma 90.000000
_cell_volume 2464.885140
_symmetry_space_group_name_H-M "C 2/C"
_symmetry_group_IT_number 15
_symmetry_cell_setting 'monoclinic'
loop_
_space_group_symop_operation_xyz
x,y,z
-x,y,1/2-z
-x,-y,-z
x,-y,1/2+z
1/2+x,1/2+y,z
1/2-x,1/2+y,1/2-z
1/2-x,1/2-y,-z
1/2+x,1/2-y,1/2+z
loop_
_atom_site_type_symbol
_atom_site_label
_atom_site_fract_x
_atom_site_fract_y
_atom_site_fract_z
Si Si1 0.040230 0.038298 0.039898
Si Si2 0.445479 0.035021 0.469965
Si Si3 0.792699 0.884759 0.816687
Si Si4 0.049884 0.794752 0.878025
Si Si5 0.011154 0.620457 0.952422
Si Si6 0.700379 0.207130 0.741617
O O1 0.000000 0.029599 0.250000
O O2 0.931268 0.077930 0.140014
O O3 0.243748 0.043937 0.749402
O O4 0.000000 0.000000 0.000000
O O5 0.515633 0.082219 0.405695
O O6 0.500000 0.000000 0.500000
O O7 0.500000 0.018145 0.250000
O O8 0.896625 0.840693 0.644966
O O9 0.655403 0.883853 0.898685
O O10 0.674568 0.887435 0.118716
O O11 0.175856 0.792940 0.567128
O O12 0.101063 0.752503 0.884580
O O13 0.847377 0.795230 0.138239
O O14 0.065218 0.667348 0.931183
#
# Coordination Sequence:
#
# PCOD9269594 Si02
#       6
#     8   8   8   8   8   8
#     4  12  24  41  62  88 116 156 203 252 308 365
#     4  12  26  42  63  89 121 161 205 256 313 371
#     4  10  20  34  58  85 119 156 199 252 304 360
#     4   9  16  26  46  80 117 156 195 243 304 351
#     4  10  20  36  56  84 119 158 200 248 308 359
#     4   9  16  27  47  77 120 156 195 245 298 360
#
# _framework density 19.473524000000001
#
# number of rings (size 3 to 8) (size 9 to 14) (size 15 to 20)
#    0.000    1.667    1.667    4.000    4.667    4.000 
#    0.000    0.000    0.000    0.000    0.000   11.667 
#    0.000    0.000    0.000    0.000    0.000    0.000 
#
# Total GULP energy -133732.386236 kJ/mol
# GULP energy per Si atom -5572.182760 kJ/mol
# Density = 1.942920 g / cm^3
# Si number density = 19.473524 Si / 1000 Ang^3
#
#
#
# Elastic Constant Matrix: (Units=GPa)
#
#
# Indices 1 2 3 4 5 6 
#
# 1 111.2633 80.7356 46.9940 0.0000 -24.9899 0.0000
# 2 80.7356 166.6067 35.3371 0.0000 -23.1712 0.0000
# 3 46.9940 35.3371 54.2391 0.0001 -22.6273 -0.0001
# 4 0.0000 0.0000 0.0001 34.7512 0.0000 -22.3149
# 5 -24.9899 -23.1712 -22.6273 0.0000 32.5775 0.0000
# 6 0.0000 0.0000 -0.0001 -22.3149 0.0000 46.5235
#
#
#
# Elastic Compliance Matrix: (Units=1/GPa)
#
#
# Indices 1 2 3 4 5 6 
#
# 1 0.018943 -0.006492 -0.011331 0.000000 0.002044 0.000000
# 2 -0.006492 0.009342 0.000328 0.000000 0.001892 0.000000
# 3 -0.011331 0.000328 0.034512 0.000000 0.015513 0.000000
# 4 0.000000 0.000000 0.000000 0.041584 0.000000 0.019945
# 5 0.002044 0.001892 0.015513 0.000000 0.044384 0.000000
# 6 0.000000 0.000000 0.000000 0.019945 0.000000 0.031061
#
#
# Mechanical properties :
#
#
# Convention : Reuss Voigt Hill
#
# Bulk Modulus (GPa) = 35.96159 73.13803 54.54981
# Shear Modulus (GPa) = 22.31303 34.03994 28.17648
#
# Velocity S-wave (km/s) = 3.38866 4.18546 3.80796
# Velocity P-wave (km/s) = 5.81530 7.81003 6.88529
#
# Compressibility (1/GPa) = 0.02780745
#
# Stress axis : x y z
#
# Youngs Moduli (GPa) = 52.78893 107.04577 28.97572
#
# Poissons Ratio (x) = 0.69497 0.32831
# Poissons Ratio (y) = 0.34272 -0.00951
# Poissons Ratio (z) = 0.59813 -0.03514
#
# Static dielectric constant tensor:
#      x y z
#    x 1.674350 0.000000 -0.005290 
#    y 0.000000 1.646710 0.000000 
#    z -0.005290 0.000000 1.664130 
# 
# From -- ./inp_files/108252.got.cif
#   From: 2010.05.17/outbox.cif.g08.bks.cpg/sg15_55_cif.got.tgz:108252.got - 2010.06.03 18:47:42.
