data_PCOD9269042
_publ_section_title
;
Structure prediction by ZEFSAII (Michael W. Deem and Ramdas Pophale) SiO2 
 PCOD9269042
Probable space group: C 2/C
;
_chemical_formula_sum "Si O2"
_cell_formula_units_Z 60
_cell_length_a 14.525695
_cell_length_b 19.610435
_cell_length_c 10.637468
_cell_angle_alpha 90.000000
_cell_angle_beta 114.664223
_cell_angle_gamma 90.000000
_cell_volume 2753.695306
_symmetry_space_group_name_H-M "C 2/C"
_symmetry_group_IT_number 15
_symmetry_cell_setting 'monoclinic'
loop_
_space_group_symop_operation_xyz
x,y,z
-x,y,1/2-z
-x,-y,-z
x,-y,1/2+z
1/2+x,1/2+y,z
1/2-x,1/2+y,1/2-z
1/2-x,1/2-y,-z
1/2+x,1/2-y,1/2+z
loop_
_atom_site_type_symbol
_atom_site_label
_atom_site_fract_x
_atom_site_fract_y
_atom_site_fract_z
Si Si1 0.825310 0.279323 0.436752
Si Si2 0.754520 0.458744 0.178019
Si Si3 0.338594 0.680179 0.834218
Si Si4 0.079999 0.061052 0.033810
Si Si5 0.412851 0.924612 0.486821
Si Si6 0.421695 0.065577 0.601703
Si Si7 0.993895 0.803675 0.890501
Si Si8 0.000000 0.141781 0.750000
O O1 0.750000 0.250000 0.500000
O O2 0.762897 0.286109 0.270469
O O3 0.859399 0.355294 0.494967
O O4 0.922993 0.238076 0.446406
O O5 0.676130 0.401428 0.176562
O O6 0.691547 0.527436 0.115223
O O7 0.842066 0.458952 0.335500
O O8 0.808529 0.424681 0.086302
O O9 0.420812 0.690292 0.773060
O O10 0.391816 0.699961 0.992266
O O11 0.050175 0.119278 0.117899
O O12 0.059975 0.096285 0.886942
O O13 0.000000 0.000000 0.000000
O O14 0.525050 0.910093 0.495205
O O15 0.424161 0.983141 0.595387
O O16 0.500000 0.092461 0.750000
O O17 0.000000 0.781926 0.750000
#
# Coordination Sequence:
#
# PCOD9269042 Si02
#       8
#     8   8   8   8   8   8   8   4
#     4  11  24  43  67  91 124 183 223 264 328 404
#     4  10  20  33  62  90 120 162 198 252 323 388
#     4  10  22  42  61  90 122 168 210 257 329 384
#     4  11  22  36  61  95 128 164 203 263 326 391
#     4   9  21  40  60  85 127 161 209 260 322 379
#     4   9  19  37  60  92 120 156 206 264 316 376
#     4  11  26  43  62  95 132 166 220 274 322 398
#     4  10  20  36  60  88 130 160 194 260 322 386
#
# _framework density 21.788902
#
# number of rings (size 3 to 8) (size 9 to 14) (size 15 to 20)
#    0.000    1.867    2.667    1.600    6.533    4.267 
#    2.400    1.333    0.000    0.000    0.000    0.000 
#    0.000    0.000    0.000    0.000    0.000    0.000 
#
# Total GULP energy -167190.148192 kJ/mol
# GULP energy per Si atom -5573.004940 kJ/mol
# Density = 2.173931 g / cm^3
# Si number density = 21.788902 Si / 1000 Ang^3
#
#
#
# Elastic Constant Matrix: (Units=GPa)
#
#
# Indices 1 2 3 4 5 6 
#
# 1 72.4108 13.8498 0.0551 0.0000 1.9285 0.0000
# 2 13.8498 54.5483 6.9639 0.0000 5.3632 0.0000
# 3 0.0551 6.9639 68.7795 0.0000 7.7630 0.0000
# 4 0.0000 0.0000 0.0000 22.8449 0.0000 9.2253
# 5 1.9285 5.3632 7.7630 0.0000 33.3848 0.0000
# 6 0.0000 0.0000 0.0000 9.2253 0.0000 28.8408
#
#
#
# Elastic Compliance Matrix: (Units=1/GPa)
#
#
# Indices 1 2 3 4 5 6 
#
# 1 0.014528 -0.003707 0.000402 0.000000 -0.000337 0.000000
# 2 -0.003707 0.019743 -0.001707 0.000000 -0.002561 0.000000
# 3 0.000402 -0.001707 0.015079 0.000000 -0.003255 0.000000
# 4 0.000000 0.000000 0.000000 0.050266 0.000000 -0.016079
# 5 -0.000337 -0.002561 -0.003255 0.000000 0.031142 0.000000
# 6 0.000000 0.000000 0.000000 -0.016079 0.000000 0.039816
#
#
# Mechanical properties :
#
#
# Convention : Reuss Voigt Hill
#
# Bulk Modulus (GPa) = 25.42844 26.38625 25.90735
# Shear Modulus (GPa) = 25.81220 28.67209 27.24215
#
# Velocity S-wave (km/s) = 3.44561 3.63147 3.53976
# Velocity P-wave (km/s) = 5.24646 5.45158 5.35000
#
# Compressibility (1/GPa) = 0.03932605
#
# Stress axis : x y z
#
# Youngs Moduli (GPa) = 68.83383 50.65036 66.31679
#
# Poissons Ratio (x) = 0.18775 -0.02664
# Poissons Ratio (y) = 0.25515 0.11320
# Poissons Ratio (z) = -0.02765 0.08646
#
# Static dielectric constant tensor:
#      x y z
#    x 1.934010 0.000000 -0.011550 
#    y 0.000000 1.789950 0.000000 
#    z -0.011550 0.000000 1.856810 
# 
# From -- ./inp_files/98812.got.cif
#   From: 2010.05.17/outbox.cif.g08.bks.cpg/sg15_50_cif.got.tgz:98812.got - 2010.06.03 18:47:42.
