data_PCOD9269971
_publ_section_title
;
Structure prediction by ZEFSAII (Michael W. Deem and Ramdas Pophale) SiO2 
 PCOD9269971
Probable space group: C 2/C
;
_chemical_formula_sum "Si O2"
_cell_formula_units_Z 56
_cell_length_a 22.492394
_cell_length_b 14.303641
_cell_length_c 13.815651
_cell_angle_alpha 90.000000
_cell_angle_beta 42.604311
_cell_angle_gamma 90.000000
_cell_volume 3008.834270
_symmetry_space_group_name_H-M "C 2/C"
_symmetry_group_IT_number 15
_symmetry_cell_setting 'monoclinic'
loop_
_space_group_symop_operation_xyz
x,y,z
-x,y,1/2-z
-x,-y,-z
x,-y,1/2+z
1/2+x,1/2+y,z
1/2-x,1/2+y,1/2-z
1/2-x,1/2-y,-z
1/2+x,1/2-y,1/2+z
loop_
_atom_site_type_symbol
_atom_site_label
_atom_site_fract_x
_atom_site_fract_y
_atom_site_fract_z
Si Si1 0.355351 0.867786 0.181658
Si Si2 0.646129 0.655473 0.384209
Si Si3 0.644283 0.983180 0.133855
Si Si4 0.448103 0.113268 0.123713
Si Si5 0.808539 0.455782 0.633246
Si Si6 0.464050 0.678325 0.682834
Si Si7 0.212208 0.146510 0.525912
O O1 0.342812 0.759999 0.171086
O O2 0.334296 0.901174 0.315371
O O3 0.303275 0.936017 0.171690
O O4 0.457476 0.892414 0.039331
O O5 0.711602 0.588308 0.247658
O O6 0.541351 0.637920 0.522040
O O7 0.680497 0.649570 0.453053
O O8 0.561691 0.038798 0.277749
O O9 0.717998 0.064370 0.046569
O O10 0.642551 0.947034 0.027376
O O11 0.369439 0.092508 0.142788
O O12 0.443218 0.217167 0.171913
O O13 0.500000 0.685026 0.750000
O O14 0.371151 0.627548 0.804984
O O15 0.250000 0.250000 0.500000
#
# Coordination Sequence:
#
# PCOD9269971 Si02
#       7
#     8   8   8   8   8   8   8
#     4  10  22  36  54  83 111 144 182 231 273 336
#     4  10  20  36  54  77 113 144 183 225 278 326
#     4  11  21  32  55  81 112 144 184 221 279 336
#     4  10  20  35  52  83 115 134 180 237 286 327
#     4  11  21  35  54  80 112 150 179 225 276 330
#     4   9  19  31  56  84 106 142 182 233 280 317
#     4  11  17  33  56  82 106 139 185 234 276 319
#
# _framework density 18.611858999999999
#
# number of rings (size 3 to 8) (size 9 to 14) (size 15 to 20)
#    0.000    1.714    4.286    2.571    4.000    2.286 
#    0.000    0.714    0.000    0.000    0.000    0.000 
#    0.000    0.000    0.000    0.000    0.000    0.000 
#
# Total GULP energy -156161.000327 kJ/mol
# GULP energy per Si atom -5577.178583 kJ/mol
# Density = 1.856950 g / cm^3
# Si number density = 18.611859 Si / 1000 Ang^3
#
#
#
# Elastic Constant Matrix: (Units=GPa)
#
#
# Indices 1 2 3 4 5 6 
#
# 1 36.4036 9.4021 33.9808 0.0000 1.9606 0.0000
# 2 9.4021 46.3360 44.4866 0.0000 -15.6059 0.0000
# 3 33.9808 44.4866 119.8616 0.0000 -0.1063 0.0000
# 4 0.0000 0.0000 0.0000 34.5019 0.0000 -8.9164
# 5 1.9606 -15.6059 -0.1063 0.0000 32.9382 0.0000
# 6 0.0000 0.0000 0.0000 -8.9164 0.0000 20.6294
#
#
#
# Elastic Compliance Matrix: (Units=1/GPa)
#
#
# Indices 1 2 3 4 5 6 
#
# 1 0.037849 0.003822 -0.012149 0.000000 -0.000481 0.000000
# 2 0.003822 0.044893 -0.017727 0.000000 0.020985 0.000000
# 3 -0.012149 -0.017727 0.018360 0.000000 -0.007617 0.000000
# 4 0.000000 0.000000 0.000000 0.032628 0.000000 0.014103
# 5 -0.000481 0.020985 -0.007617 0.000000 0.040307 0.000000
# 6 0.000000 0.000000 0.000000 0.014103 0.000000 0.054570
#
#
# Mechanical properties :
#
#
# Convention : Reuss Voigt Hill
#
# Bulk Modulus (GPa) = 20.41057 42.03780 31.22418
# Shear Modulus (GPa) = 16.83233 25.26267 21.04750
#
# Velocity S-wave (km/s) = 3.01057 3.68821 3.36648
# Velocity P-wave (km/s) = 4.80364 6.38536 5.65012
#
# Compressibility (1/GPa) = 0.04899422
#
# Stress axis : x y z
#
# Youngs Moduli (GPa) = 26.42055 22.27500 54.46626
#
# Poissons Ratio (x) = -0.08514 0.66173
# Poissons Ratio (y) = -0.10099 0.96553
# Poissons Ratio (z) = 0.32099 0.39487
#
# Static dielectric constant tensor:
#      x y z
#    x 1.662620 0.000000 -0.016490 
#    y 0.000000 1.628990 0.000000 
#    z -0.016490 0.000000 1.707240 
# 
# From -- ./inp_files/161882.got.cif
#   From: 2010.05.17/outbox.cif.g08.bks.cpg/sg15_81_cif.got.tgz:161882.got - 2010.06.03 18:47:42.
