data_PCOD9269515
_publ_section_title
;
Structure prediction by ZEFSAII (Michael W. Deem and Ramdas Pophale) SiO2 
 PCOD9269515
Probable space group: C 2/C
;
_chemical_formula_sum "Si O2"
_cell_formula_units_Z 48
_cell_length_a 5.743008
_cell_length_b 14.535334
_cell_length_c 24.504399
_cell_angle_alpha 90.000000
_cell_angle_beta 86.289654
_cell_angle_gamma 90.000000
_cell_volume 2041.254869
_symmetry_space_group_name_H-M "C 2/C"
_symmetry_group_IT_number 15
_symmetry_cell_setting 'monoclinic'
loop_
_space_group_symop_operation_xyz
x,y,z
-x,y,1/2-z
-x,-y,-z
x,-y,1/2+z
1/2+x,1/2+y,z
1/2-x,1/2+y,1/2-z
1/2-x,1/2-y,-z
1/2+x,1/2-y,1/2+z
loop_
_atom_site_type_symbol
_atom_site_label
_atom_site_fract_x
_atom_site_fract_y
_atom_site_fract_z
Si Si1 0.193995 0.575001 0.505221
Si Si2 0.256533 0.845908 0.724432
Si Si3 0.257541 0.378519 0.223104
Si Si4 0.845559 0.284429 0.057540
Si Si5 0.190990 0.171791 0.105285
Si Si6 0.575952 0.626956 0.897936
O O1 0.279817 0.605463 0.445676
O O2 0.374336 0.560442 0.551316
O O3 0.000000 0.500000 0.500000
O O4 0.071970 0.664280 0.532647
O O5 0.500000 0.873845 0.750000
O O6 0.254704 0.733598 0.725363
O O7 0.251796 0.873780 0.661255
O O8 0.000000 0.874624 0.750000
O O9 0.500000 0.406096 0.250000
O O10 0.301322 0.405358 0.159137
O O11 0.000000 0.407055 0.250000
O O12 0.700057 0.359111 0.093598
O O13 0.927517 0.208979 0.100124
O O14 0.750000 0.250000 0.000000
O O15 0.354698 0.263121 0.098975
#
# Coordination Sequence:
#
# PCOD9269515 Si02
#       6
#     8   8   8   8   8   8
#     4  11  23  37  54  88 122 153 199 253 309 365
#     4   9  19  31  52  85 119 151 198 253 304 359
#     4   9  19  31  52  86 119 151 195 251 304 354
#     4  11  19  35  61  84 118 154 203 243 309 378
#     4  10  20  34  57  85 117 157 194 253 311 365
#     4  10  20  35  58  85 117 158 195 248 305 365
#
# _framework density 23.514945999999998
#
# number of rings (size 3 to 8) (size 9 to 14) (size 15 to 20)
#    0.000    2.000    3.333    1.000   14.000    0.667 
#    0.000    0.000    0.000    1.000    0.000    0.000 
#    0.000    0.000    0.000    0.000    0.000    0.000 
#
# Total GULP energy -133685.726509 kJ/mol
# GULP energy per Si atom -5570.238605 kJ/mol
# Density = 2.346143 g / cm^3
# Si number density = 23.514946 Si / 1000 Ang^3
#
#
#
# Elastic Constant Matrix: (Units=GPa)
#
#
# Indices 1 2 3 4 5 6 
#
# 1 139.2278 10.1335 92.1633 0.0000 4.7256 0.0000
# 2 10.1335 31.1465 26.7268 0.0000 5.6441 0.0000
# 3 92.1633 26.7268 202.3042 0.0000 -4.2908 0.0000
# 4 0.0000 0.0000 0.0000 -12.4931 0.0000 4.4556
# 5 4.7256 5.6441 -4.2908 0.0000 25.8488 0.0000
# 6 0.0000 0.0000 0.0000 4.4556 0.0000 19.8340
#
#
#
# Elastic Compliance Matrix: (Units=1/GPa)
#
#
# Indices 1 2 3 4 5 6 
#
# 1 0.010527 0.001472 -0.005056 0.000000 -0.003085 0.000000
# 2 0.001472 0.038494 -0.005961 0.000000 -0.009664 0.000000
# 3 -0.005056 -0.005961 0.008109 0.000000 0.003572 0.000000
# 4 0.000000 0.000000 0.000000 -0.074107 0.000000 0.016648
# 5 -0.003085 -0.009664 0.003572 0.000000 0.041954 0.000000
# 6 0.000000 0.000000 0.000000 0.016648 0.000000 0.046679
#
#
# Mechanical properties :
#
#
# Convention : Reuss Voigt Hill
#
# Bulk Modulus (GPa) = 26.28733 70.08063 48.18398
# Shear Modulus (GPa) = 48.34461 22.88162 35.61311
#
# Velocity S-wave (km/s) = 4.53913 3.12279 3.89586
# Velocity P-wave (km/s) = 6.21891 6.54749 6.38532
#
# Compressibility (1/GPa) = 0.03804114
#
# Stress axis : x y z
#
# Youngs Moduli (GPa) = 94.99769 25.97821 123.31229
#
# Poissons Ratio (x) = -0.03825 0.62341
# Poissons Ratio (y) = -0.13987 0.73509
# Poissons Ratio (z) = 0.48026 0.15486
#
# Static dielectric constant tensor:
#      x y z
#    x 1.616580 0.000000 -0.256120 
#    y 0.000000 1.962300 0.000000 
#    z -0.256120 0.000000 1.724710 
# 
# From -- ./inp_files/260716.got.cif
#   From: 2010.05.17/outbox.cif.g08.bks.cpg/sg15_131_cif.got.tgz:260716.got - 2010.06.03 18:47:42.
