data_PCOD9269153
_publ_section_title
;
Structure prediction by ZEFSAII (Michael W. Deem and Ramdas Pophale) SiO2 
 PCOD9269153
Probable space group: C 2/C
;
_chemical_formula_sum "Si O2"
_cell_formula_units_Z 48
_cell_length_a 20.611580
_cell_length_b 22.392378
_cell_length_c 9.566221
_cell_angle_alpha 90.000000
_cell_angle_beta 151.993640
_cell_angle_gamma 90.000000
_cell_volume 2073.250867
_symmetry_space_group_name_H-M "C 2/C"
_symmetry_group_IT_number 15
_symmetry_cell_setting 'monoclinic'
loop_
_space_group_symop_operation_xyz
x,y,z
-x,y,1/2-z
-x,-y,-z
x,-y,1/2+z
1/2+x,1/2+y,z
1/2-x,1/2+y,1/2-z
1/2-x,1/2-y,-z
1/2+x,1/2-y,1/2+z
loop_
_atom_site_type_symbol
_atom_site_label
_atom_site_fract_x
_atom_site_fract_y
_atom_site_fract_z
Si Si1 0.751785 0.762231 0.171838
Si Si2 0.780102 0.468269 0.831574
Si Si3 0.000000 0.966412 0.750000
Si Si4 0.500000 0.847029 0.750000
Si Si5 0.137255 0.850025 0.603944
Si Si6 0.143574 0.573619 0.311905
Si Si7 0.572680 0.359547 0.076865
O O1 0.876509 0.807911 0.429208
O O2 0.750000 0.750000 0.000000
O O3 0.627173 0.802548 0.990482
O O4 0.731196 0.700015 0.210990
O O5 0.638196 0.495657 0.497604
O O6 0.729942 0.407568 0.808467
O O7 0.831840 0.517987 0.037228
O O8 0.875246 0.450144 0.880857
O O9 0.984973 0.921039 0.593383
O O10 0.476961 0.888185 0.843094
O O11 0.000000 0.865792 0.250000
O O12 0.052032 0.829725 0.576001
O O13 0.283160 0.615567 0.577690
#
# Coordination Sequence:
#
# PCOD9269153 Si02
#       7
#     8   8   4   4   8   8   8
#     4  11  19  33  54  80 105 131 176 220 258 302
#     4  11  20  34  54  83 106 137 172 218 263 311
#     4  10  20  35  54  75 108 134 172 212 262 316
#     4  10  20  35  52  77 106 142 174 214 262 308
#     4  12  18  30  55  81 104 127 170 222 262 297
#     4  10  21  34  53  76 110 139 175 212 259 313
#     4  10  20  34  52  78 103 138 170 216 262 304
#
# _framework density 23.152045999999999
#
# number of rings (size 3 to 8) (size 9 to 14) (size 15 to 20)
#    0.000    1.333    5.000    2.000    0.000    3.333 
#    0.000    0.833    0.000    3.000    0.000    0.000 
#    0.000    0.000    0.000    0.000    0.000    0.000 
#
# Total GULP energy -133940.879358 kJ/mol
# GULP energy per Si atom -5580.869973 kJ/mol
# Density = 2.309935 g / cm^3
# Si number density = 23.152046 Si / 1000 Ang^3
#
#
#
# Elastic Constant Matrix: (Units=GPa)
#
#
# Indices 1 2 3 4 5 6 
#
# 1 115.9883 39.6684 27.5353 0.0000 38.0685 0.0000
# 2 39.6684 152.1354 32.6130 0.0000 24.5142 0.0000
# 3 27.5353 32.6130 40.9251 0.0000 15.8714 0.0000
# 4 0.0000 0.0000 0.0000 36.4832 0.0000 25.3071
# 5 38.0685 24.5142 15.8714 0.0000 25.6133 0.0000
# 6 0.0000 0.0000 0.0000 25.3071 0.0000 50.7840
#
#
#
# Elastic Compliance Matrix: (Units=1/GPa)
#
#
# Indices 1 2 3 4 5 6 
#
# 1 0.016978 -0.000146 -0.002073 0.000000 -0.023810 0.000000
# 2 -0.000146 0.008411 -0.004695 0.000000 -0.004924 0.000000
# 3 -0.002073 -0.004695 0.035058 0.000000 -0.014149 0.000000
# 4 0.000000 0.000000 0.000000 0.041890 0.000000 -0.020875
# 5 -0.023810 -0.004924 -0.014149 0.000000 0.087911 0.000000
# 6 0.000000 0.000000 0.000000 -0.020875 0.000000 0.030094
#
#
# Mechanical properties :
#
#
# Convention : Reuss Voigt Hill
#
# Bulk Modulus (GPa) = 21.45011 56.52025 38.98518
# Shear Modulus (GPa) = 20.02314 36.52492 28.27403
#
# Velocity S-wave (km/s) = 2.94403 3.97622 3.49840
# Velocity P-wave (km/s) = 4.56524 6.74879 5.76140
#
# Compressibility (1/GPa) = 0.04661982
#
# Stress axis : x y z
#
# Youngs Moduli (GPa) = 58.89823 118.89191 28.52385
#
# Poissons Ratio (x) = 0.01735 0.05913
# Poissons Ratio (y) = 0.00860 0.13392
# Poissons Ratio (z) = 0.12211 0.55819
#
# Static dielectric constant tensor:
#      x y z
#    x 1.975180 0.000000 0.059390 
#    y 0.000000 1.856630 0.000000 
#    z 0.059390 0.000000 0.241040 
# 
# From -- ./inp_files/32696.got.cif
#   From: 2010.05.17/outbox.cif.g08.bks.cpg/sg15_17_cif.got.tgz:32696.got - 2010.06.03 18:47:42.
