data_PCOD9269208
_publ_section_title
;
Structure prediction by ZEFSAII (Michael W. Deem and Ramdas Pophale) SiO2 
 PCOD9269208
Probable space group: C 2/C
;
_chemical_formula_sum "Si O2"
_cell_formula_units_Z 48
_cell_length_a 4.977619
_cell_length_b 17.020639
_cell_length_c 28.640141
_cell_angle_alpha 90.000000
_cell_angle_beta 83.715996
_cell_angle_gamma 90.000000
_cell_volume 2411.878119
_symmetry_space_group_name_H-M "C 2/C"
_symmetry_group_IT_number 15
_symmetry_cell_setting 'monoclinic'
loop_
_space_group_symop_operation_xyz
x,y,z
-x,y,1/2-z
-x,-y,-z
x,-y,1/2+z
1/2+x,1/2+y,z
1/2-x,1/2+y,1/2-z
1/2-x,1/2-y,-z
1/2+x,1/2-y,1/2+z
loop_
_atom_site_type_symbol
_atom_site_label
_atom_site_fract_x
_atom_site_fract_y
_atom_site_fract_z
Si Si1 0.387389 0.473073 0.301648
Si Si2 0.130538 0.529975 0.391878
Si Si3 0.600092 0.679405 0.530419
Si Si4 0.892472 0.606630 0.841559
Si Si5 0.454468 0.776303 0.412904
Si Si6 0.909300 0.099938 0.062357
O O1 0.500000 0.499537 0.250000
O O2 0.272911 0.540671 0.338358
O O3 0.619068 0.426749 0.325346
O O4 0.136167 0.413132 0.301659
O O5 0.373176 0.536275 0.424111
O O6 0.974715 0.448333 0.384562
O O7 0.890143 0.586165 0.412288
O O8 0.750000 0.750000 0.500000
O O9 0.294743 0.698808 0.549499
O O10 0.604375 0.608901 0.493310
O O11 0.774794 0.680034 0.574100
O O12 0.888198 0.693467 0.862315
O O13 0.490051 0.683302 0.418581
#
# Coordination Sequence:
#
# PCOD9269208 Si02
#       6
#     8   8   8   8   8   8
#     4  10  20  38  63  82 103 145 184 222 274 358
#     4  10  20  35  56  83 110 136 189 222 277 323
#     4  10  20  34  53  80 111 155 194 214 255 328
#     4  10  21  37  57  85 111 136 189 225 281 326
#     4  11  21  36  57  81 112 149 189 227 263 316
#     4  11  19  35  56  81 110 150 186 225 262 316
#
# _framework density 19.901503999999999
#
# number of rings (size 3 to 8) (size 9 to 14) (size 15 to 20)
#    1.000    0.667    1.667    6.500    0.000    0.000 
#    0.000    5.000    0.000    4.000    0.000    0.000 
#    0.000    0.000    0.000    0.000    0.000    0.000 
#
# Total GULP energy -133650.691277 kJ/mol
# GULP energy per Si atom -5568.778803 kJ/mol
# Density = 1.985621 g / cm^3
# Si number density = 19.901504 Si / 1000 Ang^3
#
#
#
# Elastic Constant Matrix: (Units=GPa)
#
#
# Indices 1 2 3 4 5 6 
#
# 1 119.3183 6.4033 11.6970 0.0000 -7.4724 0.0000
# 2 6.4033 20.3882 9.4493 0.0000 0.7723 0.0000
# 3 11.6970 9.4493 38.3461 0.0000 -10.7640 0.0000
# 4 0.0000 0.0000 0.0000 20.3047 0.0000 2.9437
# 5 -7.4724 0.7723 -10.7640 0.0000 38.2489 0.0000
# 6 0.0000 0.0000 0.0000 2.9437 0.0000 14.1928
#
#
#
# Elastic Compliance Matrix: (Units=1/GPa)
#
#
# Indices 1 2 3 4 5 6 
#
# 1 0.008743 -0.001937 -0.001845 0.000000 0.001228 0.000000
# 2 -0.001937 0.056841 -0.015032 0.000000 -0.005756 0.000000
# 3 -0.001845 -0.015032 0.032931 0.000000 0.009210 0.000000
# 4 0.000000 0.000000 0.000000 0.050777 0.000000 -0.010532
# 5 0.001228 -0.005756 0.009210 0.000000 0.029093 0.000000
# 6 0.000000 0.000000 0.000000 -0.010532 0.000000 0.072643
#
#
# Mechanical properties :
#
#
# Convention : Reuss Voigt Hill
#
# Bulk Modulus (GPa) = 16.42396 25.90576 21.16486
# Shear Modulus (GPa) = 16.18386 24.58280 20.38333
#
# Velocity S-wave (km/s) = 2.85476 3.51839 3.20380
# Velocity P-wave (km/s) = 4.37455 5.43605 4.93393
#
# Compressibility (1/GPa) = 0.06088667
#
# Stress axis : x y z
#
# Youngs Moduli (GPa) = 114.38172 17.59286 30.36689
#
# Poissons Ratio (x) = 0.03408 0.05602
# Poissons Ratio (y) = 0.22160 0.45647
# Poissons Ratio (z) = 0.21100 0.26445
#
# Static dielectric constant tensor:
#      x y z
#    x 1.719220 0.000000 0.028240 
#    y 0.000000 1.754620 0.000000 
#    z 0.028240 0.000000 1.740310 
# 
# From -- ./inp_files/285692.got.cif
#   From: 2010.05.17/outbox.cif.g08.bks.cpg/sg15_143_cif.got.tgz:285692.got - 2010.06.03 18:47:42.
