data_PCOD9269421
_publ_section_title
;
Structure prediction by ZEFSAII (Michael W. Deem and Ramdas Pophale) SiO2 
 PCOD9269421
Probable space group: C 2/C
;
_chemical_formula_sum "Si O2"
_cell_formula_units_Z 48
_cell_length_a 8.614529
_cell_length_b 11.176850
_cell_length_c 22.955500
_cell_angle_alpha 90.000000
_cell_angle_beta 78.720025
_cell_angle_gamma 90.000000
_cell_volume 2167.536402
_symmetry_space_group_name_H-M "C 2/C"
_symmetry_group_IT_number 15
_symmetry_cell_setting 'monoclinic'
loop_
_space_group_symop_operation_xyz
x,y,z
-x,y,1/2-z
-x,-y,-z
x,-y,1/2+z
1/2+x,1/2+y,z
1/2-x,1/2+y,1/2-z
1/2-x,1/2-y,-z
1/2+x,1/2-y,1/2+z
loop_
_atom_site_type_symbol
_atom_site_label
_atom_site_fract_x
_atom_site_fract_y
_atom_site_fract_z
Si Si1 0.178672 0.760144 0.939873
Si Si2 0.826372 0.253995 0.735465
Si Si3 0.474939 0.239755 0.102946
Si Si4 0.182537 0.497266 0.218621
Si Si5 0.623411 0.141480 0.506519
Si Si6 0.679464 0.517075 0.919187
O O1 0.341312 0.756760 0.891611
O O2 0.036192 0.667912 0.945173
O O3 0.101099 0.888687 0.932682
O O4 0.250000 0.750000 0.000000
O O5 0.860353 0.280765 0.665178
O O6 0.745929 0.373386 0.767696
O O7 0.000000 0.238753 0.750000
O O8 0.744586 0.124375 0.744198
O O9 0.437420 0.371369 0.079792
O O10 0.433985 0.143761 0.055919
O O11 0.215198 0.483174 0.147303
O O12 0.000000 0.506424 0.250000
O O13 0.750000 0.250000 0.500000
O O14 0.714989 0.035332 0.530945
#
# Coordination Sequence:
#
# PCOD9269421 Si02
#       6
#     8   8   8   8   8   8
#     4  10  20  34  56  83 112 149 186 225 282 346
#     4  10  21  40  60  85 119 155 198 248 293 346
#     4   9  20  38  57  82 115 152 193 235 287 347
#     4  10  22  39  62  86 117 155 198 246 294 344
#     4   9  20  37  57  84 114 146 185 230 283 347
#     4  10  21  39  58  82 117 150 186 241 290 340
#
# _framework density 22.144957000000002
#
# number of rings (size 3 to 8) (size 9 to 14) (size 15 to 20)
#    0.000    2.333    0.000    2.000    0.000   12.000 
#    0.000   15.000    0.000    0.000    0.000    0.000 
#    0.000    0.000    0.000    0.000    0.000    0.000 
#
# Total GULP energy -133860.645563 kJ/mol
# GULP energy per Si atom -5577.526898 kJ/mol
# Density = 2.209455 g / cm^3
# Si number density = 22.144957 Si / 1000 Ang^3
#
#
#
# Elastic Constant Matrix: (Units=GPa)
#
#
# Indices 1 2 3 4 5 6 
#
# 1 58.7156 24.3574 0.2429 0.0000 -2.1821 0.0000
# 2 24.3574 124.6048 20.6332 0.0000 12.2974 0.0000
# 3 0.2429 20.6332 57.0038 0.0000 1.1719 0.0000
# 4 0.0000 0.0000 0.0000 29.9257 0.0000 3.5557
# 5 -2.1821 12.2974 1.1719 0.0000 21.3619 0.0000
# 6 0.0000 0.0000 0.0000 3.5557 0.0000 38.3167
#
#
#
# Elastic Compliance Matrix: (Units=1/GPa)
#
#
# Indices 1 2 3 4 5 6 
#
# 1 0.019007 -0.004383 0.001415 0.000000 0.004387 0.000000
# 2 -0.004383 0.010058 -0.003498 0.000000 -0.006046 0.000000
# 3 0.001415 -0.003498 0.018779 0.000000 0.001128 0.000000
# 4 0.000000 0.000000 0.000000 0.033789 0.000000 -0.003135
# 5 0.004387 -0.006046 0.001128 0.000000 0.050679 0.000000
# 6 0.000000 0.000000 0.000000 -0.003135 0.000000 0.026389
#
#
# Mechanical properties :
#
#
# Convention : Reuss Voigt Hill
#
# Bulk Modulus (GPa) = 28.64199 36.75457 32.69828
# Shear Modulus (GPa) = 27.28232 30.92689 29.10460
#
# Velocity S-wave (km/s) = 3.51378 3.74112 3.62923
# Velocity P-wave (km/s) = 5.42440 5.94093 5.68853
#
# Compressibility (1/GPa) = 0.03491378
#
# Stress axis : x y z
#
# Youngs Moduli (GPa) = 52.61358 99.42423 53.24960
#
# Poissons Ratio (x) = 0.43574 -0.07536
# Poissons Ratio (y) = 0.23058 0.18625
# Poissons Ratio (z) = -0.07446 0.34775
#
# Static dielectric constant tensor:
#      x y z
#    x 1.800770 0.000000 -0.014840 
#    y 0.000000 1.847210 0.000000 
#    z -0.014840 0.000000 1.874160 
# 
# From -- ./inp_files/263053.got.cif
#   From: 2010.05.17/outbox.cif.g08.bks.cpg/sg15_132_cif.got.tgz:263053.got - 2010.06.03 18:47:42.
