data_PCOD9269671
_publ_section_title
;
Structure prediction by ZEFSAII (Michael W. Deem and Ramdas Pophale) SiO2 
 PCOD9269671
Probable space group: C 2/C
;
_chemical_formula_sum "Si O2"
_cell_formula_units_Z 36
_cell_length_a 11.791866
_cell_length_b 34.373739
_cell_length_c 5.353835
_cell_angle_alpha 90.000000
_cell_angle_beta 51.833703
_cell_angle_gamma 90.000000
_cell_volume 1706.155729
_symmetry_space_group_name_H-M "C 2/C"
_symmetry_group_IT_number 15
_symmetry_cell_setting 'monoclinic'
loop_
_space_group_symop_operation_xyz
x,y,z
-x,y,1/2-z
-x,-y,-z
x,-y,1/2+z
1/2+x,1/2+y,z
1/2-x,1/2+y,1/2-z
1/2-x,1/2-y,-z
1/2+x,1/2-y,1/2+z
loop_
_atom_site_type_symbol
_atom_site_label
_atom_site_fract_x
_atom_site_fract_y
_atom_site_fract_z
Si Si1 0.203378 0.104657 0.605560
Si Si2 0.339659 0.289204 0.847978
Si Si3 0.335271 0.134941 0.901815
Si Si4 0.500000 0.333621 0.250000
Si Si5 0.836041 0.984968 0.432997
O O1 0.312564 0.108515 0.688107
O O2 0.156773 0.060211 0.645502
O O3 0.072882 0.135139 0.838018
O O4 0.261754 0.117700 0.253413
O O5 0.500000 0.286438 0.750000
O O6 0.378724 0.304603 0.517730
O O7 0.250000 0.250000 0.000000
O O8 0.237882 0.324220 0.075765
O O9 0.500000 0.140940 0.750000
O O10 0.000000 0.000257 0.250000
O O11 0.765931 0.992288 0.797743
#
# Coordination Sequence:
#
# PCOD9269671 Si02
#       5
#     8   8   8   4   8
#     4  11  21  40  68  89 137 164 222 267 321 387
#     4  11  23  42  63  94 129 168 214 273 329 383
#     4  11  24  42  64  94 125 176 225 264 320 387
#     4  10  22  40  62  98 120 178 212 264 328 380
#     4  10  20  34  58  99 132 165 207 267 329 377
#
# _framework density 21.100069000000001
#
# number of rings (size 3 to 8) (size 9 to 14) (size 15 to 20)
#    0.000    1.333    3.333    2.667    0.000    0.889 
#    4.000    0.000    0.000   13.333    0.000    0.000 
#    0.000    0.000    0.000    0.000    0.000    0.000 
#
# Total GULP energy -100303.612555 kJ/mol
# GULP energy per Si atom -5572.422920 kJ/mol
# Density = 2.105204 g / cm^3
# Si number density = 21.100069 Si / 1000 Ang^3
#
#
#
# Elastic Constant Matrix: (Units=GPa)
#
#
# Indices 1 2 3 4 5 6 
#
# 1 144.8315 41.3508 36.2631 0.0000 12.1937 0.0000
# 2 41.3508 114.8000 47.2693 0.0000 9.3282 0.0000
# 3 36.2631 47.2693 60.6484 0.0000 18.4257 0.0000
# 4 0.0000 0.0000 0.0000 24.2070 0.0000 0.9093
# 5 12.1937 9.3282 18.4257 0.0000 41.6858 0.0000
# 6 0.0000 0.0000 0.0000 0.9093 0.0000 21.0324
#
#
#
# Elastic Compliance Matrix: (Units=1/GPa)
#
#
# Indices 1 2 3 4 5 6 
#
# 1 0.008276 -0.001419 -0.003700 0.000000 -0.000468 0.000000
# 2 -0.001419 0.013187 -0.010002 0.000000 0.001885 0.000000
# 3 -0.003700 -0.010002 0.029441 0.000000 -0.009693 0.000000
# 4 0.000000 0.000000 0.000000 0.041378 0.000000 -0.001789
# 5 -0.000468 0.001885 -0.009693 0.000000 0.027988 0.000000
# 6 0.000000 0.000000 0.000000 -0.001789 0.000000 0.047623
#
#
# Mechanical properties :
#
#
# Convention : Reuss Voigt Hill
#
# Bulk Modulus (GPa) = 48.39985 63.33848 55.86916
# Shear Modulus (GPa) = 24.38752 30.41150 27.39951
#
# Velocity S-wave (km/s) = 3.40340 3.80056 3.60745
# Velocity P-wave (km/s) = 6.19937 7.02441 6.62475
#
# Compressibility (1/GPa) = 0.02066122
#
# Stress axis : x y z
#
# Youngs Moduli (GPa) = 120.83759 75.83019 33.96604
#
# Poissons Ratio (x) = 0.10764 0.12566
# Poissons Ratio (y) = 0.17153 0.33974
# Poissons Ratio (z) = 0.44706 0.75847
#
# Static dielectric constant tensor:
#      x y z
#    x 1.821360 0.000000 0.052810 
#    y 0.000000 1.717080 0.000000 
#    z 0.052810 0.000000 1.874600 
# 
# From -- ./inp_files/4808.got.cif
#   From: 2010.05.17/outbox.cif.g08.bks.cpg/sg15_3_cif.got.tgz:4808.got - 2010.06.03 18:47:42.
