data_PCOD9269426
_publ_section_title
;
Structure prediction by ZEFSAII (Michael W. Deem and Ramdas Pophale) SiO2 
 PCOD9269426
Probable space group: C 2/C
;
_chemical_formula_sum "Si O2"
_cell_formula_units_Z 48
_cell_length_a 13.321586
_cell_length_b 13.465866
_cell_length_c 26.910469
_cell_angle_alpha 90.000000
_cell_angle_beta 29.986941
_cell_angle_gamma 90.000000
_cell_volume 2412.737083
_symmetry_space_group_name_H-M "C 2/C"
_symmetry_group_IT_number 15
_symmetry_cell_setting 'monoclinic'
loop_
_space_group_symop_operation_xyz
x,y,z
-x,y,1/2-z
-x,-y,-z
x,-y,1/2+z
1/2+x,1/2+y,z
1/2-x,1/2+y,1/2-z
1/2-x,1/2-y,-z
1/2+x,1/2-y,1/2+z
loop_
_atom_site_type_symbol
_atom_site_label
_atom_site_fract_x
_atom_site_fract_y
_atom_site_fract_z
Si Si1 0.524195 0.370508 0.431083
Si Si2 0.460740 0.165690 0.501510
Si Si3 0.468635 0.280203 0.925427
Si Si4 0.329775 0.883496 0.212199
Si Si5 0.771141 0.009076 0.848064
Si Si6 0.771611 0.950425 0.057255
O O1 0.468011 0.254387 0.459178
O O2 0.647433 0.390863 0.328382
O O3 0.671747 0.407856 0.412708
O O4 0.324411 0.434983 0.526740
O O5 0.495801 0.224161 0.537989
O O6 0.635230 0.085953 0.417592
O O7 0.269176 0.095157 0.593366
O O8 0.628867 0.232601 0.819571
O O9 0.250000 0.250000 0.000000
O O10 0.436390 0.395278 0.950957
O O11 0.543222 0.923162 0.142147
O O12 0.287757 0.943686 0.179696
O O13 0.000000 0.979287 0.750000
#
# Coordination Sequence:
#
# PCOD9269426 Si02
#       6
#     8   8   8   8   8   8
#     4  10  20  35  58  83 111 146 181 224 280 336
#     4   9  20  38  56  80 111 144 183 230 280 333
#     4   8  16  32  55  79 107 139 177 227 273 319
#     4  10  20  34  56  84 109 144 191 227 269 332
#     4  10  22  39  57  78 110 148 187 232 279 327
#     4   9  19  36  54  81 117 143 174 229 284 330
#
# _framework density 19.894418000000002
#
# number of rings (size 3 to 8) (size 9 to 14) (size 15 to 20)
#    0.000    2.667    0.000    0.500    0.000   10.667 
#    0.000   10.000    0.000    0.000    0.000    0.000 
#    0.000    0.000    0.000    0.000    0.000    0.000 
#
# Total GULP energy -133703.856037 kJ/mol
# GULP energy per Si atom -5570.994002 kJ/mol
# Density = 1.984914 g / cm^3
# Si number density = 19.894418 Si / 1000 Ang^3
#
#
#
# Elastic Constant Matrix: (Units=GPa)
#
#
# Indices 1 2 3 4 5 6 
#
# 1 18.0490 -12.5530 2.1766 0.0000 -0.6690 0.0001
# 2 -12.5530 103.0494 20.8857 0.0003 5.5810 -0.0001
# 3 2.1766 20.8857 78.1227 -0.0001 14.1669 0.0006
# 4 0.0000 0.0003 -0.0001 18.9798 0.0007 -1.0754
# 5 -0.6690 5.5810 14.1669 0.0007 -6.2681 -0.0002
# 6 0.0001 -0.0001 0.0006 -1.0754 -0.0002 4.1538
#
#
#
# Elastic Compliance Matrix: (Units=1/GPa)
#
#
# Indices 1 2 3 4 5 6 
#
# 1 0.061371 0.008375 -0.002918 0.000000 -0.005687 -0.000002
# 2 0.008375 0.011365 -0.003507 0.000000 0.001299 0.000000
# 3 -0.002918 -0.003507 0.010163 -0.000001 0.020160 -0.000001
# 4 0.000000 0.000000 -0.000001 0.053472 0.000004 0.013844
# 5 -0.005687 0.001299 0.020160 0.000004 -0.112211 -0.000008
# 6 -0.000002 0.000000 -0.000001 0.013844 -0.000008 0.244326
#
#
# Mechanical properties :
#
#
# Convention : Reuss Voigt Hill
#
# Bulk Modulus (GPa) = 11.52073 24.47108 17.99591
# Shear Modulus (GPa) = 17.03468 15.95391 16.49429
#
# Velocity S-wave (km/s) = 2.92936 2.83491 2.88252
# Velocity P-wave (km/s) = 4.15271 4.80029 4.48820
#
# Compressibility (1/GPa) = 0.08680002
#
# Stress axis : x y z
#
# Youngs Moduli (GPa) = 16.29439 87.99087 98.39166
#
# Poissons Ratio (x) = -0.73695 0.28707
# Poissons Ratio (y) = -0.13647 0.34507
# Poissons Ratio (z) = 0.04754 0.30860
#
# Static dielectric constant tensor:
#      x y z
#    x 1.721030 0.000000 0.041270 
#    y 0.000000 1.715560 0.000000 
#    z 0.041270 0.000000 1.679830 
# 
# From -- ./inp_files/152211.got.cif
#   From: 2010.05.17/outbox.cif.g08.bks.cpg/sg15_77_cif.got.tgz:152211.got - 2010.06.03 18:47:42.
