data_PCOD9269422
_publ_section_title
;
Structure prediction by ZEFSAII (Michael W. Deem and Ramdas Pophale) SiO2 
 PCOD9269422
Probable space group: C 2/C
;
_chemical_formula_sum "Si O2"
_cell_formula_units_Z 32
_cell_length_a 27.021451
_cell_length_b 11.533882
_cell_length_c 8.341319
_cell_angle_alpha 90.000000
_cell_angle_beta 37.178319
_cell_angle_gamma 90.000000
_cell_volume 1570.976952
_symmetry_space_group_name_H-M "C 2/C"
_symmetry_group_IT_number 15
_symmetry_cell_setting 'monoclinic'
loop_
_space_group_symop_operation_xyz
x,y,z
-x,y,1/2-z
-x,-y,-z
x,-y,1/2+z
1/2+x,1/2+y,z
1/2-x,1/2+y,1/2-z
1/2-x,1/2-y,-z
1/2+x,1/2-y,1/2+z
loop_
_atom_site_type_symbol
_atom_site_label
_atom_site_fract_x
_atom_site_fract_y
_atom_site_fract_z
Si Si1 0.307718 0.106046 0.791758
Si Si2 0.743666 0.875648 0.440884
Si Si3 0.125341 0.836569 0.849556
Si Si4 0.081979 0.044246 0.128266
O O1 0.292956 0.126113 0.642471
O O2 0.378476 0.197385 0.655689
O O3 0.223480 0.140712 0.100907
O O4 0.309536 0.968927 0.821810
O O5 0.750000 0.750000 0.500000
O O6 0.837576 0.915823 0.175541
O O7 0.090683 0.901825 0.781830
O O8 0.087773 0.903516 0.099011
O O9 0.000000 0.081477 0.250000
#
# Coordination Sequence:
#
# PCOD9269422 Si02
#       4
#     8   8   8   8
#     4   9  20  34  54  82 109 141 188 229 276 322
#     4  10  22  35  59  83 112 145 185 235 279 325
#     4   9  19  33  53  80 115 141 179 230 276 328
#     4  10  20  34  56  83 115 146 185 226 280 329
#
# _framework density 20.369489999999999
#
# number of rings (size 3 to 8) (size 9 to 14) (size 15 to 20)
#    0.000    2.500    0.000    0.750   21.000    0.000 
#    0.000    0.000    0.000    3.000    0.000    0.000 
#    0.000    0.000    0.000    0.000    0.000    0.000 
#
# Total GULP energy -89152.020921 kJ/mol
# GULP energy per Si atom -5572.001308 kJ/mol
# Density = 2.032313 g / cm^3
# Si number density = 20.369490 Si / 1000 Ang^3
#
#
#
# Elastic Constant Matrix: (Units=GPa)
#
#
# Indices 1 2 3 4 5 6 
#
# 1 98.3286 57.5976 28.8923 0.0000 5.8814 0.0000
# 2 57.5976 180.6460 40.8505 0.0000 22.2732 0.0000
# 3 28.8923 40.8505 48.5231 0.0000 7.9998 0.0000
# 4 0.0000 0.0000 0.0000 11.4875 0.0000 6.1607
# 5 5.8814 22.2732 7.9998 0.0000 20.5933 0.0000
# 6 0.0000 0.0000 0.0000 6.1607 0.0000 24.4401
#
#
#
# Elastic Compliance Matrix: (Units=1/GPa)
#
#
# Indices 1 2 3 4 5 6 
#
# 1 0.013657 -0.003306 -0.005657 0.000000 0.001873 0.000000
# 2 -0.003306 0.008278 -0.003932 0.000000 -0.006482 0.000000
# 3 -0.005657 -0.003932 0.028121 0.000000 -0.005056 0.000000
# 4 0.000000 0.000000 0.000000 0.100659 0.000000 -0.025373
# 5 0.001873 -0.006482 -0.005056 0.000000 0.056999 0.000000
# 6 0.000000 0.000000 0.000000 -0.025373 0.000000 0.047312
#
#
# Mechanical properties :
#
#
# Convention : Reuss Voigt Hill
#
# Bulk Modulus (GPa) = 41.21098 64.68651 52.94875
# Shear Modulus (GPa) = 17.30669 24.64799 20.97734
#
# Velocity S-wave (km/s) = 2.91802 3.48234 3.21260
# Velocity P-wave (km/s) = 5.62394 6.92780 6.30964
#
# Compressibility (1/GPa) = 0.02426537
#
# Stress axis : x y z
#
# Youngs Moduli (GPa) = 73.22362 120.79995 35.56048
#
# Poissons Ratio (x) = 0.39936 0.20118
# Poissons Ratio (y) = 0.24208 0.13983
# Poissons Ratio (z) = 0.41425 0.47499
#
# Static dielectric constant tensor:
#      x y z
#    x 1.740220 0.000000 0.001000 
#    y 0.000000 1.869840 0.000000 
#    z 0.001000 0.000000 1.767630 
# 
# From -- ./inp_files/45749.got.cif
#   From: 2010.05.17/outbox.cif.g08.bks.cpg/sg15_23_cif.got.tgz:45749.got - 2010.06.03 18:47:42.
