data_PCOD9269073
_publ_section_title
;
Structure prediction by ZEFSAII (Michael W. Deem and Ramdas Pophale) SiO2 
 PCOD9269073
Probable space group: C 2/C
;
_chemical_formula_sum "Si O2"
_cell_formula_units_Z 52
_cell_length_a 29.432562
_cell_length_b 11.302706
_cell_length_c 8.804064
_cell_angle_alpha 90.000000
_cell_angle_beta 107.092698
_cell_angle_gamma 90.000000
_cell_volume 2799.461926
_symmetry_space_group_name_H-M "C 2/C"
_symmetry_group_IT_number 15
_symmetry_cell_setting 'monoclinic'
loop_
_space_group_symop_operation_xyz
x,y,z
-x,y,1/2-z
-x,-y,-z
x,-y,1/2+z
1/2+x,1/2+y,z
1/2-x,1/2+y,1/2-z
1/2-x,1/2-y,-z
1/2+x,1/2-y,1/2+z
loop_
_atom_site_type_symbol
_atom_site_label
_atom_site_fract_x
_atom_site_fract_y
_atom_site_fract_z
Si Si1 0.734400 0.725431 0.242961
Si Si2 0.210354 0.586474 0.956950
Si Si3 0.500000 0.925062 0.250000
Si Si4 0.811962 0.013565 0.465282
Si Si5 0.064959 0.566312 0.556985
Si Si6 0.325726 0.667353 0.738697
Si Si7 0.373835 0.900865 0.660625
O O1 0.775435 0.654197 0.375749
O O2 0.705740 0.813350 0.324004
O O3 0.697985 0.629357 0.145960
O O4 0.768750 0.803693 0.169411
O O5 0.258750 0.521383 0.960583
O O6 0.167507 0.495463 0.920022
O O7 0.463978 0.864855 0.337318
O O8 0.530350 0.004168 0.398637
O O9 0.838979 0.063126 0.635663
O O10 0.832384 0.896788 0.406468
O O11 0.092603 0.466839 0.683204
O O12 0.100928 0.629668 0.475444
O O13 0.353170 0.784440 0.719391
#
# Coordination Sequence:
#
# PCOD9269073 Si02
#       7
#     8   8   4   8   8   8   8
#     4  10  20  34  48  65  94 154 193 236 252 305
#     4  10  21  32  48  72 106 136 197 227 266 290
#     4   8  16  38  56  78 116 140 146 190 242 384
#     4  11  21  36  48  66  95 162 194 227 258 299
#     4   9  19  33  57  83 113 135 160 188 277 324
#     4  11  23  34  50  67 104 138 202 230 265 294
#     4  11  21  32  51  85 108 137 165 235 257 311
#
# _framework density 18.574998000000001
#
# number of rings (size 3 to 8) (size 9 to 14) (size 15 to 20)
#    0.000    1.846    3.077    1.385    2.154    0.000 
#    0.000    0.000    0.000    0.000    0.000    0.000 
#    0.000   61.538    0.000    0.000    0.000    0.000 
#
# Total GULP energy -144752.780468 kJ/mol
# GULP energy per Si atom -5567.414633 kJ/mol
# Density = 1.853272 g / cm^3
# Si number density = 18.574998 Si / 1000 Ang^3
#
#
#
# Elastic Constant Matrix: (Units=GPa)
#
#
# Indices 1 2 3 4 5 6 
#
# 1 75.8855 15.1404 29.5594 0.0000 -27.4901 0.0000
# 2 15.1404 36.2406 10.5963 0.0000 -10.7671 0.0000
# 3 29.5594 10.5963 62.9545 0.0000 -14.2972 0.0000
# 4 0.0000 0.0000 0.0000 31.2877 0.0000 -14.0295
# 5 -27.4901 -10.7671 -14.2972 0.0000 30.7469 0.0000
# 6 0.0000 0.0000 0.0000 -14.0295 0.0000 6.1240
#
#
#
# Elastic Compliance Matrix: (Units=1/GPa)
#
#
# Indices 1 2 3 4 5 6 
#
# 1 0.021813 -0.002630 -0.006238 0.000000 0.015681 0.000000
# 2 -0.002630 0.031650 -0.002358 0.000000 0.007635 0.000000
# 3 -0.006238 -0.002358 0.019853 0.000000 0.002828 0.000000
# 4 0.000000 0.000000 0.000000 -1.173481 0.000000 -2.688310
# 5 0.015681 0.007635 0.002828 0.000000 0.050532 0.000000
# 6 0.000000 0.000000 0.000000 -2.688310 0.000000 -5.995317
#
#
# Mechanical properties :
#
#
# Convention : Reuss Voigt Hill
#
# Bulk Modulus (GPa) = 19.66082 31.74142 25.70112
# Shear Modulus (GPa) = -0.71372 21.61737 10.45183
#
# Velocity S-wave (km/s) = -0.62054 3.41514 2.37467
# Velocity P-wave (km/s) = 3.17712 5.71631 4.62441
#
# Compressibility (1/GPa) = 0.05086258
#
# Stress axis : x y z
#
# Youngs Moduli (GPa) = 45.84458 31.59545 50.37086
#
# Poissons Ratio (x) = 0.08310 0.31422
# Poissons Ratio (y) = 0.12058 0.11879
# Poissons Ratio (z) = 0.28598 0.07451
#
# Static dielectric constant tensor:
#      x y z
#    x 1.753140 0.000000 -0.080200 
#    y 0.000000 1.684660 0.000000 
#    z -0.080200 0.000000 1.756820 
# 
# From -- ./inp_files/65217.got.cif
#   From: 2010.05.17/outbox.cif.g08.bks.cpg/sg15_33_cif.got.tgz:65217.got - 2010.06.03 18:47:42.
