data_PCOD9269820
_publ_section_title
;
Structure prediction by ZEFSAII (Michael W. Deem and Ramdas Pophale) SiO2 
 PCOD9269820
Probable space group: C 2/C
;
_chemical_formula_sum "Si O2"
_cell_formula_units_Z 60
_cell_length_a 21.876045
_cell_length_b 8.931042
_cell_length_c 24.341044
_cell_angle_alpha 90.000000
_cell_angle_beta 146.486109
_cell_angle_gamma 90.000000
_cell_volume 2625.782051
_symmetry_space_group_name_H-M "C 2/C"
_symmetry_group_IT_number 15
_symmetry_cell_setting 'monoclinic'
loop_
_space_group_symop_operation_xyz
x,y,z
-x,y,1/2-z
-x,-y,-z
x,-y,1/2+z
1/2+x,1/2+y,z
1/2-x,1/2+y,1/2-z
1/2-x,1/2-y,-z
1/2+x,1/2-y,1/2+z
loop_
_atom_site_type_symbol
_atom_site_label
_atom_site_fract_x
_atom_site_fract_y
_atom_site_fract_z
Si Si1 0.213600 0.471421 0.872177
Si Si2 0.669836 0.080493 0.723619
Si Si3 0.883901 0.039829 0.708603
Si Si4 0.586020 0.091791 0.949328
Si Si5 0.000000 0.288953 0.750000
Si Si6 0.377678 0.240819 0.638191
Si Si7 0.313248 0.781509 0.490387
Si Si8 0.767158 0.384783 0.830992
O O1 0.199697 0.472135 0.796809
O O2 0.204405 0.640159 0.887111
O O3 0.323855 0.383606 0.973008
O O4 0.105632 0.393037 0.819659
O O5 0.542167 0.124354 0.636978
O O6 0.747613 0.224449 0.789136
O O7 0.685202 0.999010 0.677644
O O8 0.876203 0.916511 0.653191
O O9 0.853394 0.944006 0.738621
O O10 0.985161 0.158684 0.786215
O O11 0.778294 0.144187 0.618404
O O12 0.630250 0.188057 0.930631
O O13 0.653645 0.118606 0.056119
O O14 0.597947 0.914578 0.941048
O O15 0.500000 0.196873 0.750000
O O16 0.250000 0.750000 0.500000
#
# Coordination Sequence:
#
# PCOD9269820 Si02
#       8
#     8   8   8   8   4   8   8   8
#     4  11  21  38  66  98 135 180 233 278 358 417
#     4  12  26  48  75  93 143 193 244 286 352 426
#     4  10  22  37  62  97 142 167 228 284 352 415
#     4  11  24  44  74 101 144 182 240 292 365 427
#     4  10  20  34  62 100 132 168 220 290 342 418
#     4  12  19  38  68 103 137 183 221 285 364 425
#     4  10  22  37  60 101 139 173 220 289 354 420
#     4  11  27  47  69 102 136 198 238 298 344 419
#
# _framework density 22.850334
#
# number of rings (size 3 to 8) (size 9 to 14) (size 15 to 20)
#    0.000    1.067    5.333    0.400    7.467    3.200 
#    0.000    0.667    0.000    0.000    0.000    0.000 
#    0.000    0.000    0.000    0.000    0.000    0.000 
#
# Total GULP energy -167338.874701 kJ/mol
# GULP energy per Si atom -5577.962490 kJ/mol
# Density = 2.279833 g / cm^3
# Si number density = 22.850334 Si / 1000 Ang^3
#
#
#
# Elastic Constant Matrix: (Units=GPa)
#
#
# Indices 1 2 3 4 5 6 
#
# 1 84.4856 11.0870 14.4482 0.0000 -30.2629 0.0000
# 2 11.0870 77.0484 7.9715 0.0000 0.2680 0.0000
# 3 14.4482 7.9715 51.2620 0.0000 -25.7527 0.0000
# 4 0.0000 0.0000 0.0000 33.9494 0.0000 -0.1822
# 5 -30.2629 0.2680 -25.7527 0.0000 33.4781 0.0000
# 6 0.0000 0.0000 0.0000 -0.1822 0.0000 33.5504
#
#
#
# Elastic Compliance Matrix: (Units=1/GPa)
#
#
# Indices 1 2 3 4 5 6 
#
# 1 0.019168 -0.003486 0.006288 0.000000 0.022192 0.000000
# 2 -0.003486 0.013982 -0.004614 0.000000 -0.006812 0.000000
# 3 0.006288 -0.004614 0.034760 0.000000 0.032460 0.000000
# 4 0.000000 0.000000 0.000000 0.029456 0.000000 0.000160
# 5 0.022192 -0.006812 0.032460 0.000000 0.074955 0.000000
# 6 0.000000 0.000000 0.000000 0.000160 0.000000 0.029807
#
#
# Mechanical properties :
#
#
# Convention : Reuss Voigt Hill
#
# Bulk Modulus (GPa) = 15.55559 31.08994 23.32276
# Shear Modulus (GPa) = 22.00907 32.14820 27.07864
#
# Velocity S-wave (km/s) = 3.10689 3.75494 3.44618
# Velocity P-wave (km/s) = 4.43765 5.69516 5.10527
#
# Compressibility (1/GPa) = 0.06428559
#
# Stress axis : x y z
#
# Youngs Moduli (GPa) = 52.17136 71.52290 28.76885
#
# Poissons Ratio (x) = 0.24933 -0.18091
# Poissons Ratio (y) = 0.18187 0.13274
# Poissons Ratio (z) = -0.32807 0.33001
#
# Static dielectric constant tensor:
#      x y z
#    x 1.869970 0.000000 0.027550 
#    y 0.000000 1.936850 0.000000 
#    z 0.027550 0.000000 1.934230 
# 
# From -- ./inp_files/279719.got.cif
#   From: 2010.05.17/outbox.cif.g08.bks.cpg/sg15_140_cif.got.tgz:279719.got - 2010.06.03 18:47:42.
