data_PCOD9269206
_publ_section_title
;
Structure prediction by ZEFSAII (Michael W. Deem and Ramdas Pophale) SiO2 
 PCOD9269206
Probable space group: C 2/C
;
_chemical_formula_sum "Si O2"
_cell_formula_units_Z 44
_cell_length_a 22.734637
_cell_length_b 19.582590
_cell_length_c 12.057397
_cell_angle_alpha 90.000000
_cell_angle_beta 157.275686
_cell_angle_gamma 90.000000
_cell_volume 2073.641178
_symmetry_space_group_name_H-M "C 2/C"
_symmetry_group_IT_number 15
_symmetry_cell_setting 'monoclinic'
loop_
_space_group_symop_operation_xyz
x,y,z
-x,y,1/2-z
-x,-y,-z
x,-y,1/2+z
1/2+x,1/2+y,z
1/2-x,1/2+y,1/2-z
1/2-x,1/2-y,-z
1/2+x,1/2-y,1/2+z
loop_
_atom_site_type_symbol
_atom_site_label
_atom_site_fract_x
_atom_site_fract_y
_atom_site_fract_z
Si Si1 0.296971 0.429020 0.341572
Si Si2 0.000000 0.368094 0.750000
Si Si3 0.086538 0.837603 0.145790
Si Si4 0.409466 0.819082 0.821278
Si Si5 0.108160 0.562011 0.730144
Si Si6 0.118084 0.952107 0.636010
O O1 0.400362 0.375457 0.451977
O O2 0.236039 0.419484 0.359081
O O3 0.360003 0.505161 0.437996
O O4 0.143324 0.417034 0.004407
O O5 0.006553 0.322484 0.652348
O O6 0.237909 0.840573 0.487829
O O7 0.073909 0.756915 0.104547
O O8 0.954457 0.877260 0.982381
O O9 0.493408 0.874732 0.041837
O O10 0.000000 0.500000 0.500000
O O11 0.214692 0.548069 0.019209
O O12 0.000000 0.000000 0.500000
#
# Coordination Sequence:
#
# PCOD9269206 Si02
#       6
#     8   4   8   8   8   8
#     4   9  18  34  54  77 107 140 174 218 266 309
#     4   8  14  30  54  74 100 140 180 216 256 310
#     4   9  18  34  53  76 108 139 171 218 264 308
#     4   9  18  34  54  76 105 142 179 214 260 316
#     4  11  21  35  58  80 103 143 183 215 262 318
#     4  10  20  34  53  80 109 137 175 223 264 309
#
# _framework density 21.218713999999999
#
# number of rings (size 3 to 8) (size 9 to 14) (size 15 to 20)
#    0.000    2.545    0.000    4.364    0.000    3.636 
#    0.000   10.909    0.000    2.182    0.000    0.000 
#    0.000    0.000    0.000    0.000    0.000    0.000 
#
# Total GULP energy -122482.017024 kJ/mol
# GULP energy per Si atom -5567.364410 kJ/mol
# Density = 2.117042 g / cm^3
# Si number density = 21.218714 Si / 1000 Ang^3
#
#
#
# Elastic Constant Matrix: (Units=GPa)
#
#
# Indices 1 2 3 4 5 6 
#
# 1 26.8600 16.1576 -1.9273 0.0000 0.3093 0.0000
# 2 16.1576 96.4207 59.7437 0.0000 -4.6733 0.0000
# 3 -1.9273 59.7437 109.1947 0.0000 -2.4677 0.0000
# 4 0.0000 0.0000 0.0000 30.1998 0.0000 7.2141
# 5 0.3093 -4.6733 -2.4677 0.0000 20.3477 0.0000
# 6 0.0000 0.0000 0.0000 7.2141 0.0000 9.4838
#
#
#
# Elastic Compliance Matrix: (Units=1/GPa)
#
#
# Indices 1 2 3 4 5 6 
#
# 1 0.045228 -0.012351 0.007497 0.000000 -0.002615 0.000000
# 2 -0.012351 0.019198 -0.010647 0.000000 0.003306 0.000000
# 3 0.007497 -0.010647 0.015099 0.000000 -0.000728 0.000000
# 4 0.000000 0.000000 0.000000 0.040466 0.000000 -0.030782
# 5 -0.002615 0.003306 -0.000728 0.000000 0.049856 0.000000
# 6 0.000000 0.000000 0.000000 -0.030782 0.000000 0.128858
#
#
# Mechanical properties :
#
#
# Convention : Reuss Voigt Hill
#
# Bulk Modulus (GPa) = 20.60897 42.26927 31.43912
# Shear Modulus (GPa) = 14.45578 22.57301 18.51440
#
# Velocity S-wave (km/s) = 2.61296 3.26517 2.95710
# Velocity P-wave (km/s) = 4.34017 5.84629 5.14860
#
# Compressibility (1/GPa) = 0.04852255
#
# Stress axis : x y z
#
# Youngs Moduli (GPa) = 22.11032 52.08780 66.22830
#
# Poissons Ratio (x) = 0.64333 -0.49649
# Poissons Ratio (y) = 0.27308 0.70515
# Poissons Ratio (z) = -0.16575 0.55459
#
# Static dielectric constant tensor:
#      x y z
#    x 1.828060 0.000000 0.007880 
#    y 0.000000 1.541810 0.000000 
#    z 0.007880 0.000000 1.827820 
# 
# From -- ./inp_files/134576.got.cif
#   From: 2010.05.17/outbox.cif.g08.bks.cpg/sg15_68_cif.got.tgz:134576.got - 2010.06.03 18:47:42.
