data_PCOD9269840
_publ_section_title
;
Structure prediction by ZEFSAII (Michael W. Deem and Ramdas Pophale) SiO2 
 PCOD9269840
Probable space group: C 2/C
;
_chemical_formula_sum "Si O2"
_cell_formula_units_Z 36
_cell_length_a 11.299816
_cell_length_b 18.723994
_cell_length_c 7.478848
_cell_angle_alpha 90.000000
_cell_angle_beta 73.813210
_cell_angle_gamma 90.000000
_cell_volume 1519.629525
_symmetry_space_group_name_H-M "C 2/C"
_symmetry_group_IT_number 15
_symmetry_cell_setting 'monoclinic'
loop_
_space_group_symop_operation_xyz
x,y,z
-x,y,1/2-z
-x,-y,-z
x,-y,1/2+z
1/2+x,1/2+y,z
1/2-x,1/2+y,1/2-z
1/2-x,1/2-y,-z
1/2+x,1/2-y,1/2+z
loop_
_atom_site_type_symbol
_atom_site_label
_atom_site_fract_x
_atom_site_fract_y
_atom_site_fract_z
Si Si1 0.809329 0.285249 0.650541
Si Si2 0.257193 0.525655 0.793705
Si Si3 0.364065 0.603367 0.082086
Si Si4 0.500000 0.315604 0.250000
Si Si5 0.606184 0.081627 0.560351
O O1 0.750000 0.250000 0.500000
O O2 0.704429 0.332319 0.790170
O O3 0.905762 0.343710 0.534730
O O4 0.881307 0.232907 0.754170
O O5 0.363112 0.467161 0.706267
O O6 0.227632 0.573181 0.634106
O O7 0.283373 0.575484 0.949148
O O8 0.137561 0.477683 0.897994
O O9 0.481744 0.635148 0.932921
O O10 0.500000 0.074985 0.750000
#
# Coordination Sequence:
#
# PCOD9269840 Si02
#       5
#     8   8   8   4   8
#     4  11  26  42  63  96 136 174 215 270 317 393
#     4   9  20  41  62  92 133 161 214 289 321 368
#     4  10  23  43  66  95 131 168 220 274 327 380
#     4  12  26  42  70  94 132 184 216 258 328 406
#     4  10  20  34  62  91 124 171 217 267 328 383
#
# _framework density 23.689985
#
# number of rings (size 3 to 8) (size 9 to 14) (size 15 to 20)
#    0.000    1.778    0.000    2.667    6.222    0.889 
#    4.000    0.000    0.000    0.000    0.000    0.000 
#    0.000    0.000    0.000    0.000    0.000    0.000 
#
# Total GULP energy -100507.455791 kJ/mol
# GULP energy per Si atom -5583.747544 kJ/mol
# Density = 2.363607 g / cm^3
# Si number density = 23.689985 Si / 1000 Ang^3
#
#
#
# Elastic Constant Matrix: (Units=GPa)
#
#
# Indices 1 2 3 4 5 6 
#
# 1 38.1399 20.1787 10.3147 0.0000 -4.4885 0.0000
# 2 20.1787 96.4061 39.2575 0.0000 -3.6797 0.0000
# 3 10.3147 39.2575 119.5564 0.0000 -7.4751 0.0000
# 4 0.0000 0.0000 0.0000 58.1794 0.0000 12.4506
# 5 -4.4885 -3.6797 -7.4751 0.0000 27.1057 0.0000
# 6 0.0000 0.0000 0.0000 12.4506 0.0000 -2.4963
#
#
#
# Elastic Compliance Matrix: (Units=1/GPa)
#
#
# Indices 1 2 3 4 5 6 
#
# 1 0.029951 -0.005963 -0.000373 0.000000 0.004047 0.000000
# 2 -0.005963 0.013169 -0.003826 0.000000 -0.000255 0.000000
# 3 -0.000373 -0.003826 0.009785 0.000000 0.002117 0.000000
# 4 0.000000 0.000000 0.000000 0.008314 0.000000 0.041468
# 5 0.004047 -0.000255 0.002117 0.000000 0.038112 0.000000
# 6 0.000000 0.000000 0.000000 0.041468 0.000000 -0.193770
#
#
# Mechanical properties :
#
#
# Convention : Reuss Voigt Hill
#
# Bulk Modulus (GPa) = 30.69144 43.73378 37.21261
# Shear Modulus (GPa) = -79.04444 28.84786 -25.09829
#
# Velocity S-wave (km/s) = -5.78261 3.49338 -3.25845
# Velocity P-wave (km/s) = 5.62150 5.89682 1.25922
#
# Compressibility (1/GPa) = 0.03258238
#
# Stress axis : x y z
#
# Youngs Moduli (GPa) = 33.38769 75.93622 102.19711
#
# Poissons Ratio (x) = 0.45278 0.03813
# Poissons Ratio (y) = 0.19908 0.39097
# Poissons Ratio (z) = 0.01246 0.29051
#
# Static dielectric constant tensor:
#      x y z
#    x 1.957840 0.000000 -0.023900 
#    y 0.000000 1.933370 0.000000 
#    z -0.023900 0.000000 1.931390 
# 
# From -- ./inp_files/28710.got.cif
#   From: 2010.05.17/outbox.cif.g08.bks.cpg/sg15_15_cif.got.tgz:28710.got - 2010.06.03 18:47:42.
