data_PCOD9269965
_publ_section_title
;
Structure prediction by ZEFSAII (Michael W. Deem and Ramdas Pophale) SiO2 
 PCOD9269965
Probable space group: C 2/C
;
_chemical_formula_sum "Si O2"
_cell_formula_units_Z 56
_cell_length_a 18.810632
_cell_length_b 22.729056
_cell_length_c 15.900052
_cell_angle_alpha 90.000000
_cell_angle_beta 152.650609
_cell_angle_gamma 90.000000
_cell_volume 3123.121521
_symmetry_space_group_name_H-M "C 2/C"
_symmetry_group_IT_number 15
_symmetry_cell_setting 'monoclinic'
loop_
_space_group_symop_operation_xyz
x,y,z
-x,y,1/2-z
-x,-y,-z
x,-y,1/2+z
1/2+x,1/2+y,z
1/2-x,1/2+y,1/2-z
1/2-x,1/2-y,-z
1/2+x,1/2-y,1/2+z
loop_
_atom_site_type_symbol
_atom_site_label
_atom_site_fract_x
_atom_site_fract_y
_atom_site_fract_z
Si Si1 0.500000 0.916338 0.750000
Si Si2 0.018527 0.433882 0.060370
Si Si3 0.280029 0.728565 0.435084
Si Si4 0.354352 0.534677 0.952051
Si Si5 0.000000 0.143175 0.750000
Si Si6 0.183371 0.956004 0.755015
Si Si7 0.459231 0.166279 0.055537
Si Si8 0.804764 0.032729 0.565762
O O1 0.565113 0.874156 0.888933
O O2 0.368426 0.956744 0.649506
O O3 0.185763 0.435269 0.282486
O O4 0.000000 0.500000 0.000000
O O5 0.849790 0.423614 0.926002
O O6 0.040262 0.380116 0.018789
O O7 0.250000 0.750000 0.500000
O O8 0.421677 0.683134 0.596796
O O9 0.334476 0.781669 0.432975
O O10 0.127977 0.696074 0.242739
O O11 0.337466 0.488645 0.856735
O O12 0.512017 0.570905 0.095404
O O13 0.382815 0.500698 0.069481
O O14 0.125873 0.097488 0.849017
O O15 0.203957 0.001122 0.854136
#
# Coordination Sequence:
#
# PCOD9269965 Si02
#       8
#     4   8   8   8   4   8   8   8
#     4  12  19  28  56  72 110 160 200 245 278 330
#     4  10  22  38  54  79 111 153 202 253 299 346
#     4  12  22  38  52  81 119 165 211 244 282 360
#     4  10  20  35  52  80 118 153 206 246 299 367
#     4  12  21  32  56  80 120 162 200 239 276 360
#     4  10  20  35  52  79 118 156 201 247 306 359
#     4  12  23  39  53  80 120 159 210 253 289 355
#     4  12  21  34  55  88 119 164 206 242 302 365
#
# _framework density 17.930779000000001
#
# number of rings (size 3 to 8) (size 9 to 14) (size 15 to 20)
#    0.000    0.857    5.714    4.286    0.000    0.000 
#    2.571    0.000    0.000    0.000    0.000    0.000 
#    0.000    4.571    0.000    0.000    0.000    0.000 
#
# Total GULP energy -155908.415164 kJ/mol
# GULP energy per Si atom -5568.157684 kJ/mol
# Density = 1.788997 g / cm^3
# Si number density = 17.930779 Si / 1000 Ang^3
#
#
#
# Elastic Constant Matrix: (Units=GPa)
#
#
# Indices 1 2 3 4 5 6 
#
# 1 97.3224 44.9595 39.6245 0.0000 10.6525 0.0000
# 2 44.9595 74.6684 31.5653 0.0000 -3.4441 0.0000
# 3 39.6245 31.5653 97.0278 0.0000 24.8607 0.0000
# 4 0.0000 0.0000 0.0000 41.8561 0.0000 23.3626
# 5 10.6525 -3.4441 24.8607 0.0000 44.8866 0.0000
# 6 0.0000 0.0000 0.0000 23.3626 0.0000 64.0750
#
#
#
# Elastic Compliance Matrix: (Units=1/GPa)
#
#
# Indices 1 2 3 4 5 6 
#
# 1 0.015600 -0.008247 -0.003003 0.000000 -0.002671 0.000000
# 2 -0.008247 0.020767 -0.005009 0.000000 0.006325 0.000000
# 3 -0.003003 -0.005009 0.015241 0.000000 -0.008113 0.000000
# 4 0.000000 0.000000 0.000000 0.029996 0.000000 -0.010937
# 5 -0.002671 0.006325 -0.008113 0.000000 0.027891 0.000000
# 6 0.000000 0.000000 0.000000 -0.010937 0.000000 0.019594
#
#
# Mechanical properties :
#
#
# Convention : Reuss Voigt Hill
#
# Bulk Modulus (GPa) = 52.38211 55.70191 54.04201
# Shear Modulus (GPa) = 29.76702 40.35481 35.06092
#
# Velocity S-wave (km/s) = 4.07886 4.74918 4.42673
# Velocity P-wave (km/s) = 7.17355 7.82339 7.50550
#
# Compressibility (1/GPa) = 0.01909049
#
# Stress axis : x y z
#
# Youngs Moduli (GPa) = 64.10237 48.15292 65.61219
#
# Poissons Ratio (x) = 0.39710 0.19707
# Poissons Ratio (y) = 0.52863 0.32864
# Poissons Ratio (z) = 0.19253 0.24119
#
# Static dielectric constant tensor:
#      x y z
#    x 1.660960 0.000000 0.067650 
#    y 0.000000 1.598170 0.000000 
#    z 0.067650 0.000000 1.744600 
# 
# From -- ./inp_files/163845.got.cif
#   From: 2010.05.17/outbox.cif.g08.bks.cpg/sg15_82_cif.got.tgz:163845.got - 2010.06.03 18:47:42.
