data_PCOD9269097
_publ_section_title
;
Structure prediction by ZEFSAII (Michael W. Deem and Ramdas Pophale) SiO2 
 PCOD9269097
Probable space group: C 2/C
;
_chemical_formula_sum "Si O2"
_cell_formula_units_Z 44
_cell_length_a 12.948861
_cell_length_b 21.631440
_cell_length_c 8.431975
_cell_angle_alpha 90.000000
_cell_angle_beta 69.567660
_cell_angle_gamma 90.000000
_cell_volume 2213.223839
_symmetry_space_group_name_H-M "C 2/C"
_symmetry_group_IT_number 15
_symmetry_cell_setting 'monoclinic'
loop_
_space_group_symop_operation_xyz
x,y,z
-x,y,1/2-z
-x,-y,-z
x,-y,1/2+z
1/2+x,1/2+y,z
1/2-x,1/2+y,1/2-z
1/2-x,1/2-y,-z
1/2+x,1/2-y,1/2+z
loop_
_atom_site_type_symbol
_atom_site_label
_atom_site_fract_x
_atom_site_fract_y
_atom_site_fract_z
Si Si1 0.154844 0.243050 0.419726
Si Si2 0.090390 0.082884 0.974503
Si Si3 0.734375 0.183936 0.595960
Si Si4 0.200552 0.638985 0.288487
Si Si5 0.000000 0.286858 0.750000
Si Si6 0.641565 0.456793 0.808640
O O1 0.250000 0.250000 0.500000
O O2 0.165732 0.299095 0.288936
O O3 0.190669 0.181618 0.306411
O O4 0.042958 0.246424 0.578879
O O5 0.152515 0.148087 0.919182
O O6 0.136648 0.029848 0.835186
O O7 0.119336 0.061230 0.138200
O O8 0.958224 0.074875 0.038100
O O9 0.750000 0.250000 0.500000
O O10 0.679230 0.142805 0.488251
O O11 0.099526 0.669950 0.253785
O O12 0.240634 0.572249 0.212305
#
# Coordination Sequence:
#
# PCOD9269097 Si02
#       6
#     8   8   8   8   4   8
#     4   9  19  33  50  75 104 137 179 223 272 325
#     4   9  18  33  54  80 109 137 176 225 278 333
#     4   9  18  34  55  80 107 142 183 226 277 335
#     4   9  19  34  52  75 105 141 181 222 270 329
#     4  10  20  34  50  74 108 142 180 228 272 320
#     4   9  18  32  52  80 107 138 174 221 278 331
#
# _framework density 19.880500999999999
#
# number of rings (size 3 to 8) (size 9 to 14) (size 15 to 20)
#    0.000    2.909    0.000    0.000    0.000    8.000 
#    0.000    9.091    0.000    9.818    0.000    0.000 
#    0.000    0.000    0.000    0.000    0.000    0.000 
#
# Total GULP energy -122474.632412 kJ/mol
# GULP energy per Si atom -5567.028746 kJ/mol
# Density = 1.983525 g / cm^3
# Si number density = 19.880501 Si / 1000 Ang^3
#
#
#
# Elastic Constant Matrix: (Units=GPa)
#
#
# Indices 1 2 3 4 5 6 
#
# 1 59.6907 27.9057 15.1193 0.0000 -12.3850 0.0000
# 2 27.9057 73.4249 30.1320 0.0000 -14.9539 0.0000
# 3 15.1193 30.1320 111.9717 0.0000 -10.2524 0.0000
# 4 0.0000 0.0000 0.0000 23.4419 0.0000 -7.6400
# 5 -12.3850 -14.9539 -10.2524 0.0000 16.0515 0.0000
# 6 0.0000 0.0000 0.0000 -7.6400 0.0000 33.9205
#
#
#
# Elastic Compliance Matrix: (Units=1/GPa)
#
#
# Indices 1 2 3 4 5 6 
#
# 1 0.021926 -0.005913 -0.000345 0.000000 0.011189 0.000000
# 2 -0.005913 0.019620 -0.003426 0.000000 0.011528 0.000000
# 3 -0.000345 -0.003426 0.010178 0.000000 0.003043 0.000000
# 4 0.000000 0.000000 0.000000 0.046038 0.000000 0.010369
# 5 0.011189 0.011528 0.003043 0.000000 0.083616 0.000000
# 6 0.000000 0.000000 0.000000 0.010369 0.000000 0.031816
#
#
# Mechanical properties :
#
#
# Convention : Reuss Voigt Hill
#
# Bulk Modulus (GPa) = 30.90529 43.48903 37.19716
# Shear Modulus (GPa) = 20.54667 26.14480 23.34573
#
# Velocity S-wave (km/s) = 3.21831 3.63036 3.43053
# Velocity P-wave (km/s) = 5.42119 6.28454 5.86876
#
# Compressibility (1/GPa) = 0.03235692
#
# Stress axis : x y z
#
# Youngs Moduli (GPa) = 45.60750 50.96721 98.25131
#
# Poissons Ratio (x) = 0.30136 0.03390
# Poissons Ratio (y) = 0.26967 0.33661
# Poissons Ratio (z) = 0.01573 0.17461
#
# Static dielectric constant tensor:
#      x y z
#    x 1.729370 0.000000 -0.002500 
#    y 0.000000 1.773350 0.000000 
#    z -0.002500 0.000000 1.768550 
# 
# From -- ./inp_files/40608.got.cif
#   From: 2010.05.17/outbox.cif.g08.bks.cpg/sg15_21_cif.got.tgz:40608.got - 2010.06.03 18:47:42.
