data_PCOD9269830
_publ_section_title
;
Structure prediction by ZEFSAII (Michael W. Deem and Ramdas Pophale) SiO2 
 PCOD9269830
Probable space group: C 2/C
;
_chemical_formula_sum "Si O2"
_cell_formula_units_Z 64
_cell_length_a 17.345594
_cell_length_b 9.459368
_cell_length_c 19.176359
_cell_angle_alpha 90.000000
_cell_angle_beta 96.851404
_cell_angle_gamma 90.000000
_cell_volume 3123.956473
_symmetry_space_group_name_H-M "C 2/C"
_symmetry_group_IT_number 15
_symmetry_cell_setting 'monoclinic'
loop_
_space_group_symop_operation_xyz
x,y,z
-x,y,1/2-z
-x,-y,-z
x,-y,1/2+z
1/2+x,1/2+y,z
1/2-x,1/2+y,1/2-z
1/2-x,1/2-y,-z
1/2+x,1/2-y,1/2+z
loop_
_atom_site_type_symbol
_atom_site_label
_atom_site_fract_x
_atom_site_fract_y
_atom_site_fract_z
Si Si1 0.063191 0.406306 0.583756
Si Si2 0.355753 0.832884 0.763238
Si Si3 0.627479 0.328186 0.001878
Si Si4 0.186946 0.645914 0.583939
Si Si5 0.735783 0.111883 0.742705
Si Si6 0.850575 0.126443 0.532194
Si Si7 0.598735 0.104734 0.382287
Si Si8 0.212263 0.357723 0.398667
O O1 0.097679 0.350101 0.660751
O O2 0.066461 0.276511 0.530569
O O3 0.120716 0.529370 0.564924
O O4 0.977586 0.460518 0.591578
O O5 0.322127 0.676090 0.748459
O O6 0.404306 0.881789 0.701400
O O7 0.283100 0.944336 0.759312
O O8 0.699990 0.346308 0.063837
O O9 0.603015 0.484959 0.978697
O O10 0.662797 0.252431 0.937824
O O11 0.195162 0.666870 0.667784
O O12 0.168302 0.788338 0.540556
O O13 0.268898 0.590496 0.561887
O O14 0.707163 0.165029 0.815233
O O15 0.891824 0.239698 0.585730
O O16 0.674433 0.011550 0.407482
#
# Coordination Sequence:
#
# PCOD9269830 Si02
#       8
#     8   8   8   8   8   8   8   8
#     4  11  23  40  62  89 123 160 195 244 302 357
#     4  10  21  38  62  94 117 150 198 248 293 360
#     4  11  22  36  59  87 122 157 204 248 290 346
#     4  10  21  38  59  88 118 158 203 246 291 357
#     4  10  20  34  62  88 116 152 200 244 300 344
#     4  11  22  36  59  87 122 157 204 248 290 346
#     4  11  23  40  62  89 123 160 195 244 302 357
#     4  10  21  38  59  88 118 158 203 246 291 357
#
# _framework density 20.486841999999999
#
# number of rings (size 3 to 8) (size 9 to 14) (size 15 to 20)
#    0.000    1.500    2.500    4.125    3.500    2.500 
#    0.000    0.000    0.000    0.000    0.000    5.250 
#    0.000    0.000    0.000    0.000    0.000    0.000 
#
# Total GULP energy -178760.778460 kJ/mol
# GULP energy per Si atom -5586.274327 kJ/mol
# Density = 2.044021 g / cm^3
# Si number density = 20.486842 Si / 1000 Ang^3
#
#
#
# Elastic Constant Matrix: (Units=GPa)
#
#
# Indices 1 2 3 4 5 6 
#
# 1 53.0847 5.3961 3.3970 0.0000 -17.9177 0.0000
# 2 5.3961 76.4700 32.4431 0.0000 -9.0439 0.0000
# 3 3.3970 32.4431 128.7606 0.0000 -9.6563 0.0000
# 4 0.0000 0.0000 0.0000 27.3486 0.0000 -0.9984
# 5 -17.9177 -9.0439 -9.6563 0.0000 24.6102 0.0000
# 6 0.0000 0.0000 0.0000 -0.9984 0.0000 20.2402
#
#
#
# Elastic Compliance Matrix: (Units=1/GPa)
#
#
# Indices 1 2 3 4 5 6 
#
# 1 0.025042 0.000131 0.000698 0.000000 0.018554 0.000000
# 2 0.000131 0.015046 -0.003475 0.000000 0.004261 0.000000
# 3 0.000698 -0.003475 0.008826 0.000000 0.002694 0.000000
# 4 0.000000 0.000000 0.000000 0.036631 0.000000 0.001807
# 5 0.018554 0.004261 0.002694 0.000000 0.056765 0.000000
# 6 0.000000 0.000000 0.000000 0.001807 0.000000 0.049496
#
#
# Mechanical properties :
#
#
# Convention : Reuss Voigt Hill
#
# Bulk Modulus (GPa) = 22.92418 37.86529 30.39473
# Shear Modulus (GPa) = 23.62520 28.91176 26.26848
#
# Velocity S-wave (km/s) = 3.39955 3.76072 3.58468
# Velocity P-wave (km/s) = 5.15977 6.11393 5.65700
#
# Compressibility (1/GPa) = 0.04362207
#
# Stress axis : x y z
#
# Youngs Moduli (GPa) = 39.93212 66.46281 113.30763
#
# Poissons Ratio (x) = -0.00872 -0.07906
# Poissons Ratio (y) = -0.00524 0.39374
# Poissons Ratio (z) = -0.02786 0.23096
#
# Static dielectric constant tensor:
#      x y z
#    x 1.728520 0.000000 -0.002240 
#    y 0.000000 1.732550 0.000000 
#    z -0.002240 0.000000 1.744260 
# 
# From -- ./inp_files/247459.got.cif
#   From: 2010.05.17/outbox.cif.g08.bks.cpg/sg15_124_cif.got.tgz:247459.got - 2010.06.03 18:47:42.
