data_PCOD9269099
_publ_section_title
;
Structure prediction by ZEFSAII (Michael W. Deem and Ramdas Pophale) SiO2 
 PCOD9269099
Probable space group: C 2/C
;
_chemical_formula_sum "Si O2"
_cell_formula_units_Z 40
_cell_length_a 25.200378
_cell_length_b 9.654092
_cell_length_c 8.038690
_cell_angle_alpha 90.000000
_cell_angle_beta 112.316116
_cell_angle_gamma 90.000000
_cell_volume 1809.230227
_symmetry_space_group_name_H-M "C 2/C"
_symmetry_group_IT_number 15
_symmetry_cell_setting 'monoclinic'
loop_
_space_group_symop_operation_xyz
x,y,z
-x,y,1/2-z
-x,-y,-z
x,-y,1/2+z
1/2+x,1/2+y,z
1/2-x,1/2+y,1/2-z
1/2-x,1/2-y,-z
1/2+x,1/2-y,1/2+z
loop_
_atom_site_type_symbol
_atom_site_label
_atom_site_fract_x
_atom_site_fract_y
_atom_site_fract_z
Si Si1 0.755875 0.443892 0.060518
Si Si2 0.519632 0.153842 0.964798
Si Si3 0.381428 0.928481 0.096356
Si Si4 0.204372 0.815749 0.696390
Si Si5 0.586285 0.792506 0.011236
O O1 0.813477 0.441461 0.017800
O O2 0.767950 0.333164 0.223310
O O3 0.741782 0.592659 0.116808
O O4 0.706048 0.389909 0.879542
O O5 0.500000 0.173382 0.750000
O O6 0.588137 0.155613 0.017581
O O7 0.479848 0.249548 0.034718
O O8 0.500000 0.000000 0.000000
O O9 0.395647 0.859880 0.289204
O O10 0.408618 0.081708 0.112703
O O11 0.139751 0.808134 0.548326
#
# Coordination Sequence:
#
# PCOD9269099 Si02
#       5
#     8   8   8   8   8
#     4  10  20  34  50  75 104 138 174 208 256 308
#     4   8  14  25  43  68  95 125 159 203 253 293
#     4   9  16  28  47  70  99 130 164 206 248 296
#     4  10  21  34  50  73 107 139 171 210 255 309
#     4   9  17  29  46  72 102 131 162 206 259 304
#
# _framework density 22.108848999999999
#
# number of rings (size 3 to 8) (size 9 to 14) (size 15 to 20)
#    0.000    2.800    0.000    2.400    0.000    3.200 
#    0.000    0.000    0.000    0.000    0.000   50.400 
#    0.000   40.000    0.000    0.000    0.000    0.000 
#
# Total GULP energy -111342.865963 kJ/mol
# GULP energy per Si atom -5567.143298 kJ/mol
# Density = 2.205853 g / cm^3
# Si number density = 22.108849 Si / 1000 Ang^3
#
#
#
# Elastic Constant Matrix: (Units=GPa)
#
#
# Indices 1 2 3 4 5 6 
#
# 1 156.2938 47.3274 10.6686 0.0000 -7.2768 0.0000
# 2 47.3274 36.4597 3.4021 0.0000 -1.6660 0.0000
# 3 10.6686 3.4021 52.5011 0.0000 -5.6357 0.0000
# 4 0.0000 0.0000 0.0000 30.5881 0.0000 5.7339
# 5 -7.2768 -1.6660 -5.6357 0.0000 8.5737 0.0000
# 6 0.0000 0.0000 0.0000 5.7339 0.0000 9.8205
#
#
#
# Elastic Compliance Matrix: (Units=1/GPa)
#
#
# Indices 1 2 3 4 5 6 
#
# 1 0.010917 -0.013828 -0.000663 0.000000 0.006143 0.000000
# 2 -0.013828 0.045273 -0.000473 0.000000 -0.003250 0.000000
# 3 -0.000663 -0.000473 0.020596 0.000000 0.012883 0.000000
# 4 0.000000 0.000000 0.000000 0.036710 0.000000 -0.021434
# 5 0.006143 -0.003250 0.012883 0.000000 0.129686 0.000000
# 6 0.000000 0.000000 0.000000 -0.021434 0.000000 0.114342
#
#
# Mechanical properties :
#
#
# Convention : Reuss Voigt Hill
#
# Bulk Modulus (GPa) = 21.34103 40.89452 31.11777
# Shear Modulus (GPa) = 12.40477 22.05358 17.22918
#
# Velocity S-wave (km/s) = 2.37128 3.16175 2.79460
# Velocity P-wave (km/s) = 4.14378 5.64499 4.95161
#
# Compressibility (1/GPa) = 0.04685809
#
# Stress axis : x y z
#
# Youngs Moduli (GPa) = 91.60216 22.08809 48.55426
#
# Poissons Ratio (x) = 0.30544 0.03219
# Poissons Ratio (y) = 1.26670 0.02295
# Poissons Ratio (z) = 0.06072 0.01044
#
# Static dielectric constant tensor:
#      x y z
#    x 2.004900 0.000000 0.081300 
#    y 0.000000 1.833590 0.000000 
#    z 0.081300 0.000000 1.874490 
# 
# From -- ./inp_files/60343.got.cif
#   From: 2010.05.17/outbox.cif.g08.bks.cpg/sg15_31_cif.got.tgz:60343.got - 2010.06.03 18:47:42.
