data_PCOD9269449
_publ_section_title
;
Structure prediction by ZEFSAII (Michael W. Deem and Ramdas Pophale) SiO2 
 PCOD9269449
Probable space group: C 2/C
;
_chemical_formula_sum "Si O2"
_cell_formula_units_Z 40
_cell_length_a 12.728828
_cell_length_b 14.063236
_cell_length_c 11.730765
_cell_angle_alpha 90.000000
_cell_angle_beta 94.056713
_cell_angle_gamma 90.000000
_cell_volume 2094.645504
_symmetry_space_group_name_H-M "C 2/C"
_symmetry_group_IT_number 15
_symmetry_cell_setting 'monoclinic'
loop_
_space_group_symop_operation_xyz
x,y,z
-x,y,1/2-z
-x,-y,-z
x,-y,1/2+z
1/2+x,1/2+y,z
1/2-x,1/2+y,1/2-z
1/2-x,1/2-y,-z
1/2+x,1/2-y,1/2+z
loop_
_atom_site_type_symbol
_atom_site_label
_atom_site_fract_x
_atom_site_fract_y
_atom_site_fract_z
Si Si1 0.188087 0.609751 0.940933
Si Si2 0.783092 0.406268 0.462578
Si Si3 0.393048 0.265200 0.103776
Si Si4 0.636068 0.750961 0.634110
Si Si5 0.479777 0.035933 0.866750
O O1 0.278608 0.670652 0.888908
O O2 0.074448 0.612844 0.869488
O O3 0.221638 0.500102 0.959696
O O4 0.168940 0.656807 0.063970
O O5 0.670898 0.361960 0.424239
O O6 0.847125 0.320415 0.525686
O O7 0.858388 0.434223 0.362776
O O8 0.369708 0.235929 0.231727
O O9 0.516795 0.276039 0.091112
O O10 0.500000 0.978181 0.750000
O O11 0.500000 0.000000 0.000000
#
# Coordination Sequence:
#
# PCOD9269449 Si02
#       5
#     8   8   8   8   8
#     4  10  21  37  57  84 114 151 192 241 288 347
#     4  10  21  37  57  84 114 151 192 241 288 347
#     4  10  21  37  57  82 114 151 193 240 292 346
#     4  10  21  37  57  82 114 151 193 240 292 346
#     4  10  20  34  56  86 113 146 189 240 291 342
#
# _framework density 19.096309000000002
#
# number of rings (size 3 to 8) (size 9 to 14) (size 15 to 20)
#    0.000    2.000    2.000    1.200    0.000    8.800 
#    0.000    0.000    0.000    0.000    0.000    0.000 
#    0.000    0.000    0.000    0.000    0.000    0.000 
#
# Total GULP energy -111392.108249 kJ/mol
# GULP energy per Si atom -5569.605412 kJ/mol
# Density = 1.905285 g / cm^3
# Si number density = 19.096309 Si / 1000 Ang^3
#
#
#
# Elastic Constant Matrix: (Units=GPa)
#
#
# Indices 1 2 3 4 5 6 
#
# 1 97.2864 19.2050 10.2127 0.0000 -17.1905 0.0000
# 2 19.2050 63.1668 -7.4799 0.0000 -9.3139 0.0000
# 3 10.2127 -7.4799 55.4695 0.0000 -20.2736 0.0000
# 4 0.0000 0.0000 0.0000 11.4160 0.0000 4.2241
# 5 -17.1905 -9.3139 -20.2736 0.0000 26.6007 0.0000
# 6 0.0000 0.0000 0.0000 4.2241 0.0000 30.2853
#
#
#
# Elastic Compliance Matrix: (Units=1/GPa)
#
#
# Indices 1 2 3 4 5 6 
#
# 1 0.012009 -0.002669 -0.000105 0.000000 0.006746 0.000000
# 2 -0.002669 0.018910 0.006696 0.000000 0.010000 0.000000
# 3 -0.000105 0.006696 0.027421 0.000000 0.023175 0.000000
# 4 0.000000 0.000000 0.000000 0.092363 0.000000 -0.012883
# 5 0.006746 0.010000 0.023175 0.000000 0.063117 0.000000
# 6 0.000000 0.000000 0.000000 -0.012883 0.000000 0.034816
#
#
# Mechanical properties :
#
#
# Convention : Reuss Voigt Hill
#
# Bulk Modulus (GPa) = 15.10957 28.86648 21.98802
# Shear Modulus (GPa) = 19.02204 26.59271 22.80738
#
# Velocity S-wave (km/s) = 3.15955 3.73575 3.45966
# Velocity P-wave (km/s) = 4.60866 5.81006 5.24388
#
# Compressibility (1/GPa) = 0.06618323
#
# Stress axis : x y z
#
# Youngs Moduli (GPa) = 83.27193 52.88229 36.46894
#
# Poissons Ratio (x) = 0.14114 0.00384
# Poissons Ratio (y) = 0.22225 -0.24420
# Poissons Ratio (z) = 0.00877 -0.35411
#
# Static dielectric constant tensor:
#      x y z
#    x 1.690620 0.000000 0.023980 
#    y 0.000000 1.678750 0.000000 
#    z 0.023980 0.000000 1.729310 
# 
# From -- ./inp_files/85629.got.cif
#   From: 2010.05.17/outbox.cif.g08.bks.cpg/sg15_43_cif.got.tgz:85629.got - 2010.06.03 18:47:42.
