data_PCOD9269545
_publ_section_title
;
Structure prediction by ZEFSAII (Michael W. Deem and Ramdas Pophale) SiO2 
 PCOD9269545
Probable space group: C 2/C
;
_chemical_formula_sum "Si O2"
_cell_formula_units_Z 56
_cell_length_a 29.774804
_cell_length_b 11.729252
_cell_length_c 13.918934
_cell_angle_alpha 90.000000
_cell_angle_beta 144.176493
_cell_angle_gamma 90.000000
_cell_volume 2845.093827
_symmetry_space_group_name_H-M "C 2/C"
_symmetry_group_IT_number 15
_symmetry_cell_setting 'monoclinic'
loop_
_space_group_symop_operation_xyz
x,y,z
-x,y,1/2-z
-x,-y,-z
x,-y,1/2+z
1/2+x,1/2+y,z
1/2-x,1/2+y,1/2-z
1/2-x,1/2-y,-z
1/2+x,1/2-y,1/2+z
loop_
_atom_site_type_symbol
_atom_site_label
_atom_site_fract_x
_atom_site_fract_y
_atom_site_fract_z
Si Si1 0.762501 0.544818 0.331370
Si Si2 0.767902 0.699481 0.925592
Si Si3 0.965312 0.832163 0.471129
Si Si4 0.868342 0.266274 0.954302
Si Si5 0.427735 0.690100 0.684066
Si Si6 0.843962 0.963979 0.519551
Si Si7 0.627260 0.438502 0.717660
O O1 0.771438 0.436016 0.416423
O O2 0.839174 0.618410 0.453489
O O3 0.728901 0.500572 0.171143
O O4 0.689474 0.610548 0.251917
O O5 0.700457 0.742126 0.740006
O O6 0.750000 0.750000 0.000000
O O7 0.848444 0.746908 0.028807
O O8 0.942806 0.743953 0.515430
O O9 0.943291 0.798484 0.324602
O O10 0.054633 0.862456 0.621091
O O11 0.913596 0.947627 0.397401
O O12 0.869620 0.160393 0.029504
O O13 0.500000 0.732254 0.750000
O O14 0.410746 0.558713 0.625619
O O15 0.829726 0.965542 0.608373
#
# Coordination Sequence:
#
# PCOD9269545 Si02
#       7
#     8   8   8   8   8   8   8
#     4  11  22  37  61  92 123 164 209 245 307 378
#     4  11  20  39  61  88 119 164 209 253 299 363
#     4  10  20  34  57  90 122 155 198 256 308 365
#     4  11  22  36  56  90 125 160 200 248 316 369
#     4  11  21  34  63  91 118 158 210 260 305 358
#     4  10  21  35  58  91 122 156 197 259 311 351
#     4  10  20  35  57  88 125 153 200 251 311 355
#
# _framework density 19.683005999999999
#
# number of rings (size 3 to 8) (size 9 to 14) (size 15 to 20)
#    0.000    1.429    5.714    1.714    4.000    0.571 
#    0.000    0.000    3.143    0.857    0.000    0.000 
#    0.000    0.000    0.000    0.000    0.000    0.000 
#
# Total GULP energy -156210.631966 kJ/mol
# GULP energy per Si atom -5578.951142 kJ/mol
# Density = 1.963821 g / cm^3
# Si number density = 19.683006 Si / 1000 Ang^3
#
#
#
# Elastic Constant Matrix: (Units=GPa)
#
#
# Indices 1 2 3 4 5 6 
#
# 1 93.2708 39.9146 26.4966 0.0000 6.2808 0.0000
# 2 39.9146 71.8950 16.2092 0.0000 0.0566 0.0000
# 3 26.4966 16.2092 46.2280 0.0000 -2.5495 0.0000
# 4 0.0000 0.0000 0.0000 21.7843 0.0000 2.7894
# 5 6.2808 0.0566 -2.5495 0.0000 33.0948 0.0000
# 6 0.0000 0.0000 0.0000 2.7894 0.0000 26.6134
#
#
#
# Elastic Compliance Matrix: (Units=1/GPa)
#
#
# Indices 1 2 3 4 5 6 
#
# 1 0.016051 -0.007373 -0.006811 0.000000 -0.003558 0.000000
# 2 -0.007373 0.018496 -0.002193 0.000000 0.001199 0.000000
# 3 -0.006811 -0.002193 0.026489 0.000000 0.003337 0.000000
# 4 0.000000 0.000000 0.000000 0.046529 0.000000 -0.004877
# 5 -0.003558 0.001199 0.003337 0.000000 0.031147 0.000000
# 6 0.000000 0.000000 0.000000 -0.004877 0.000000 0.038086
#
#
# Mechanical properties :
#
#
# Convention : Reuss Voigt Hill
#
# Bulk Modulus (GPa) = 35.35888 41.84830 38.60359
# Shear Modulus (GPa) = 22.83316 24.88339 23.85828
#
# Velocity S-wave (km/s) = 3.40964 3.55943 3.48534
# Velocity P-wave (km/s) = 5.78826 6.18061 5.98765
#
# Compressibility (1/GPa) = 0.02828144
#
# Stress axis : x y z
#
# Youngs Moduli (GPa) = 62.30079 54.06583 37.75154
#
# Poissons Ratio (x) = 0.39862 0.25713
# Poissons Ratio (y) = 0.45933 0.08280
# Poissons Ratio (z) = 0.42434 0.11859
#
# Static dielectric constant tensor:
#      x y z
#    x 1.728390 0.000000 -0.002860 
#    y 0.000000 1.744870 0.000000 
#    z -0.002860 0.000000 1.709830 
# 
# From -- ./inp_files/177597.got.cif
#   From: 2010.05.17/outbox.cif.g08.bks.cpg/sg15_89_cif.got.tgz:177597.got - 2010.06.03 18:47:42.
