data_PCOD9269565
_publ_section_title
;
Structure prediction by ZEFSAII (Michael W. Deem and Ramdas Pophale) SiO2 
 PCOD9269565
Probable space group: C 2/C
;
_chemical_formula_sum "Si O2"
_cell_formula_units_Z 52
_cell_length_a 13.939864
_cell_length_b 25.356107
_cell_length_c 10.840608
_cell_angle_alpha 90.000000
_cell_angle_beta 136.034186
_cell_angle_gamma 90.000000
_cell_volume 2660.097370
_symmetry_space_group_name_H-M "C 2/C"
_symmetry_group_IT_number 15
_symmetry_cell_setting 'monoclinic'
loop_
_space_group_symop_operation_xyz
x,y,z
-x,y,1/2-z
-x,-y,-z
x,-y,1/2+z
1/2+x,1/2+y,z
1/2-x,1/2+y,1/2-z
1/2-x,1/2-y,-z
1/2+x,1/2-y,1/2+z
loop_
_atom_site_type_symbol
_atom_site_label
_atom_site_fract_x
_atom_site_fract_y
_atom_site_fract_z
Si Si1 0.211985 0.004394 0.909929
Si Si2 0.559878 0.053207 0.994293
Si Si3 0.788102 0.094269 0.394625
Si Si4 0.228155 0.409806 0.246135
Si Si5 0.007238 0.084982 0.128666
Si Si6 0.249757 0.820253 0.421143
Si Si7 0.000000 0.255737 0.750000
O O1 0.091475 0.968244 0.741083
O O2 0.250912 0.048207 0.844313
O O3 0.345630 0.966281 0.031183
O O4 0.184075 0.039838 0.004250
O O5 0.425837 0.087640 0.845207
O O6 0.657111 0.082207 0.185358
O O7 0.500000 0.000000 0.000000
O O8 0.914131 0.106726 0.418351
O O9 0.765477 0.140430 0.473902
O O10 0.348784 0.424259 0.450862
O O11 0.253385 0.354174 0.205137
O O12 0.000000 0.117208 0.250000
O O13 0.118113 0.781230 0.298661
O O14 0.398963 0.791917 0.572888
#
# Coordination Sequence:
#
# PCOD9269565 Si02
#       7
#     8   8   8   8   8   8   4
#     4   9  21  33  53  72 108 151 199 232 261 323
#     4   9  19  33  49  75 105 150 200 223 252 327
#     4  10  21  39  53  78 112 159 188 229 296 318
#     4  10  20  36  52  79 108 153 183 225 289 322
#     4  11  24  34  51  76 112 156 198 238 256 323
#     4  10  20  36  61  85 119 137 174 232 295 361
#     4  10  20  34  58 100 110 130 172 232 304 358
#
# _framework density 19.548155999999999
#
# number of rings (size 3 to 8) (size 9 to 14) (size 15 to 20)
#    0.000    2.154    0.000    2.308    8.615    6.154 
#    2.769    0.000    0.000    0.000    0.000   17.231 
#    0.000    0.000    0.000    0.000    0.000    0.000 
#
# Total GULP energy -144976.637445 kJ/mol
# GULP energy per Si atom -5576.024517 kJ/mol
# Density = 1.950366 g / cm^3
# Si number density = 19.548156 Si / 1000 Ang^3
#
#
#
# Elastic Constant Matrix: (Units=GPa)
#
#
# Indices 1 2 3 4 5 6 
#
# 1 100.3154 22.8505 46.6790 0.0000 10.1546 0.0000
# 2 22.8505 67.8300 30.9017 0.0000 8.4139 0.0000
# 3 46.6790 30.9017 112.6671 0.0000 25.0912 0.0000
# 4 0.0000 0.0000 0.0000 17.9992 0.0000 3.2493
# 5 10.1546 8.4139 25.0912 0.0000 40.5432 0.0000
# 6 0.0000 0.0000 0.0000 3.2493 0.0000 20.4953
#
#
#
# Elastic Compliance Matrix: (Units=1/GPa)
#
#
# Indices 1 2 3 4 5 6 
#
# 1 0.012615 -0.002140 -0.004680 0.000000 0.000181 0.000000
# 2 -0.002140 0.017230 -0.003668 0.000000 -0.000770 0.000000
# 3 -0.004680 -0.003668 0.013211 0.000000 -0.006243 0.000000
# 4 0.000000 0.000000 0.000000 0.057195 0.000000 -0.009068
# 5 0.000181 -0.000770 -0.006243 0.000000 0.028643 0.000000
# 6 0.000000 0.000000 0.000000 -0.009068 0.000000 0.050229
#
#
# Mechanical properties :
#
#
# Convention : Reuss Voigt Hill
#
# Bulk Modulus (GPa) = 45.28817 53.51943 49.40380
# Shear Modulus (GPa) = 24.10109 27.83296 25.96703
#
# Velocity S-wave (km/s) = 3.51509 3.77744 3.64862
# Velocity P-wave (km/s) = 6.30018 6.81638 6.56336
#
# Compressibility (1/GPa) = 0.02208082
#
# Stress axis : x y z
#
# Youngs Moduli (GPa) = 79.26780 58.03796 75.69558
#
# Poissons Ratio (x) = 0.12422 0.35425
# Poissons Ratio (y) = 0.16965 0.27762
# Poissons Ratio (z) = 0.37097 0.21286
#
# Static dielectric constant tensor:
#      x y z
#    x 1.757070 0.000000 0.011870 
#    y 0.000000 1.697660 0.000000 
#    z 0.011870 0.000000 1.710790 
# 
# From -- ./inp_files/100705.got.cif
#   From: 2010.05.17/outbox.cif.g08.bks.cpg/sg15_51_cif.got.tgz:100705.got - 2010.06.03 18:47:42.
