data_PCOD9269371
_publ_section_title
;
Structure prediction by ZEFSAII (Michael W. Deem and Ramdas Pophale) SiO2 
 PCOD9269371
Probable space group: C 2/C
;
_chemical_formula_sum "Si O2"
_cell_formula_units_Z 40
_cell_length_a 11.006141
_cell_length_b 24.735895
_cell_length_c 14.028975
_cell_angle_alpha 90.000000
_cell_angle_beta 32.256941
_cell_angle_gamma 90.000000
_cell_volume 2038.448065
_symmetry_space_group_name_H-M "C 2/C"
_symmetry_group_IT_number 15
_symmetry_cell_setting 'monoclinic'
loop_
_space_group_symop_operation_xyz
x,y,z
-x,y,1/2-z
-x,-y,-z
x,-y,1/2+z
1/2+x,1/2+y,z
1/2-x,1/2+y,1/2-z
1/2-x,1/2-y,-z
1/2+x,1/2-y,1/2+z
loop_
_atom_site_type_symbol
_atom_site_label
_atom_site_fract_x
_atom_site_fract_y
_atom_site_fract_z
Si Si1 0.565992 0.187125 0.052108
Si Si2 0.147155 0.463543 0.974304
Si Si3 0.484602 0.498638 0.395987
Si Si4 0.246216 0.890095 0.231746
Si Si5 0.874306 0.809147 0.537335
O O1 0.314283 0.176950 0.259080
O O2 0.741208 0.186744 0.024528
O O3 0.659362 0.142771 0.919697
O O4 0.565345 0.245621 0.001277
O O5 0.244341 0.506464 0.503111
O O6 0.360964 0.455698 0.759731
O O7 0.000000 0.500000 0.000000
O O8 0.975818 0.416823 0.121818
O O9 0.500000 0.500000 0.500000
O O10 0.585250 0.439568 0.306526
O O11 0.089613 0.848905 0.395408
#
# Coordination Sequence:
#
# PCOD9269371 Si02
#       5
#     8   8   8   8   8
#     4  10  20  34  55  89 130 173 219 263 326 395
#     4   9  22  39  60  94 124 164 216 275 314 393
#     4  10  23  43  63  90 128 174 227 268 323 395
#     4  11  22  36  63  87 131 174 203 279 330 381
#     4  10  20  34  56  88 130 176 216 264 325 402
#
# _framework density 19.622771
#
# number of rings (size 3 to 8) (size 9 to 14) (size 15 to 20)
#    0.000    2.000    2.000    0.600   14.000    3.200 
#    0.000    0.000    0.000    0.000    0.000   16.800 
#    0.000    0.000    0.000    0.000    0.000    0.000 
#
# Total GULP energy -111391.376802 kJ/mol
# GULP energy per Si atom -5569.568840 kJ/mol
# Density = 1.957811 g / cm^3
# Si number density = 19.622771 Si / 1000 Ang^3
#
#
#
# Elastic Constant Matrix: (Units=GPa)
#
#
# Indices 1 2 3 4 5 6 
#
# 1 104.7439 43.9659 58.2626 -0.0002 1.5510 0.0000
# 2 43.9659 118.9217 70.4982 0.0000 -11.8934 -0.0001
# 3 58.2626 70.4982 124.7194 -0.0001 -1.4693 0.0000
# 4 -0.0002 0.0000 -0.0001 52.0261 0.0002 -14.2561
# 5 1.5510 -11.8934 -1.4693 0.0002 21.5075 -0.0001
# 6 0.0000 -0.0001 0.0000 -14.2561 -0.0001 22.7382
#
#
#
# Elastic Compliance Matrix: (Units=1/GPa)
#
#
# Indices 1 2 3 4 5 6 
#
# 1 0.013285 -0.002206 -0.004989 0.000000 -0.002519 0.000000
# 2 -0.002206 0.013995 -0.006792 0.000000 0.007434 0.000000
# 3 -0.004989 -0.006792 0.014159 0.000000 -0.002429 0.000000
# 4 0.000000 0.000000 0.000000 0.023208 0.000000 0.014551
# 5 -0.002519 0.007434 -0.002429 0.000000 0.050622 0.000000
# 6 0.000000 0.000000 0.000000 0.014551 0.000000 0.053102
#
#
# Mechanical properties :
#
#
# Convention : Reuss Voigt Hill
#
# Bulk Modulus (GPa) = 74.26878 77.09312 75.68095
# Shear Modulus (GPa) = 24.89613 30.96492 27.93052
#
# Velocity S-wave (km/s) = 3.56580 3.97673 3.77685
# Velocity P-wave (km/s) = 7.40835 7.77552 7.59415
#
# Compressibility (1/GPa) = 0.01346461
#
# Stress axis : x y z
#
# Youngs Moduli (GPa) = 75.27033 71.45656 70.62463
#
# Poissons Ratio (x) = 0.15764 0.35234
# Poissons Ratio (y) = 0.16605 0.47970
# Poissons Ratio (z) = 0.37552 0.48536
#
# Static dielectric constant tensor:
#      x y z
#    x 1.726330 0.000000 -0.051850 
#    y 0.000000 1.708390 0.000000 
#    z -0.051850 0.000000 1.779330 
# 
# From -- ./inp_files/156463.got.cif
#   From: 2010.05.17/outbox.cif.g08.bks.cpg/sg15_79_cif.got.tgz:156463.got - 2010.06.03 18:47:42.
