data_PCOD9269102
_publ_section_title
;
Structure prediction by ZEFSAII (Michael W. Deem and Ramdas Pophale) SiO2 
 PCOD9269102
Probable space group: C 2/C
;
_chemical_formula_sum "Si O2"
_cell_formula_units_Z 44
_cell_length_a 15.245383
_cell_length_b 32.865946
_cell_length_c 4.859622
_cell_angle_alpha 90.000000
_cell_angle_beta 63.276233
_cell_angle_gamma 90.000000
_cell_volume 2174.845210
_symmetry_space_group_name_H-M "C 2/C"
_symmetry_group_IT_number 15
_symmetry_cell_setting 'monoclinic'
loop_
_space_group_symop_operation_xyz
x,y,z
-x,y,1/2-z
-x,-y,-z
x,-y,1/2+z
1/2+x,1/2+y,z
1/2-x,1/2+y,1/2-z
1/2-x,1/2-y,-z
1/2+x,1/2-y,1/2+z
loop_
_atom_site_type_symbol
_atom_site_label
_atom_site_fract_x
_atom_site_fract_y
_atom_site_fract_z
Si Si1 0.112711 0.322531 0.545360
Si Si2 0.000000 0.916124 0.250000
Si Si3 0.164250 0.027026 0.791179
Si Si4 0.155106 0.131387 0.184169
Si Si5 0.230367 0.602068 0.985683
Si Si6 0.270188 0.207243 0.115398
O O1 0.136281 0.370051 0.569294
O O2 0.146534 0.313778 0.189517
O O3 0.000000 0.312506 0.750000
O O4 0.184988 0.296241 0.642648
O O5 0.926351 0.945685 0.187098
O O6 0.942534 0.887954 0.551058
O O7 0.259745 0.054902 0.601829
O O8 0.160462 0.986615 0.610816
O O9 0.238645 0.108116 0.243442
O O10 0.184630 0.123341 0.827148
O O11 0.173874 0.178599 0.226253
O O12 0.250000 0.250000 0.000000
#
# Coordination Sequence:
#
# PCOD9269102 Si02
#       6
#     8   4   8   8   8   8
#     4  10  20  37  63  83 105 143 193 228 270 338
#     4  10  20  34  50  76 112 144 194 216 260 340
#     4  11  21  32  50  76 108 144 181 227 275 321
#     4   9  19  33  52  73 104 149 180 220 266 329
#     4   9  19  35  52  75 105 140 182 223 273 324
#     4  10  20  37  58  84 116 143 175 234 293 330
#
# _framework density 20.231324000000001
#
# number of rings (size 3 to 8) (size 9 to 14) (size 15 to 20)
#    0.000    2.182    0.000    3.818    0.000    5.818 
#    1.636    0.000   16.000    1.091    0.000    0.000 
#    0.000    0.000    0.000    0.000    0.000    0.000 
#
# Total GULP energy -122710.973140 kJ/mol
# GULP energy per Si atom -5577.771506 kJ/mol
# Density = 2.018528 g / cm^3
# Si number density = 20.231324 Si / 1000 Ang^3
#
#
#
# Elastic Constant Matrix: (Units=GPa)
#
#
# Indices 1 2 3 4 5 6 
#
# 1 33.8177 19.1631 8.3736 0.0000 4.8667 0.0000
# 2 19.1631 97.0285 8.9751 0.0000 -10.7846 0.0000
# 3 8.3736 8.9751 63.8775 0.0000 8.8644 0.0000
# 4 0.0000 0.0000 0.0000 37.1353 0.0000 1.8744
# 5 4.8667 -10.7846 8.8644 0.0000 26.9626 0.0000
# 6 0.0000 0.0000 0.0000 1.8744 0.0000 18.6490
#
#
#
# Elastic Compliance Matrix: (Units=1/GPa)
#
#
# Indices 1 2 3 4 5 6 
#
# 1 0.035877 -0.007848 -0.002374 0.000000 -0.008834 0.000000
# 2 -0.007848 0.012810 -0.001759 0.000000 0.007119 0.000000
# 3 -0.002374 -0.001759 0.017028 0.000000 -0.005873 0.000000
# 4 0.000000 0.000000 0.000000 0.027066 0.000000 -0.002720
# 5 -0.008834 0.007119 -0.005873 0.000000 0.043461 0.000000
# 6 0.000000 0.000000 0.000000 -0.002720 0.000000 0.053895
#
#
# Mechanical properties :
#
#
# Convention : Reuss Voigt Hill
#
# Bulk Modulus (GPa) = 23.95064 29.74970 26.85017
# Shear Modulus (GPa) = 21.92811 27.09685 24.51248
#
# Velocity S-wave (km/s) = 3.29579 3.66368 3.48460
# Velocity P-wave (km/s) = 5.13294 5.71257 5.43049
#
# Compressibility (1/GPa) = 0.04175255
#
# Stress axis : x y z
#
# Youngs Moduli (GPa) = 27.87335 78.06327 58.72530
#
# Poissons Ratio (x) = 0.61263 0.13944
# Poissons Ratio (y) = 0.21875 0.10330
# Poissons Ratio (z) = 0.06618 0.13731
#
# Static dielectric constant tensor:
#      x y z
#    x 1.732470 0.000000 -0.001180 
#    y 0.000000 1.764400 0.000000 
#    z -0.001180 0.000000 1.694590 
# 
# From -- ./inp_files/11911.got.cif
#   From: 2010.05.17/outbox.cif.g08.bks.cpg/sg15_6_cif.got.tgz:11911.got - 2010.06.03 18:47:42.
