data_PCOD9269630
_publ_section_title
;
Structure prediction by ZEFSAII (Michael W. Deem and Ramdas Pophale) SiO2 
 PCOD9269630
Probable space group: C 2/C
;
_chemical_formula_sum "Si O2"
_cell_formula_units_Z 44
_cell_length_a 17.945574
_cell_length_b 16.542949
_cell_length_c 6.966512
_cell_angle_alpha 90.000000
_cell_angle_beta 94.680829
_cell_angle_gamma 90.000000
_cell_volume 2061.269474
_symmetry_space_group_name_H-M "C 2/C"
_symmetry_group_IT_number 15
_symmetry_cell_setting 'monoclinic'
loop_
_space_group_symop_operation_xyz
x,y,z
-x,y,1/2-z
-x,-y,-z
x,-y,1/2+z
1/2+x,1/2+y,z
1/2-x,1/2+y,1/2-z
1/2-x,1/2-y,-z
1/2+x,1/2-y,1/2+z
loop_
_atom_site_type_symbol
_atom_site_label
_atom_site_fract_x
_atom_site_fract_y
_atom_site_fract_z
Si Si1 0.196155 0.176852 0.046539
Si Si2 0.748155 0.059112 0.768115
Si Si3 0.000000 0.988900 0.750000
Si Si4 0.412800 0.247675 0.249945
Si Si5 0.899230 0.096962 0.992579
Si Si6 0.796875 0.616650 0.365099
O O1 0.225393 0.104478 0.917143
O O2 0.116829 0.206589 0.949140
O O3 0.250000 0.250000 0.000000
O O4 0.218825 0.155450 0.268757
O O5 0.823975 0.052415 0.909833
O O6 0.707343 0.976210 0.706557
O O7 0.699451 0.114022 0.903491
O O8 0.032774 0.053989 0.606657
O O9 0.928703 0.929292 0.705763
O O10 0.500000 0.229946 0.250000
O O11 0.397316 0.311723 0.418457
O O12 0.362915 0.168883 0.285491
#
# Coordination Sequence:
#
# PCOD9269630 Si02
#       6
#     8   8   4   8   8   8
#     4   9  21  38  62  89 120 160 195 256 299 359
#     4  11  21  37  63  91 116 159 211 249 299 349
#     4  10  20  34  58  90 124 158 192 238 316 370
#     4  10  22  40  59  87 126 163 195 246 316 362
#     4  10  21  35  57  88 124 157 192 246 301 381
#     4  11  22  39  66  89 122 158 208 258 296 366
#
# _framework density 21.346069
#
# number of rings (size 3 to 8) (size 9 to 14) (size 15 to 20)
#    0.000    1.818    2.727    1.091    2.545    8.000 
#    0.000    2.727    0.000    0.000    0.000    0.000 
#    0.000    0.000    0.000    0.000    0.000    0.000 
#
# Total GULP energy -122631.780029 kJ/mol
# GULP energy per Si atom -5574.171819 kJ/mol
# Density = 2.129748 g / cm^3
# Si number density = 21.346069 Si / 1000 Ang^3
#
#
#
# Elastic Constant Matrix: (Units=GPa)
#
#
# Indices 1 2 3 4 5 6 
#
# 1 104.5457 50.1216 14.2348 0.0000 8.9841 0.0000
# 2 50.1216 117.1075 4.2245 0.0000 7.8479 0.0000
# 3 14.2348 4.2245 22.6036 0.0000 4.2077 0.0000
# 4 0.0000 0.0000 0.0000 31.8836 0.0000 4.5602
# 5 8.9841 7.8479 4.2077 0.0000 26.6777 0.0000
# 6 0.0000 0.0000 0.0000 4.5602 0.0000 40.6395
#
#
#
# Elastic Compliance Matrix: (Units=1/GPa)
#
#
# Indices 1 2 3 4 5 6 
#
# 1 0.013202 -0.005278 -0.006994 0.000000 -0.001790 0.000000
# 2 -0.005278 0.010852 0.001606 0.000000 -0.001668 0.000000
# 3 -0.006994 0.001606 0.049447 0.000000 -0.005916 0.000000
# 4 0.000000 0.000000 0.000000 0.031876 0.000000 -0.003577
# 5 -0.001790 -0.001668 -0.005916 0.000000 0.039511 0.000000
# 6 0.000000 0.000000 0.000000 -0.003577 0.000000 0.025008
#
#
# Mechanical properties :
#
#
# Convention : Reuss Voigt Hill
#
# Bulk Modulus (GPa) = 19.16876 42.37987 30.77431
# Shear Modulus (GPa) = 23.96741 31.55190 27.75965
#
# Velocity S-wave (km/s) = 3.35446 3.84879 3.61010
# Velocity P-wave (km/s) = 4.89925 6.29665 5.64138
#
# Compressibility (1/GPa) = 0.05216822
#
# Stress axis : x y z
#
# Youngs Moduli (GPa) = 75.74741 92.14889 20.22385
#
# Poissons Ratio (x) = 0.48637 0.14145
# Poissons Ratio (y) = 0.39980 -0.03248
# Poissons Ratio (z) = 0.52980 -0.14802
#
# Static dielectric constant tensor:
#      x y z
#    x 1.885390 0.000000 0.741740 
#    y 0.000000 1.799660 0.000000 
#    z 0.741740 0.000000 6.693170 
# 
# From -- ./inp_files/47175.got.cif
#   From: 2010.05.17/outbox.cif.g08.bks.cpg/sg15_24_cif.got.tgz:47175.got - 2010.06.03 18:47:42.
