data_PCOD9269550
_publ_section_title
;
Structure prediction by ZEFSAII (Michael W. Deem and Ramdas Pophale) SiO2 
 PCOD9269550
Probable space group: C 2/C
;
_chemical_formula_sum "Si O2"
_cell_formula_units_Z 56
_cell_length_a 13.085063
_cell_length_b 19.175714
_cell_length_c 12.611667
_cell_angle_alpha 90.000000
_cell_angle_beta 108.048663
_cell_angle_gamma 90.000000
_cell_volume 3008.750389
_symmetry_space_group_name_H-M "C 2/C"
_symmetry_group_IT_number 15
_symmetry_cell_setting 'monoclinic'
loop_
_space_group_symop_operation_xyz
x,y,z
-x,y,1/2-z
-x,-y,-z
x,-y,1/2+z
1/2+x,1/2+y,z
1/2-x,1/2+y,1/2-z
1/2-x,1/2-y,-z
1/2+x,1/2-y,1/2+z
loop_
_atom_site_type_symbol
_atom_site_label
_atom_site_fract_x
_atom_site_fract_y
_atom_site_fract_z
Si Si1 0.744768 0.055909 0.033333
Si Si2 0.807147 0.926778 0.204515
Si Si3 0.443262 0.572755 0.957206
Si Si4 0.868104 0.329708 0.610935
Si Si5 0.369143 0.671184 0.545329
Si Si6 0.087995 0.607438 0.155820
Si Si7 0.383227 0.042862 0.722404
O O1 0.669585 0.103980 0.083732
O O2 0.786503 0.991077 0.117816
O O3 0.850392 0.088564 0.012994
O O4 0.672190 0.032724 0.909598
O O5 0.888020 0.941144 0.326002
O O6 0.853804 0.862814 0.155278
O O7 0.694454 0.913328 0.226812
O O8 0.531192 0.633332 0.977618
O O9 0.500000 0.500000 0.000000
O O10 0.744065 0.347025 0.547655
O O11 0.884134 0.253142 0.567089
O O12 0.883205 0.336962 0.742842
O O13 0.962192 0.378325 0.591395
O O14 0.101013 0.532137 0.216289
O O15 0.500000 0.075524 0.750000
#
# Coordination Sequence:
#
# PCOD9269550 Si02
#       7
#     8   8   8   8   8   8   8
#     4  10  22  37  58  92 123 155 187 249 311 343
#     4  10  22  34  59  86 117 155 190 245 299 351
#     4  11  23  37  58  90 122 151 195 244 302 361
#     4  10  23  40  61  86 112 162 202 246 275 361
#     4  11  23  40  63  84 119 154 207 239 292 348
#     4  10  21  38  63  86 124 154 199 241 297 355
#     4  10  20  34  57  91 121 151 188 247 302 351
#
# _framework density 18.612378
#
# number of rings (size 3 to 8) (size 9 to 14) (size 15 to 20)
#    0.000    1.714    2.857    1.286   10.000    1.143 
#    0.000    0.714    0.000    0.000    0.000    0.000 
#    0.000    0.000    0.000    0.000    0.000    0.000 
#
# Total GULP energy -156176.532435 kJ/mol
# GULP energy per Si atom -5577.733301 kJ/mol
# Density = 1.857002 g / cm^3
# Si number density = 18.612378 Si / 1000 Ang^3
#
#
#
# Elastic Constant Matrix: (Units=GPa)
#
#
# Indices 1 2 3 4 5 6 
#
# 1 187.1677 52.1514 61.1549 0.0000 -5.6416 0.0000
# 2 52.1514 38.9431 8.5223 0.0000 -3.4398 0.0000
# 3 61.1549 8.5223 60.3102 0.0000 -11.8596 0.0000
# 4 0.0000 0.0000 0.0000 20.1472 0.0000 2.2646
# 5 -5.6416 -3.4398 -11.8596 0.0000 24.1049 0.0000
# 6 0.0000 0.0000 0.0000 2.2646 0.0000 24.6419
#
#
#
# Elastic Compliance Matrix: (Units=1/GPa)
#
#
# Indices 1 2 3 4 5 6 
#
# 1 0.013942 -0.016327 -0.012894 0.000000 -0.005411 0.000000
# 2 -0.016327 0.045718 0.011765 0.000000 0.008491 0.000000
# 3 -0.012894 0.011765 0.030700 0.000000 0.013765 0.000000
# 4 0.000000 0.000000 0.000000 0.050153 0.000000 -0.004609
# 5 -0.005411 0.008491 0.013765 0.000000 0.048203 0.000000
# 6 0.000000 0.000000 0.000000 -0.004609 0.000000 0.041005
#
#
# Mechanical properties :
#
#
# Convention : Reuss Voigt Hill
#
# Bulk Modulus (GPa) = 18.03488 58.89757 38.46622
# Shear Modulus (GPa) = 17.66063 24.75163 21.20613
#
# Velocity S-wave (km/s) = 3.08371 3.65066 3.37910
# Velocity P-wave (km/s) = 4.73178 7.03440 5.99469
#
# Compressibility (1/GPa) = 0.05544812
#
# Stress axis : x y z
#
# Youngs Moduli (GPa) = 71.72630 21.87311 32.57333
#
# Poissons Ratio (x) = 0.35712 0.42000
# Poissons Ratio (y) = 1.17106 -0.38322
# Poissons Ratio (z) = 0.92484 -0.25733
#
# Static dielectric constant tensor:
#      x y z
#    x 1.733790 0.000000 0.086230 
#    y 0.000000 1.622910 0.000000 
#    z 0.086230 0.000000 1.768470 
# 
# From -- ./inp_files/89642.got.cif
#   From: 2010.05.17/outbox.cif.g08.bks.cpg/sg15_45_cif.got.tgz:89642.got - 2010.06.03 18:47:42.
