data_PCOD9269093
_publ_section_title
;
Structure prediction by ZEFSAII (Michael W. Deem and Ramdas Pophale) SiO2 
 PCOD9269093
Probable space group: C 2/C
;
_chemical_formula_sum "Si O2"
_cell_formula_units_Z 64
_cell_length_a 22.608139
_cell_length_b 15.933767
_cell_length_c 9.099693
_cell_angle_alpha 90.000000
_cell_angle_beta 109.658086
_cell_angle_gamma 90.000000
_cell_volume 3086.955560
_symmetry_space_group_name_H-M "C 2/C"
_symmetry_group_IT_number 15
_symmetry_cell_setting 'monoclinic'
loop_
_space_group_symop_operation_xyz
x,y,z
-x,y,1/2-z
-x,-y,-z
x,-y,1/2+z
1/2+x,1/2+y,z
1/2-x,1/2+y,1/2-z
1/2-x,1/2-y,-z
1/2+x,1/2-y,1/2+z
loop_
_atom_site_type_symbol
_atom_site_label
_atom_site_fract_x
_atom_site_fract_y
_atom_site_fract_z
Si Si1 0.958116 0.444993 0.358592
Si Si2 0.217516 0.593063 0.021811
Si Si3 0.661799 0.943237 0.793252
Si Si4 0.700161 0.383216 0.421489
Si Si5 0.666922 0.209521 0.453529
Si Si6 0.874664 0.706477 0.754295
Si Si7 0.351506 0.505925 0.868118
Si Si8 0.868926 0.114711 0.135230
O O1 0.892634 0.494107 0.300402
O O2 0.934125 0.349501 0.352006
O O3 0.000000 0.445232 0.250000
O O4 0.000000 0.500000 0.500000
O O5 0.203742 0.502506 0.935223
O O6 0.173088 0.657032 0.894365
O O7 0.196271 0.588018 0.173943
O O8 0.291363 0.615749 0.072257
O O9 0.627924 0.866449 0.850488
O O10 0.658119 0.298815 0.368705
O O11 0.765539 0.336735 0.511851
O O12 0.675983 0.439566 0.536755
O O13 0.697535 0.439650 0.272265
O O14 0.660061 0.224015 0.620626
O O15 0.891759 0.793091 0.690507
O O16 0.387346 0.450332 0.778768
O O17 0.387206 0.574202 0.995760
#
# Coordination Sequence:
#
# PCOD9269093 Si02
#       8
#     8   8   8   8   8   8   8   8
#     4  11  23  43  63  84 115 154 203 264 305 343
#     4  11  21  33  52  84 120 162 191 241 288 369
#     4  11  22  36  59  84 117 159 202 238 306 362
#     4  10  21  34  52  75 120 164 196 231 279 345
#     4  11  21  34  51  83 116 152 197 243 281 352
#     4  11  23  36  56  86 116 152 206 250 306 358
#     4  10  20  34  50  73 110 164 195 225 280 343
#     4  11  20  34  54  82 122 160 199 236 288 367
#
# _framework density 20.732400999999999
#
# number of rings (size 3 to 8) (size 9 to 14) (size 15 to 20)
#    0.000    1.250    1.250    7.875    3.500    1.000 
#    0.000    0.000    0.000    0.000    0.000    0.875 
#    0.000    0.000    0.000    0.000    0.000    0.000 
#
# Total GULP energy -178455.454591 kJ/mol
# GULP energy per Si atom -5576.732956 kJ/mol
# Density = 2.068521 g / cm^3
# Si number density = 20.732401 Si / 1000 Ang^3
#
#
#
# Elastic Constant Matrix: (Units=GPa)
#
#
# Indices 1 2 3 4 5 6 
#
# 1 11.4304 0.0163 0.8903 0.0000 2.5203 0.0000
# 2 0.0163 165.9769 46.8029 0.0000 8.7696 0.0000
# 3 0.8903 46.8029 89.9412 0.0000 -6.6402 0.0000
# 4 0.0000 0.0000 0.0000 41.0585 0.0000 -3.0012
# 5 2.5203 8.7696 -6.6402 0.0000 19.2759 0.0000
# 6 0.0000 0.0000 0.0000 -3.0012 0.0000 18.4998
#
#
#
# Elastic Compliance Matrix: (Units=1/GPa)
#
#
# Indices 1 2 3 4 5 6 
#
# 1 0.090648 0.001444 -0.002640 0.000000 -0.013419 0.000000
# 2 0.001444 0.007504 -0.004295 0.000000 -0.005082 0.000000
# 3 -0.002640 -0.004295 0.013903 0.000000 0.007088 0.000000
# 4 0.000000 0.000000 0.000000 0.024648 0.000000 0.003999
# 5 -0.013419 -0.005082 0.007088 0.000000 0.058387 0.000000
# 6 0.000000 0.000000 0.000000 0.003999 0.000000 0.054703
#
#
# Mechanical properties :
#
#
# Convention : Reuss Voigt Hill
#
# Bulk Modulus (GPa) = 9.89361 40.30752 25.10056
# Shear Modulus (GPa) = 16.97999 30.40944 23.69471
#
# Velocity S-wave (km/s) = 2.86494 3.83398 3.38432
# Velocity P-wave (km/s) = 3.96563 6.25166 5.23495
#
# Compressibility (1/GPa) = 0.10107532
#
# Stress axis : x y z
#
# Youngs Moduli (GPa) = 11.03169 133.25648 71.92905
#
# Poissons Ratio (x) = -0.19248 0.18987
# Poissons Ratio (y) = -0.01593 0.30890
# Poissons Ratio (z) = 0.02912 0.57228
#
# Static dielectric constant tensor:
#      x y z
#    x 1.800450 0.000000 0.055930 
#    y 0.000000 1.764980 0.000000 
#    z 0.055930 0.000000 1.798830 
# 
# From -- ./inp_files/66251.got.cif
#   From: 2010.05.17/outbox.cif.g08.bks.cpg/sg15_34_cif.got.tgz:66251.got - 2010.06.03 18:47:42.
