data_PCOD9269388
_publ_section_title
;
Structure prediction by ZEFSAII (Michael W. Deem and Ramdas Pophale) SiO2 
 PCOD9269388
Probable space group: C 2/C
;
_chemical_formula_sum "Si O2"
_cell_formula_units_Z 44
_cell_length_a 9.711317
_cell_length_b 17.195300
_cell_length_c 19.441283
_cell_angle_alpha 90.000000
_cell_angle_beta 39.961339
_cell_angle_gamma 90.000000
_cell_volume 2085.118923
_symmetry_space_group_name_H-M "C 2/C"
_symmetry_group_IT_number 15
_symmetry_cell_setting 'monoclinic'
loop_
_space_group_symop_operation_xyz
x,y,z
-x,y,1/2-z
-x,-y,-z
x,-y,1/2+z
1/2+x,1/2+y,z
1/2-x,1/2+y,1/2-z
1/2-x,1/2-y,-z
1/2+x,1/2-y,1/2+z
loop_
_atom_site_type_symbol
_atom_site_label
_atom_site_fract_x
_atom_site_fract_y
_atom_site_fract_z
Si Si1 0.987367 0.826399 0.642192
Si Si2 0.066356 0.999128 0.892612
Si Si3 0.005227 0.294805 0.824147
Si Si4 0.791181 0.786104 0.082301
Si Si5 0.362690 0.347755 0.440197
Si Si6 0.000000 0.585198 0.750000
O O1 0.066638 0.789453 0.540255
O O2 0.163661 0.795155 0.628498
O O3 0.753299 0.793994 0.748534
O O4 0.966858 0.917035 0.631424
O O5 0.309573 0.030723 0.795742
O O6 0.923009 0.063522 0.909406
O O7 0.000000 0.000000 0.000000
O O8 0.889379 0.210118 0.866129
O O9 0.000000 0.330739 0.750000
O O10 0.861130 0.340097 0.934518
O O11 0.612024 0.855043 0.153220
O O12 0.955792 0.810147 0.078919
#
# Coordination Sequence:
#
# PCOD9269388 Si02
#       6
#     8   8   8   8   8   4
#     4  11  21  32  59  85 117 148 196 235 303 344
#     4  11  20  34  54  90 116 151 193 256 290 344
#     4  11  21  38  62  85 113 161 195 239 287 369
#     4  10  20  37  53  87 113 157 190 244 285 359
#     4  10  22  39  61  86 121 149 205 243 294 342
#     4  10  20  34  56  78 124 148 202 246 294 332
#
# _framework density 21.101915000000002
#
# number of rings (size 3 to 8) (size 9 to 14) (size 15 to 20)
#    0.000    1.455    5.455    2.182    3.818    0.000 
#    0.000    0.000    6.000    2.182    0.000    0.000 
#    0.000    0.000    0.000    0.000    0.000    0.000 
#
# Total GULP energy -122730.948405 kJ/mol
# GULP energy per Si atom -5578.679473 kJ/mol
# Density = 2.105389 g / cm^3
# Si number density = 21.101915 Si / 1000 Ang^3
#
#
#
# Elastic Constant Matrix: (Units=GPa)
#
#
# Indices 1 2 3 4 5 6 
#
# 1 42.8579 11.8243 22.8653 0.0007 -11.7974 0.0013
# 2 11.8243 125.5312 38.9995 -0.0011 -20.9052 -0.0034
# 3 22.8653 38.9995 151.4902 0.0104 -28.6121 -0.0203
# 4 0.0007 -0.0011 0.0104 24.4354 -0.0058 -5.9094
# 5 -11.7974 -20.9052 -28.6121 -0.0058 34.1130 0.0030
# 6 0.0013 -0.0034 -0.0203 -5.9094 0.0030 34.1228
#
#
#
# Elastic Compliance Matrix: (Units=1/GPa)
#
#
# Indices 1 2 3 4 5 6 
#
# 1 0.026734 -0.000591 -0.002620 0.000001 0.006686 -0.000003
# 2 -0.000591 0.009178 -0.001485 0.000002 0.004175 0.000000
# 3 -0.002620 -0.001485 0.008360 -0.000001 0.005196 0.000004
# 4 0.000001 0.000002 -0.000001 0.042713 0.000007 0.007397
# 5 0.006686 0.004175 0.005196 0.000007 0.038543 0.000001
# 6 -0.000003 0.000000 0.000004 0.007397 0.000001 0.030587
#
#
# Mechanical properties :
#
#
# Convention : Reuss Voigt Hill
#
# Bulk Modulus (GPa) = 28.66935 51.91749 40.29342
# Shear Modulus (GPa) = 28.22701 34.94692 31.58696
#
# Velocity S-wave (km/s) = 3.66136 4.07394 3.87315
# Velocity P-wave (km/s) = 5.61157 6.84002 6.25602
#
# Compressibility (1/GPa) = 0.03488045
#
# Stress axis : x y z
#
# Youngs Moduli (GPa) = 37.40514 108.95076 119.61328
#
# Poissons Ratio (x) = 0.06436 0.31343
# Poissons Ratio (y) = 0.02210 0.17766
# Poissons Ratio (z) = 0.09801 0.16182
#
# Static dielectric constant tensor:
#      x y z
#    x 1.846500 0.000000 0.030420 
#    y 0.000000 1.797340 0.000000 
#    z 0.030420 0.000000 1.779240 
# 
# From -- ./inp_files/269670.got.cif
#   From: 2010.05.17/outbox.cif.g08.bks.cpg/sg15_135_cif.got.tgz:269670.got - 2010.06.03 18:47:42.
