data_PCOD9269809
_publ_section_title
;
Structure prediction by ZEFSAII (Michael W. Deem and Ramdas Pophale) SiO2 
 PCOD9269809
Probable space group: C 2/C
;
_chemical_formula_sum "Si O2"
_cell_formula_units_Z 52
_cell_length_a 6.384988
_cell_length_b 18.625173
_cell_length_c 16.953691
_cell_angle_alpha 90.000000
_cell_angle_beta 79.731982
_cell_angle_gamma 90.000000
_cell_volume 1983.869066
_symmetry_space_group_name_H-M "C 2/C"
_symmetry_group_IT_number 15
_symmetry_cell_setting 'monoclinic'
loop_
_space_group_symop_operation_xyz
x,y,z
-x,y,1/2-z
-x,-y,-z
x,-y,1/2+z
1/2+x,1/2+y,z
1/2-x,1/2+y,1/2-z
1/2-x,1/2-y,-z
1/2+x,1/2-y,1/2+z
loop_
_atom_site_type_symbol
_atom_site_label
_atom_site_fract_x
_atom_site_fract_y
_atom_site_fract_z
Si Si1 0.000000 0.349357 0.250000
Si Si2 0.640875 0.642697 0.166137
Si Si3 0.000000 0.430425 0.750000
Si Si4 0.137658 0.113715 0.893847
Si Si5 0.750000 0.750000 0.000000
Si Si6 0.192240 0.045597 0.406723
Si Si7 0.955305 0.325419 0.944037
Si Si8 0.668217 0.287371 0.167509
O O1 0.193150 0.386263 0.189866
O O2 0.110116 0.302414 0.308714
O O3 0.500000 0.667606 0.250000
O O4 0.838925 0.608943 0.200796
O O5 0.502392 0.589292 0.121014
O O6 0.779558 0.688715 0.093083
O O7 0.152499 0.468021 0.678232
O O8 0.196045 0.175049 0.951413
O O9 0.916058 0.142200 0.872428
O O10 0.129933 0.035427 0.934484
O O11 0.019213 0.724364 0.982930
O O12 0.337622 0.097587 0.453807
O O13 0.849890 0.285884 0.878444
O O14 0.500000 0.277188 0.250000
#
# Coordination Sequence:
#
# PCOD9269809 Si02
#       8
#     4   8   4   8   4   8   8   8
#     4  10  21  42  70  92 120 171 210 250 318 377
#     4   9  19  34  57  93 127 158 195 254 313 370
#     4   8  17  32  52  92 130 149 186 254 314 369
#     4  10  22  42  63  92 125 163 207 266 313 382
#     4  10  24  48  60  78 134 168 206 272 316 358
#     4  10  20  34  61  92 122 158 207 258 318 373
#     4  10  22  40  59  89 123 167 209 261 309 373
#     4   9  21  36  58  90 127 159 208 256 311 375
#
# _framework density 26.211406
#
# number of rings (size 3 to 8) (size 9 to 14) (size 15 to 20)
#    0.000    2.462    0.000    0.462    6.462   12.308 
#    5.538    7.692    0.000    0.000    0.000    0.000 
#    0.000    0.000    0.000    0.000    0.000    0.000 
#
# Total GULP energy -144776.694418 kJ/mol
# GULP energy per Si atom -5568.334401 kJ/mol
# Density = 2.615175 g / cm^3
# Si number density = 26.211406 Si / 1000 Ang^3
#
#
#
# Elastic Constant Matrix: (Units=GPa)
#
#
# Indices 1 2 3 4 5 6 
#
# 1 128.9633 73.1850 26.0624 0.0000 17.6734 0.0000
# 2 73.1850 218.9982 53.5414 0.0000 13.4934 0.0000
# 3 26.0624 53.5414 120.5401 0.0000 7.1685 0.0000
# 4 0.0000 0.0000 0.0000 -335.9891 0.0000 -229.3154
# 5 17.6734 13.4934 7.1685 0.0000 40.8585 0.0000
# 6 0.0000 0.0000 0.0000 -229.3154 0.0000 -158.4041
#
#
#
# Elastic Compliance Matrix: (Units=1/GPa)
#
#
# Indices 1 2 3 4 5 6 
#
# 1 0.010027 -0.002994 -0.000646 0.000000 -0.003235 0.000000
# 2 -0.002994 0.006086 -0.002035 0.000000 -0.000358 0.000000
# 3 -0.000646 -0.002035 0.009381 0.000000 -0.000694 0.000000
# 4 0.000000 0.000000 0.000000 -0.248882 0.000000 0.360297
# 5 -0.003235 -0.000358 -0.000694 0.000000 0.026114 0.000000
# 6 0.000000 0.000000 0.000000 0.360297 0.000000 -0.527901
#
#
# Mechanical properties :
#
#
# Convention : Reuss Voigt Hill
#
# Bulk Modulus (GPa) = 70.69479 86.00880 78.35179
# Shear Modulus (GPa) = -7.05107 -69.65942 -38.35525
#
# Velocity S-wave (km/s) = -1.64193 -5.16078 -3.82947
# Velocity P-wave (km/s) = 4.84097 1.62076 3.22553
#
# Compressibility (1/GPa) = 0.01414531
#
# Stress axis : x y z
#
# Youngs Moduli (GPa) = 99.73254 164.30698 106.60113
#
# Poissons Ratio (x) = 0.49186 0.06885
# Poissons Ratio (y) = 0.29855 0.21691
# Poissons Ratio (z) = 0.06441 0.33433
#
# Static dielectric constant tensor:
#      x y z
#    x 2.226650 0.000000 -0.148170 
#    y 0.000000 2.161810 0.000000 
#    z -0.148170 0.000000 2.953060 
# 
# From -- ./inp_files/227574.got.cif
#   From: 2010.05.17/outbox.cif.g08.bks.cpg/sg15_114_cif.got.tgz:227574.got - 2010.06.03 18:47:42.
