data_PCOD9269458
_publ_section_title
;
Structure prediction by ZEFSAII (Michael W. Deem and Ramdas Pophale) SiO2 
 PCOD9269458
Probable space group: C 2/C
;
_chemical_formula_sum "Si O2"
_cell_formula_units_Z 52
_cell_length_a 20.031072
_cell_length_b 16.739333
_cell_length_c 15.014526
_cell_angle_alpha 90.000000
_cell_angle_beta 150.080141
_cell_angle_gamma 90.000000
_cell_volume 2511.135345
_symmetry_space_group_name_H-M "C 2/C"
_symmetry_group_IT_number 15
_symmetry_cell_setting 'monoclinic'
loop_
_space_group_symop_operation_xyz
x,y,z
-x,y,1/2-z
-x,-y,-z
x,-y,1/2+z
1/2+x,1/2+y,z
1/2-x,1/2+y,1/2-z
1/2-x,1/2-y,-z
1/2+x,1/2-y,1/2+z
loop_
_atom_site_type_symbol
_atom_site_label
_atom_site_fract_x
_atom_site_fract_y
_atom_site_fract_z
Si Si1 0.621722 0.084628 0.712067
Si Si2 0.705165 0.788611 0.616929
Si Si3 0.908500 0.873089 0.059730
Si Si4 0.072965 0.064924 0.426990
Si Si5 0.008584 0.811802 0.532159
Si Si6 0.000000 0.653502 0.750000
Si Si7 0.866222 0.397581 0.820398
O O1 0.557837 0.102643 0.734575
O O2 0.523078 0.121907 0.521979
O O3 0.625337 0.989981 0.695763
O O4 0.778682 0.103071 0.898979
O O5 0.858099 0.767986 0.777673
O O6 0.624292 0.735940 0.595016
O O7 0.617543 0.793535 0.427745
O O8 0.701230 0.875858 0.661761
O O9 0.000000 0.853223 0.250000
O O10 0.921508 0.968967 0.059879
O O11 0.968697 0.826603 0.045113
O O12 0.746357 0.859496 0.875587
O O13 0.000000 0.084631 0.250000
O O14 0.998035 0.104810 0.422755
#
# Coordination Sequence:
#
# PCOD9269458 Si02
#       7
#     8   8   8   8   8   4   8
#     4   9  17  33  57  80 117 155 183 240 286 338
#     4  10  23  36  56  81 122 151 194 229 292 354
#     4   9  19  39  62  84 109 147 199 258 288 329
#     4  10  20  34  60  88 117 146 200 238 293 342
#     4  11  23  38  57  85 117 159 189 238 291 353
#     4  10  20  34  56  86 120 152 188 228 298 352
#     4   8  17  35  54  78 110 146 188 235 286 327
#
# _framework density 20.707764999999998
#
# number of rings (size 3 to 8) (size 9 to 14) (size 15 to 20)
#    0.000    2.462    0.000    1.385    5.385    0.615 
#    0.000   12.308    1.692    0.000    0.000    0.000 
#    0.000    0.000    0.000    0.000    0.000    0.000 
#
# Total GULP energy -144790.412039 kJ/mol
# GULP energy per Si atom -5568.862001 kJ/mol
# Density = 2.066063 g / cm^3
# Si number density = 20.707765 Si / 1000 Ang^3
#
#
#
# Elastic Constant Matrix: (Units=GPa)
#
#
# Indices 1 2 3 4 5 6 
#
# 1 73.0731 23.8872 50.6222 0.0000 3.2652 0.0000
# 2 23.8872 43.5914 22.7972 0.0000 -2.3449 0.0000
# 3 50.6222 22.7972 201.8659 0.0000 3.4906 0.0000
# 4 0.0000 0.0000 0.0000 19.9566 0.0000 -0.9121
# 5 3.2652 -2.3449 3.4906 0.0000 38.3123 0.0000
# 6 0.0000 0.0000 0.0000 -0.9121 0.0000 20.6696
#
#
#
# Elastic Compliance Matrix: (Units=1/GPa)
#
#
# Indices 1 2 3 4 5 6 
#
# 1 0.019235 -0.008643 -0.003816 0.000000 -0.001821 0.000000
# 2 -0.008643 0.028381 -0.001082 0.000000 0.002572 0.000000
# 3 -0.003816 -0.001082 0.006038 0.000000 -0.000291 0.000000
# 4 0.000000 0.000000 0.000000 0.050210 0.000000 0.002216
# 5 -0.001821 0.002572 -0.000291 0.000000 0.026440 0.000000
# 6 0.000000 0.000000 0.000000 0.002216 0.000000 0.048478
#
#
# Mechanical properties :
#
#
# Convention : Reuss Voigt Hill
#
# Bulk Modulus (GPa) = 37.63392 57.01596 47.32494
# Shear Modulus (GPa) = 23.28596 30.53596 26.91096
#
# Velocity S-wave (km/s) = 3.35700 3.84424 3.60885
# Velocity P-wave (km/s) = 5.76535 6.87732 6.34574
#
# Compressibility (1/GPa) = 0.02657177
#
# Stress axis : x y z
#
# Youngs Moduli (GPa) = 51.98801 35.23520 165.61757
#
# Poissons Ratio (x) = 0.30453 0.63201
# Poissons Ratio (y) = 0.44932 0.17924
# Poissons Ratio (z) = 0.19839 0.03813
#
# Static dielectric constant tensor:
#      x y z
#    x 1.698280 0.000000 0.040930 
#    y 0.000000 1.812810 0.000000 
#    z 0.040930 0.000000 1.818980 
# 
# From -- ./inp_files/169026.got.cif
#   From: 2010.05.17/outbox.cif.g08.bks.cpg/sg15_85_cif.got.tgz:169026.got - 2010.06.03 18:47:42.
