data_PCOD9269952
_publ_section_title
;
Structure prediction by ZEFSAII (Michael W. Deem and Ramdas Pophale) SiO2 
 PCOD9269952
Probable space group: C 2/C
;
_chemical_formula_sum "Si O2"
_cell_formula_units_Z 44
_cell_length_a 11.020687
_cell_length_b 8.175369
_cell_length_c 20.665090
_cell_angle_alpha 90.000000
_cell_angle_beta 98.800451
_cell_angle_gamma 90.000000
_cell_volume 1839.967391
_symmetry_space_group_name_H-M "C 2/C"
_symmetry_group_IT_number 15
_symmetry_cell_setting 'monoclinic'
loop_
_space_group_symop_operation_xyz
x,y,z
-x,y,1/2-z
-x,-y,-z
x,-y,1/2+z
1/2+x,1/2+y,z
1/2-x,1/2+y,1/2-z
1/2-x,1/2-y,-z
1/2+x,1/2-y,1/2+z
loop_
_atom_site_type_symbol
_atom_site_label
_atom_site_fract_x
_atom_site_fract_y
_atom_site_fract_z
Si Si1 0.732523 0.438743 0.784083
Si Si2 0.266514 0.418909 0.083993
Si Si3 0.868461 0.419419 0.555071
Si Si4 0.702466 0.085542 0.835228
Si Si5 0.526798 0.667401 0.609143
Si Si6 0.500000 0.325591 0.250000
O O1 0.788802 0.514174 0.854219
O O2 0.688774 0.257975 0.798030
O O3 0.806097 0.451595 0.722885
O O4 0.617566 0.556204 0.761903
O O5 0.276910 0.221001 0.078814
O O6 0.413341 0.460888 0.094560
O O7 0.194554 0.476167 0.015342
O O8 0.884617 0.553738 0.611332
O O9 0.989252 0.307688 0.555380
O O10 0.838537 0.094510 0.879273
O O11 0.511694 0.749564 0.679577
#
# Coordination Sequence:
#
# PCOD9269952 Si02
#       6
#     8   8   8   8   8   4
#     4  10  20  35  51  81 103 144 178 232 269 331
#     4   8  17  37  56  72 113 141 182 223 279 332
#     4   9  18  35  58  78 104 149 180 223 280 336
#     4  11  21  33  57  81 110 139 192 226 275 334
#     4   8  17  33  54  77 101 146 173 222 272 320
#     4   8  16  34  54  66 108 140 176 214 276 322
#
# _framework density 23.913468000000002
#
# number of rings (size 3 to 8) (size 9 to 14) (size 15 to 20)
#    1.091    1.818    0.000    1.091    2.545    1.455 
#    3.273    0.909    0.000    0.000    0.000    0.000 
#    0.000    0.000    0.000    0.000    0.000    0.000 
#
# Total GULP energy -122568.741336 kJ/mol
# GULP energy per Si atom -5571.306424 kJ/mol
# Density = 2.385904 g / cm^3
# Si number density = 23.913468 Si / 1000 Ang^3
#
#
#
# Elastic Constant Matrix: (Units=GPa)
#
#
# Indices 1 2 3 4 5 6 
#
# 1 28.5421 16.4832 -0.5164 0.0000 -1.7635 0.0000
# 2 16.4832 52.2046 30.6333 0.0000 1.1392 0.0000
# 3 -0.5164 30.6333 130.7036 0.0000 8.7940 0.0000
# 4 0.0000 0.0000 0.0000 21.2821 0.0000 -3.5869
# 5 -1.7635 1.1392 8.7940 0.0000 21.7248 0.0000
# 6 0.0000 0.0000 0.0000 -3.5869 0.0000 22.6983
#
#
#
# Elastic Compliance Matrix: (Units=1/GPa)
#
#
# Indices 1 2 3 4 5 6 
#
# 1 0.044792 -0.016458 0.003836 0.000000 0.002946 0.000000
# 2 -0.016458 0.028277 -0.006685 0.000000 -0.000113 0.000000
# 3 0.003836 -0.006685 0.009445 0.000000 -0.003162 0.000000
# 4 0.000000 0.000000 0.000000 0.048274 0.000000 0.007628
# 5 0.002946 -0.000113 -0.003162 0.000000 0.047555 0.000000
# 6 0.000000 0.000000 0.000000 0.007628 0.000000 0.045262
#
#
# Mechanical properties :
#
#
# Convention : Reuss Voigt Hill
#
# Bulk Modulus (GPa) = 22.77852 33.85005 28.31428
# Shear Modulus (GPa) = 18.06019 24.13104 21.09561
#
# Velocity S-wave (km/s) = 2.75113 3.18008 2.97335
# Velocity P-wave (km/s) = 4.43144 5.26021 4.86351
#
# Compressibility (1/GPa) = 0.04390101
#
# Stress axis : x y z
#
# Youngs Moduli (GPa) = 22.32543 35.36458 105.87068
#
# Poissons Ratio (x) = 0.58203 -0.40612
# Poissons Ratio (y) = 0.36743 0.70772
# Poissons Ratio (z) = -0.08564 0.23640
#
# Static dielectric constant tensor:
#      x y z
#    x 1.964620 0.000000 -0.003130 
#    y 0.000000 1.914220 0.000000 
#    z -0.003130 0.000000 1.941580 
# 
# From -- ./inp_files/242071.got.cif
#   From: 2010.05.17/outbox.cif.g08.bks.cpg/sg15_122_cif.got.tgz:242071.got - 2010.06.03 18:47:42.
