data_PCOD9269145
_publ_section_title
;
Structure prediction by ZEFSAII (Michael W. Deem and Ramdas Pophale) SiO2 
 PCOD9269145
Probable space group: C 2/C
;
_chemical_formula_sum "Si O2"
_cell_formula_units_Z 36
_cell_length_a 10.374009
_cell_length_b 9.944444
_cell_length_c 13.794327
_cell_angle_alpha 90.000000
_cell_angle_beta 63.244839
_cell_angle_gamma 90.000000
_cell_volume 1270.717883
_symmetry_space_group_name_H-M "C 2/C"
_symmetry_group_IT_number 15
_symmetry_cell_setting 'monoclinic'
loop_
_space_group_symop_operation_xyz
x,y,z
-x,y,1/2-z
-x,-y,-z
x,-y,1/2+z
1/2+x,1/2+y,z
1/2-x,1/2+y,1/2-z
1/2-x,1/2-y,-z
1/2+x,1/2-y,1/2+z
loop_
_atom_site_type_symbol
_atom_site_label
_atom_site_fract_x
_atom_site_fract_y
_atom_site_fract_z
Si Si1 0.459240 0.736143 0.044890
Si Si2 0.261682 0.948890 0.801819
Si Si3 0.718567 0.543049 0.599499
Si Si4 0.500000 0.162253 0.750000
Si Si5 0.750000 0.250000 0.500000
Si Si6 0.000000 0.773002 0.250000
O O1 0.361507 0.604764 0.085402
O O2 0.622241 0.738601 0.956821
O O3 0.360015 0.860615 0.042718
O O4 0.495055 0.762047 0.149874
O O5 0.208589 0.992660 0.714544
O O6 0.361170 0.069607 0.803426
O O7 0.371803 0.822843 0.757372
O O8 0.728950 0.410117 0.534476
O O9 0.577206 0.637874 0.640969
#
# Coordination Sequence:
#
# PCOD9269145 Si02
#       6
#     8   8   8   4   4   4
#     4  10  20  34  52  75 103 134 169 209 252 299
#     4   9  18  35  58  78  96 127 174 219 252 288
#     4  10  20  34  52  75 103 134 169 209 252 299
#     4   9  18  35  58  78  96 127 174 219 252 288
#     4  12  22  34  50  74 112 144 162 196 254 312
#     4   9  18  35  58  78  96 127 174 219 252 288
#
# _framework density 28.330442000000001
#
# number of rings (size 3 to 8) (size 9 to 14) (size 15 to 20)
#    0.000    2.222    0.000    3.333    0.000    0.000 
#    0.000    4.444    0.000   10.667    0.000    0.000 
#    0.000    0.000    0.000    0.000    0.000    0.000 
#
# Total GULP energy -100537.369544 kJ/mol
# GULP energy per Si atom -5585.409419 kJ/mol
# Density = 2.826596 g / cm^3
# Si number density = 28.330442 Si / 1000 Ang^3
#
#
#
# Elastic Constant Matrix: (Units=GPa)
#
#
# Indices 1 2 3 4 5 6 
#
# 1 152.5367 67.7534 25.9295 0.0000 -70.3184 0.0000
# 2 67.7534 142.1547 31.1908 0.0000 -24.2989 0.0000
# 3 25.9295 31.1908 101.3801 0.0000 -21.1959 0.0000
# 4 0.0000 0.0000 0.0000 40.3737 0.0000 -11.8039
# 5 -70.3184 -24.2989 -21.1959 0.0000 101.8169 0.0000
# 6 0.0000 0.0000 0.0000 -11.8039 0.0000 47.7427
#
#
#
# Elastic Compliance Matrix: (Units=1/GPa)
#
#
# Indices 1 2 3 4 5 6 
#
# 1 0.011780 -0.004366 -0.000195 0.000000 0.007053 0.000000
# 2 -0.004366 0.009351 -0.002012 0.000000 -0.001202 0.000000
# 3 -0.000195 -0.002012 0.010878 0.000000 0.001650 0.000000
# 4 0.000000 0.000000 0.000000 0.026698 0.000000 0.006601
# 5 0.007053 -0.001202 0.001650 0.000000 0.014749 0.000000
# 6 0.000000 0.000000 0.000000 0.006601 0.000000 0.022578
#
#
# Mechanical properties :
#
#
# Convention : Reuss Voigt Hill
#
# Bulk Modulus (GPa) = 53.01385 71.75764 62.38575
# Shear Modulus (GPa) = 43.30252 56.06651 49.68451
#
# Velocity S-wave (km/s) = 3.91382 4.45344 4.19232
# Velocity P-wave (km/s) = 6.25918 7.19917 6.74556
#
# Compressibility (1/GPa) = 0.01886299
#
# Stress axis : x y z
#
# Youngs Moduli (GPa) = 84.89318 106.93614 91.93207
#
# Poissons Ratio (x) = 0.46688 0.01793
# Poissons Ratio (y) = 0.37064 0.18495
# Poissons Ratio (z) = 0.01655 0.21513
#
# Static dielectric constant tensor:
#      x y z
#    x 2.484040 0.000000 -0.619250 
#    y 0.000000 2.073500 0.000000 
#    z -0.619250 0.000000 3.381550 
# 
# From -- ./inp_files/141319.got.cif
#   From: 2010.05.17/outbox.cif.g08.bks.cpg/sg15_71_cif.got.tgz:141319.got - 2010.06.03 18:47:42.
