data_PCOD9269936
_publ_section_title
;
Structure prediction by ZEFSAII (Michael W. Deem and Ramdas Pophale) SiO2 
 PCOD9269936
Probable space group: C 2/C
;
_chemical_formula_sum "Si O2"
_cell_formula_units_Z 52
_cell_length_a 23.412432
_cell_length_b 10.656345
_cell_length_c 19.309369
_cell_angle_alpha 90.000000
_cell_angle_beta 157.484519
_cell_angle_gamma 90.000000
_cell_volume 1844.784874
_symmetry_space_group_name_H-M "C 2/C"
_symmetry_group_IT_number 15
_symmetry_cell_setting 'monoclinic'
loop_
_space_group_symop_operation_xyz
x,y,z
-x,y,1/2-z
-x,-y,-z
x,-y,1/2+z
1/2+x,1/2+y,z
1/2-x,1/2+y,1/2-z
1/2-x,1/2-y,-z
1/2+x,1/2-y,1/2+z
loop_
_atom_site_type_symbol
_atom_site_label
_atom_site_fract_x
_atom_site_fract_y
_atom_site_fract_z
Si Si1 0.943639 0.354536 0.992237
Si Si2 0.500000 0.146693 0.250000
Si Si3 0.204366 0.983911 0.371945
Si Si4 0.932456 0.365908 0.827264
Si Si5 0.646088 0.493174 0.005033
Si Si6 0.325964 0.485686 0.311572
Si Si7 0.876425 0.734819 0.556985
O O1 0.980730 0.308682 0.956179
O O2 0.767981 0.386578 0.790100
O O3 0.960348 0.267983 0.076839
O O4 0.010286 0.489489 0.092702
O O5 0.514101 0.194150 0.185296
O O6 0.659815 0.075256 0.433497
O O7 0.250821 0.129417 0.416162
O O8 0.030196 0.976491 0.196990
O O9 0.218152 0.922980 0.310068
O O10 0.755068 0.389346 0.619041
O O11 0.676252 0.376386 0.988171
O O12 0.695788 0.436049 0.135800
O O13 0.500000 0.500000 0.500000
O O14 0.000000 0.697811 0.750000
#
# Coordination Sequence:
#
# PCOD9269936 Si02
#       7
#     8   4   8   8   8   8   8
#     4   9  18  35  52  72 106 149 185 223 258 327
#     4  12  20  34  56  78 104 142 186 238 278 300
#     4  10  20  35  50  72 111 148 182 226 266 325
#     4  10  20  35  54  75 105 147 192 224 264 318
#     4  10  23  32  52  77 111 151 186 216 269 337
#     4   8  15  34  52  70  97 146 193 225 256 308
#     4  11  21  33  51  81 118 151 172 218 280 335
#
# _framework density 28.187567000000001
#
# number of rings (size 3 to 8) (size 9 to 14) (size 15 to 20)
#    0.000    2.154    3.846    0.000    4.308    0.615 
#    0.000    0.000    0.000    0.000    0.000    1.077 
#    0.000    0.000    0.000    0.000    0.000    0.000 
#
# Total GULP energy -145130.296432 kJ/mol
# GULP energy per Si atom -5581.934478 kJ/mol
# Density = 2.812341 g / cm^3
# Si number density = 28.187567 Si / 1000 Ang^3
#
#
#
# Elastic Constant Matrix: (Units=GPa)
#
#
# Indices 1 2 3 4 5 6 
#
# 1 193.0942 21.3585 52.5514 -0.0003 -36.9909 -0.0002
# 2 21.3585 88.1317 46.0727 -0.0003 -1.7321 -0.0003
# 3 52.5514 46.0727 191.0635 -0.0005 6.4445 -0.0006
# 4 -0.0003 -0.0003 -0.0005 29.5280 -0.0003 5.0682
# 5 -36.9909 -1.7321 6.4445 -0.0003 58.4682 -0.0003
# 6 -0.0002 -0.0003 -0.0006 5.0682 -0.0003 -1.4563
#
#
#
# Elastic Compliance Matrix: (Units=1/GPa)
#
#
# Indices 1 2 3 4 5 6 
#
# 1 0.006566 -0.000555 -0.001818 0.000000 0.004338 -0.000001
# 2 -0.000555 0.013062 -0.003009 0.000000 0.000367 -0.000001
# 3 -0.001818 -0.003009 0.006526 0.000000 -0.001959 -0.000001
# 4 0.000000 0.000000 0.000000 0.021202 0.000001 0.073785
# 5 0.004338 0.000367 -0.001959 0.000001 0.020075 -0.000002
# 6 -0.000001 -0.000001 -0.000001 0.073785 -0.000002 -0.429887
#
#
# Mechanical properties :
#
#
# Convention : Reuss Voigt Hill
#
# Bulk Modulus (GPa) = 64.98842 79.13940 72.06391
# Shear Modulus (GPa) = -14.42746 40.79512 13.18383
#
# Velocity S-wave (km/s) = -2.26484 3.80843 2.16502
# Velocity P-wave (km/s) = 4.03317 6.89027 5.64545
#
# Compressibility (1/GPa) = 0.01538736
#
# Stress axis : x y z
#
# Youngs Moduli (GPa) = 152.29490 76.56003 153.23957
#
# Poissons Ratio (x) = 0.04252 0.27865
# Poissons Ratio (y) = 0.08459 0.46114
# Poissons Ratio (z) = 0.27693 0.23039
#
# Static dielectric constant tensor:
#      x y z
#    x 2.362660 0.000000 -0.024140 
#    y 0.000000 2.161630 0.000000 
#    z -0.024140 0.000000 2.157650 
# 
# From -- ./inp_files/257830.got.cif
#   From: 2010.05.17/outbox.cif.g08.bks.cpg/sg15_129_cif.got.tgz:257830.got - 2010.06.03 18:47:42.
