data_PCOD9269030
_publ_section_title
;
Structure prediction by ZEFSAII (Michael W. Deem and Ramdas Pophale) SiO2 
 PCOD9269030
Probable space group: C 2/C
;
_chemical_formula_sum "Si O2"
_cell_formula_units_Z 40
_cell_length_a 19.160979
_cell_length_b 9.437887
_cell_length_c 13.997847
_cell_angle_alpha 90.000000
_cell_angle_beta 141.574767
_cell_angle_gamma 90.000000
_cell_volume 1573.221426
_symmetry_space_group_name_H-M "C 2/C"
_symmetry_group_IT_number 15
_symmetry_cell_setting 'monoclinic'
loop_
_space_group_symop_operation_xyz
x,y,z
-x,y,1/2-z
-x,-y,-z
x,-y,1/2+z
1/2+x,1/2+y,z
1/2-x,1/2+y,1/2-z
1/2-x,1/2-y,-z
1/2+x,1/2-y,1/2+z
loop_
_atom_site_type_symbol
_atom_site_label
_atom_site_fract_x
_atom_site_fract_y
_atom_site_fract_z
Si Si1 0.309527 0.798038 0.250784
Si Si2 0.365489 0.506507 0.865837
Si Si3 0.167507 0.489603 0.399315
Si Si4 0.041740 0.597614 0.424690
Si Si5 0.616445 0.609687 0.910912
O O1 0.320122 0.629089 0.260689
O O2 0.311298 0.852079 0.143382
O O3 0.415793 0.869990 0.422987
O O4 0.205001 0.847829 0.207364
O O5 0.500000 0.500000 0.000000
O O6 0.343954 0.465296 0.951714
O O7 0.099765 0.471077 0.426016
O O8 0.280342 0.576638 0.546385
O O9 0.088747 0.581980 0.241576
O O10 0.086445 0.734704 0.414776
O O11 0.500000 0.546252 0.750000
#
# Coordination Sequence:
#
# PCOD9269030 Si02
#       5
#     8   8   8   8   8
#     4  10  23  41  63  94 130 169 218 270 318 394
#     4  10  24  42  67  96 130 174 215 267 333 384
#     4  10  20  35  55  93 123 163 218 267 329 368
#     4  10  20  33  61  89 124 169 213 275 316 380
#     4  10  20  34  60  90 123 163 218 272 310 383
#
# _framework density 25.425538
#
# number of rings (size 3 to 8) (size 9 to 14) (size 15 to 20)
#    0.000    2.000    2.000    1.200    2.800    9.600 
#    0.000    1.000    4.400    0.000    0.000    0.000 
#    0.000    0.000    0.000    0.000    0.000    0.000 
#
# Total GULP energy -111497.013388 kJ/mol
# GULP energy per Si atom -5574.850669 kJ/mol
# Density = 2.536767 g / cm^3
# Si number density = 25.425538 Si / 1000 Ang^3
#
#
#
# Elastic Constant Matrix: (Units=GPa)
#
#
# Indices 1 2 3 4 5 6 
#
# 1 56.3338 31.4255 13.5915 0.0000 5.3708 0.0000
# 2 31.4255 85.9366 27.3859 0.0000 10.2730 0.0000
# 3 13.5915 27.3859 109.8034 0.0000 27.1039 0.0000
# 4 0.0000 0.0000 0.0000 -55.9502 0.0000 181.2793
# 5 5.3708 10.2730 27.1039 0.0000 65.2578 0.0000
# 6 0.0000 0.0000 0.0000 181.2793 0.0000 -358.4751
#
#
#
# Elastic Compliance Matrix: (Units=1/GPa)
#
#
# Indices 1 2 3 4 5 6 
#
# 1 0.022369 -0.007914 -0.000722 0.000000 -0.000295 0.000000
# 2 -0.007914 0.015475 -0.002718 0.000000 -0.000656 0.000000
# 3 -0.000722 -0.002718 0.010868 0.000000 -0.004027 0.000000
# 4 0.000000 0.000000 0.000000 0.027994 0.000000 0.014156
# 5 -0.000295 -0.000656 -0.004027 0.000000 0.017124 0.000000
# 6 0.000000 0.000000 0.000000 0.014156 0.000000 0.004369
#
#
# Mechanical properties :
#
#
# Convention : Reuss Voigt Hill
#
# Bulk Modulus (GPa) = 38.45675 44.09773 41.27724
# Shear Modulus (GPa) = 38.58730 -57.85544 -9.63407
#
# Velocity S-wave (km/s) = 3.89994 -4.77538 -1.94868
# Velocity P-wave (km/s) = 5.95294 3.60890 3.34763
#
# Compressibility (1/GPa) = 0.02600324
#
# Stress axis : x y z
#
# Youngs Moduli (GPa) = 44.70530 64.61931 92.00957
#
# Poissons Ratio (x) = 0.51143 0.06643
# Poissons Ratio (y) = 0.35382 0.25009
# Poissons Ratio (z) = 0.03228 0.17564
#
# Static dielectric constant tensor:
#      x y z
#    x 1.734210 0.000000 -0.138410 
#    y 0.000000 2.140920 0.000000 
#    z -0.138410 0.000000 2.002500 
# 
# From -- ./inp_files/218816.got.cif
#   From: 2010.05.17/outbox.cif.g08.bks.cpg/sg15_110_cif.got.tgz:218816.got - 2010.06.03 18:47:42.
