data_PCOD9269675
_publ_section_title
;
Structure prediction by ZEFSAII (Michael W. Deem and Ramdas Pophale) SiO2 
 PCOD9269675
Probable space group: C 2/C
;
_chemical_formula_sum "Si O2"
_cell_formula_units_Z 52
_cell_length_a 33.330687
_cell_length_b 10.650781
_cell_length_c 9.324402
_cell_angle_alpha 90.000000
_cell_angle_beta 41.023129
_cell_angle_gamma 90.000000
_cell_volume 2172.657256
_symmetry_space_group_name_H-M "C 2/C"
_symmetry_group_IT_number 15
_symmetry_cell_setting 'monoclinic'
loop_
_space_group_symop_operation_xyz
x,y,z
-x,y,1/2-z
-x,-y,-z
x,-y,1/2+z
1/2+x,1/2+y,z
1/2-x,1/2+y,1/2-z
1/2-x,1/2-y,-z
1/2+x,1/2-y,1/2+z
loop_
_atom_site_type_symbol
_atom_site_label
_atom_site_fract_x
_atom_site_fract_y
_atom_site_fract_z
Si Si1 0.821636 0.731977 0.855107
Si Si2 0.399022 0.300170 0.388804
Si Si3 0.176472 0.329661 0.845865
Si Si4 0.941555 0.766932 0.984162
Si Si5 0.687064 0.499896 0.032569
Si Si6 0.242173 0.596623 0.902317
Si Si7 0.000000 0.017811 0.750000
O O1 0.863440 0.717897 0.602602
O O2 0.750000 0.750000 0.000000
O O3 0.830306 0.638836 0.966245
O O4 0.843153 0.865038 0.865841
O O5 0.350619 0.394546 0.445678
O O6 0.451260 0.389717 0.310782
O O7 0.426717 0.221228 0.183232
O O8 0.188465 0.406809 0.664743
O O9 0.237187 0.239920 0.684457
O O10 0.115980 0.253380 0.962949
O O11 0.000000 0.706736 0.750000
O O12 0.960841 0.915110 0.946775
O O13 0.748711 0.529015 0.774568
O O14 0.703274 0.459496 0.148480
#
# Coordination Sequence:
#
# PCOD9269675 Si02
#       7
#     8   8   8   8   8   8   4
#     4  11  24  35  54  80 119 151 192 234 293 338
#     4  12  21  36  56  80 119 152 194 235 273 338
#     4  10  21  38  53  80 113 157 183 240 284 343
#     4  10  23  35  54  76 115 151 196 216 280 334
#     4  11  20  35  55  84 110 148 190 235 283 347
#     4  10  20  34  59  76 115 145 193 229 297 331
#     4  10  22  34  54  82 112 156 196 228 264 340
#
# _framework density 23.933824999999999
#
# number of rings (size 3 to 8) (size 9 to 14) (size 15 to 20)
#    0.462    0.923    3.077    4.154    6.462    0.000 
#    0.000    0.000    0.000    0.000    0.000    1.077 
#    2.308    0.000    0.000    0.000    0.000    0.000 
#
# Total GULP energy -144940.866294 kJ/mol
# GULP energy per Si atom -5574.648704 kJ/mol
# Density = 2.387935 g / cm^3
# Si number density = 23.933825 Si / 1000 Ang^3
#
#
#
# Elastic Constant Matrix: (Units=GPa)
#
#
# Indices 1 2 3 4 5 6 
#
# 1 69.9400 -4.5491 74.9714 0.0000 12.2061 0.0000
# 2 -4.5491 14.1657 13.9691 0.0000 5.0939 0.0000
# 3 74.9714 13.9691 194.9843 0.0000 41.9587 0.0000
# 4 0.0000 0.0000 0.0000 43.3877 0.0000 1.7555
# 5 12.2061 5.0939 41.9587 0.0000 54.4660 0.0000
# 6 0.0000 0.0000 0.0000 1.7555 0.0000 9.0888
#
#
#
# Elastic Compliance Matrix: (Units=1/GPa)
#
#
# Indices 1 2 3 4 5 6 
#
# 1 0.029837 0.022236 -0.013400 0.000000 0.001557 0.000000
# 2 0.022236 0.093089 -0.014712 0.000000 -0.002356 0.000000
# 3 -0.013400 -0.014712 0.012458 0.000000 -0.005218 0.000000
# 4 0.000000 0.000000 0.000000 0.023230 0.000000 -0.004487
# 5 0.001557 -0.002356 -0.005218 0.000000 0.022251 0.000000
# 6 0.000000 0.000000 0.000000 -0.004487 0.000000 0.110892
#
#
# Mechanical properties :
#
#
# Convention : Reuss Voigt Hill
#
# Bulk Modulus (GPa) = 8.08856 49.76364 28.92610
# Shear Modulus (GPa) = 14.50454 34.36839 24.43647
#
# Velocity S-wave (km/s) = 2.46443 3.79354 3.19878
# Velocity P-wave (km/s) = 3.38892 6.32655 5.07494
#
# Compressibility (1/GPa) = 0.12363144
#
# Stress axis : x y z
#
# Youngs Moduli (GPa) = 33.51555 10.74242 80.27011
#
# Poissons Ratio (x) = -0.23887 1.07565
# Poissons Ratio (y) = -0.74526 1.18093
# Poissons Ratio (z) = 0.44912 0.15804
#
# Static dielectric constant tensor:
#      x y z
#    x 1.889880 0.000000 0.011350 
#    y 0.000000 2.013750 0.000000 
#    z 0.011350 0.000000 2.015520 
# 
# From -- ./inp_files/56222.got.cif
#   From: 2010.05.17/outbox.cif.g08.bks.cpg/sg15_29_cif.got.tgz:56222.got - 2010.06.03 18:47:42.
