data_PCOD9269731
_publ_section_title
;
Structure prediction by ZEFSAII (Michael W. Deem and Ramdas Pophale) SiO2 
 PCOD9269731
Probable space group: C 2/C
;
_chemical_formula_sum "Si O2"
_cell_formula_units_Z 44
_cell_length_a 13.736909
_cell_length_b 6.741909
_cell_length_c 21.213363
_cell_angle_alpha 90.000000
_cell_angle_beta 120.522664
_cell_angle_gamma 90.000000
_cell_volume 1692.390512
_symmetry_space_group_name_H-M "C 2/C"
_symmetry_group_IT_number 15
_symmetry_cell_setting 'monoclinic'
loop_
_space_group_symop_operation_xyz
x,y,z
-x,y,1/2-z
-x,-y,-z
x,-y,1/2+z
1/2+x,1/2+y,z
1/2-x,1/2+y,1/2-z
1/2-x,1/2-y,-z
1/2+x,1/2-y,1/2+z
loop_
_atom_site_type_symbol
_atom_site_label
_atom_site_fract_x
_atom_site_fract_y
_atom_site_fract_z
Si Si1 0.152794 0.787781 0.654555
Si Si2 0.623731 0.320749 0.791413
Si Si3 0.500000 0.500000 0.000000
Si Si4 0.106906 0.730325 0.325756
Si Si5 0.347437 0.112002 0.414545
Si Si6 0.905148 0.711812 0.031978
O O1 0.054419 0.895715 0.584289
O O2 0.277175 0.831921 0.668765
O O3 0.137237 0.550291 0.636473
O O4 0.151624 0.841366 0.727110
O O5 0.500000 0.225028 0.750000
O O6 0.607398 0.531002 0.820643
O O7 0.738923 0.257233 0.864281
O O8 0.623770 0.570419 0.001085
O O9 0.096944 0.677288 0.395506
O O10 0.000000 0.670078 0.250000
O O11 0.348861 0.967399 0.475522
O O12 0.464138 0.237093 0.454563
#
# Coordination Sequence:
#
# PCOD9269731 Si02
#       6
#     8   8   4   8   8   8
#     4  10  21  36  56  84 115 151 193 244 293 348
#     4  10  20  35  57  83 115 151 193 242 291 347
#     4  10  20  34  60  86 114 150 194 238 286 346
#     4  10  20  35  60  85 115 157 199 240 292 355
#     4   9  21  39  60  86 121 154 193 245 294 353
#     4  10  20  39  63  88 118 157 198 243 295 350
#
# _framework density 25.998726000000001
#
# number of rings (size 3 to 8) (size 9 to 14) (size 15 to 20)
#    0.000    2.182    0.000    3.273    0.000    9.455 
#    0.000    6.364    0.000   17.455    0.000    0.000 
#    0.000    0.000    0.000    0.000    0.000    0.000 
#
# Total GULP energy -122656.520099 kJ/mol
# GULP energy per Si atom -5575.296368 kJ/mol
# Density = 2.593955 g / cm^3
# Si number density = 25.998726 Si / 1000 Ang^3
#
#
#
# Elastic Constant Matrix: (Units=GPa)
#
#
# Indices 1 2 3 4 5 6 
#
# 1 153.9901 7.8002 101.1596 0.0000 11.8580 0.0000
# 2 7.8002 98.2282 17.9927 0.0000 15.6729 0.0000
# 3 101.1596 17.9927 218.0988 0.0000 0.2847 0.0000
# 4 0.0000 0.0000 0.0000 -66.3529 0.0000 -15.4324
# 5 11.8580 15.6729 0.2847 0.0000 65.0097 0.0000
# 6 0.0000 0.0000 0.0000 -15.4324 0.0000 -4.9556
#
#
#
# Elastic Compliance Matrix: (Units=1/GPa)
#
#
# Indices 1 2 3 4 5 6 
#
# 1 0.009539 0.000346 -0.004451 0.000000 -0.001804 0.000000
# 2 0.000346 0.010768 -0.001045 0.000000 -0.002654 0.000000
# 3 -0.004451 -0.001045 0.006734 0.000000 0.001034 0.000000
# 4 0.000000 0.000000 0.000000 -0.054661 0.000000 0.170220
# 5 -0.001804 -0.002654 0.001034 0.000000 0.016347 0.000000
# 6 0.000000 0.000000 0.000000 0.170220 0.000000 -0.731878
#
#
# Mechanical properties :
#
#
# Convention : Reuss Voigt Hill
#
# Bulk Modulus (GPa) = 59.73426 80.46913 70.10169
# Shear Modulus (GPa) = -6.87503 21.63121 7.37809
#
# Velocity S-wave (km/s) = -1.62792 2.88759 1.68642
# Velocity P-wave (km/s) = 4.41500 6.49122 5.55104
#
# Compressibility (1/GPa) = 0.01674081
#
# Stress axis : x y z
#
# Youngs Moduli (GPa) = 104.83267 92.86852 148.49487
#
# Poissons Ratio (x) = -0.03209 0.66089
# Poissons Ratio (y) = -0.03622 0.15520
# Poissons Ratio (z) = 0.46657 0.09706
#
# Static dielectric constant tensor:
#      x y z
#    x 2.201830 0.000000 0.150310 
#    y 0.000000 2.313290 0.000000 
#    z 0.150310 0.000000 2.155720 
# 
# From -- ./inp_files/202548.got.cif
#   From: 2010.05.17/outbox.cif.g08.bks.cpg/sg15_102_cif.got.tgz:202548.got - 2010.06.03 18:47:42.
