data_PCOD9269915
_publ_section_title
;
Structure prediction by ZEFSAII (Michael W. Deem and Ramdas Pophale) SiO2 
 PCOD9269915
Probable space group: C 2/C
;
_chemical_formula_sum "Si O2"
_cell_formula_units_Z 40
_cell_length_a 14.169376
_cell_length_b 12.352481
_cell_length_c 14.778914
_cell_angle_alpha 90.000000
_cell_angle_beta 143.611765
_cell_angle_gamma 90.000000
_cell_volume 1534.573954
_symmetry_space_group_name_H-M "C 2/C"
_symmetry_group_IT_number 15
_symmetry_cell_setting 'monoclinic'
loop_
_space_group_symop_operation_xyz
x,y,z
-x,y,1/2-z
-x,-y,-z
x,-y,1/2+z
1/2+x,1/2+y,z
1/2-x,1/2+y,1/2-z
1/2-x,1/2-y,-z
1/2+x,1/2-y,1/2+z
loop_
_atom_site_type_symbol
_atom_site_label
_atom_site_fract_x
_atom_site_fract_y
_atom_site_fract_z
Si Si1 0.832167 0.707954 0.451735
Si Si2 0.500000 0.783792 0.250000
Si Si3 0.500000 0.223697 0.250000
Si Si4 0.124838 0.037326 0.483807
Si Si5 0.246753 0.031006 0.259968
Si Si6 0.773142 0.395732 0.441004
O O1 0.650121 0.709801 0.344908
O O2 0.947541 0.656657 0.617587
O O3 0.868972 0.835570 0.482946
O O4 0.817694 0.644692 0.347960
O O5 0.642138 0.302077 0.326327
O O6 0.581181 0.153150 0.390532
O O7 0.938927 0.013111 0.353342
O O8 0.236344 0.981651 0.645462
O O9 0.189997 0.988268 0.440175
O O10 0.327596 0.942279 0.386682
#
# Coordination Sequence:
#
# PCOD9269915 Si02
#       6
#     8   4   4   8   8   8
#     4  11  22  40  66  97 130 168 212 273 318 389
#     4  10  20  34  66  94 122 166 206 254 332 364
#     4  10  24  40  72  98 130 176 220 262 322 378
#     4  11  24  43  67  97 131 175 214 264 331 390
#     4  11  24  43  67  97 131 175 214 264 331 390
#     4  11  22  46  69  96 131 174 217 269 318 389
#
# _framework density 26.065867000000001
#
# number of rings (size 3 to 8) (size 9 to 14) (size 15 to 20)
#    0.000    1.200    4.000    2.400    0.000    6.400 
#    0.000    4.000    0.000    0.000    0.000    0.000 
#    0.000    0.000    0.000    0.000    0.000    0.000 
#
# Total GULP energy -111899.101623 kJ/mol
# GULP energy per Si atom -5594.955081 kJ/mol
# Density = 2.600654 g / cm^3
# Si number density = 26.065867 Si / 1000 Ang^3
#
#
#
# Elastic Constant Matrix: (Units=GPa)
#
#
# Indices 1 2 3 4 5 6 
#
# 1 59.0852 -5.8413 30.9184 0.0000 -5.1228 0.0000
# 2 -5.8413 83.3146 50.3318 0.0000 -1.5661 0.0000
# 3 30.9184 50.3318 180.8297 0.0000 -14.3718 0.0000
# 4 0.0000 0.0000 0.0000 22.7187 0.0000 -0.9951
# 5 -5.1228 -1.5661 -14.3718 0.0000 53.5158 0.0000
# 6 0.0000 0.0000 0.0000 -0.9951 0.0000 19.3533
#
#
#
# Elastic Compliance Matrix: (Units=1/GPa)
#
#
# Indices 1 2 3 4 5 6 
#
# 1 0.019725 0.004083 -0.004444 0.000000 0.000814 0.000000
# 2 0.004083 0.015298 -0.004996 0.000000 -0.000503 0.000000
# 3 -0.004444 -0.004996 0.007802 0.000000 0.001524 0.000000
# 4 0.000000 0.000000 0.000000 0.044116 0.000000 0.002268
# 5 0.000814 -0.000503 0.001524 0.000000 0.019158 0.000000
# 6 0.000000 0.000000 0.000000 0.002268 0.000000 0.051787
#
#
# Mechanical properties :
#
#
# Convention : Reuss Voigt Hill
#
# Bulk Modulus (GPa) = 31.14350 52.67191 41.90771
# Shear Modulus (GPa) = 27.88567 35.63892 31.76230
#
# Velocity S-wave (km/s) = 3.27435 3.70166 3.49455
# Velocity P-wave (km/s) = 5.12534 6.20652 5.69166
#
# Compressibility (1/GPa) = 0.03210942
#
# Stress axis : x y z
#
# Youngs Moduli (GPa) = 50.69811 65.36921 128.17827
#
# Poissons Ratio (x) = -0.26691 0.56966
# Poissons Ratio (y) = -0.20701 0.64039
# Poissons Ratio (z) = 0.22532 0.32659
#
# Static dielectric constant tensor:
#      x y z
#    x 2.081140 0.000000 -0.023750 
#    y 0.000000 2.124840 0.000000 
#    z -0.023750 0.000000 2.078910 
# 
# From -- ./inp_files/46960.got.cif
#   From: 2010.05.17/outbox.cif.g08.bks.cpg/sg15_24_cif.got.tgz:46960.got - 2010.06.03 18:47:42.
