data_PCOD9269481
_publ_section_title
;
Structure prediction by ZEFSAII (Michael W. Deem and Ramdas Pophale) SiO2 
 PCOD9269481
Probable space group: C 2/C
;
_chemical_formula_sum "Si O2"
_cell_formula_units_Z 44
_cell_length_a 18.031843
_cell_length_b 8.456118
_cell_length_c 16.022405
_cell_angle_alpha 90.000000
_cell_angle_beta 43.018550
_cell_angle_gamma 90.000000
_cell_volume 1666.759430
_symmetry_space_group_name_H-M "C 2/C"
_symmetry_group_IT_number 15
_symmetry_cell_setting 'monoclinic'
loop_
_space_group_symop_operation_xyz
x,y,z
-x,y,1/2-z
-x,-y,-z
x,-y,1/2+z
1/2+x,1/2+y,z
1/2-x,1/2+y,1/2-z
1/2-x,1/2-y,-z
1/2+x,1/2-y,1/2+z
loop_
_atom_site_type_symbol
_atom_site_label
_atom_site_fract_x
_atom_site_fract_y
_atom_site_fract_z
Si Si1 0.739090 0.402546 0.252468
Si Si2 0.793006 0.443218 0.864596
Si Si3 0.604525 0.339566 0.510458
Si Si4 0.075097 0.160152 0.758331
Si Si5 0.500000 0.847770 0.250000
Si Si6 0.962165 0.675675 0.501584
O O1 0.784479 0.545746 0.270855
O O2 0.698013 0.292347 0.364564
O O3 0.641170 0.443501 0.270447
O O4 0.834459 0.334647 0.118416
O O5 0.834483 0.272764 0.857197
O O6 0.895642 0.553909 0.803542
O O7 0.673745 0.509568 0.987879
O O8 0.557743 0.247132 0.627404
O O9 0.505560 0.314368 0.526978
O O10 0.000000 0.085559 0.750000
O O11 0.002033 0.275718 0.877232
O O12 0.000000 0.500000 0.500000
#
# Coordination Sequence:
#
# PCOD9269481 Si02
#       6
#     8   8   8   8   4   8
#     4   9  21  35  56  91 116 156 197 240 293 352
#     4  10  20  34  56  91 114 151 198 244 286 349
#     4   9  19  31  54  88 117 151 194 246 287 346
#     4  11  22  38  62  89 115 153 200 250 283 349
#     4  12  16  32  58  82 122 152 198 242 292 340
#     4  11  18  37  61  83 116 159 197 233 295 352
#
# _framework density 26.398533
#
# number of rings (size 3 to 8) (size 9 to 14) (size 15 to 20)
#    1.091    0.727    4.545    0.545    0.000    0.727 
#    0.000    0.909    0.000    0.000   11.818    0.000 
#    0.000    0.000    0.000    0.000    0.000    0.000 
#
# Total GULP energy -122529.473172 kJ/mol
# GULP energy per Si atom -5569.521508 kJ/mol
# Density = 2.633845 g / cm^3
# Si number density = 26.398533 Si / 1000 Ang^3
#
#
#
# Elastic Constant Matrix: (Units=GPa)
#
#
# Indices 1 2 3 4 5 6 
#
# 1 193.9731 41.1850 34.9143 0.0000 -8.9891 0.0000
# 2 41.1850 75.1690 41.0991 0.0000 -10.4385 0.0000
# 3 34.9143 41.0991 154.4994 0.0000 3.6936 0.0000
# 4 0.0000 0.0000 0.0000 37.5188 0.0000 -17.9815
# 5 -8.9891 -10.4385 3.6936 0.0000 33.0570 0.0000
# 6 0.0000 0.0000 0.0000 -17.9815 0.0000 12.1197
#
#
#
# Elastic Compliance Matrix: (Units=1/GPa)
#
#
# Indices 1 2 3 4 5 6 
#
# 1 0.005893 -0.002786 -0.000610 0.000000 0.000791 0.000000
# 2 -0.002786 0.017906 -0.004262 0.000000 0.005373 0.000000
# 3 -0.000610 -0.004262 0.007801 0.000000 -0.002383 0.000000
# 4 0.000000 0.000000 0.000000 0.092249 0.000000 0.136867
# 5 0.000791 0.005373 -0.002383 0.000000 0.032429 0.000000
# 6 0.000000 0.000000 0.000000 0.136867 0.000000 0.285575
#
#
# Mechanical properties :
#
#
# Convention : Reuss Voigt Hill
#
# Bulk Modulus (GPa) = 61.40510 73.11538 67.26024
# Shear Modulus (GPa) = 10.80853 36.96863 23.88858
#
# Velocity S-wave (km/s) = 2.02565 3.74626 3.01145
# Velocity P-wave (km/s) = 5.36491 6.81685 6.13400
#
# Compressibility (1/GPa) = 0.01628529
#
# Stress axis : x y z
#
# Youngs Moduli (GPa) = 169.68665 55.84667 128.18744
#
# Poissons Ratio (x) = 0.15557 0.07815
# Poissons Ratio (y) = 0.47270 0.54636
# Poissons Ratio (z) = 0.10345 0.23803
#
# Static dielectric constant tensor:
#      x y z
#    x 2.054150 0.000000 0.010970 
#    y 0.000000 2.245440 0.000000 
#    z 0.010970 0.000000 2.042040 
# 
# From -- ./inp_files/210532.got.cif
#   From: 2010.05.17/outbox.cif.g08.bks.cpg/sg15_106_cif.got.tgz:210532.got - 2010.06.03 18:47:42.
