data_PCOD9269127
_publ_section_title
;
Structure prediction by ZEFSAII (Michael W. Deem and Ramdas Pophale) SiO2 
 PCOD9269127
Probable space group: C 2/C
;
_chemical_formula_sum "Si O2"
_cell_formula_units_Z 56
_cell_length_a 17.672015
_cell_length_b 24.430121
_cell_length_c 9.320278
_cell_angle_alpha 90.000000
_cell_angle_beta 130.100013
_cell_angle_gamma 90.000000
_cell_volume 3077.919696
_symmetry_space_group_name_H-M "C 2/C"
_symmetry_group_IT_number 15
_symmetry_cell_setting 'monoclinic'
loop_
_space_group_symop_operation_xyz
x,y,z
-x,y,1/2-z
-x,-y,-z
x,-y,1/2+z
1/2+x,1/2+y,z
1/2-x,1/2+y,1/2-z
1/2-x,1/2-y,-z
1/2+x,1/2-y,1/2+z
loop_
_atom_site_type_symbol
_atom_site_label
_atom_site_fract_x
_atom_site_fract_y
_atom_site_fract_z
Si Si1 0.216466 0.953656 0.872497
Si Si2 0.399087 0.651761 0.307675
Si Si3 0.243108 0.062813 0.739170
Si Si4 0.090917 0.384064 0.469049
Si Si5 0.476527 0.943755 0.555061
Si Si6 0.220809 0.723211 0.117659
Si Si7 0.622797 0.669306 0.565567
O O1 0.134022 0.911200 0.714162
O O2 0.210276 0.013898 0.802035
O O3 0.215548 0.953831 0.043110
O O4 0.321702 0.926994 0.956355
O O5 0.319720 0.691446 0.286547
O O6 0.510969 0.665012 0.484375
O O7 0.386488 0.661753 0.119866
O O8 0.188594 0.119642 0.702637
O O9 0.361234 0.069527 0.893049
O O10 0.045798 0.397309 0.569298
O O11 0.138349 0.324289 0.504412
O O12 0.000000 0.392051 0.250000
O O13 0.500000 0.951130 0.750000
O O14 0.500000 0.000000 0.500000
O O15 0.176303 0.772841 0.154457
O O16 0.250000 0.750000 0.000000
#
# Coordination Sequence:
#
# PCOD9269127 Si02
#       7
#     8   8   8   8   8   8   8
#     4  10  20  34  51  82 113 147 185 232 279 346
#     4   8  17  32  48  76 114 139 178 232 282 326
#     4  11  21  34  54  81 113 148 193 229 286 342
#     4  11  21  34  57  88 118 149 187 242 298 345
#     4  12  23  36  56  85 122 156 193 242 296 355
#     4   9  19  31  54  86 114 146 187 239 287 343
#     4   9  18  32  52  79 110 145 183 239 275 331
#
# _framework density 18.194106999999999
#
# number of rings (size 3 to 8) (size 9 to 14) (size 15 to 20)
#    0.000    2.000    2.857    2.143    4.000    0.571 
#    0.000    0.000    0.000    0.857    3.714    0.000 
#    0.000    0.000    0.000    0.000    0.000    0.000 
#
# Total GULP energy -156197.013496 kJ/mol
# GULP energy per Si atom -5578.464768 kJ/mol
# Density = 1.815270 g / cm^3
# Si number density = 18.194107 Si / 1000 Ang^3
#
#
#
# Elastic Constant Matrix: (Units=GPa)
#
#
# Indices 1 2 3 4 5 6 
#
# 1 66.3683 24.4660 35.1712 0.0000 18.2479 0.0000
# 2 24.4660 94.9161 39.0793 0.0000 14.5687 0.0000
# 3 35.1712 39.0793 55.4891 0.0000 9.2782 0.0000
# 4 0.0000 0.0000 0.0000 11.3008 0.0000 -1.5386
# 5 18.2479 14.5687 9.2782 0.0000 36.2893 0.0000
# 6 0.0000 0.0000 0.0000 -1.5386 0.0000 30.1671
#
#
#
# Elastic Compliance Matrix: (Units=1/GPa)
#
#
# Indices 1 2 3 4 5 6 
#
# 1 0.025304 0.001222 -0.015345 0.000000 -0.009291 0.000000
# 2 0.001222 0.015318 -0.010897 0.000000 -0.003978 0.000000
# 3 -0.015345 -0.010897 0.034893 0.000000 0.003170 0.000000
# 4 0.000000 0.000000 0.000000 0.089108 0.000000 0.004545
# 5 -0.009291 -0.003978 0.003170 0.000000 0.033015 0.000000
# 6 0.000000 0.000000 0.000000 0.004545 0.000000 0.033380
#
#
# Mechanical properties :
#
#
# Convention : Reuss Voigt Hill
#
# Bulk Modulus (GPa) = 39.25808 46.02294 42.64051
# Shear Modulus (GPa) = 17.26814 23.42191 20.34503
#
# Velocity S-wave (km/s) = 3.08410 3.59184 3.34761
# Velocity P-wave (km/s) = 5.85717 6.52320 6.19914
#
# Compressibility (1/GPa) = 0.02547246
#
# Stress axis : x y z
#
# Youngs Moduli (GPa) = 39.51978 65.28310 28.65931
#
# Poissons Ratio (x) = -0.07976 0.43979
# Poissons Ratio (y) = -0.04828 0.31231
# Poissons Ratio (z) = 0.60645 0.71140
#
# Static dielectric constant tensor:
#      x y z
#    x 1.656510 0.000000 -0.007260 
#    y 0.000000 1.631390 0.000000 
#    z -0.007260 0.000000 1.612780 
# 
# From -- ./inp_files/51569.got.cif
#   From: 2010.05.17/outbox.cif.g08.bks.cpg/sg15_26_cif.got.tgz:51569.got - 2010.06.03 18:47:42.
