data_PCOD9269058
_publ_section_title
;
Structure prediction by ZEFSAII (Michael W. Deem and Ramdas Pophale) SiO2 
 PCOD9269058
Probable space group: C 2/C
;
_chemical_formula_sum "Si O2"
_cell_formula_units_Z 48
_cell_length_a 14.288880
_cell_length_b 29.252872
_cell_length_c 8.647285
_cell_angle_alpha 90.000000
_cell_angle_beta 139.852048
_cell_angle_gamma 90.000000
_cell_volume 2330.488543
_symmetry_space_group_name_H-M "C 2/C"
_symmetry_group_IT_number 15
_symmetry_cell_setting 'monoclinic'
loop_
_space_group_symop_operation_xyz
x,y,z
-x,y,1/2-z
-x,-y,-z
x,-y,1/2+z
1/2+x,1/2+y,z
1/2-x,1/2+y,1/2-z
1/2-x,1/2-y,-z
1/2+x,1/2-y,1/2+z
loop_
_atom_site_type_symbol
_atom_site_label
_atom_site_fract_x
_atom_site_fract_y
_atom_site_fract_z
Si Si1 0.858720 0.279550 0.467456
Si Si2 0.609216 0.484000 0.503886
Si Si3 0.334979 0.683463 0.500878
Si Si4 0.080640 0.375759 0.021251
Si Si5 0.308354 0.902188 0.848462
Si Si6 0.669507 0.585794 0.495486
O O1 0.740363 0.300464 0.434804
O O2 0.818230 0.228264 0.367856
O O3 0.902731 0.321887 0.415904
O O4 0.000000 0.270930 0.750000
O O5 0.500000 0.500000 0.500000
O O6 0.734585 0.450049 0.709880
O O7 0.668776 0.530701 0.504809
O O8 0.500000 0.458735 0.250000
O O9 0.259724 0.639753 0.333307
O O10 0.500000 0.672710 0.750000
O O11 0.242828 0.396445 0.243025
O O12 0.000000 0.378685 0.750000
O O13 0.975049 0.401197 0.007584
O O14 0.261502 0.896375 0.966456
O O15 0.500000 0.598771 0.250000
#
# Coordination Sequence:
#
# PCOD9269058 Si02
#       6
#     8   8   8   8   8   8
#     4   9  18  39  58  98 136 168 220 284 316 391
#     4  11  23  43  66  96 137 173 222 283 334 396
#     4  10  20  33  66  98 131 172 229 269 332 395
#     4  11  24  42  68  98 136 176 224 271 331 404
#     4  12  23  41  67  97 129 180 218 277 349 391
#     4  11  26  45  64  97 137 174 220 282 334 402
#
# _framework density 20.596539
#
# number of rings (size 3 to 8) (size 9 to 14) (size 15 to 20)
#    0.000    1.333    6.667    1.000    4.667    0.667 
#    0.000    0.833    0.000    0.000    0.000    0.000 
#    0.000    0.000    0.000    0.000    0.000    0.000 
#
# Total GULP energy -133744.400340 kJ/mol
# GULP energy per Si atom -5572.683348 kJ/mol
# Density = 2.054966 g / cm^3
# Si number density = 20.596539 Si / 1000 Ang^3
#
#
#
# Elastic Constant Matrix: (Units=GPa)
#
#
# Indices 1 2 3 4 5 6 
#
# 1 89.6019 12.3424 23.3728 0.0000 15.4194 0.0000
# 2 12.3424 95.6068 29.1509 0.0000 10.8061 0.0000
# 3 23.3728 29.1509 112.4972 0.0000 22.7584 0.0000
# 4 0.0000 0.0000 0.0000 3.9053 0.0000 8.1677
# 5 15.4194 10.8061 22.7584 0.0000 28.7874 0.0000
# 6 0.0000 0.0000 0.0000 8.1677 0.0000 33.0059
#
#
#
# Elastic Compliance Matrix: (Units=1/GPa)
#
#
# Indices 1 2 3 4 5 6 
#
# 1 0.012527 -0.000592 -0.001353 0.000000 -0.005418 0.000000
# 2 -0.000592 0.011515 -0.002441 0.000000 -0.002075 0.000000
# 3 -0.001353 -0.002441 0.011274 0.000000 -0.007272 0.000000
# 4 0.000000 0.000000 0.000000 0.530757 0.000000 -0.131341
# 5 -0.005418 -0.002075 -0.007272 0.000000 0.044167 0.000000
# 6 0.000000 0.000000 0.000000 -0.131341 0.000000 0.062799
#
#
# Mechanical properties :
#
#
# Convention : Reuss Voigt Hill
#
# Bulk Modulus (GPa) = 37.67425 47.49313 42.58369
# Shear Modulus (GPa) = 7.23945 28.66237 17.95091
#
# Velocity S-wave (km/s) = 1.87684 3.73448 2.95541
# Velocity P-wave (km/s) = 4.79874 6.45786 5.68911
#
# Compressibility (1/GPa) = 0.02654333
#
# Stress axis : x y z
#
# Youngs Moduli (GPa) = 79.82498 86.84498 88.70107
#
# Poissons Ratio (x) = 0.05143 0.12003
# Poissons Ratio (y) = 0.04728 0.21651
# Poissons Ratio (z) = 0.10802 0.21198
#
# Static dielectric constant tensor:
#      x y z
#    x 1.902210 0.000000 0.035740 
#    y 0.000000 1.775810 0.000000 
#    z 0.035740 0.000000 1.825610 
# 
# From -- ./inp_files/44665.got.cif
#   From: 2010.05.17/outbox.cif.g08.bks.cpg/sg15_23_cif.got.tgz:44665.got - 2010.06.03 18:47:42.
