data_PCOD9269048
_publ_section_title
;
Structure prediction by ZEFSAII (Michael W. Deem and Ramdas Pophale) SiO2 
 PCOD9269048
Probable space group: C 2/C
;
_chemical_formula_sum "Si O2"
_cell_formula_units_Z 40
_cell_length_a 5.819856
_cell_length_b 21.022816
_cell_length_c 17.153956
_cell_angle_alpha 90.000000
_cell_angle_beta 115.393182
_cell_angle_gamma 90.000000
_cell_volume 1896.011354
_symmetry_space_group_name_H-M "C 2/C"
_symmetry_group_IT_number 15
_symmetry_cell_setting 'monoclinic'
loop_
_space_group_symop_operation_xyz
x,y,z
-x,y,1/2-z
-x,-y,-z
x,-y,1/2+z
1/2+x,1/2+y,z
1/2-x,1/2+y,1/2-z
1/2-x,1/2-y,-z
1/2+x,1/2-y,1/2+z
loop_
_atom_site_type_symbol
_atom_site_label
_atom_site_fract_x
_atom_site_fract_y
_atom_site_fract_z
Si Si1 0.000000 0.502379 0.250000
Si Si2 0.501731 0.112035 0.133905
Si Si3 0.500000 0.314527 0.750000
Si Si4 0.934870 0.214422 0.415482
Si Si5 0.787704 0.617407 0.777160
Si Si6 0.453894 0.849787 0.030046
O O1 0.934705 0.547649 0.168298
O O2 0.773847 0.453643 0.239133
O O3 0.299128 0.167501 0.116699
O O4 0.758594 0.139308 0.208681
O O5 0.530134 0.108756 0.045184
O O6 0.501834 0.277386 0.667746
O O7 0.167544 0.178005 0.491564
O O8 0.890471 0.282937 0.447472
O O9 0.500000 0.642893 0.750000
O O10 0.000000 0.649091 0.750000
O O11 0.936629 0.614144 0.880206
#
# Coordination Sequence:
#
# PCOD9269048 Si02
#       6
#     4   8   4   8   8   8
#     4  10  24  41  68  94 129 176 228 268 330 394
#     4  11  21  39  65  94 129 166 220 277 325 399
#     4  10  20  33  62  96 123 172 210 266 338 386
#     4  10  21  39  63  95 132 170 216 276 333 401
#     4  10  26  46  66  95 133 179 225 277 327 396
#     4  10  24  40  64  95 131 171 224 271 339 394
#
# _framework density 21.096919
#
# number of rings (size 3 to 8) (size 9 to 14) (size 15 to 20)
#    0.600    1.200    2.000    0.600    5.600    2.400 
#    0.000    2.000    0.000    0.000    0.000    0.000 
#    0.000    0.000    0.000    0.000    0.000    0.000 
#
# Total GULP energy -111469.383862 kJ/mol
# GULP energy per Si atom -5573.469193 kJ/mol
# Density = 2.104890 g / cm^3
# Si number density = 21.096919 Si / 1000 Ang^3
#
#
#
# Elastic Constant Matrix: (Units=GPa)
#
#
# Indices 1 2 3 4 5 6 
#
# 1 84.2024 19.2604 28.3256 0.0000 15.0367 0.0000
# 2 19.2604 58.9759 13.9204 0.0000 2.7400 0.0000
# 3 28.3256 13.9204 129.5514 0.0000 0.3388 0.0000
# 4 0.0000 0.0000 0.0000 122.7871 0.0000 -45.5686
# 5 15.0367 2.7400 0.3388 0.0000 32.3086 0.0000
# 6 0.0000 0.0000 0.0000 -45.5686 0.0000 14.9932
#
#
#
# Elastic Compliance Matrix: (Units=1/GPa)
#
#
# Indices 1 2 3 4 5 6 
#
# 1 0.014888 -0.003891 -0.002820 0.000000 -0.006569 0.000000
# 2 -0.003891 0.018483 -0.001136 0.000000 0.000255 0.000000
# 3 -0.002820 -0.001136 0.008454 0.000000 0.001320 0.000000
# 4 0.000000 0.000000 0.000000 -0.063659 0.000000 -0.193478
# 5 -0.006569 0.000255 0.001320 0.000000 0.033974 0.000000
# 6 0.000000 0.000000 0.000000 -0.193478 0.000000 -0.521337
#
#
# Mechanical properties :
#
#
# Convention : Reuss Voigt Hill
#
# Bulk Modulus (GPa) = 38.26860 43.97139 41.12000
# Shear Modulus (GPa) = -10.31369 48.09932 18.89282
#
# Velocity S-wave (km/s) = -2.21344 4.78003 2.99578
# Velocity P-wave (km/s) = 3.41268 7.16608 5.61245
#
# Compressibility (1/GPa) = 0.02613108
#
# Stress axis : x y z
#
# Youngs Moduli (GPa) = 67.16807 54.10329 118.28590
#
# Poissons Ratio (x) = 0.21053 0.33355
# Poissons Ratio (y) = 0.26137 0.13436
# Poissons Ratio (z) = 0.18941 0.06146
#
# Static dielectric constant tensor:
#      x y z
#    x 1.850540 0.000000 -0.065620 
#    y 0.000000 1.754050 0.000000 
#    z -0.065620 0.000000 1.764580 
# 
# From -- ./inp_files/129093.got.cif
#   From: 2010.05.17/outbox.cif.g08.bks.cpg/sg15_65_cif.got.tgz:129093.got - 2010.06.03 18:47:42.
