data_PCOD9269585
_publ_section_title
;
Structure prediction by ZEFSAII (Michael W. Deem and Ramdas Pophale) SiO2 
 PCOD9269585
Probable space group: C 2/C
;
_chemical_formula_sum "Si O2"
_cell_formula_units_Z 40
_cell_length_a 23.735259
_cell_length_b 16.309914
_cell_length_c 9.201689
_cell_angle_alpha 90.000000
_cell_angle_beta 35.008213
_cell_angle_gamma 90.000000
_cell_volume 2043.588227
_symmetry_space_group_name_H-M "C 2/C"
_symmetry_group_IT_number 15
_symmetry_cell_setting 'monoclinic'
loop_
_space_group_symop_operation_xyz
x,y,z
-x,y,1/2-z
-x,-y,-z
x,-y,1/2+z
1/2+x,1/2+y,z
1/2-x,1/2+y,1/2-z
1/2-x,1/2-y,-z
1/2+x,1/2-y,1/2+z
loop_
_atom_site_type_symbol
_atom_site_label
_atom_site_fract_x
_atom_site_fract_y
_atom_site_fract_z
Si Si1 0.592715 0.454813 0.162082
Si Si2 0.307436 0.942666 0.610255
Si Si3 0.949046 0.309171 0.196451
Si Si4 0.911916 0.434448 0.699868
Si Si5 0.032297 0.127961 0.348800
O O1 0.500000 0.454306 0.250000
O O2 0.598872 0.546423 0.217278
O O3 0.562725 0.392234 0.352266
O O4 0.691477 0.435523 0.869208
O O5 0.357893 0.871203 0.407515
O O6 0.350782 0.935099 0.680514
O O7 0.343081 0.030170 0.471198
O O8 0.923953 0.216463 0.206746
O O9 0.000000 0.308961 0.250000
O O10 0.030256 0.348510 0.916877
O O11 0.000000 0.500000 0.500000
O O12 0.000000 0.132728 0.250000
#
# Coordination Sequence:
#
# PCOD9269585 Si02
#       5
#     8   8   8   8   8
#     4  10  22  37  54  77 114 146 184 221 265 325
#     4  10  20  34  58  84 108 142 184 221 274 327
#     4   8  16  36  56  82 108 134 178 233 269 319
#     4   9  18  34  58  82 111 138 174 226 277 323
#     4   9  19  37  58  73 109 144 181 224 269 310
#
# _framework density 19.573414
#
# number of rings (size 3 to 8) (size 9 to 14) (size 15 to 20)
#    0.000    2.800    0.000    1.800    8.400    0.000 
#    3.600    8.000    0.000    0.000    0.000    0.000 
#    0.000    0.000    0.000    0.000    0.000    0.000 
#
# Total GULP energy -111422.173985 kJ/mol
# GULP energy per Si atom -5571.108699 kJ/mol
# Density = 1.952886 g / cm^3
# Si number density = 19.573414 Si / 1000 Ang^3
#
#
#
# Elastic Constant Matrix: (Units=GPa)
#
#
# Indices 1 2 3 4 5 6 
#
# 1 46.1840 10.1880 26.6631 0.0000 -16.0233 0.0000
# 2 10.1880 113.2302 51.4539 0.0000 -10.3201 0.0000
# 3 26.6631 51.4539 147.0319 0.0000 -20.3667 0.0000
# 4 0.0000 0.0000 0.0000 -5.2769 0.0000 -6.2525
# 5 -16.0233 -10.3201 -20.3667 0.0000 21.5351 0.0000
# 6 0.0000 0.0000 0.0000 -6.2525 0.0000 3.4517
#
#
#
# Elastic Compliance Matrix: (Units=1/GPa)
#
#
# Indices 1 2 3 4 5 6 
#
# 1 0.030113 0.000396 -0.002842 0.000000 0.019908 0.000000
# 2 0.000396 0.010567 -0.003484 0.000000 0.002064 0.000000
# 3 -0.002842 -0.003484 0.009219 0.000000 0.004935 0.000000
# 4 0.000000 0.000000 0.000000 -0.060231 0.000000 -0.109103
# 5 0.019908 0.002064 0.004935 0.000000 0.066905 0.000000
# 6 0.000000 0.000000 0.000000 -0.109103 0.000000 0.092078
#
#
# Mechanical properties :
#
#
# Convention : Reuss Voigt Hill
#
# Bulk Modulus (GPa) = 26.28783 53.67289 39.98036
# Shear Modulus (GPa) = 28.87000 18.48474 23.67737
#
# Velocity S-wave (km/s) = 3.84469 3.07641 3.48180
# Velocity P-wave (km/s) = 5.75920 6.33245 6.05261
#
# Compressibility (1/GPa) = 0.03804042
#
# Stress axis : x y z
#
# Youngs Moduli (GPa) = 33.20872 94.63241 108.46662
#
# Poissons Ratio (x) = -0.03751 0.30824
# Poissons Ratio (y) = -0.01316 0.37790
# Poissons Ratio (z) = 0.09437 0.32970
#
# Static dielectric constant tensor:
#      x y z
#    x 1.619710 0.000000 -0.003920 
#    y 0.000000 1.730120 0.000000 
#    z -0.003920 0.000000 1.690770 
# 
# From -- ./inp_files/38589.got.cif
#   From: 2010.05.17/outbox.cif.g08.bks.cpg/sg15_20_cif.got.tgz:38589.got - 2010.06.03 18:47:42.
