data_PCOD9269378
_publ_section_title
;
Structure prediction by ZEFSAII (Michael W. Deem and Ramdas Pophale) SiO2 
 PCOD9269378
Probable space group: C 2/C
;
_chemical_formula_sum "Si O2"
_cell_formula_units_Z 56
_cell_length_a 12.256335
_cell_length_b 19.850157
_cell_length_c 11.031151
_cell_angle_alpha 90.000000
_cell_angle_beta 69.226154
_cell_angle_gamma 90.000000
_cell_volume 2509.292479
_symmetry_space_group_name_H-M "C 2/C"
_symmetry_group_IT_number 15
_symmetry_cell_setting 'monoclinic'
loop_
_space_group_symop_operation_xyz
x,y,z
-x,y,1/2-z
-x,-y,-z
x,-y,1/2+z
1/2+x,1/2+y,z
1/2-x,1/2+y,1/2-z
1/2-x,1/2-y,-z
1/2+x,1/2-y,1/2+z
loop_
_atom_site_type_symbol
_atom_site_label
_atom_site_fract_x
_atom_site_fract_y
_atom_site_fract_z
Si Si1 0.709576 0.605686 0.521859
Si Si2 0.040979 0.618160 0.100187
Si Si3 0.687037 0.143066 0.460719
Si Si4 0.872148 0.915344 0.699716
Si Si5 0.877595 0.768111 0.350885
Si Si6 0.000000 0.198413 0.250000
Si Si7 0.235655 0.281325 0.162992
Si Si8 0.500000 0.462898 0.250000
O O1 0.841654 0.589624 0.508215
O O2 0.706008 0.581326 0.386438
O O3 0.673982 0.684446 0.525949
O O4 0.606356 0.574885 0.642745
O O5 0.085910 0.694026 0.118055
O O6 0.000000 0.591097 0.250000
O O7 0.935093 0.616899 0.045796
O O8 0.789169 0.105610 0.345302
O O9 0.683377 0.222853 0.426978
O O10 0.723908 0.150769 0.587631
O O11 0.968507 0.855278 0.656405
O O12 0.937930 0.985245 0.683650
O O13 0.785332 0.782012 0.278785
O O14 0.000000 0.794846 0.250000
O O15 0.890510 0.247101 0.293485
#
# Coordination Sequence:
#
# PCOD9269378 Si02
#       8
#     8   8   8   8   8   4   8   4
#     4  12  24  41  66  92 126 167 217 273 318 383
#     4  11  20  38  64  98 134 166 207 251 326 397
#     4  10  20  36  61  91 128 173 208 253 314 391
#     4  10  22  43  64  89 121 168 222 268 323 375
#     4  11  22  37  59  98 138 169 204 257 319 390
#     4   9  20  34  60  96 132 174 207 252 320 388
#     4  10  20  34  55  94 139 172 204 246 314 391
#     4  11  26  46  62  94 116 166 223 286 326 360
#
# _framework density 22.317049000000001
#
# number of rings (size 3 to 8) (size 9 to 14) (size 15 to 20)
#    0.000    1.429    5.000    1.714    4.000    2.286 
#    2.571    0.714    0.000    0.000    0.000    0.000 
#    0.000    0.000    0.000    0.000    0.000    0.000 
#
# Total GULP energy -155915.981028 kJ/mol
# GULP energy per Si atom -5568.427894 kJ/mol
# Density = 2.226625 g / cm^3
# Si number density = 22.317049 Si / 1000 Ang^3
#
#
#
# Elastic Constant Matrix: (Units=GPa)
#
#
# Indices 1 2 3 4 5 6 
#
# 1 168.2092 14.7333 42.3475 0.0000 -17.2868 0.0000
# 2 14.7333 22.3852 19.4083 0.0000 -12.6640 0.0000
# 3 42.3475 19.4083 54.4488 0.0000 -13.7797 0.0000
# 4 0.0000 0.0000 0.0000 -57.4918 0.0000 46.2628
# 5 -17.2868 -12.6640 -13.7797 0.0000 42.5254 0.0000
# 6 0.0000 0.0000 0.0000 46.2628 0.0000 -31.1217
#
#
#
# Elastic Compliance Matrix: (Units=1/GPa)
#
#
# Indices 1 2 3 4 5 6 
#
# 1 0.007464 0.000893 -0.005761 0.000000 0.001433 0.000000
# 2 0.000893 0.071906 -0.022674 0.000000 0.014429 0.000000
# 3 -0.005761 -0.022674 0.031184 0.000000 0.001011 0.000000
# 4 0.000000 0.000000 0.000000 0.088667 0.000000 0.131804
# 5 0.001433 0.014429 0.001011 0.000000 0.028723 0.000000
# 6 0.000000 0.000000 0.000000 0.131804 0.000000 0.163796
#
#
# Mechanical properties :
#
#
# Convention : Reuss Voigt Hill
#
# Bulk Modulus (GPa) = 18.02730 44.22461 31.12595
# Shear Modulus (GPa) = 10.74544 2.01932 6.38238
#
# Velocity S-wave (km/s) = 2.19667 0.95226 1.69295
# Velocity P-wave (km/s) = 3.81171 4.59005 4.21887
#
# Compressibility (1/GPa) = 0.05547143
#
# Stress axis : x y z
#
# Youngs Moduli (GPa) = 133.96862 13.90700 32.06741
#
# Poissons Ratio (x) = -0.01242 0.18474
# Poissons Ratio (y) = -0.11962 0.72709
# Poissons Ratio (z) = 0.77179 0.31532
#
# Static dielectric constant tensor:
#      x y z
#    x 1.886640 0.000000 -0.002030 
#    y 0.000000 1.883550 0.000000 
#    z -0.002030 0.000000 1.913330 
# 
# From -- ./inp_files/89574.got.cif
#   From: 2010.05.17/outbox.cif.g08.bks.cpg/sg15_45_cif.got.tgz:89574.got - 2010.06.03 18:47:42.
