data_PCOD9269855
_publ_section_title
;
Structure prediction by ZEFSAII (Michael W. Deem and Ramdas Pophale) SiO2 
 PCOD9269855
Probable space group: C 2/C
;
_chemical_formula_sum "Si O2"
_cell_formula_units_Z 44
_cell_length_a 9.169050
_cell_length_b 10.705655
_cell_length_c 20.819170
_cell_angle_alpha 90.000000
_cell_angle_beta 103.213662
_cell_angle_gamma 90.000000
_cell_volume 1989.517889
_symmetry_space_group_name_H-M "C 2/C"
_symmetry_group_IT_number 15
_symmetry_cell_setting 'monoclinic'
loop_
_space_group_symop_operation_xyz
x,y,z
-x,y,1/2-z
-x,-y,-z
x,-y,1/2+z
1/2+x,1/2+y,z
1/2-x,1/2+y,1/2-z
1/2-x,1/2-y,-z
1/2+x,1/2-y,1/2+z
loop_
_atom_site_type_symbol
_atom_site_label
_atom_site_fract_x
_atom_site_fract_y
_atom_site_fract_z
Si Si1 0.000000 0.500000 0.000000
Si Si2 0.331034 0.854255 0.416742
Si Si3 0.822039 0.535148 0.224461
Si Si4 0.223774 0.018805 0.570099
Si Si5 0.049606 0.811671 0.469391
Si Si6 0.353226 0.221334 0.778986
O O1 0.134568 0.536874 0.960301
O O2 0.867959 0.501386 0.925135
O O3 0.163573 0.816714 0.420676
O O4 0.433971 0.822313 0.492509
O O5 0.384992 0.789158 0.358309
O O6 0.777013 0.518541 0.145878
O O7 0.744640 0.657969 0.243143
O O8 0.772014 0.408672 0.254817
O O9 0.000000 0.545489 0.250000
O O10 0.113642 0.138376 0.561452
O O11 0.125164 0.906435 0.528603
O O12 0.500000 0.226485 0.750000
#
# Coordination Sequence:
#
# PCOD9269855 Si02
#       6
#     4   8   8   8   8   8
#     4  10  20  34  62  94 132 164 208 288 358 400
#     4  10  20  41  61  95 131 167 222 285 342 416
#     4  11  25  46  67  97 139 183 233 286 338 422
#     4  10  20  41  61  97 126 171 224 279 353 413
#     4   9  20  38  69  88 126 166 216 284 341 414
#     4  11  25  46  67  98 138 183 232 288 339 416
#
# _framework density 22.11591
#
# number of rings (size 3 to 8) (size 9 to 14) (size 15 to 20)
#    0.000    1.818    1.818    2.182    0.000    4.364 
#    9.818    0.000    0.000    0.000    0.000    0.000 
#    0.000    0.000    0.000    0.000    0.000    0.000 
#
# Total GULP energy -122526.950079 kJ/mol
# GULP energy per Si atom -5569.406822 kJ/mol
# Density = 2.206557 g / cm^3
# Si number density = 22.115910 Si / 1000 Ang^3
#
#
#
# Elastic Constant Matrix: (Units=GPa)
#
#
# Indices 1 2 3 4 5 6 
#
# 1 114.5117 64.2666 60.0028 0.0000 -22.4057 0.0000
# 2 64.2666 130.1446 24.5290 0.0000 -3.9118 0.0000
# 3 60.0028 24.5290 84.6761 0.0000 -12.5767 0.0000
# 4 0.0000 0.0000 0.0000 39.2982 0.0000 5.7198
# 5 -22.4057 -3.9118 -12.5767 0.0000 32.5340 0.0000
# 6 0.0000 0.0000 0.0000 5.7198 0.0000 38.2515
#
#
#
# Elastic Compliance Matrix: (Units=1/GPa)
#
#
# Indices 1 2 3 4 5 6 
#
# 1 0.020713 -0.007873 -0.011053 0.000000 0.009045 0.000000
# 2 -0.007873 0.011120 0.001858 0.000000 -0.003367 0.000000
# 3 -0.011053 0.001858 0.019104 0.000000 -0.000004 0.000000
# 4 0.000000 0.000000 0.000000 0.026013 0.000000 -0.003890
# 5 0.009045 -0.003367 -0.000004 0.000000 0.036560 0.000000
# 6 0.000000 0.000000 0.000000 -0.003890 0.000000 0.026724
#
#
# Mechanical properties :
#
#
# Convention : Reuss Voigt Hill
#
# Bulk Modulus (GPa) = 59.52719 69.65879 64.59299
# Shear Modulus (GPa) = 27.78223 34.05233 30.91728
#
# Velocity S-wave (km/s) = 3.54815 3.92818 3.74299
# Velocity P-wave (km/s) = 6.61515 7.22078 6.92459
#
# Compressibility (1/GPa) = 0.01679905
#
# Stress axis : x y z
#
# Youngs Moduli (GPa) = 48.27907 89.92602 52.34618
#
# Poissons Ratio (x) = 0.70799 0.57860
# Poissons Ratio (y) = 0.38010 -0.09724
# Poissons Ratio (z) = 0.53365 -0.16704
#
# Static dielectric constant tensor:
#      x y z
#    x 1.820780 0.000000 0.045030 
#    y 0.000000 2.413230 0.000000 
#    z 0.045030 0.000000 1.886770 
# 
# From -- ./inp_files/230261.got.cif
#   From: 2010.05.17/outbox.cif.g08.bks.cpg/sg15_116_cif.got.tgz:230261.got - 2010.06.03 18:47:42.
