data_PCOD9269738
_publ_section_title
;
Structure prediction by ZEFSAII (Michael W. Deem and Ramdas Pophale) SiO2 
 PCOD9269738
Probable space group: C 2/C
;
_chemical_formula_sum "Si O2"
_cell_formula_units_Z 64
_cell_length_a 11.576364
_cell_length_b 21.283560
_cell_length_c 27.764514
_cell_angle_alpha 90.000000
_cell_angle_beta 149.419117
_cell_angle_gamma 90.000000
_cell_volume 3480.282733
_symmetry_space_group_name_H-M "C 2/C"
_symmetry_group_IT_number 15
_symmetry_cell_setting 'monoclinic'
loop_
_space_group_symop_operation_xyz
x,y,z
-x,y,1/2-z
-x,-y,-z
x,-y,1/2+z
1/2+x,1/2+y,z
1/2-x,1/2+y,1/2-z
1/2-x,1/2-y,-z
1/2+x,1/2-y,1/2+z
loop_
_atom_site_type_symbol
_atom_site_label
_atom_site_fract_x
_atom_site_fract_y
_atom_site_fract_z
Si Si1 0.766524 0.112803 0.147351
Si Si2 0.617095 0.335364 0.991056
Si Si3 0.602103 0.227737 0.151728
Si Si4 0.882898 0.164637 0.508941
Si Si5 0.766519 0.887197 0.147350
Si Si6 0.397906 0.772265 0.348273
Si Si7 0.763964 0.428614 0.467638
Si Si8 0.736041 0.928615 0.532364
O O1 0.729264 0.177892 0.162582
O O2 0.782010 0.116133 0.094957
O O3 0.000000 0.083962 0.250000
O O4 0.535503 0.074384 0.073139
O O5 0.499986 0.344027 0.999994
O O6 0.472677 0.286418 0.907555
O O7 0.643149 0.399216 0.970206
O O8 0.869669 0.305770 0.085895
O O9 0.369674 0.194233 0.085894
O O10 0.750002 0.250001 0.250000
O O11 0.527336 0.286420 0.092447
O O12 0.856845 0.100785 0.529792
O O13 0.729255 0.822109 0.162579
O O14 0.782002 0.883866 0.094955
O O15 0.000000 0.916037 0.250000
O O16 0.535499 0.925617 0.073137
O O17 0.697781 0.499999 0.432947
#
# Coordination Sequence:
#
# PCOD9269738 Si02
#       8
#     8   8   8   8   8   8   8   8
#     4  10  20  34  60  87 111 146 187 237 293 332
#     4  10  23  37  56  83 115 153 189 232 283 343
#     4  10  22  36  57  85 119 148 183 234 291 349
#     4  10  23  37  56  83 115 153 189 232 283 343
#     4  10  20  34  60  87 111 146 187 237 293 332
#     4  10  22  36  57  85 119 148 183 234 291 349
#     4  10  22  39  56  83 116 150 196 238 276 332
#     4  10  22  39  56  83 116 150 196 238 276 332
#
# _framework density 18.389309999999998
#
# number of rings (size 3 to 8) (size 9 to 14) (size 15 to 20)
#    0.000    2.000    0.000    3.000   14.000    2.500 
#    0.000    0.000    0.000    0.000    0.000   10.500 
#    0.000    0.000    0.000    0.000    0.000    0.000 
#
# Total GULP energy -178605.863110 kJ/mol
# GULP energy per Si atom -5581.433222 kJ/mol
# Density = 1.834745 g / cm^3
# Si number density = 18.389310 Si / 1000 Ang^3
#
#
#
# Elastic Constant Matrix: (Units=GPa)
#
#
# Indices 1 2 3 4 5 6 
#
# 1 168.6317 51.9195 50.8633 -0.0010 -17.9803 -0.0010
# 2 51.9195 79.9289 34.1581 -0.0010 -16.7640 -0.0026
# 3 50.8633 34.1581 122.2585 -0.0024 -16.2426 -0.0041
# 4 -0.0010 -0.0010 -0.0024 6.1646 -0.0021 4.3659
# 5 -17.9803 -16.7640 -16.2426 -0.0021 17.8405 -0.0022
# 6 -0.0010 -0.0026 -0.0041 4.3659 -0.0022 1.0058
#
#
#
# Elastic Compliance Matrix: (Units=1/GPa)
#
#
# Indices 1 2 3 4 5 6 
#
# 1 0.007958 -0.003787 -0.001888 -0.000002 0.002743 0.000003
# 2 -0.003787 0.018235 -0.001991 0.000018 0.011506 -0.000018
# 3 -0.001888 -0.001991 0.010261 0.000014 0.005568 -0.000012
# 4 -0.000002 0.000018 0.000014 -0.078213 0.000061 0.339484
# 5 0.002743 0.011506 0.005568 0.000061 0.074697 -0.000045
# 6 0.000003 -0.000018 -0.000012 0.339484 -0.000045 -0.479349
#
#
# Mechanical properties :
#
#
# Convention : Reuss Voigt Hill
#
# Bulk Modulus (GPa) = 47.34429 71.63345 59.48887
# Shear Modulus (GPa) = -11.79139 20.59406 4.40133
#
# Velocity S-wave (km/s) = -2.53496 3.35011 1.54875
# Velocity P-wave (km/s) = 4.15132 7.34866 5.96809
#
# Compressibility (1/GPa) = 0.02112187
#
# Stress axis : x y z
#
# Youngs Moduli (GPa) = 125.65824 54.83972 97.45706
#
# Poissons Ratio (x) = 0.20768 0.18403
# Poissons Ratio (y) = 0.47588 0.19400
# Poissons Ratio (z) = 0.23729 0.10916
#
# Static dielectric constant tensor:
#      x y z
#    x 1.621380 0.000000 0.006720 
#    y 0.000000 1.634110 0.000000 
#    z 0.006720 0.000000 1.640700 
# 
# From -- ./inp_files/293794.got.cif
#   From: 2010.05.17/outbox.cif.g08.bks.cpg/sg15_147_cif.got.tgz:293794.got - 2010.06.03 18:47:42.
