data_PCOD9269482
_publ_section_title
;
Structure prediction by ZEFSAII (Michael W. Deem and Ramdas Pophale) SiO2 
 PCOD9269482
Probable space group: C 2/C
;
_chemical_formula_sum "Si O2"
_cell_formula_units_Z 56
_cell_length_a 10.703010
_cell_length_b 19.140062
_cell_length_c 14.568998
_cell_angle_alpha 90.000000
_cell_angle_beta 103.126925
_cell_angle_gamma 90.000000
_cell_volume 2906.562410
_symmetry_space_group_name_H-M "C 2/C"
_symmetry_group_IT_number 15
_symmetry_cell_setting 'monoclinic'
loop_
_space_group_symop_operation_xyz
x,y,z
-x,y,1/2-z
-x,-y,-z
x,-y,1/2+z
1/2+x,1/2+y,z
1/2-x,1/2+y,1/2-z
1/2-x,1/2-y,-z
1/2+x,1/2-y,1/2+z
loop_
_atom_site_type_symbol
_atom_site_label
_atom_site_fract_x
_atom_site_fract_y
_atom_site_fract_z
Si Si1 0.197229 0.547322 0.234256
Si Si2 0.807319 0.268434 0.608225
Si Si3 0.257685 0.971762 0.428718
Si Si4 0.426801 0.426696 0.508492
Si Si5 0.429646 0.920158 0.607394
Si Si6 0.534844 0.369061 0.356515
Si Si7 0.907981 0.160670 0.316006
O O1 0.230288 0.481649 0.177862
O O2 0.145570 0.534505 0.327872
O O3 0.316159 0.599528 0.261196
O O4 0.077897 0.579492 0.157830
O O5 0.750000 0.250000 0.500000
O O6 0.877135 0.342632 0.613349
O O7 0.910900 0.208853 0.647810
O O8 0.687771 0.281506 0.657240
O O9 0.200826 0.043185 0.463622
O O10 0.385289 0.948289 0.502058
O O11 0.153924 0.910500 0.421795
O O12 0.500000 0.500000 0.500000
O O13 0.422411 0.384276 0.411666
O O14 0.506751 0.377494 0.591409
O O15 0.500000 0.397038 0.250000
O O16 0.000000 0.186222 0.250000
#
# Coordination Sequence:
#
# PCOD9269482 Si02
#       7
#     8   8   8   8   8   8   8
#     4  10  21  35  60  85 116 154 191 236 288 362
#     4  11  20  41  61  81 117 157 203 241 285 347
#     4  11  21  36  60  86 122 148 183 245 304 342
#     4  10  20  34  56  91 121 145 186 246 300 347
#     4  10  22  38  58  87 114 156 199 230 288 356
#     4  11  24  34  60  91 116 151 196 246 285 346
#     4  11  21  37  61  87 116 157 200 248 298 348
#
# _framework density 19.266746999999999
#
# number of rings (size 3 to 8) (size 9 to 14) (size 15 to 20)
#    0.000    1.429    4.286    3.000   10.000    0.000 
#    0.000    0.000    6.286    2.571    0.000    0.000 
#    0.000    0.000    0.000    0.000    0.000    0.000 
#
# Total GULP energy -156079.390812 kJ/mol
# GULP energy per Si atom -5574.263958 kJ/mol
# Density = 1.922290 g / cm^3
# Si number density = 19.266747 Si / 1000 Ang^3
#
#
#
# Elastic Constant Matrix: (Units=GPa)
#
#
# Indices 1 2 3 4 5 6 
#
# 1 46.4384 18.1760 7.4000 0.0000 -5.5291 0.0000
# 2 18.1760 57.8540 17.6639 0.0000 -14.0540 0.0000
# 3 7.4000 17.6639 90.3668 0.0000 -1.5107 0.0000
# 4 0.0000 0.0000 0.0000 29.5687 0.0000 -0.0044
# 5 -5.5291 -14.0540 -1.5107 0.0000 33.3499 0.0000
# 6 0.0000 0.0000 0.0000 -0.0044 0.0000 25.3849
#
#
#
# Elastic Compliance Matrix: (Units=1/GPa)
#
#
# Indices 1 2 3 4 5 6 
#
# 1 0.024605 -0.007322 -0.000568 0.000000 0.000968 0.000000
# 2 -0.007322 0.022704 -0.003701 0.000000 0.008186 0.000000
# 3 -0.000568 -0.003701 0.011817 0.000000 -0.001119 0.000000
# 4 0.000000 0.000000 0.000000 0.033820 0.000000 0.000006
# 5 0.000968 0.008186 -0.001119 0.000000 0.033545 0.000000
# 6 0.000000 0.000000 0.000000 0.000006 0.000000 0.039394
#
#
# Mechanical properties :
#
#
# Convention : Reuss Voigt Hill
#
# Bulk Modulus (GPa) = 27.82035 31.23768 29.52901
# Shear Modulus (GPa) = 24.86974 27.75531 26.31253
#
# Velocity S-wave (km/s) = 3.59668 3.79962 3.69954
# Velocity P-wave (km/s) = 5.63197 5.95801 5.79728
#
# Compressibility (1/GPa) = 0.03594491
#
# Stress axis : x y z
#
# Youngs Moduli (GPa) = 40.64151 44.04532 84.62158
#
# Poissons Ratio (x) = 0.32249 0.04803
# Poissons Ratio (y) = 0.29757 0.31323
# Poissons Ratio (z) = 0.02307 0.16303
#
# Static dielectric constant tensor:
#      x y z
#    x 1.742700 0.000000 -0.043480 
#    y 0.000000 1.675520 0.000000 
#    z -0.043480 0.000000 1.692930 
# 
# From -- ./inp_files/145761.got.cif
#   From: 2010.05.17/outbox.cif.g08.bks.cpg/sg15_73_cif.got.tgz:145761.got - 2010.06.03 18:47:42.
