data_PCOD9269477
_publ_section_title
;
Structure prediction by ZEFSAII (Michael W. Deem and Ramdas Pophale) SiO2 
 PCOD9269477
Probable space group: C 2/C
;
_chemical_formula_sum "Si O2"
_cell_formula_units_Z 44
_cell_length_a 11.883603
_cell_length_b 20.937450
_cell_length_c 12.104446
_cell_angle_alpha 90.000000
_cell_angle_beta 129.554708
_cell_angle_gamma 90.000000
_cell_volume 2322.098975
_symmetry_space_group_name_H-M "C 2/C"
_symmetry_group_IT_number 15
_symmetry_cell_setting 'monoclinic'
loop_
_space_group_symop_operation_xyz
x,y,z
-x,y,1/2-z
-x,-y,-z
x,-y,1/2+z
1/2+x,1/2+y,z
1/2-x,1/2+y,1/2-z
1/2-x,1/2-y,-z
1/2+x,1/2-y,1/2+z
loop_
_atom_site_type_symbol
_atom_site_label
_atom_site_fract_x
_atom_site_fract_y
_atom_site_fract_z
Si Si1 0.775575 0.171776 0.158971
Si Si2 0.618373 0.834391 0.922847
Si Si3 0.000000 0.364335 0.250000
Si Si4 0.819589 0.192031 0.945356
Si Si5 0.531370 0.074111 0.004457
Si Si6 0.099718 0.194759 0.022262
O O1 0.668186 0.231076 0.058762
O O2 0.688512 0.106725 0.130343
O O3 0.850813 0.194503 0.318473
O O4 0.858346 0.167178 0.093019
O O5 0.500000 0.836215 0.750000
O O6 0.580027 0.887275 0.988279
O O7 0.778488 0.842443 0.970843
O O8 0.605024 0.765359 0.973096
O O9 0.850494 0.324991 0.175730
O O10 0.015801 0.407304 0.367391
O O11 0.934878 0.168037 0.926646
O O12 0.500000 0.000000 0.000000
#
# Coordination Sequence:
#
# PCOD9269477 Si02
#       6
#     8   8   4   8   8   8
#     4  10  20  34  56  89 119 155 202 243 309 353
#     4  11  22  37  57  94 122 158 202 242 317 367
#     4  10  24  40  60  94 116 158 212 242 312 354
#     4  10  20  34  59  90 124 152 193 262 304 360
#     4  11  23  40  63  85 122 166 210 242 284 375
#     4  11  20  35  62  87 127 150 190 265 313 359
#
# _framework density 18.948374000000001
#
# number of rings (size 3 to 8) (size 9 to 14) (size 15 to 20)
#    0.000    1.455    3.636    1.636    6.364    1.455 
#    0.000    0.000    0.000   14.182    0.000    0.000 
#    0.000    0.000    0.000    0.000    0.000    0.000 
#
# Total GULP energy -122589.589205 kJ/mol
# GULP energy per Si atom -5572.254055 kJ/mol
# Density = 1.890525 g / cm^3
# Si number density = 18.948374 Si / 1000 Ang^3
#
#
#
# Elastic Constant Matrix: (Units=GPa)
#
#
# Indices 1 2 3 4 5 6 
#
# 1 196.6803 44.1017 28.0663 0.0000 7.1381 0.0000
# 2 44.1017 93.3951 22.5125 0.0000 -1.8056 0.0000
# 3 28.0663 22.5125 67.4728 0.0000 -5.6132 0.0000
# 4 0.0000 0.0000 0.0000 11.4319 0.0000 -2.7861
# 5 7.1381 -1.8056 -5.6132 0.0000 27.1161 0.0000
# 6 0.0000 0.0000 0.0000 -2.7861 0.0000 20.7547
#
#
#
# Elastic Compliance Matrix: (Units=1/GPa)
#
#
# Indices 1 2 3 4 5 6 
#
# 1 0.005966 -0.002412 -0.001853 0.000000 -0.002115 0.000000
# 2 -0.002412 0.012618 -0.003138 0.000000 0.000825 0.000000
# 3 -0.001853 -0.003138 0.016954 0.000000 0.003788 0.000000
# 4 0.000000 0.000000 0.000000 0.090433 0.000000 0.012140
# 5 -0.002115 0.000825 0.003788 0.000000 0.038274 0.000000
# 6 0.000000 0.000000 0.000000 0.012140 0.000000 0.049811
#
#
# Mechanical properties :
#
#
# Convention : Reuss Voigt Hill
#
# Bulk Modulus (GPa) = 48.23323 60.76769 54.50046
# Shear Modulus (GPa) = 21.20669 29.38505 25.29587
#
# Velocity S-wave (km/s) = 3.34905 3.94229 3.65771
# Velocity P-wave (km/s) = 6.36122 7.27062 6.83107
#
# Compressibility (1/GPa) = 0.02073259
#
# Stress axis : x y z
#
# Youngs Moduli (GPa) = 167.60753 79.24940 58.98344
#
# Poissons Ratio (x) = 0.19111 0.10930
# Poissons Ratio (y) = 0.40419 0.18511
# Poissons Ratio (z) = 0.31059 0.24872
#
# Static dielectric constant tensor:
#      x y z
#    x 1.739190 0.000000 0.045280 
#    y 0.000000 1.625580 0.000000 
#    z 0.045280 0.000000 1.741330 
# 
# From -- ./inp_files/88320.got.cif
#   From: 2010.05.17/outbox.cif.g08.bks.cpg/sg15_45_cif.got.tgz:88320.got - 2010.06.03 18:47:42.
