data_PCOD9269493
_publ_section_title
;
Structure prediction by ZEFSAII (Michael W. Deem and Ramdas Pophale) SiO2 
 PCOD9269493
Probable space group: C 2/C
;
_chemical_formula_sum "Si O2"
_cell_formula_units_Z 64
_cell_length_a 18.644441
_cell_length_b 11.599285
_cell_length_c 17.633455
_cell_angle_alpha 90.000000
_cell_angle_beta 99.489479
_cell_angle_gamma 90.000000
_cell_volume 3761.265849
_symmetry_space_group_name_H-M "C 2/C"
_symmetry_group_IT_number 15
_symmetry_cell_setting 'monoclinic'
loop_
_space_group_symop_operation_xyz
x,y,z
-x,y,1/2-z
-x,-y,-z
x,-y,1/2+z
1/2+x,1/2+y,z
1/2-x,1/2+y,1/2-z
1/2-x,1/2-y,-z
1/2+x,1/2-y,1/2+z
loop_
_atom_site_type_symbol
_atom_site_label
_atom_site_fract_x
_atom_site_fract_y
_atom_site_fract_z
Si Si1 0.658148 0.839917 0.444214
Si Si2 0.856193 0.858237 0.044727
Si Si3 0.443122 0.919322 0.946013
Si Si4 0.336135 0.046134 0.171336
Si Si5 0.187773 0.463859 0.163662
Si Si6 0.705371 0.592927 0.426959
Si Si7 0.466802 0.778402 0.663183
Si Si8 0.278968 0.268094 0.895696
O O1 0.595560 0.840789 0.496982
O O2 0.667153 0.715265 0.407673
O O3 0.731246 0.876916 0.501884
O O4 0.648035 0.940287 0.381544
O O5 0.924986 0.816520 0.105006
O O6 0.782662 0.804762 0.069436
O O7 0.846266 0.995079 0.046762
O O8 0.847462 0.804502 0.959426
O O9 0.380550 0.000751 0.900251
O O10 0.478043 0.844970 0.883797
O O11 0.500000 0.000000 0.000000
O O12 0.326796 0.003865 0.254571
O O13 0.403597 0.132236 0.175105
O O14 0.263695 0.117500 0.136389
O O15 0.255429 0.534744 0.138814
O O16 0.198985 0.326284 0.162408
O O17 0.500000 0.738639 0.750000
#
# Coordination Sequence:
#
# PCOD9269493 Si02
#       8
#     8   8   8   8   8   8   8   8
#     4  10  20  34  57  79 114 139 176 231 275 331
#     4   9  17  34  58  74 108 141 185 225 262 329
#     4  11  20  35  55  79 105 145 187 219 268 320
#     4  11  20  33  53  81 113 142 179 231 276 329
#     4  10  21  32  53  81 113 137 177 230 279 327
#     4   9  19  37  53  83 108 142 178 224 283 330
#     4  11  21  35  54  82 111 144 187 229 269 321
#     4   9  18  32  53  81 102 142 183 221 279 322
#
# _framework density 17.015547000000002
#
# number of rings (size 3 to 8) (size 9 to 14) (size 15 to 20)
#    0.000    2.000    3.750    0.750    5.250    0.000 
#    0.000    0.625    0.000    2.250    0.000    0.000 
#    0.000    0.000    0.000    0.000    0.000    0.000 
#
# Total GULP energy -178248.416444 kJ/mol
# GULP energy per Si atom -5570.263014 kJ/mol
# Density = 1.697682 g / cm^3
# Si number density = 17.015547 Si / 1000 Ang^3
#
#
#
# Elastic Constant Matrix: (Units=GPa)
#
#
# Indices 1 2 3 4 5 6 
#
# 1 52.0039 30.0183 24.9391 0.0000 0.4899 0.0000
# 2 30.0183 96.4273 35.7286 0.0000 0.0460 0.0000
# 3 24.9391 35.7286 81.7659 0.0000 -5.1821 0.0000
# 4 0.0000 0.0000 0.0000 20.0599 0.0000 -0.7051
# 5 0.4899 0.0460 -5.1821 0.0000 27.8087 0.0000
# 6 0.0000 0.0000 0.0000 -0.7051 0.0000 10.6436
#
#
#
# Elastic Compliance Matrix: (Units=1/GPa)
#
#
# Indices 1 2 3 4 5 6 
#
# 1 0.025133 -0.005906 -0.005173 0.000000 -0.001397 0.000000
# 2 -0.005906 0.013792 -0.004270 0.000000 -0.000715 0.000000
# 3 -0.005173 -0.004270 0.015867 0.000000 0.003055 0.000000
# 4 0.000000 0.000000 0.000000 0.049967 0.000000 0.003310
# 5 -0.001397 -0.000715 0.003055 0.000000 0.036555 0.000000
# 6 0.000000 0.000000 0.000000 0.003310 0.000000 0.094173
#
#
# Mechanical properties :
#
#
# Convention : Reuss Voigt Hill
#
# Bulk Modulus (GPa) = 41.50749 45.72988 43.61869
# Shear Modulus (GPa) = 18.23370 21.00317 19.61844
#
# Velocity S-wave (km/s) = 3.27707 3.51715 3.39923
# Velocity P-wave (km/s) = 6.22621 6.58995 6.41066
#
# Compressibility (1/GPa) = 0.02409204
#
# Stress axis : x y z
#
# Youngs Moduli (GPa) = 39.78863 72.50691 63.02196
#
# Poissons Ratio (x) = 0.42826 0.32603
# Poissons Ratio (y) = 0.23501 0.26912
# Poissons Ratio (z) = 0.20584 0.30962
#
# Static dielectric constant tensor:
#      x y z
#    x 1.579620 0.000000 -0.003480 
#    y 0.000000 1.577850 0.000000 
#    z -0.003480 0.000000 1.580460 
# 
# From -- ./inp_files/210368.got.cif
#   From: 2010.05.17/outbox.cif.g08.bks.cpg/sg15_106_cif.got.tgz:210368.got - 2010.06.03 18:47:42.
