data_PCOD9269740
_publ_section_title
;
Structure prediction by ZEFSAII (Michael W. Deem and Ramdas Pophale) SiO2 
 PCOD9269740
Probable space group: C 2/C
;
_chemical_formula_sum "Si O2"
_cell_formula_units_Z 48
_cell_length_a 10.539473
_cell_length_b 8.897462
_cell_length_c 21.188991
_cell_angle_alpha 90.000000
_cell_angle_beta 111.626894
_cell_angle_gamma 90.000000
_cell_volume 1847.111474
_symmetry_space_group_name_H-M "C 2/C"
_symmetry_group_IT_number 15
_symmetry_cell_setting 'monoclinic'
loop_
_space_group_symop_operation_xyz
x,y,z
-x,y,1/2-z
-x,-y,-z
x,-y,1/2+z
1/2+x,1/2+y,z
1/2-x,1/2+y,1/2-z
1/2-x,1/2-y,-z
1/2+x,1/2-y,1/2+z
loop_
_atom_site_type_symbol
_atom_site_label
_atom_site_fract_x
_atom_site_fract_y
_atom_site_fract_z
Si Si1 0.748265 0.960062 0.348572
Si Si2 0.542151 0.351133 0.545207
Si Si3 0.326943 0.165714 0.442975
Si Si4 0.284205 0.360332 0.085544
Si Si5 0.648229 0.357485 0.259102
Si Si6 0.492451 0.137104 0.356766
O O1 0.767998 0.805668 0.392042
O O2 0.754714 0.925986 0.275926
O O3 0.877684 0.072493 0.381834
O O4 0.610680 0.033928 0.350111
O O5 0.500000 0.500000 0.500000
O O6 0.414751 0.236120 0.516015
O O7 0.665787 0.249557 0.540085
O O8 0.421167 0.082199 0.407226
O O9 0.228966 0.028295 0.443002
O O10 0.276410 0.355883 0.160778
O O11 0.431852 0.287804 0.104121
O O12 0.500000 0.430607 0.250000
O O13 0.602846 0.201827 0.216415
#
# Coordination Sequence:
#
# PCOD9269740 Si02
#       6
#     8   8   8   8   8   8
#     4   9  19  36  61  88 117 154 196 244 295 356
#     4   9  19  37  60  85 120 159 196 244 297 352
#     4  10  20  37  60  89 120 153 198 246 296 352
#     4  10  20  34  60  87 113 155 197 241 293 347
#     4   9  19  36  59  83 114 153 196 240 296 353
#     4   9  20  39  62  86 119 160 194 241 302 355
#
# _framework density 25.986519999999999
#
# number of rings (size 3 to 8) (size 9 to 14) (size 15 to 20)
#    0.000    2.667    0.000    0.500    0.000   12.000 
#    0.000   13.333    0.000   44.000    0.000    0.000 
#    0.000    0.000    0.000    0.000    0.000    0.000 
#
# Total GULP energy -134069.882259 kJ/mol
# GULP energy per Si atom -5586.245094 kJ/mol
# Density = 2.592737 g / cm^3
# Si number density = 25.986520 Si / 1000 Ang^3
#
#
#
# Elastic Constant Matrix: (Units=GPa)
#
#
# Indices 1 2 3 4 5 6 
#
# 1 102.5852 51.5526 26.0360 0.0000 -17.2531 0.0000
# 2 51.5526 140.0953 32.9673 0.0000 28.2859 0.0000
# 3 26.0360 32.9673 89.4636 0.0000 -2.5061 0.0000
# 4 0.0000 0.0000 0.0000 25.9618 0.0000 11.1045
# 5 -17.2531 28.2859 -2.5061 0.0000 44.5651 0.0000
# 6 0.0000 0.0000 0.0000 11.1045 0.0000 56.1828
#
#
#
# Elastic Compliance Matrix: (Units=1/GPa)
#
#
# Indices 1 2 3 4 5 6 
#
# 1 0.015814 -0.007677 -0.001467 0.000000 0.010912 0.000000
# 2 -0.007677 0.012921 -0.002844 0.000000 -0.011333 0.000000
# 3 -0.001467 -0.002844 0.012708 0.000000 0.001952 0.000000
# 4 0.000000 0.000000 0.000000 0.042075 0.000000 -0.008316
# 5 0.010912 -0.011333 0.001952 0.000000 0.033967 0.000000
# 6 0.000000 0.000000 0.000000 -0.008316 0.000000 0.019443
#
#
# Mechanical properties :
#
#
# Convention : Reuss Voigt Hill
#
# Bulk Modulus (GPa) = 57.26110 61.47288 59.36699
# Shear Modulus (GPa) = 29.98935 40.11449 35.05192
#
# Velocity S-wave (km/s) = 3.40079 3.93321 3.67665
# Velocity P-wave (km/s) = 6.12399 6.65837 6.39677
#
# Compressibility (1/GPa) = 0.01746386
#
# Stress axis : x y z
#
# Youngs Moduli (GPa) = 63.23618 77.39593 78.69263
#
# Poissons Ratio (x) = 0.59418 0.11548
# Poissons Ratio (y) = 0.48547 0.22384
# Poissons Ratio (z) = 0.09280 0.22015
#
# Static dielectric constant tensor:
#      x y z
#    x 2.066920 0.000000 -0.007050 
#    y 0.000000 2.055250 0.000000 
#    z -0.007050 0.000000 2.024590 
# 
# From -- ./inp_files/291294.got.cif
#   From: 2010.05.17/outbox.cif.g08.bks.cpg/sg15_146_cif.got.tgz:291294.got - 2010.06.03 18:47:42.
