data_PCOD9269444
_publ_section_title
;
Structure prediction by ZEFSAII (Michael W. Deem and Ramdas Pophale) SiO2 
 PCOD9269444
Probable space group: C 2/C
;
_chemical_formula_sum "Si O2"
_cell_formula_units_Z 56
_cell_length_a 24.210875
_cell_length_b 11.968667
_cell_length_c 8.791305
_cell_angle_alpha 90.000000
_cell_angle_beta 90.146378
_cell_angle_gamma 90.000000
_cell_volume 2547.464846
_symmetry_space_group_name_H-M "C 2/C"
_symmetry_group_IT_number 15
_symmetry_cell_setting 'monoclinic'
loop_
_space_group_symop_operation_xyz
x,y,z
-x,y,1/2-z
-x,-y,-z
x,-y,1/2+z
1/2+x,1/2+y,z
1/2-x,1/2+y,1/2-z
1/2-x,1/2-y,-z
1/2+x,1/2-y,1/2+z
loop_
_atom_site_type_symbol
_atom_site_label
_atom_site_fract_x
_atom_site_fract_y
_atom_site_fract_z
Si Si1 0.650131 0.559267 0.463134
Si Si2 0.649199 0.314118 0.380665
Si Si3 0.852471 0.270243 0.272766
Si Si4 0.235236 0.187285 0.655028
Si Si5 0.444015 0.058997 0.847093
Si Si6 0.946485 0.885557 0.341095
Si Si7 0.479423 0.165919 0.418031
O O1 0.667972 0.442936 0.392937
O O2 0.643154 0.661663 0.340806
O O3 0.696891 0.591006 0.585045
O O4 0.593547 0.536638 0.559096
O O5 0.645189 0.267808 0.550729
O O6 0.694441 0.252498 0.275609
O O7 0.592893 0.325823 0.284341
O O8 0.793632 0.328112 0.237155
O O9 0.899446 0.366258 0.261013
O O10 0.250000 0.250000 0.500000
O O11 0.500000 0.048426 0.750000
O O12 0.433595 0.932269 0.904544
O O13 0.467609 0.124454 0.991226
O O14 0.961267 0.788810 0.463877
O O15 0.000000 0.930925 0.250000
O O16 0.500000 0.187240 0.250000
#
# Coordination Sequence:
#
# PCOD9269444 Si02
#       7
#     8   8   8   8   8   8   8
#     4  10  22  40  59  85 126 162 193 250 311 350
#     4  11  22  39  61  86 119 157 195 245 303 355
#     4  11  20  36  62  89 115 153 206 246 295 372
#     4   9  21  41  61  82 111 150 195 246 297 349
#     4  10  20  34  56  85 116 150 189 241 298 348
#     4  10  20  37  59  84 119 164 205 244 296 358
#     4   9  18  35  54  78 115 150 186 237 295 340
#
# _framework density 21.982641000000001
#
# number of rings (size 3 to 8) (size 9 to 14) (size 15 to 20)
#    0.000    2.000    0.000    4.714    0.000    0.571 
#    0.000   18.571    0.000    0.000    0.000    0.000 
#    0.000    0.000    0.000    0.000    0.000    0.000 
#
# Total GULP energy -155888.354993 kJ/mol
# GULP energy per Si atom -5567.441250 kJ/mol
# Density = 2.193261 g / cm^3
# Si number density = 21.982641 Si / 1000 Ang^3
#
#
#
# Elastic Constant Matrix: (Units=GPa)
#
#
# Indices 1 2 3 4 5 6 
#
# 1 106.1276 3.4202 36.5633 0.0000 -4.8142 0.0000
# 2 3.4202 39.8789 2.0021 0.0000 -4.1626 0.0000
# 3 36.5633 2.0021 97.1558 0.0000 -13.6213 0.0000
# 4 0.0000 0.0000 0.0000 27.3642 0.0000 7.9697
# 5 -4.8142 -4.1626 -13.6213 0.0000 36.7875 0.0000
# 6 0.0000 0.0000 0.0000 7.9697 0.0000 3.0661
#
#
#
# Elastic Compliance Matrix: (Units=1/GPa)
#
#
# Indices 1 2 3 4 5 6 
#
# 1 0.010848 -0.000744 -0.004093 0.000000 -0.000180 0.000000
# 2 -0.000744 0.025428 0.000154 0.000000 0.002837 0.000000
# 3 -0.004093 0.000154 0.012401 0.000000 0.004073 0.000000
# 4 0.000000 0.000000 0.000000 0.150413 0.000000 -0.390973
# 5 -0.000180 0.002837 0.004073 0.000000 0.028989 0.000000
# 6 0.000000 0.000000 0.000000 -0.390973 0.000000 1.342417
#
#
# Mechanical properties :
#
#
# Convention : Reuss Voigt Hill
#
# Bulk Modulus (GPa) = 25.43747 36.34816 30.89281
# Shear Modulus (GPa) = 3.13880 26.85532 14.99706
#
# Velocity S-wave (km/s) = 1.19622 3.49902 2.61477
# Velocity P-wave (km/s) = 3.67487 5.73542 4.81662
#
# Compressibility (1/GPa) = 0.03931209
#
# Stress axis : x y z
#
# Youngs Moduli (GPa) = 92.17948 39.32657 80.63954
#
# Poissons Ratio (x) = 0.02925 0.33002
# Poissons Ratio (y) = 0.06856 -0.01239
# Poissons Ratio (z) = 0.37725 -0.00604
#
# Static dielectric constant tensor:
#      x y z
#    x 1.834030 0.000000 0.029680 
#    y 0.000000 1.915410 0.000000 
#    z 0.029680 0.000000 1.607330 
# 
# From -- ./inp_files/55651.got.cif
#   From: 2010.05.17/outbox.cif.g08.bks.cpg/sg15_28_cif.got.tgz:55651.got - 2010.06.03 18:47:42.
