data_PCOD9269940
_publ_section_title
;
Structure prediction by ZEFSAII (Michael W. Deem and Ramdas Pophale) SiO2 
 PCOD9269940
Probable space group: C 2/C
;
_chemical_formula_sum "Si O2"
_cell_formula_units_Z 48
_cell_length_a 18.763544
_cell_length_b 26.313217
_cell_length_c 5.763114
_cell_angle_alpha 90.000000
_cell_angle_beta 69.249028
_cell_angle_gamma 90.000000
_cell_volume 2660.833169
_symmetry_space_group_name_H-M "C 2/C"
_symmetry_group_IT_number 15
_symmetry_cell_setting 'monoclinic'
loop_
_space_group_symop_operation_xyz
x,y,z
-x,y,1/2-z
-x,-y,-z
x,-y,1/2+z
1/2+x,1/2+y,z
1/2-x,1/2+y,1/2-z
1/2-x,1/2-y,-z
1/2+x,1/2-y,1/2+z
loop_
_atom_site_type_symbol
_atom_site_label
_atom_site_fract_x
_atom_site_fract_y
_atom_site_fract_z
Si Si1 0.811313 0.703980 0.062097
Si Si2 0.706178 0.688828 0.789517
Si Si3 0.528968 0.676919 0.962627
Si Si4 0.643711 0.140594 0.105548
Si Si5 0.092065 0.525865 0.136482
Si Si6 0.951675 0.287570 0.100243
O O1 0.797137 0.750406 0.250882
O O2 0.851128 0.656429 0.133473
O O3 0.735249 0.687034 0.022076
O O4 0.870713 0.726815 0.808531
O O5 0.772929 0.658232 0.583487
O O6 0.620129 0.671850 0.853422
O O7 0.500000 0.658082 0.250000
O O8 0.498630 0.736126 0.993125
O O9 0.500000 0.654770 0.750000
O O10 0.626182 0.082361 0.086522
O O11 0.577465 0.175238 0.066801
O O12 0.113381 0.501397 0.365137
O O13 0.000000 0.528811 0.250000
O O14 0.000000 0.313643 0.250000
#
# Coordination Sequence:
#
# PCOD9269940 Si02
#       6
#     8   8   8   8   8   8
#     4  10  20  35  50  80 120 159 201 235 290 338
#     4  10  21  35  52  82 121 159 195 243 283 345
#     4  11  22  36  54  76 118 167 199 235 276 333
#     4  11  24  35  61  83 115 160 205 245 297 359
#     4  10  25  45  65  87 116 149 196 261 310 342
#     4  10  21  32  51  80 113 161 203 238 271 343
#
# _framework density 18.039463999999999
#
# number of rings (size 3 to 8) (size 9 to 14) (size 15 to 20)
#    0.000    1.667    3.333    1.500    9.333    0.667 
#    0.000    0.000    0.000    0.000    0.000    0.000 
#    0.000    4.000    0.000    0.000    0.000    0.000 
#
# Total GULP energy -133603.058720 kJ/mol
# GULP energy per Si atom -5566.794113 kJ/mol
# Density = 1.799840 g / cm^3
# Si number density = 18.039464 Si / 1000 Ang^3
#
#
#
# Elastic Constant Matrix: (Units=GPa)
#
#
# Indices 1 2 3 4 5 6 
#
# 1 121.9247 3.7860 41.4614 0.0000 0.3090 0.0000
# 2 3.7860 60.1395 19.8189 0.0000 -4.8607 0.0000
# 3 41.4614 19.8189 87.8409 0.0000 -6.0366 0.0000
# 4 0.0000 0.0000 0.0000 14.1172 0.0000 0.9127
# 5 0.3090 -4.8607 -6.0366 0.0000 28.5340 0.0000
# 6 0.0000 0.0000 0.0000 0.9127 0.0000 19.4211
#
#
#
# Elastic Compliance Matrix: (Units=1/GPa)
#
#
# Indices 1 2 3 4 5 6 
#
# 1 0.009851 0.000923 -0.004926 0.000000 -0.000992 0.000000
# 2 0.000923 0.018192 -0.004392 0.000000 0.002160 0.000000
# 3 -0.004926 -0.004392 0.014869 0.000000 0.002451 0.000000
# 4 0.000000 0.000000 0.000000 0.071052 0.000000 -0.003339
# 5 -0.000992 0.002160 0.002451 0.000000 0.035943 0.000000
# 6 0.000000 0.000000 0.000000 -0.003339 0.000000 0.051647
#
#
# Mechanical properties :
#
#
# Convention : Reuss Voigt Hill
#
# Bulk Modulus (GPa) = 38.28227 44.44865 41.36546
# Shear Modulus (GPa) = 22.02161 26.07038 24.04600
#
# Velocity S-wave (km/s) = 3.49771 3.80568 3.65494
# Velocity P-wave (km/s) = 6.13021 6.63356 6.38684
#
# Compressibility (1/GPa) = 0.02612175
#
# Stress axis : x y z
#
# Youngs Moduli (GPa) = 101.51497 54.96996 67.25571
#
# Poissons Ratio (x) = -0.05074 0.33130
# Poissons Ratio (y) = -0.09371 0.29537
# Poissons Ratio (z) = 0.50007 0.24141
#
# Static dielectric constant tensor:
#      x y z
#    x 1.646690 0.000000 0.032430 
#    y 0.000000 1.583600 0.000000 
#    z 0.032430 0.000000 1.797930 
# 
# From -- ./inp_files/10875.got.cif
#   From: 2010.05.17/outbox.cif.g08.bks.cpg/sg15_6_cif.got.tgz:10875.got - 2010.06.03 18:47:42.
