data_PCOD9269980
_publ_section_title
;
Structure prediction by ZEFSAII (Michael W. Deem and Ramdas Pophale) SiO2 
 PCOD9269980
Probable space group: C 2/C
;
_chemical_formula_sum "Si O2"
_cell_formula_units_Z 64
_cell_length_a 24.023530
_cell_length_b 5.891594
_cell_length_c 25.472627
_cell_angle_alpha 90.000000
_cell_angle_beta 80.407420
_cell_angle_gamma 90.000000
_cell_volume 3554.905403
_symmetry_space_group_name_H-M "C 2/C"
_symmetry_group_IT_number 15
_symmetry_cell_setting 'monoclinic'
loop_
_space_group_symop_operation_xyz
x,y,z
-x,y,1/2-z
-x,-y,-z
x,-y,1/2+z
1/2+x,1/2+y,z
1/2-x,1/2+y,1/2-z
1/2-x,1/2-y,-z
1/2+x,1/2-y,1/2+z
loop_
_atom_site_type_symbol
_atom_site_label
_atom_site_fract_x
_atom_site_fract_y
_atom_site_fract_z
Si Si1 0.365910 0.853501 0.554891
Si Si2 0.966668 0.168870 0.467232
Si Si3 0.776287 0.060992 0.532908
Si Si4 0.458320 0.016371 0.612653
Si Si5 0.568140 0.684933 0.733463
Si Si6 0.166432 0.674877 0.032905
Si Si7 0.440268 0.810607 0.228453
Si Si8 0.561655 0.308126 0.112732
O O1 0.415145 0.755089 0.510008
O O2 0.315821 0.672598 0.570436
O O3 0.397824 0.934822 0.601523
O O4 0.340383 0.049391 0.521960
O O5 0.010269 0.356409 0.439899
O O6 0.944744 0.038740 0.419048
O O7 0.000000 0.000000 0.500000
O O8 0.750000 0.250000 0.500000
O O9 0.817761 0.925253 0.487796
O O10 0.721369 0.913821 0.555707
O O11 0.451810 0.172146 0.664622
O O12 0.500782 0.813434 0.620999
O O13 0.500000 0.688348 0.750000
O O14 0.586610 0.439487 0.755267
O O15 0.580245 0.667537 0.669604
O O16 0.586200 0.938860 0.751589
O O17 0.108923 0.663422 0.074291
O O18 0.500000 0.807329 0.250000
#
# Coordination Sequence:
#
# PCOD9269980 Si02
#       8
#     8   8   8   8   8   8   8   8
#     4  11  21  33  51  79 115 154 187 228 280 349
#     4  12  22  31  47  78 123 155 185 220 272 355
#     4   9  20  38  53  72 109 145 190 242 281 331
#     4  12  23  33  52  81 119 156 191 225 289 355
#     4  10  20  35  53  76 113 153 188 236 280 336
#     4  10  20  36  55  76 111 146 190 237 286 338
#     4  10  20  37  52  74 114 157 187 236 278 335
#     4  12  21  33  55  82 111 158 189 232 289 351
#
# _framework density 18.003291999999998
#
# number of rings (size 3 to 8) (size 9 to 14) (size 15 to 20)
#    0.000    1.250    6.250    2.625    0.000    0.000 
#    0.000    0.000    0.000    0.000    0.000    0.000 
#   11.250    0.000    0.000    0.000    0.000    0.000 
#
# Total GULP energy -178238.380532 kJ/mol
# GULP energy per Si atom -5569.949392 kJ/mol
# Density = 1.796232 g / cm^3
# Si number density = 18.003292 Si / 1000 Ang^3
#
#
#
# Elastic Constant Matrix: (Units=GPa)
#
#
# Indices 1 2 3 4 5 6 
#
# 1 75.8256 12.9263 12.2097 0.0000 14.7926 0.0000
# 2 12.9263 85.4503 8.6363 0.0000 6.6105 0.0000
# 3 12.2097 8.6363 51.7321 0.0000 7.9346 0.0000
# 4 0.0000 0.0000 0.0000 11.2760 0.0000 -3.3505
# 5 14.7926 6.6105 7.9346 0.0000 10.3716 0.0000
# 6 0.0000 0.0000 0.0000 -3.3505 0.0000 29.1503
#
#
#
# Elastic Compliance Matrix: (Units=1/GPa)
#
#
# Indices 1 2 3 4 5 6 
#
# 1 0.018327 -0.000776 -0.000298 0.000000 -0.025416 0.000000
# 2 -0.000776 0.012385 -0.000956 0.000000 -0.006056 0.000000
# 3 -0.000298 -0.000956 0.021981 0.000000 -0.015782 0.000000
# 4 0.000000 0.000000 0.000000 0.091820 0.000000 0.010554
# 5 -0.025416 -0.006056 -0.015782 0.000000 0.148601 0.000000
# 6 0.000000 0.000000 0.000000 0.010554 0.000000 0.035518
#
#
# Mechanical properties :
#
#
# Convention : Reuss Voigt Hill
#
# Bulk Modulus (GPa) = 20.56158 31.17250 25.86704
# Shear Modulus (GPa) = 14.33070 22.10863 18.21966
#
# Velocity S-wave (km/s) = 2.82442 3.50813 3.18468
# Velocity P-wave (km/s) = 4.69917 5.81049 5.28413
#
# Compressibility (1/GPa) = 0.04863439
#
# Stress axis : x y z
#
# Youngs Moduli (GPa) = 54.56499 80.74166 45.49420
#
# Poissons Ratio (x) = 0.06266 0.01354
# Poissons Ratio (y) = 0.04234 0.04347
# Poissons Ratio (z) = 0.01624 0.07716
#
# Static dielectric constant tensor:
#      x y z
#    x 1.536270 0.000000 0.004800 
#    y 0.000000 1.806920 0.000000 
#    z 0.004800 0.000000 1.599880 
# 
# From -- ./inp_files/280966.got.cif
#   From: 2010.05.17/outbox.cif.g08.bks.cpg/sg15_141_cif.got.tgz:280966.got - 2010.06.03 18:47:42.
