data_PCOD9269383
_publ_section_title
;
Structure prediction by ZEFSAII (Michael W. Deem and Ramdas Pophale) SiO2 
 PCOD9269383
Probable space group: C 2/C
;
_chemical_formula_sum "Si O2"
_cell_formula_units_Z 56
_cell_length_a 12.156394
_cell_length_b 12.644019
_cell_length_c 18.906172
_cell_angle_alpha 90.000000
_cell_angle_beta 103.858057
_cell_angle_gamma 90.000000
_cell_volume 2821.398751
_symmetry_space_group_name_H-M "C 2/C"
_symmetry_group_IT_number 15
_symmetry_cell_setting 'monoclinic'
loop_
_space_group_symop_operation_xyz
x,y,z
-x,y,1/2-z
-x,-y,-z
x,-y,1/2+z
1/2+x,1/2+y,z
1/2-x,1/2+y,1/2-z
1/2-x,1/2-y,-z
1/2+x,1/2-y,1/2+z
loop_
_atom_site_type_symbol
_atom_site_label
_atom_site_fract_x
_atom_site_fract_y
_atom_site_fract_z
Si Si1 0.818672 0.948915 0.687393
Si Si2 0.258485 0.909139 0.448420
Si Si3 0.931894 0.938146 0.844424
Si Si4 0.841337 0.392778 0.040970
Si Si5 0.996199 0.129322 0.939565
Si Si6 0.944839 0.738195 0.924817
Si Si7 0.803266 0.739967 0.390750
O O1 0.845969 0.980201 0.771747
O O2 0.760237 0.834391 0.673948
O O3 0.941320 0.939579 0.668373
O O4 0.747730 0.030055 0.628367
O O5 0.128844 0.880457 0.444998
O O6 0.340123 0.809985 0.450834
O O7 0.310075 0.987188 0.516344
O O8 0.905226 0.816265 0.857311
O O9 0.938891 0.017699 0.911973
O O10 0.767441 0.340238 0.091494
O O11 0.970430 0.358698 0.077860
O O12 0.813878 0.333468 0.962501
O O13 0.924970 0.216658 0.884907
O O14 0.984763 0.177860 0.016047
#
# Coordination Sequence:
#
# PCOD9269383 Si02
#       7
#     8   8   8   8   8   8   8
#     4   9  19  37  54  77 101 140 184 221 262 308
#     4  10  21  34  53  80 114 140 169 219 271 326
#     4  10  20  34  56  76 104 137 186 224 253 318
#     4   9  18  31  53  79 103 134 174 219 265 302
#     4  10  22  33  53  83 108 139 174 218 269 315
#     4  11  20  34  53  81 109 140 174 221 275 315
#     4   9  17  32  55  77 102 133 176 221 255 310
#
# _framework density 19.848310999999999
#
# number of rings (size 3 to 8) (size 9 to 14) (size 15 to 20)
#    0.000    2.286    1.429    1.286    8.000    1.143 
#    0.000    0.000    0.000    0.000    0.000    0.000 
#    0.000    0.000    0.000    0.000    0.000    0.000 
#
# Total GULP energy -155945.081384 kJ/mol
# GULP energy per Si atom -5569.467192 kJ/mol
# Density = 1.980314 g / cm^3
# Si number density = 19.848311 Si / 1000 Ang^3
#
#
#
# Elastic Constant Matrix: (Units=GPa)
#
#
# Indices 1 2 3 4 5 6 
#
# 1 56.0058 21.9796 -0.0806 0.0000 1.8038 0.0000
# 2 21.9796 75.1277 27.9764 0.0000 8.6883 0.0000
# 3 -0.0806 27.9764 45.3352 0.0000 13.0646 0.0000
# 4 0.0000 0.0000 0.0000 20.7333 0.0000 4.4664
# 5 1.8038 8.6883 13.0646 0.0000 15.9198 0.0000
# 6 0.0000 0.0000 0.0000 4.4664 0.0000 32.8398
#
#
#
# Elastic Compliance Matrix: (Units=1/GPa)
#
#
# Indices 1 2 3 4 5 6 
#
# 1 0.021092 -0.008000 0.005769 0.000000 -0.002758 0.000000
# 2 -0.008000 0.020326 -0.012602 0.000000 0.000156 0.000000
# 3 0.005769 -0.012602 0.036740 0.000000 -0.023927 0.000000
# 4 0.000000 0.000000 0.000000 0.049687 0.000000 -0.006758
# 5 -0.002758 0.000156 -0.023927 0.000000 0.082678 0.000000
# 6 0.000000 0.000000 0.000000 -0.006758 0.000000 0.031370
#
#
# Mechanical properties :
#
#
# Convention : Reuss Voigt Hill
#
# Bulk Modulus (GPa) = 20.62194 30.69104 25.65649
# Shear Modulus (GPa) = 17.37778 22.33814 19.85796
#
# Velocity S-wave (km/s) = 2.96214 3.35840 3.16648
# Velocity P-wave (km/s) = 4.70228 5.52583 5.13061
#
# Compressibility (1/GPa) = 0.04849205
#
# Stress axis : x y z
#
# Youngs Moduli (GPa) = 47.41111 49.19775 27.21818
#
# Poissons Ratio (x) = 0.39359 -0.15703
# Poissons Ratio (y) = 0.37930 0.34301
# Poissons Ratio (z) = -0.27353 0.62000
#
# Static dielectric constant tensor:
#      x y z
#    x 1.708300 0.000000 0.029870 
#    y 0.000000 1.742370 0.000000 
#    z 0.029870 0.000000 1.759770 
# 
# From -- ./inp_files/237137.got.cif
#   From: 2010.05.17/outbox.cif.g08.bks.cpg/sg15_119_cif.got.tgz:237137.got - 2010.06.03 18:47:42.
