data_PCOD9269005
_publ_section_title
;
Structure prediction by ZEFSAII (Michael W. Deem and Ramdas Pophale) SiO2 
 PCOD9269005
Probable space group: C 2/C
;
_chemical_formula_sum "Si O2"
_cell_formula_units_Z 52
_cell_length_a 23.857279
_cell_length_b 11.858391
_cell_length_c 14.420749
_cell_angle_alpha 90.000000
_cell_angle_beta 144.305640
_cell_angle_gamma 90.000000
_cell_volume 2380.381280
_symmetry_space_group_name_H-M "C 2/C"
_symmetry_group_IT_number 15
_symmetry_cell_setting 'monoclinic'
loop_
_space_group_symop_operation_xyz
x,y,z
-x,y,1/2-z
-x,-y,-z
x,-y,1/2+z
1/2+x,1/2+y,z
1/2-x,1/2+y,1/2-z
1/2-x,1/2-y,-z
1/2+x,1/2-y,1/2+z
loop_
_atom_site_type_symbol
_atom_site_label
_atom_site_fract_x
_atom_site_fract_y
_atom_site_fract_z
Si Si1 0.081719 0.480973 0.970263
Si Si2 0.372860 0.990266 0.262481
Si Si3 0.677345 0.613651 0.416412
Si Si4 0.276268 0.778233 0.673932
Si Si5 0.206875 0.697001 0.090044
Si Si6 0.624044 0.627376 0.829318
Si Si7 0.000000 0.290083 0.750000
O O1 0.078573 0.376767 0.895849
O O2 0.972087 0.522809 0.840633
O O3 0.116541 0.443645 0.119044
O O4 0.146100 0.582657 0.020105
O O5 0.354013 0.123626 0.253806
O O6 0.280522 0.937427 0.088989
O O7 0.700431 0.670823 0.349054
O O8 0.650892 0.706824 0.456991
O O9 0.609791 0.505478 0.315440
O O10 0.269017 0.765854 0.773596
O O11 0.311130 0.664915 0.670333
O O12 0.183003 0.829819 0.498791
O O13 0.531733 0.706376 0.710942
#
# Coordination Sequence:
#
# PCOD9269005 Si02
#       7
#     8   8   8   8   8   8   4
#     4  10  20  33  59  90 117 153 198 255 291 345
#     4   9  18  36  58  87 119 148 199 249 298 343
#     4  10  22  40  56  88 122 161 196 241 293 366
#     4   9  19  37  59  90 112 154 193 248 291 353
#     4  10  22  37  61  86 118 157 202 240 299 343
#     4  10  22  36  60  86 122 152 197 238 300 351
#     4  12  22  36  60  92 118 156 196 250 296 346
#
# _framework density 21.845238999999999
#
# number of rings (size 3 to 8) (size 9 to 14) (size 15 to 20)
#    0.000    2.154    1.538    0.923    6.462    2.462 
#    0.000    3.846    0.000    1.846    0.000    0.000 
#    0.000    0.000    0.000    0.000    0.000    0.000 
#
# Total GULP energy -145224.229945 kJ/mol
# GULP energy per Si atom -5585.547306 kJ/mol
# Density = 2.179552 g / cm^3
# Si number density = 21.845239 Si / 1000 Ang^3
#
#
#
# Elastic Constant Matrix: (Units=GPa)
#
#
# Indices 1 2 3 4 5 6 
#
# 1 96.1662 41.6677 24.0507 0.0000 -32.7019 0.0000
# 2 41.6677 126.1568 3.6215 0.0000 -17.2688 0.0000
# 3 24.0507 3.6215 36.5459 0.0000 -18.0322 0.0000
# 4 0.0000 0.0000 0.0000 16.9360 0.0000 5.6270
# 5 -32.7019 -17.2688 -18.0322 0.0000 35.7233 0.0000
# 6 0.0000 0.0000 0.0000 5.6270 0.0000 20.8866
#
#
#
# Elastic Compliance Matrix: (Units=1/GPa)
#
#
# Indices 1 2 3 4 5 6 
#
# 1 0.017302 -0.004036 -0.005505 0.000000 0.011109 0.000000
# 2 -0.004036 0.009498 0.002873 0.000000 0.002347 0.000000
# 3 -0.005505 0.002873 0.038485 0.000000 0.015775 0.000000
# 4 0.000000 0.000000 0.000000 0.064851 0.000000 -0.017471
# 5 0.011109 0.002347 0.015775 0.000000 0.047260 0.000000
# 6 0.000000 0.000000 0.000000 -0.017471 0.000000 0.052585
#
#
# Mechanical properties :
#
#
# Convention : Reuss Voigt Hill
#
# Bulk Modulus (GPa) = 19.24976 44.17208 31.71092
# Shear Modulus (GPa) = 19.18411 27.34443 23.26427
#
# Velocity S-wave (km/s) = 2.96663 3.54182 3.26691
# Velocity P-wave (km/s) = 4.53492 6.08197 5.36451
#
# Compressibility (1/GPa) = 0.05194869
#
# Stress axis : x y z
#
# Youngs Moduli (GPa) = 57.79778 105.28017 25.98426
#
# Poissons Ratio (x) = 0.42490 0.14305
# Poissons Ratio (y) = 0.23327 -0.07465
# Poissons Ratio (z) = 0.31819 -0.30246
#
# Static dielectric constant tensor:
#      x y z
#    x 1.823830 0.000000 0.023160 
#    y 0.000000 1.825080 0.000000 
#    z 0.023160 0.000000 1.849000 
# 
# From -- ./inp_files/173197.got.cif
#   From: 2010.05.17/outbox.cif.g08.bks.cpg/sg15_87_cif.got.tgz:173197.got - 2010.06.03 18:47:42.
