data_PCOD9269749
_publ_section_title
;
Structure prediction by ZEFSAII (Michael W. Deem and Ramdas Pophale) SiO2 
 PCOD9269749
Probable space group: C 2/C
;
_chemical_formula_sum "Si O2"
_cell_formula_units_Z 44
_cell_length_a 26.149715
_cell_length_b 18.111875
_cell_length_c 17.167886
_cell_angle_alpha 90.000000
_cell_angle_beta 164.712547
_cell_angle_gamma 90.000000
_cell_volume 2143.850201
_symmetry_space_group_name_H-M "C 2/C"
_symmetry_group_IT_number 15
_symmetry_cell_setting 'monoclinic'
loop_
_space_group_symop_operation_xyz
x,y,z
-x,y,1/2-z
-x,-y,-z
x,-y,1/2+z
1/2+x,1/2+y,z
1/2-x,1/2+y,1/2-z
1/2-x,1/2-y,-z
1/2+x,1/2-y,1/2+z
loop_
_atom_site_type_symbol
_atom_site_label
_atom_site_fract_x
_atom_site_fract_y
_atom_site_fract_z
Si Si1 0.000000 0.613482 0.250000
Si Si2 0.404278 0.450525 0.532361
Si Si3 0.250026 0.636429 0.043042
Si Si4 0.783316 0.984866 0.707638
Si Si5 0.470737 0.776334 0.027326
Si Si6 0.618391 0.814815 0.081921
O O1 0.175702 0.556391 0.515980
O O2 0.007508 0.659115 0.340928
O O3 0.500000 0.483000 0.750000
O O4 0.596082 0.414877 0.775574
O O5 0.293141 0.509203 0.315159
O O6 0.254537 0.381333 0.316591
O O7 0.208990 0.589794 0.060252
O O8 0.371405 0.709913 0.239309
O O9 0.069862 0.659691 0.724853
O O10 0.000000 0.000000 0.000000
O O11 0.472305 0.795051 0.937562
O O12 0.274183 0.746334 0.779295
#
# Coordination Sequence:
#
# PCOD9269749 Si02
#       6
#     4   8   8   8   8   8
#     4  10  22  40  60  82 124 166 202 248 314 376
#     4   9  15  31  58  82 114 156 202 243 307 365
#     4   9  18  31  56  88 116 145 200 257 292 357
#     4   9  19  35  58  85 112 158 199 247 303 363
#     4  10  20  34  60  88 122 154 201 250 303 356
#     4  10  21  36  57  88 117 165 202 251 309 363
#
# _framework density 20.523823
#
# number of rings (size 3 to 8) (size 9 to 14) (size 15 to 20)
#    0.000    2.545    1.818    1.091    0.000    2.182 
#    0.000    0.909   10.000    0.000    0.000    0.000 
#    0.000    0.000    0.000    0.000    0.000    0.000 
#
# Total GULP energy -122497.196966 kJ/mol
# GULP energy per Si atom -5568.054408 kJ/mol
# Density = 2.047711 g / cm^3
# Si number density = 20.523823 Si / 1000 Ang^3
#
#
#
# Elastic Constant Matrix: (Units=GPa)
#
#
# Indices 1 2 3 4 5 6 
#
# 1 91.6419 45.5178 40.0109 0.0000 -25.0659 0.0000
# 2 45.5178 60.8034 22.9233 0.0000 -24.5720 0.0000
# 3 40.0109 22.9233 87.6764 0.0000 -29.2915 0.0000
# 4 0.0000 0.0000 0.0000 -10.5989 0.0000 -7.7956
# 5 -25.0659 -24.5720 -29.2915 0.0000 41.2685 0.0000
# 6 0.0000 0.0000 0.0000 -7.7956 0.0000 25.8149
#
#
#
# Elastic Compliance Matrix: (Units=1/GPa)
#
#
# Indices 1 2 3 4 5 6 
#
# 1 0.019634 -0.012355 -0.005510 0.000000 0.000658 0.000000
# 2 -0.012355 0.029645 0.001674 0.000000 0.011335 0.000000
# 3 -0.005510 0.001674 0.016644 0.000000 0.009464 0.000000
# 4 0.000000 0.000000 0.000000 -0.077202 0.000000 -0.023314
# 5 0.000658 0.011335 0.009464 0.000000 0.038098 0.000000
# 6 0.000000 0.000000 0.000000 -0.023314 0.000000 0.031697
#
#
# Mechanical properties :
#
#
# Convention : Reuss Voigt Hill
#
# Bulk Modulus (GPa) = 29.81300 50.78063 40.29682
# Shear Modulus (GPa) = 48.98193 20.07490 34.52842
#
# Velocity S-wave (km/s) = 4.89057 3.13089 4.10611
# Velocity P-wave (km/s) = 6.81527 6.15354 6.49284
#
# Compressibility (1/GPa) = 0.03354241
#
# Stress axis : x y z
#
# Youngs Moduli (GPa) = 50.93091 33.73224 60.08191
#
# Poissons Ratio (x) = 0.41677 0.33104
# Poissons Ratio (y) = 0.62926 -0.10060
# Poissons Ratio (z) = 0.28062 -0.05648
#
# Static dielectric constant tensor:
#      x y z
#    x 1.837250 0.000000 -0.041930 
#    y 0.000000 1.747530 0.000000 
#    z -0.041930 0.000000 1.703010 
# 
# From -- ./inp_files/174457.got.cif
#   From: 2010.05.17/outbox.cif.g08.bks.cpg/sg15_88_cif.got.tgz:174457.got - 2010.06.03 18:47:42.
