data_PCOD9269913
_publ_section_title
;
Structure prediction by ZEFSAII (Michael W. Deem and Ramdas Pophale) SiO2 
 PCOD9269913
Probable space group: C 2/C
;
_chemical_formula_sum "Si O2"
_cell_formula_units_Z 52
_cell_length_a 14.964415
_cell_length_b 12.604640
_cell_length_c 17.255254
_cell_angle_alpha 90.000000
_cell_angle_beta 34.896913
_cell_angle_gamma 90.000000
_cell_volume 1862.021850
_symmetry_space_group_name_H-M "C 2/C"
_symmetry_group_IT_number 15
_symmetry_cell_setting 'monoclinic'
loop_
_space_group_symop_operation_xyz
x,y,z
-x,y,1/2-z
-x,-y,-z
x,-y,1/2+z
1/2+x,1/2+y,z
1/2-x,1/2+y,1/2-z
1/2-x,1/2-y,-z
1/2+x,1/2-y,1/2+z
loop_
_atom_site_type_symbol
_atom_site_label
_atom_site_fract_x
_atom_site_fract_y
_atom_site_fract_z
Si Si1 0.579078 0.823963 0.293829
Si Si2 0.363859 0.648441 0.476808
Si Si3 0.500000 0.721743 0.750000
Si Si4 0.176134 0.057435 0.330144
Si Si5 0.281874 0.577028 0.014910
Si Si6 0.247485 0.146808 0.683868
Si Si7 0.985748 0.564531 0.392017
O O1 0.434765 0.747082 0.379439
O O2 0.729992 0.817495 0.132063
O O3 0.634202 0.798619 0.341608
O O4 0.524886 0.946464 0.334553
O O5 0.518245 0.606120 0.410794
O O6 0.302844 0.545771 0.473053
O O7 0.598382 0.648730 0.616223
O O8 0.649034 0.731556 0.704826
O O9 0.189545 0.066161 0.413879
O O10 0.167923 0.939551 0.297132
O O11 0.351286 0.098793 0.184308
O O12 0.105715 0.619176 0.116523
O O13 0.351998 0.078137 0.550467
#
# Coordination Sequence:
#
# PCOD9269913 Si02
#       7
#     8   8   4   8   8   8   8
#     4  11  25  39  60  93 127 175 202 260 310 387
#     4  12  25  38  64  89 134 166 215 248 323 373
#     4  10  20  34  66  90 118 150 212 268 312 350
#     4  11  20  39  66  87 120 164 211 260 304 378
#     4  11  21  39  63  97 116 163 206 268 307 378
#     4  10  20  39  65  93 120 161 213 265 307 375
#     4  10  23  38  67  94 127 153 218 261 321 362
#
# _framework density 27.926632999999999
#
# number of rings (size 3 to 8) (size 9 to 14) (size 15 to 20)
#    0.000    1.231    4.615    3.692    4.308    0.615 
#    0.000    0.000    3.385    2.769    0.000    0.000 
#    0.000    0.000    0.000    0.000    0.000    0.000 
#
# Total GULP energy -145263.296961 kJ/mol
# GULP energy per Si atom -5587.049883 kJ/mol
# Density = 2.786307 g / cm^3
# Si number density = 27.926633 Si / 1000 Ang^3
#
#
#
# Elastic Constant Matrix: (Units=GPa)
#
#
# Indices 1 2 3 4 5 6 
#
# 1 189.0632 -9.0306 -14.3560 0.0000 -23.9590 0.0000
# 2 -9.0306 57.5222 -10.8402 0.0001 -14.9726 0.0000
# 3 -14.3560 -10.8402 89.0224 0.0004 -26.0580 -0.0001
# 4 0.0000 0.0001 0.0004 -18.1791 -0.0001 -17.7081
# 5 -23.9590 -14.9726 -26.0580 -0.0001 42.7849 0.0000
# 6 0.0000 0.0000 -0.0001 -17.7081 0.0000 57.8653
#
#
#
# Elastic Compliance Matrix: (Units=1/GPa)
#
#
# Indices 1 2 3 4 5 6 
#
# 1 0.006644 0.003591 0.003609 0.000000 0.007175 0.000000
# 2 0.003591 0.023292 0.007776 0.000000 0.014898 0.000000
# 3 0.003609 0.007776 0.017220 0.000000 0.015230 0.000000
# 4 0.000000 0.000000 0.000000 -0.042376 0.000000 -0.012968
# 5 0.007175 0.014898 0.015230 0.000000 0.041880 0.000000
# 6 0.000000 0.000000 0.000000 -0.012968 0.000000 0.013313
#
#
# Mechanical properties :
#
#
# Convention : Reuss Voigt Hill
#
# Bulk Modulus (GPa) = 12.96892 29.68380 21.32636
# Shear Modulus (GPa) = 89.72911 41.14984 65.43948
#
# Velocity S-wave (km/s) = 5.67451 3.84278 4.84598
# Velocity P-wave (km/s) = 6.89836 5.50832 6.24215
#
# Compressibility (1/GPa) = 0.07710740
#
# Stress axis : x y z
#
# Youngs Moduli (GPa) = 150.50988 42.93408 58.07192
#
# Poissons Ratio (x) = -0.15417 -0.20958
# Poissons Ratio (y) = -0.54046 -0.45157
# Poissons Ratio (z) = -0.54319 -0.33386
#
# Static dielectric constant tensor:
#      x y z
#    x 2.260110 0.000000 -0.021230 
#    y 0.000000 2.492110 0.000000 
#    z -0.021230 0.000000 2.160900 
# 
# From -- ./inp_files/249104.got.cif
#   From: 2010.05.17/outbox.cif.g08.bks.cpg/sg15_125_cif.got.tgz:249104.got - 2010.06.03 18:47:42.
