data_PCOD9269650
_publ_section_title
;
Structure prediction by ZEFSAII (Michael W. Deem and Ramdas Pophale) SiO2 
 PCOD9269650
Probable space group: C 2/C
;
_chemical_formula_sum "Si O2"
_cell_formula_units_Z 60
_cell_length_a 13.111017
_cell_length_b 20.998903
_cell_length_c 24.668342
_cell_angle_alpha 90.000000
_cell_angle_beta 152.140253
_cell_angle_gamma 90.000000
_cell_volume 3173.780730
_symmetry_space_group_name_H-M "C 2/C"
_symmetry_group_IT_number 15
_symmetry_cell_setting 'monoclinic'
loop_
_space_group_symop_operation_xyz
x,y,z
-x,y,1/2-z
-x,-y,-z
x,-y,1/2+z
1/2+x,1/2+y,z
1/2-x,1/2+y,1/2-z
1/2-x,1/2-y,-z
1/2+x,1/2-y,1/2+z
loop_
_atom_site_type_symbol
_atom_site_label
_atom_site_fract_x
_atom_site_fract_y
_atom_site_fract_z
Si Si1 0.070269 0.324196 0.221358
Si Si2 0.125625 0.396073 0.580636
Si Si3 0.717660 0.457440 0.449761
Si Si4 0.922851 0.840650 0.058328
Si Si5 0.542228 0.238800 0.332456
Si Si6 0.000000 0.998888 0.250000
Si Si7 0.214805 0.606378 0.001626
Si Si8 0.651623 0.685137 0.221523
O O1 0.326826 0.339275 0.340405
O O2 0.044276 0.251750 0.188306
O O3 0.000000 0.329913 0.250000
O O4 0.931943 0.367998 0.115910
O O5 0.294240 0.454714 0.656950
O O6 0.111614 0.373845 0.511735
O O7 0.225869 0.343998 0.668331
O O8 0.909909 0.424607 0.505733
O O9 0.661780 0.411602 0.472581
O O10 0.517703 0.460084 0.313392
O O11 0.770919 0.529573 0.491642
O O12 0.916510 0.801987 0.112445
O O13 0.759524 0.803373 0.942176
O O14 0.500000 0.252332 0.250000
O O15 0.337018 0.201859 0.264008
O O16 0.458589 0.636766 0.114132
#
# Coordination Sequence:
#
# PCOD9269650 Si02
#       8
#     8   8   8   8   8   4   8   8
#     4  11  26  42  61  89 126 164 209 258 297 365
#     4  11  20  38  61  95 126 154 203 258 315 366
#     4  11  23  36  63  92 128 157 201 261 312 370
#     4  10  24  43  62  96 124 158 207 260 303 367
#     4  10  23  43  67  92 124 166 206 250 311 368
#     4  10  20  34  58  92 128 160 194 256 314 372
#     4  11  23  39  63  93 122 166 209 250 316 366
#     4  11  21  42  64  91 123 164 205 256 307 367
#
# _framework density 18.904896999999998
#
# number of rings (size 3 to 8) (size 9 to 14) (size 15 to 20)
#    0.000    1.333    4.000    2.800    6.533    1.067 
#    0.000    1.333    0.000    0.000    0.000    0.000 
#    0.000    0.000    0.000    0.000    0.000    0.000 
#
# Total GULP energy -167557.625018 kJ/mol
# GULP energy per Si atom -5585.254167 kJ/mol
# Density = 1.886187 g / cm^3
# Si number density = 18.904897 Si / 1000 Ang^3
#
#
#
# Elastic Constant Matrix: (Units=GPa)
#
#
# Indices 1 2 3 4 5 6 
#
# 1 50.9097 11.0961 43.2937 0.0055 -0.8150 0.0027
# 2 11.0961 77.5272 28.7551 0.0038 2.3795 0.0015
# 3 43.2937 28.7551 92.5073 0.0083 -10.8593 0.0048
# 4 0.0055 0.0038 0.0083 22.9716 -0.0010 3.4024
# 5 -0.8150 2.3795 -10.8593 -0.0010 26.8143 -0.0008
# 6 0.0027 0.0015 0.0048 3.4024 -0.0008 19.8823
#
#
#
# Elastic Compliance Matrix: (Units=1/GPa)
#
#
# Indices 1 2 3 4 5 6 
#
# 1 0.033590 0.001659 -0.016938 -0.000002 -0.005986 0.000000
# 2 0.001659 0.014943 -0.005849 -0.000001 -0.003644 0.000000
# 3 -0.016938 -0.005849 0.021582 -0.000002 0.008744 -0.000002
# 4 -0.000002 -0.000001 -0.000002 0.044664 0.000001 -0.007643
# 5 -0.005986 -0.003644 0.008744 0.000001 0.040976 0.000001
# 6 0.000000 0.000000 -0.000002 -0.007643 0.000001 0.051604
#
#
# Mechanical properties :
#
#
# Convention : Reuss Voigt Hill
#
# Bulk Modulus (GPa) = 35.89770 43.02601 39.46185
# Shear Modulus (GPa) = 19.31241 23.12026 21.21633
#
# Velocity S-wave (km/s) = 3.19965 3.50090 3.35366
# Velocity P-wave (km/s) = 5.71665 6.25702 5.99293
#
# Compressibility (1/GPa) = 0.02785694
#
# Stress axis : x y z
#
# Youngs Moduli (GPa) = 29.77106 66.92314 46.33549
#
# Poissons Ratio (x) = -0.11101 0.78485
# Poissons Ratio (y) = -0.04938 0.27101
# Poissons Ratio (z) = 0.50427 0.39142
#
# Static dielectric constant tensor:
#      x y z
#    x 1.652980 0.000000 0.010720 
#    y 0.000000 1.655310 0.000000 
#    z 0.010720 0.000000 1.691060 
# 
# From -- ./inp_files/271041.got.cif
#   From: 2010.05.17/outbox.cif.g08.bks.cpg/sg15_136_cif.got.tgz:271041.got - 2010.06.03 18:47:42.
