data_PCOD9269109
_publ_section_title
;
Structure prediction by ZEFSAII (Michael W. Deem and Ramdas Pophale) SiO2 
 PCOD9269109
Probable space group: C 2/C
;
_chemical_formula_sum "Si O2"
_cell_formula_units_Z 60
_cell_length_a 23.160465
_cell_length_b 24.305853
_cell_length_c 9.180327
_cell_angle_alpha 90.000000
_cell_angle_beta 38.475696
_cell_angle_gamma 90.000000
_cell_volume 3215.393733
_symmetry_space_group_name_H-M "C 2/C"
_symmetry_group_IT_number 15
_symmetry_cell_setting 'monoclinic'
loop_
_space_group_symop_operation_xyz
x,y,z
-x,y,1/2-z
-x,-y,-z
x,-y,1/2+z
1/2+x,1/2+y,z
1/2-x,1/2+y,1/2-z
1/2-x,1/2-y,-z
1/2+x,1/2-y,1/2+z
loop_
_atom_site_type_symbol
_atom_site_label
_atom_site_fract_x
_atom_site_fract_y
_atom_site_fract_z
Si Si1 0.807618 0.299444 0.308003
Si Si2 0.000000 0.928422 0.750000
Si Si3 0.808421 0.114372 0.301540
Si Si4 0.505119 0.340517 0.487571
Si Si5 0.696041 0.801504 0.533253
Si Si6 0.607757 0.506230 0.233653
Si Si7 0.004308 0.715133 0.571310
Si Si8 0.686210 0.614369 0.531930
O O1 0.750000 0.250000 0.500000
O O2 0.757656 0.356135 0.452565
O O3 0.910523 0.299865 0.171396
O O4 0.808035 0.293049 0.132557
O O5 0.017970 0.887742 0.582229
O O6 0.087941 0.966012 0.615038
O O7 0.837184 0.052184 0.284913
O O8 0.769071 0.117684 0.216364
O O9 0.904741 0.148390 0.119591
O O10 0.510589 0.281381 0.549083
O O11 0.590394 0.350916 0.212524
O O12 0.750000 0.750000 0.500000
O O13 0.753061 0.855923 0.465781
O O14 0.595021 0.805540 0.806728
O O15 0.500000 0.500000 0.500000
O O16 0.658311 0.448415 0.119634
O O17 0.000000 0.698877 0.750000
#
# Coordination Sequence:
#
# PCOD9269109 Si02
#       8
#     8   4   8   8   8   8   8   8
#     4  12  26  42  64  91 128 168 216 266 320 384
#     4  10  20  34  50  94 124 172 204 246 320 366
#     4  11  24  39  59  92 128 172 213 259 317 379
#     4  11  22  32  62  86 131 167 208 253 308 374
#     4  12  27  41  63  92 127 169 216 265 322 383
#     4  11  22  35  61  88 133 167 212 257 322 381
#     4  12  24  43  67  92 125 168 213 267 322 379
#     4  12  24  39  59  91 130 171 215 260 314 384
#
# _framework density 18.660235
#
# number of rings (size 3 to 8) (size 9 to 14) (size 15 to 20)
#    0.000    0.533    6.000    4.000    3.733    1.067 
#    0.000    0.000    0.000    0.800    0.000    0.000 
#    0.000    0.000    0.000    0.000    0.000    0.000 
#
# Total GULP energy -167610.127550 kJ/mol
# GULP energy per Si atom -5587.004252 kJ/mol
# Density = 1.861776 g / cm^3
# Si number density = 18.660235 Si / 1000 Ang^3
#
#
#
# Elastic Constant Matrix: (Units=GPa)
#
#
# Indices 1 2 3 4 5 6 
#
# 1 121.8791 42.0415 61.5633 0.0000 15.7548 0.0000
# 2 42.0415 95.2383 38.0017 0.0000 -1.4211 0.0000
# 3 61.5633 38.0017 121.8651 0.0000 5.3843 0.0000
# 4 0.0000 0.0000 0.0000 21.9707 0.0000 -2.6618
# 5 15.7548 -1.4211 5.3843 0.0000 42.4106 0.0000
# 6 0.0000 0.0000 0.0000 -2.6618 0.0000 26.3049
#
#
#
# Elastic Compliance Matrix: (Units=1/GPa)
#
#
# Indices 1 2 3 4 5 6 
#
# 1 0.012510 -0.003581 -0.005021 0.000000 -0.004130 0.000000
# 2 -0.003581 0.013050 -0.002352 0.000000 0.002066 0.000000
# 3 -0.005021 -0.002352 0.011461 0.000000 0.000331 0.000000
# 4 0.000000 0.000000 0.000000 0.046080 0.000000 0.004663
# 5 -0.004130 0.002066 0.000331 0.000000 0.025140 0.000000
# 6 0.000000 0.000000 0.000000 0.004663 0.000000 0.038488
#
#
# Mechanical properties :
#
#
# Convention : Reuss Voigt Hill
#
# Bulk Modulus (GPa) = 66.16222 69.13283 67.64752
# Shear Modulus (GPa) = 28.78979 31.29564 30.04271
#
# Velocity S-wave (km/s) = 3.93216 4.09972 4.01682
# Velocity P-wave (km/s) = 7.49327 7.71615 7.60553
#
# Compressibility (1/GPa) = 0.01511437
#
# Stress axis : x y z
#
# Youngs Moduli (GPa) = 79.93738 76.62948 87.25354
#
# Poissons Ratio (x) = 0.27438 0.43807
# Poissons Ratio (y) = 0.28622 0.20521
# Poissons Ratio (z) = 0.40134 0.18022
#
# Static dielectric constant tensor:
#      x y z
#    x 1.683790 0.000000 0.045660 
#    y 0.000000 1.651050 0.000000 
#    z 0.045660 0.000000 1.690360 
# 
# From -- ./inp_files/58749.got.cif
#   From: 2010.05.17/outbox.cif.g08.bks.cpg/sg15_30_cif.got.tgz:58749.got - 2010.06.03 18:47:42.
