data_PCOD9269070
_publ_section_title
;
Structure prediction by ZEFSAII (Michael W. Deem and Ramdas Pophale) SiO2 
 PCOD9269070
Probable space group: C 2/C
;
_chemical_formula_sum "Si O2"
_cell_formula_units_Z 56
_cell_length_a 25.319411
_cell_length_b 22.084881
_cell_length_c 18.022410
_cell_angle_alpha 90.000000
_cell_angle_beta 160.974037
_cell_angle_gamma 90.000000
_cell_volume 3285.296434
_symmetry_space_group_name_H-M "C 2/C"
_symmetry_group_IT_number 15
_symmetry_cell_setting 'monoclinic'
loop_
_space_group_symop_operation_xyz
x,y,z
-x,y,1/2-z
-x,-y,-z
x,-y,1/2+z
1/2+x,1/2+y,z
1/2-x,1/2+y,1/2-z
1/2-x,1/2-y,-z
1/2+x,1/2-y,1/2+z
loop_
_atom_site_type_symbol
_atom_site_label
_atom_site_fract_x
_atom_site_fract_y
_atom_site_fract_z
Si Si1 0.097172 0.973515 0.526869
Si Si2 0.000000 0.490196 0.250000
Si Si3 0.361866 0.050158 0.720739
Si Si4 0.000000 0.035856 0.250000
Si Si5 0.811681 0.312730 0.485878
Si Si6 0.881276 0.581121 0.326048
Si Si7 0.710884 0.566856 0.791071
Si Si8 0.182069 0.824740 0.477897
O O1 0.013942 0.994647 0.341062
O O2 0.187160 0.031729 0.682316
O O3 0.236076 0.926550 0.691999
O O4 0.960084 0.945728 0.396200
O O5 0.064561 0.452098 0.264614
O O6 0.147241 0.532104 0.475399
O O7 0.173139 0.068172 0.471562
O O8 0.380195 0.980689 0.775903
O O9 0.460650 0.087221 0.913771
O O10 0.748625 0.361908 0.343253
O O11 0.807734 0.240595 0.468105
O O12 0.710671 0.320354 0.427866
O O13 0.000000 0.327327 0.750000
O O14 0.826562 0.634309 0.200204
O O15 0.000000 0.848919 0.250000
#
# Coordination Sequence:
#
# PCOD9269070 Si02
#       8
#     8   4   8   4   8   8   8   8
#     4  10  21  31  50  76 102 138 177 206 270 307
#     4  12  18  32  48  73 105 140 158 210 260 304
#     4  10  21  31  49  72 100 135 170 205 265 300
#     4  10  20  34  46  71 101 132 166 214 250 316
#     4  10  21  33  51  76 104 138 174 208 255 308
#     4  10  20  34  49  72 102 137 177 209 244 329
#     4  11  20  32  50  77 108 137 168 219 257 310
#     4  10  21  35  52  75 103 143 176 203 251 316
#
# _framework density 17.045646999999999
#
# number of rings (size 3 to 8) (size 9 to 14) (size 15 to 20)
#    0.000    1.714    3.571    1.714    6.000    0.000 
#    0.000    0.000    0.000    0.000    0.000    2.000 
#    0.000    0.571    0.000    0.143    0.000    0.000 
#
# Total GULP energy -156097.165483 kJ/mol
# GULP energy per Si atom -5574.898767 kJ/mol
# Density = 1.700685 g / cm^3
# Si number density = 17.045647 Si / 1000 Ang^3
#
#
#
# Elastic Constant Matrix: (Units=GPa)
#
#
# Indices 1 2 3 4 5 6 
#
# 1 45.1513 -17.7578 6.8344 0.0000 6.8641 0.0000
# 2 -17.7578 47.7756 13.6897 0.0000 -15.6311 0.0000
# 3 6.8344 13.6897 100.5818 0.0000 -0.5680 0.0000
# 4 0.0000 0.0000 0.0000 20.8701 0.0000 0.5874
# 5 6.8641 -15.6311 -0.5680 0.0000 33.6956 0.0000
# 6 0.0000 0.0000 0.0000 0.5874 0.0000 6.2472
#
#
#
# Elastic Compliance Matrix: (Units=1/GPa)
#
#
# Indices 1 2 3 4 5 6 
#
# 1 0.026977 0.010797 -0.003306 0.000000 -0.000543 0.000000
# 2 0.010797 0.030139 -0.004770 0.000000 0.011702 0.000000
# 3 -0.003306 -0.004770 0.010808 0.000000 -0.001357 0.000000
# 4 0.000000 0.000000 0.000000 0.048043 0.000000 -0.004517
# 5 -0.000543 0.011702 -0.001357 0.000000 0.035193 0.000000
# 6 0.000000 0.000000 0.000000 -0.004517 0.000000 0.160497
#
#
# Mechanical properties :
#
#
# Convention : Reuss Voigt Hill
#
# Bulk Modulus (GPa) = 13.63000 22.11569 17.87284
# Shear Modulus (GPa) = 15.12081 24.87875 19.99978
#
# Velocity S-wave (km/s) = 2.98162 3.82453 3.42907
# Velocity P-wave (km/s) = 4.45723 5.70134 5.11724
#
# Compressibility (1/GPa) = 0.07336759
#
# Stress axis : x y z
#
# Youngs Moduli (GPa) = 37.06874 33.17911 92.52175
#
# Poissons Ratio (x) = -0.35823 0.30584
# Poissons Ratio (y) = -0.40022 0.44130
# Poissons Ratio (z) = 0.12253 0.15825
#
# Static dielectric constant tensor:
#      x y z
#    x 1.620710 0.000000 0.024070 
#    y 0.000000 1.581460 0.000000 
#    z 0.024070 0.000000 1.607240 
# 
# From -- ./inp_files/124159.got.cif
#   From: 2010.05.17/outbox.cif.g08.bks.cpg/sg15_63_cif.got.tgz:124159.got - 2010.06.03 18:47:42.
