data_PCOD9269839
_publ_section_title
;
Structure prediction by ZEFSAII (Michael W. Deem and Ramdas Pophale) SiO2 
 PCOD9269839
Probable space group: C 2/C
;
_chemical_formula_sum "Si O2"
_cell_formula_units_Z 36
_cell_length_a 13.273408
_cell_length_b 26.582661
_cell_length_c 5.354236
_cell_angle_alpha 90.000000
_cell_angle_beta 55.820205
_cell_angle_gamma 90.000000
_cell_volume 1562.896683
_symmetry_space_group_name_H-M "C 2/C"
_symmetry_group_IT_number 15
_symmetry_cell_setting 'monoclinic'
loop_
_space_group_symop_operation_xyz
x,y,z
-x,y,1/2-z
-x,-y,-z
x,-y,1/2+z
1/2+x,1/2+y,z
1/2-x,1/2+y,1/2-z
1/2-x,1/2-y,-z
1/2+x,1/2-y,1/2+z
loop_
_atom_site_type_symbol
_atom_site_label
_atom_site_fract_x
_atom_site_fract_y
_atom_site_fract_z
Si Si1 0.372060 0.219747 0.577973
Si Si2 0.500000 0.148327 0.750000
Si Si3 0.418274 0.668941 0.114308
Si Si4 0.209601 0.630106 0.124076
Si Si5 0.647462 0.029813 0.024592
O O1 0.400347 0.184157 0.768407
O O2 0.355108 0.275618 0.706542
O O3 0.287352 0.185109 0.518096
O O4 0.500000 0.222693 0.250000
O O5 0.577046 0.120828 0.434511
O O6 0.500000 0.662587 0.250000
O O7 0.312332 0.629851 0.192749
O O8 0.500000 0.667851 0.750000
O O9 0.212989 0.584170 0.928548
O O10 0.500000 0.033143 0.250000
O O11 0.682146 0.000974 0.230088
#
# Coordination Sequence:
#
# PCOD9269839 Si02
#       5
#     8   4   8   8   8
#     4   9  19  37  57  92 126 164 205 254 307 371
#     4  10  20  34  62  90 128 154 206 254 320 362
#     4  11  25  43  61  91 131 173 214 250 297 367
#     4  11  24  38  66  91 126 168 209 257 317 375
#     4  10  23  40  63  93 126 154 200 262 325 378
#
# _framework density 23.034154000000001
#
# number of rings (size 3 to 8) (size 9 to 14) (size 15 to 20)
#    0.000    1.778    1.111    2.667   10.889    0.889 
#    0.000    0.000    0.000    4.000    0.000    0.000 
#    0.000    0.000    0.000    0.000    0.000    0.000 
#
# Total GULP energy -100485.817234 kJ/mol
# GULP energy per Si atom -5582.545402 kJ/mol
# Density = 2.298173 g / cm^3
# Si number density = 23.034154 Si / 1000 Ang^3
#
#
#
# Elastic Constant Matrix: (Units=GPa)
#
#
# Indices 1 2 3 4 5 6 
#
# 1 132.8599 40.9235 31.8018 0.0000 33.9206 0.0000
# 2 40.9235 69.7242 4.9988 0.0000 9.6471 0.0000
# 3 31.8018 4.9988 75.4747 0.0000 18.1083 0.0000
# 4 0.0000 0.0000 0.0000 24.6463 0.0000 -20.5821
# 5 33.9206 9.6471 18.1083 0.0000 42.8988 0.0000
# 6 0.0000 0.0000 0.0000 -20.5821 0.0000 -874.0875
#
#
#
# Elastic Compliance Matrix: (Units=1/GPa)
#
#
# Indices 1 2 3 4 5 6 
#
# 1 0.011716 -0.005734 -0.002941 0.000000 -0.006733 0.000000
# 2 -0.005734 0.017612 0.001237 0.000000 0.000051 0.000000
# 3 -0.002941 0.001237 0.015484 0.000000 -0.004488 0.000000
# 4 0.000000 0.000000 0.000000 0.039792 0.000000 -0.000937
# 5 -0.006733 0.000051 -0.004488 0.000000 0.030518 0.000000
# 6 0.000000 0.000000 0.000000 -0.000937 0.000000 -0.001122
#
#
# Mechanical properties :
#
#
# Convention : Reuss Voigt Hill
#
# Bulk Modulus (GPa) = 33.40518 48.16745 40.78632
# Shear Modulus (GPa) = 36.00913 -147.95283 -55.97185
#
# Velocity S-wave (km/s) = 3.95814 -8.02318 -4.93480
# Velocity P-wave (km/s) = 5.95173 8.05430 3.83723
#
# Compressibility (1/GPa) = 0.02993548
#
# Stress axis : x y z
#
# Youngs Moduli (GPa) = 85.35350 56.77962 64.58355
#
# Poissons Ratio (x) = 0.32558 0.18997
# Poissons Ratio (y) = 0.48942 -0.07991
# Poissons Ratio (z) = 0.25106 -0.07026
#
# Static dielectric constant tensor:
#      x y z
#    x 1.880190 0.000000 0.035360 
#    y 0.000000 1.867590 0.000000 
#    z 0.035360 0.000000 2.111380 
# 
# From -- ./inp_files/4809.got.cif
#   From: 2010.05.17/outbox.cif.g08.bks.cpg/sg15_3_cif.got.tgz:4809.got - 2010.06.03 18:47:42.
