data_PCOD9269248
_publ_section_title
;
Structure prediction by ZEFSAII (Michael W. Deem and Ramdas Pophale) SiO2 
 PCOD9269248
Probable space group: C 2/C
;
_chemical_formula_sum "Si O2"
_cell_formula_units_Z 48
_cell_length_a 13.324518
_cell_length_b 13.298009
_cell_length_c 25.601284
_cell_angle_alpha 90.000000
_cell_angle_beta 142.506549
_cell_angle_gamma 90.000000
_cell_volume 2761.101075
_symmetry_space_group_name_H-M "C 2/C"
_symmetry_group_IT_number 15
_symmetry_cell_setting 'monoclinic'
loop_
_space_group_symop_operation_xyz
x,y,z
-x,y,1/2-z
-x,-y,-z
x,-y,1/2+z
1/2+x,1/2+y,z
1/2-x,1/2+y,1/2-z
1/2-x,1/2-y,-z
1/2+x,1/2-y,1/2+z
loop_
_atom_site_type_symbol
_atom_site_label
_atom_site_fract_x
_atom_site_fract_y
_atom_site_fract_z
Si Si1 0.173047 0.869637 0.753616
Si Si2 0.000000 0.299847 0.250000
Si Si3 0.000000 0.036232 0.750000
Si Si4 0.227932 0.535055 0.895462
Si Si5 0.938177 0.633010 0.102775
Si Si6 0.969474 0.968805 0.904820
Si Si7 0.143259 0.136852 0.908421
O O1 0.105260 0.771309 0.754920
O O2 0.121239 0.963765 0.768050
O O3 0.368210 0.868950 0.826992
O O4 0.084526 0.890104 0.661618
O O5 0.881370 0.371528 0.167456
O O6 0.897446 0.100432 0.666235
O O7 0.118624 0.449774 0.878523
O O8 0.320559 0.490831 0.882903
O O9 0.373556 0.564329 0.995953
O O10 0.890493 0.745060 0.101284
O O11 0.827610 0.615246 0.005234
O O12 0.025868 0.071781 0.898841
#
# Coordination Sequence:
#
# PCOD9269248 Si02
#       7
#     8   4   4   8   8   8   8
#     4  10  21  36  53  75 105 139 174 213 256 306
#     4  11  22  35  52  76 108 141 174 213 258 308
#     4   9  20  37  54  74 102 137 174 211 256 306
#     4  10  20  35  56  80 105 136 174 215 260 310
#     4  10  20  34  54  79 105 134 171 213 258 307
#     4   9  19  37  57  77 105 137 172 216 261 308
#     4   9  19  36  55  77 105 135 169 213 260 306
#
# _framework density 17.384367999999998
#
# number of rings (size 3 to 8) (size 9 to 14) (size 15 to 20)
#    0.000    2.333    0.000    2.000    0.000    6.000 
#    0.000    0.000    0.000    0.000    0.000    0.000 
#    0.000    0.000    0.000    0.000    0.000    0.000 
#
# Total GULP energy -133898.830225 kJ/mol
# GULP energy per Si atom -5579.117926 kJ/mol
# Density = 1.734480 g / cm^3
# Si number density = 17.384368 Si / 1000 Ang^3
#
#
#
# Elastic Constant Matrix: (Units=GPa)
#
#
# Indices 1 2 3 4 5 6 
#
# 1 113.3596 54.3453 86.6084 0.0000 8.2080 0.0000
# 2 54.3453 109.1632 90.6347 0.0000 -0.5959 0.0000
# 3 86.6084 90.6347 139.9150 0.0000 -10.4521 0.0000
# 4 0.0000 0.0000 0.0000 46.4468 0.0000 -0.5539
# 5 8.2080 -0.5959 -10.4521 0.0000 34.5070 0.0000
# 6 0.0000 0.0000 0.0000 -0.5539 0.0000 10.3164
#
#
#
# Elastic Compliance Matrix: (Units=1/GPa)
#
#
# Indices 1 2 3 4 5 6 
#
# 1 0.018882 0.001702 -0.013428 0.000000 -0.008529 0.000000
# 2 0.001702 0.020429 -0.014622 0.000000 -0.004481 0.000000
# 3 -0.013428 -0.014622 0.025733 0.000000 0.010736 0.000000
# 4 0.000000 0.000000 0.000000 0.021544 0.000000 0.001157
# 5 -0.008529 -0.004481 0.010736 0.000000 0.034183 0.000000
# 6 0.000000 0.000000 0.000000 0.001157 0.000000 0.096995
#
#
# Mechanical properties :
#
#
# Convention : Reuss Voigt Hill
#
# Bulk Modulus (GPa) = 80.98080 91.73495 86.35788
# Shear Modulus (GPa) = 18.20978 26.97733 22.59356
#
# Velocity S-wave (km/s) = 3.23999 3.94358 3.60897
# Velocity P-wave (km/s) = 7.78976 8.58015 8.19449
#
# Compressibility (1/GPa) = 0.01234861
#
# Stress axis : x y z
#
# Youngs Moduli (GPa) = 52.95964 48.95054 38.86068
#
# Poissons Ratio (x) = -0.08331 0.52182
# Poissons Ratio (y) = -0.09014 0.56821
# Poissons Ratio (z) = 0.71114 0.71574
#
# Static dielectric constant tensor:
#      x y z
#    x 1.573730 0.000000 -0.006880 
#    y 0.000000 1.564550 0.000000 
#    z -0.006880 0.000000 1.593710 
# 
# From -- ./inp_files/269610.got.cif
#   From: 2010.05.17/outbox.cif.g08.bks.cpg/sg15_135_cif.got.tgz:269610.got - 2010.06.03 18:47:42.
