data_PCOD9269814
_publ_section_title
;
Structure prediction by ZEFSAII (Michael W. Deem and Ramdas Pophale) SiO2 
 PCOD9269814
Probable space group: C 2/C
;
_chemical_formula_sum "Si O2"
_cell_formula_units_Z 52
_cell_length_a 11.477344
_cell_length_b 31.759021
_cell_length_c 10.333644
_cell_angle_alpha 90.000000
_cell_angle_beta 41.705315
_cell_angle_gamma 90.000000
_cell_volume 2505.989642
_symmetry_space_group_name_H-M "C 2/C"
_symmetry_group_IT_number 15
_symmetry_cell_setting 'monoclinic'
loop_
_space_group_symop_operation_xyz
x,y,z
-x,y,1/2-z
-x,-y,-z
x,-y,1/2+z
1/2+x,1/2+y,z
1/2-x,1/2+y,1/2-z
1/2-x,1/2-y,-z
1/2+x,1/2-y,1/2+z
loop_
_atom_site_type_symbol
_atom_site_label
_atom_site_fract_x
_atom_site_fract_y
_atom_site_fract_z
Si Si1 0.376736 0.991297 0.725448
Si Si2 0.150720 0.690878 0.230189
Si Si3 0.835447 0.836177 0.983129
Si Si4 0.500000 0.217687 0.750000
Si Si5 0.483871 0.268129 0.513697
Si Si6 0.653937 0.917968 0.230144
Si Si7 0.584745 0.099088 0.323251
O O1 0.500000 0.988988 0.750000
O O2 0.302445 0.944225 0.766417
O O3 0.500000 0.000000 0.500000
O O4 0.268630 0.034578 0.827035
O O5 0.335678 0.712216 0.044658
O O6 0.000000 0.685737 0.250000
O O7 0.069909 0.726913 0.385697
O O8 0.178620 0.644042 0.264231
O O9 0.000000 0.837939 0.750000
O O10 0.890490 0.806739 0.057375
O O11 0.659855 0.812837 0.075914
O O12 0.784679 0.882092 0.075440
O O13 0.427945 0.249467 0.700294
O O14 0.500000 0.919167 0.250000
O O15 0.562451 0.905634 0.442672
O O16 0.500000 0.099645 0.250000
#
# Coordination Sequence:
#
# PCOD9269814 Si02
#       7
#     8   8   8   4   8   8   8
#     4   8  15  31  55  90 115 152 206 254 309 380
#     4  11  24  39  58  84 117 165 212 260 305 367
#     4  12  24  37  61  97 134 170 204 257 330 385
#     4  12  22  42  60  88 130 170 210 262 318 376
#     4  12  23  39  59  85 124 164 216 256 315 371
#     4  10  20  34  61  94 127 157 206 269 315 375
#     4   9  19  36  61  88 118 163 216 255 316 385
#
# _framework density 20.750285999999999
#
# number of rings (size 3 to 8) (size 9 to 14) (size 15 to 20)
#    0.000    1.538    3.077    2.769    2.154    0.000 
#    0.000    0.000    0.000    0.923    0.000    0.000 
#    0.000    0.000    0.000    0.000    0.000    0.000 
#
# Total GULP energy -144807.184172 kJ/mol
# GULP energy per Si atom -5569.507084 kJ/mol
# Density = 2.070306 g / cm^3
# Si number density = 20.750286 Si / 1000 Ang^3
#
#
#
# Elastic Constant Matrix: (Units=GPa)
#
#
# Indices 1 2 3 4 5 6 
#
# 1 65.9218 19.9565 22.0154 0.0000 -0.6429 0.0000
# 2 19.9565 241.7316 45.6963 0.0000 -12.3301 0.0000
# 3 22.0154 45.6963 61.7622 0.0000 -2.9942 0.0000
# 4 0.0000 0.0000 0.0000 24.6317 0.0000 8.0862
# 5 -0.6429 -12.3301 -2.9942 0.0000 25.0513 0.0000
# 6 0.0000 0.0000 0.0000 8.0862 0.0000 21.4594
#
#
#
# Elastic Compliance Matrix: (Units=1/GPa)
#
#
# Indices 1 2 3 4 5 6 
#
# 1 0.017243 -0.000325 -0.005927 0.000000 -0.000426 0.000000
# 2 -0.000325 0.004913 -0.003422 0.000000 0.002001 0.000000
# 3 -0.005927 -0.003422 0.020867 0.000000 0.000658 0.000000
# 4 0.000000 0.000000 0.000000 0.046329 0.000000 -0.017457
# 5 -0.000426 0.002001 0.000658 0.000000 0.040970 0.000000
# 6 0.000000 0.000000 0.000000 -0.017457 0.000000 0.053178
#
#
# Mechanical properties :
#
#
# Convention : Reuss Voigt Hill
#
# Bulk Modulus (GPa) = 42.23662 60.52800 51.38231
# Shear Modulus (GPa) = 23.72606 33.01167 28.36887
#
# Velocity S-wave (km/s) = 3.38510 3.99294 3.70152
# Velocity P-wave (km/s) = 5.97306 7.10571 6.56386
#
# Compressibility (1/GPa) = 0.02367614
#
# Stress axis : x y z
#
# Youngs Moduli (GPa) = 57.99476 203.56031 47.92178
#
# Poissons Ratio (x) = 0.06613 0.28401
# Poissons Ratio (y) = 0.01884 0.16398
# Poissons Ratio (z) = 0.34371 0.69656
#
# Static dielectric constant tensor:
#      x y z
#    x 1.789990 0.000000 0.026000 
#    y 0.000000 1.807250 0.000000 
#    z 0.026000 0.000000 1.771010 
# 
# From -- ./inp_files/92541.got.cif
#   From: 2010.05.17/outbox.cif.g08.bks.cpg/sg15_47_cif.got.tgz:92541.got - 2010.06.03 18:47:42.
