data_PCOD9269690
_publ_section_title
;
Structure prediction by ZEFSAII (Michael W. Deem and Ramdas Pophale) SiO2 
 PCOD9269690
Probable space group: C 2/C
;
_chemical_formula_sum "Si O2"
_cell_formula_units_Z 48
_cell_length_a 27.506744
_cell_length_b 7.551487
_cell_length_c 17.299138
_cell_angle_alpha 90.000000
_cell_angle_beta 28.351001
_cell_angle_gamma 90.000000
_cell_volume 1706.367127
_symmetry_space_group_name_H-M "C 2/C"
_symmetry_group_IT_number 15
_symmetry_cell_setting 'monoclinic'
loop_
_space_group_symop_operation_xyz
x,y,z
-x,y,1/2-z
-x,-y,-z
x,-y,1/2+z
1/2+x,1/2+y,z
1/2-x,1/2+y,1/2-z
1/2-x,1/2-y,-z
1/2+x,1/2-y,1/2+z
loop_
_atom_site_type_symbol
_atom_site_label
_atom_site_fract_x
_atom_site_fract_y
_atom_site_fract_z
Si Si1 0.728484 0.418309 0.585615
Si Si2 0.048629 0.857794 0.102776
Si Si3 0.114246 0.715487 0.255340
Si Si4 0.009903 0.183753 0.417334
Si Si5 0.631178 0.129534 0.483364
Si Si6 0.744100 0.999703 0.176132
O O1 0.750000 0.250000 0.500000
O O2 0.680835 0.614288 0.633726
O O3 0.628183 0.340295 0.772187
O O4 0.830437 0.458240 0.491885
O O5 0.000000 0.928817 0.250000
O O6 0.978467 0.694678 0.175277
O O7 0.028467 0.996984 0.062433
O O8 0.168780 0.847806 0.943961
O O9 0.059678 0.758418 0.414093
O O10 0.180194 0.546020 0.188389
O O11 0.981545 0.311699 0.385195
O O12 0.678174 0.023432 0.345341
O O13 0.693247 0.317741 0.406607
#
# Coordination Sequence:
#
# PCOD9269690 Si02
#       6
#     8   8   8   8   8   8
#     4  11  22  35  59  91 123 155 198 257 303 355
#     4  10  20  34  59  85 115 158 201 239 295 370
#     4  10  21  41  62  85 120 160 207 249 295 366
#     4   9  20  37  62  82 117 163 208 239 290 377
#     4  10  20  38  61  88 114 159 205 248 295 360
#     4  10  21  38  65  85 116 158 207 246 293 365
#
# _framework density 28.129937999999999
#
# number of rings (size 3 to 8) (size 9 to 14) (size 15 to 20)
#    0.000    2.000    0.000    6.000    9.333    0.667 
#    0.000    9.167    0.000    0.000    0.000    0.000 
#    0.000    0.000    0.000    0.000    0.000    0.000 
#
# Total GULP energy -134152.828475 kJ/mol
# GULP energy per Si atom -5589.701186 kJ/mol
# Density = 2.806591 g / cm^3
# Si number density = 28.129938 Si / 1000 Ang^3
#
#
#
# Elastic Constant Matrix: (Units=GPa)
#
#
# Indices 1 2 3 4 5 6 
#
# 1 72.2048 -31.5234 -0.5651 0.0004 -26.9952 -0.0005
# 2 -31.5234 129.5723 17.0928 0.0028 0.3758 -0.0023
# 3 -0.5651 17.0928 96.2299 0.0032 12.5850 -0.0014
# 4 0.0004 0.0028 0.0032 39.0050 -0.0010 -5.6761
# 5 -26.9952 0.3758 12.5850 -0.0010 40.6925 0.0003
# 6 -0.0005 -0.0023 -0.0014 -5.6761 0.0003 18.0011
#
#
#
# Elastic Compliance Matrix: (Units=1/GPa)
#
#
# Indices 1 2 3 4 5 6 
#
# 1 0.022133 0.005725 -0.002918 0.000000 0.015533 0.000001
# 2 0.005725 0.009389 -0.002209 0.000000 0.004394 0.000001
# 3 -0.002918 -0.002209 0.011482 -0.000001 -0.005467 0.000000
# 4 0.000000 0.000000 -0.000001 0.026871 0.000001 0.008473
# 5 0.015533 0.004394 -0.005467 0.000001 0.036529 0.000000
# 6 0.000001 0.000001 0.000000 0.008473 0.000000 0.058224
#
#
# Mechanical properties :
#
#
# Convention : Reuss Voigt Hill
#
# Bulk Modulus (GPa) = 22.62479 29.77952 26.20215
# Shear Modulus (GPa) = 28.06380 40.40656 34.23518
#
# Velocity S-wave (km/s) = 3.16198 3.79413 3.49239
# Velocity P-wave (km/s) = 4.62507 5.45924 5.05938
#
# Compressibility (1/GPa) = 0.04419931
#
# Stress axis : x y z
#
# Youngs Moduli (GPa) = 45.18120 106.50688 87.09367
#
# Poissons Ratio (x) = -0.60971 0.25416
# Poissons Ratio (y) = -0.25865 0.19237
# Poissons Ratio (z) = 0.13185 0.23525
#
# Static dielectric constant tensor:
#      x y z
#    x 2.251960 0.000000 -0.008740 
#    y 0.000000 2.298540 0.000000 
#    z -0.008740 0.000000 2.177000 
# 
# From -- ./inp_files/224557.got.cif
#   From: 2010.05.17/outbox.cif.g08.bks.cpg/sg15_113_cif.got.tgz:224557.got - 2010.06.03 18:47:42.
