data_PCOD9269948
_publ_section_title
;
Structure prediction by ZEFSAII (Michael W. Deem and Ramdas Pophale) SiO2 
 PCOD9269948
Probable space group: C 2/C
;
_chemical_formula_sum "Si O2"
_cell_formula_units_Z 36
_cell_length_a 15.819155
_cell_length_b 23.184212
_cell_length_c 5.302368
_cell_angle_alpha 90.000000
_cell_angle_beta 128.236218
_cell_angle_gamma 90.000000
_cell_volume 1527.470322
_symmetry_space_group_name_H-M "C 2/C"
_symmetry_group_IT_number 15
_symmetry_cell_setting 'monoclinic'
loop_
_space_group_symop_operation_xyz
x,y,z
-x,y,1/2-z
-x,-y,-z
x,-y,1/2+z
1/2+x,1/2+y,z
1/2-x,1/2+y,1/2-z
1/2-x,1/2-y,-z
1/2+x,1/2-y,1/2+z
loop_
_atom_site_type_symbol
_atom_site_label
_atom_site_fract_x
_atom_site_fract_y
_atom_site_fract_z
Si Si1 0.000000 0.365341 0.250000
Si Si2 0.221191 0.180137 0.712207
Si Si3 0.548669 0.564144 0.084069
Si Si4 0.258025 0.109008 0.288353
Si Si5 0.074054 0.740633 0.194312
O O1 0.112537 0.400306 0.452296
O O2 0.017134 0.318738 0.504487
O O3 0.234372 0.157706 0.454758
O O4 0.116450 0.219279 0.551095
O O5 0.229155 0.131168 0.951546
O O6 0.320848 0.220844 0.961092
O O7 0.500000 0.591024 0.250000
O O8 0.675604 0.561381 0.249375
O O9 0.500000 0.594535 0.750000
O O10 0.500000 0.500000 0.000000
O O11 0.000000 0.773705 0.250000
#
# Coordination Sequence:
#
# PCOD9269948 Si02
#       5
#     4   8   8   8   8
#     4  10  22  36  60  80 126 162 202 250 290 350
#     4  10  23  34  55  81 119 161 211 245 279 356
#     4  10  22  42  67  90 119 151 189 253 317 370
#     4  11  22  40  59  91 115 158 208 245 306 355
#     4  10  20  35  51  77 121 168 207 243 295 323
#
# _framework density 23.568380999999999
#
# number of rings (size 3 to 8) (size 9 to 14) (size 15 to 20)
#    0.000    1.778    2.222    1.333    3.111    5.333 
#    0.000    0.000    0.000    5.333    0.000    0.000 
#    0.000    0.000    0.000    0.000    0.000    0.000 
#
# Total GULP energy -100376.122229 kJ/mol
# GULP energy per Si atom -5576.451235 kJ/mol
# Density = 2.351474 g / cm^3
# Si number density = 23.568381 Si / 1000 Ang^3
#
#
#
# Elastic Constant Matrix: (Units=GPa)
#
#
# Indices 1 2 3 4 5 6 
#
# 1 165.2862 21.1429 47.9546 0.0000 22.9568 0.0000
# 2 21.1429 54.6801 12.8039 0.0000 19.0555 0.0000
# 3 47.9546 12.8039 92.8542 0.0000 3.7265 0.0000
# 4 0.0000 0.0000 0.0000 8.3034 0.0000 -8.2128
# 5 22.9568 19.0555 3.7265 0.0000 68.6079 0.0000
# 6 0.0000 0.0000 0.0000 -8.2128 0.0000 4.5368
#
#
#
# Elastic Compliance Matrix: (Units=1/GPa)
#
#
# Indices 1 2 3 4 5 6 
#
# 1 0.007551 -0.001393 -0.003630 0.000000 -0.001943 0.000000
# 2 -0.001393 0.021137 -0.001983 0.000000 -0.005297 0.000000
# 3 -0.003630 -0.001983 0.012875 0.000000 0.001066 0.000000
# 4 0.000000 0.000000 0.000000 -0.152348 0.000000 -0.275790
# 5 -0.001943 -0.005297 0.001066 0.000000 0.016639 0.000000
# 6 0.000000 0.000000 0.000000 -0.275790 0.000000 -0.278832
#
#
# Mechanical properties :
#
#
# Convention : Reuss Voigt Hill
#
# Bulk Modulus (GPa) = 36.29465 52.95816 44.62640
# Shear Modulus (GPa) = -14.29458 31.68421 8.69482
#
# Velocity S-wave (km/s) = -2.46542 3.67052 1.92281
# Velocity P-wave (km/s) = 2.70716 6.36258 4.88933
#
# Compressibility (1/GPa) = 0.02755227
#
# Stress axis : x y z
#
# Youngs Moduli (GPa) = 132.42891 47.31049 77.67104
#
# Poissons Ratio (x) = 0.06590 0.28193
# Poissons Ratio (y) = 0.18445 0.15400
# Poissons Ratio (z) = 0.48069 0.09380
#
# Static dielectric constant tensor:
#      x y z
#    x 1.965600 0.000000 0.002590 
#    y 0.000000 1.983190 0.000000 
#    z 0.002590 0.000000 2.005920 
# 
# From -- ./inp_files/8173.got.cif
#   From: 2010.05.17/outbox.cif.g08.bks.cpg/sg15_5_cif.got.tgz:8173.got - 2010.06.03 18:47:42.
