data_PCOD9269612
_publ_section_title
;
Structure prediction by ZEFSAII (Michael W. Deem and Ramdas Pophale) SiO2 
 PCOD9269612
Probable space group: C 2/C
;
_chemical_formula_sum "Si O2"
_cell_formula_units_Z 64
_cell_length_a 21.359195
_cell_length_b 20.148193
_cell_length_c 9.337309
_cell_angle_alpha 90.000000
_cell_angle_beta 121.951986
_cell_angle_gamma 90.000000
_cell_volume 3409.497690
_symmetry_space_group_name_H-M "C 2/C"
_symmetry_group_IT_number 15
_symmetry_cell_setting 'monoclinic'
loop_
_space_group_symop_operation_xyz
x,y,z
-x,y,1/2-z
-x,-y,-z
x,-y,1/2+z
1/2+x,1/2+y,z
1/2-x,1/2+y,1/2-z
1/2-x,1/2-y,-z
1/2+x,1/2-y,1/2+z
loop_
_atom_site_type_symbol
_atom_site_label
_atom_site_fract_x
_atom_site_fract_y
_atom_site_fract_z
Si Si1 0.282896 0.063093 0.359368
Si Si2 0.914150 0.406970 0.613451
Si Si3 0.775400 0.326245 0.399243
Si Si4 0.039949 0.900082 0.450400
Si Si5 0.191760 0.826257 0.588199
Si Si6 0.061202 0.948706 0.945769
Si Si7 0.086968 0.495522 0.621551
Si Si8 0.728973 0.433816 0.116613
O O1 0.245201 0.127417 0.246173
O O2 0.368786 0.057831 0.420260
O O3 0.267044 0.060392 0.508385
O O4 0.248504 0.999021 0.234990
O O5 0.852569 0.351622 0.562490
O O6 0.899449 0.469039 0.702350
O O7 0.896161 0.433580 0.431259
O O8 0.000000 0.388290 0.750000
O O9 0.789451 0.250922 0.369090
O O10 0.712999 0.336458 0.446117
O O11 0.752596 0.370665 0.237456
O O12 0.108832 0.849824 0.528561
O O13 0.000000 0.897339 0.250000
O O14 0.973505 0.896783 0.484227
O O15 0.069436 0.975548 0.513811
O O16 0.000000 0.952948 0.750000
O O17 0.141267 0.929891 0.987230
O O18 0.000000 0.500000 0.500000
#
# Coordination Sequence:
#
# PCOD9269612 Si02
#       8
#     8   8   8   8   8   8   8   8
#     4  12  22  38  64  92 122 160 203 257 315 364
#     4  10  20  36  58  90 122 154 200 254 311 370
#     4  11  24  40  60  90 126 163 216 252 312 377
#     4  10  20  34  58  87 119 158 200 245 312 370
#     4  11  23  41  62  87 123 169 206 262 307 374
#     4  10  21  35  57  92 122 151 197 255 309 373
#     4  10  20  35  59  90 121 152 197 251 308 358
#     4  12  24  37  65  94 123 159 206 260 311 374
#
# _framework density 18.771094000000002
#
# number of rings (size 3 to 8) (size 9 to 14) (size 15 to 20)
#    0.000    1.250    3.750    3.000    3.500    1.000 
#    0.000    0.000    0.000    0.000    6.500    0.000 
#    0.000    0.000    0.000    0.000    0.000    0.000 
#
# Total GULP energy -178259.524364 kJ/mol
# GULP energy per Si atom -5570.610136 kJ/mol
# Density = 1.872837 g / cm^3
# Si number density = 18.771094 Si / 1000 Ang^3
#
#
#
# Elastic Constant Matrix: (Units=GPa)
#
#
# Indices 1 2 3 4 5 6 
#
# 1 122.1812 27.7085 33.1845 0.0000 12.0955 0.0000
# 2 27.7085 91.1462 45.9008 0.0000 3.1209 0.0000
# 3 33.1845 45.9008 81.5369 0.0000 -5.9181 0.0000
# 4 0.0000 0.0000 0.0000 18.4472 0.0000 -4.3593
# 5 12.0955 3.1209 -5.9181 0.0000 34.2718 0.0000
# 6 0.0000 0.0000 0.0000 -4.3593 0.0000 23.1469
#
#
#
# Elastic Compliance Matrix: (Units=1/GPa)
#
#
# Indices 1 2 3 4 5 6 
#
# 1 0.009819 -0.000960 -0.003748 0.000000 -0.004025 0.000000
# 2 -0.000960 0.015700 -0.008635 0.000000 -0.002582 0.000000
# 3 -0.003748 -0.008635 0.019043 0.000000 0.005397 0.000000
# 4 0.000000 0.000000 0.000000 0.056734 0.000000 0.010685
# 5 -0.004025 -0.002582 0.005397 0.000000 0.031766 0.000000
# 6 0.000000 0.000000 0.000000 0.010685 0.000000 0.045215
#
#
# Mechanical properties :
#
#
# Convention : Reuss Voigt Hill
#
# Bulk Modulus (GPa) = 55.94135 56.49466 56.21801
# Shear Modulus (GPa) = 23.70565 27.71123 25.70844
#
# Velocity S-wave (km/s) = 3.55756 3.84640 3.70479
# Velocity P-wave (km/s) = 6.83678 7.06317 6.95089
#
# Compressibility (1/GPa) = 0.01787586
#
# Stress axis : x y z
#
# Youngs Moduli (GPa) = 101.84736 63.69359 52.51354
#
# Poissons Ratio (x) = 0.06112 0.19682
# Poissons Ratio (y) = 0.09773 0.45347
# Poissons Ratio (z) = 0.38173 0.55001
#
# Static dielectric constant tensor:
#      x y z
#    x 1.751090 0.000000 -0.008210 
#    y 0.000000 1.635930 0.000000 
#    z -0.008210 0.000000 1.676240 
# 
# From -- ./inp_files/57896.got.cif
#   From: 2010.05.17/outbox.cif.g08.bks.cpg/sg15_29_cif.got.tgz:57896.got - 2010.06.03 18:47:42.
