data_PCOD9269791
_publ_section_title
;
Structure prediction by ZEFSAII (Michael W. Deem and Ramdas Pophale) SiO2 
 PCOD9269791
Probable space group: C 2/C
;
_chemical_formula_sum "Si O2"
_cell_formula_units_Z 48
_cell_length_a 15.563752
_cell_length_b 18.963780
_cell_length_c 16.755150
_cell_angle_alpha 90.000000
_cell_angle_beta 26.776032
_cell_angle_gamma 90.000000
_cell_volume 2227.851772
_symmetry_space_group_name_H-M "C 2/C"
_symmetry_group_IT_number 15
_symmetry_cell_setting 'monoclinic'
loop_
_space_group_symop_operation_xyz
x,y,z
-x,y,1/2-z
-x,-y,-z
x,-y,1/2+z
1/2+x,1/2+y,z
1/2-x,1/2+y,1/2-z
1/2-x,1/2-y,-z
1/2+x,1/2-y,1/2+z
loop_
_atom_site_type_symbol
_atom_site_label
_atom_site_fract_x
_atom_site_fract_y
_atom_site_fract_z
Si Si1 0.414713 0.959750 0.148023
Si Si2 0.881770 0.803486 0.558216
Si Si3 0.319452 0.845629 0.493498
Si Si4 0.967211 0.598531 0.184059
Si Si5 0.541169 0.688726 0.098317
Si Si6 0.272093 0.353805 0.312002
O O1 0.267958 0.906057 0.228928
O O2 0.366294 0.024388 0.245873
O O3 0.561763 0.911235 0.074568
O O4 0.500000 0.000000 0.000000
O O5 0.680167 0.842631 0.724103
O O6 0.999275 0.820871 0.540728
O O7 0.840883 0.720333 0.598002
O O8 0.008092 0.829844 0.378376
O O9 0.432441 0.771991 0.406109
O O10 0.141927 0.836919 0.700994
O O11 0.226298 0.849058 0.482682
O O12 0.000000 0.605514 0.250000
O O13 0.172011 0.607660 0.970005
#
# Coordination Sequence:
#
# PCOD9269791 Si02
#       6
#     8   8   8   8   8   8
#     4  10  22  42  65  91 137 182 211 267 334 401
#     4  12  22  42  71 102 131 173 231 279 340 395
#     4  10  20  36  61  98 141 170 220 274 334 397
#     4  11  27  48  67  98 137 179 227 277 339 402
#     4  10  20  34  61 103 130 170 217 280 328 395
#     4  11  23  42  73 102 130 174 224 283 335 401
#
# _framework density 21.54542
#
# number of rings (size 3 to 8) (size 9 to 14) (size 15 to 20)
#    0.000    1.333    3.333    3.000    0.000    3.333 
#    3.000    6.667    0.000    0.000    0.000    0.000 
#    0.000    0.000    0.000    0.000    0.000    0.000 
#
# Total GULP energy -134000.721470 kJ/mol
# GULP energy per Si atom -5583.363395 kJ/mol
# Density = 2.149638 g / cm^3
# Si number density = 21.545420 Si / 1000 Ang^3
#
#
#
# Elastic Constant Matrix: (Units=GPa)
#
#
# Indices 1 2 3 4 5 6 
#
# 1 77.1385 10.5486 -17.8918 -0.0708 6.4149 0.0324
# 2 10.5486 91.7085 -10.0504 -0.1093 -4.4208 0.0554
# 3 -17.8918 -10.0504 57.8705 -0.1610 10.6196 0.0834
# 4 -0.0708 -0.1093 -0.1610 34.6829 0.0320 -5.7333
# 5 6.4149 -4.4208 10.6196 0.0320 14.1391 -0.0125
# 6 0.0324 0.0554 0.0834 -5.7333 -0.0125 29.9935
#
#
#
# Elastic Compliance Matrix: (Units=1/GPa)
#
#
# Indices 1 2 3 4 5 6 
#
# 1 0.015902 -0.001688 0.007011 0.000067 -0.013009 -0.000026
# 2 -0.001688 0.011363 0.000765 0.000030 0.003744 -0.000014
# 3 0.007011 0.000765 0.023337 0.000135 -0.020470 -0.000057
# 4 0.000067 0.000030 0.000135 0.029774 -0.000184 0.005691
# 5 -0.013009 0.003744 -0.020470 -0.000184 0.093174 0.000068
# 6 -0.000026 -0.000014 -0.000057 0.005691 0.000068 0.034429
#
#
# Mechanical properties :
#
#
# Convention : Reuss Voigt Hill
#
# Bulk Modulus (GPa) = 15.92931 21.32560 18.62746
# Shear Modulus (GPa) = 23.07016 32.03715 27.55366
#
# Velocity S-wave (km/s) = 3.27581 3.86029 3.58000
# Velocity P-wave (km/s) = 4.66018 5.45790 5.07474
#
# Compressibility (1/GPa) = 0.06277736
#
# Stress axis : x y z
#
# Youngs Moduli (GPa) = 62.88322 88.00822 42.85006
#
# Poissons Ratio (x) = 0.14854 -0.30041
# Poissons Ratio (y) = 0.10614 -0.03276
# Poissons Ratio (z) = -0.44086 -0.06729
#
# Static dielectric constant tensor:
#      x y z
#    x 1.785150 -0.000010 0.016330 
#    y -0.000010 1.779020 0.000060 
#    z 0.016330 0.000060 1.841730 
# 
# From -- ./inp_files/206380.got.cif
#   From: 2010.05.17/outbox.cif.g08.bks.cpg/sg15_104_cif.got.tgz:206380.got - 2010.06.03 18:47:42.
