data_PCOD9269303
_publ_section_title
;
Structure prediction by ZEFSAII (Michael W. Deem and Ramdas Pophale) SiO2 
 PCOD9269303
Probable space group: C 2/C
;
_chemical_formula_sum "Si O2"
_cell_formula_units_Z 28
_cell_length_a 11.154450
_cell_length_b 29.252732
_cell_length_c 5.041866
_cell_angle_alpha 90.000000
_cell_angle_beta 67.300016
_cell_angle_gamma 90.000000
_cell_volume 1517.715081
_symmetry_space_group_name_H-M "C 2/C"
_symmetry_group_IT_number 15
_symmetry_cell_setting 'monoclinic'
loop_
_space_group_symop_operation_xyz
x,y,z
-x,y,1/2-z
-x,-y,-z
x,-y,1/2+z
1/2+x,1/2+y,z
1/2-x,1/2+y,1/2-z
1/2-x,1/2-y,-z
1/2+x,1/2-y,1/2+z
loop_
_atom_site_type_symbol
_atom_site_label
_atom_site_fract_x
_atom_site_fract_y
_atom_site_fract_z
Si Si1 0.500000 0.967303 0.250000
Si Si2 0.767470 0.328743 0.017877
Si Si3 0.645330 0.878095 0.069564
Si Si4 0.370817 0.257267 0.690700
O O1 0.621472 0.931954 0.132653
O O2 0.500000 0.000000 0.500000
O O3 0.750000 0.250000 0.500000
O O4 0.651037 0.301878 0.972554
O O5 0.821122 0.363967 0.755769
O O6 0.756264 0.355759 0.304000
O O7 0.500000 0.858642 0.250000
O O8 0.637180 0.786579 0.493799
O O9 0.500000 0.259727 0.750000
#
# Coordination Sequence:
#
# PCOD9269303 Si02
#       4
#     4   8   8   8
#     4  10  20  34  54  88 122 152 186 248 310 378
#     4  11  21  37  52  80 110 160 201 232 296 340
#     4  10  21  32  58  78 116 154 191 233 301 370
#     4  11  25  37  57  81 120 159 211 256 280 342
#
# _framework density 18.448788
#
# number of rings (size 3 to 8) (size 9 to 14) (size 15 to 20)
#    0.857    0.571    2.857    3.429    4.000    3.429 
#    0.000    0.000    0.000    0.000    0.000    0.000 
#    0.000   22.857    0.000    0.000    0.000    0.000 
#
# Total GULP energy -78070.499437 kJ/mol
# GULP energy per Si atom -5576.464245 kJ/mol
# Density = 1.840680 g / cm^3
# Si number density = 18.448788 Si / 1000 Ang^3
#
#
#
# Elastic Constant Matrix: (Units=GPa)
#
#
# Indices 1 2 3 4 5 6 
#
# 1 89.8529 20.8588 28.9036 0.0000 27.1060 0.0000
# 2 20.8588 131.9220 49.3160 0.0000 15.7301 0.0000
# 3 28.9036 49.3160 124.0144 0.0000 20.2184 0.0000
# 4 0.0000 0.0000 0.0000 45.9972 0.0000 7.2176
# 5 27.1060 15.7301 20.2184 0.0000 33.9904 0.0000
# 6 0.0000 0.0000 0.0000 7.2176 0.0000 -0.9154
#
#
#
# Elastic Compliance Matrix: (Units=1/GPa)
#
#
# Indices 1 2 3 4 5 6 
#
# 1 0.015004 -0.000510 -0.001530 0.000000 -0.010818 0.000000
# 2 -0.000510 0.009077 -0.003180 0.000000 -0.001902 0.000000
# 3 -0.001530 -0.003180 0.010239 0.000000 -0.003398 0.000000
# 4 0.000000 0.000000 0.000000 0.009718 0.000000 0.076619
# 5 -0.010818 -0.001902 -0.003398 0.000000 0.040949 0.000000
# 6 0.000000 0.000000 0.000000 0.076619 0.000000 -0.488287
#
#
# Mechanical properties :
#
#
# Convention : Reuss Voigt Hill
#
# Bulk Modulus (GPa) = 41.88066 60.43845 51.15955
# Shear Modulus (GPa) = -12.99037 32.26182 9.63572
#
# Velocity S-wave (km/s) = -2.65643 4.18631 2.28786
# Velocity P-wave (km/s) = 3.65260 7.49654 5.89660
#
# Compressibility (1/GPa) = 0.02387737
#
# Stress axis : x y z
#
# Youngs Moduli (GPa) = 66.65073 110.17311 97.66576
#
# Poissons Ratio (x) = 0.05622 0.14944
# Poissons Ratio (y) = 0.03401 0.31062
# Poissons Ratio (z) = 0.10199 0.35040
#
# Static dielectric constant tensor:
#      x y z
#    x 1.677500 0.000000 -0.009610 
#    y 0.000000 1.647960 0.000000 
#    z -0.009610 0.000000 1.662430 
# 
# From -- ./inp_files/6736.got.cif
#   From: 2010.05.17/outbox.cif.g08.bks.cpg/sg15_4_cif.got.tgz:6736.got - 2010.06.03 18:47:42.
