data_PCOD9269334
_publ_section_title
;
Structure prediction by ZEFSAII (Michael W. Deem and Ramdas Pophale) SiO2 
 PCOD9269334
Probable space group: C 2/C
;
_chemical_formula_sum "Si O2"
_cell_formula_units_Z 40
_cell_length_a 13.858675
_cell_length_b 5.393588
_cell_length_c 24.340887
_cell_angle_alpha 90.000000
_cell_angle_beta 75.659810
_cell_angle_gamma 90.000000
_cell_volume 1762.742773
_symmetry_space_group_name_H-M "C 2/C"
_symmetry_group_IT_number 15
_symmetry_cell_setting 'monoclinic'
loop_
_space_group_symop_operation_xyz
x,y,z
-x,y,1/2-z
-x,-y,-z
x,-y,1/2+z
1/2+x,1/2+y,z
1/2-x,1/2+y,1/2-z
1/2-x,1/2-y,-z
1/2+x,1/2-y,1/2+z
loop_
_atom_site_type_symbol
_atom_site_label
_atom_site_fract_x
_atom_site_fract_y
_atom_site_fract_z
Si Si1 0.212159 0.568270 0.958202
Si Si2 0.101233 0.192403 0.035638
Si Si3 0.610984 0.746262 0.260244
Si Si4 0.106913 0.944428 0.918414
Si Si5 0.171770 0.256444 0.815525
O O1 0.116769 0.447740 0.001324
O O2 0.188110 0.725193 0.907456
O O3 0.250000 0.750000 0.000000
O O4 0.300800 0.366668 0.942294
O O5 0.099151 0.009063 0.983740
O O6 0.000614 0.158822 0.083241
O O7 0.500000 0.756010 0.250000
O O8 0.707952 0.752033 0.206334
O O9 0.629288 0.989308 0.296068
O O10 0.627729 0.484405 0.289184
O O11 0.137389 0.187734 0.881569
#
# Coordination Sequence:
#
# PCOD9269334 Si02
#       5
#     8   8   8   8   8
#     4   9  18  34  51  76 115 153 187 230 277 333
#     4   9  19  35  52  77 120 154 188 232 281 338
#     4  10  22  45  64  87 122 152 194 257 313 358
#     4  10  20  34  55  82 111 152 192 237 284 340
#     4  10  23  40  65  93 116 154 204 247 302 369
#
# _framework density 22.691908999999999
#
# number of rings (size 3 to 8) (size 9 to 14) (size 15 to 20)
#    0.000    2.400    0.000    1.200    2.800    1.600 
#   10.800    0.000    0.000    0.000    0.000    0.000 
#    0.000    0.000    0.000    0.000    0.000    0.000 
#
# Total GULP energy -111480.478987 kJ/mol
# GULP energy per Si atom -5574.023949 kJ/mol
# Density = 2.264026 g / cm^3
# Si number density = 22.691909 Si / 1000 Ang^3
#
#
#
# Elastic Constant Matrix: (Units=GPa)
#
#
# Indices 1 2 3 4 5 6 
#
# 1 160.7856 26.4029 32.1651 0.0000 -3.1373 0.0000
# 2 26.4029 103.8966 -0.6460 -0.0001 7.0953 0.0002
# 3 32.1651 -0.6460 44.1400 -0.0001 -3.3837 0.0000
# 4 0.0000 -0.0001 -0.0001 29.5995 -0.0001 2.4868
# 5 -3.1373 7.0953 -3.3837 -0.0001 13.5599 -0.0001
# 6 0.0000 0.0002 0.0000 2.4868 -0.0001 19.9310
#
#
#
# Elastic Compliance Matrix: (Units=1/GPa)
#
#
# Indices 1 2 3 4 5 6 
#
# 1 0.007698 -0.002093 -0.005525 0.000000 0.001497 0.000000
# 2 -0.002093 0.010554 0.001243 0.000000 -0.005696 0.000000
# 3 -0.005525 0.001243 0.027070 0.000000 0.004826 0.000000
# 4 0.000000 0.000000 0.000000 0.034142 0.000000 -0.004260
# 5 0.001497 -0.005696 0.004826 0.000000 0.078278 0.000000
# 6 0.000000 0.000000 0.000000 -0.004260 0.000000 0.050705
#
#
# Mechanical properties :
#
#
# Convention : Reuss Voigt Hill
#
# Bulk Modulus (GPa) = 30.70268 47.18515 38.94391
# Shear Modulus (GPa) = 21.54678 29.34474 25.44576
#
# Velocity S-wave (km/s) = 3.08480 3.59998 3.35230
# Velocity P-wave (km/s) = 5.12324 6.17404 5.67302
#
# Compressibility (1/GPa) = 0.03257045
#
# Stress axis : x y z
#
# Youngs Moduli (GPa) = 129.90985 94.75518 36.94182
#
# Poissons Ratio (x) = 0.19830 0.20411
# Poissons Ratio (y) = 0.27187 -0.04591
# Poissons Ratio (z) = 0.71777 -0.11776
#
# Static dielectric constant tensor:
#      x y z
#    x 1.922660 0.000000 0.017210 
#    y 0.000000 1.940340 0.000000 
#    z 0.017210 0.000000 1.913700 
# 
# From -- ./inp_files/271641.got.cif
#   From: 2010.05.17/outbox.cif.g08.bks.cpg/sg15_136_cif.got.tgz:271641.got - 2010.06.03 18:47:42.
