data_PCOD9269037
_publ_section_title
;
Structure prediction by ZEFSAII (Michael W. Deem and Ramdas Pophale) SiO2 
 PCOD9269037
Probable space group: C 2/C
;
_chemical_formula_sum "Si O2"
_cell_formula_units_Z 56
_cell_length_a 5.420489
_cell_length_b 21.411079
_cell_length_c 23.127918
_cell_angle_alpha 90.000000
_cell_angle_beta 106.091962
_cell_angle_gamma 90.000000
_cell_volume 2579.020017
_symmetry_space_group_name_H-M "C 2/C"
_symmetry_group_IT_number 15
_symmetry_cell_setting 'monoclinic'
loop_
_space_group_symop_operation_xyz
x,y,z
-x,y,1/2-z
-x,-y,-z
x,-y,1/2+z
1/2+x,1/2+y,z
1/2-x,1/2+y,1/2-z
1/2-x,1/2-y,-z
1/2+x,1/2-y,1/2+z
loop_
_atom_site_type_symbol
_atom_site_label
_atom_site_fract_x
_atom_site_fract_y
_atom_site_fract_z
Si Si1 0.000000 0.580878 0.750000
Si Si2 0.343208 0.126931 0.151673
Si Si3 0.431613 0.668170 0.826104
Si Si4 0.500000 0.780191 0.750000
Si Si5 0.889140 0.216298 0.455530
Si Si6 0.637563 0.930228 0.136573
Si Si7 0.387183 0.552098 0.176680
Si Si8 0.308853 0.166167 0.563882
O O1 0.241248 0.623982 0.778644
O O2 0.024094 0.546624 0.690852
O O3 0.315011 0.173652 0.204566
O O4 0.289040 0.169892 0.092269
O O5 0.625899 0.094566 0.165715
O O6 0.111355 0.080804 0.151483
O O7 0.405977 0.734437 0.794010
O O8 0.701447 0.632777 0.840337
O O9 0.349778 0.671448 0.887108
O O10 0.750000 0.250000 0.500000
O O11 0.124137 0.176568 0.497469
O O12 0.000480 0.274218 0.425911
O O13 0.440468 0.902220 0.077340
O O14 0.817339 0.988455 0.137235
O O15 0.500000 0.541191 0.250000
#
# Coordination Sequence:
#
# PCOD9269037 Si02
#       8
#     4   8   8   4   8   8   8   8
#     4  10  20  33  62 100 133 178 222 292 354 422
#     4  12  29  45  72 103 144 196 241 288 377 435
#     4  11  22  38  65 107 134 176 230 304 362 418
#     4  12  22  41  62 104 143 178 232 298 360 454
#     4  11  25  48  74 103 145 184 241 309 375 429
#     4  11  23  42  68 100 141 183 247 287 359 422
#     4  12  27  49  69 103 150 201 236 294 354 451
#     4  10  24  42  75 104 135 184 239 307 365 425
#
# _framework density 21.713676
#
# number of rings (size 3 to 8) (size 9 to 14) (size 15 to 20)
#    0.000    0.857    2.857    3.429   14.000    0.000 
#    0.000    1.429    0.000    0.000    0.000    0.000 
#    0.000    0.000    0.000    0.000    0.000    0.000 
#
# Total GULP energy -156186.758447 kJ/mol
# GULP energy per Si atom -5578.098516 kJ/mol
# Density = 2.166425 g / cm^3
# Si number density = 21.713676 Si / 1000 Ang^3
#
#
#
# Elastic Constant Matrix: (Units=GPa)
#
#
# Indices 1 2 3 4 5 6 
#
# 1 72.0241 25.5916 25.0870 0.0000 6.1344 0.0000
# 2 25.5916 92.9440 56.8319 0.0000 18.2797 0.0000
# 3 25.0870 56.8319 85.0291 0.0000 14.8695 0.0000
# 4 0.0000 0.0000 0.0000 15.2340 0.0000 -6.1717
# 5 6.1344 18.2797 14.8695 0.0000 41.4436 0.0000
# 6 0.0000 0.0000 0.0000 -6.1717 0.0000 21.0604
#
#
#
# Elastic Compliance Matrix: (Units=1/GPa)
#
#
# Indices 1 2 3 4 5 6 
#
# 1 0.015822 -0.002514 -0.002958 0.000000 -0.000172 0.000000
# 2 -0.002514 0.019208 -0.011395 0.000000 -0.004012 0.000000
# 3 -0.002958 -0.011395 0.020586 0.000000 -0.001922 0.000000
# 4 0.000000 0.000000 0.000000 0.074485 0.000000 0.021828
# 5 -0.000172 -0.004012 -0.001922 0.000000 0.026614 0.000000
# 6 0.000000 0.000000 0.000000 0.021828 0.000000 0.053879
#
#
# Mechanical properties :
#
#
# Convention : Reuss Voigt Hill
#
# Bulk Modulus (GPa) = 45.69920 51.66869 48.68394
# Shear Modulus (GPa) = 19.87109 25.04674 22.45892
#
# Velocity S-wave (km/s) = 3.02841 3.40001 3.21958
# Velocity P-wave (km/s) = 5.77238 6.26582 6.02415
#
# Compressibility (1/GPa) = 0.02188222
#
# Stress axis : x y z
#
# Youngs Moduli (GPa) = 63.20132 52.06158 48.57768
#
# Poissons Ratio (x) = 0.13090 0.14368
# Poissons Ratio (y) = 0.15891 0.55354
# Poissons Ratio (z) = 0.18693 0.59324
#
# Static dielectric constant tensor:
#      x y z
#    x 1.905970 0.000000 0.022490 
#    y 0.000000 1.879980 0.000000 
#    z 0.022490 0.000000 1.624090 
# 
# From -- ./inp_files/261415.got.cif
#   From: 2010.05.17/outbox.cif.g08.bks.cpg/sg15_131_cif.got.tgz:261415.got - 2010.06.03 18:47:42.
