data_PCOD9269771
_publ_section_title
;
Structure prediction by ZEFSAII (Michael W. Deem and Ramdas Pophale) SiO2 
 PCOD9269771
Probable space group: C 2/C
;
_chemical_formula_sum "Si O2"
_cell_formula_units_Z 60
_cell_length_a 24.480291
_cell_length_b 12.526430
_cell_length_c 21.569795
_cell_angle_alpha 90.000000
_cell_angle_beta 149.499199
_cell_angle_gamma 90.000000
_cell_volume 3357.137205
_symmetry_space_group_name_H-M "C 2/C"
_symmetry_group_IT_number 15
_symmetry_cell_setting 'monoclinic'
loop_
_space_group_symop_operation_xyz
x,y,z
-x,y,1/2-z
-x,-y,-z
x,-y,1/2+z
1/2+x,1/2+y,z
1/2-x,1/2+y,1/2-z
1/2-x,1/2-y,-z
1/2+x,1/2-y,1/2+z
loop_
_atom_site_type_symbol
_atom_site_label
_atom_site_fract_x
_atom_site_fract_y
_atom_site_fract_z
Si Si1 0.872259 0.063998 0.629783
Si Si2 0.323618 0.826487 0.776317
Si Si3 0.116093 0.101744 0.719379
Si Si4 0.281351 0.135813 0.504893
Si Si5 0.031434 0.594994 0.410852
Si Si6 0.288815 0.927391 0.873336
Si Si7 0.500000 0.020498 0.750000
Si Si8 0.379122 0.665052 0.507384
O O1 0.851596 0.119005 0.676301
O O2 0.843834 0.133598 0.542207
O O3 0.000000 0.043882 0.750000
O O4 0.806434 0.954602 0.564850
O O5 0.347457 0.702058 0.785770
O O6 0.424313 0.890810 0.846468
O O7 0.308483 0.855551 0.832936
O O8 0.216394 0.854336 0.633583
O O9 0.986612 0.099217 0.593931
O O10 0.178268 0.995274 0.760202
O O11 0.250000 0.250000 0.500000
O O12 0.287484 0.137431 0.436209
O O13 0.394090 0.093531 0.642240
O O14 0.115994 0.514168 0.524542
O O15 0.085474 0.711341 0.458531
O O16 0.002453 0.551579 0.314206
#
# Coordination Sequence:
#
# PCOD9269771 Si02
#       8
#     8   8   8   8   8   8   4   8
#     4   9  19  36  60  86 117 145 184 242 300 343
#     4  11  21  35  58  83 114 156 192 226 289 350
#     4   9  20  37  55  83 114 147 185 238 291 340
#     4  10  22  41  61  83 116 155 199 240 289 347
#     4  10  21  37  61  88 120 147 191 244 297 347
#     4  10  21  42  56  79 119 155 188 243 287 343
#     4  10  22  38  60  92 114 150 192 250 294 348
#     4  10  20  34  60  92 114 146 190 240 294 354
#
# _framework density 17.87237
#
# number of rings (size 3 to 8) (size 9 to 14) (size 15 to 20)
#    0.000    2.133    1.333    1.200    5.600    1.067 
#    4.800    2.667    0.000    0.000    0.000    0.000 
#    0.000    0.000    0.000    0.000    0.000    0.000 
#
# Total GULP energy -167467.903502 kJ/mol
# GULP energy per Si atom -5582.263450 kJ/mol
# Density = 1.783169 g / cm^3
# Si number density = 17.872370 Si / 1000 Ang^3
#
#
#
# Elastic Constant Matrix: (Units=GPa)
#
#
# Indices 1 2 3 4 5 6 
#
# 1 124.8037 71.5238 52.7213 0.0000 -11.5925 0.0000
# 2 71.5238 90.7526 45.8295 0.0000 -7.8744 0.0000
# 3 52.7213 45.8295 72.0558 0.0000 -7.5664 0.0000
# 4 0.0000 0.0000 0.0000 9.9257 0.0000 -7.0204
# 5 -11.5925 -7.8744 -7.5664 0.0000 18.9026 0.0000
# 6 0.0000 0.0000 0.0000 -7.0204 0.0000 16.3562
#
#
#
# Elastic Compliance Matrix: (Units=1/GPa)
#
#
# Indices 1 2 3 4 5 6 
#
# 1 0.016173 -0.009787 -0.005214 0.000000 0.003754 0.000000
# 2 -0.009787 0.022293 -0.006966 0.000000 0.000496 0.000000
# 3 -0.005214 -0.006966 0.022426 0.000000 0.002877 0.000000
# 4 0.000000 0.000000 0.000000 0.144668 0.000000 0.062094
# 5 0.003754 0.000496 0.002877 0.000000 0.056564 0.000000
# 6 0.000000 0.000000 0.000000 0.062094 0.000000 0.087791
#
#
# Mechanical properties :
#
#
# Convention : Reuss Voigt Hill
#
# Bulk Modulus (GPa) = 58.97148 69.75127 64.36137
# Shear Modulus (GPa) = 12.51560 16.87271 14.69416
#
# Velocity S-wave (km/s) = 2.64914 3.07590 2.87046
# Velocity P-wave (km/s) = 6.51343 7.19215 6.86119
#
# Compressibility (1/GPa) = 0.01695735
#
# Stress axis : x y z
#
# Youngs Moduli (GPa) = 61.83165 44.85633 44.59158
#
# Poissons Ratio (x) = 0.43903 0.23250
# Poissons Ratio (y) = 0.60517 0.31062
# Poissons Ratio (z) = 0.32239 0.31247
#
# Static dielectric constant tensor:
#      x y z
#    x 1.605760 0.000000 0.016510 
#    y 0.000000 1.578190 0.000000 
#    z 0.016510 0.000000 1.610140 
# 
# From -- ./inp_files/215189.got.cif
#   From: 2010.05.17/outbox.cif.g08.bks.cpg/sg15_108_cif.got.tgz:215189.got - 2010.06.03 18:47:42.
