data_PCOD9269583
_publ_section_title
;
Structure prediction by ZEFSAII (Michael W. Deem and Ramdas Pophale) SiO2 
 PCOD9269583
Probable space group: C 2/C
;
_chemical_formula_sum "Si O2"
_cell_formula_units_Z 36
_cell_length_a 28.107258
_cell_length_b 9.423993
_cell_length_c 17.317797
_cell_angle_alpha 90.000000
_cell_angle_beta 18.768288
_cell_angle_gamma 90.000000
_cell_volume 1475.888082
_symmetry_space_group_name_H-M "C 2/C"
_symmetry_group_IT_number 15
_symmetry_cell_setting 'monoclinic'
loop_
_space_group_symop_operation_xyz
x,y,z
-x,y,1/2-z
-x,-y,-z
x,-y,1/2+z
1/2+x,1/2+y,z
1/2-x,1/2+y,1/2-z
1/2-x,1/2-y,-z
1/2+x,1/2-y,1/2+z
loop_
_atom_site_type_symbol
_atom_site_label
_atom_site_fract_x
_atom_site_fract_y
_atom_site_fract_z
Si Si1 0.500000 0.896428 0.250000
Si Si2 0.581799 0.535549 0.999875
Si Si3 0.197952 0.134362 0.968631
Si Si4 0.906799 0.822749 0.176496
Si Si5 0.626554 0.968753 0.692137
O O1 0.642301 0.793279 0.037836
O O2 0.498292 0.991263 0.176833
O O3 0.705764 0.551754 0.875133
O O4 0.436284 0.567854 0.274595
O O5 0.546354 0.392594 0.007102
O O6 0.593342 0.649616 0.914079
O O7 0.332380 0.105178 0.819132
O O8 0.763568 0.907298 0.429985
O O9 0.902552 0.660189 0.205965
#
# Coordination Sequence:
#
# PCOD9269583 Si02
#       5
#     4   8   8   8   8
#     4  10  20  36  58  76 114 156 196 242 288 338
#     4   8  16  35  58  81 116 152 182 233 297 345
#     4   9  19  37  57  76 114 160 189 233 293 345
#     4   9  18  33  57  88 116 145 190 241 292 344
#     4  10  20  34  58  83 114 150 196 238 292 349
#
# _framework density 24.392092999999999
#
# number of rings (size 3 to 8) (size 9 to 14) (size 15 to 20)
#    0.000    3.111    0.000    0.667    0.000    5.333 
#    8.000    4.444    9.778    0.000    0.000    0.000 
#    0.000    0.000    0.000    0.000    0.000    0.000 
#
# Total GULP energy -100569.251974 kJ/mol
# GULP energy per Si atom -5587.180665 kJ/mol
# Density = 2.433658 g / cm^3
# Si number density = 24.392093 Si / 1000 Ang^3
#
#
#
# Elastic Constant Matrix: (Units=GPa)
#
#
# Indices 1 2 3 4 5 6 
#
# 1 216.8758 47.2273 40.7960 0.0000 23.7774 0.0000
# 2 47.2273 79.1457 18.6218 0.0000 -5.0815 0.0000
# 3 40.7960 18.6218 63.2899 0.0000 18.4527 0.0000
# 4 0.0000 0.0000 0.0000 6.8339 0.0000 5.1547
# 5 23.7774 -5.0815 18.4527 0.0000 20.9659 0.0000
# 6 0.0000 0.0000 0.0000 5.1547 0.0000 24.7823
#
#
#
# Elastic Compliance Matrix: (Units=1/GPa)
#
#
# Indices 1 2 3 4 5 6 
#
# 1 0.006517 -0.004232 -0.000675 0.000000 -0.007823 0.000000
# 2 -0.004232 0.017769 -0.006934 0.000000 0.015210 0.000000
# 3 -0.000675 -0.006934 0.024943 0.000000 -0.022869 0.000000
# 4 0.000000 0.000000 0.000000 0.173558 0.000000 -0.036100
# 5 -0.007823 0.015210 -0.022869 0.000000 0.080382 0.000000
# 6 0.000000 0.000000 0.000000 -0.036100 0.000000 0.047860
#
#
# Mechanical properties :
#
#
# Convention : Reuss Voigt Hill
#
# Bulk Modulus (GPa) = 39.14540 63.62239 51.38390
# Shear Modulus (GPa) = 13.04708 27.36084 20.20396
#
# Velocity S-wave (km/s) = 2.31528 3.35283 2.88114
# Velocity P-wave (km/s) = 4.81981 6.41314 5.67270
#
# Compressibility (1/GPa) = 0.02554579
#
# Stress axis : x y z
#
# Youngs Moduli (GPa) = 153.43981 56.27918 40.09126
#
# Poissons Ratio (x) = 0.23820 0.02705
# Poissons Ratio (y) = 0.64942 0.27801
# Poissons Ratio (z) = 0.10353 0.39026
#
# Static dielectric constant tensor:
#      x y z
#    x 1.921930 0.000000 -0.058130 
#    y 0.000000 1.926830 0.000000 
#    z -0.058130 0.000000 2.057690 
# 
# From -- ./inp_files/221591.got.cif
#   From: 2010.05.17/outbox.cif.g08.bks.cpg/sg15_111_cif.got.tgz:221591.got - 2010.06.03 18:47:42.
