data_PCOD9269724
_publ_section_title
;
Structure prediction by ZEFSAII (Michael W. Deem and Ramdas Pophale) SiO2 
 PCOD9269724
Probable space group: C 2/C
;
_chemical_formula_sum "Si O2"
_cell_formula_units_Z 44
_cell_length_a 4.962183
_cell_length_b 12.630567
_cell_length_c 27.089362
_cell_angle_alpha 90.000000
_cell_angle_beta 91.667272
_cell_angle_gamma 90.000000
_cell_volume 1697.111982
_symmetry_space_group_name_H-M "C 2/C"
_symmetry_group_IT_number 15
_symmetry_cell_setting 'monoclinic'
loop_
_space_group_symop_operation_xyz
x,y,z
-x,y,1/2-z
-x,-y,-z
x,-y,1/2+z
1/2+x,1/2+y,z
1/2-x,1/2+y,1/2-z
1/2-x,1/2-y,-z
1/2+x,1/2-y,1/2+z
loop_
_atom_site_type_symbol
_atom_site_label
_atom_site_fract_x
_atom_site_fract_y
_atom_site_fract_z
Si Si1 0.650242 0.926191 0.103935
Si Si2 0.500000 0.092596 0.250000
Si Si3 0.502421 0.413255 0.944060
Si Si4 0.109395 0.920581 0.298965
Si Si5 0.772290 0.588413 0.151804
Si Si6 0.963854 0.652736 0.997012
O O1 0.730808 0.867666 0.154949
O O2 0.903097 0.971904 0.074760
O O3 0.514595 0.034590 0.122856
O O4 0.491431 0.865505 0.060779
O O5 0.364991 0.148546 0.201865
O O6 0.289578 0.013658 0.275504
O O7 0.405610 0.359033 0.891972
O O8 0.238308 0.429870 0.976608
O O9 0.752787 0.353781 0.972085
O O10 0.000000 0.860877 0.250000
O O11 0.877503 0.985401 0.326068
O O12 0.750000 0.750000 0.000000
#
# Coordination Sequence:
#
# PCOD9269724 Si02
#       6
#     8   4   8   8   8   8
#     4  10  20  34  60  83 111 149 193 238 288 338
#     4   8  14  28  46  86 122 134 172 236 298 336
#     4  11  22  39  58  81 112 149 196 235 283 341
#     4   8  15  27  49  82 115 136 178 233 287 336
#     4   9  17  30  55  86 113 145 182 241 292 338
#     4  12  26  39  54  81 118 158 195 240 286 339
#
# _framework density 25.926400999999998
#
# number of rings (size 3 to 8) (size 9 to 14) (size 15 to 20)
#    0.000    2.182    1.818    1.636    5.091    0.000 
#    0.000    0.000    0.000    0.000    2.364    0.000 
#    0.000    0.000    0.000    0.000    0.000    0.000 
#
# Total GULP energy -122586.696297 kJ/mol
# GULP energy per Si atom -5572.122559 kJ/mol
# Density = 2.586739 g / cm^3
# Si number density = 25.926401 Si / 1000 Ang^3
#
#
#
# Elastic Constant Matrix: (Units=GPa)
#
#
# Indices 1 2 3 4 5 6 
#
# 1 141.3650 13.0130 78.8206 0.0000 19.8719 0.0000
# 2 13.0130 56.2027 45.9394 0.0000 27.6696 0.0000
# 3 78.8206 45.9394 325.4690 0.0000 91.5928 0.0000
# 4 0.0000 0.0000 0.0000 32.0015 0.0000 16.5771
# 5 19.8719 27.6696 91.5928 0.0000 80.3039 0.0000
# 6 0.0000 0.0000 0.0000 16.5771 0.0000 8.8474
#
#
#
# Elastic Compliance Matrix: (Units=1/GPa)
#
#
# Indices 1 2 3 4 5 6 
#
# 1 0.008194 -0.000450 -0.002053 0.000000 0.000469 0.000000
# 2 -0.000450 0.021891 -0.001310 0.000000 -0.005937 0.000000
# 3 -0.002053 -0.001310 0.005132 0.000000 -0.004894 0.000000
# 4 0.000000 0.000000 0.000000 1.062398 0.000000 -1.990588
# 5 0.000469 -0.005937 -0.004894 0.000000 0.019964 0.000000
# 6 0.000000 0.000000 0.000000 -1.990588 0.000000 3.842744
#
#
# Mechanical properties :
#
#
# Convention : Reuss Voigt Hill
#
# Bulk Modulus (GPa) = 36.24417 88.73142 62.48780
# Shear Modulus (GPa) = 1.00459 49.91480 25.45969
#
# Velocity S-wave (km/s) = 0.62315 4.39253 3.13709
# Velocity P-wave (km/s) = 3.81153 7.74754 6.10541
#
# Compressibility (1/GPa) = 0.02759065
#
# Stress axis : x y z
#
# Youngs Moduli (GPa) = 122.04080 45.68154 194.86633
#
# Poissons Ratio (x) = 0.02056 0.40002
# Poissons Ratio (y) = 0.05493 0.25528
# Poissons Ratio (z) = 0.25052 0.05984
#
# Static dielectric constant tensor:
#      x y z
#    x 2.370760 0.000000 -0.100330 
#    y 0.000000 2.168340 0.000000 
#    z -0.100330 0.000000 2.425120 
# 
# From -- ./inp_files/260549.got.cif
#   From: 2010.05.17/outbox.cif.g08.bks.cpg/sg15_131_cif.got.tgz:260549.got - 2010.06.03 18:47:42.
