data_PCOD9269522
_publ_section_title
;
Structure prediction by ZEFSAII (Michael W. Deem and Ramdas Pophale) SiO2 
 PCOD9269522
Probable space group: C 2/C
;
_chemical_formula_sum "Si O2"
_cell_formula_units_Z 40
_cell_length_a 28.914116
_cell_length_b 8.034187
_cell_length_c 10.977471
_cell_angle_alpha 90.000000
_cell_angle_beta 142.362932
_cell_angle_gamma 90.000000
_cell_volume 1557.227019
_symmetry_space_group_name_H-M "C 2/C"
_symmetry_group_IT_number 15
_symmetry_cell_setting 'monoclinic'
loop_
_space_group_symop_operation_xyz
x,y,z
-x,y,1/2-z
-x,-y,-z
x,-y,1/2+z
1/2+x,1/2+y,z
1/2-x,1/2+y,1/2-z
1/2-x,1/2-y,-z
1/2+x,1/2-y,1/2+z
loop_
_atom_site_type_symbol
_atom_site_label
_atom_site_fract_x
_atom_site_fract_y
_atom_site_fract_z
Si Si1 0.746846 0.548284 0.486240
Si Si2 0.109896 0.850839 0.077821
Si Si3 0.221462 0.387440 0.693987
Si Si4 0.604761 0.697366 0.984277
Si Si5 0.004024 0.200216 0.546338
O O1 0.750000 0.750000 0.500000
O O2 0.668518 0.443209 0.296407
O O3 0.793409 0.510679 0.460070
O O4 0.777583 0.482461 0.676855
O O5 0.159741 0.751767 0.085677
O O6 0.046716 0.741177 0.013209
O O7 0.078895 0.004935 0.938459
O O8 0.305953 0.316181 0.849226
O O9 0.560630 0.754693 0.773495
O O10 0.574979 0.757780 0.055694
O O11 0.000000 0.000000 0.500000
#
# Coordination Sequence:
#
# PCOD9269522 Si02
#       5
#     8   8   8   8   8
#     4  11  22  36  54  85 123 157 191 240 296 358
#     4  10  20  34  57  86 118 154 194 248 299 351
#     4  11  22  37  59  89 124 155 198 246 303 354
#     4   9  18  32  51  86 118 150 191 250 295 350
#     4   9  17  31  53  81 117 149 200 246 294 344
#
# _framework density 25.686686000000002
#
# number of rings (size 3 to 8) (size 9 to 14) (size 15 to 20)
#    0.000    2.000    2.000    3.000    0.000    0.000 
#    0.000    0.000    0.000    0.000    0.000   67.200 
#    0.000    0.000    0.000    0.000    0.000    0.000 
#
# Total GULP energy -111419.653484 kJ/mol
# GULP energy per Si atom -5570.982674 kJ/mol
# Density = 2.562822 g / cm^3
# Si number density = 25.686686 Si / 1000 Ang^3
#
#
#
# Elastic Constant Matrix: (Units=GPa)
#
#
# Indices 1 2 3 4 5 6 
#
# 1 208.9872 16.9076 27.7944 0.0000 5.9022 0.0000
# 2 16.9076 31.3419 12.7678 0.0000 -0.5380 0.0000
# 3 27.7944 12.7678 52.1364 0.0000 -16.4975 0.0000
# 4 0.0000 0.0000 0.0000 18.2979 0.0000 -8.7376
# 5 5.9022 -0.5380 -16.4975 0.0000 43.9746 0.0000
# 6 0.0000 0.0000 0.0000 -8.7376 0.0000 35.5250
#
#
#
# Elastic Compliance Matrix: (Units=1/GPa)
#
#
# Indices 1 2 3 4 5 6 
#
# 1 0.005381 -0.001692 -0.003052 0.000000 -0.001888 0.000000
# 2 -0.001692 0.036376 -0.008843 0.000000 -0.002645 0.000000
# 3 -0.003052 -0.008843 0.026176 0.000000 0.010121 0.000000
# 4 0.000000 0.000000 0.000000 0.061924 0.000000 0.015231
# 5 -0.001888 -0.002645 0.010121 0.000000 0.026759 0.000000
# 6 0.000000 0.000000 0.000000 0.015231 0.000000 0.031895
#
#
# Mechanical properties :
#
#
# Convention : Reuss Voigt Hill
#
# Bulk Modulus (GPa) = 24.53454 45.26722 34.90088
# Shear Modulus (GPa) = 21.80826 35.22587 28.51706
#
# Velocity S-wave (km/s) = 2.91694 3.70721 3.33556
# Velocity P-wave (km/s) = 4.57350 5.99881 5.33398
#
# Compressibility (1/GPa) = 0.04075887
#
# Stress axis : x y z
#
# Youngs Moduli (GPa) = 185.83721 27.49060 38.20333
#
# Poissons Ratio (x) = 0.04652 0.11658
# Poissons Ratio (y) = 0.31445 0.33784
# Poissons Ratio (z) = 0.56711 0.24311
#
# Static dielectric constant tensor:
#      x y z
#    x 2.140770 0.000000 0.001180 
#    y 0.000000 2.137740 0.000000 
#    z 0.001180 0.000000 2.088510 
# 
# From -- ./inp_files/125360.got.cif
#   From: 2010.05.17/outbox.cif.g08.bks.cpg/sg15_63_cif.got.tgz:125360.got - 2010.06.03 18:47:42.
