data_PCOD9269194
_publ_section_title
;
Structure prediction by ZEFSAII (Michael W. Deem and Ramdas Pophale) SiO2 
 PCOD9269194
Probable space group: C 2/C
;
_chemical_formula_sum "Si O2"
_cell_formula_units_Z 48
_cell_length_a 21.006756
_cell_length_b 22.368762
_cell_length_c 5.035244
_cell_angle_alpha 90.000000
_cell_angle_beta 91.591851
_cell_angle_gamma 90.000000
_cell_volume 2365.123501
_symmetry_space_group_name_H-M "C 2/C"
_symmetry_group_IT_number 15
_symmetry_cell_setting 'monoclinic'
loop_
_space_group_symop_operation_xyz
x,y,z
-x,y,1/2-z
-x,-y,-z
x,-y,1/2+z
1/2+x,1/2+y,z
1/2-x,1/2+y,1/2-z
1/2-x,1/2-y,-z
1/2+x,1/2-y,1/2+z
loop_
_atom_site_type_symbol
_atom_site_label
_atom_site_fract_x
_atom_site_fract_y
_atom_site_fract_z
Si Si1 0.627780 0.740489 0.566169
Si Si2 0.500000 0.456523 0.250000
Si Si3 0.186837 0.663662 0.433680
Si Si4 0.000000 0.239373 0.750000
Si Si5 0.563474 0.833396 0.159694
Si Si6 0.229139 0.144673 0.546943
Si Si7 0.640296 0.541694 0.760815
O O1 0.664771 0.772140 0.813899
O O2 0.561788 0.707726 0.638164
O O3 0.601908 0.795972 0.387743
O O4 0.677407 0.694215 0.451002
O O5 0.500000 0.500000 0.500000
O O6 0.430113 0.428065 0.253958
O O7 0.119176 0.633476 0.505767
O O8 0.228738 0.668604 0.702691
O O9 0.226196 0.632732 0.201650
O O10 0.968399 0.282669 0.528635
O O11 0.500000 0.867518 0.250000
O O12 0.191832 0.088890 0.667207
O O13 0.645692 0.486188 0.555092
#
# Coordination Sequence:
#
# PCOD9269194 Si02
#       7
#     8   4   8   4   8   8   8
#     4  10  20  34  53  77 117 150 186 221 265 318
#     4   8  16  33  62  76  96 136 182 234 284 305
#     4  11  22  36  51  83 114 146 185 217 268 332
#     4   8  18  31  52  74 108 156 186 222 260 303
#     4   9  18  35  54  75 112 154 180 221 260 308
#     4  12  24  33  57  81 110 149 185 222 281 332
#     4  10  21  41  58  79 107 141 188 243 279 317
#
# _framework density 20.294924000000002
#
# number of rings (size 3 to 8) (size 9 to 14) (size 15 to 20)
#    0.000    2.000    1.667    2.000    4.667    0.667 
#    0.000    0.000   18.333    0.000    0.000    0.000 
#    0.000   13.333    0.000    0.000    0.000    0.000 
#
# Total GULP energy -133629.267504 kJ/mol
# GULP energy per Si atom -5567.886146 kJ/mol
# Density = 2.024873 g / cm^3
# Si number density = 20.294924 Si / 1000 Ang^3
#
#
#
# Elastic Constant Matrix: (Units=GPa)
#
#
# Indices 1 2 3 4 5 6 
#
# 1 182.4323 27.7992 41.0517 0.0000 -31.3995 0.0000
# 2 27.7992 23.0700 -5.7500 0.0000 -3.4914 0.0000
# 3 41.0517 -5.7500 97.6032 0.0000 -5.5595 0.0000
# 4 0.0000 0.0000 0.0000 7.8061 0.0000 -0.8070
# 5 -31.3995 -3.4914 -5.5595 0.0000 47.1593 0.0000
# 6 0.0000 0.0000 0.0000 -0.8070 0.0000 -12.1142
#
#
#
# Elastic Compliance Matrix: (Units=1/GPa)
#
#
# Indices 1 2 3 4 5 6 
#
# 1 0.008885 -0.011037 -0.004125 0.000000 0.004613 0.000000
# 2 -0.011037 0.058312 0.007958 0.000000 -0.002093 0.000000
# 3 -0.004125 0.007958 0.012410 0.000000 -0.000694 0.000000
# 4 0.000000 0.000000 0.000000 0.127229 0.000000 -0.008476
# 5 0.004613 -0.002093 -0.000694 0.000000 0.024039 0.000000
# 6 0.000000 0.000000 0.000000 -0.008476 0.000000 -0.081983
#
#
# Mechanical properties :
#
#
# Convention : Reuss Voigt Hill
#
# Bulk Modulus (GPa) = 15.33722 47.70081 31.51901
# Shear Modulus (GPa) = 27.02233 24.57055 25.79644
#
# Velocity S-wave (km/s) = 3.65291 3.48325 3.56909
# Velocity P-wave (km/s) = 5.03639 6.30335 5.70515
#
# Compressibility (1/GPa) = 0.06520088
#
# Stress axis : x y z
#
# Youngs Moduli (GPa) = 112.54519 17.14902 80.58237
#
# Poissons Ratio (x) = 0.18927 0.33237
# Poissons Ratio (y) = 1.24213 -0.64128
# Poissons Ratio (z) = 0.46420 -0.13647
#
# Static dielectric constant tensor:
#      x y z
#    x 1.860970 0.000000 -0.048250 
#    y 0.000000 1.675150 0.000000 
#    z -0.048250 0.000000 1.808480 
# 
# From -- ./inp_files/13221.got.cif
#   From: 2010.05.17/outbox.cif.g08.bks.cpg/sg15_7_cif.got.tgz:13221.got - 2010.06.03 18:47:42.
