data_PCOD9269574
_publ_section_title
;
Structure prediction by ZEFSAII (Michael W. Deem and Ramdas Pophale) SiO2 
 PCOD9269574
Probable space group: C 2/C
;
_chemical_formula_sum "Si O2"
_cell_formula_units_Z 60
_cell_length_a 23.532026
_cell_length_b 24.139748
_cell_length_c 8.941751
_cell_angle_alpha 90.000000
_cell_angle_beta 139.797884
_cell_angle_gamma 90.000000
_cell_volume 3278.697732
_symmetry_space_group_name_H-M "C 2/C"
_symmetry_group_IT_number 15
_symmetry_cell_setting 'monoclinic'
loop_
_space_group_symop_operation_xyz
x,y,z
-x,y,1/2-z
-x,-y,-z
x,-y,1/2+z
1/2+x,1/2+y,z
1/2-x,1/2+y,1/2-z
1/2-x,1/2-y,-z
1/2+x,1/2-y,1/2+z
loop_
_atom_site_type_symbol
_atom_site_label
_atom_site_fract_x
_atom_site_fract_y
_atom_site_fract_z
Si Si1 0.244387 0.420232 0.191957
Si Si2 0.648693 0.184048 0.376425
Si Si3 0.295698 0.509036 0.062516
Si Si4 0.898140 0.159485 0.081524
Si Si5 0.294270 0.232133 0.301190
Si Si6 0.000000 0.737269 0.250000
Si Si7 0.395494 0.567083 0.526720
Si Si8 0.147769 0.180940 0.170861
O O1 0.242438 0.468359 0.064570
O O2 0.240171 0.449439 0.345757
O O3 0.337993 0.387036 0.380898
O O4 0.175634 0.372752 0.010598
O O5 0.668806 0.186831 0.240335
O O6 0.713671 0.232393 0.568579
O O7 0.551679 0.201442 0.231086
O O8 0.361714 0.542256 0.302326
O O9 0.351667 0.470451 0.064627
O O10 0.874082 0.158958 0.208441
O O11 0.000000 0.150364 0.250000
O O12 0.868108 0.221309 0.973914
O O13 0.246289 0.204966 0.347889
O O14 0.072632 0.774936 0.478165
O O15 0.500000 0.566182 0.750000
O O16 0.362618 0.630253 0.465666
#
# Coordination Sequence:
#
# PCOD9269574 Si02
#       8
#     8   8   8   8   8   4   8   8
#     4  10  21  37  56  77 109 143 190 222 279 318
#     4   9  18  35  57  81 104 144 176 231 269 339
#     4  10  22  36  51  76 105 147 189 233 265 322
#     4  11  22  33  51  77 113 148 182 225 270 325
#     4   9  19  34  52  76 110 142 188 216 272 325
#     4  10  20  34  58  82 112 136 182 222 288 326
#     4  11  21  33  51  74 110 144 190 226 274 317
#     4  11  20  33  52  79 108 151 179 227 268 330
#
# _framework density 18.299949000000002
#
# number of rings (size 3 to 8) (size 9 to 14) (size 15 to 20)
#    0.000    1.867    2.000    2.400    1.867    4.267 
#    0.000    0.000    0.000    0.800    0.000    0.000 
#    0.000    0.000    0.000    0.000    0.000    0.000 
#
# Total GULP energy -167304.081002 kJ/mol
# GULP energy per Si atom -5576.802700 kJ/mol
# Density = 1.825830 g / cm^3
# Si number density = 18.299949 Si / 1000 Ang^3
#
#
#
# Elastic Constant Matrix: (Units=GPa)
#
#
# Indices 1 2 3 4 5 6 
#
# 1 76.5963 40.9970 23.6616 0.0000 -8.2770 0.0000
# 2 40.9970 93.6124 37.2009 0.0000 2.7855 0.0000
# 3 23.6616 37.2009 38.9495 0.0000 -5.1472 0.0000
# 4 0.0000 0.0000 0.0000 34.3851 0.0000 -8.8730
# 5 -8.2770 2.7855 -5.1472 0.0000 23.9023 0.0000
# 6 0.0000 0.0000 0.0000 -8.8730 0.0000 6.3635
#
#
#
# Elastic Compliance Matrix: (Units=1/GPa)
#
#
# Indices 1 2 3 4 5 6 
#
# 1 0.018587 -0.006730 -0.004024 0.000000 0.006354 0.000000
# 2 -0.006730 0.020446 -0.016533 0.000000 -0.008274 0.000000
# 3 -0.004024 -0.016533 0.045268 0.000000 0.010282 0.000000
# 4 0.000000 0.000000 0.000000 0.045427 0.000000 0.063342
# 5 0.006354 -0.008274 0.010282 0.000000 0.047216 0.000000
# 6 0.000000 0.000000 0.000000 0.063342 0.000000 0.245465
#
#
# Mechanical properties :
#
#
# Convention : Reuss Voigt Hill
#
# Bulk Modulus (GPa) = 33.63888 45.87524 39.75706
# Shear Modulus (GPa) = 10.26919 20.08344 15.17631
#
# Velocity S-wave (km/s) = 2.37145 3.31639 2.88290
# Velocity P-wave (km/s) = 5.09119 6.30773 5.73183
#
# Compressibility (1/GPa) = 0.02972751
#
# Stress axis : x y z
#
# Youngs Moduli (GPa) = 53.79984 48.90902 22.09054
#
# Poissons Ratio (x) = 0.32917 0.08889
# Poissons Ratio (y) = 0.36209 0.36522
# Poissons Ratio (z) = 0.21648 0.80861
#
# Static dielectric constant tensor:
#      x y z
#    x 1.642210 0.000000 -0.049040 
#    y 0.000000 1.650380 0.000000 
#    z -0.049040 0.000000 1.629470 
# 
# From -- ./inp_files/42193.got.cif
#   From: 2010.05.17/outbox.cif.g08.bks.cpg/sg15_22_cif.got.tgz:42193.got - 2010.06.03 18:47:42.
