data_PCOD9269951
_publ_section_title
;
Structure prediction by ZEFSAII (Michael W. Deem and Ramdas Pophale) SiO2 
 PCOD9269951
Probable space group: C 2/C
;
_chemical_formula_sum "Si O2"
_cell_formula_units_Z 56
_cell_length_a 21.779359
_cell_length_b 22.273206
_cell_length_c 8.439809
_cell_angle_alpha 90.000000
_cell_angle_beta 129.359920
_cell_angle_gamma 90.000000
_cell_volume 3165.480151
_symmetry_space_group_name_H-M "C 2/C"
_symmetry_group_IT_number 15
_symmetry_cell_setting 'monoclinic'
loop_
_space_group_symop_operation_xyz
x,y,z
-x,y,1/2-z
-x,-y,-z
x,-y,1/2+z
1/2+x,1/2+y,z
1/2-x,1/2+y,1/2-z
1/2-x,1/2-y,-z
1/2+x,1/2-y,1/2+z
loop_
_atom_site_type_symbol
_atom_site_label
_atom_site_fract_x
_atom_site_fract_y
_atom_site_fract_z
Si Si1 0.819288 0.046933 0.615248
Si Si2 0.682065 0.298261 0.929437
Si Si3 0.621600 0.747791 0.867066
Si Si4 0.014746 0.911622 0.961047
Si Si5 0.762241 0.836208 0.137202
Si Si6 0.841197 0.924100 0.785615
Si Si7 0.973651 0.776324 0.967247
O O1 0.759639 0.093460 0.599591
O O2 0.821209 0.063603 0.434309
O O3 0.803279 0.977024 0.618273
O O4 0.904323 0.062459 0.836649
O O5 0.679869 0.357585 0.813057
O O6 0.595464 0.267052 0.773975
O O7 0.750000 0.250000 0.000000
O O8 0.697984 0.322881 0.129500
O O9 0.680733 0.696694 0.897629
O O10 0.551059 0.763294 0.628413
O O11 0.677450 0.804000 0.993872
O O12 0.577183 0.724730 0.952143
O O13 0.000000 0.923107 0.750000
O O14 0.936114 0.932689 0.922849
O O15 0.011972 0.840474 0.988957
#
# Coordination Sequence:
#
# PCOD9269951 Si02
#       7
#     8   8   8   8   8   8   8
#     4  12  22  39  55  78 114 149 192 234 277 345
#     4  11  22  36  56  83 117 146 190 236 281 330
#     4  10  21  33  54  79 111 147 197 225 286 332
#     4  11  21  33  52  80 112 154 192 228 270 334
#     4  11  21  35  56  81 112 149 190 239 282 329
#     4  11  25  36  55  79 110 154 191 229 282 336
#     4  10  20  35  51  80 113 155 186 231 276 341
#
# _framework density 17.690840000000001
#
# number of rings (size 3 to 8) (size 9 to 14) (size 15 to 20)
#    0.000    1.143    2.857    6.000    6.000    0.000 
#    0.000    0.000    0.000    0.000    0.000    1.000 
#    0.000    0.000    0.000    0.000    0.000    0.000 
#
# Total GULP energy -156285.419205 kJ/mol
# GULP energy per Si atom -5581.622114 kJ/mol
# Density = 1.765057 g / cm^3
# Si number density = 17.690840 Si / 1000 Ang^3
#
#
#
# Elastic Constant Matrix: (Units=GPa)
#
#
# Indices 1 2 3 4 5 6 
#
# 1 42.0477 13.4427 26.0878 0.0000 -7.2098 0.0000
# 2 13.4427 77.7943 34.9779 0.0000 6.6611 0.0000
# 3 26.0878 34.9779 104.8000 0.0000 5.7337 0.0000
# 4 0.0000 0.0000 0.0000 22.9211 0.0000 -3.4858
# 5 -7.2098 6.6611 5.7337 0.0000 33.2114 0.0000
# 6 0.0000 0.0000 0.0000 -3.4858 0.0000 11.4433
#
#
#
# Elastic Compliance Matrix: (Units=1/GPa)
#
#
# Indices 1 2 3 4 5 6 
#
# 1 0.030544 -0.002792 -0.007132 0.000000 0.008422 0.000000
# 2 -0.002792 0.015538 -0.004328 0.000000 -0.002975 0.000000
# 3 -0.007132 -0.004328 0.012921 0.000000 -0.002911 0.000000
# 4 0.000000 0.000000 0.000000 0.045747 0.000000 0.013935
# 5 0.008422 -0.002975 -0.002911 0.000000 0.033038 0.000000
# 6 0.000000 0.000000 0.000000 0.013935 0.000000 0.091632
#
#
# Mechanical properties :
#
#
# Convention : Reuss Voigt Hill
#
# Bulk Modulus (GPa) = 32.78883 41.51763 37.15323
# Shear Modulus (GPa) = 18.65036 23.52407 21.08722
#
# Velocity S-wave (km/s) = 3.25043 3.65050 3.45626
# Velocity P-wave (km/s) = 5.71503 6.42554 6.08068
#
# Compressibility (1/GPa) = 0.03049819
#
# Stress axis : x y z
#
# Youngs Moduli (GPa) = 32.73919 64.35995 77.39254
#
# Poissons Ratio (x) = 0.17972 0.55198
# Poissons Ratio (y) = 0.09142 0.33495
# Poissons Ratio (z) = 0.23350 0.27855
#
# Static dielectric constant tensor:
#      x y z
#    x 1.617520 0.000000 -0.024900 
#    y 0.000000 1.630960 0.000000 
#    z -0.024900 0.000000 1.653320 
# 
# From -- ./inp_files/57912.got.cif
#   From: 2010.05.17/outbox.cif.g08.bks.cpg/sg15_29_cif.got.tgz:57912.got - 2010.06.03 18:47:42.
