data_PCOD9269455
_publ_section_title
;
Structure prediction by ZEFSAII (Michael W. Deem and Ramdas Pophale) SiO2 
 PCOD9269455
Probable space group: C 2/C
;
_chemical_formula_sum "Si O2"
_cell_formula_units_Z 60
_cell_length_a 10.463478
_cell_length_b 20.565643
_cell_length_c 14.822595
_cell_angle_alpha 90.000000
_cell_angle_beta 74.758826
_cell_angle_gamma 90.000000
_cell_volume 3077.460042
_symmetry_space_group_name_H-M "C 2/C"
_symmetry_group_IT_number 15
_symmetry_cell_setting 'monoclinic'
loop_
_space_group_symop_operation_xyz
x,y,z
-x,y,1/2-z
-x,-y,-z
x,-y,1/2+z
1/2+x,1/2+y,z
1/2-x,1/2+y,1/2-z
1/2-x,1/2-y,-z
1/2+x,1/2-y,1/2+z
loop_
_atom_site_type_symbol
_atom_site_label
_atom_site_fract_x
_atom_site_fract_y
_atom_site_fract_z
Si Si1 0.313563 0.294466 0.862887
Si Si2 0.294840 0.715198 0.773132
Si Si3 0.227816 0.397622 0.027538
Si Si4 0.000000 0.104748 0.250000
Si Si5 0.952553 0.877277 0.134697
Si Si6 0.992757 0.685573 0.589842
Si Si7 0.575153 0.508230 0.081067
Si Si8 0.602341 0.751141 0.565363
O O1 0.215836 0.252683 0.819627
O O2 0.377451 0.346402 0.782258
O O3 0.420640 0.243850 0.882434
O O4 0.259995 0.336788 0.955438
O O5 0.379398 0.651908 0.734983
O O6 0.150459 0.692980 0.835704
O O7 0.370711 0.758697 0.833073
O O8 0.329008 0.394755 0.092149
O O9 0.077632 0.380883 0.084901
O O10 0.277893 0.462682 0.965839
O O11 0.004988 0.060425 0.160017
O O12 0.034375 0.819458 0.071424
O O13 0.050228 0.938051 0.128669
O O14 0.971739 0.699473 0.487105
O O15 0.500000 0.500000 0.000000
O O16 0.750000 0.750000 0.500000
#
# Coordination Sequence:
#
# PCOD9269455 Si02
#       8
#     8   8   8   4   8   8   8   8
#     4  11  18  33  56  85 117 152 198 248 303 344
#     4  11  22  31  55  90 120 158 192 252 306 368
#     4  10  20  34  59  83 112 156 196 250 295 359
#     4  10  20  34  56  86 118 150 198 248 294 352
#     4  11  20  37  55  82 119 152 204 242 302 360
#     4  11  19  36  55  88 124 153 194 252 310 364
#     4   9  22  36  54  84 115 155 197 246 296 350
#     4  10  23  35  52  82 122 157 189 243 317 362
#
# _framework density 19.496597999999999
#
# number of rings (size 3 to 8) (size 9 to 14) (size 15 to 20)
#    0.000    1.600    4.000    1.600    1.867    0.000 
#    0.000    0.000    0.000    3.200    3.467    0.000 
#    4.000    0.000    0.000    0.000    0.000    0.267 
#
# Total GULP energy -167128.841942 kJ/mol
# GULP energy per Si atom -5570.961398 kJ/mol
# Density = 1.945222 g / cm^3
# Si number density = 19.496598 Si / 1000 Ang^3
#
#
#
# Elastic Constant Matrix: (Units=GPa)
#
#
# Indices 1 2 3 4 5 6 
#
# 1 80.8021 37.7900 26.1166 0.0000 8.6683 0.0000
# 2 37.7900 83.2088 20.9380 0.0000 -7.6640 0.0000
# 3 26.1166 20.9380 82.9070 0.0000 4.3266 0.0000
# 4 0.0000 0.0000 0.0000 26.8372 0.0000 -3.8453
# 5 8.6683 -7.6640 4.3266 0.0000 34.3328 0.0000
# 6 0.0000 0.0000 0.0000 -3.8453 0.0000 28.8155
#
#
#
# Elastic Compliance Matrix: (Units=1/GPa)
#
#
# Indices 1 2 3 4 5 6 
#
# 1 0.017681 -0.007727 -0.003317 0.000000 -0.005771 0.000000
# 2 -0.007727 0.016591 -0.002065 0.000000 0.005915 0.000000
# 3 -0.003317 -0.002065 0.013699 0.000000 -0.001350 0.000000
# 4 0.000000 0.000000 0.000000 0.037988 0.000000 0.005069
# 5 -0.005771 0.005915 -0.001350 0.000000 0.032074 0.000000
# 6 0.000000 0.000000 0.000000 0.005069 0.000000 0.035380
#
#
# Mechanical properties :
#
#
# Convention : Reuss Voigt Hill
#
# Bulk Modulus (GPa) = 45.96959 46.28968 46.12963
# Shear Modulus (GPa) = 26.75493 28.80198 27.77846
#
# Velocity S-wave (km/s) = 3.70846 3.84771 3.77873
# Velocity P-wave (km/s) = 6.47814 6.59802 6.53836
#
# Compressibility (1/GPa) = 0.02175351
#
# Stress axis : x y z
#
# Youngs Moduli (GPa) = 56.55849 60.27197 73.00048
#
# Poissons Ratio (x) = 0.46570 0.24215
# Poissons Ratio (y) = 0.43701 0.15073
# Poissons Ratio (z) = 0.18761 0.12445
#
# Static dielectric constant tensor:
#      x y z
#    x 1.719640 0.000000 0.002760 
#    y 0.000000 1.694690 0.000000 
#    z 0.002760 0.000000 1.801600 
# 
# From -- ./inp_files/145617.got.cif
#   From: 2010.05.17/outbox.cif.g08.bks.cpg/sg15_73_cif.got.tgz:145617.got - 2010.06.03 18:47:42.
