data_PCOD9269283
_publ_section_title
;
Structure prediction by ZEFSAII (Michael W. Deem and Ramdas Pophale) SiO2 
 PCOD9269283
Probable space group: C 2/C
;
_chemical_formula_sum "Si O2"
_cell_formula_units_Z 48
_cell_length_a 15.072148
_cell_length_b 27.798430
_cell_length_c 12.499690
_cell_angle_alpha 90.000000
_cell_angle_beta 150.049725
_cell_angle_gamma 90.000000
_cell_volume 2614.635689
_symmetry_space_group_name_H-M "C 2/C"
_symmetry_group_IT_number 15
_symmetry_cell_setting 'monoclinic'
loop_
_space_group_symop_operation_xyz
x,y,z
-x,y,1/2-z
-x,-y,-z
x,-y,1/2+z
1/2+x,1/2+y,z
1/2-x,1/2+y,1/2-z
1/2-x,1/2-y,-z
1/2+x,1/2-y,1/2+z
loop_
_atom_site_type_symbol
_atom_site_label
_atom_site_fract_x
_atom_site_fract_y
_atom_site_fract_z
Si Si1 0.753657 0.467705 0.249109
Si Si2 0.929737 0.943378 0.056062
Si Si3 0.225606 0.131494 0.245406
Si Si4 0.440781 0.308735 0.567807
Si Si5 0.567831 0.949166 0.439439
Si Si6 0.972778 0.695324 0.847274
O O1 0.594059 0.442059 0.143719
O O2 0.859578 0.499400 0.446976
O O3 0.900397 0.436711 0.340876
O O4 0.673336 0.507200 0.082027
O O5 0.000000 0.943889 0.250000
O O6 0.807777 0.897390 0.899337
O O7 0.274646 0.088399 0.378238
O O8 0.390092 0.167655 0.433266
O O9 0.053190 0.160255 0.102532
O O10 0.500000 0.322599 0.750000
O O11 0.489468 0.252352 0.607252
O O12 0.230824 0.314367 0.337876
O O13 0.500000 0.949817 0.250000
O O14 0.000000 0.681436 0.750000
#
# Coordination Sequence:
#
# PCOD9269283 Si02
#       6
#     8   8   8   8   8   8
#     4   9  20  37  58  80 107 154 191 227 294 339
#     4  10  21  39  58  80 113 147 198 244 283 342
#     4  11  23  33  53  87 110 149 188 233 288 337
#     4  11  20  34  57  82 119 156 183 230 290 348
#     4  10  20  34  54  84 118 142 184 235 281 347
#     4  11  19  36  55  83 118 153 190 227 288 353
#
# _framework density 18.358198000000002
#
# number of rings (size 3 to 8) (size 9 to 14) (size 15 to 20)
#    0.000    1.667    3.333    2.500    2.333    0.000 
#    0.000    1.667    0.000    1.000    0.000    0.000 
#    0.000    0.000    0.000    0.000    0.000    0.000 
#
# Total GULP energy -133980.867634 kJ/mol
# GULP energy per Si atom -5582.536151 kJ/mol
# Density = 1.831641 g / cm^3
# Si number density = 18.358198 Si / 1000 Ang^3
#
#
#
# Elastic Constant Matrix: (Units=GPa)
#
#
# Indices 1 2 3 4 5 6 
#
# 1 49.4869 28.8976 52.7247 0.0000 11.1519 0.0000
# 2 28.8976 56.1693 31.5192 0.0000 -3.5153 0.0000
# 3 52.7247 31.5192 120.5269 0.0000 2.1116 0.0000
# 4 0.0000 0.0000 0.0000 22.0929 0.0000 15.1949
# 5 11.1519 -3.5153 2.1116 0.0000 51.1541 0.0000
# 6 0.0000 0.0000 0.0000 15.1949 0.0000 5.3055
#
#
#
# Elastic Compliance Matrix: (Units=1/GPa)
#
#
# Indices 1 2 3 4 5 6 
#
# 1 0.052495 -0.017560 -0.018163 0.000000 -0.011901 0.000000
# 2 -0.017560 0.026881 0.000553 0.000000 0.005653 0.000000
# 3 -0.018163 0.000553 0.016040 0.000000 0.003336 0.000000
# 4 0.000000 0.000000 0.000000 -0.046673 0.000000 0.133673
# 5 -0.011901 0.005653 0.003336 0.000000 0.022394 0.000000
# 6 0.000000 0.000000 0.000000 0.133673 0.000000 -0.194356
#
#
# Mechanical properties :
#
#
# Convention : Reuss Voigt Hill
#
# Bulk Modulus (GPa) = 39.88078 50.27400 45.07739
# Shear Modulus (GPa) = -112.30805 23.24660 -44.53073
#
# Velocity S-wave (km/s) = -7.82999 3.56234 -4.93044
# Velocity P-wave (km/s) = 7.74430 6.66070 2.79368
#
# Compressibility (1/GPa) = 0.02507473
#
# Stress axis : x y z
#
# Youngs Moduli (GPa) = 19.04941 37.20121 62.34596
#
# Poissons Ratio (x) = 0.65324 1.13242
# Poissons Ratio (y) = 0.33450 -0.03447
# Poissons Ratio (z) = 0.34600 -0.02057
#
# Static dielectric constant tensor:
#      x y z
#    x 1.623090 0.000000 0.036000 
#    y 0.000000 1.648910 0.000000 
#    z 0.036000 0.000000 1.655320 
# 
# From -- ./inp_files/101215.got.cif
#   From: 2010.05.17/outbox.cif.g08.bks.cpg/sg15_51_cif.got.tgz:101215.got - 2010.06.03 18:47:42.
