data_PCOD9269002
_publ_section_title
;
Structure prediction by ZEFSAII (Michael W. Deem and Ramdas Pophale) SiO2 
 PCOD9269002
Probable space group: C 2/C
;
_chemical_formula_sum "Si O2"
_cell_formula_units_Z 44
_cell_length_a 24.054581
_cell_length_b 5.005547
_cell_length_c 16.684465
_cell_angle_alpha 90.000000
_cell_angle_beta 122.529809
_cell_angle_gamma 90.000000
_cell_volume 1693.740177
_symmetry_space_group_name_H-M "C 2/C"
_symmetry_group_IT_number 15
_symmetry_cell_setting 'monoclinic'
loop_
_space_group_symop_operation_xyz
x,y,z
-x,y,1/2-z
-x,-y,-z
x,-y,1/2+z
1/2+x,1/2+y,z
1/2-x,1/2+y,1/2-z
1/2-x,1/2-y,-z
1/2+x,1/2-y,1/2+z
loop_
_atom_site_type_symbol
_atom_site_label
_atom_site_fract_x
_atom_site_fract_y
_atom_site_fract_z
Si Si1 0.953407 0.315513 0.914014
Si Si2 0.379811 0.795966 0.713381
Si Si3 0.316814 0.855404 0.512960
Si Si4 0.500000 0.584148 0.250000
Si Si5 0.571184 0.560924 0.449597
Si Si6 0.256712 0.504631 0.198187
O O1 0.910196 0.450575 0.812294
O O2 0.910362 0.182623 0.950301
O O3 0.006657 0.115053 0.918545
O O4 0.000000 0.500000 0.000000
O O5 0.351043 0.975473 0.619374
O O6 0.439213 0.609929 0.727536
O O7 0.323638 0.606000 0.708424
O O8 0.250000 0.750000 0.500000
O O9 0.366876 0.618314 0.527976
O O10 0.295220 0.011193 0.416588
O O11 0.536438 0.738088 0.351855
O O12 0.263054 0.782147 0.250482
#
# Coordination Sequence:
#
# PCOD9269002 Si02
#       6
#     8   8   8   4   8   8
#     4  10  20  33  59  88 119 160 210 264 327 380
#     4   9  19  39  62  90 127 167 219 271 328 399
#     4   9  19  39  65  88 125 171 213 272 333 401
#     4   8  16  36  62  80 124 162 208 266 326 386
#     4   9  18  35  58  83 120 157 208 264 320 390
#     4  11  24  42  70  97 131 174 223 274 333 396
#
# _framework density 25.978010999999999
#
# number of rings (size 3 to 8) (size 9 to 14) (size 15 to 20)
#    0.000    2.545    0.000    1.091    2.545    0.000 
#    0.000   13.636   20.000    0.000    0.000    0.000 
#    0.000    0.000    0.000    0.000    0.000    0.000 
#
# Total GULP energy -122788.897359 kJ/mol
# GULP energy per Si atom -5581.313516 kJ/mol
# Density = 2.591888 g / cm^3
# Si number density = 25.978011 Si / 1000 Ang^3
#
#
#
# Elastic Constant Matrix: (Units=GPa)
#
#
# Indices 1 2 3 4 5 6 
#
# 1 167.6544 5.3043 16.9794 0.0000 12.8606 0.0001
# 2 5.3043 23.5127 16.1233 0.0000 -5.6839 -0.0005
# 3 16.9794 16.1233 261.0282 0.0000 -17.3798 0.0001
# 4 0.0000 0.0000 0.0000 -34.7657 0.0000 18.3647
# 5 12.8606 -5.6839 -17.3798 0.0000 25.6872 0.0000
# 6 0.0001 -0.0005 0.0001 18.3647 0.0000 36.8233
#
#
#
# Elastic Compliance Matrix: (Units=1/GPa)
#
#
# Indices 1 2 3 4 5 6 
#
# 1 0.006395 -0.002034 -0.000559 0.000000 -0.004030 0.000000
# 2 -0.002034 0.046836 -0.002097 0.000000 0.009963 0.000001
# 3 -0.000559 -0.002097 0.004173 0.000000 0.002639 0.000000
# 4 0.000000 0.000000 0.000000 -0.022766 0.000000 0.011354
# 5 -0.004030 0.009963 0.002639 0.000000 0.044937 0.000000
# 6 0.000000 0.000001 0.000000 0.011354 0.000000 0.021494
#
#
# Mechanical properties :
#
#
# Convention : Reuss Voigt Hill
#
# Bulk Modulus (GPa) = 20.82311 58.77881 39.80096
# Shear Modulus (GPa) = 39.53979 33.13484 36.33732
#
# Velocity S-wave (km/s) = 3.90558 3.57528 3.74407
# Velocity P-wave (km/s) = 5.32645 6.30230 5.83481
#
# Compressibility (1/GPa) = 0.04802356
#
# Stress axis : x y z
#
# Youngs Moduli (GPa) = 156.38018 21.35132 239.65963
#
# Poissons Ratio (x) = 0.04342 0.13388
# Poissons Ratio (y) = 0.31802 0.50265
# Poissons Ratio (z) = 0.08736 0.04478
#
# Static dielectric constant tensor:
#      x y z
#    x 1.848190 0.000000 -0.034470 
#    y 0.000000 2.537360 0.000000 
#    z -0.034470 0.000000 2.235010 
# 
# From -- ./inp_files/217861.got.cif
#   From: 2010.05.17/outbox.cif.g08.bks.cpg/sg15_109_cif.got.tgz:217861.got - 2010.06.03 18:47:42.
