data_PCOD9269409
_publ_section_title
;
Structure prediction by ZEFSAII (Michael W. Deem and Ramdas Pophale) SiO2 
 PCOD9269409
Probable space group: C 2/C
;
_chemical_formula_sum "Si O2"
_cell_formula_units_Z 52
_cell_length_a 5.633809
_cell_length_b 28.173500
_cell_length_c 15.004665
_cell_angle_alpha 90.000000
_cell_angle_beta 122.921474
_cell_angle_gamma 90.000000
_cell_volume 1999.155549
_symmetry_space_group_name_H-M "C 2/C"
_symmetry_group_IT_number 15
_symmetry_cell_setting 'monoclinic'
loop_
_space_group_symop_operation_xyz
x,y,z
-x,y,1/2-z
-x,-y,-z
x,-y,1/2+z
1/2+x,1/2+y,z
1/2-x,1/2+y,1/2-z
1/2-x,1/2-y,-z
1/2+x,1/2-y,1/2+z
loop_
_atom_site_type_symbol
_atom_site_label
_atom_site_fract_x
_atom_site_fract_y
_atom_site_fract_z
Si Si1 0.383670 0.525496 0.576301
Si Si2 0.000000 0.778598 0.250000
Si Si3 0.284793 0.752962 0.868745
Si Si4 0.843259 0.148083 0.124060
Si Si5 0.150560 0.406290 0.872839
Si Si6 0.888814 0.555244 0.579852
Si Si7 0.448477 0.159162 0.639514
O O1 0.259457 0.554617 0.465619
O O2 0.713839 0.537701 0.631089
O O3 0.280108 0.472012 0.534534
O O4 0.214019 0.540797 0.629349
O O5 0.014306 0.744200 0.338292
O O6 0.738262 0.813686 0.178550
O O7 0.265992 0.798929 0.924885
O O8 0.000000 0.749057 0.750000
O O9 0.294578 0.699187 0.906234
O O10 0.572513 0.120568 0.109132
O O11 0.000000 0.156984 0.250000
O O12 0.091674 0.125688 0.113383
O O13 0.000000 0.423984 0.750000
O O14 0.886943 0.612154 0.572168
O O15 0.500000 0.140272 0.750000
#
# Coordination Sequence:
#
# PCOD9269409 Si02
#       7
#     8   4   8   8   8   8   8
#     4  10  22  40  58  80 105 145 189 218 271 340
#     4   8  16  28  50  80 116 138 180 226 272 320
#     4   8  16  27  47  79 111 140 179 218 264 327
#     4   9  18  29  52  80 109 143 174 220 271 314
#     4  10  20  34  56  82 109 139 182 231 268 307
#     4  10  22  39  61  78 107 147 181 222 276 334
#     4   9  19  32  54  86 111 138 181 229 273 316
#
# _framework density 26.010981999999998
#
# number of rings (size 3 to 8) (size 9 to 14) (size 15 to 20)
#    0.000    3.077    0.000    0.923   11.846    0.615 
#    0.000    0.000    5.077    5.538    0.000    0.000 
#    0.000    0.000    0.000    0.000    0.000    0.000 
#
# Total GULP energy -144862.020791 kJ/mol
# GULP energy per Si atom -5571.616184 kJ/mol
# Density = 2.595178 g / cm^3
# Si number density = 26.010982 Si / 1000 Ang^3
#
#
#
# Elastic Constant Matrix: (Units=GPa)
#
#
# Indices 1 2 3 4 5 6 
#
# 1 178.7823 49.4522 30.5068 0.0000 -32.2269 0.0000
# 2 49.4522 164.1034 5.9895 0.0000 -13.7063 0.0000
# 3 30.5068 5.9895 93.7165 0.0000 -19.2979 0.0000
# 4 0.0000 0.0000 0.0000 12.6843 0.0000 4.6158
# 5 -32.2269 -13.7063 -19.2979 0.0000 37.6060 0.0000
# 6 0.0000 0.0000 0.0000 4.6158 0.0000 4.3540
#
#
#
# Elastic Compliance Matrix: (Units=1/GPa)
#
#
# Indices 1 2 3 4 5 6 
#
# 1 0.007152 -0.001703 -0.001213 0.000000 0.004886 0.000000
# 2 -0.001703 0.006691 0.000367 0.000000 0.001168 0.000000
# 3 -0.001213 0.000367 0.012138 0.000000 0.005323 0.000000
# 4 0.000000 0.000000 0.000000 0.128353 0.000000 -0.136071
# 5 0.004886 0.001168 0.005323 0.000000 0.033936 0.000000
# 6 0.000000 0.000000 0.000000 -0.136071 0.000000 0.373930
#
#
# Mechanical properties :
#
#
# Convention : Reuss Voigt Hill
#
# Bulk Modulus (GPa) = 47.88542 67.61100 57.74821
# Shear Modulus (GPa) = 8.70687 34.30578 21.50633
#
# Velocity S-wave (km/s) = 1.83157 3.63560 2.87856
# Velocity P-wave (km/s) = 4.78775 6.60857 5.77043
#
# Compressibility (1/GPa) = 0.02088319
#
# Stress axis : x y z
#
# Youngs Moduli (GPa) = 139.81744 149.45390 82.38573
#
# Poissons Ratio (x) = 0.25451 0.09996
# Poissons Ratio (y) = 0.23810 -0.03025
# Poissons Ratio (z) = 0.16964 -0.05488
#
# Static dielectric constant tensor:
#      x y z
#    x 2.318960 0.000000 -0.133910 
#    y 0.000000 2.120050 0.000000 
#    z -0.133910 0.000000 2.369570 
# 
# From -- ./inp_files/185905.got.cif
#   From: 2010.05.17/outbox.cif.g08.bks.cpg/sg15_93_cif.got.tgz:185905.got - 2010.06.03 18:47:42.
