data_PCOD9269667
_publ_section_title
;
Structure prediction by ZEFSAII (Michael W. Deem and Ramdas Pophale) SiO2 
 PCOD9269667
Probable space group: C 2/C
;
_chemical_formula_sum "Si O2"
_cell_formula_units_Z 48
_cell_length_a 21.566945
_cell_length_b 7.998735
_cell_length_c 14.332887
_cell_angle_alpha 90.000000
_cell_angle_beta 98.045748
_cell_angle_gamma 90.000000
_cell_volume 2448.203510
_symmetry_space_group_name_H-M "C 2/C"
_symmetry_group_IT_number 15
_symmetry_cell_setting 'monoclinic'
loop_
_space_group_symop_operation_xyz
x,y,z
-x,y,1/2-z
-x,-y,-z
x,-y,1/2+z
1/2+x,1/2+y,z
1/2-x,1/2+y,1/2-z
1/2-x,1/2-y,-z
1/2+x,1/2-y,1/2+z
loop_
_atom_site_type_symbol
_atom_site_label
_atom_site_fract_x
_atom_site_fract_y
_atom_site_fract_z
Si Si1 0.127715 0.899950 0.550686
Si Si2 0.778616 0.603884 0.894580
Si Si3 0.133723 0.159039 0.835482
Si Si4 0.431778 0.653885 0.279230
Si Si5 0.743883 0.409260 0.064146
Si Si6 0.653301 0.982767 0.261762
O O1 0.179452 0.768238 0.598642
O O2 0.114485 0.859757 0.440292
O O3 0.070951 0.882860 0.610168
O O4 0.170016 0.065938 0.566413
O O5 0.708495 0.631042 0.844893
O O6 0.815986 0.481478 0.833234
O O7 0.770857 0.550707 0.999743
O O8 0.123623 0.347150 0.796008
O O9 0.101898 0.007009 0.773785
O O10 0.500000 0.667007 0.250000
O O11 0.394944 0.827819 0.252722
O O12 0.788484 0.418236 0.162530
O O13 0.750000 0.250000 0.000000
#
# Coordination Sequence:
#
# PCOD9269667 Si02
#       6
#     8   8   8   8   8   8
#     4  10  20  41  61  88 129 152 191 262 307 365
#     4  10  20  34  58  96 125 147 186 252 309 377
#     4  11  21  40  65  89 123 167 195 246 324 367
#     4  11  27  44  59  87 122 165 221 259 288 352
#     4  11  20  32  59  97 124 150 191 242 317 382
#     4  11  22  38  63  88 125 161 202 246 310 372
#
# _framework density 19.606213
#
# number of rings (size 3 to 8) (size 9 to 14) (size 15 to 20)
#    0.000    1.333    3.333    4.000    7.000    1.333 
#    0.000    0.833    0.000    0.000    0.000    0.000 
#    0.000    0.000    0.000    0.000    0.000    0.000 
#
# Total GULP energy -133898.331799 kJ/mol
# GULP energy per Si atom -5579.097158 kJ/mol
# Density = 1.956159 g / cm^3
# Si number density = 19.606213 Si / 1000 Ang^3
#
#
#
# Elastic Constant Matrix: (Units=GPa)
#
#
# Indices 1 2 3 4 5 6 
#
# 1 48.1191 25.6682 42.2689 0.0000 -37.2614 0.0000
# 2 25.6682 84.2435 24.4962 0.0000 -10.3499 0.0000
# 3 42.2689 24.4962 99.8064 0.0000 -30.1044 0.0000
# 4 0.0000 0.0000 0.0000 29.0958 0.0000 2.3893
# 5 -37.2614 -10.3499 -30.1044 0.0000 32.0082 0.0000
# 6 0.0000 0.0000 0.0000 2.3893 0.0000 12.9094
#
#
#
# Elastic Compliance Matrix: (Units=1/GPa)
#
#
# Indices 1 2 3 4 5 6 
#
# 1 0.470998 -0.073377 -0.032440 0.000000 0.494060 0.000000
# 2 -0.073377 0.024277 0.002401 0.000000 -0.075311 0.000000
# 3 -0.032440 0.002401 0.016769 0.000000 -0.021215 0.000000
# 4 0.000000 0.000000 0.000000 0.034900 0.000000 -0.006459
# 5 0.494060 -0.075311 -0.021215 0.000000 0.562080 0.000000
# 6 0.000000 0.000000 0.000000 -0.006459 0.000000 0.078658
#
#
# Mechanical properties :
#
#
# Convention : Reuss Voigt Hill
#
# Bulk Modulus (GPa) = 3.27639 46.33728 24.80684
# Shear Modulus (GPa) = 3.34169 24.11840 13.73004
#
# Velocity S-wave (km/s) = 1.30694 3.51114 2.64917
# Velocity P-wave (km/s) = 1.98801 6.33425 4.69441
#
# Compressibility (1/GPa) = 0.30521361
#
# Stress axis : x y z
#
# Youngs Moduli (GPa) = 2.12315 41.19159 59.63243
#
# Poissons Ratio (x) = 3.02251 1.93447
# Poissons Ratio (y) = 0.15579 -0.14320
# Poissons Ratio (z) = 0.06887 -0.09892
#
# Static dielectric constant tensor:
#      x y z
#    x 1.666410 0.000000 -0.024700 
#    y 0.000000 1.340450 0.000000 
#    z -0.024700 0.000000 1.716550 
# 
# From -- ./inp_files/159741.got.cif
#   From: 2010.05.17/outbox.cif.g08.bks.cpg/sg15_80_cif.got.tgz:159741.got - 2010.06.03 18:47:42.
