data_PCOD9269098
_publ_section_title
;
Structure prediction by ZEFSAII (Michael W. Deem and Ramdas Pophale) SiO2 
 PCOD9269098
Probable space group: C 2/C
;
_chemical_formula_sum "Si O2"
_cell_formula_units_Z 36
_cell_length_a 10.656325
_cell_length_b 23.540605
_cell_length_c 5.797747
_cell_angle_alpha 90.000000
_cell_angle_beta 117.223728
_cell_angle_gamma 90.000000
_cell_volume 1293.293150
_symmetry_space_group_name_H-M "C 2/C"
_symmetry_group_IT_number 15
_symmetry_cell_setting 'monoclinic'
loop_
_space_group_symop_operation_xyz
x,y,z
-x,y,1/2-z
-x,-y,-z
x,-y,1/2+z
1/2+x,1/2+y,z
1/2-x,1/2+y,1/2-z
1/2-x,1/2-y,-z
1/2+x,1/2-y,1/2+z
loop_
_atom_site_type_symbol
_atom_site_label
_atom_site_fract_x
_atom_site_fract_y
_atom_site_fract_z
Si Si1 0.301098 0.865692 0.957435
Si Si2 0.684044 0.140961 0.536929
Si Si3 0.163188 0.020062 0.367526
Si Si4 0.000000 0.846562 0.250000
Si Si5 0.624903 0.257529 0.702385
O O1 0.371446 0.871321 0.765302
O O2 0.176735 0.912271 0.850474
O O3 0.240377 0.800775 0.912466
O O4 0.370515 0.879649 0.262052
O O5 0.850777 0.123208 0.669569
O O6 0.675904 0.209150 0.567788
O O7 0.000000 0.002540 0.250000
O O8 0.224592 0.002713 0.672719
O O9 0.034255 0.804844 0.488123
O O10 0.500000 0.230916 0.750000
#
# Coordination Sequence:
#
# PCOD9269098 Si02
#       5
#     8   8   8   4   8
#     4  11  21  38  53  78 111 151 190 217 277 333
#     4  11  24  34  55  82 112 152 194 218 267 332
#     4  10  21  35  53  79 108 142 186 232 273 327
#     4  10  20  34  50  74 110 154 188 220 264 316
#     4  11  22  35  54  80 114 157 186 226 267 324
#
# _framework density 27.835916000000001
#
# number of rings (size 3 to 8) (size 9 to 14) (size 15 to 20)
#    0.000    1.333    2.222    5.333    6.222    0.000 
#    2.000    0.000    0.000    0.000    0.000    0.000 
#    0.000   17.778    0.000    0.000    0.000    0.000 
#
# Total GULP energy -100521.046039 kJ/mol
# GULP energy per Si atom -5584.502558 kJ/mol
# Density = 2.777256 g / cm^3
# Si number density = 27.835916 Si / 1000 Ang^3
#
#
#
# Elastic Constant Matrix: (Units=GPa)
#
#
# Indices 1 2 3 4 5 6 
#
# 1 125.6140 17.3802 76.2411 0.0000 -21.3319 0.0000
# 2 17.3802 124.6504 9.9043 0.0000 -11.9950 0.0000
# 3 76.2411 9.9043 265.3266 0.0000 -46.6734 0.0000
# 4 0.0000 0.0000 0.0000 -65.3547 0.0000 -118.9559
# 5 -21.3319 -11.9950 -46.6734 0.0000 60.6368 0.0000
# 6 0.0000 0.0000 0.0000 -118.9559 0.0000 -87.5898
#
#
#
# Elastic Compliance Matrix: (Units=1/GPa)
#
#
# Indices 1 2 3 4 5 6 
#
# 1 0.009888 -0.001050 -0.002575 0.000000 0.001289 0.000000
# 2 -0.001050 0.008290 0.000250 0.000000 0.001463 0.000000
# 3 -0.002575 0.000250 0.005030 0.000000 0.003015 0.000000
# 4 0.000000 0.000000 0.000000 0.010395 0.000000 -0.014118
# 5 0.001289 0.001463 0.003015 0.000000 0.019555 0.000000
# 6 0.000000 0.000000 0.000000 -0.014118 0.000000 0.007756
#
#
# Mechanical properties :
#
#
# Convention : Reuss Voigt Hill
#
# Bulk Modulus (GPa) = 60.76818 80.29356 70.53087
# Shear Modulus (GPa) = 68.35117 9.00949 38.68033
#
# Velocity S-wave (km/s) = 4.96068 1.80102 3.73176
# Velocity P-wave (km/s) = 7.39523 5.76479 6.63032
#
# Compressibility (1/GPa) = 0.01645598
#
# Stress axis : x y z
#
# Youngs Moduli (GPa) = 101.13066 120.63070 198.80465
#
# Poissons Ratio (x) = 0.12667 0.51202
# Poissons Ratio (y) = 0.10620 -0.04962
# Poissons Ratio (z) = 0.26046 -0.03011
#
# Static dielectric constant tensor:
#      x y z
#    x 2.176550 0.000000 0.092530 
#    y 0.000000 2.130740 0.000000 
#    z 0.092530 0.000000 2.372790 
# 
# From -- ./inp_files/4394.got.cif
#   From: 2010.05.17/outbox.cif.g08.bks.cpg/sg15_3_cif.got.tgz:4394.got - 2010.06.03 18:47:42.
