data_PCOD9269069
_publ_section_title
;
Structure prediction by ZEFSAII (Michael W. Deem and Ramdas Pophale) SiO2 
 PCOD9269069
Probable space group: C 2/C
;
_chemical_formula_sum "Si O2"
_cell_formula_units_Z 60
_cell_length_a 5.120733
_cell_length_b 31.499245
_cell_length_c 19.855886
_cell_angle_alpha 90.000000
_cell_angle_beta 87.147867
_cell_angle_gamma 90.000000
_cell_volume 3198.771681
_symmetry_space_group_name_H-M "C 2/C"
_symmetry_group_IT_number 15
_symmetry_cell_setting 'monoclinic'
loop_
_space_group_symop_operation_xyz
x,y,z
-x,y,1/2-z
-x,-y,-z
x,-y,1/2+z
1/2+x,1/2+y,z
1/2-x,1/2+y,1/2-z
1/2-x,1/2-y,-z
1/2+x,1/2-y,1/2+z
loop_
_atom_site_type_symbol
_atom_site_label
_atom_site_fract_x
_atom_site_fract_y
_atom_site_fract_z
Si Si1 0.100600 0.128476 0.529415
Si Si2 0.237326 0.962870 0.070275
Si Si3 0.869187 0.311701 0.829671
Si Si4 0.000000 0.857001 0.750000
Si Si5 0.727949 0.012967 0.089144
Si Si6 0.169578 0.772378 0.604465
Si Si7 0.800613 0.105362 0.122739
Si Si8 0.616044 0.184385 0.535352
O O1 0.178804 0.087014 0.570983
O O2 0.333803 0.162874 0.529920
O O3 0.073873 0.112996 0.451951
O O4 0.828400 0.149346 0.553923
O O5 0.499703 0.979076 0.101456
O O6 0.264205 0.974927 0.990519
O O7 0.000169 0.990600 0.101544
O O8 0.750640 0.326766 0.758550
O O9 0.597933 0.293816 0.866736
O O10 0.914691 0.357457 0.865119
O O11 0.091918 0.278567 0.846396
O O12 0.006845 0.885130 0.817098
O O13 0.694020 0.057821 0.126548
O O14 0.273848 0.795951 0.535914
O O15 0.112243 0.723825 0.586455
#
# Coordination Sequence:
#
# PCOD9269069 Si02
#       8
#     8   8   8   4   8   8   8   8
#     4  11  19  31  49  70 100 130 163 187 249 274
#     4   9  18  29  44  66  92 125 156 192 222 288
#     4  10  20  34  46  70  95 133 156 199 229 288
#     4   8  18  36  48  74  94 132 164 196 230 286
#     4   9  17  30  44  65  94 125 160 184 229 272
#     4  11  20  32  47  67  98 128 167 190 247 271
#     4   9  18  32  50  70  99 135 156 200 229 288
#     4  11  19  30  47  70  94 129 161 203 225 302
#
# _framework density 18.757200999999998
#
# number of rings (size 3 to 8) (size 9 to 14) (size 15 to 20)
#    0.800    1.333    2.667    1.600    0.000    6.933 
#    0.000    0.000    0.000    0.000    0.000    0.000 
#    0.000   21.333    0.000    0.000    0.000    0.000 
#
# Total GULP energy -167133.239078 kJ/mol
# GULP energy per Si atom -5571.107969 kJ/mol
# Density = 1.871451 g / cm^3
# Si number density = 18.757201 Si / 1000 Ang^3
#
#
#
# Elastic Constant Matrix: (Units=GPa)
#
#
# Indices 1 2 3 4 5 6 
#
# 1 66.2367 5.4294 18.9431 0.0000 26.7691 0.0000
# 2 5.4294 86.5904 37.5207 0.0000 8.6999 0.0000
# 3 18.9431 37.5207 51.6948 0.0000 15.7107 0.0000
# 4 0.0000 0.0000 0.0000 26.6703 0.0000 7.6811
# 5 26.7691 8.6999 15.7107 0.0000 16.8995 0.0000
# 6 0.0000 0.0000 0.0000 7.6811 0.0000 23.9615
#
#
#
# Elastic Compliance Matrix: (Units=1/GPa)
#
#
# Indices 1 2 3 4 5 6 
#
# 1 0.044137 0.002731 0.004905 0.000000 -0.075880 0.000000
# 2 0.002731 0.017189 -0.013203 0.000000 -0.000900 0.000000
# 3 0.004905 -0.013203 0.038225 0.000000 -0.036509 0.000000
# 4 0.000000 0.000000 0.000000 0.041309 0.000000 -0.013242
# 5 -0.075880 -0.000900 -0.036509 0.000000 0.213772 0.000000
# 6 0.000000 0.000000 0.000000 -0.013242 0.000000 0.045978
#
#
# Mechanical properties :
#
#
# Convention : Reuss Voigt Hill
#
# Bulk Modulus (GPa) = 11.31002 36.47871 23.89437
# Shear Modulus (GPa) = 11.33230 23.01483 17.17356
#
# Velocity S-wave (km/s) = 2.46063 3.50664 3.02912
# Velocity P-wave (km/s) = 3.75709 5.99044 5.00005
#
# Compressibility (1/GPa) = 0.08841718
#
# Stress axis : x y z
#
# Youngs Moduli (GPa) = 22.65674 58.17734 26.16064
#
# Poissons Ratio (x) = -0.15887 -0.12832
# Poissons Ratio (y) = -0.06187 0.34540
# Poissons Ratio (z) = -0.11113 0.76811
#
# Static dielectric constant tensor:
#      x y z
#    x 1.747640 0.000000 -0.066300 
#    y 0.000000 1.646890 0.000000 
#    z -0.066300 0.000000 1.719200 
# 
# From -- ./inp_files/261948.got.cif
#   From: 2010.05.17/outbox.cif.g08.bks.cpg/sg15_131_cif.got.tgz:261948.got - 2010.06.03 18:47:42.
