data_PCOD9269491
_publ_section_title
;
Structure prediction by ZEFSAII (Michael W. Deem and Ramdas Pophale) SiO2 
 PCOD9269491
Probable space group: C 2/C
;
_chemical_formula_sum "Si O2"
_cell_formula_units_Z 52
_cell_length_a 25.527924
_cell_length_b 5.768935
_cell_length_c 16.510717
_cell_angle_alpha 90.000000
_cell_angle_beta 109.379663
_cell_angle_gamma 90.000000
_cell_volume 2293.747228
_symmetry_space_group_name_H-M "C 2/C"
_symmetry_group_IT_number 15
_symmetry_cell_setting 'monoclinic'
loop_
_space_group_symop_operation_xyz
x,y,z
-x,y,1/2-z
-x,-y,-z
x,-y,1/2+z
1/2+x,1/2+y,z
1/2-x,1/2+y,1/2-z
1/2-x,1/2-y,-z
1/2+x,1/2-y,1/2+z
loop_
_atom_site_type_symbol
_atom_site_label
_atom_site_fract_x
_atom_site_fract_y
_atom_site_fract_z
Si Si1 0.519026 0.758891 0.099285
Si Si2 0.209757 0.223368 0.828116
Si Si3 0.500000 0.070506 0.250000
Si Si4 0.811646 0.486008 0.838928
Si Si5 0.619938 0.354827 0.729181
Si Si6 0.886301 0.537061 0.140529
Si Si7 0.914094 0.623402 0.477356
O O1 0.562421 0.573039 0.156281
O O2 0.505633 0.915340 0.171734
O O3 0.552194 0.930773 0.056368
O O4 0.460940 0.690086 0.028013
O O5 0.220876 0.374490 0.753216
O O6 0.175845 0.371348 0.875678
O O7 0.266094 0.088888 0.876510
O O8 0.161822 0.049508 0.776040
O O9 0.439513 0.186945 0.201995
O O10 0.847849 0.689517 0.817505
O O11 0.857652 0.315711 0.901258
O O12 0.608818 0.195505 0.802494
O O13 0.894260 0.491081 0.050731
#
# Coordination Sequence:
#
# PCOD9269491 Si02
#       7
#     8   8   4   8   8   8   8
#     4   8  15  30  58  78 106 141 178 216 275 323
#     4  11  20  35  56  81 103 148 192 227 266 329
#     4   8  14  32  54  80 104 140 174 216 264 326
#     4  10  20  34  57  77 107 142 188 231 272 319
#     4   9  18  35  55  79 104 145 185 224 267 327
#     4   9  19  33  55  79 113 142 179 222 277 328
#     4   9  17  33  53  83 111 145 175 226 281 324
#
# _framework density 22.670325999999999
#
# number of rings (size 3 to 8) (size 9 to 14) (size 15 to 20)
#    0.000    2.769    1.538    0.923    0.000    0.615 
#    0.000    9.231    0.000    0.000    0.000    0.000 
#    0.000    0.000    0.000    0.000    0.000    0.000 
#
# Total GULP energy -144837.518526 kJ/mol
# GULP energy per Si atom -5570.673789 kJ/mol
# Density = 2.261873 g / cm^3
# Si number density = 22.670326 Si / 1000 Ang^3
#
#
#
# Elastic Constant Matrix: (Units=GPa)
#
#
# Indices 1 2 3 4 5 6 
#
# 1 112.0317 2.7173 61.3934 0.0000 -7.0178 0.0000
# 2 2.7173 11.0170 1.7176 0.0000 -5.5722 0.0000
# 3 61.3934 1.7176 73.9276 0.0000 -13.2305 0.0000
# 4 0.0000 0.0000 0.0000 11.3533 0.0000 6.2218
# 5 -7.0178 -5.5722 -13.2305 0.0000 43.5694 0.0000
# 6 0.0000 0.0000 0.0000 6.2218 0.0000 29.2315
#
#
#
# Elastic Compliance Matrix: (Units=1/GPa)
#
#
# Indices 1 2 3 4 5 6 
#
# 1 0.016570 -0.002892 -0.014045 0.000000 -0.001966 0.000000
# 2 -0.002892 0.097551 0.002416 0.000000 0.012744 0.000000
# 3 -0.014045 0.002416 0.026209 0.000000 0.006005 0.000000
# 4 0.000000 0.000000 0.000000 0.099711 0.000000 -0.021223
# 5 -0.001966 0.012744 0.006005 0.000000 0.026089 0.000000
# 6 0.000000 0.000000 0.000000 -0.021223 0.000000 0.038727
#
#
# Mechanical properties :
#
#
# Convention : Reuss Voigt Hill
#
# Bulk Modulus (GPa) = 8.98571 36.51477 22.75024
# Shear Modulus (GPa) = 13.47732 25.57406 19.52569
#
# Velocity S-wave (km/s) = 2.44087 3.36234 2.93796
# Velocity P-wave (km/s) = 3.45196 5.58709 4.64390
#
# Compressibility (1/GPa) = 0.11128775
#
# Stress axis : x y z
#
# Youngs Moduli (GPa) = 60.35118 10.25106 38.15473
#
# Poissons Ratio (x) = 0.02964 0.53588
# Poissons Ratio (y) = 0.17451 -0.09216
# Poissons Ratio (z) = 0.84763 -0.02476
#
# Static dielectric constant tensor:
#      x y z
#    x 1.931630 0.000000 0.031550 
#    y 0.000000 1.912410 0.000000 
#    z 0.031550 0.000000 1.852170 
# 
# From -- ./inp_files/220953.got.cif
#   From: 2010.05.17/outbox.cif.g08.bks.cpg/sg15_111_cif.got.tgz:220953.got - 2010.06.03 18:47:42.
