data_PCOD9269315
_publ_section_title
;
Structure prediction by ZEFSAII (Michael W. Deem and Ramdas Pophale) SiO2 
 PCOD9269315
Probable space group: C 2/C
;
_chemical_formula_sum "Si O2"
_cell_formula_units_Z 64
_cell_length_a 18.515889
_cell_length_b 19.180303
_cell_length_c 14.960036
_cell_angle_alpha 90.000000
_cell_angle_beta 142.968490
_cell_angle_gamma 90.000000
_cell_volume 3199.723626
_symmetry_space_group_name_H-M "C 2/C"
_symmetry_group_IT_number 15
_symmetry_cell_setting 'monoclinic'
loop_
_space_group_symop_operation_xyz
x,y,z
-x,y,1/2-z
-x,-y,-z
x,-y,1/2+z
1/2+x,1/2+y,z
1/2-x,1/2+y,1/2-z
1/2-x,1/2-y,-z
1/2+x,1/2-y,1/2+z
loop_
_atom_site_type_symbol
_atom_site_label
_atom_site_fract_x
_atom_site_fract_y
_atom_site_fract_z
Si Si1 0.579436 0.129796 0.191662
Si Si2 0.402106 0.363379 0.864834
Si Si3 0.364307 0.368265 0.636618
Si Si4 0.821069 0.640290 0.007018
Si Si5 0.634826 0.532798 0.878161
Si Si6 0.688651 0.363454 0.113997
Si Si7 0.248696 0.244380 0.189192
Si Si8 0.761909 0.979816 0.820308
O O1 0.437891 0.125395 0.062550
O O2 0.633417 0.138625 0.345545
O O3 0.631472 0.197512 0.193447
O O4 0.637090 0.062134 0.201762
O O5 0.336741 0.340121 0.707721
O O6 0.359414 0.309280 0.898184
O O7 0.350219 0.438469 0.841740
O O8 0.544499 0.366584 0.989829
O O9 0.500000 0.345291 0.750000
O O10 0.367097 0.452154 0.652526
O O11 0.292883 0.353934 0.474870
O O12 0.719457 0.581161 0.902496
O O13 0.769709 0.713096 0.920387
O O14 0.500000 0.560276 0.750000
O O15 0.683290 0.530639 0.026737
O O16 0.742378 0.301729 0.224925
O O17 0.742218 0.437819 0.196609
#
# Coordination Sequence:
#
# PCOD9269315 Si02
#       8
#     8   8   8   8   8   8   8   8
#     4   9  20  40  53  76 117 147 178 217 274 339
#     4  10  20  34  55  75 111 146 178 228 284 316
#     4   8  17  34  54  78 105 137 176 227 283 316
#     4  10  20  35  57  78 111 152 174 215 280 324
#     4   9  18  32  54  87 111 134 179 228 273 328
#     4  10  20  34  55  82 107 136 188 235 264 327
#     4  11  22  33  53  82 108 146 188 223 268 326
#     4   9  19  34  57  82 106 140 181 231 273 317
#
# _framework density 20.001729000000001
#
# number of rings (size 3 to 8) (size 9 to 14) (size 15 to 20)
#    0.000    2.500    0.000    2.250    3.500    0.500 
#    4.500    0.625    2.750    0.000    6.500    0.000 
#    0.000    0.000    0.000    0.000    0.000    0.000 
#
# Total GULP energy -178483.526658 kJ/mol
# GULP energy per Si atom -5577.610208 kJ/mol
# Density = 1.995620 g / cm^3
# Si number density = 20.001729 Si / 1000 Ang^3
#
#
#
# Elastic Constant Matrix: (Units=GPa)
#
#
# Indices 1 2 3 4 5 6 
#
# 1 55.1825 24.9511 9.8809 0.0000 5.2204 0.0000
# 2 24.9511 83.0242 23.4491 0.0000 5.9076 0.0000
# 3 9.8809 23.4491 32.9776 0.0000 5.6550 0.0000
# 4 0.0000 0.0000 0.0000 8.0664 0.0000 -4.4889
# 5 5.2204 5.9076 5.6550 0.0000 35.5076 0.0000
# 6 0.0000 0.0000 0.0000 -4.4889 0.0000 30.1481
#
#
#
# Elastic Compliance Matrix: (Units=1/GPa)
#
#
# Indices 1 2 3 4 5 6 
#
# 1 0.021224 -0.005681 -0.002001 0.000000 -0.001857 0.000000
# 2 -0.005681 0.016616 -0.010056 0.000000 -0.000328 0.000000
# 3 -0.002001 -0.010056 0.038796 0.000000 -0.004211 0.000000
# 4 0.000000 0.000000 0.000000 0.135171 0.000000 0.020126
# 5 -0.001857 -0.000328 -0.004211 0.000000 0.029161 0.000000
# 6 0.000000 0.000000 0.000000 0.020126 0.000000 0.036166
#
#
# Mechanical properties :
#
#
# Convention : Reuss Voigt Hill
#
# Bulk Modulus (GPa) = 24.29634 31.97182 28.13408
# Shear Modulus (GPa) = 15.32184 22.27130 18.79657
#
# Velocity S-wave (km/s) = 2.77072 3.34049 3.06886
# Velocity P-wave (km/s) = 4.73385 5.55857 5.16271
#
# Compressibility (1/GPa) = 0.04115846
#
# Stress axis : x y z
#
# Youngs Moduli (GPa) = 47.11544 60.18432 25.77583
#
# Poissons Ratio (x) = 0.34192 0.05159
# Poissons Ratio (y) = 0.26767 0.25921
# Poissons Ratio (z) = 0.09429 0.60523
#
# Static dielectric constant tensor:
#      x y z
#    x 1.722730 0.000000 -0.036860 
#    y 0.000000 1.701560 0.000000 
#    z -0.036860 0.000000 1.726510 
# 
# From -- ./inp_files/163303.got.cif
#   From: 2010.05.17/outbox.cif.g08.bks.cpg/sg15_82_cif.got.tgz:163303.got - 2010.06.03 18:47:42.
