data_PCOD9269183
_publ_section_title
;
Structure prediction by ZEFSAII (Michael W. Deem and Ramdas Pophale) SiO2 
 PCOD9269183
Probable space group: C 2/C
;
_chemical_formula_sum "Si O2"
_cell_formula_units_Z 60
_cell_length_a 10.792271
_cell_length_b 28.013360
_cell_length_c 9.474511
_cell_angle_alpha 90.000000
_cell_angle_beta 82.681372
_cell_angle_gamma 90.000000
_cell_volume 2841.071704
_symmetry_space_group_name_H-M "C 2/C"
_symmetry_group_IT_number 15
_symmetry_cell_setting 'monoclinic'
loop_
_space_group_symop_operation_xyz
x,y,z
-x,y,1/2-z
-x,-y,-z
x,-y,1/2+z
1/2+x,1/2+y,z
1/2-x,1/2+y,1/2-z
1/2-x,1/2-y,-z
1/2+x,1/2-y,1/2+z
loop_
_atom_site_type_symbol
_atom_site_label
_atom_site_fract_x
_atom_site_fract_y
_atom_site_fract_z
Si Si1 0.798403 0.914990 0.547388
Si Si2 0.880332 0.795408 0.868856
Si Si3 0.205840 0.950683 0.363752
Si Si4 0.627746 0.746093 0.821322
Si Si5 0.081091 0.477788 0.610291
Si Si6 0.852304 0.143314 0.793462
Si Si7 0.000000 0.000000 0.500000
Si Si8 0.633949 0.595571 0.159821
O O1 0.671318 0.940162 0.522582
O O2 0.823003 0.866620 0.460664
O O3 0.780559 0.906488 0.716060
O O4 0.910954 0.951091 0.492941
O O5 0.748186 0.780861 0.815293
O O6 0.870277 0.851827 0.905584
O O7 0.000000 0.789564 0.750000
O O8 0.902672 0.766252 0.010193
O O9 0.207524 0.900575 0.284851
O O10 0.168958 0.942494 0.536075
O O11 0.331015 0.980714 0.337555
O O12 0.090402 0.985059 0.350036
O O13 0.500000 0.758403 0.750000
O O14 0.679999 0.696311 0.749797
O O15 0.000000 0.457568 0.750000
O O16 0.000000 0.500000 0.500000
O O17 0.000000 0.139112 0.750000
O O18 0.500000 0.586951 0.250000
#
# Coordination Sequence:
#
# PCOD9269183 Si02
#       8
#     8   8   8   8   8   8   4   8
#     4  11  23  36  61  88 123 156 210 255 312 367
#     4  10  23  43  68  96 133 169 209 267 329 399
#     4  11  21  36  61  85 120 156 202 257 311 363
#     4  10  23  43  68  97 132 170 209 266 329 399
#     4  11  24  43  56  78 122 177 216 248 301 375
#     4  11  20  37  61  96 122 151 200 267 322 379
#     4  10  20  34  52  94 118 146 192 258 308 368
#     4  11  20  37  61  95 123 154 198 265 326 376
#
# _framework density 21.118790000000001
#
# number of rings (size 3 to 8) (size 9 to 14) (size 15 to 20)
#    0.000    1.333    4.000    1.600    5.600    4.800 
#    0.000    4.000    0.000    0.000    0.000    0.000 
#    0.000    0.000    0.000    0.000    0.000    0.000 
#
# Total GULP energy -167015.941566 kJ/mol
# GULP energy per Si atom -5567.198052 kJ/mol
# Density = 2.107072 g / cm^3
# Si number density = 21.118790 Si / 1000 Ang^3
#
#
#
# Elastic Constant Matrix: (Units=GPa)
#
#
# Indices 1 2 3 4 5 6 
#
# 1 98.3737 11.2790 21.5698 0.0000 4.5584 0.0000
# 2 11.2790 53.3238 4.9579 0.0000 -4.8742 0.0000
# 3 21.5698 4.9579 61.7687 0.0000 8.8810 0.0000
# 4 0.0000 0.0000 0.0000 16.0124 0.0000 -7.7095
# 5 4.5584 -4.8742 8.8810 0.0000 27.7006 0.0000
# 6 0.0000 0.0000 0.0000 -7.7095 0.0000 -1.0823
#
#
#
# Elastic Compliance Matrix: (Units=1/GPa)
#
#
# Indices 1 2 3 4 5 6 
#
# 1 0.011251 -0.002143 -0.003602 0.000000 -0.001074 0.000000
# 2 -0.002143 0.019734 -0.001453 0.000000 0.004291 0.000000
# 3 -0.003602 -0.001453 0.018362 0.000000 -0.005550 0.000000
# 4 0.000000 0.000000 0.000000 0.014098 0.000000 -0.100429
# 5 -0.001074 0.004291 -0.005550 0.000000 0.038811 0.000000
# 6 0.000000 0.000000 0.000000 -0.100429 0.000000 -0.208588
#
#
# Mechanical properties :
#
#
# Convention : Reuss Voigt Hill
#
# Bulk Modulus (GPa) = 28.61174 32.11996 30.36585
# Shear Modulus (GPa) = -62.27742 20.23678 -21.02032
#
# Velocity S-wave (km/s) = -5.43628 3.09890 -3.15832
# Velocity P-wave (km/s) = 5.08200 5.29589 1.05349
#
# Compressibility (1/GPa) = 0.03495069
#
# Stress axis : x y z
#
# Youngs Moduli (GPa) = 88.88389 50.67431 54.46054
#
# Poissons Ratio (x) = 0.10859 0.19619
# Poissons Ratio (y) = 0.19047 0.07911
# Poissons Ratio (z) = 0.32019 0.07361
#
# Static dielectric constant tensor:
#      x y z
#    x 2.038660 0.000000 0.130560 
#    y 0.000000 1.468680 0.000000 
#    z 0.130560 0.000000 1.775690 
# 
# From -- ./inp_files/35220.got.cif
#   From: 2010.05.17/outbox.cif.g08.bks.cpg/sg15_18_cif.got.tgz:35220.got - 2010.06.03 18:47:42.
