data_PCOD9269363
_publ_section_title
;
Structure prediction by ZEFSAII (Michael W. Deem and Ramdas Pophale) SiO2 
 PCOD9269363
Probable space group: C 2/C
;
_chemical_formula_sum "Si O2"
_cell_formula_units_Z 52
_cell_length_a 11.533368
_cell_length_b 22.163221
_cell_length_c 8.737088
_cell_angle_alpha 90.000000
_cell_angle_beta 86.518951
_cell_angle_gamma 90.000000
_cell_volume 2229.223924
_symmetry_space_group_name_H-M "C 2/C"
_symmetry_group_IT_number 15
_symmetry_cell_setting 'monoclinic'
loop_
_space_group_symop_operation_xyz
x,y,z
-x,y,1/2-z
-x,-y,-z
x,-y,1/2+z
1/2+x,1/2+y,z
1/2-x,1/2+y,1/2-z
1/2-x,1/2-y,-z
1/2+x,1/2-y,1/2+z
loop_
_atom_site_type_symbol
_atom_site_label
_atom_site_fract_x
_atom_site_fract_y
_atom_site_fract_z
Si Si1 0.915227 0.530367 0.881104
Si Si2 0.822363 0.221064 0.626458
Si Si3 0.000000 0.950862 0.750000
Si Si4 0.622514 0.843122 0.707333
Si Si5 0.259347 0.947619 0.674121
Si Si6 0.016340 0.880134 0.074035
Si Si7 0.262446 0.815455 0.077573
O O1 0.845531 0.483993 0.778325
O O2 0.000000 0.563567 0.750000
O O3 0.812390 0.556249 0.998701
O O4 0.000000 0.500000 0.000000
O O5 0.750000 0.250000 0.500000
O O6 0.877226 0.276624 0.718605
O O7 0.920282 0.173168 0.574039
O O8 0.727566 0.190222 0.744122
O O9 0.868424 0.975267 0.789453
O O10 0.989849 0.918186 0.582235
O O11 0.500000 0.872940 0.750000
O O12 0.731597 0.878925 0.766745
O O13 0.635166 0.844518 0.524550
O O14 0.000000 0.906939 0.250000
O O15 0.143254 0.850879 0.063910
O O16 0.250000 0.750000 0.000000
#
# Coordination Sequence:
#
# PCOD9269363 Si02
#       7
#     8   8   4   8   8   8   8
#     4   9  20  44  70  96 128 165 209 283 358 407
#     4  10  20  34  55  87 124 168 223 268 322 382
#     4  12  24  42  68 100 140 184 230 270 334 424
#     4  11  20  37  58  88 120 164 223 269 317 395
#     4  11  23  42  69 100 130 174 220 279 352 419
#     4  10  21  40  57  87 136 184 222 273 333 385
#     4   9  18  34  55  79 117 170 210 263 324 373
#
# _framework density 23.326504
#
# number of rings (size 3 to 8) (size 9 to 14) (size 15 to 20)
#    0.000    1.846    1.538    4.615    2.154    0.615 
#    5.538    6.154    0.000    0.000    0.000    0.000 
#    0.000    0.000    0.000    0.000    0.000    0.000 
#
# Total GULP energy -144879.424233 kJ/mol
# GULP energy per Si atom -5572.285547 kJ/mol
# Density = 2.327341 g / cm^3
# Si number density = 23.326504 Si / 1000 Ang^3
#
#
#
# Elastic Constant Matrix: (Units=GPa)
#
#
# Indices 1 2 3 4 5 6 
#
# 1 121.6626 16.6405 67.3596 0.0000 -23.9569 0.0000
# 2 16.6405 16.1815 19.5472 0.0000 -10.1128 0.0000
# 3 67.3596 19.5472 197.8540 0.0000 -19.8435 0.0000
# 4 0.0000 0.0000 0.0000 17.4589 0.0000 -6.2641
# 5 -23.9569 -10.1128 -19.8435 0.0000 50.6831 0.0000
# 6 0.0000 0.0000 0.0000 -6.2641 0.0000 29.0989
#
#
#
# Elastic Compliance Matrix: (Units=1/GPa)
#
#
# Indices 1 2 3 4 5 6 
#
# 1 0.011270 -0.006215 -0.002928 0.000000 0.002941 0.000000
# 2 -0.006215 0.081034 -0.004750 0.000000 0.011372 0.000000
# 3 -0.002928 -0.004750 0.006543 0.000000 0.000230 0.000000
# 4 0.000000 0.000000 0.000000 0.062071 0.000000 0.013362
# 5 0.002941 0.011372 0.000230 0.000000 0.023480 0.000000
# 6 0.000000 0.000000 0.000000 0.013362 0.000000 0.037242
#
#
# Mechanical properties :
#
#
# Convention : Reuss Voigt Hill
#
# Bulk Modulus (GPa) = 14.07201 60.31028 37.19115
# Shear Modulus (GPa) = 18.30752 34.92490 26.61621
#
# Velocity S-wave (km/s) = 2.80453 3.87359 3.38158
# Velocity P-wave (km/s) = 4.06607 6.77623 5.58794
#
# Compressibility (1/GPa) = 0.07106303
#
# Stress axis : x y z
#
# Youngs Moduli (GPa) = 88.73494 12.34046 152.82725
#
# Poissons Ratio (x) = 0.07669 0.44745
# Poissons Ratio (y) = 0.55146 0.72586
# Poissons Ratio (z) = 0.25980 0.05861
#
# Static dielectric constant tensor:
#      x y z
#    x 1.963270 0.000000 -0.009940 
#    y 0.000000 1.977900 0.000000 
#    z -0.009940 0.000000 1.916790 
# 
# From -- ./inp_files/33576.got.cif
#   From: 2010.05.17/outbox.cif.g08.bks.cpg/sg15_17_cif.got.tgz:33576.got - 2010.06.03 18:47:42.
