data_PCOD9269055
_publ_section_title
;
Structure prediction by ZEFSAII (Michael W. Deem and Ramdas Pophale) SiO2 
 PCOD9269055
Probable space group: C 2/C
;
_chemical_formula_sum "Si O2"
_cell_formula_units_Z 48
_cell_length_a 18.433761
_cell_length_b 18.397549
_cell_length_c 5.685704
_cell_angle_alpha 90.000000
_cell_angle_beta 78.760631
_cell_angle_gamma 90.000000
_cell_volume 1891.246457
_symmetry_space_group_name_H-M "C 2/C"
_symmetry_group_IT_number 15
_symmetry_cell_setting 'monoclinic'
loop_
_space_group_symop_operation_xyz
x,y,z
-x,y,1/2-z
-x,-y,-z
x,-y,1/2+z
1/2+x,1/2+y,z
1/2-x,1/2+y,1/2-z
1/2-x,1/2-y,-z
1/2+x,1/2-y,1/2+z
loop_
_atom_site_type_symbol
_atom_site_label
_atom_site_fract_x
_atom_site_fract_y
_atom_site_fract_z
Si Si1 0.660628 0.298525 0.188253
Si Si2 0.154515 0.251992 0.194433
Si Si3 0.000000 0.390012 0.250000
Si Si4 0.000000 0.836884 0.750000
Si Si5 0.132303 0.415479 0.396438
Si Si6 0.000000 0.837248 0.250000
Si Si7 0.000000 0.636800 0.250000
Si Si8 0.703469 0.464518 0.182439
O O1 0.684744 0.258394 0.410961
O O2 0.572343 0.286535 0.213166
O O3 0.673224 0.383276 0.223452
O O4 0.689855 0.283161 0.907978
O O5 0.075401 0.209981 0.217934
O O6 0.151985 0.336216 0.271645
O O7 0.070211 0.441011 0.250617
O O8 0.991158 0.340622 0.484901
O O9 0.000445 0.878216 0.498937
O O10 0.081547 0.400321 0.657072
O O11 0.206836 0.458941 0.379672
O O12 0.681403 0.504645 0.439425
#
# Coordination Sequence:
#
# PCOD9269055 Si02
#       8
#     8   8   4   4   8   4   4   8
#     4  10  22  41  60  98 125 159 203 254 320 371
#     4  10  20  33  65  94 131 153 192 256 312 388
#     4   8  19  36  61  92 134 158 201 250 305 376
#     4   8  15  28  50  92 122 154 172 226 317 372
#     4  10  23  39  66  95 129 166 207 247 323 368
#     4   8  16  33  60  85 122 149 192 241 300 386
#     4   8  20  35  61  93 134 157 201 251 304 376
#     4  12  29  47  65  81 123 175 223 266 308 361
#
# _framework density 25.380089000000002
#
# number of rings (size 3 to 8) (size 9 to 14) (size 15 to 20)
#    1.000    1.333    0.000    1.500    4.667    4.000 
#    0.000    3.333    0.000    0.000    0.000    0.000 
#    0.000    0.000    0.000    0.000    0.000    0.000 
#
# Total GULP energy -133652.553269 kJ/mol
# GULP energy per Si atom -5568.856386 kJ/mol
# Density = 2.532232 g / cm^3
# Si number density = 25.380089 Si / 1000 Ang^3
#
#
#
# Elastic Constant Matrix: (Units=GPa)
#
#
# Indices 1 2 3 4 5 6 
#
# 1 63.3200 3.0343 46.3354 0.0000 5.3739 0.0000
# 2 3.0343 65.6408 58.3547 0.0000 -4.5454 0.0000
# 3 46.3354 58.3547 279.8077 0.0000 19.0195 0.0000
# 4 0.0000 0.0000 0.0000 24.1599 0.0000 8.5840
# 5 5.3739 -4.5454 19.0195 0.0000 43.8765 0.0000
# 6 0.0000 0.0000 0.0000 8.5840 0.0000 13.0149
#
#
#
# Elastic Compliance Matrix: (Units=1/GPa)
#
#
# Indices 1 2 3 4 5 6 
#
# 1 0.018251 0.002180 -0.003442 0.000000 -0.000517 0.000000
# 2 0.002180 0.019577 -0.004702 0.000000 0.003799 0.000000
# 3 -0.003442 -0.004702 0.005285 0.000000 -0.002356 0.000000
# 4 0.000000 0.000000 0.000000 0.054059 0.000000 -0.035655
# 5 -0.000517 0.003799 -0.002356 0.000000 0.024270 0.000000
# 6 0.000000 0.000000 0.000000 -0.035655 0.000000 0.100351
#
#
# Mechanical properties :
#
#
# Convention : Reuss Voigt Hill
#
# Bulk Modulus (GPa) = 32.06660 69.35748 50.71204
# Shear Modulus (GPa) = 20.48220 36.27987 28.38103
#
# Velocity S-wave (km/s) = 2.84389 3.78492 3.34764
# Velocity P-wave (km/s) = 4.84206 6.81819 5.91326
#
# Compressibility (1/GPa) = 0.03118510
#
# Stress axis : x y z
#
# Youngs Moduli (GPa) = 54.79195 51.08059 189.22727
#
# Poissons Ratio (x) = -0.11137 0.65129
# Poissons Ratio (y) = -0.11946 0.88977
# Poissons Ratio (z) = 0.18858 0.24019
#
# Static dielectric constant tensor:
#      x y z
#    x 2.466220 0.000000 0.027520 
#    y 0.000000 2.008510 0.000000 
#    z 0.027520 0.000000 2.053860 
# 
# From -- ./inp_files/15315.got.cif
#   From: 2010.05.17/outbox.cif.g08.bks.cpg/sg15_8_cif.got.tgz:15315.got - 2010.06.03 18:47:42.
