data_PCOD9269958
_publ_section_title
;
Structure prediction by ZEFSAII (Michael W. Deem and Ramdas Pophale) SiO2 
 PCOD9269958
Probable space group: C 2/C
;
_chemical_formula_sum "Si O2"
_cell_formula_units_Z 48
_cell_length_a 8.097682
_cell_length_b 13.460577
_cell_length_c 19.365792
_cell_angle_alpha 90.000000
_cell_angle_beta 93.173834
_cell_angle_gamma 90.000000
_cell_volume 2107.623366
_symmetry_space_group_name_H-M "C 2/C"
_symmetry_group_IT_number 15
_symmetry_cell_setting 'monoclinic'
loop_
_space_group_symop_operation_xyz
x,y,z
-x,y,1/2-z
-x,-y,-z
x,-y,1/2+z
1/2+x,1/2+y,z
1/2-x,1/2+y,1/2-z
1/2-x,1/2-y,-z
1/2+x,1/2-y,1/2+z
loop_
_atom_site_type_symbol
_atom_site_label
_atom_site_fract_x
_atom_site_fract_y
_atom_site_fract_z
Si Si1 0.426095 0.150590 0.464944
Si Si2 0.848834 0.037313 0.833736
Si Si3 0.248810 0.858968 0.465632
Si Si4 0.281486 0.561444 0.681656
Si Si5 0.602059 0.381240 0.015110
Si Si6 0.525285 0.092139 0.324253
O O1 0.572849 0.099360 0.510624
O O2 0.411940 0.261843 0.492809
O O3 0.251353 0.095419 0.467174
O O4 0.484412 0.158579 0.388106
O O5 0.802120 0.095955 0.761817
O O6 0.840273 0.096056 0.905384
O O7 0.041946 0.006154 0.829231
O O8 0.710121 0.951668 0.834108
O O9 0.250000 0.750000 0.500000
O O10 0.230215 0.862006 0.382368
O O11 0.089491 0.913798 0.495470
O O12 0.114927 0.495172 0.676795
O O13 0.500000 0.142767 0.250000
#
# Coordination Sequence:
#
# PCOD9269958 Si02
#       6
#     8   8   8   8   8   8
#     4  10  20  35  52  76 110 138 169 224 267 313
#     4   9  18  34  54  77 100 141 182 216 257 321
#     4   9  18  33  51  77 105 138 174 219 263 312
#     4   9  18  33  53  76 105 139 176 219 262 313
#     4   9  19  35  54  76 104 139 178 214 265 316
#     4  10  21  36  53  79 108 139 177 222 267 315
#
# _framework density 22.774470000000001
#
# number of rings (size 3 to 8) (size 9 to 14) (size 15 to 20)
#    0.000    2.667    0.000    1.000    0.000    4.000 
#    9.000    3.333    0.000    0.000   13.000    0.000 
#    0.000    0.000    0.000    0.000    0.000    0.000 
#
# Total GULP energy -133812.828572 kJ/mol
# GULP energy per Si atom -5575.534524 kJ/mol
# Density = 2.272263 g / cm^3
# Si number density = 22.774470 Si / 1000 Ang^3
#
#
#
# Elastic Constant Matrix: (Units=GPa)
#
#
# Indices 1 2 3 4 5 6 
#
# 1 152.6292 15.1066 51.2915 0.0000 2.0285 0.0000
# 2 15.1066 26.0727 -4.6119 0.0000 4.8640 0.0000
# 3 51.2915 -4.6119 111.9930 0.0000 -6.1221 0.0000
# 4 0.0000 0.0000 0.0000 22.3990 0.0000 -6.2850
# 5 2.0285 4.8640 -6.1221 0.0000 38.9672 0.0000
# 6 0.0000 0.0000 0.0000 -6.2850 0.0000 24.5561
#
#
#
# Elastic Compliance Matrix: (Units=1/GPa)
#
#
# Indices 1 2 3 4 5 6 
#
# 1 0.008503 -0.005586 -0.004146 0.000000 -0.000397 0.000000
# 2 -0.005586 0.043145 0.004092 0.000000 -0.004452 0.000000
# 3 -0.004146 0.004092 0.011076 0.000000 0.001445 0.000000
# 4 0.000000 0.000000 0.000000 0.048099 0.000000 0.012311
# 5 -0.000397 -0.004452 0.001445 0.000000 0.026466 0.000000
# 6 0.000000 0.000000 0.000000 0.012311 0.000000 0.043874
#
#
# Mechanical properties :
#
#
# Convention : Reuss Voigt Hill
#
# Bulk Modulus (GPa) = 19.43900 46.02971 32.73435
# Shear Modulus (GPa) = 23.85584 32.44501 28.15043
#
# Velocity S-wave (km/s) = 3.23999 3.77851 3.51957
# Velocity P-wave (km/s) = 4.74876 6.26827 5.56066
#
# Compressibility (1/GPa) = 0.05144299
#
# Stress axis : x y z
#
# Youngs Moduli (GPa) = 117.60085 23.17747 90.28915
#
# Poissons Ratio (x) = 0.12948 0.37435
# Poissons Ratio (y) = 0.65695 -0.36945
# Poissons Ratio (z) = 0.48759 -0.09484
#
# Static dielectric constant tensor:
#      x y z
#    x 1.942200 0.000000 -0.000290 
#    y 0.000000 1.894980 0.000000 
#    z -0.000290 0.000000 1.847670 
# 
# From -- ./inp_files/191338.got.cif
#   From: 2010.05.17/outbox.cif.g08.bks.cpg/sg15_96_cif.got.tgz:191338.got - 2010.06.03 18:47:42.
