data_PCOD9269902
_publ_section_title
;
Structure prediction by ZEFSAII (Michael W. Deem and Ramdas Pophale) SiO2 
 PCOD9269902
Probable space group: C 2/C
;
_chemical_formula_sum "Si O2"
_cell_formula_units_Z 60
_cell_length_a 12.621991
_cell_length_b 15.344198
_cell_length_c 21.987954
_cell_angle_alpha 90.000000
_cell_angle_beta 34.702969
_cell_angle_gamma 90.000000
_cell_volume 2424.459545
_symmetry_space_group_name_H-M "C 2/C"
_symmetry_group_IT_number 15
_symmetry_cell_setting 'monoclinic'
loop_
_space_group_symop_operation_xyz
x,y,z
-x,y,1/2-z
-x,-y,-z
x,-y,1/2+z
1/2+x,1/2+y,z
1/2-x,1/2+y,1/2-z
1/2-x,1/2-y,-z
1/2+x,1/2-y,1/2+z
loop_
_atom_site_type_symbol
_atom_site_label
_atom_site_fract_x
_atom_site_fract_y
_atom_site_fract_z
Si Si1 0.133709 0.962013 0.629981
Si Si2 0.325017 0.207436 0.058508
Si Si3 0.996714 0.564048 0.436529
Si Si4 0.693574 0.532339 0.298257
Si Si5 0.682241 0.738939 0.322165
Si Si6 0.675905 0.652458 0.536016
Si Si7 0.500000 0.319373 0.250000
Si Si8 0.302377 0.643525 0.650606
O O1 0.166305 0.857993 0.612261
O O2 0.000000 0.979574 0.750000
O O3 0.018305 0.984268 0.623978
O O4 0.341476 0.001360 0.540715
O O5 0.431630 0.149670 0.060973
O O6 0.249487 0.299209 0.118108
O O7 0.478280 0.230388 0.937009
O O8 0.863624 0.597029 0.444291
O O9 0.169718 0.516946 0.323665
O O10 0.702269 0.635072 0.306307
O O11 0.748964 0.457832 0.319974
O O12 0.826315 0.766415 0.306517
O O13 0.735631 0.796864 0.238536
O O14 0.750000 0.750000 0.500000
O O15 0.582909 0.637787 0.648046
O O16 0.526498 0.643967 0.553282
#
# Coordination Sequence:
#
# PCOD9269902 Si02
#       8
#     8   8   8   8   8   8   4   8
#     4  12  26  40  67 104 140 179 234 294 353 422
#     4  12  24  43  68  96 140 182 229 287 357 417
#     4  12  22  40  66  99 128 175 229 299 343 403
#     4  12  26  44  67  99 143 183 240 288 348 427
#     4  11  23  42  71  99 138 184 228 289 353 421
#     4  11  19  35  63  94 124 160 215 281 344 392
#     4  10  20  34  64  98 120 162 220 274 340 396
#     4  11  23  43  67  98 138 180 222 292 351 415
#
# _framework density 24.747783999999999
#
# number of rings (size 3 to 8) (size 9 to 14) (size 15 to 20)
#    0.000    0.533    6.667    2.000    2.800    1.067 
#    0.000    1.333    4.400    0.000    0.000    0.000 
#    0.000    0.000    0.000    0.000    0.000    0.000 
#
# Total GULP energy -167685.597034 kJ/mol
# GULP energy per Si atom -5589.519901 kJ/mol
# Density = 2.469146 g / cm^3
# Si number density = 24.747784 Si / 1000 Ang^3
#
#
#
# Elastic Constant Matrix: (Units=GPa)
#
#
# Indices 1 2 3 4 5 6 
#
# 1 23.5249 1.6446 1.7549 -0.0006 -7.2659 0.0003
# 2 1.6446 79.0337 -1.7380 0.0001 -12.6027 0.0001
# 3 1.7549 -1.7380 79.2313 -0.0002 -15.5290 0.0005
# 4 -0.0006 0.0001 -0.0002 42.6490 0.0011 2.0883
# 5 -7.2659 -12.6027 -15.5290 0.0011 12.7138 -0.0005
# 6 0.0003 0.0001 0.0005 2.0883 -0.0005 30.3537
#
#
#
# Elastic Compliance Matrix: (Units=1/GPa)
#
#
# Indices 1 2 3 4 5 6 
#
# 1 0.056821 0.006985 0.008699 0.000000 0.050023 0.000000
# 2 0.006985 0.017074 0.005679 -0.000001 0.027853 0.000000
# 3 0.008699 0.005679 0.019236 -0.000001 0.034096 0.000000
# 4 0.000000 -0.000001 -0.000001 0.023526 -0.000004 -0.001619
# 5 0.050023 0.027853 0.034096 -0.000004 0.176499 0.000002
# 6 0.000000 0.000000 0.000000 -0.001619 0.000002 0.033056
#
#
# Mechanical properties :
#
#
# Convention : Reuss Voigt Hill
#
# Bulk Modulus (GPa) = 7.36067 20.56811 13.96439
# Shear Modulus (GPa) = 15.20816 29.15186 22.18001
#
# Velocity S-wave (km/s) = 2.48165 3.43586 2.99698
# Velocity P-wave (km/s) = 3.34547 4.90605 4.19890
#
# Compressibility (1/GPa) = 0.13585719
#
# Stress axis : x y z
#
# Youngs Moduli (GPa) = 17.59918 58.56905 51.98631
#
# Poissons Ratio (x) = -0.40913 -0.45222
# Poissons Ratio (y) = -0.12294 -0.29523
# Poissons Ratio (z) = -0.15309 -0.33261
#
# Static dielectric constant tensor:
#      x y z
#    x 2.031740 0.000000 0.030740 
#    y 0.000000 2.102080 0.000000 
#    z 0.030740 0.000000 1.978990 
# 
# From -- ./inp_files/296675.got.cif
#   From: 2010.05.17/outbox.cif.g08.bks.cpg/sg15_149_cif.got.tgz:296675.got - 2010.06.03 18:47:42.
