data_PCOD9269156
_publ_section_title
;
Structure prediction by ZEFSAII (Michael W. Deem and Ramdas Pophale) SiO2 
 PCOD9269156
Probable space group: C 2/C
;
_chemical_formula_sum "Si O2"
_cell_formula_units_Z 48
_cell_length_a 13.763985
_cell_length_b 18.619465
_cell_length_c 14.123167
_cell_angle_alpha 90.000000
_cell_angle_beta 147.660257
_cell_angle_gamma 90.000000
_cell_volume 1936.187295
_symmetry_space_group_name_H-M "C 2/C"
_symmetry_group_IT_number 15
_symmetry_cell_setting 'monoclinic'
loop_
_space_group_symop_operation_xyz
x,y,z
-x,y,1/2-z
-x,-y,-z
x,-y,1/2+z
1/2+x,1/2+y,z
1/2-x,1/2+y,1/2-z
1/2-x,1/2-y,-z
1/2+x,1/2-y,1/2+z
loop_
_atom_site_type_symbol
_atom_site_label
_atom_site_fract_x
_atom_site_fract_y
_atom_site_fract_z
Si Si1 0.222781 0.841643 0.039717
Si Si2 0.000000 0.939387 0.750000
Si Si3 0.960124 0.667991 0.011428
Si Si4 0.000000 0.362342 0.750000
Si Si5 0.359572 0.553361 0.479482
Si Si6 0.835819 0.779999 0.757031
Si Si7 0.763498 0.067988 0.772801
O O1 0.177969 0.886376 0.907555
O O2 0.018944 0.823782 0.904481
O O3 0.320200 0.766946 0.147126
O O4 0.304775 0.895199 0.185708
O O5 0.951660 0.993760 0.624836
O O6 0.961783 0.682333 0.123765
O O7 0.160290 0.674265 0.134657
O O8 0.848320 0.723735 0.854838
O O9 0.875092 0.589716 0.922323
O O10 0.184503 0.408062 0.879908
O O11 0.538737 0.597735 0.597578
O O12 0.292660 0.513119 0.329419
#
# Coordination Sequence:
#
# PCOD9269156 Si02
#       7
#     8   4   8   4   8   8   8
#     4   9  18  33  55  78 104 139 179 217 264 315
#     4  10  20  34  52  78 108 138 174 226 268 302
#     4  10  21  36  56  79 105 137 177 219 264 315
#     4  12  24  34  54  86 108 132 178 232 268 298
#     4  10  21  36  55  80 110 142 177 216 264 315
#     4   9  19  37  55  75 105 144 179 211 262 330
#     4   9  19  38  58  75 106 150 178 204 262 333
#
# _framework density 24.790990000000001
#
# number of rings (size 3 to 8) (size 9 to 14) (size 15 to 20)
#    0.000    2.333    0.000    2.000    0.000    3.333 
#    0.000    0.000    0.000    0.000    0.000    0.000 
#    0.000    0.000    0.000    0.000    0.000    0.000 
#
# Total GULP energy -133842.416251 kJ/mol
# GULP energy per Si atom -5576.767344 kJ/mol
# Density = 2.473456 g / cm^3
# Si number density = 24.790990 Si / 1000 Ang^3
#
#
#
# Elastic Constant Matrix: (Units=GPa)
#
#
# Indices 1 2 3 4 5 6 
#
# 1 116.2068 20.4638 51.3861 0.0000 -0.9653 0.0000
# 2 20.4638 41.6796 29.1704 0.0000 -2.6362 0.0000
# 3 51.3861 29.1704 122.5750 0.0000 -11.6953 0.0000
# 4 0.0000 0.0000 0.0000 38.6219 0.0000 -19.2940
# 5 -0.9653 -2.6362 -11.6953 0.0000 63.6079 0.0000
# 6 0.0000 0.0000 0.0000 -19.2940 0.0000 13.3844
#
#
#
# Elastic Compliance Matrix: (Units=1/GPa)
#
#
# Indices 1 2 3 4 5 6 
#
# 1 0.010814 -0.002561 -0.003989 0.000000 -0.000675 0.000000
# 2 -0.002561 0.029394 -0.005913 0.000000 0.000092 0.000000
# 3 -0.003989 -0.005913 0.011409 0.000000 0.001792 0.000000
# 4 0.000000 0.000000 0.000000 0.092514 0.000000 0.133361
# 5 -0.000675 0.000092 0.001792 0.000000 0.016044 0.000000
# 6 0.000000 0.000000 0.000000 0.133361 0.000000 0.266957
#
#
# Mechanical properties :
#
#
# Convention : Reuss Voigt Hill
#
# Bulk Modulus (GPa) = 37.46402 53.61131 45.53766
# Shear Modulus (GPa) = 10.84705 35.08558 22.96632
#
# Velocity S-wave (km/s) = 2.09402 3.76607 3.04698
# Velocity P-wave (km/s) = 4.58163 6.37050 5.54863
#
# Compressibility (1/GPa) = 0.02669228
#
# Stress axis : x y z
#
# Youngs Moduli (GPa) = 92.46869 34.02066 87.65375
#
# Poissons Ratio (x) = 0.08712 0.34962
# Poissons Ratio (y) = 0.23680 0.51828
# Poissons Ratio (z) = 0.36883 0.20116
#
# Static dielectric constant tensor:
#      x y z
#    x 1.977750 0.000000 -0.052720 
#    y 0.000000 2.092520 0.000000 
#    z -0.052720 0.000000 1.966260 
# 
# From -- ./inp_files/156858.got.cif
#   From: 2010.05.17/outbox.cif.g08.bks.cpg/sg15_79_cif.got.tgz:156858.got - 2010.06.03 18:47:42.
