data_PCOD9269190
_publ_section_title
;
Structure prediction by ZEFSAII (Michael W. Deem and Ramdas Pophale) SiO2 
 PCOD9269190
Probable space group: C 2/C
;
_chemical_formula_sum "Si O2"
_cell_formula_units_Z 48
_cell_length_a 6.779739
_cell_length_b 18.217274
_cell_length_c 19.131584
_cell_angle_alpha 90.000000
_cell_angle_beta 58.544413
_cell_angle_gamma 90.000000
_cell_volume 2015.668913
_symmetry_space_group_name_H-M "C 2/C"
_symmetry_group_IT_number 15
_symmetry_cell_setting 'monoclinic'
loop_
_space_group_symop_operation_xyz
x,y,z
-x,y,1/2-z
-x,-y,-z
x,-y,1/2+z
1/2+x,1/2+y,z
1/2-x,1/2+y,1/2-z
1/2-x,1/2-y,-z
1/2+x,1/2-y,1/2+z
loop_
_atom_site_type_symbol
_atom_site_label
_atom_site_fract_x
_atom_site_fract_y
_atom_site_fract_z
Si Si1 0.567345 0.310911 0.005381
Si Si2 0.582596 0.146291 0.158187
Si Si3 0.521939 0.992603 0.102042
Si Si4 0.252061 0.224745 0.825005
Si Si5 0.874295 0.029070 0.939382
Si Si6 0.800031 0.936326 0.228275
O O1 0.314250 0.285416 0.080058
O O2 0.608671 0.387386 0.038129
O O3 0.750000 0.250000 0.000000
O O4 0.653580 0.329962 0.910641
O O5 0.500000 0.123695 0.250000
O O6 0.514777 0.078800 0.120707
O O7 0.429511 0.216828 0.169447
O O8 0.332670 0.973376 0.078857
O O9 0.437268 0.952756 0.187533
O O10 0.773869 0.978918 0.020896
O O11 0.500000 0.248904 0.750000
O O12 0.210392 0.146349 0.796632
O O13 0.105025 0.011847 0.852315
O O14 0.000000 0.942403 0.250000
#
# Coordination Sequence:
#
# PCOD9269190 Si02
#       6
#     8   8   8   8   8   8
#     4   8  16  33  55  76 104 141 179 217 263 320
#     4  10  20  35  55  77 107 143 177 217 272 327
#     4   9  17  30  51  77 101 131 176 217 252 309
#     4  10  20  34  53  77 104 136 179 226 264 309
#     4   8  15  29  50  77 101 131 173 212 255 308
#     4   9  17  31  52  75 101 134 170 211 265 321
#
# _framework density 23.813433
#
# number of rings (size 3 to 8) (size 9 to 14) (size 15 to 20)
#    0.000    3.000    0.000    0.500    0.000    4.000 
#    0.000    2.500    0.000    6.000    0.000    0.000 
#    0.000    0.000    0.000    0.000    0.000    0.000 
#
# Total GULP energy -133813.450206 kJ/mol
# GULP energy per Si atom -5575.560425 kJ/mol
# Density = 2.375923 g / cm^3
# Si number density = 23.813433 Si / 1000 Ang^3
#
#
#
# Elastic Constant Matrix: (Units=GPa)
#
#
# Indices 1 2 3 4 5 6 
#
# 1 54.8853 8.6267 50.5508 0.0000 -24.5224 0.0000
# 2 8.6267 78.8509 27.2373 0.0000 -9.2449 0.0000
# 3 50.5508 27.2373 218.2481 0.0000 -40.4129 0.0000
# 4 0.0000 0.0000 0.0000 33.4174 0.0000 -12.3549
# 5 -24.5224 -9.2449 -40.4129 0.0000 40.5091 0.0000
# 6 0.0000 0.0000 0.0000 -12.3549 0.0000 7.6276
#
#
#
# Elastic Compliance Matrix: (Units=1/GPa)
#
#
# Indices 1 2 3 4 5 6 
#
# 1 0.027614 -0.000143 -0.004034 0.000000 0.012659 0.000000
# 2 -0.000143 0.013349 -0.001330 0.000000 0.001632 0.000000
# 3 -0.004034 -0.001330 0.006346 0.000000 0.003586 0.000000
# 4 0.000000 0.000000 0.000000 0.074596 0.000000 0.120828
# 5 0.012659 0.001632 0.003586 0.000000 0.036299 0.000000
# 6 0.000000 0.000000 0.000000 0.120828 0.000000 0.326815
#
#
# Mechanical properties :
#
#
# Convention : Reuss Voigt Hill
#
# Bulk Modulus (GPa) = 27.55345 58.31267 42.93306
# Shear Modulus (GPa) = 9.83996 34.01545 21.92770
#
# Velocity S-wave (km/s) = 2.03496 3.78354 3.03778
# Velocity P-wave (km/s) = 4.13728 6.60510 5.51110
#
# Compressibility (1/GPa) = 0.03629309
#
# Stress axis : x y z
#
# Youngs Moduli (GPa) = 36.21392 74.91302 157.57288
#
# Poissons Ratio (x) = 0.01075 0.63564
# Poissons Ratio (y) = 0.00519 0.20964
# Poissons Ratio (z) = 0.14608 0.09967
#
# Static dielectric constant tensor:
#      x y z
#    x 1.982560 0.000000 -0.014750 
#    y 0.000000 1.821880 0.000000 
#    z -0.014750 0.000000 2.097020 
# 
# From -- ./inp_files/232480.got.cif
#   From: 2010.05.17/outbox.cif.g08.bks.cpg/sg15_117_cif.got.tgz:232480.got - 2010.06.03 18:47:42.
