data_PCOD9269103
_publ_section_title
;
Structure prediction by ZEFSAII (Michael W. Deem and Ramdas Pophale) SiO2 
 PCOD9269103
Probable space group: C 2/C
;
_chemical_formula_sum "Si O2"
_cell_formula_units_Z 64
_cell_length_a 28.793178
_cell_length_b 13.889067
_cell_length_c 8.313218
_cell_angle_alpha 90.000000
_cell_angle_beta 92.602429
_cell_angle_gamma 90.000000
_cell_volume 3321.113375
_symmetry_space_group_name_H-M "C 2/C"
_symmetry_group_IT_number 15
_symmetry_cell_setting 'monoclinic'
loop_
_space_group_symop_operation_xyz
x,y,z
-x,y,1/2-z
-x,-y,-z
x,-y,1/2+z
1/2+x,1/2+y,z
1/2-x,1/2+y,1/2-z
1/2-x,1/2-y,-z
1/2+x,1/2-y,1/2+z
loop_
_atom_site_type_symbol
_atom_site_label
_atom_site_fract_x
_atom_site_fract_y
_atom_site_fract_z
Si Si1 0.357383 0.210486 0.524845
Si Si2 0.674237 0.027048 0.781646
Si Si3 0.302633 0.357505 0.701181
Si Si4 0.051317 0.385737 0.459365
Si Si5 0.788754 0.764501 0.224065
Si Si6 0.053667 0.605619 0.572450
Si Si7 0.648151 0.859652 0.961521
Si Si8 0.220636 0.034790 0.636464
O O1 0.341105 0.110277 0.599322
O O2 0.346370 0.292194 0.656780
O O3 0.410414 0.192195 0.482909
O O4 0.323182 0.236745 0.375315
O O5 0.667957 0.073526 0.607241
O O6 0.726831 0.999402 0.829977
O O7 0.645155 0.931120 0.808051
O O8 0.260543 0.286614 0.747739
O O9 0.310490 0.441944 0.831334
O O10 0.286422 0.415302 0.537115
O O11 0.060874 0.493511 0.525381
O O12 0.054829 0.388968 0.265588
O O13 0.997670 0.364786 0.493130
O O14 0.784422 0.879048 0.234538
O O15 0.815222 0.723369 0.073041
O O16 0.096187 0.665849 0.505978
#
# Coordination Sequence:
#
# PCOD9269103 Si02
#       8
#     8   8   8   8   8   8   8   8
#     4  11  20  37  53  73 104 145 177 209 264 316
#     4  12  20  31  52  75 108 142 178 209 259 308
#     4  11  22  37  54  74 108 142 178 219 259 311
#     4  10  21  34  52  75 107 142 173 212 261 313
#     4  11  23  35  53  77 107 141 178 218 258 310
#     4  10  20  34  50  77 109 136 175 212 258 315
#     4  12  22  31  50  79 106 143 175 216 258 311
#     4  11  22  38  51  77 108 142 182 219 254 304
#
# _framework density 19.270647
#
# number of rings (size 3 to 8) (size 9 to 14) (size 15 to 20)
#    0.000    1.000    6.250    2.250    1.750    1.500 
#    0.000    0.000    0.000    0.000    0.000    0.875 
#    0.000    0.000    0.000    0.000    0.000    0.000 
#
# Total GULP energy -178870.775748 kJ/mol
# GULP energy per Si atom -5589.711742 kJ/mol
# Density = 1.922679 g / cm^3
# Si number density = 19.270647 Si / 1000 Ang^3
#
#
#
# Elastic Constant Matrix: (Units=GPa)
#
#
# Indices 1 2 3 4 5 6 
#
# 1 97.3497 29.4118 21.3780 0.0000 -16.8259 0.0000
# 2 29.4118 76.3964 8.1948 0.0000 -12.3033 0.0000
# 3 21.3780 8.1948 46.6506 0.0000 -10.1108 0.0000
# 4 0.0000 0.0000 0.0000 32.4630 0.0000 -6.5077
# 5 -16.8259 -12.3033 -10.1108 0.0000 27.4895 0.0000
# 6 0.0000 0.0000 0.0000 -6.5077 0.0000 24.9592
#
#
#
# Elastic Compliance Matrix: (Units=1/GPa)
#
#
# Indices 1 2 3 4 5 6 
#
# 1 0.013215 -0.003854 -0.004346 0.000000 0.004765 0.000000
# 2 -0.003854 0.015293 0.000056 0.000000 0.004506 0.000000
# 3 -0.004346 0.000056 0.024826 0.000000 0.006496 0.000000
# 4 0.000000 0.000000 0.000000 0.032503 0.000000 0.008475
# 5 0.004765 0.004506 0.006496 0.000000 0.043700 0.000000
# 6 0.000000 0.000000 0.000000 0.008475 0.000000 0.042275
#
#
# Mechanical properties :
#
#
# Convention : Reuss Voigt Hill
#
# Bulk Modulus (GPa) = 26.99338 37.59623 32.29481
# Shear Modulus (GPa) = 24.94422 27.74316 26.34369
#
# Velocity S-wave (km/s) = 3.60170 3.79840 3.70136
# Velocity P-wave (km/s) = 5.59770 6.22809 5.92129
#
# Compressibility (1/GPa) = 0.03704612
#
# Stress axis : x y z
#
# Youngs Moduli (GPa) = 75.67403 65.38931 40.28112
#
# Poissons Ratio (x) = 0.25200 0.17506
# Poissons Ratio (y) = 0.29164 -0.00227
# Poissons Ratio (z) = 0.32887 -0.00368
#
# Static dielectric constant tensor:
#      x y z
#    x 1.719590 0.000000 -0.005110 
#    y 0.000000 1.677670 0.000000 
#    z -0.005110 0.000000 1.797300 
# 
# From -- ./inp_files/66217.got.cif
#   From: 2010.05.17/outbox.cif.g08.bks.cpg/sg15_34_cif.got.tgz:66217.got - 2010.06.03 18:47:42.
