data_PCOD9269501
_publ_section_title
;
Structure prediction by ZEFSAII (Michael W. Deem and Ramdas Pophale) SiO2 
 PCOD9269501
Probable space group: C 2/C
;
_chemical_formula_sum "Si O2"
_cell_formula_units_Z 40
_cell_length_a 7.371589
_cell_length_b 18.215958
_cell_length_c 16.267818
_cell_angle_alpha 90.000000
_cell_angle_beta 58.991088
_cell_angle_gamma 90.000000
_cell_volume 1872.265494
_symmetry_space_group_name_H-M "C 2/C"
_symmetry_group_IT_number 15
_symmetry_cell_setting 'monoclinic'
loop_
_space_group_symop_operation_xyz
x,y,z
-x,y,1/2-z
-x,-y,-z
x,-y,1/2+z
1/2+x,1/2+y,z
1/2-x,1/2+y,1/2-z
1/2-x,1/2-y,-z
1/2+x,1/2-y,1/2+z
loop_
_atom_site_type_symbol
_atom_site_label
_atom_site_fract_x
_atom_site_fract_y
_atom_site_fract_z
Si Si1 0.121090 0.040307 0.595715
Si Si2 0.013780 0.751338 0.018915
Si Si3 0.031415 0.904014 0.533097
Si Si4 0.153443 0.821977 0.284151
Si Si5 0.002246 0.614339 0.908460
O O1 0.339029 0.052733 0.593112
O O2 0.130565 0.066366 0.497998
O O3 0.961267 0.100340 0.669593
O O4 0.034983 0.957474 0.610579
O O5 0.003711 0.817110 0.954457
O O6 0.861599 0.774579 0.129661
O O7 0.250000 0.750000 0.000000
O O8 0.969813 0.673993 0.988178
O O9 0.270383 0.913195 0.441329
O O10 0.375703 0.842569 0.191991
O O11 0.000000 0.787194 0.250000
#
# Coordination Sequence:
#
# PCOD9269501 Si02
#       5
#     8   8   8   8   8
#     4   9  19  35  55  82 109 147 188 239 284 343
#     4  11  19  35  57  84 114 152 188 233 291 338
#     4  10  20  34  57  82 112 146 190 240 287 334
#     4   9  18  34  60  80 110 151 193 233 283 344
#     4  11  20  36  62  84 111 156 196 233 289 352
#
# _framework density 21.36449
#
# number of rings (size 3 to 8) (size 9 to 14) (size 15 to 20)
#    0.000    2.000    6.000    1.200    0.000    3.200 
#    0.000    0.000   17.600    2.400    0.000    0.000 
#    0.000    0.000    0.000    0.000    0.000    0.000 
#
# Total GULP energy -111535.429452 kJ/mol
# GULP energy per Si atom -5576.771473 kJ/mol
# Density = 2.131586 g / cm^3
# Si number density = 21.364490 Si / 1000 Ang^3
#
#
#
# Elastic Constant Matrix: (Units=GPa)
#
#
# Indices 1 2 3 4 5 6 
#
# 1 84.9251 7.3221 -0.5868 0.0000 -2.1973 0.0000
# 2 7.3221 61.5491 17.4513 0.0000 17.4531 0.0000
# 3 -0.5868 17.4513 79.1656 0.0000 -0.0346 0.0000
# 4 0.0000 0.0000 0.0000 19.9249 0.0000 10.4740
# 5 -2.1973 17.4531 -0.0346 0.0000 32.3893 0.0000
# 6 0.0000 0.0000 0.0000 10.4740 0.0000 39.3011
#
#
#
# Elastic Compliance Matrix: (Units=1/GPa)
#
#
# Indices 1 2 3 4 5 6 
#
# 1 0.012015 -0.002149 0.000564 0.000000 0.001974 0.000000
# 2 -0.002149 0.021093 -0.004671 0.000000 -0.011517 0.000000
# 3 0.000564 -0.004671 0.013667 0.000000 0.002570 0.000000
# 4 0.000000 0.000000 0.000000 0.058365 0.000000 -0.015555
# 5 0.001974 -0.011517 0.002570 0.000000 0.037217 0.000000
# 6 0.000000 0.000000 0.000000 -0.015555 0.000000 0.029590
#
#
# Mechanical properties :
#
#
# Convention : Reuss Voigt Hill
#
# Bulk Modulus (GPa) = 29.18602 30.44591 29.81596
# Shear Modulus (GPa) = 25.52590 31.75328 28.63959
#
# Velocity S-wave (km/s) = 3.46031 3.85939 3.66529
# Velocity P-wave (km/s) = 5.44570 5.84307 5.64788
#
# Compressibility (1/GPa) = 0.03426298
#
# Stress axis : x y z
#
# Youngs Moduli (GPa) = 83.22716 47.40948 73.17078
#
# Poissons Ratio (x) = 0.10188 -0.04124
# Poissons Ratio (y) = 0.17884 0.34176
# Poissons Ratio (z) = -0.04691 0.22143
#
# Static dielectric constant tensor:
#      x y z
#    x 1.848710 0.000000 0.033670 
#    y 0.000000 1.825960 0.000000 
#    z 0.033670 0.000000 1.788970 
# 
# From -- ./inp_files/135125.got.cif
#   From: 2010.05.17/outbox.cif.g08.bks.cpg/sg15_68_cif.got.tgz:135125.got - 2010.06.03 18:47:42.
