data_PCOD9269848
_publ_section_title
;
Structure prediction by ZEFSAII (Michael W. Deem and Ramdas Pophale) SiO2 
 PCOD9269848
Probable space group: C 2/C
;
_chemical_formula_sum "Si O2"
_cell_formula_units_Z 44
_cell_length_a 21.849349
_cell_length_b 9.891690
_cell_length_c 8.769374
_cell_angle_alpha 90.000000
_cell_angle_beta 118.200682
_cell_angle_gamma 90.000000
_cell_volume 1670.322345
_symmetry_space_group_name_H-M "C 2/C"
_symmetry_group_IT_number 15
_symmetry_cell_setting 'monoclinic'
loop_
_space_group_symop_operation_xyz
x,y,z
-x,y,1/2-z
-x,-y,-z
x,-y,1/2+z
1/2+x,1/2+y,z
1/2-x,1/2+y,1/2-z
1/2-x,1/2-y,-z
1/2+x,1/2-y,1/2+z
loop_
_atom_site_type_symbol
_atom_site_label
_atom_site_fract_x
_atom_site_fract_y
_atom_site_fract_z
Si Si1 0.572429 0.991490 0.333304
Si Si2 0.750000 0.250000 0.000000
Si Si3 0.377507 0.531991 0.314367
Si Si4 0.717060 0.383200 0.534298
Si Si5 0.595540 0.697565 0.436416
Si Si6 0.832584 0.434096 0.314006
O O1 0.500000 0.067677 0.250000
O O2 0.563549 0.846250 0.406453
O O3 0.595916 0.956732 0.191617
O O4 0.640293 0.062861 0.483556
O O5 0.822064 0.227437 0.984578
O O6 0.796348 0.306663 0.196236
O O7 0.350219 0.610405 0.433152
O O8 0.420894 0.617679 0.241712
O O9 0.413391 0.399225 0.428453
O O10 0.309444 0.480892 0.135998
O O11 0.750000 0.250000 0.500000
O O12 0.777681 0.450875 0.705762
#
# Coordination Sequence:
#
# PCOD9269848 Si02
#       6
#     8   4   8   8   8   8
#     4  11  25  44  63  90 129 185 231 263 315 387
#     4  10  20  34  62  92 128 162 200 258 356 376
#     4  10  20  36  54  92 128 164 209 258 344 398
#     4  11  22  33  58  93 132 159 199 257 336 408
#     4  10  22  36  62  87 134 170 213 277 321 400
#     4  11  22  39  64  95 129 170 209 277 326 396
#
# _framework density 26.342220000000001
#
# number of rings (size 3 to 8) (size 9 to 14) (size 15 to 20)
#    0.000    1.455    3.636    2.727    5.091    1.455 
#    0.000    0.909    0.000    0.000    0.000    0.000 
#    0.000    0.000    0.000    0.000    0.000    0.000 
#
# Total GULP energy -122541.824320 kJ/mol
# GULP energy per Si atom -5570.082924 kJ/mol
# Density = 2.628226 g / cm^3
# Si number density = 26.342220 Si / 1000 Ang^3
#
#
#
# Elastic Constant Matrix: (Units=GPa)
#
#
# Indices 1 2 3 4 5 6 
#
# 1 38.2585 -6.8101 37.7859 0.0000 14.6885 0.0000
# 2 -6.8101 90.7496 45.8309 0.0000 -6.8017 0.0000
# 3 37.7859 45.8309 126.2669 0.0000 -10.0477 0.0000
# 4 0.0000 0.0000 0.0000 41.0306 0.0000 -16.7012
# 5 14.6885 -6.8017 -10.0477 0.0000 37.4007 0.0000
# 6 0.0000 0.0000 0.0000 -16.7012 0.0000 20.1530
#
#
#
# Elastic Compliance Matrix: (Units=1/GPa)
#
#
# Indices 1 2 3 4 5 6 
#
# 1 0.074035 0.019050 -0.031787 0.000000 -0.034151 0.000000
# 2 0.019050 0.018444 -0.013002 0.000000 -0.007620 0.000000
# 3 -0.031787 -0.013002 0.023458 0.000000 0.016422 0.000000
# 4 0.000000 0.000000 0.000000 0.036778 0.000000 0.030479
# 5 -0.034151 -0.007620 0.016422 0.000000 0.043176 0.000000
# 6 0.000000 0.000000 0.000000 0.030479 0.000000 0.074879
#
#
# Mechanical properties :
#
#
# Convention : Reuss Voigt Hill
#
# Bulk Modulus (GPa) = 15.51386 45.43206 30.47296
# Shear Modulus (GPa) = 14.54611 31.61475 23.08043
#
# Velocity S-wave (km/s) = 2.35244 3.46808 2.96324
# Velocity P-wave (km/s) = 3.64428 5.77244 4.82710
#
# Compressibility (1/GPa) = 0.06445850
#
# Stress axis : x y z
#
# Youngs Moduli (GPa) = 13.50710 54.21855 42.62918
#
# Poissons Ratio (x) = -1.03284 1.35507
# Poissons Ratio (y) = -0.25730 0.55425
# Poissons Ratio (z) = 0.42935 0.70493
#
# Static dielectric constant tensor:
#      x y z
#    x 2.026850 0.000000 -0.002330 
#    y 0.000000 2.476870 0.000000 
#    z -0.002330 0.000000 2.133290 
# 
# From -- ./inp_files/60933.got.cif
#   From: 2010.05.17/outbox.cif.g08.bks.cpg/sg15_31_cif.got.tgz:60933.got - 2010.06.03 18:47:42.
