data_PCOD9269012
_publ_section_title
;
Structure prediction by ZEFSAII (Michael W. Deem and Ramdas Pophale) SiO2 
 PCOD9269012
Probable space group: C 2/C
;
_chemical_formula_sum "Si O2"
_cell_formula_units_Z 60
_cell_length_a 21.450180
_cell_length_b 18.245195
_cell_length_c 7.808016
_cell_angle_alpha 90.000000
_cell_angle_beta 83.319209
_cell_angle_gamma 90.000000
_cell_volume 3035.016812
_symmetry_space_group_name_H-M "C 2/C"
_symmetry_group_IT_number 15
_symmetry_cell_setting 'monoclinic'
loop_
_space_group_symop_operation_xyz
x,y,z
-x,y,1/2-z
-x,-y,-z
x,-y,1/2+z
1/2+x,1/2+y,z
1/2-x,1/2+y,1/2-z
1/2-x,1/2-y,-z
1/2+x,1/2-y,1/2+z
loop_
_atom_site_type_symbol
_atom_site_label
_atom_site_fract_x
_atom_site_fract_y
_atom_site_fract_z
Si Si1 0.613973 0.735076 0.386813
Si Si2 0.178196 0.068417 0.703113
Si Si3 0.314142 0.403808 0.702190
Si Si4 0.500000 0.820001 0.250000
Si Si5 0.727214 0.816929 0.231174
Si Si6 0.932224 0.828784 0.235096
Si Si7 0.692005 0.178380 0.350016
Si Si8 0.550506 0.170990 0.383361
O O1 0.639947 0.664394 0.275416
O O2 0.556980 0.772689 0.307977
O O3 0.672718 0.791402 0.377605
O O4 0.591500 0.709028 0.580564
O O5 0.182017 0.086957 0.502302
O O6 0.241420 0.103944 0.759212
O O7 0.119223 0.112117 0.801188
O O8 0.170774 0.982105 0.724394
O O9 0.245144 0.378577 0.778366
O O10 0.472526 0.860092 0.427202
O O11 0.783479 0.757089 0.228335
O O12 0.696271 0.811983 0.053812
O O13 0.944522 0.760356 0.105473
O O14 0.000000 0.863867 0.250000
O O15 0.622779 0.152558 0.321254
O O16 0.500000 0.155362 0.250000
#
# Coordination Sequence:
#
# PCOD9269012 Si02
#       8
#     8   8   8   4   8   8   8   8
#     4  10  21  36  54  87 114 152 192 241 290 342
#     4  11  22  39  57  81 116 158 193 242 285 348
#     4  10  24  37  56  81 118 150 199 239 292 341
#     4  12  20  34  56  86 122 152 192 234 292 346
#     4  10  20  33  60  83 114 145 194 244 291 337
#     4  10  20  36  55  81 121 155 193 235 284 345
#     4  10  20  36  56  88 111 149 189 244 291 340
#     4  11  21  34  58  88 123 150 188 241 288 351
#
# _framework density 19.769248999999999
#
# number of rings (size 3 to 8) (size 9 to 14) (size 15 to 20)
#    0.000    1.600    5.333    0.800    1.867    2.667 
#    1.200    1.333    0.000    0.000    1.733    2.800 
#    2.000    0.000    0.000    0.000    0.000    0.000 
#
# Total GULP energy -167426.181707 kJ/mol
# GULP energy per Si atom -5580.872724 kJ/mol
# Density = 1.972425 g / cm^3
# Si number density = 19.769249 Si / 1000 Ang^3
#
#
#
# Elastic Constant Matrix: (Units=GPa)
#
#
# Indices 1 2 3 4 5 6 
#
# 1 91.3846 -7.9371 12.7095 0.0000 -19.6532 0.0000
# 2 -7.9371 25.8684 -13.8164 0.0000 -8.0374 0.0000
# 3 12.7095 -13.8164 65.3317 0.0000 -11.4982 0.0000
# 4 0.0000 0.0000 0.0000 18.2681 0.0000 1.0585
# 5 -19.6532 -8.0374 -11.4982 0.0000 30.9341 0.0000
# 6 0.0000 0.0000 0.0000 1.0585 0.0000 13.2309
#
#
#
# Elastic Compliance Matrix: (Units=1/GPa)
#
#
# Indices 1 2 3 4 5 6 
#
# 1 0.013996 0.008444 0.001085 0.000000 0.011489 0.000000
# 2 0.008444 0.057298 0.015022 0.000000 0.025836 0.000000
# 3 0.001085 0.015022 0.020416 0.000000 0.012181 0.000000
# 4 0.000000 0.000000 0.000000 0.054995 0.000000 -0.004400
# 5 0.011489 0.025836 0.012181 0.000000 0.050867 0.000000
# 6 0.000000 0.000000 0.000000 -0.004400 0.000000 0.075932
#
#
# Mechanical properties :
#
#
# Convention : Reuss Voigt Hill
#
# Bulk Modulus (GPa) = 7.10170 18.27743 12.68956
# Shear Modulus (GPa) = 18.42699 25.26186 21.84443
#
# Velocity S-wave (km/s) = 3.05635 3.57856 3.32772
# Velocity P-wave (km/s) = 4.00689 5.13228 4.60410
#
# Compressibility (1/GPa) = 0.14081128
#
# Stress axis : x y z
#
# Youngs Moduli (GPa) = 71.44852 17.45252 48.98096
#
# Poissons Ratio (x) = -0.14736 -0.05314
# Poissons Ratio (y) = -0.60328 -0.73579
# Poissons Ratio (z) = -0.07752 -0.26217
#
# Static dielectric constant tensor:
#      x y z
#    x 1.720400 0.000000 -0.004810 
#    y 0.000000 1.712280 0.000000 
#    z -0.004810 0.000000 1.750570 
# 
# From -- ./inp_files/57491.got.cif
#   From: 2010.05.17/outbox.cif.g08.bks.cpg/sg15_29_cif.got.tgz:57491.got - 2010.06.03 18:47:42.
