data_PCOD9269921
_publ_section_title
;
Structure prediction by ZEFSAII (Michael W. Deem and Ramdas Pophale) SiO2 
 PCOD9269921
Probable space group: C 2/C
;
_chemical_formula_sum "Si O2"
_cell_formula_units_Z 44
_cell_length_a 17.047725
_cell_length_b 11.989325
_cell_length_c 9.386895
_cell_angle_alpha 90.000000
_cell_angle_beta 88.569272
_cell_angle_gamma 90.000000
_cell_volume 1917.996050
_symmetry_space_group_name_H-M "C 2/C"
_symmetry_group_IT_number 15
_symmetry_cell_setting 'monoclinic'
loop_
_space_group_symop_operation_xyz
x,y,z
-x,y,1/2-z
-x,-y,-z
x,-y,1/2+z
1/2+x,1/2+y,z
1/2-x,1/2+y,1/2-z
1/2-x,1/2-y,-z
1/2+x,1/2-y,1/2+z
loop_
_atom_site_type_symbol
_atom_site_label
_atom_site_fract_x
_atom_site_fract_y
_atom_site_fract_z
Si Si1 0.500000 0.614802 0.750000
Si Si2 0.867153 0.953988 0.697958
Si Si3 0.130311 0.773125 0.045814
Si Si4 0.371556 0.731087 0.431481
Si Si5 0.516148 0.113395 0.916796
Si Si6 0.229551 0.165083 0.789670
O O1 0.442056 0.532749 0.666743
O O2 0.440735 0.686603 0.847499
O O3 0.856505 0.871436 0.567600
O O4 0.882529 0.880058 0.837573
O O5 0.793842 0.035979 0.728439
O O6 0.203988 0.768086 0.149457
O O7 0.099454 0.664733 0.963328
O O8 0.452267 0.792250 0.458057
O O9 0.316727 0.810922 0.337358
O O10 0.324868 0.707325 0.577751
O O11 0.500000 0.095905 0.750000
O O12 0.500000 0.000000 0.000000
#
# Coordination Sequence:
#
# PCOD9269921 Si02
#       6
#     4   8   8   8   8   8
#     4  10  20  34  68  98 128 164 202 276 336 382
#     4  11  20  40  65  98 129 165 220 268 333 386
#     4  11  22  41  67  97 129 167 227 273 326 395
#     4  11  24  46  64  97 140 170 225 271 333 404
#     4  12  27  46  67  96 132 181 222 276 330 399
#     4  10  24  41  68  97 134 180 210 282 334 392
#
# _framework density 22.940608999999998
#
# number of rings (size 3 to 8) (size 9 to 14) (size 15 to 20)
#    0.000    1.091    1.818    6.000    3.818    2.182 
#    6.545    0.000    0.000    0.000    0.000    0.000 
#    0.000    0.000    0.000    0.000    0.000    0.000 
#
# Total GULP energy -123155.555707 kJ/mol
# GULP energy per Si atom -5597.979805 kJ/mol
# Density = 2.288840 g / cm^3
# Si number density = 22.940609 Si / 1000 Ang^3
#
#
#
# Elastic Constant Matrix: (Units=GPa)
#
#
# Indices 1 2 3 4 5 6 
#
# 1 43.1862 5.2799 10.6012 0.0000 24.5140 0.0000
# 2 5.2799 94.4917 24.9413 0.0000 16.1724 0.0000
# 3 10.6012 24.9413 127.0767 0.0000 12.3024 0.0000
# 4 0.0000 0.0000 0.0000 40.0711 0.0000 8.2250
# 5 24.5140 16.1724 12.3024 0.0000 49.6494 0.0000
# 6 0.0000 0.0000 0.0000 8.2250 0.0000 30.5609
#
#
#
# Elastic Compliance Matrix: (Units=1/GPa)
#
#
# Indices 1 2 3 4 5 6 
#
# 1 0.032492 0.001315 -0.001408 0.000000 -0.016122 0.000000
# 2 0.001315 0.011723 -0.002027 0.000000 -0.003966 0.000000
# 3 -0.001408 -0.002027 0.008456 0.000000 -0.000740 0.000000
# 4 0.000000 0.000000 0.000000 0.026415 0.000000 -0.007109
# 5 -0.016122 -0.003966 -0.000740 0.000000 0.029577 0.000000
# 6 0.000000 0.000000 0.000000 -0.007109 0.000000 0.034635
#
#
# Mechanical properties :
#
#
# Convention : Reuss Voigt Hill
#
# Bulk Modulus (GPa) = 20.64721 38.48884 29.56803
# Shear Modulus (GPa) = 30.54734 38.98509 34.76621
#
# Velocity S-wave (km/s) = 3.65305 4.12684 3.89715
# Velocity P-wave (km/s) = 5.17811 6.28663 5.75911
#
# Compressibility (1/GPa) = 0.04843270
#
# Stress axis : x y z
#
# Youngs Moduli (GPa) = 30.77690 85.30124 118.25729
#
# Poissons Ratio (x) = -0.11221 0.16650
# Poissons Ratio (y) = -0.04048 0.23967
# Poissons Ratio (z) = 0.04333 0.17288
#
# Static dielectric constant tensor:
#      x y z
#    x 1.850610 0.000000 0.009660 
#    y 0.000000 1.823900 0.000000 
#    z 0.009660 0.000000 1.882590 
# 
# From -- ./inp_files/54478.got.cif
#   From: 2010.05.17/outbox.cif.g08.bks.cpg/sg15_28_cif.got.tgz:54478.got - 2010.06.03 18:47:42.
