data_PCOD9269121
_publ_section_title
;
Structure prediction by ZEFSAII (Michael W. Deem and Ramdas Pophale) SiO2 
 PCOD9269121
Probable space group: C 2/C
;
_chemical_formula_sum "Si O2"
_cell_formula_units_Z 60
_cell_length_a 9.237053
_cell_length_b 10.672478
_cell_length_c 21.700114
_cell_angle_alpha 90.000000
_cell_angle_beta 76.390340
_cell_angle_gamma 90.000000
_cell_volume 2079.178798
_symmetry_space_group_name_H-M "C 2/C"
_symmetry_group_IT_number 15
_symmetry_cell_setting 'monoclinic'
loop_
_space_group_symop_operation_xyz
x,y,z
-x,y,1/2-z
-x,-y,-z
x,-y,1/2+z
1/2+x,1/2+y,z
1/2-x,1/2+y,1/2-z
1/2-x,1/2-y,-z
1/2+x,1/2-y,1/2+z
loop_
_atom_site_type_symbol
_atom_site_label
_atom_site_fract_x
_atom_site_fract_y
_atom_site_fract_z
Si Si1 0.921377 0.934851 0.386313
Si Si2 0.230281 0.774756 0.713049
Si Si3 0.500000 0.493017 0.750000
Si Si4 0.148257 0.862246 0.984029
Si Si5 0.772552 0.787967 0.644400
Si Si6 0.877163 0.406302 0.451055
Si Si7 0.805975 0.331654 0.581879
Si Si8 0.573457 0.970837 0.179054
O O1 0.971166 0.901528 0.451247
O O2 0.820064 0.818464 0.378768
O O3 0.816023 0.056970 0.401381
O O4 0.024037 0.944150 0.314530
O O5 0.232316 0.739724 0.784662
O O6 0.354869 0.802607 0.647966
O O7 0.135398 0.664064 0.692679
O O8 0.140493 0.904154 0.726408
O O9 0.099339 0.821492 0.919353
O O10 0.262505 0.978500 0.968661
O O11 0.250000 0.750000 0.000000
O O12 0.693580 0.921825 0.656934
O O13 0.922488 0.371363 0.516759
O O14 0.781309 0.289126 0.435344
O O15 0.990551 0.442789 0.383686
O O16 0.500000 0.016846 0.250000
#
# Coordination Sequence:
#
# PCOD9269121 Si02
#       8
#     8   8   4   8   8   8   8   8
#     4   9  18  32  54  76 103 136 178 216 263 313
#     4  10  20  34  51  77 106 138 174 216 264 315
#     4  10  20  34  52  78 106 138 172 220 266 316
#     4   8  15  31  50  77 101 138 180 216 256 316
#     4  10  21  33  55  78 104 138 179 217 258 317
#     4   8  14  28  50  74  96 134 180 212 248 310
#     4   8  15  28  50  74  97 132 177 217 246 306
#     4  10  20  34  52  76 106 137 171 216 268 316
#
# _framework density 28.857547
#
# number of rings (size 3 to 8) (size 9 to 14) (size 15 to 20)
#    0.000    2.933    0.667    0.000    4.667    0.000 
#    0.000    0.667    0.000    2.400    0.000    0.000 
#    0.000    0.000    0.000    0.000    0.000    0.000 
#
# Total GULP energy -167551.919650 kJ/mol
# GULP energy per Si atom -5585.063988 kJ/mol
# Density = 2.879187 g / cm^3
# Si number density = 28.857547 Si / 1000 Ang^3
#
#
#
# Elastic Constant Matrix: (Units=GPa)
#
#
# Indices 1 2 3 4 5 6 
#
# 1 67.5727 28.5408 41.9431 0.0000 0.0017 0.0000
# 2 28.5408 134.5344 73.0018 0.0000 -5.1291 0.0000
# 3 41.9431 73.0018 360.0378 0.0000 -5.4227 0.0000
# 4 0.0000 0.0000 0.0000 29.5911 0.0000 3.6666
# 5 0.0017 -5.1291 -5.4227 0.0000 34.9371 0.0000
# 6 0.0000 0.0000 0.0000 3.6666 0.0000 14.1673
#
#
#
# Elastic Compliance Matrix: (Units=1/GPa)
#
#
# Indices 1 2 3 4 5 6 
#
# 1 0.016868 -0.002844 -0.001398 0.000000 -0.000635 0.000000
# 2 -0.002844 0.008864 -0.001450 0.000000 0.001076 0.000000
# 3 -0.001398 -0.001450 0.003239 0.000000 0.000290 0.000000
# 4 0.000000 0.000000 0.000000 0.034914 0.000000 -0.009036
# 5 -0.000635 0.001076 0.000290 0.000000 0.028826 0.000000
# 6 0.000000 0.000000 0.000000 -0.009036 0.000000 0.072923
#
#
# Mechanical properties :
#
#
# Convention : Reuss Voigt Hill
#
# Bulk Modulus (GPa) = 56.85998 94.34625 75.60312
# Shear Modulus (GPa) = 27.34041 43.64972 35.49507
#
# Velocity S-wave (km/s) = 3.08137 3.89343 3.51095
# Velocity P-wave (km/s) = 5.69265 7.27849 6.53386
#
# Compressibility (1/GPa) = 0.01758706
#
# Stress axis : x y z
#
# Youngs Moduli (GPa) = 59.28428 112.81434 308.76930
#
# Poissons Ratio (x) = 0.32085 0.43164
# Poissons Ratio (y) = 0.16861 0.44764
# Poissons Ratio (z) = 0.08288 0.16355
#
# Static dielectric constant tensor:
#      x y z
#    x 2.407990 0.000000 -0.137880 
#    y 0.000000 2.171690 0.000000 
#    z -0.137880 0.000000 2.649590 
# 
# From -- ./inp_files/204009.got.cif
#   From: 2010.05.17/outbox.cif.g08.bks.cpg/sg15_103_cif.got.tgz:204009.got - 2010.06.03 18:47:42.
