data_PCOD9269336
_publ_section_title
;
Structure prediction by ZEFSAII (Michael W. Deem and Ramdas Pophale) SiO2 
 PCOD9269336
Probable space group: C 2/C
;
_chemical_formula_sum "Si O2"
_cell_formula_units_Z 60
_cell_length_a 17.415056
_cell_length_b 29.148906
_cell_length_c 5.052206
_cell_angle_alpha 90.000000
_cell_angle_beta 112.630033
_cell_angle_gamma 90.000000
_cell_volume 2367.194578
_symmetry_space_group_name_H-M "C 2/C"
_symmetry_group_IT_number 15
_symmetry_cell_setting 'monoclinic'
loop_
_space_group_symop_operation_xyz
x,y,z
-x,y,1/2-z
-x,-y,-z
x,-y,1/2+z
1/2+x,1/2+y,z
1/2-x,1/2+y,1/2-z
1/2-x,1/2-y,-z
1/2+x,1/2-y,1/2+z
loop_
_atom_site_type_symbol
_atom_site_label
_atom_site_fract_x
_atom_site_fract_y
_atom_site_fract_z
Si Si1 0.428832 0.384976 0.356487
Si Si2 0.412289 0.162967 0.062116
Si Si3 0.674728 0.281573 0.801084
Si Si4 0.218636 0.829932 0.352120
Si Si5 0.000000 0.798035 0.750000
Si Si6 0.691637 0.974008 0.363761
Si Si7 0.890045 0.028156 0.140568
Si Si8 0.585590 0.104201 0.935197
O O1 0.500000 0.400609 0.250000
O O2 0.334184 0.374871 0.126884
O O3 0.463737 0.334794 0.490966
O O4 0.418022 0.422535 0.571017
O O5 0.500000 0.188069 0.250000
O O6 0.415904 0.119218 0.264951
O O7 0.317881 0.177936 0.998856
O O8 0.413919 0.148549 0.757821
O O9 0.682310 0.291714 0.502634
O O10 0.579453 0.269699 0.748996
O O11 0.750000 0.250000 0.000000
O O12 0.694623 0.325826 0.011076
O O13 0.790465 0.971655 0.499793
O O14 0.659809 0.926748 0.438615
O O15 0.663922 0.013544 0.532244
O O16 0.914834 0.989211 0.961278
O O17 0.500000 0.078934 0.750000
#
# Coordination Sequence:
#
# PCOD9269336 Si02
#       8
#     8   8   8   8   4   8   8   8
#     4  11  23  41  68  92 132 177 229 280 328 392
#     4  10  21  38  59  89 126 157 206 268 314 384
#     4  11  24  45  70 101 138 170 211 271 322 392
#     4  11  23  42  69  99 129 175 225 263 327 398
#     4  10  24  46  68 104 136 174 232 264 330 400
#     4  10  20  35  51  75 112 155 207 266 325 397
#     4  10  24  39  57  88 128 171 223 281 341 388
#     4  10  20  34  55  82 114 159 205 266 336 379
#
# _framework density 25.346461000000001
#
# number of rings (size 3 to 8) (size 9 to 14) (size 15 to 20)
#    0.000    1.600    1.333    2.800    1.867    4.267 
#    2.400    0.000    0.000    0.000    0.000    0.000 
#    0.000    0.000    0.000    0.000    0.000    0.000 
#
# Total GULP energy -167503.348469 kJ/mol
# GULP energy per Si atom -5583.444949 kJ/mol
# Density = 2.528877 g / cm^3
# Si number density = 25.346461 Si / 1000 Ang^3
#
#
#
# Elastic Constant Matrix: (Units=GPa)
#
#
# Indices 1 2 3 4 5 6 
#
# 1 199.9303 35.5202 33.4346 0.0000 6.8320 0.0000
# 2 35.5202 55.8617 17.6848 0.0000 1.2203 0.0000
# 3 33.4346 17.6848 76.2545 0.0000 -8.3022 0.0000
# 4 0.0000 0.0000 0.0000 -17.0962 0.0000 -4.9017
# 5 6.8320 1.2203 -8.3022 0.0000 43.1891 0.0000
# 6 0.0000 0.0000 0.0000 -4.9017 0.0000 15.2977
#
#
#
# Elastic Compliance Matrix: (Units=1/GPa)
#
#
# Indices 1 2 3 4 5 6 
#
# 1 0.005933 -0.003108 -0.002016 0.000000 -0.001238 0.000000
# 2 -0.003108 0.021035 -0.003603 0.000000 -0.000795 0.000000
# 3 -0.002016 -0.003603 0.015197 0.000000 0.003342 0.000000
# 4 0.000000 0.000000 0.000000 -0.053571 0.000000 -0.017165
# 5 -0.001238 -0.000795 0.003342 0.000000 0.024015 0.000000
# 6 0.000000 0.000000 0.000000 -0.017165 0.000000 0.059869
#
#
# Mechanical properties :
#
#
# Convention : Reuss Voigt Hill
#
# Bulk Modulus (GPa) = 40.46256 56.14731 48.30493
# Shear Modulus (GPa) = 50.93319 24.63857 37.78588
#
# Velocity S-wave (km/s) = 4.48758 3.12119 3.86524
# Velocity P-wave (km/s) = 6.54597 5.93204 6.24655
#
# Compressibility (1/GPa) = 0.02471420
#
# Stress axis : x y z
#
# Youngs Moduli (GPa) = 168.54255 47.53937 65.80211
#
# Poissons Ratio (x) = 0.14773 0.13263
# Poissons Ratio (y) = 0.52375 0.23705
# Poissons Ratio (z) = 0.33971 0.17126
#
# Static dielectric constant tensor:
#      x y z
#    x 2.257130 0.000000 0.017060 
#    y 0.000000 2.032180 0.000000 
#    z 0.017060 0.000000 1.999370 
# 
# From -- ./inp_files/12193.got.cif
#   From: 2010.05.17/outbox.cif.g08.bks.cpg/sg15_7_cif.got.tgz:12193.got - 2010.06.03 18:47:42.
