data_PCOD9269998
_publ_section_title
;
Structure prediction by ZEFSAII (Michael W. Deem and Ramdas Pophale) SiO2 
 PCOD9269998
Probable space group: C 2/C
;
_chemical_formula_sum "Si O2"
_cell_formula_units_Z 64
_cell_length_a 26.599850
_cell_length_b 11.943242
_cell_length_c 11.672590
_cell_angle_alpha 90.000000
_cell_angle_beta 103.624696
_cell_angle_gamma 90.000000
_cell_volume 3603.895265
_symmetry_space_group_name_H-M "C 2/C"
_symmetry_group_IT_number 15
_symmetry_cell_setting 'monoclinic'
loop_
_space_group_symop_operation_xyz
x,y,z
-x,y,1/2-z
-x,-y,-z
x,-y,1/2+z
1/2+x,1/2+y,z
1/2-x,1/2+y,1/2-z
1/2-x,1/2-y,-z
1/2+x,1/2-y,1/2+z
loop_
_atom_site_type_symbol
_atom_site_label
_atom_site_fract_x
_atom_site_fract_y
_atom_site_fract_z
Si Si1 0.308819 0.859860 0.696507
Si Si2 0.319210 0.252888 0.641806
Si Si3 0.811023 0.081543 0.342344
Si Si4 0.003721 0.602771 0.625774
Si Si5 0.124014 0.575504 0.707407
Si Si6 0.703831 0.326505 0.124214
Si Si7 0.475130 0.853918 0.612209
Si Si8 0.138527 0.725183 0.498627
O O1 0.249086 0.895297 0.662056
O O2 0.314057 0.764715 0.794514
O O3 0.324810 0.810100 0.584080
O O4 0.345887 0.963131 0.747650
O O5 0.321817 0.360574 0.725724
O O6 0.365592 0.166845 0.688192
O O7 0.315959 0.292913 0.511139
O O8 0.266480 0.185715 0.647446
O O9 0.846779 0.152031 0.448277
O O10 0.815455 0.948744 0.350869
O O11 0.063370 0.560480 0.654658
O O12 0.996573 0.663182 0.497943
O O13 0.000000 0.660358 0.750000
O O14 0.969343 0.489931 0.612329
O O15 0.146437 0.637991 0.607374
O O16 0.500000 0.825193 0.750000
O O17 0.420556 0.791491 0.571833
#
# Coordination Sequence:
#
# PCOD9269998 Si02
#       8
#     8   8   8   8   8   8   8   8
#     4  11  21  32  54  80 107 145 191 221 268 331
#     4   9  20  37  51  75 110 149 183 228 275 313
#     4  10  21  36  54  72 110 150 188 231 267 324
#     4   9  17  31  53  79 111 147 169 217 291 345
#     4  10  20  35  53  82 118 144 175 228 279 332
#     4  10  21  35  52  76 105 151 190 223 267 313
#     4   9  17  33  50  77 111 138 173 224 283 335
#     4  10  22  35  53  81 110 147 182 223 284 329
#
# _framework density 17.758562999999999
#
# number of rings (size 3 to 8) (size 9 to 14) (size 15 to 20)
#    0.000    2.250    1.250    1.875    3.500    1.000 
#    2.250    0.000    0.000    0.000    0.000    4.375 
#    0.000    0.000    0.000    0.000    0.000    0.000 
#
# Total GULP energy -178340.944194 kJ/mol
# GULP energy per Si atom -5573.154506 kJ/mol
# Density = 1.771814 g / cm^3
# Si number density = 17.758563 Si / 1000 Ang^3
#
#
#
# Elastic Constant Matrix: (Units=GPa)
#
#
# Indices 1 2 3 4 5 6 
#
# 1 40.8928 22.8042 22.4568 0.0000 9.3209 0.0000
# 2 22.8042 97.8500 33.7004 0.0000 9.2049 0.0000
# 3 22.4568 33.7004 119.2536 0.0000 4.0354 0.0000
# 4 0.0000 0.0000 0.0000 5794.6096 0.0000 1757.6874
# 5 9.3209 9.2049 4.0354 0.0000 32.8245 0.0000
# 6 0.0000 0.0000 0.0000 1757.6874 0.0000 543.5547
#
#
#
# Elastic Compliance Matrix: (Units=1/GPa)
#
#
# Indices 1 2 3 4 5 6 
#
# 1 0.031213 -0.005186 -0.004179 0.000000 -0.006895 0.000000
# 2 -0.005186 0.012444 -0.002482 0.000000 -0.001712 0.000000
# 3 -0.004179 -0.002482 0.009851 0.000000 0.000672 0.000000
# 4 0.000000 0.000000 0.000000 0.009026 0.000000 -0.029187
# 5 -0.006895 -0.001712 0.000672 0.000000 0.032820 0.000000
# 6 0.000000 0.000000 0.000000 -0.029187 0.000000 0.096220
#
#
# Mechanical properties :
#
#
# Convention : Reuss Voigt Hill
#
# Bulk Modulus (GPa) = 33.54158 46.21325 39.87741
# Shear Modulus (GPa) = 22.20174 1286.13343 654.16759
#
# Velocity S-wave (km/s) = 3.53965 26.94077 19.21372
# Velocity P-wave (km/s) = 5.96943 31.52491 22.68759
#
# Compressibility (1/GPa) = 0.02981374
#
# Stress axis : x y z
#
# Youngs Moduli (GPa) = 32.03805 80.35791 101.51146
#
# Poissons Ratio (x) = 0.41677 0.42419
# Poissons Ratio (y) = 0.16616 0.25196
# Poissons Ratio (z) = 0.13388 0.19946
#
# Static dielectric constant tensor:
#      x y z
#    x 1.625510 0.000000 0.001610 
#    y 0.000000 1.570860 0.000000 
#    z 0.001610 0.000000 1.655900 
# 
# From -- ./inp_files/117627.got.cif
#   From: 2010.05.17/outbox.cif.g08.bks.cpg/sg15_59_cif.got.tgz:117627.got - 2010.06.03 18:47:42.
