data_PCOD9269776
_publ_section_title
;
Structure prediction by ZEFSAII (Michael W. Deem and Ramdas Pophale) SiO2 
 PCOD9269776
Probable space group: C 2/C
;
_chemical_formula_sum "Si O2"
_cell_formula_units_Z 48
_cell_length_a 11.257951
_cell_length_b 33.521659
_cell_length_c 8.079240
_cell_angle_alpha 90.000000
_cell_angle_beta 137.047279
_cell_angle_gamma 90.000000
_cell_volume 2077.562398
_symmetry_space_group_name_H-M "C 2/C"
_symmetry_group_IT_number 15
_symmetry_cell_setting 'monoclinic'
loop_
_space_group_symop_operation_xyz
x,y,z
-x,y,1/2-z
-x,-y,-z
x,-y,1/2+z
1/2+x,1/2+y,z
1/2-x,1/2+y,1/2-z
1/2-x,1/2-y,-z
1/2+x,1/2-y,1/2+z
loop_
_atom_site_type_symbol
_atom_site_label
_atom_site_fract_x
_atom_site_fract_y
_atom_site_fract_z
Si Si1 0.774865 0.219706 0.873328
Si Si2 0.000000 0.009265 0.250000
Si Si3 0.000000 0.434766 0.250000
Si Si4 0.778039 0.955525 0.799717
Si Si5 0.389726 0.712879 0.474991
Si Si6 0.121729 0.870796 0.615929
Si Si7 0.751848 0.868573 0.376671
O O1 0.715990 0.247403 0.662255
O O2 0.680447 0.176905 0.784746
O O3 0.975306 0.209923 0.041431
O O4 0.750000 0.250000 0.000000
O O5 0.062869 0.036732 0.165171
O O6 0.164210 0.983705 0.488680
O O7 0.112596 0.458632 0.504632
O O8 0.118051 0.405167 0.255749
O O9 0.793112 0.910044 0.872716
O O10 0.500000 0.715430 0.750000
O O11 0.303717 0.669516 0.387679
O O12 0.909811 0.873544 0.405779
O O13 0.173389 0.869125 0.860775
#
# Coordination Sequence:
#
# PCOD9269776 Si02
#       7
#     8   4   4   8   8   8   8
#     4  11  21  36  56  80 114 157 208 246 290 352
#     4  10  22  40  62  89 116 154 194 225 296 380
#     4  10  20  34  60  93 120 146 190 255 300 330
#     4  10  21  38  62  89 117 152 191 242 291 363
#     4  11  23  35  53  83 115 156 195 255 305 345
#     4   9  18  36  56  79 112 151 200 237 293 358
#     4   9  18  32  56  84 109 154 201 247 281 343
#
# _framework density 23.103999000000002
#
# number of rings (size 3 to 8) (size 9 to 14) (size 15 to 20)
#    0.000    2.000    1.667    3.000    3.500    0.667 
#    0.000    0.000    0.000    0.000    0.000    0.000 
#    0.000    0.000    0.000    0.000    0.000    0.000 
#
# Total GULP energy -133746.758866 kJ/mol
# GULP energy per Si atom -5572.781619 kJ/mol
# Density = 2.305141 g / cm^3
# Si number density = 23.103999 Si / 1000 Ang^3
#
#
#
# Elastic Constant Matrix: (Units=GPa)
#
#
# Indices 1 2 3 4 5 6 
#
# 1 21.8313 -6.5093 -8.9585 0.0000 -0.0981 0.0000
# 2 -6.5093 97.6785 43.8100 0.0000 3.0981 0.0000
# 3 -8.9585 43.8100 92.1656 0.0000 3.0004 0.0000
# 4 0.0000 0.0000 0.0000 37.6193 0.0000 13.8485
# 5 -0.0981 3.0981 3.0004 0.0000 24.1955 0.0000
# 6 0.0000 0.0000 0.0000 13.8485 0.0000 6.8485
#
#
#
# Elastic Compliance Matrix: (Units=1/GPa)
#
#
# Indices 1 2 3 4 5 6 
#
# 1 0.047865 0.001412 0.003997 0.000000 -0.000482 0.000000
# 2 0.001412 0.013073 -0.006047 0.000000 -0.000918 0.000000
# 3 0.003997 -0.006047 0.014144 0.000000 -0.000964 0.000000
# 4 0.000000 0.000000 0.000000 0.103992 0.000000 -0.210283
# 5 -0.000482 -0.000918 -0.000964 0.000000 0.041565 0.000000
# 6 0.000000 0.000000 0.000000 -0.210283 0.000000 0.571233
#
#
# Mechanical properties :
#
#
# Convention : Reuss Voigt Hill
#
# Bulk Modulus (GPa) = 13.54890 29.81775 21.68332
# Shear Modulus (GPa) = 6.11434 25.95488 16.03461
#
# Velocity S-wave (km/s) = 1.62855 3.35534 2.63728
# Velocity P-wave (km/s) = 3.06811 5.28630 4.32194
#
# Compressibility (1/GPa) = 0.07380675
#
# Stress axis : x y z
#
# Youngs Moduli (GPa) = 20.89212 76.49329 70.70005
#
# Poissons Ratio (x) = -0.10804 -0.28258
# Poissons Ratio (y) = -0.02951 0.42752
# Poissons Ratio (z) = -0.08350 0.46255
#
# Static dielectric constant tensor:
#      x y z
#    x 1.929280 0.000000 0.038490 
#    y 0.000000 2.110720 0.000000 
#    z 0.038490 0.000000 1.918320 
# 
# From -- ./inp_files/44690.got.cif
#   From: 2010.05.17/outbox.cif.g08.bks.cpg/sg15_23_cif.got.tgz:44690.got - 2010.06.03 18:47:42.
