data_PCOD9269060
_publ_section_title
;
Structure prediction by ZEFSAII (Michael W. Deem and Ramdas Pophale) SiO2 
 PCOD9269060
Probable space group: C 2/C
;
_chemical_formula_sum "Si O2"
_cell_formula_units_Z 56
_cell_length_a 12.100795
_cell_length_b 14.918477
_cell_length_c 23.576434
_cell_angle_alpha 90.000000
_cell_angle_beta 145.519989
_cell_angle_gamma 90.000000
_cell_volume 2409.483743
_symmetry_space_group_name_H-M "C 2/C"
_symmetry_group_IT_number 15
_symmetry_cell_setting 'monoclinic'
loop_
_space_group_symop_operation_xyz
x,y,z
-x,y,1/2-z
-x,-y,-z
x,-y,1/2+z
1/2+x,1/2+y,z
1/2-x,1/2+y,1/2-z
1/2-x,1/2-y,-z
1/2+x,1/2-y,1/2+z
loop_
_atom_site_type_symbol
_atom_site_label
_atom_site_fract_x
_atom_site_fract_y
_atom_site_fract_z
Si Si1 0.425171 0.409087 0.939885
Si Si2 0.274360 0.784054 0.269157
Si Si3 0.530932 0.399017 0.665544
Si Si4 0.500000 0.327175 0.250000
Si Si5 0.744548 0.540638 0.934694
Si Si6 0.420881 0.020779 0.843853
Si Si7 0.090865 0.820768 0.455591
Si Si8 0.000000 0.472779 0.750000
O O1 0.536289 0.397024 0.928662
O O2 0.200378 0.421149 0.829361
O O3 0.500000 0.500000 0.000000
O O4 0.422142 0.328963 0.982964
O O5 0.401625 0.702499 0.300250
O O6 0.385062 0.873472 0.334855
O O7 0.121070 0.768763 0.256079
O O8 0.126718 0.804434 0.156231
O O9 0.354034 0.445988 0.623048
O O10 0.716479 0.465502 0.753850
O O11 0.340751 0.389561 0.148634
O O12 0.649771 0.585768 0.951115
O O13 0.958726 0.519450 0.051416
O O14 0.514470 0.015701 0.819666
O O15 0.250000 0.750000 0.500000
#
# Coordination Sequence:
#
# PCOD9269060 Si02
#       8
#     8   8   8   4   8   8   8   4
#     4  11  20  37  61  92 125 164 204 262 334 384
#     4  11  25  40  64  95 129 170 227 272 320 399
#     4  11  23  41  62  98 133 167 217 277 330 392
#     4  10  24  45  63  94 128 176 230 275 315 400
#     4  11  22  43  63  88 133 174 213 271 332 391
#     4  11  21  42  67  92 131 172 215 271 339 395
#     4  11  21  37  59  94 125 164 213 269 320 380
#     4  10  20  33  67  92 116 164 204 259 333 388
#
# _framework density 23.241492999999998
#
# number of rings (size 3 to 8) (size 9 to 14) (size 15 to 20)
#    0.000    1.143    5.714    1.714    6.000    1.714 
#    0.000    0.714    0.000    0.000    0.000    0.000 
#    0.000    0.000    0.000    0.000    0.000    0.000 
#
# Total GULP energy -156099.115176 kJ/mol
# GULP energy per Si atom -5574.968399 kJ/mol
# Density = 2.318859 g / cm^3
# Si number density = 23.241493 Si / 1000 Ang^3
#
#
#
# Elastic Constant Matrix: (Units=GPa)
#
#
# Indices 1 2 3 4 5 6 
#
# 1 3.9013 -1.6085 -53.3599 -0.0001 54.0949 -0.0001
# 2 -1.6085 93.3567 28.5926 0.0000 4.7842 0.0000
# 3 -53.3599 28.5926 44.4197 -0.0002 90.6962 0.0000
# 4 -0.0001 0.0000 -0.0002 23.6428 0.0002 3.5889
# 5 54.0949 4.7842 90.6962 0.0002 -91.4351 0.0001
# 6 -0.0001 0.0000 0.0000 3.5889 0.0001 18.5146
#
#
#
# Elastic Compliance Matrix: (Units=1/GPa)
#
#
# Indices 1 2 3 4 5 6 
#
# 1 0.027864 -0.000375 0.000031 0.000000 0.016496 0.000000
# 2 -0.000375 0.011723 -0.002908 0.000000 -0.002492 0.000000
# 3 0.000031 -0.002908 0.008163 0.000000 0.007963 0.000000
# 4 0.000000 0.000000 0.000000 0.043578 0.000000 -0.008447
# 5 0.016496 -0.002492 0.007963 0.000000 0.006591 0.000000
# 6 0.000000 0.000000 0.000000 -0.008447 0.000000 0.055649
#
#
# Mechanical properties :
#
#
# Convention : Reuss Voigt Hill
#
# Bulk Modulus (GPa) = 24.24390 9.88069 17.06229
# Shear Modulus (GPa) = 28.76547 1.34805 15.05676
#
# Velocity S-wave (km/s) = 3.52188 0.76242 2.54803
# Velocity P-wave (km/s) = 5.19540 2.24401 4.00173
#
# Compressibility (1/GPa) = 0.04124749
#
# Stress axis : x y z
#
# Youngs Moduli (GPa) = 35.88885 85.29971 122.50919
#
# Poissons Ratio (x) = 0.03198 -0.00383
# Poissons Ratio (y) = 0.01345 0.35620
# Poissons Ratio (z) = -0.00112 0.24801
#
# Static dielectric constant tensor:
#      x y z
#    x 1.840510 0.000000 -0.131100 
#    y 0.000000 1.875210 0.000000 
#    z -0.131100 0.000000 1.806670 
# 
# From -- ./inp_files/173826.got.cif
#   From: 2010.05.17/outbox.cif.g08.bks.cpg/sg15_87_cif.got.tgz:173826.got - 2010.06.03 18:47:42.
