data_PCOD9269442
_publ_section_title
;
Structure prediction by ZEFSAII (Michael W. Deem and Ramdas Pophale) SiO2 
 PCOD9269442
Probable space group: C 2/C
;
_chemical_formula_sum "Si O2"
_cell_formula_units_Z 52
_cell_length_a 16.567073
_cell_length_b 13.719817
_cell_length_c 9.250917
_cell_angle_alpha 90.000000
_cell_angle_beta 89.162600
_cell_angle_gamma 90.000000
_cell_volume 2102.483047
_symmetry_space_group_name_H-M "C 2/C"
_symmetry_group_IT_number 15
_symmetry_cell_setting 'monoclinic'
loop_
_space_group_symop_operation_xyz
x,y,z
-x,y,1/2-z
-x,-y,-z
x,-y,1/2+z
1/2+x,1/2+y,z
1/2-x,1/2+y,1/2-z
1/2-x,1/2-y,-z
1/2+x,1/2-y,1/2+z
loop_
_atom_site_type_symbol
_atom_site_label
_atom_site_fract_x
_atom_site_fract_y
_atom_site_fract_z
Si Si1 0.841149 0.964130 0.837361
Si Si2 0.910315 0.196360 0.558846
Si Si3 0.445698 0.038784 0.369140
Si Si4 0.916163 0.675117 0.805597
Si Si5 0.250098 0.811465 0.350757
Si Si6 0.233628 0.459274 0.577128
Si Si7 0.000000 0.076111 0.750000
O O1 0.781569 0.922364 0.716414
O O2 0.919588 0.011997 0.762122
O O3 0.876064 0.882179 0.943547
O O4 0.788054 0.042561 0.931074
O O5 0.918082 0.297341 0.475477
O O6 0.843114 0.201655 0.687700
O O7 0.990734 0.147663 0.614529
O O8 0.500000 0.096427 0.250000
O O9 0.420750 0.940060 0.283112
O O10 0.358673 0.078054 0.424576
O O11 0.500000 0.000000 0.500000
O O12 0.829124 0.711989 0.754999
O O13 0.000000 0.720089 0.750000
O O14 0.250000 0.750000 0.500000
O O15 0.266585 0.923335 0.395146
#
# Coordination Sequence:
#
# PCOD9269442 Si02
#       7
#     8   8   8   8   8   8   4
#     4  11  21  35  54  83 116 152 196 235 285 342
#     4  10  21  35  56  80 115 155 188 239 284 350
#     4  10  20  38  62  89 117 146 192 245 289 346
#     4   9  19  34  59  81 108 150 191 230 290 349
#     4   8  15  33  53  76 100 144 189 220 273 342
#     4  10  20  34  56  85 112 151 189 237 288 340
#     4  12  22  36  54  86 116 152 198 240 288 338
#
# _framework density 24.732659000000002
#
# number of rings (size 3 to 8) (size 9 to 14) (size 15 to 20)
#    0.000    2.154    3.077    1.385    1.077    0.000 
#    1.385    0.000    0.000    0.923    0.000    0.000 
#    0.000    0.000    0.000    0.000    0.000    0.000 
#
# Total GULP energy -144879.728293 kJ/mol
# GULP energy per Si atom -5572.297242 kJ/mol
# Density = 2.467637 g / cm^3
# Si number density = 24.732659 Si / 1000 Ang^3
#
#
#
# Elastic Constant Matrix: (Units=GPa)
#
#
# Indices 1 2 3 4 5 6 
#
# 1 149.7174 -8.6227 33.3595 0.0000 -25.8795 0.0000
# 2 -8.6227 49.2642 -8.2934 0.0000 1.6491 0.0000
# 3 33.3595 -8.2934 77.2109 0.0000 -6.4625 0.0000
# 4 0.0000 0.0000 0.0000 19.1506 0.0000 5.9710
# 5 -25.8795 1.6491 -6.4625 0.0000 54.8322 0.0000
# 6 0.0000 0.0000 0.0000 5.9710 0.0000 6.3778
#
#
#
# Elastic Compliance Matrix: (Units=1/GPa)
#
#
# Indices 1 2 3 4 5 6 
#
# 1 0.007997 0.000766 -0.003089 0.000000 0.003387 0.000000
# 2 0.000766 0.020753 0.001895 0.000000 -0.000039 0.000000
# 3 -0.003089 0.001895 0.014506 0.000000 0.000195 0.000000
# 4 0.000000 0.000000 0.000000 0.073744 0.000000 -0.069040
# 5 0.003387 -0.000039 0.000195 0.000000 0.019860 0.000000
# 6 0.000000 0.000000 0.000000 -0.069040 0.000000 0.221431
#
#
# Mechanical properties :
#
#
# Convention : Reuss Voigt Hill
#
# Bulk Modulus (GPa) = 23.58502 34.34216 28.96359
# Shear Modulus (GPa) = 13.39472 33.38872 23.39172
#
# Velocity S-wave (km/s) = 2.32971 3.67820 3.07869
# Velocity P-wave (km/s) = 4.09798 5.65282 4.93699
#
# Compressibility (1/GPa) = 0.04239979
#
# Stress axis : x y z
#
# Youngs Moduli (GPa) = 125.04238 48.18554 68.93617
#
# Poissons Ratio (x) = -0.03692 0.21298
# Poissons Ratio (y) = -0.09582 -0.13062
# Poissons Ratio (z) = 0.38631 -0.09130
#
# Static dielectric constant tensor:
#      x y z
#    x 2.132990 0.000000 -0.069310 
#    y 0.000000 2.028240 0.000000 
#    z -0.069310 0.000000 1.998720 
# 
# From -- ./inp_files/48512.got.cif
#   From: 2010.05.17/outbox.cif.g08.bks.cpg/sg15_25_cif.got.tgz:48512.got - 2010.06.03 18:47:42.
