data_PCOD9269184
_publ_section_title
;
Structure prediction by ZEFSAII (Michael W. Deem and Ramdas Pophale) SiO2 
 PCOD9269184
Probable space group: C 2/C
;
_chemical_formula_sum "Si O2"
_cell_formula_units_Z 60
_cell_length_a 19.010726
_cell_length_b 14.314489
_cell_length_c 13.850068
_cell_angle_alpha 90.000000
_cell_angle_beta 40.783965
_cell_angle_gamma 90.000000
_cell_volume 2461.945490
_symmetry_space_group_name_H-M "C 2/C"
_symmetry_group_IT_number 15
_symmetry_cell_setting 'monoclinic'
loop_
_space_group_symop_operation_xyz
x,y,z
-x,y,1/2-z
-x,-y,-z
x,-y,1/2+z
1/2+x,1/2+y,z
1/2-x,1/2+y,1/2-z
1/2-x,1/2-y,-z
1/2+x,1/2-y,1/2+z
loop_
_atom_site_type_symbol
_atom_site_label
_atom_site_fract_x
_atom_site_fract_y
_atom_site_fract_z
Si Si1 0.683430 0.970766 0.034598
Si Si2 0.870142 0.074963 0.488761
Si Si3 0.449946 0.383370 0.408142
Si Si4 0.504776 0.803156 0.551557
Si Si5 0.736952 0.192449 0.214211
Si Si6 0.788961 0.394628 0.172663
Si Si7 0.000000 0.400611 0.750000
Si Si8 0.176658 0.275833 0.986237
O O1 0.626105 0.873783 0.067044
O O2 0.702640 0.025448 0.915020
O O3 0.794694 0.952009 0.975288
O O4 0.599061 0.035022 0.178774
O O5 0.790457 0.072321 0.662304
O O6 0.898524 0.185434 0.452978
O O7 0.960006 0.995430 0.409106
O O8 0.500000 0.362774 0.250000
O O9 0.495110 0.309574 0.440553
O O10 0.322144 0.363607 0.561486
O O11 0.385912 0.839156 0.658522
O O12 0.597807 0.858192 0.398554
O O13 0.536297 0.834934 0.626426
O O14 0.742888 0.299721 0.172269
O O15 0.752539 0.203695 0.313836
O O16 0.250000 0.250000 0.000000
#
# Coordination Sequence:
#
# PCOD9269184 Si02
#       8
#     8   8   8   8   8   8   4   8
#     4  10  20  35  62  84 115 165 204 255 315 362
#     4  10  21  40  61  87 125 168 204 262 317 373
#     4  11  23  38  62  94 132 168 210 256 322 389
#     4  10  21  38  62  96 131 160 209 260 322 386
#     4  10  21  39  67  94 128 171 205 264 330 376
#     4   9  21  38  62  93 129 158 210 263 317 384
#     4  10  20  34  52  94 122 152 202 258 302 380
#     4   9  20  41  64  86 118 166 219 259 314 368
#
# _framework density 24.370968999999999
#
# number of rings (size 3 to 8) (size 9 to 14) (size 15 to 20)
#    0.000    2.133    0.667    1.600    1.867    1.600 
#    1.200    6.000   26.400    0.000    0.000    0.000 
#    0.000    0.000    0.000    0.000    0.000    0.000 
#
# Total GULP energy -167305.629097 kJ/mol
# GULP energy per Si atom -5576.854303 kJ/mol
# Density = 2.431550 g / cm^3
# Si number density = 24.370969 Si / 1000 Ang^3
#
#
#
# Elastic Constant Matrix: (Units=GPa)
#
#
# Indices 1 2 3 4 5 6 
#
# 1 37.7373 7.5118 11.9639 0.0000 9.3899 0.0000
# 2 7.5118 146.5628 12.9967 0.0000 23.8035 0.0000
# 3 11.9639 12.9967 85.1967 0.0000 5.3017 0.0000
# 4 0.0000 0.0000 0.0000 43.8638 0.0000 3.3826
# 5 9.3899 23.8035 5.3017 0.0000 25.1633 0.0000
# 6 0.0000 0.0000 0.0000 3.3826 0.0000 7.6005
#
#
#
# Elastic Compliance Matrix: (Units=1/GPa)
#
#
# Indices 1 2 3 4 5 6 
#
# 1 0.030300 0.000570 -0.003653 0.000000 -0.011076 0.000000
# 2 0.000570 0.008122 -0.000839 0.000000 -0.007719 0.000000
# 3 -0.003653 -0.000839 0.012407 0.000000 -0.000458 0.000000
# 4 0.000000 0.000000 0.000000 0.023608 0.000000 -0.010507
# 5 -0.011076 -0.007719 -0.000458 0.000000 0.051272 0.000000
# 6 0.000000 0.000000 0.000000 -0.010507 0.000000 0.136247
#
#
# Mechanical properties :
#
#
# Convention : Reuss Voigt Hill
#
# Bulk Modulus (GPa) = 23.26367 37.16015 30.21191
# Shear Modulus (GPa) = 17.59781 31.12714 24.36248
#
# Velocity S-wave (km/s) = 2.69007 3.57770 3.16516
# Velocity P-wave (km/s) = 4.38349 5.68748 5.07752
#
# Compressibility (1/GPa) = 0.04298548
#
# Stress axis : x y z
#
# Youngs Moduli (GPa) = 33.00382 123.12535 80.60042
#
# Poissons Ratio (x) = -0.07016 0.29440
# Poissons Ratio (y) = -0.01881 0.06760
# Poissons Ratio (z) = 0.12055 0.10326
#
# Static dielectric constant tensor:
#      x y z
#    x 1.992720 0.000000 -0.033950 
#    y 0.000000 2.002570 0.000000 
#    z -0.033950 0.000000 1.966000 
# 
# From -- ./inp_files/168624.got.cif
#   From: 2010.05.17/outbox.cif.g08.bks.cpg/sg15_85_cif.got.tgz:168624.got - 2010.06.03 18:47:42.
