data_PCOD9269564
_publ_section_title
;
Structure prediction by ZEFSAII (Michael W. Deem and Ramdas Pophale) SiO2 
 PCOD9269564
Probable space group: C 2/C
;
_chemical_formula_sum "Si O2"
_cell_formula_units_Z 56
_cell_length_a 22.471425
_cell_length_b 5.633101
_cell_length_c 22.473133
_cell_angle_alpha 90.000000
_cell_angle_beta 129.827474
_cell_angle_gamma 90.000000
_cell_volume 2184.689402
_symmetry_space_group_name_H-M "C 2/C"
_symmetry_group_IT_number 15
_symmetry_cell_setting 'monoclinic'
loop_
_space_group_symop_operation_xyz
x,y,z
-x,y,1/2-z
-x,-y,-z
x,-y,1/2+z
1/2+x,1/2+y,z
1/2-x,1/2+y,1/2-z
1/2-x,1/2-y,-z
1/2+x,1/2-y,1/2+z
loop_
_atom_site_type_symbol
_atom_site_label
_atom_site_fract_x
_atom_site_fract_y
_atom_site_fract_z
Si Si1 0.230177 0.110528 0.770056
Si Si2 0.391359 0.488583 0.993727
Si Si3 0.078582 0.834373 0.245443
Si Si4 0.922840 0.653883 0.780976
Si Si5 0.263257 0.711779 0.119144
Si Si6 0.040244 0.699746 0.564913
Si Si7 0.172078 0.876036 0.426670
O O1 0.256629 0.369289 0.761667
O O2 0.139264 0.145467 0.728848
O O3 0.416467 0.131856 0.847720
O O4 0.468885 0.642973 0.042258
O O5 0.383853 0.367315 0.052745
O O6 0.312516 0.634075 0.935992
O O7 0.403012 0.329781 0.943588
O O8 0.034477 0.587953 0.209634
O O9 0.126233 0.801634 0.337544
O O10 0.041177 0.095849 0.217756
O O11 0.835829 0.662809 0.698156
O O12 0.240460 0.485727 0.146372
O O13 0.297297 0.629177 0.077973
O O14 0.000000 0.500000 0.500000
O O15 0.250000 0.750000 0.500000
#
# Coordination Sequence:
#
# PCOD9269564 Si02
#       7
#     8   8   8   8   8   8   8
#     4  10  20  34  57  99 145 183 224 302 386 437
#     4  11  26  48  76 107 156 207 254 313 392 467
#     4  10  23  42  68 104 143 190 242 319 374 451
#     4  10  23  48  73 106 153 185 262 320 378 453
#     4  10  24  42  74 115 147 194 258 327 386 446
#     4  11  29  51  73 108 156 214 255 307 397 478
#     4  10  22  45  75 114 158 193 261 322 401 454
#
# _framework density 25.632935
#
# number of rings (size 3 to 8) (size 9 to 14) (size 15 to 20)
#    0.000    2.000    0.000    3.000   10.000    4.571 
#    5.143    2.857    0.000    0.000    0.000    0.000 
#    0.000    0.000    0.000    0.000    0.000    0.000 
#
# Total GULP energy -156477.552838 kJ/mol
# GULP energy per Si atom -5588.484030 kJ/mol
# Density = 2.557459 g / cm^3
# Si number density = 25.632935 Si / 1000 Ang^3
#
#
#
# Elastic Constant Matrix: (Units=GPa)
#
#
# Indices 1 2 3 4 5 6 
#
# 1 113.5507 30.7840 24.6543 -0.0005 -24.0032 -0.0008
# 2 30.7840 151.9443 55.1344 -0.0009 -7.4311 -0.0038
# 3 24.6543 55.1344 150.3697 -0.0003 -23.7461 0.0001
# 4 -0.0005 -0.0009 -0.0003 40.3871 0.0001 2.7258
# 5 -24.0032 -7.4311 -23.7461 0.0001 41.8688 -0.0001
# 6 -0.0008 -0.0038 0.0001 2.7258 -0.0001 7.1956
#
#
#
# Elastic Compliance Matrix: (Units=1/GPa)
#
#
# Indices 1 2 3 4 5 6 
#
# 1 0.010517 -0.001790 -0.000182 0.000000 0.005608 0.000000
# 2 -0.001790 0.007899 -0.002793 0.000000 -0.001209 0.000004
# 3 -0.000182 -0.002793 0.008358 0.000000 0.004140 -0.000002
# 4 0.000000 0.000000 0.000000 0.025410 0.000000 -0.009626
# 5 0.005608 -0.001209 0.004140 0.000000 0.029233 0.000000
# 6 0.000000 0.000004 -0.000002 -0.009626 0.000000 0.142619
#
#
# Mechanical properties :
#
#
# Convention : Reuss Voigt Hill
#
# Bulk Modulus (GPa) = 57.99864 70.77887 64.38876
# Shear Modulus (GPa) = 20.89291 38.24311 29.56801
#
# Velocity S-wave (km/s) = 2.85806 3.86677 3.40003
# Velocity P-wave (km/s) = 5.79371 6.89988 6.37085
#
# Compressibility (1/GPa) = 0.01724178
#
# Stress axis : x y z
#
# Youngs Moduli (GPa) = 95.08322 126.60489 119.64301
#
# Poissons Ratio (x) = 0.22667 0.02181
# Poissons Ratio (y) = 0.17023 0.33422
# Poissons Ratio (z) = 0.01733 0.35366
#
# Static dielectric constant tensor:
#      x y z
#    x 1.995000 0.000000 -0.008230 
#    y 0.000000 2.118830 0.000000 
#    z -0.008230 0.000000 2.018060 
# 
# From -- ./inp_files/278677.got.cif
#   From: 2010.05.17/outbox.cif.g08.bks.cpg/sg15_140_cif.got.tgz:278677.got - 2010.06.03 18:47:42.
