data_PCOD9269944
_publ_section_title
;
Structure prediction by ZEFSAII (Michael W. Deem and Ramdas Pophale) SiO2 
 PCOD9269944
Probable space group: C 2/C
;
_chemical_formula_sum "Si O2"
_cell_formula_units_Z 40
_cell_length_a 13.424154
_cell_length_b 33.263073
_cell_length_c 13.585084
_cell_angle_alpha 90.000000
_cell_angle_beta 158.776533
_cell_angle_gamma 90.000000
_cell_volume 2195.977411
_symmetry_space_group_name_H-M "C 2/C"
_symmetry_group_IT_number 15
_symmetry_cell_setting 'monoclinic'
loop_
_space_group_symop_operation_xyz
x,y,z
-x,y,1/2-z
-x,-y,-z
x,-y,1/2+z
1/2+x,1/2+y,z
1/2-x,1/2+y,1/2-z
1/2-x,1/2-y,-z
1/2+x,1/2-y,1/2+z
loop_
_atom_site_type_symbol
_atom_site_label
_atom_site_fract_x
_atom_site_fract_y
_atom_site_fract_z
Si Si1 0.568725 0.725414 0.196263
Si Si2 0.777712 0.587422 0.709878
Si Si3 0.176027 0.865345 0.811049
Si Si4 0.401822 0.998468 0.795386
Si Si5 0.392986 0.552826 0.748775
O O1 0.500000 0.725115 0.250000
O O2 0.666575 0.680479 0.264769
O O3 0.797583 0.759471 0.392523
O O4 0.485900 0.605136 0.410389
O O5 0.830293 0.544450 0.706463
O O6 0.764523 0.579222 0.815090
O O7 0.015839 0.618099 0.896922
O O8 0.000000 0.866720 0.750000
O O9 0.137570 0.970412 0.532194
O O10 0.678288 0.979591 0.005123
O O11 0.500000 0.000000 0.000000
O O12 0.500000 0.575153 0.750000
#
# Coordination Sequence:
#
# PCOD9269944 Si02
#       5
#     8   8   8   8   8
#     4   9  17  31  49  69  97 130 161 192 233 298
#     4  11  21  35  50  73 105 129 167 218 253 293
#     4  11  22  33  50  76 104 135 163 198 253 304
#     4  10  20  35  51  69  97 134 172 216 260 297
#     4  11  22  36  54  73  98 138 182 217 256 301
#
# _framework density 18.215123999999999
#
# number of rings (size 3 to 8) (size 9 to 14) (size 15 to 20)
#    0.000    1.600    0.000    8.400    0.000    8.000 
#    0.000    0.000    0.000    0.000    0.000    0.000 
#    0.000   16.000    0.000    0.000    0.000    0.000 
#
# Total GULP energy -111561.880467 kJ/mol
# GULP energy per Si atom -5578.094023 kJ/mol
# Density = 1.817367 g / cm^3
# Si number density = 18.215124 Si / 1000 Ang^3
#
#
#
# Elastic Constant Matrix: (Units=GPa)
#
#
# Indices 1 2 3 4 5 6 
#
# 1 69.5711 3.1235 -10.1964 0.0004 4.3247 0.0010
# 2 3.1235 66.7759 0.8206 0.0004 -0.9057 -0.0002
# 3 -10.1964 0.8206 80.4911 0.0009 4.1640 0.0020
# 4 0.0004 0.0004 0.0009 23.0459 0.0011 8.5296
# 5 4.3247 -0.9057 4.1640 0.0011 19.9655 0.0010
# 6 0.0010 -0.0002 0.0020 8.5296 0.0010 9.4658
#
#
#
# Elastic Compliance Matrix: (Units=1/GPa)
#
#
# Indices 1 2 3 4 5 6 
#
# 1 0.014946 -0.000775 0.002093 0.000001 -0.003709 -0.000002
# 2 -0.000775 0.015028 -0.000299 -0.000001 0.000912 0.000001
# 3 0.002093 -0.000299 0.012855 0.000001 -0.003148 -0.000003
# 4 0.000001 -0.000001 0.000001 0.065104 -0.000001 -0.058665
# 5 -0.003709 0.000912 -0.003148 -0.000001 0.051588 -0.000004
# 6 -0.000002 0.000001 -0.000003 -0.058665 -0.000004 0.158505
#
#
# Mechanical properties :
#
#
# Convention : Reuss Voigt Hill
#
# Bulk Modulus (GPa) = 22.28797 22.70371 22.49584
# Shear Modulus (GPa) = 15.10837 25.36814 20.23826
#
# Velocity S-wave (km/s) = 2.88313 3.73593 3.33689
# Velocity P-wave (km/s) = 4.83174 5.57681 5.21760
#
# Compressibility (1/GPa) = 0.04486725
#
# Stress axis : x y z
#
# Youngs Moduli (GPa) = 66.90792 66.54349 77.79207
#
# Poissons Ratio (x) = 0.05158 -0.16283
# Poissons Ratio (y) = 0.05186 0.02323
# Poissons Ratio (z) = -0.14004 0.01987
#
# Static dielectric constant tensor:
#      x y z
#    x 1.710020 0.000000 0.012800 
#    y 0.000000 1.617570 0.000000 
#    z 0.012800 0.000000 1.653780 
# 
# From -- ./inp_files/157273.got.cif
#   From: 2010.05.17/outbox.cif.g08.bks.cpg/sg15_79_cif.got.tgz:157273.got - 2010.06.03 18:47:42.
