data_PCOD9269954
_publ_section_title
;
Structure prediction by ZEFSAII (Michael W. Deem and Ramdas Pophale) SiO2 
 PCOD9269954
Probable space group: C 2/C
;
_chemical_formula_sum "Si O2"
_cell_formula_units_Z 52
_cell_length_a 8.196793
_cell_length_b 31.050438
_cell_length_c 13.595003
_cell_angle_alpha 90.000000
_cell_angle_beta 50.463571
_cell_angle_gamma 90.000000
_cell_volume 2668.512814
_symmetry_space_group_name_H-M "C 2/C"
_symmetry_group_IT_number 15
_symmetry_cell_setting 'monoclinic'
loop_
_space_group_symop_operation_xyz
x,y,z
-x,y,1/2-z
-x,-y,-z
x,-y,1/2+z
1/2+x,1/2+y,z
1/2-x,1/2+y,1/2-z
1/2-x,1/2-y,-z
1/2+x,1/2-y,1/2+z
loop_
_atom_site_type_symbol
_atom_site_label
_atom_site_fract_x
_atom_site_fract_y
_atom_site_fract_z
Si Si1 0.127453 0.538065 0.002429
Si Si2 0.444987 0.459085 0.089215
Si Si3 0.152924 0.283359 0.895240
Si Si4 0.034537 0.116698 0.403152
Si Si5 0.347926 0.882074 0.606625
Si Si6 0.552343 0.284255 0.894295
Si Si7 0.500000 0.995404 0.250000
O O1 0.079697 0.526464 0.133867
O O2 0.027938 0.583774 0.016080
O O3 0.378970 0.538119 0.893764
O O4 0.000000 0.500000 0.000000
O O5 0.198102 0.465791 0.208154
O O6 0.500000 0.500000 0.000000
O O7 0.493724 0.416439 0.006546
O O8 0.076707 0.332703 0.920135
O O9 0.352025 0.283239 0.895375
O O10 0.248412 0.273096 0.751375
O O11 0.991233 0.249208 0.002238
O O12 0.831806 0.114617 0.408347
O O13 0.232159 0.107105 0.254792
O O14 0.064578 0.166240 0.424392
#
# Coordination Sequence:
#
# PCOD9269954 Si02
#       7
#     8   8   8   8   8   8   4
#     4  11  22  35  54  78 105 139 178 220 267 317
#     4  10  20  35  52  74 104 135 172 216 261 316
#     4   8  14  25  44  69 100 132 173 223 269 317
#     4   9  17  30  50  74 103 138 179 220 262 316
#     4   9  16  29  50  75 102 136 177 221 265 315
#     4   8  14  26  44  70  99 134 176 222 268 314
#     4  10  22  38  54  76 106 138 176 218 268 320
#
# _framework density 19.486511
#
# number of rings (size 3 to 8) (size 9 to 14) (size 15 to 20)
#    0.000    2.769    0.000    5.538    0.000    1.846 
#    0.000    6.154    0.000    0.923    0.000    0.000 
#    0.000    0.000    0.000    0.000    0.000   10.769 
#
# Total GULP energy -144935.748938 kJ/mol
# GULP energy per Si atom -5574.451882 kJ/mol
# Density = 1.944216 g / cm^3
# Si number density = 19.486511 Si / 1000 Ang^3
#
#
#
# Elastic Constant Matrix: (Units=GPa)
#
#
# Indices 1 2 3 4 5 6 
#
# 1 63.4884 34.6816 29.2102 0.0000 -24.8574 0.0000
# 2 34.6816 123.3100 65.2854 0.0000 -12.7786 0.0000
# 3 29.2102 65.2854 82.3881 0.0000 -9.0999 0.0000
# 4 0.0000 0.0000 0.0000 36.7864 0.0000 2.8656
# 5 -24.8574 -12.7786 -9.0999 0.0000 24.4148 0.0000
# 6 0.0000 0.0000 0.0000 2.8656 0.0000 19.3295
#
#
#
# Elastic Compliance Matrix: (Units=1/GPa)
#
#
# Indices 1 2 3 4 5 6 
#
# 1 0.030709 -0.002793 -0.005613 0.000000 0.027712 0.000000
# 2 -0.002793 0.014488 -0.010395 0.000000 0.000865 0.000000
# 3 -0.005613 -0.010395 0.022040 0.000000 -0.002941 0.000000
# 4 0.000000 0.000000 0.000000 0.027502 0.000000 -0.004077
# 5 0.027712 0.000865 -0.002941 0.000000 0.068529 0.000000
# 6 0.000000 0.000000 0.000000 -0.004077 0.000000 0.052339
#
#
# Mechanical properties :
#
#
# Convention : Reuss Voigt Hill
#
# Bulk Modulus (GPa) = 33.74461 58.61567 46.18014
# Shear Modulus (GPa) = 19.00495 25.44010 22.22253
#
# Velocity S-wave (km/s) = 3.12635 3.61712 3.38065
# Velocity P-wave (km/s) = 5.51240 6.89856 6.24407
#
# Compressibility (1/GPa) = 0.02963436
#
# Stress axis : x y z
#
# Youngs Moduli (GPa) = 32.56329 69.02073 45.37186
#
# Poissons Ratio (x) = 0.19280 0.25469
# Poissons Ratio (y) = 0.09096 0.47164
# Poissons Ratio (z) = 0.18279 0.71746
#
# Static dielectric constant tensor:
#      x y z
#    x 1.785440 0.000000 -0.017340 
#    y 0.000000 1.649040 0.000000 
#    z -0.017340 0.000000 1.698740 
# 
# From -- ./inp_files/139238.got.cif
#   From: 2010.05.17/outbox.cif.g08.bks.cpg/sg15_70_cif.got.tgz:139238.got - 2010.06.03 18:47:42.
