data_PCOD9269786
_publ_section_title
;
Structure prediction by ZEFSAII (Michael W. Deem and Ramdas Pophale) SiO2 
 PCOD9269786
Probable space group: C 2/C
;
_chemical_formula_sum "Si O2"
_cell_formula_units_Z 60
_cell_length_a 15.940826
_cell_length_b 11.345529
_cell_length_c 14.177527
_cell_angle_alpha 90.000000
_cell_angle_beta 93.439382
_cell_angle_gamma 90.000000
_cell_volume 2559.488074
_symmetry_space_group_name_H-M "C 2/C"
_symmetry_group_IT_number 15
_symmetry_cell_setting 'monoclinic'
loop_
_space_group_symop_operation_xyz
x,y,z
-x,y,1/2-z
-x,-y,-z
x,-y,1/2+z
1/2+x,1/2+y,z
1/2-x,1/2+y,1/2-z
1/2-x,1/2-y,-z
1/2+x,1/2-y,1/2+z
loop_
_atom_site_type_symbol
_atom_site_label
_atom_site_fract_x
_atom_site_fract_y
_atom_site_fract_z
Si Si1 0.577961 0.700873 0.554611
Si Si2 0.746137 0.309054 0.162980
Si Si3 0.633523 0.609663 0.367312
Si Si4 0.410604 0.105545 0.193047
Si Si5 0.850666 0.578143 0.828277
Si Si6 0.136006 0.448363 0.478124
Si Si7 0.500000 0.225750 0.750000
Si Si8 0.572468 0.358881 0.333723
O O1 0.646997 0.685699 0.641531
O O2 0.610039 0.617517 0.474378
O O3 0.586972 0.835894 0.518698
O O4 0.485799 0.662145 0.577930
O O5 0.780127 0.178460 0.142261
O O6 0.782610 0.344695 0.266943
O O7 0.791435 0.390134 0.084186
O O8 0.563298 0.690520 0.311241
O O9 0.627457 0.475624 0.336552
O O10 0.500000 0.120383 0.250000
O O11 0.379494 0.235420 0.168523
O O12 0.354959 0.038406 0.264560
O O13 0.416343 0.025417 0.100540
O O14 0.839075 0.536320 0.934816
O O15 0.939899 0.645540 0.812564
O O16 0.500000 0.374113 0.250000
#
# Coordination Sequence:
#
# PCOD9269786 Si02
#       8
#     8   8   8   8   8   8   4   8
#     4  11  23  40  64  91 124 165 214 263 312 384
#     4   9  22  44  61  93 123 163 220 258 307 392
#     4  10  20  40  62  86 122 167 204 256 314 376
#     4  10  21  35  57  97 131 150 204 263 314 374
#     4  10  20  37  63  92 123 156 208 272 303 373
#     4  10  20  37  67  89 122 167 202 256 328 361
#     4  10  20  34  60  96 124 146 222 260 300 372
#     4  11  23  39  60  92 129 165 199 256 325 379
#
# _framework density 23.442188000000002
#
# number of rings (size 3 to 8) (size 9 to 14) (size 15 to 20)
#    0.000    1.867    1.333    4.400    1.867    1.067 
#    4.800    0.000    0.000    4.000    0.000    0.000 
#    0.000    0.000    0.000    0.000    0.000    0.000 
#
# Total GULP energy -167793.689999 kJ/mol
# GULP energy per Si atom -5593.123000 kJ/mol
# Density = 2.338883 g / cm^3
# Si number density = 23.442188 Si / 1000 Ang^3
#
#
#
# Elastic Constant Matrix: (Units=GPa)
#
#
# Indices 1 2 3 4 5 6 
#
# 1 82.5570 32.0495 16.7609 0.0000 -9.8531 0.0000
# 2 32.0495 151.3689 34.3313 0.0000 -0.2521 0.0000
# 3 16.7609 34.3313 116.7684 0.0000 7.8427 0.0000
# 4 0.0000 0.0000 0.0000 39.6484 0.0000 4.7633
# 5 -9.8531 -0.2521 7.8427 0.0000 23.8823 0.0000
# 6 0.0000 0.0000 0.0000 4.7633 0.0000 11.1048
#
#
#
# Elastic Compliance Matrix: (Units=1/GPa)
#
#
# Indices 1 2 3 4 5 6 
#
# 1 0.014240 -0.002618 -0.001705 0.000000 0.006407 0.000000
# 2 -0.002618 0.007574 -0.001824 0.000000 -0.000401 0.000000
# 3 -0.001705 -0.001824 0.009605 0.000000 -0.003877 0.000000
# 4 0.000000 0.000000 0.000000 0.026592 0.000000 -0.011406
# 5 0.006407 -0.000401 -0.003877 0.000000 0.045784 0.000000
# 6 0.000000 0.000000 0.000000 -0.011406 0.000000 0.094944
#
#
# Mechanical properties :
#
#
# Convention : Reuss Voigt Hill
#
# Bulk Modulus (GPa) = 52.28503 57.44196 54.86349
# Shear Modulus (GPa) = 22.99833 32.76393 27.88113
#
# Velocity S-wave (km/s) = 3.13560 3.74257 3.45245
# Velocity P-wave (km/s) = 5.95496 6.57515 6.27272
#
# Compressibility (1/GPa) = 0.01912593
#
# Stress axis : x y z
#
# Youngs Moduli (GPa) = 70.22552 132.03634 104.10882
#
# Poissons Ratio (x) = 0.34563 0.17747
# Poissons Ratio (y) = 0.18383 0.18990
# Poissons Ratio (z) = 0.11971 0.24084
#
# Static dielectric constant tensor:
#      x y z
#    x 1.927050 0.000000 -0.009010 
#    y 0.000000 1.880700 0.000000 
#    z -0.009010 0.000000 1.932200 
# 
# From -- ./inp_files/160978.got.cif
#   From: 2010.05.17/outbox.cif.g08.bks.cpg/sg15_81_cif.got.tgz:160978.got - 2010.06.03 18:47:42.
