data_PCOD9269963
_publ_section_title
;
Structure prediction by ZEFSAII (Michael W. Deem and Ramdas Pophale) SiO2 
 PCOD9269963
Probable space group: C 2/C
;
_chemical_formula_sum "Si O2"
_cell_formula_units_Z 52
_cell_length_a 18.560466
_cell_length_b 27.752694
_cell_length_c 13.689738
_cell_angle_alpha 90.000000
_cell_angle_beta 159.102748
_cell_angle_gamma 90.000000
_cell_volume 2515.266352
_symmetry_space_group_name_H-M "C 2/C"
_symmetry_group_IT_number 15
_symmetry_cell_setting 'monoclinic'
loop_
_space_group_symop_operation_xyz
x,y,z
-x,y,1/2-z
-x,-y,-z
x,-y,1/2+z
1/2+x,1/2+y,z
1/2-x,1/2+y,1/2-z
1/2-x,1/2-y,-z
1/2+x,1/2-y,1/2+z
loop_
_atom_site_type_symbol
_atom_site_label
_atom_site_fract_x
_atom_site_fract_y
_atom_site_fract_z
Si Si1 0.231621 0.698484 0.026360
Si Si2 0.694533 0.126114 0.813474
Si Si3 0.009990 0.085433 0.477802
Si Si4 0.214902 0.969660 0.969985
Si Si5 0.784356 0.572344 0.000456
Si Si6 0.244450 0.834283 0.738086
Si Si7 0.000000 0.852203 0.250000
O O1 0.294846 0.658278 0.027411
O O2 0.000000 0.684926 0.750000
O O3 0.250000 0.750000 0.000000
O O4 0.301628 0.700622 0.227699
O O5 0.845283 0.116171 0.913315
O O6 0.481005 0.152552 0.519437
O O7 0.665333 0.072828 0.823254
O O8 0.860749 0.051397 0.228622
O O9 0.862777 0.118104 0.355736
O O10 0.160855 0.061005 0.745349
O O11 0.000000 0.977394 0.750000
O O12 0.318075 0.021327 0.096396
O O13 0.000000 0.594131 0.250000
O O14 0.659171 0.611238 0.902261
O O15 0.123279 0.822113 0.486666
#
# Coordination Sequence:
#
# PCOD9269963 Si02
#       7
#     8   8   8   8   8   8   4
#     4  10  22  36  62  93 117 141 182 237 298 348
#     4  10  21  38  56  86 114 146 191 238 296 345
#     4  10  21  35  56  78 113 155 193 237 292 337
#     4  10  20  35  52  78 118 150 194 245 291 333
#     4  11  22  35  53  80 110 160 204 237 276 332
#     4  10  21  38  61  84 112 160 185 236 290 341
#     4  10  22  42  56  80 122 152 206 230 272 350
#
# _framework density 20.673753999999999
#
# number of rings (size 3 to 8) (size 9 to 14) (size 15 to 20)
#    0.000    1.846    2.308    1.385    4.308    0.000 
#    0.000    2.308    0.000    3.692    2.000    0.000 
#    0.000    0.000    0.000    0.000    0.000    0.000 
#
# Total GULP energy -144873.753633 kJ/mol
# GULP energy per Si atom -5572.067447 kJ/mol
# Density = 2.062670 g / cm^3
# Si number density = 20.673754 Si / 1000 Ang^3
#
#
#
# Elastic Constant Matrix: (Units=GPa)
#
#
# Indices 1 2 3 4 5 6 
#
# 1 66.0036 12.3698 27.1184 0.0000 -3.5262 0.0001
# 2 12.3698 44.0006 -2.7066 0.0000 1.0967 0.0000
# 3 27.1184 -2.7066 75.6876 -0.0007 -4.7565 0.0004
# 4 0.0000 0.0000 -0.0007 10.8316 -0.0003 -10.7755
# 5 -3.5262 1.0967 -4.7565 -0.0003 44.8326 0.0003
# 6 0.0001 0.0000 0.0004 -10.7755 0.0003 -2.2405
#
#
#
# Elastic Compliance Matrix: (Units=1/GPa)
#
#
# Indices 1 2 3 4 5 6 
#
# 1 0.019181 -0.005847 -0.007025 0.000000 0.000906 0.000000
# 2 -0.005847 0.024569 0.002926 0.000000 -0.000750 0.000000
# 3 -0.007025 0.002926 0.015901 0.000001 0.001063 0.000000
# 4 0.000000 0.000000 0.000001 0.015960 0.000001 -0.076759
# 5 0.000906 -0.000750 0.001063 0.000001 0.022508 0.000000
# 6 0.000000 0.000000 0.000000 -0.076759 0.000000 -0.077158
#
#
# Mechanical properties :
#
#
# Convention : Reuss Voigt Hill
#
# Bulk Modulus (GPa) = 25.15054 28.80613 26.97833
# Shear Modulus (GPa) = 92.41357 20.61206 56.51282
#
# Velocity S-wave (km/s) = 6.69313 3.16098 5.23401
# Velocity P-wave (km/s) = 8.48071 5.22363 7.04304
#
# Compressibility (1/GPa) = 0.03976058
#
# Stress axis : x y z
#
# Youngs Moduli (GPa) = 52.13481 40.70094 62.89108
#
# Poissons Ratio (x) = 0.23798 0.44178
# Poissons Ratio (y) = 0.30483 -0.18404
# Poissons Ratio (z) = 0.36623 -0.11911
#
# Static dielectric constant tensor:
#      x y z
#    x 1.821600 0.000000 -0.046410 
#    y 0.000000 1.714790 0.000000 
#    z -0.046410 0.000000 1.797390 
# 
# From -- ./inp_files/59328.got.cif
#   From: 2010.05.17/outbox.cif.g08.bks.cpg/sg15_30_cif.got.tgz:59328.got - 2010.06.03 18:47:42.
