data_PCOD9269709
_publ_section_title
;
Structure prediction by ZEFSAII (Michael W. Deem and Ramdas Pophale) SiO2 
 PCOD9269709
Probable space group: C 2/C
;
_chemical_formula_sum "Si O2"
_cell_formula_units_Z 64
_cell_length_a 12.512492
_cell_length_b 23.073528
_cell_length_c 11.624270
_cell_angle_alpha 90.000000
_cell_angle_beta 83.768105
_cell_angle_gamma 90.000000
_cell_volume 3336.180291
_symmetry_space_group_name_H-M "C 2/C"
_symmetry_group_IT_number 15
_symmetry_cell_setting 'monoclinic'
loop_
_space_group_symop_operation_xyz
x,y,z
-x,y,1/2-z
-x,-y,-z
x,-y,1/2+z
1/2+x,1/2+y,z
1/2-x,1/2+y,1/2-z
1/2-x,1/2-y,-z
1/2+x,1/2-y,1/2+z
loop_
_atom_site_type_symbol
_atom_site_label
_atom_site_fract_x
_atom_site_fract_y
_atom_site_fract_z
Si Si1 0.726903 0.053723 0.855775
Si Si2 0.369303 0.232461 0.956913
Si Si3 0.588178 0.447756 0.976659
Si Si4 0.117808 0.620362 0.679285
Si Si5 0.993253 0.432264 0.998480
Si Si6 0.054686 0.141838 0.118650
Si Si7 0.077170 0.655598 0.328223
Si Si8 0.230994 0.926869 0.728475
O O1 0.713320 0.091705 0.740902
O O2 0.713626 0.986263 0.821317
O O3 0.833267 0.055437 0.922123
O O4 0.626051 0.078914 0.939388
O O5 0.369514 0.187813 0.850264
O O6 0.425472 0.292782 0.922220
O O7 0.250000 0.250000 0.000000
O O8 0.408581 0.196660 0.063167
O O9 0.517879 0.390291 0.966273
O O10 0.662404 0.446449 0.850355
O O11 0.500000 0.500000 0.000000
O O12 0.000000 0.611623 0.750000
O O13 0.095600 0.588570 0.561669
O O14 0.007660 0.399532 0.878606
O O15 0.000000 0.500000 0.000000
O O16 0.155245 0.099623 0.136413
O O17 0.000000 0.144695 0.250000
O O18 0.185309 0.626413 0.264985
O O19 0.000000 0.688353 0.250000
#
# Coordination Sequence:
#
# PCOD9269709 Si02
#       8
#     8   8   8   8   8   8   8   8
#     4  11  22  37  61  94 129 158 201 254 307 374
#     4  11  22  42  65  85 117 163 213 255 306 372
#     4  11  24  40  61  93 128 165 211 256 310 367
#     4   9  22  38  58  88 120 158 199 248 310 367
#     4  10  20  34  59  91 125 161 193 243 315 376
#     4  10  22  43  64  85 119 171 211 248 312 371
#     4  11  23  38  61  94 127 157 208 263 312 371
#     4  11  22  37  63  89 125 167 202 250 308 378
#
# _framework density 19.183615
#
# number of rings (size 3 to 8) (size 9 to 14) (size 15 to 20)
#    0.000    1.500    3.750    1.125    3.500    1.000 
#    2.250    0.000    0.000    5.250    0.000    0.000 
#    0.000    0.000    0.000    0.000    0.000    0.000 
#
# Total GULP energy -178153.285884 kJ/mol
# GULP energy per Si atom -5567.290184 kJ/mol
# Density = 1.913995 g / cm^3
# Si number density = 19.183615 Si / 1000 Ang^3
#
#
#
# Elastic Constant Matrix: (Units=GPa)
#
#
# Indices 1 2 3 4 5 6 
#
# 1 97.3833 32.1765 36.2452 0.0000 28.7515 0.0000
# 2 32.1765 126.7154 31.8714 0.0000 15.6026 0.0000
# 3 36.2452 31.8714 61.1452 0.0000 22.0044 0.0000
# 4 0.0000 0.0000 0.0000 21.9262 0.0000 -4.0758
# 5 28.7515 15.6026 22.0044 0.0000 38.9062 0.0000
# 6 0.0000 0.0000 0.0000 -4.0758 0.0000 29.5369
#
#
#
# Elastic Compliance Matrix: (Units=1/GPa)
#
#
# Indices 1 2 3 4 5 6 
#
# 1 0.014972 -0.001529 -0.005420 0.000000 -0.007385 0.000000
# 2 -0.001529 0.009284 -0.003766 0.000000 -0.000463 0.000000
# 3 -0.005420 -0.003766 0.024540 0.000000 -0.008364 0.000000
# 4 0.000000 0.000000 0.000000 0.046808 0.000000 0.006459
# 5 -0.007385 -0.000463 -0.008364 0.000000 0.036077 0.000000
# 6 0.000000 0.000000 0.000000 0.006459 0.000000 0.034747
#
#
# Mechanical properties :
#
#
# Convention : Reuss Voigt Hill
#
# Bulk Modulus (GPa) = 36.54228 53.98112 45.26170
# Shear Modulus (GPa) = 25.38317 30.40391 27.89354
#
# Velocity S-wave (km/s) = 3.64149 3.98539 3.81731
# Velocity P-wave (km/s) = 6.06388 7.02695 6.56310
#
# Compressibility (1/GPa) = 0.02736556
#
# Stress axis : x y z
#
# Youngs Moduli (GPa) = 66.79291 107.70867 40.74930
#
# Poissons Ratio (x) = 0.16470 0.22086
# Poissons Ratio (y) = 0.10213 0.15347
# Poissons Ratio (z) = 0.36202 0.40566
#
# Static dielectric constant tensor:
#      x y z
#    x 1.722810 0.000000 -0.007330 
#    y 0.000000 1.649070 0.000000 
#    z -0.007330 0.000000 1.764400 
# 
# From -- ./inp_files/90795.got.cif
#   From: 2010.05.17/outbox.cif.g08.bks.cpg/sg15_46_cif.got.tgz:90795.got - 2010.06.03 18:47:42.
