data_PCOD9269420
_publ_section_title
;
Structure prediction by ZEFSAII (Michael W. Deem and Ramdas Pophale) SiO2 
 PCOD9269420
Probable space group: C 2/C
;
_chemical_formula_sum "Si O2"
_cell_formula_units_Z 48
_cell_length_a 22.657051
_cell_length_b 13.262413
_cell_length_c 13.080210
_cell_angle_alpha 90.000000
_cell_angle_beta 30.554890
_cell_angle_gamma 90.000000
_cell_volume 1998.090139
_symmetry_space_group_name_H-M "C 2/C"
_symmetry_group_IT_number 15
_symmetry_cell_setting 'monoclinic'
loop_
_space_group_symop_operation_xyz
x,y,z
-x,y,1/2-z
-x,-y,-z
x,-y,1/2+z
1/2+x,1/2+y,z
1/2-x,1/2+y,1/2-z
1/2-x,1/2-y,-z
1/2+x,1/2-y,1/2+z
loop_
_atom_site_type_symbol
_atom_site_label
_atom_site_fract_x
_atom_site_fract_y
_atom_site_fract_z
Si Si1 0.405612 0.011334 0.494061
Si Si2 0.870357 0.832241 0.831219
Si Si3 0.162038 0.487293 0.169472
Si Si4 0.500000 0.200671 0.250000
Si Si5 0.689461 0.348992 0.982319
Si Si6 0.500000 0.514351 0.250000
Si Si7 0.769096 0.681457 0.141429
O O1 0.539374 0.973858 0.296736
O O2 0.420333 0.124641 0.433200
O O3 0.367811 0.015189 0.666887
O O4 0.316750 0.933955 0.573924
O O5 0.857569 0.750956 0.942214
O O6 0.754770 0.900382 0.014931
O O7 0.973600 0.909557 0.696570
O O8 0.851297 0.799737 0.742119
O O9 0.223219 0.597442 0.068431
O O10 0.408507 0.273431 0.329355
O O11 0.750988 0.301157 0.790126
O O12 0.609786 0.443912 0.064265
#
# Coordination Sequence:
#
# PCOD9269420 Si02
#       7
#     8   8   8   4   8   4   8
#     4  10  20  34  56  83 112 144 183 229 276 328
#     4  10  20  35  56  79 108 144 182 225 273 325
#     4   9  19  37  56  79 111 146 183 228 277 325
#     4  11  20  33  56  80 110 145 184 225 272 326
#     4   9  20  38  55  78 109 143 181 225 272 326
#     4   9  20  37  56  76 106 143 182 221 266 322
#     4  10  21  35  55  81 110 141 180 225 275 327
#
# _framework density 24.022939000000001
#
# number of rings (size 3 to 8) (size 9 to 14) (size 15 to 20)
#    0.000    2.333    0.000    2.000    0.000    4.667 
#    0.000    3.333    0.000    2.000    0.000    0.000 
#    0.000    0.000    0.000    0.000    0.000    0.000 
#
# Total GULP energy -133710.567968 kJ/mol
# GULP energy per Si atom -5571.273665 kJ/mol
# Density = 2.396826 g / cm^3
# Si number density = 24.022939 Si / 1000 Ang^3
#
#
#
# Elastic Constant Matrix: (Units=GPa)
#
#
# Indices 1 2 3 4 5 6 
#
# 1 69.1837 25.2617 4.2168 0.0000 -11.5401 0.0000
# 2 25.2617 113.6504 15.2053 0.0000 -12.7230 0.0000
# 3 4.2168 15.2053 45.7164 0.0000 -9.1037 0.0000
# 4 0.0000 0.0000 0.0000 20.5822 0.0000 -23.8925
# 5 -11.5401 -12.7230 -9.1037 0.0000 24.8055 0.0000
# 6 0.0000 0.0000 0.0000 -23.8925 0.0000 34.8347
#
#
#
# Elastic Compliance Matrix: (Units=1/GPa)
#
#
# Indices 1 2 3 4 5 6 
#
# 1 0.016602 -0.003074 0.000771 0.000000 0.006430 0.000000
# 2 -0.003074 0.010138 -0.002522 0.000000 0.002844 0.000000
# 3 0.000771 -0.002522 0.024226 0.000000 0.007956 0.000000
# 4 0.000000 0.000000 0.000000 0.238387 0.000000 0.163505
# 5 0.006430 0.002844 0.007956 0.000000 0.047684 0.000000
# 6 0.000000 0.000000 0.000000 0.163505 0.000000 0.140852
#
#
# Mechanical properties :
#
#
# Convention : Reuss Voigt Hill
#
# Bulk Modulus (GPa) = 24.20261 35.32420 29.76340
# Shear Modulus (GPa) = 9.97385 28.30227 19.13806
#
# Velocity S-wave (km/s) = 2.03981 3.43612 2.82557
# Velocity P-wave (km/s) = 3.95530 5.52077 4.80225
#
# Compressibility (1/GPa) = 0.04131786
#
# Stress axis : x y z
#
# Youngs Moduli (GPa) = 60.23313 98.63942 41.27793
#
# Poissons Ratio (x) = 0.30318 -0.03184
# Poissons Ratio (y) = 0.18513 0.10410
# Poissons Ratio (z) = -0.04647 0.24877
#
# Static dielectric constant tensor:
#      x y z
#    x 2.115850 0.000000 0.052580 
#    y 0.000000 1.993400 0.000000 
#    z 0.052580 0.000000 1.919520 
# 
# From -- ./inp_files/222293.got.cif
#   From: 2010.05.17/outbox.cif.g08.bks.cpg/sg15_112_cif.got.tgz:222293.got - 2010.06.03 18:47:42.
