data_PCOD9269324
_publ_section_title
;
Structure prediction by ZEFSAII (Michael W. Deem and Ramdas Pophale) SiO2 
 PCOD9269324
Probable space group: C 2/C
;
_chemical_formula_sum "Si O2"
_cell_formula_units_Z 56
_cell_length_a 15.699605
_cell_length_b 7.914282
_cell_length_c 26.213624
_cell_angle_alpha 90.000000
_cell_angle_beta 58.866664
_cell_angle_gamma 90.000000
_cell_volume 2787.943923
_symmetry_space_group_name_H-M "C 2/C"
_symmetry_group_IT_number 15
_symmetry_cell_setting 'monoclinic'
loop_
_space_group_symop_operation_xyz
x,y,z
-x,y,1/2-z
-x,-y,-z
x,-y,1/2+z
1/2+x,1/2+y,z
1/2-x,1/2+y,1/2-z
1/2-x,1/2-y,-z
1/2+x,1/2-y,1/2+z
loop_
_atom_site_type_symbol
_atom_site_label
_atom_site_fract_x
_atom_site_fract_y
_atom_site_fract_z
Si Si1 0.381970 0.023960 0.035292
Si Si2 0.795283 0.132482 0.586905
Si Si3 0.284674 0.922450 0.963317
Si Si4 0.269384 0.917018 0.796543
Si Si5 0.383087 0.760822 0.230397
Si Si6 0.599412 0.670758 0.156381
Si Si7 0.808882 0.816872 0.370598
O O1 0.305306 0.887441 0.085236
O O2 0.363030 0.204006 0.067959
O O3 0.343909 0.022939 0.988154
O O4 0.500000 0.000000 0.000000
O O5 0.686541 0.211905 0.608318
O O6 0.809673 0.017969 0.532473
O O7 0.787518 0.024777 0.641170
O O8 0.337780 0.842222 0.897230
O O9 0.250000 0.750000 0.000000
O O10 0.195401 0.844554 0.777630
O O11 0.316396 0.757358 0.811556
O O12 0.347621 0.046170 0.747583
O O13 0.492229 0.736168 0.173588
O O14 0.389290 0.689728 0.285968
O O15 0.622989 0.476537 0.137498
#
# Coordination Sequence:
#
# PCOD9269324 Si02
#       7
#     8   8   8   8   8   8   8
#     4  10  20  34  55  81 108 140 182 227 271 318
#     4   9  19  36  55  76 108 144 178 223 270 319
#     4   9  18  34  53  73 102 141 177 214 270 328
#     4  10  20  36  56  79 109 142 178 227 276 318
#     4  10  20  35  55  79 107 141 178 220 269 324
#     4   9  19  36  55  77 105 140 182 222 268 324
#     4   9  19  37  55  76 108 141 178 225 271 322
#
# _framework density 20.086487999999999
#
# number of rings (size 3 to 8) (size 9 to 14) (size 15 to 20)
#    0.000    2.571    0.000    1.286    0.000    2.286 
#    0.000   22.143    0.000    0.000    0.000    0.000 
#    0.000    0.000    0.000    0.000    0.000    0.000 
#
# Total GULP energy -155933.383833 kJ/mol
# GULP energy per Si atom -5569.049423 kJ/mol
# Density = 2.004077 g / cm^3
# Si number density = 20.086488 Si / 1000 Ang^3
#
#
#
# Elastic Constant Matrix: (Units=GPa)
#
#
# Indices 1 2 3 4 5 6 
#
# 1 61.0250 21.4638 25.4487 0.0000 -5.9588 0.0000
# 2 21.4638 105.2002 17.8319 0.0000 -7.8732 0.0000
# 3 25.4487 17.8319 25.1165 0.0000 -11.3741 0.0000
# 4 0.0000 0.0000 0.0000 32.4321 0.0000 11.5330
# 5 -5.9588 -7.8732 -11.3741 0.0000 30.9445 0.0000
# 6 0.0000 0.0000 0.0000 11.5330 0.0000 12.9779
#
#
#
# Elastic Compliance Matrix: (Units=1/GPa)
#
#
# Indices 1 2 3 4 5 6 
#
# 1 0.029484 -0.001068 -0.031992 0.000000 -0.006354 0.000000
# 2 -0.001068 0.010845 -0.006552 0.000000 0.000146 0.000000
# 3 -0.031992 -0.006552 0.087982 0.000000 0.024512 0.000000
# 4 0.000000 0.000000 0.000000 0.045079 0.000000 -0.040060
# 5 -0.006354 0.000146 0.024512 0.000000 0.040139 0.000000
# 6 0.000000 0.000000 0.000000 -0.040060 0.000000 0.112654
#
#
# Mechanical properties :
#
#
# Convention : Reuss Voigt Hill
#
# Bulk Modulus (GPa) = 20.37236 35.64782 28.01009
# Shear Modulus (GPa) = 11.85484 23.71073 17.78278
#
# Velocity S-wave (km/s) = 2.43202 3.43947 2.97865
# Velocity P-wave (km/s) = 4.24860 5.79301 5.07984
#
# Compressibility (1/GPa) = 0.04908612
#
# Stress axis : x y z
#
# Youngs Moduli (GPa) = 33.91724 92.20829 11.36600
#
# Poissons Ratio (x) = 0.09849 0.36363
# Poissons Ratio (y) = 0.03623 0.07446
# Poissons Ratio (z) = 1.08510 0.60410
#
# Static dielectric constant tensor:
#      x y z
#    x 1.719910 0.000000 0.030950 
#    y 0.000000 1.780290 0.000000 
#    z 0.030950 0.000000 1.827470 
# 
# From -- ./inp_files/273059.got.cif
#   From: 2010.05.17/outbox.cif.g08.bks.cpg/sg15_137_cif.got.tgz:273059.got - 2010.06.03 18:47:42.
