data_PCOD9269995
_publ_section_title
;
Structure prediction by ZEFSAII (Michael W. Deem and Ramdas Pophale) SiO2 
 PCOD9269995
Probable space group: C 2/C
;
_chemical_formula_sum "Si O2"
_cell_formula_units_Z 44
_cell_length_a 18.373963
_cell_length_b 14.140194
_cell_length_c 8.686957
_cell_angle_alpha 90.000000
_cell_angle_beta 122.031160
_cell_angle_gamma 90.000000
_cell_volume 1913.368784
_symmetry_space_group_name_H-M "C 2/C"
_symmetry_group_IT_number 15
_symmetry_cell_setting 'monoclinic'
loop_
_space_group_symop_operation_xyz
x,y,z
-x,y,1/2-z
-x,-y,-z
x,-y,1/2+z
1/2+x,1/2+y,z
1/2-x,1/2+y,1/2-z
1/2-x,1/2-y,-z
1/2+x,1/2-y,1/2+z
loop_
_atom_site_type_symbol
_atom_site_label
_atom_site_fract_x
_atom_site_fract_y
_atom_site_fract_z
Si Si1 0.583140 0.680660 0.036116
Si Si2 0.257415 0.025866 0.960515
Si Si3 0.226181 0.683488 0.117622
Si Si4 0.125149 0.974552 0.057802
Si Si5 0.656618 0.209177 0.354921
Si Si6 0.500000 0.668680 0.250000
O O1 0.682026 0.681738 0.197106
O O2 0.564974 0.567821 0.004033
O O3 0.533121 0.718896 0.130788
O O4 0.587284 0.734389 0.877908
O O5 0.292846 0.923945 0.951375
O O6 0.171811 0.058507 0.767099
O O7 0.211721 0.006204 0.069667
O O8 0.331353 0.102876 0.065684
O O9 0.156314 0.713195 0.168366
O O10 0.250000 0.750000 0.000000
O O11 0.077093 0.897716 0.900407
O O12 0.750000 0.250000 0.500000
#
# Coordination Sequence:
#
# PCOD9269995 Si02
#       6
#     8   8   8   8   8   4
#     4  10  22  35  51  78 115 157 190 236 276 347
#     4  11  20  36  57  86 115 152 185 243 295 340
#     4  10  21  35  58  84 111 145 191 244 294 343
#     4  11  21  35  54  82 119 158 194 228 287 351
#     4  10  20  35  53  81 115 148 190 238 290 336
#     4  12  22  38  54  82 120 168 200 220 286 350
#
# _framework density 22.996089000000001
#
# number of rings (size 3 to 8) (size 9 to 14) (size 15 to 20)
#    0.000    1.455    9.091    0.545    5.091    0.000 
#    0.000    0.000    0.000    0.000    0.000    5.091 
#    0.000    1.455    0.000    8.000    0.000    1.455 
#
# Total GULP energy -122611.409750 kJ/mol
# GULP energy per Si atom -5573.245898 kJ/mol
# Density = 2.294375 g / cm^3
# Si number density = 22.996089 Si / 1000 Ang^3
#
#
#
# Elastic Constant Matrix: (Units=GPa)
#
#
# Indices 1 2 3 4 5 6 
#
# 1 135.8782 53.0763 41.1808 0.0000 -46.0135 0.0000
# 2 53.0763 109.6374 52.8156 0.0000 -21.5880 0.0000
# 3 41.1808 52.8156 58.1855 0.0000 -25.4015 0.0000
# 4 0.0000 0.0000 0.0000 31.6355 0.0000 -11.5875
# 5 -46.0135 -21.5880 -25.4015 0.0000 55.6436 0.0000
# 6 0.0000 0.0000 0.0000 -11.5875 0.0000 31.7781
#
#
#
# Elastic Compliance Matrix: (Units=1/GPa)
#
#
# Indices 1 2 3 4 5 6 
#
# 1 0.011819 -0.003186 -0.002180 0.000000 0.007542 0.000000
# 2 -0.003186 0.017080 -0.014370 0.000000 -0.002568 0.000000
# 3 -0.002180 -0.014370 0.035659 0.000000 0.008901 0.000000
# 4 0.000000 0.000000 0.000000 0.036483 0.000000 0.013303
# 5 0.007542 -0.002568 0.008901 0.000000 0.027275 0.000000
# 6 0.000000 0.000000 0.000000 0.013303 0.000000 0.036319
#
#
# Mechanical properties :
#
#
# Convention : Reuss Voigt Hill
#
# Bulk Modulus (GPa) = 39.86410 66.42737 53.14574
# Shear Modulus (GPa) = 23.53284 34.25332 28.89308
#
# Velocity S-wave (km/s) = 3.20244 3.86363 3.54847
# Velocity P-wave (km/s) = 5.57198 6.98946 6.32058
#
# Compressibility (1/GPa) = 0.02508523
#
# Stress axis : x y z
#
# Youngs Moduli (GPa) = 84.61018 58.54697 28.04370
#
# Poissons Ratio (x) = 0.18656 0.06113
# Poissons Ratio (y) = 0.26961 0.40299
# Poissons Ratio (z) = 0.18444 0.84132
#
# Static dielectric constant tensor:
#      x y z
#    x 1.905690 0.000000 -0.111360 
#    y 0.000000 2.053510 0.000000 
#    z -0.111360 0.000000 2.018400 
# 
# From -- ./inp_files/47553.got.cif
#   From: 2010.05.17/outbox.cif.g08.bks.cpg/sg15_24_cif.got.tgz:47553.got - 2010.06.03 18:47:42.
