data_PCOD9269572
_publ_section_title
;
Structure prediction by ZEFSAII (Michael W. Deem and Ramdas Pophale) SiO2 
 PCOD9269572
Probable space group: C 2/C
;
_chemical_formula_sum "Si O2"
_cell_formula_units_Z 60
_cell_length_a 7.818365
_cell_length_b 11.616444
_cell_length_c 32.970756
_cell_angle_alpha 90.000000
_cell_angle_beta 101.624863
_cell_angle_gamma 90.000000
_cell_volume 2933.034194
_symmetry_space_group_name_H-M "C 2/C"
_symmetry_group_IT_number 15
_symmetry_cell_setting 'monoclinic'
loop_
_space_group_symop_operation_xyz
x,y,z
-x,y,1/2-z
-x,-y,-z
x,-y,1/2+z
1/2+x,1/2+y,z
1/2-x,1/2+y,1/2-z
1/2-x,1/2-y,-z
1/2+x,1/2-y,1/2+z
loop_
_atom_site_type_symbol
_atom_site_label
_atom_site_fract_x
_atom_site_fract_y
_atom_site_fract_z
Si Si1 0.711580 0.039471 0.480206
Si Si2 0.057940 0.636994 0.552002
Si Si3 0.054043 0.115575 0.450997
Si Si4 0.000000 0.230264 0.750000
Si Si5 0.364289 0.553026 0.618240
Si Si6 0.687015 0.355516 0.181314
Si Si7 0.756168 0.076333 0.278857
Si Si8 0.831211 0.898569 0.689780
O O1 0.556569 0.978512 0.448451
O O2 0.807073 0.939085 0.511097
O O3 0.630611 0.126858 0.509325
O O4 0.861114 0.092485 0.459714
O O5 0.938650 0.747866 0.553133
O O6 0.223353 0.633477 0.589575
O O7 0.081865 0.045533 0.411186
O O8 0.092913 0.156061 0.720563
O O9 0.136302 0.312749 0.779537
O O10 0.538767 0.617449 0.641325
O O11 0.281204 0.488595 0.652810
O O12 0.802778 0.468659 0.196291
O O13 0.775248 0.232761 0.178468
O O14 0.755607 0.063508 0.229834
O O15 0.958022 0.100147 0.298797
#
# Coordination Sequence:
#
# PCOD9269572 Si02
#       8
#     8   8   8   4   8   8   8   8
#     4   9  20  37  58  82 101 134 185 219 256 317
#     4  10  20  36  58  79 107 140 173 220 267 308
#     4  10  20  36  56  79 108 139 175 220 262 311
#     4  10  20  34  58  80  98 136 184 222 258 302
#     4  10  22  35  50  81 113 140 175 210 263 327
#     4  10  20  37  55  75 110 143 172 222 265 305
#     4   9  19  36  57  80 100 135 188 221 256 313
#     4   9  19  37  55  75 110 143 172 219 267 309
#
# _framework density 20.456631000000002
#
# number of rings (size 3 to 8) (size 9 to 14) (size 15 to 20)
#    0.000    2.400    0.000    2.400    0.000    6.400 
#    0.000    9.333    0.000    0.000    0.000    0.000 
#    0.000    0.000    0.000    0.000    0.000    0.000 
#
# Total GULP energy -167445.572411 kJ/mol
# GULP energy per Si atom -5581.519080 kJ/mol
# Density = 2.041007 g / cm^3
# Si number density = 20.456631 Si / 1000 Ang^3
#
#
#
# Elastic Constant Matrix: (Units=GPa)
#
#
# Indices 1 2 3 4 5 6 
#
# 1 25.1907 -6.4486 -9.0513 0.0000 3.3501 0.0000
# 2 -6.4486 75.5832 16.7893 0.0000 12.3993 0.0000
# 3 -9.0513 16.7893 47.4359 0.0000 17.0268 0.0000
# 4 0.0000 0.0000 0.0000 14.4211 0.0000 0.9591
# 5 3.3501 12.3993 17.0268 0.0000 19.2452 0.0000
# 6 0.0000 0.0000 0.0000 0.9591 0.0000 25.1100
#
#
#
# Elastic Compliance Matrix: (Units=1/GPa)
#
#
# Indices 1 2 3 4 5 6 
#
# 1 0.051221 0.004962 0.018120 0.000000 -0.028144 0.000000
# 2 0.004962 0.015507 -0.000946 0.000000 -0.010018 0.000000
# 3 0.018120 -0.000946 0.037787 0.000000 -0.035976 0.000000
# 4 0.000000 0.000000 0.000000 0.069519 0.000000 -0.002655
# 5 -0.028144 -0.010018 -0.035976 0.000000 0.095144 0.000000
# 6 0.000000 0.000000 0.000000 -0.002655 0.000000 0.039926
#
#
# Mechanical properties :
#
#
# Convention : Reuss Voigt Hill
#
# Bulk Modulus (GPa) = 6.72103 16.75429 11.73766
# Shear Modulus (GPa) = 15.90189 21.54995 18.72592
#
# Velocity S-wave (km/s) = 2.79112 3.24920 3.02883
# Velocity P-wave (km/s) = 3.69861 4.72063 4.24053
#
# Compressibility (1/GPa) = 0.14878675
#
# Stress axis : x y z
#
# Youngs Moduli (GPa) = 19.52322 64.48547 26.46444
#
# Poissons Ratio (x) = -0.31999 -0.47952
# Poissons Ratio (y) = -0.09688 0.02503
# Poissons Ratio (z) = -0.35375 0.06099
#
# Static dielectric constant tensor:
#      x y z
#    x 1.742530 0.000000 0.001130 
#    y 0.000000 1.734680 0.000000 
#    z 0.001130 0.000000 1.721010 
# 
# From -- ./inp_files/307204.got.cif
#   From: 2010.05.17/outbox.cif.g08.bks.cpg/sg15_154_cif.got.tgz:307204.got - 2010.06.03 18:47:42.
