data_PCOD9269866
_publ_section_title
;
Structure prediction by ZEFSAII (Michael W. Deem and Ramdas Pophale) SiO2 
 PCOD9269866
Probable space group: C 2/C
;
_chemical_formula_sum "Si O2"
_cell_formula_units_Z 64
_cell_length_a 8.654376
_cell_length_b 30.195668
_cell_length_c 14.777201
_cell_angle_alpha 90.000000
_cell_angle_beta 126.825618
_cell_angle_gamma 90.000000
_cell_volume 3091.107379
_symmetry_space_group_name_H-M "C 2/C"
_symmetry_group_IT_number 15
_symmetry_cell_setting 'monoclinic'
loop_
_space_group_symop_operation_xyz
x,y,z
-x,y,1/2-z
-x,-y,-z
x,-y,1/2+z
1/2+x,1/2+y,z
1/2-x,1/2+y,1/2-z
1/2-x,1/2-y,-z
1/2+x,1/2-y,1/2+z
loop_
_atom_site_type_symbol
_atom_site_label
_atom_site_fract_x
_atom_site_fract_y
_atom_site_fract_z
Si Si1 0.489824 0.089625 0.443269
Si Si2 0.222683 0.062908 0.800675
Si Si3 0.650950 0.777050 0.219022
Si Si4 0.935758 0.181675 0.328364
Si Si5 0.146078 0.665516 0.972547
Si Si6 0.820567 0.106341 0.420843
Si Si7 0.192915 0.138604 0.655009
Si Si8 0.199465 0.471031 0.764290
O O1 0.631424 0.063750 0.562926
O O2 0.389657 0.129344 0.462744
O O3 0.625342 0.107683 0.410061
O O4 0.341705 0.057043 0.341346
O O5 0.269377 0.106119 0.758313
O O6 0.000000 0.067000 0.750000
O O7 0.237744 0.019244 0.744833
O O8 0.500000 0.774704 0.250000
O O9 0.691942 0.726029 0.214272
O O10 0.529910 0.800401 0.096702
O O11 0.814430 0.811637 0.306908
O O12 0.834222 0.142445 0.346326
O O13 0.000000 0.169210 0.250000
O O14 0.147808 0.190121 0.446227
O O15 0.171051 0.641164 0.884927
O O16 0.834800 0.058387 0.377409
O O17 0.992935 0.118619 0.549059
O O18 0.000000 0.475238 0.750000
#
# Coordination Sequence:
#
# PCOD9269866 Si02
#       8
#     8   8   8   8   8   8   8   8
#     4  11  22  41  62  91 124 166 203 259 317 374
#     4  12  24  40  64  90 126 160 207 259 321 371
#     4   9  18  34  58  92 122 153 211 256 300 355
#     4  10  20  36  62  90 119 164 208 253 299 366
#     4  10  20  34  63  86 123 161 206 251 308 361
#     4  10  22  43  61  90 130 161 206 256 318 371
#     4  10  21  38  62  93 121 167 202 263 303 372
#     4  10  25  42  61  87 122 164 212 258 308 378
#
# _framework density 20.704554000000002
#
# number of rings (size 3 to 8) (size 9 to 14) (size 15 to 20)
#    0.000    1.750    2.500    1.500    1.750    4.000 
#    0.000    0.625    0.000    9.750    0.000    0.000 
#    0.000    0.000    0.000    0.000    0.000    0.000 
#
# Total GULP energy -178630.255342 kJ/mol
# GULP energy per Si atom -5582.195479 kJ/mol
# Density = 2.065743 g / cm^3
# Si number density = 20.704554 Si / 1000 Ang^3
#
#
#
# Elastic Constant Matrix: (Units=GPa)
#
#
# Indices 1 2 3 4 5 6 
#
# 1 44.2066 34.5736 7.1883 0.0000 -12.3926 0.0000
# 2 34.5736 104.8616 18.0067 0.0000 -8.9678 0.0000
# 3 7.1883 18.0067 64.7421 0.0000 0.8368 0.0000
# 4 0.0000 0.0000 0.0000 23.5836 0.0000 0.2250
# 5 -12.3926 -8.9678 0.8368 0.0000 31.4221 0.0000
# 6 0.0000 0.0000 0.0000 0.2250 0.0000 22.4137
#
#
#
# Elastic Compliance Matrix: (Units=1/GPa)
#
#
# Indices 1 2 3 4 5 6 
#
# 1 0.033513 -0.009974 -0.001081 0.000000 0.010399 0.000000
# 2 -0.009974 0.013261 -0.002580 0.000000 -0.000080 0.000000
# 3 -0.001081 -0.002580 0.016304 0.000000 -0.001597 0.000000
# 4 0.000000 0.000000 0.000000 0.042406 0.000000 -0.000426
# 5 0.010399 -0.000080 -0.001597 0.000000 0.035946 0.000000
# 6 0.000000 0.000000 0.000000 -0.000426 0.000000 0.044620
#
#
# Mechanical properties :
#
#
# Convention : Reuss Voigt Hill
#
# Bulk Modulus (GPa) = 27.92714 37.03860 32.48287
# Shear Modulus (GPa) = 22.19684 25.75331 23.97508
#
# Velocity S-wave (km/s) = 3.27781 3.53065 3.40658
# Velocity P-wave (km/s) = 5.27665 5.87780 5.58532
#
# Compressibility (1/GPa) = 0.03580746
#
# Stress axis : x y z
#
# Youngs Moduli (GPa) = 29.83906 75.40824 61.33423
#
# Poissons Ratio (x) = 0.75216 0.06631
# Poissons Ratio (y) = 0.29763 0.15823
# Poissons Ratio (z) = 0.03226 0.19454
#
# Static dielectric constant tensor:
#      x y z
#    x 1.716830 0.000000 0.023730 
#    y 0.000000 1.747150 0.000000 
#    z 0.023730 0.000000 1.839590 
# 
# From -- ./inp_files/139860.got.cif
#   From: 2010.05.17/outbox.cif.g08.bks.cpg/sg15_70_cif.got.tgz:139860.got - 2010.06.03 18:47:42.
