data_PCOD9269558
_publ_section_title
;
Structure prediction by ZEFSAII (Michael W. Deem and Ramdas Pophale) SiO2 
 PCOD9269558
Probable space group: C 2/C
;
_chemical_formula_sum "Si O2"
_cell_formula_units_Z 52
_cell_length_a 15.480089
_cell_length_b 29.341892
_cell_length_c 8.418008
_cell_angle_alpha 90.000000
_cell_angle_beta 138.246725
_cell_angle_gamma 90.000000
_cell_volume 2546.219094
_symmetry_space_group_name_H-M "C 2/C"
_symmetry_group_IT_number 15
_symmetry_cell_setting 'monoclinic'
loop_
_space_group_symop_operation_xyz
x,y,z
-x,y,1/2-z
-x,-y,-z
x,-y,1/2+z
1/2+x,1/2+y,z
1/2-x,1/2+y,1/2-z
1/2-x,1/2-y,-z
1/2+x,1/2-y,1/2+z
loop_
_atom_site_type_symbol
_atom_site_label
_atom_site_fract_x
_atom_site_fract_y
_atom_site_fract_z
Si Si1 0.323872 0.962421 0.790201
Si Si2 0.905433 0.971286 0.486170
Si Si3 0.289804 0.724862 0.219126
Si Si4 0.618307 0.379730 0.201083
Si Si5 0.500000 0.025845 0.250000
Si Si6 0.814099 0.875197 0.843690
Si Si7 0.931239 0.782042 0.482720
O O1 0.275163 0.917979 0.814032
O O2 0.197523 0.993400 0.579769
O O3 0.408685 0.949377 0.752639
O O4 0.408760 0.993486 0.020770
O O5 0.837294 0.927677 0.311871
O O6 0.000000 0.000000 0.500000
O O7 0.000000 0.952019 0.750000
O O8 0.270530 0.670535 0.196249
O O9 0.444990 0.728447 0.460548
O O10 0.250000 0.750000 0.000000
O O11 0.187983 0.747662 0.199086
O O12 0.681819 0.370295 0.459195
O O13 0.463103 0.386202 0.008030
O O14 0.625060 0.332972 0.112307
O O15 0.000000 0.778993 0.750000
#
# Coordination Sequence:
#
# PCOD9269558 Si02
#       7
#     8   8   8   8   4   8   8
#     4  11  22  41  59  85 123 167 214 254 307 375
#     4  12  22  35  62  96 124 156 207 266 323 373
#     4   9  19  37  58  83 113 155 196 259 313 374
#     4  10  20  34  57  93 120 153 193 257 327 371
#     4  10  24  42  58  78 124 180 208 246 304 368
#     4  10  20  36  60  84 120 155 201 257 315 371
#     4   9  18  36  56  81 116 150 195 248 306 371
#
# _framework density 20.422436999999999
#
# number of rings (size 3 to 8) (size 9 to 14) (size 15 to 20)
#    0.000    1.846    1.538    3.231    0.000    0.615 
#    4.154    3.077    0.000    0.000    0.000    0.000 
#    0.000    0.000    0.000    0.000    0.000    0.000 
#
# Total GULP energy -144988.870691 kJ/mol
# GULP energy per Si atom -5576.495027 kJ/mol
# Density = 2.037595 g / cm^3
# Si number density = 20.422437 Si / 1000 Ang^3
#
#
#
# Elastic Constant Matrix: (Units=GPa)
#
#
# Indices 1 2 3 4 5 6 
#
# 1 50.3531 24.4542 1.4531 0.0000 20.0430 0.0000
# 2 24.4542 115.5308 15.3879 0.0000 20.1092 0.0000
# 3 1.4531 15.3879 44.3704 0.0000 1.4921 0.0000
# 4 0.0000 0.0000 0.0000 21.1486 0.0000 10.0511
# 5 20.0430 20.1092 1.4921 0.0000 30.3326 0.0000
# 6 0.0000 0.0000 0.0000 10.0511 0.0000 16.3161
#
#
#
# Elastic Compliance Matrix: (Units=1/GPa)
#
#
# Indices 1 2 3 4 5 6 
#
# 1 0.027886 -0.003150 0.000730 0.000000 -0.016374 0.000000
# 2 -0.003150 0.010610 -0.003416 0.000000 -0.004785 0.000000
# 3 0.000730 -0.003416 0.023677 0.000000 0.000617 0.000000
# 4 0.000000 0.000000 0.000000 0.066858 0.000000 -0.041186
# 5 -0.016374 -0.004785 0.000617 0.000000 0.046929 0.000000
# 6 0.000000 0.000000 0.000000 -0.041186 0.000000 0.086661
#
#
# Mechanical properties :
#
#
# Convention : Reuss Voigt Hill
#
# Bulk Modulus (GPa) = 19.80104 32.53832 26.16968
# Shear Modulus (GPa) = 17.17460 24.82340 20.99900
#
# Velocity S-wave (km/s) = 2.90309 3.49018 3.21008
# Velocity P-wave (km/s) = 4.57756 5.67530 5.15573
#
# Compressibility (1/GPa) = 0.05050241
#
# Stress axis : x y z
#
# Youngs Moduli (GPa) = 35.86024 94.24918 42.23433
#
# Poissons Ratio (x) = 0.29686 -0.03082
# Poissons Ratio (y) = 0.11295 0.14426
# Poissons Ratio (z) = -0.02617 0.32192
#
# Static dielectric constant tensor:
#      x y z
#    x 1.844930 0.000000 -0.004170 
#    y 0.000000 1.706980 0.000000 
#    z -0.004170 0.000000 1.723010 
# 
# From -- ./inp_files/35116.got.cif
#   From: 2010.05.17/outbox.cif.g08.bks.cpg/sg15_18_cif.got.tgz:35116.got - 2010.06.03 18:47:42.
