data_PCOD9269474
_publ_section_title
;
Structure prediction by ZEFSAII (Michael W. Deem and Ramdas Pophale) SiO2 
 PCOD9269474
Probable space group: C 2/C
;
_chemical_formula_sum "Si O2"
_cell_formula_units_Z 56
_cell_length_a 9.034545
_cell_length_b 22.109006
_cell_length_c 15.064757
_cell_angle_alpha 90.000000
_cell_angle_beta 101.889652
_cell_angle_gamma 90.000000
_cell_volume 2944.550272
_symmetry_space_group_name_H-M "C 2/C"
_symmetry_group_IT_number 15
_symmetry_cell_setting 'monoclinic'
loop_
_space_group_symop_operation_xyz
x,y,z
-x,y,1/2-z
-x,-y,-z
x,-y,1/2+z
1/2+x,1/2+y,z
1/2-x,1/2+y,1/2-z
1/2-x,1/2-y,-z
1/2+x,1/2-y,1/2+z
loop_
_atom_site_type_symbol
_atom_site_label
_atom_site_fract_x
_atom_site_fract_y
_atom_site_fract_z
Si Si1 0.390533 0.281614 0.901729
Si Si2 0.826768 0.111099 0.720322
Si Si3 0.804130 0.658343 0.977058
Si Si4 0.408506 0.077595 0.488827
Si Si5 0.337209 0.740515 0.775729
Si Si6 0.935849 0.513340 0.835700
Si Si7 0.769132 0.194833 0.068722
O O1 0.394262 0.219312 0.959820
O O2 0.290903 0.264187 0.805664
O O3 0.551857 0.306030 0.892264
O O4 0.299929 0.327802 0.952386
O O5 0.799918 0.140467 0.619508
O O6 0.808066 0.168375 0.785084
O O7 0.695478 0.061030 0.708341
O O8 0.000000 0.088983 0.750000
O O9 0.926668 0.606885 0.009298
O O10 0.434008 0.045784 0.587590
O O11 0.290454 0.131950 0.476282
O O12 0.373259 0.034005 0.401161
O O13 0.500000 0.744688 0.750000
O O14 0.326211 0.783507 0.858472
O O15 0.000000 0.488766 0.750000
O O16 0.750000 0.250000 0.000000
#
# Coordination Sequence:
#
# PCOD9269474 Si02
#       7
#     8   8   8   8   8   8   8
#     4  10  20  34  56  88 125 160 195 235 314 364
#     4   9  20  35  60  87 114 152 209 250 301 367
#     4   9  18  35  58  84 123 159 190 250 298 375
#     4  10  22  42  58  90 123 156 214 250 312 374
#     4  10  22  37  57  88 125 163 202 246 314 381
#     4  10  23  41  65  83 113 169 212 260 297 366
#     4  12  24  35  61  96 127 158 191 262 312 368
#
# _framework density 19.018184999999999
#
# number of rings (size 3 to 8) (size 9 to 14) (size 15 to 20)
#    0.000    2.000    1.429    1.286    8.000    1.714 
#    0.000    2.857    0.000    5.143    0.000    0.000 
#    0.000    0.000    0.000    0.000    0.000    0.000 
#
# Total GULP energy -156152.693271 kJ/mol
# GULP energy per Si atom -5576.881903 kJ/mol
# Density = 1.897490 g / cm^3
# Si number density = 19.018185 Si / 1000 Ang^3
#
#
#
# Elastic Constant Matrix: (Units=GPa)
#
#
# Indices 1 2 3 4 5 6 
#
# 1 72.8745 17.9509 25.4812 0.0000 16.0428 0.0000
# 2 17.9509 50.2243 16.8925 0.0000 4.7916 0.0000
# 3 25.4812 16.8925 59.5092 0.0000 1.0133 0.0000
# 4 0.0000 0.0000 0.0000 -7.1206 0.0000 4.9409
# 5 16.0428 4.7916 1.0133 0.0000 32.1954 0.0000
# 6 0.0000 0.0000 0.0000 4.9409 0.0000 27.9020
#
#
#
# Elastic Compliance Matrix: (Units=1/GPa)
#
#
# Indices 1 2 3 4 5 6 
#
# 1 0.018951 -0.003610 -0.006942 0.000000 -0.008688 0.000000
# 2 -0.003610 0.023010 -0.004961 0.000000 -0.001470 0.000000
# 3 -0.006942 -0.004961 0.021125 0.000000 0.003533 0.000000
# 4 0.000000 0.000000 0.000000 -0.125070 0.000000 0.022148
# 5 -0.008688 -0.001470 0.003533 0.000000 0.035497 0.000000
# 6 0.000000 0.000000 0.000000 0.022148 0.000000 0.031918
#
#
# Mechanical properties :
#
#
# Convention : Reuss Voigt Hill
#
# Bulk Modulus (GPa) = 31.19141 33.69522 32.44331
# Shear Modulus (GPa) = 106.06205 18.74759 62.40482
#
# Velocity S-wave (km/s) = 7.47595 3.14311 5.73450
# Velocity P-wave (km/s) = 9.53710 5.56129 7.80654
#
# Compressibility (1/GPa) = 0.03206011
#
# Stress axis : x y z
#
# Youngs Moduli (GPa) = 52.76696 43.46015 47.33784
#
# Poissons Ratio (x) = 0.15688 0.32863
# Poissons Ratio (y) = 0.19047 0.23484
# Poissons Ratio (z) = 0.36632 0.21560
#
# Static dielectric constant tensor:
#      x y z
#    x 1.658050 0.000000 -0.002720 
#    y 0.000000 1.691920 0.000000 
#    z -0.002720 0.000000 1.721420 
# 
# From -- ./inp_files/137472.got.cif
#   From: 2010.05.17/outbox.cif.g08.bks.cpg/sg15_69_cif.got.tgz:137472.got - 2010.06.03 18:47:42.
