data_PCOD9269920
_publ_section_title
;
Structure prediction by ZEFSAII (Michael W. Deem and Ramdas Pophale) SiO2 
 PCOD9269920
Probable space group: C 2/C
;
_chemical_formula_sum "Si O2"
_cell_formula_units_Z 44
_cell_length_a 6.255691
_cell_length_b 20.927347
_cell_length_c 19.450283
_cell_angle_alpha 90.000000
_cell_angle_beta 125.758805
_cell_angle_gamma 90.000000
_cell_volume 2066.309870
_symmetry_space_group_name_H-M "C 2/C"
_symmetry_group_IT_number 15
_symmetry_cell_setting 'monoclinic'
loop_
_space_group_symop_operation_xyz
x,y,z
-x,y,1/2-z
-x,-y,-z
x,-y,1/2+z
1/2+x,1/2+y,z
1/2-x,1/2+y,1/2-z
1/2-x,1/2-y,-z
1/2+x,1/2-y,1/2+z
loop_
_atom_site_type_symbol
_atom_site_label
_atom_site_fract_x
_atom_site_fract_y
_atom_site_fract_z
Si Si1 0.500000 0.405514 0.750000
Si Si2 0.679283 0.324109 0.488900
Si Si3 0.965769 0.635289 0.166096
Si Si4 0.823151 0.603518 0.647954
Si Si5 0.899821 0.031772 0.374804
Si Si6 0.954766 0.428394 0.023463
O O1 0.564321 0.448387 0.697045
O O2 0.750388 0.362330 0.814578
O O3 0.750000 0.250000 0.500000
O O4 0.735358 0.334698 0.579984
O O5 0.382886 0.339761 0.408320
O O6 0.882222 0.373940 0.487824
O O7 0.875390 0.561398 0.152036
O O8 0.000000 0.658997 0.250000
O O9 0.627186 0.543104 0.622109
O O10 0.996002 0.585574 0.612542
O O11 0.000000 0.612133 0.750000
O O12 0.136811 0.067648 0.457573
O O13 0.000000 0.500000 0.000000
#
# Coordination Sequence:
#
# PCOD9269920 Si02
#       6
#     4   8   8   8   8   8
#     4  10  20  34  68 106 136 170 226 282 358 416
#     4  12  27  49  69 100 144 194 246 293 362 437
#     4  10  21  41  66 103 136 177 232 296 351 428
#     4  12  27  45  68 107 149 185 240 305 364 437
#     4  11  21  38  71 104 140 174 225 297 361 420
#     4  12  24  44  76 101 140 189 237 298 376 428
#
# _framework density 21.294
#
# number of rings (size 3 to 8) (size 9 to 14) (size 15 to 20)
#    0.000    0.727    5.455    3.273    2.545    1.455 
#    4.909    0.000    0.000    0.000    0.000    0.000 
#    0.000    0.000    0.000    0.000    0.000    0.000 
#
# Total GULP energy -122534.673401 kJ/mol
# GULP energy per Si atom -5569.757882 kJ/mol
# Density = 2.124553 g / cm^3
# Si number density = 21.294000 Si / 1000 Ang^3
#
#
#
# Elastic Constant Matrix: (Units=GPa)
#
#
# Indices 1 2 3 4 5 6 
#
# 1 64.2646 26.2221 46.2396 0.0000 15.3179 0.0000
# 2 26.2221 117.5243 45.5958 0.0000 2.6676 0.0000
# 3 46.2396 45.5958 165.1048 0.0000 -8.1648 0.0000
# 4 0.0000 0.0000 0.0000 10.9646 0.0000 2.9203
# 5 15.3179 2.6676 -8.1648 0.0000 30.1887 0.0000
# 6 0.0000 0.0000 0.0000 2.9203 0.0000 18.6828
#
#
#
# Elastic Compliance Matrix: (Units=1/GPa)
#
#
# Indices 1 2 3 4 5 6 
#
# 1 0.025099 -0.002542 -0.007040 0.000000 -0.014415 0.000000
# 2 -0.002542 0.009862 -0.002018 0.000000 -0.000128 0.000000
# 3 -0.007040 -0.002018 0.008890 0.000000 0.006155 0.000000
# 4 0.000000 0.000000 0.000000 0.095165 0.000000 -0.014875
# 5 -0.014415 -0.000128 0.006155 0.000000 0.042115 0.000000
# 6 0.000000 0.000000 0.000000 -0.014875 0.000000 0.055850
#
#
# Mechanical properties :
#
#
# Convention : Reuss Voigt Hill
#
# Bulk Modulus (GPa) = 48.42267 64.77874 56.60071
# Shear Modulus (GPa) = 18.72205 27.22298 22.97251
#
# Velocity S-wave (km/s) = 2.96838 3.57940 3.28811
# Velocity P-wave (km/s) = 5.87688 6.89710 6.40733
#
# Compressibility (1/GPa) = 0.02065148
#
# Stress axis : x y z
#
# Youngs Moduli (GPa) = 39.84188 101.40186 112.48402
#
# Poissons Ratio (x) = 0.25772 0.79192
# Poissons Ratio (y) = 0.10126 0.22699
# Poissons Ratio (z) = 0.28050 0.20463
#
# Static dielectric constant tensor:
#      x y z
#    x 1.920110 0.000000 0.002410 
#    y 0.000000 1.846480 0.000000 
#    z 0.002410 0.000000 1.854540 
# 
# From -- ./inp_files/227419.got.cif
#   From: 2010.05.17/outbox.cif.g08.bks.cpg/sg15_114_cif.got.tgz:227419.got - 2010.06.03 18:47:42.
