data_PCOD9269004
_publ_section_title
;
Structure prediction by ZEFSAII (Michael W. Deem and Ramdas Pophale) SiO2 
 PCOD9269004
Probable space group: C 2/C
;
_chemical_formula_sum "Si O2"
_cell_formula_units_Z 64
_cell_length_a 9.190446
_cell_length_b 19.822023
_cell_length_c 23.718504
_cell_angle_alpha 90.000000
_cell_angle_beta 45.355002
_cell_angle_gamma 90.000000
_cell_volume 3074.192957
_symmetry_space_group_name_H-M "C 2/C"
_symmetry_group_IT_number 15
_symmetry_cell_setting 'monoclinic'
loop_
_space_group_symop_operation_xyz
x,y,z
-x,y,1/2-z
-x,-y,-z
x,-y,1/2+z
1/2+x,1/2+y,z
1/2-x,1/2+y,1/2-z
1/2-x,1/2-y,-z
1/2+x,1/2-y,1/2+z
loop_
_atom_site_type_symbol
_atom_site_label
_atom_site_fract_x
_atom_site_fract_y
_atom_site_fract_z
Si Si1 0.559642 0.551551 0.405277
Si Si2 0.925505 0.018421 0.329865
Si Si3 0.152177 0.213285 0.660696
Si Si4 0.598013 0.912979 0.412197
Si Si5 0.318825 0.980153 0.935001
Si Si6 0.937044 0.201029 0.472357
Si Si7 0.898559 0.373328 0.582000
Si Si8 0.984728 0.228202 0.924683
O O1 0.591278 0.530511 0.332257
O O2 0.388703 0.500702 0.476600
O O3 0.757703 0.540922 0.389116
O O4 0.465349 0.626894 0.437396
O O5 0.813416 0.089332 0.351261
O O6 0.000000 0.992294 0.250000
O O7 0.744892 0.969261 0.399787
O O8 0.257457 0.144056 0.652083
O O9 0.345990 0.261878 0.597676
O O10 0.032422 0.199650 0.634028
O O11 0.000000 0.239139 0.750000
O O12 0.462894 0.954703 0.404930
O O13 0.465705 0.879023 0.498127
O O14 0.430508 0.916633 0.932275
O O15 0.750000 0.250000 0.500000
O O16 0.931834 0.189981 0.542294
O O17 0.893858 0.298313 0.606088
O O18 0.750000 0.250000 0.000000
#
# Coordination Sequence:
#
# PCOD9269004 Si02
#       8
#     8   8   8   8   8   8   8   8
#     4  11  21  34  56  91 120 152 194 251 308 358
#     4  11  23  37  57  87 121 156 192 243 311 373
#     4  11  24  40  63  91 123 161 209 259 317 374
#     4  11  19  39  62  84 112 156 210 246 297 369
#     4  10  20  33  59  90 114 144 202 255 297 350
#     4  11  22  38  62  90 123 164 212 256 307 373
#     4  11  18  38  62  84 109 156 209 246 289 360
#     4  10  20  37  63  88 113 161 212 253 297 368
#
# _framework density 20.818473000000001
#
# number of rings (size 3 to 8) (size 9 to 14) (size 15 to 20)
#    0.000    1.250    5.000    4.125    0.000    1.000 
#    0.000    3.125    0.000    1.500    0.000    0.000 
#    0.000    0.000    0.000    0.000    0.000    0.000 
#
# Total GULP energy -178514.411429 kJ/mol
# GULP energy per Si atom -5578.575357 kJ/mol
# Density = 2.077109 g / cm^3
# Si number density = 20.818473 Si / 1000 Ang^3
#
#
#
# Elastic Constant Matrix: (Units=GPa)
#
#
# Indices 1 2 3 4 5 6 
#
# 1 144.0727 22.5326 37.2933 0.0004 25.2911 -0.0001
# 2 22.5326 40.0133 -0.2688 0.0006 5.2793 -0.0007
# 3 37.2933 -0.2688 62.5672 0.0016 14.5913 -0.0012
# 4 0.0004 0.0006 0.0016 19.9979 -0.0005 -5.8827
# 5 25.2911 5.2793 14.5913 -0.0005 26.0869 0.0004
# 6 -0.0001 -0.0007 -0.0012 -5.8827 0.0004 23.4811
#
#
#
# Elastic Compliance Matrix: (Units=1/GPa)
#
#
# Indices 1 2 3 4 5 6 
#
# 1 0.009940 -0.004818 -0.004514 0.000000 -0.006137 0.000000
# 2 -0.004818 0.028139 0.003716 -0.000001 -0.003102 0.000001
# 3 -0.004514 0.003716 0.020521 -0.000002 -0.007853 0.000001
# 4 0.000000 -0.000001 -0.000002 0.053984 0.000002 0.013524
# 5 -0.006137 -0.003102 -0.007853 0.000002 0.049304 -0.000001
# 6 0.000000 0.000001 0.000001 0.013524 -0.000001 0.045976
#
#
# Mechanical properties :
#
#
# Convention : Reuss Voigt Hill
#
# Bulk Modulus (GPa) = 21.11145 40.64083 30.87614
# Shear Modulus (GPa) = 21.28692 26.38627 23.83660
#
# Velocity S-wave (km/s) = 3.20113 3.56398 3.38742
# Velocity P-wave (km/s) = 4.88116 6.04151 5.49206
#
# Compressibility (1/GPa) = 0.04736766
#
# Stress axis : x y z
#
# Youngs Moduli (GPa) = 100.59951 35.53755 48.73020
#
# Poissons Ratio (x) = 0.17123 0.21999
# Poissons Ratio (y) = 0.48472 -0.18110
# Poissons Ratio (z) = 0.45416 -0.13207
#
# Static dielectric constant tensor:
#      x y z
#    x 1.882130 0.000000 -0.005490 
#    y 0.000000 1.794750 0.000000 
#    z -0.005490 0.000000 1.783240 
# 
# From -- ./inp_files/266080.got.cif
#   From: 2010.05.17/outbox.cif.g08.bks.cpg/sg15_134_cif.got.tgz:266080.got - 2010.06.03 18:47:42.
