data_PCOD9269185
_publ_section_title
;
Structure prediction by ZEFSAII (Michael W. Deem and Ramdas Pophale) SiO2 
 PCOD9269185
Probable space group: C 2/C
;
_chemical_formula_sum "Si O2"
_cell_formula_units_Z 64
_cell_length_a 28.834469
_cell_length_b 14.326076
_cell_length_c 8.359059
_cell_angle_alpha 90.000000
_cell_angle_beta 107.246145
_cell_angle_gamma 90.000000
_cell_volume 3297.752915
_symmetry_space_group_name_H-M "C 2/C"
_symmetry_group_IT_number 15
_symmetry_cell_setting 'monoclinic'
loop_
_space_group_symop_operation_xyz
x,y,z
-x,y,1/2-z
-x,-y,-z
x,-y,1/2+z
1/2+x,1/2+y,z
1/2-x,1/2+y,1/2-z
1/2-x,1/2-y,-z
1/2+x,1/2-y,1/2+z
loop_
_atom_site_type_symbol
_atom_site_label
_atom_site_fract_x
_atom_site_fract_y
_atom_site_fract_z
Si Si1 0.945135 0.981371 0.887445
Si Si2 0.713433 0.126059 0.913104
Si Si3 0.674727 0.685193 0.461690
Si Si4 0.658415 0.528146 0.203224
Si Si5 0.692967 0.069946 0.261294
Si Si6 0.946295 0.146427 0.647472
Si Si7 0.210990 0.882898 0.460007
Si Si8 0.860264 0.743895 0.238925
O O1 0.892545 0.018282 0.890913
O O2 0.944368 0.040437 0.720310
O O3 0.940537 0.874105 0.951361
O O4 0.000000 0.000000 0.000000
O O5 0.684420 0.222666 0.864866
O O6 0.707911 0.097036 0.095119
O O7 0.770189 0.149785 0.941283
O O8 0.692678 0.041207 0.787236
O O9 0.651152 0.602168 0.337930
O O10 0.644337 0.717584 0.584231
O O11 0.697038 0.453836 0.304651
O O12 0.678739 0.582139 0.074548
O O13 0.735082 0.103600 0.425170
O O14 0.645731 0.132013 0.256478
O O15 0.905020 0.210612 0.687179
O O16 0.000000 0.181918 0.750000
O O17 0.189407 0.784096 0.389926
#
# Coordination Sequence:
#
# PCOD9269185 Si02
#       8
#     8   8   8   8   8   8   8   8
#     4  10  20  34  53  75 106 142 181 224 270 322
#     4  10  22  38  52  77 111 147 187 228 268 315
#     4  10  22  36  54  77 109 149 186 225 273 321
#     4  12  20  33  53  75 114 149 184 219 272 320
#     4  11  22  37  53  77 111 148 184 227 269 322
#     4  10  21  37  54  79 110 140 188 231 276 324
#     4  12  21  32  49  80 109 150 183 219 263 327
#     4  11  23  35  54  80 108 146 187 226 273 328
#
# _framework density 19.407153999999998
#
# number of rings (size 3 to 8) (size 9 to 14) (size 15 to 20)
#    0.000    1.250    5.000    1.125    3.500    1.000 
#    0.000    0.000    0.000    0.000    0.000    3.500 
#    0.000    0.000    0.000    0.000    0.000    0.000 
#
# Total GULP energy -178174.005294 kJ/mol
# GULP energy per Si atom -5567.937665 kJ/mol
# Density = 1.936298 g / cm^3
# Si number density = 19.407154 Si / 1000 Ang^3
#
#
#
# Elastic Constant Matrix: (Units=GPa)
#
#
# Indices 1 2 3 4 5 6 
#
# 1 87.8798 34.3954 19.3442 0.0000 -5.4584 0.0000
# 2 34.3954 105.9436 12.6872 0.0000 -14.2807 0.0000
# 3 19.3442 12.6872 35.3927 0.0000 -5.8697 0.0000
# 4 0.0000 0.0000 0.0000 21.4119 0.0000 -2.8506
# 5 -5.4584 -14.2807 -5.8697 0.0000 19.8426 0.0000
# 6 0.0000 0.0000 0.0000 -2.8506 0.0000 25.3539
#
#
#
# Elastic Compliance Matrix: (Units=1/GPa)
#
#
# Indices 1 2 3 4 5 6 
#
# 1 0.014325 -0.003983 -0.006545 0.000000 -0.000862 0.000000
# 2 -0.003983 0.011798 -0.000868 0.000000 0.007139 0.000000
# 3 -0.006545 -0.000868 0.033378 0.000000 0.007448 0.000000
# 4 0.000000 0.000000 0.000000 0.047413 0.000000 0.005331
# 5 -0.000862 0.007139 0.007448 0.000000 0.057500 0.000000
# 6 0.000000 0.000000 0.000000 0.005331 0.000000 0.040041
#
#
# Mechanical properties :
#
#
# Convention : Reuss Voigt Hill
#
# Bulk Modulus (GPa) = 27.24123 40.22995 33.73559
# Shear Modulus (GPa) = 20.87814 24.17430 22.52622
#
# Velocity S-wave (km/s) = 3.28349 3.53319 3.41063
# Velocity P-wave (km/s) = 5.33313 6.11711 5.73852
#
# Compressibility (1/GPa) = 0.03670906
#
# Stress axis : x y z
#
# Youngs Moduli (GPa) = 69.80675 84.75698 29.95985
#
# Poissons Ratio (x) = 0.33761 0.19608
# Poissons Ratio (y) = 0.27806 0.02602
# Poissons Ratio (z) = 0.45686 0.07360
#
# Static dielectric constant tensor:
#      x y z
#    x 1.698500 0.000000 -0.009660 
#    y 0.000000 1.725330 0.000000 
#    z -0.009660 0.000000 1.772950 
# 
# From -- ./inp_files/69760.got.cif
#   From: 2010.05.17/outbox.cif.g08.bks.cpg/sg15_35_cif.got.tgz:69760.got - 2010.06.03 18:47:42.
