data_PCOD9269211
_publ_section_title
;
Structure prediction by ZEFSAII (Michael W. Deem and Ramdas Pophale) SiO2 
 PCOD9269211
Probable space group: C 2/C
;
_chemical_formula_sum "Si O2"
_cell_formula_units_Z 52
_cell_length_a 26.763773
_cell_length_b 11.916724
_cell_length_c 8.139618
_cell_angle_alpha 90.000000
_cell_angle_beta 100.255684
_cell_angle_gamma 90.000000
_cell_volume 2554.544716
_symmetry_space_group_name_H-M "C 2/C"
_symmetry_group_IT_number 15
_symmetry_cell_setting 'monoclinic'
loop_
_space_group_symop_operation_xyz
x,y,z
-x,y,1/2-z
-x,-y,-z
x,-y,1/2+z
1/2+x,1/2+y,z
1/2-x,1/2+y,1/2-z
1/2-x,1/2-y,-z
1/2+x,1/2-y,1/2+z
loop_
_atom_site_type_symbol
_atom_site_label
_atom_site_fract_x
_atom_site_fract_y
_atom_site_fract_z
Si Si1 0.088106 0.145435 0.216002
Si Si2 0.562876 0.123198 0.600672
Si Si3 0.537836 0.553465 0.891022
Si Si4 0.240497 0.452202 0.449670
Si Si5 0.798683 0.876926 0.787818
Si Si6 0.682465 0.141211 0.606989
Si Si7 0.500000 0.935177 0.750000
O O1 0.062759 0.267125 0.219078
O O2 0.062732 0.049207 0.308645
O O3 0.147853 0.135588 0.274421
O O4 0.078791 0.120617 0.017066
O O5 0.622119 0.119981 0.582046
O O6 0.527612 0.129069 0.416804
O O7 0.542241 0.016569 0.689977
O O8 0.500000 0.620495 0.750000
O O9 0.500000 0.500000 0.000000
O O10 0.256685 0.382079 0.619196
O O11 0.288544 0.509710 0.385172
O O12 0.207325 0.557349 0.492529
O O13 0.207586 0.385894 0.298439
O O14 0.801546 0.770258 0.910231
#
# Coordination Sequence:
#
# PCOD9269211 Si02
#       7
#     8   8   8   8   8   8   4
#     4  10  20  35  54  80 113 141 182 225 276 323
#     4  10  22  37  59  78 110 144 183 239 269 328
#     4   9  19  33  52  77 104 140 179 219 269 329
#     4  10  20  34  57  77 114 144 180 225 269 322
#     4  10  20  34  53  81 109 147 179 220 270 324
#     4  10  20  36  55  82 107 142 185 221 277 318
#     4  10  22  40  56  80 106 142 194 222 288 316
#
# _framework density 20.355878000000001
#
# number of rings (size 3 to 8) (size 9 to 14) (size 15 to 20)
#    0.000    2.154    0.000    2.769    4.308    0.000 
#    0.000    0.000    0.000   18.462    0.000    0.000 
#    0.000    0.000    0.000    0.000    0.000    0.000 
#
# Total GULP energy -144875.600585 kJ/mol
# GULP energy per Si atom -5572.138484 kJ/mol
# Density = 2.030955 g / cm^3
# Si number density = 20.355878 Si / 1000 Ang^3
#
#
#
# Elastic Constant Matrix: (Units=GPa)
#
#
# Indices 1 2 3 4 5 6 
#
# 1 80.5551 26.4306 -0.4205 0.0000 8.0298 0.0000
# 2 26.4306 55.5995 -5.8598 0.0000 6.5495 0.0000
# 3 -0.4205 -5.8598 38.7038 0.0000 8.7245 0.0000
# 4 0.0000 0.0000 0.0000 13.6240 0.0000 -0.3110
# 5 8.0298 6.5495 8.7245 0.0000 27.2908 0.0000
# 6 0.0000 0.0000 0.0000 -0.3110 0.0000 26.7250
#
#
#
# Elastic Compliance Matrix: (Units=1/GPa)
#
#
# Indices 1 2 3 4 5 6 
#
# 1 0.014910 -0.006801 -0.000266 0.000000 -0.002670 0.000000
# 2 -0.006801 0.022235 0.004358 0.000000 -0.004728 0.000000
# 3 -0.000266 0.004358 0.028787 0.000000 -0.010170 0.000000
# 4 0.000000 0.000000 0.000000 0.073419 0.000000 0.000854
# 5 -0.002670 -0.004728 -0.010170 0.000000 0.041814 0.000000
# 6 0.000000 0.000000 0.000000 0.000854 0.000000 0.037428
#
#
# Mechanical properties :
#
#
# Convention : Reuss Voigt Hill
#
# Bulk Modulus (GPa) = 16.52500 23.90654 20.21577
# Shear Modulus (GPa) = 20.47643 23.84184 22.15913
#
# Velocity S-wave (km/s) = 3.17507 3.42607 3.30295
# Velocity P-wave (km/s) = 4.64511 5.23645 4.94962
#
# Compressibility (1/GPa) = 0.06051437
#
# Stress axis : x y z
#
# Youngs Moduli (GPa) = 67.06810 44.97335 34.73815
#
# Poissons Ratio (x) = 0.30589 0.00924
# Poissons Ratio (y) = 0.45616 -0.15140
# Poissons Ratio (z) = 0.01784 -0.19601
#
# Static dielectric constant tensor:
#      x y z
#    x 1.737830 0.000000 0.015600 
#    y 0.000000 1.739640 0.000000 
#    z 0.015600 0.000000 1.738520 
# 
# From -- ./inp_files/65085.got.cif
#   From: 2010.05.17/outbox.cif.g08.bks.cpg/sg15_33_cif.got.tgz:65085.got - 2010.06.03 18:47:42.
