data_PCOD9269432
_publ_section_title
;
Structure prediction by ZEFSAII (Michael W. Deem and Ramdas Pophale) SiO2 
 PCOD9269432
Probable space group: C 2/C
;
_chemical_formula_sum "Si O2"
_cell_formula_units_Z 40
_cell_length_a 29.926536
_cell_length_b 9.178054
_cell_length_c 5.592728
_cell_angle_alpha 90.000000
_cell_angle_beta 82.636456
_cell_angle_gamma 90.000000
_cell_volume 1523.471173
_symmetry_space_group_name_H-M "C 2/C"
_symmetry_group_IT_number 15
_symmetry_cell_setting 'monoclinic'
loop_
_space_group_symop_operation_xyz
x,y,z
-x,y,1/2-z
-x,-y,-z
x,-y,1/2+z
1/2+x,1/2+y,z
1/2-x,1/2+y,1/2-z
1/2-x,1/2-y,-z
1/2+x,1/2-y,1/2+z
loop_
_atom_site_type_symbol
_atom_site_label
_atom_site_fract_x
_atom_site_fract_y
_atom_site_fract_z
Si Si1 0.051299 0.181299 0.764719
Si Si2 0.915484 0.144098 0.257027
Si Si3 0.179443 0.154490 0.988871
Si Si4 0.351621 0.051009 0.114514
Si Si5 0.734824 0.860092 0.307378
O O1 0.079101 0.219455 0.504351
O O2 0.000000 0.222179 0.750000
O O3 0.056278 0.005305 0.780789
O O4 0.066833 0.228948 0.019729
O O5 0.864016 0.092665 0.346375
O O6 0.207872 0.254411 0.148325
O O7 0.157441 0.278454 0.832028
O O8 0.218767 0.069558 0.825154
O O9 0.372611 0.976664 0.335781
O O10 0.302272 0.978419 0.101720
O O11 0.750000 0.750000 0.500000
#
# Coordination Sequence:
#
# PCOD9269432 Si02
#       5
#     8   8   8   8   8
#     4  10  20  39  59  85 118 150 176 229 306 357
#     4  10  20  34  56  84 114 148 184 232 269 359
#     4  10  22  36  51  83 110 146 206 230 279 325
#     4  10  20  36  54  72 100 149 192 232 280 313
#     4  10  20  38  55  71 113 160 195 241 278 323
#
# _framework density 26.255828999999999
#
# number of rings (size 3 to 8) (size 9 to 14) (size 15 to 20)
#    0.000    2.000    2.000    3.000    2.800    0.000 
#   21.600    0.000    0.000    0.000    0.000    0.000 
#    0.000  108.800    0.000    0.000    0.000    0.000 
#
# Total GULP energy -111781.462984 kJ/mol
# GULP energy per Si atom -5589.073149 kJ/mol
# Density = 2.619607 g / cm^3
# Si number density = 26.255829 Si / 1000 Ang^3
#
#
#
# Elastic Constant Matrix: (Units=GPa)
#
#
# Indices 1 2 3 4 5 6 
#
# 1 120.6442 4.7954 44.8491 0.0000 11.9964 0.0000
# 2 4.7954 53.5869 17.7368 0.0000 -1.0883 0.0000
# 3 44.8491 17.7368 201.4326 0.0000 27.2358 0.0000
# 4 0.0000 0.0000 0.0000 32.0881 0.0000 4.9462
# 5 11.9964 -1.0883 27.2358 0.0000 44.8201 0.0000
# 6 0.0000 0.0000 0.0000 4.9462 0.0000 24.7537
#
#
#
# Elastic Compliance Matrix: (Units=1/GPa)
#
#
# Indices 1 2 3 4 5 6 
#
# 1 0.009110 -0.000238 -0.001827 0.000000 -0.001334 0.000000
# 2 -0.000238 0.019337 -0.001876 0.000000 0.001673 0.000000
# 3 -0.001827 -0.001876 0.005967 0.000000 -0.003182 0.000000
# 4 0.000000 0.000000 0.000000 0.032155 0.000000 -0.006425
# 5 -0.001334 0.001673 -0.003182 0.000000 0.024643 0.000000
# 6 0.000000 0.000000 0.000000 -0.006425 0.000000 0.041682
#
#
# Mechanical properties :
#
#
# Convention : Reuss Voigt Hill
#
# Bulk Modulus (GPa) = 37.68915 56.71403 47.20159
# Shear Modulus (GPa) = 33.41812 40.88453 37.15133
#
# Velocity S-wave (km/s) = 3.57149 3.95037 3.76570
# Velocity P-wave (km/s) = 5.60295 6.51572 6.07650
#
# Compressibility (1/GPa) = 0.02653284
#
# Stress axis : x y z
#
# Youngs Moduli (GPa) = 109.76782 51.71303 167.59623
#
# Poissons Ratio (x) = 0.01229 0.30622
# Poissons Ratio (y) = 0.02608 0.31442
# Poissons Ratio (z) = 0.20056 0.09702
#
# Static dielectric constant tensor:
#      x y z
#    x 2.043690 0.000000 -0.022340 
#    y 0.000000 2.101990 0.000000 
#    z -0.022340 0.000000 2.281450 
# 
# From -- ./inp_files/16741.got.cif
#   From: 2010.05.17/outbox.cif.g08.bks.cpg/sg15_9_cif.got.tgz:16741.got - 2010.06.03 18:47:42.
