data_PCOD9269298
_publ_section_title
;
Structure prediction by ZEFSAII (Michael W. Deem and Ramdas Pophale) SiO2 
 PCOD9269298
Probable space group: C 2/C
;
_chemical_formula_sum "Si O2"
_cell_formula_units_Z 56
_cell_length_a 13.193162
_cell_length_b 24.512426
_cell_length_c 16.099129
_cell_angle_alpha 90.000000
_cell_angle_beta 143.432104
_cell_angle_gamma 90.000000
_cell_volume 3101.842965
_symmetry_space_group_name_H-M "C 2/C"
_symmetry_group_IT_number 15
_symmetry_cell_setting 'monoclinic'
loop_
_space_group_symop_operation_xyz
x,y,z
-x,y,1/2-z
-x,-y,-z
x,-y,1/2+z
1/2+x,1/2+y,z
1/2-x,1/2+y,1/2-z
1/2-x,1/2-y,-z
1/2+x,1/2-y,1/2+z
loop_
_atom_site_type_symbol
_atom_site_label
_atom_site_fract_x
_atom_site_fract_y
_atom_site_fract_z
Si Si1 0.724477 0.343156 0.272269
Si Si2 0.470194 0.447169 0.922758
Si Si3 0.331582 0.915857 0.192039
Si Si4 0.871845 0.482392 0.843280
Si Si5 0.144522 0.863667 0.512971
Si Si6 0.566353 0.874941 0.927849
Si Si7 0.141402 0.272519 0.776112
O O1 0.793840 0.366710 0.231306
O O2 0.531380 0.364444 0.152257
O O3 0.835747 0.364765 0.421720
O O4 0.708571 0.277980 0.267908
O O5 0.323307 0.465793 0.762031
O O6 0.500000 0.500000 0.000000
O O7 0.659907 0.426958 0.025020
O O8 0.390466 0.400392 0.929435
O O9 0.500000 0.906500 0.250000
O O10 0.360177 0.968961 0.269000
O O11 0.953837 0.428438 0.858901
O O12 0.000000 0.500000 0.000000
O O13 0.298748 0.882893 0.557271
O O14 0.200537 0.802387 0.574810
O O15 0.453966 0.821397 0.834592
O O16 0.000000 0.252611 0.750000
#
# Coordination Sequence:
#
# PCOD9269298 Si02
#       7
#     8   8   8   8   8   8   8
#     4  11  21  37  54  82 119 148 193 238 279 333
#     4   9  20  36  57  80 115 151 190 226 278 344
#     4  10  23  40  60  80 112 160 199 232 276 340
#     4  11  21  38  58  88 118 148 188 238 287 335
#     4  10  20  34  54  87 116 151 181 223 294 356
#     4  11  21  33  57  89 120 144 183 232 293 349
#     4  10  20  34  58  86 117 151 181 229 298 360
#
# _framework density 18.053782999999999
#
# number of rings (size 3 to 8) (size 9 to 14) (size 15 to 20)
#    0.000    1.714    2.857    2.143    4.000    2.286 
#    0.000    0.714    0.000    7.714    0.000    0.000 
#    0.000    0.000    0.000    0.000    0.000    0.000 
#
# Total GULP energy -156168.120881 kJ/mol
# GULP energy per Si atom -5577.432889 kJ/mol
# Density = 1.801269 g / cm^3
# Si number density = 18.053783 Si / 1000 Ang^3
#
#
#
# Elastic Constant Matrix: (Units=GPa)
#
#
# Indices 1 2 3 4 5 6 
#
# 1 79.9020 49.7845 43.8569 -0.0001 30.2622 0.0000
# 2 49.7845 96.6220 18.1427 0.0000 12.9242 0.0000
# 3 43.8569 18.1427 115.1851 -0.0001 15.5843 -0.0001
# 4 -0.0001 0.0000 -0.0001 20.1311 -0.0001 -0.3722
# 5 30.2622 12.9242 15.5843 -0.0001 22.8820 -0.0001
# 6 0.0000 0.0000 -0.0001 -0.3722 -0.0001 17.1945
#
#
#
# Elastic Compliance Matrix: (Units=1/GPa)
#
#
# Indices 1 2 3 4 5 6 
#
# 1 0.041461 -0.014345 -0.007935 0.000000 -0.041327 0.000000
# 2 -0.014345 0.016264 0.001736 0.000000 0.008603 0.000000
# 3 -0.007935 0.001736 0.011172 0.000000 0.001905 0.000000
# 4 0.000000 0.000000 0.000000 0.049694 0.000000 0.001076
# 5 -0.041327 0.008603 0.001905 0.000000 0.092202 0.000000
# 6 0.000000 0.000000 0.000000 0.001076 0.000000 0.058181
#
#
# Mechanical properties :
#
#
# Convention : Reuss Voigt Hill
#
# Bulk Modulus (GPa) = 35.96015 57.25303 46.60659
# Shear Modulus (GPa) = 15.65765 24.03651 19.84708
#
# Velocity S-wave (km/s) = 2.94815 3.65277 3.31921
# Velocity P-wave (km/s) = 5.61697 7.04071 6.36875
#
# Compressibility (1/GPa) = 0.02780856
#
# Stress axis : x y z
#
# Youngs Moduli (GPa) = 24.11899 61.48509 89.51061
#
# Poissons Ratio (x) = 0.88200 0.71031
# Poissons Ratio (y) = 0.34598 -0.15540
# Poissons Ratio (z) = 0.19140 -0.10675
#
# Static dielectric constant tensor:
#      x y z
#    x 1.592110 0.000000 0.011570 
#    y 0.000000 1.791760 0.000000 
#    z 0.011570 0.000000 1.687360 
# 
# From -- ./inp_files/148575.got.cif
#   From: 2010.05.17/outbox.cif.g08.bks.cpg/sg15_75_cif.got.tgz:148575.got - 2010.06.03 18:47:42.
