data_PCOD9269441
_publ_section_title
;
Structure prediction by ZEFSAII (Michael W. Deem and Ramdas Pophale) SiO2 
 PCOD9269441
Probable space group: C 2/C
;
_chemical_formula_sum "Si O2"
_cell_formula_units_Z 48
_cell_length_a 20.029546
_cell_length_b 18.765030
_cell_length_c 8.586016
_cell_angle_alpha 90.000000
_cell_angle_beta 126.845983
_cell_angle_gamma 90.000000
_cell_volume 2582.485800
_symmetry_space_group_name_H-M "C 2/C"
_symmetry_group_IT_number 15
_symmetry_cell_setting 'monoclinic'
loop_
_space_group_symop_operation_xyz
x,y,z
-x,y,1/2-z
-x,-y,-z
x,-y,1/2+z
1/2+x,1/2+y,z
1/2-x,1/2+y,1/2-z
1/2-x,1/2-y,-z
1/2+x,1/2-y,1/2+z
loop_
_atom_site_type_symbol
_atom_site_label
_atom_site_fract_x
_atom_site_fract_y
_atom_site_fract_z
Si Si1 0.498166 0.666187 0.062520
Si Si2 0.342803 0.070771 0.916404
Si Si3 0.080938 0.548948 0.143924
Si Si4 0.480068 0.820867 0.536507
Si Si5 0.156682 0.912689 0.257721
Si Si6 0.582593 0.547163 0.968084
O O1 0.500000 0.655605 0.250000
O O2 0.524950 0.745201 0.052020
O O3 0.403993 0.652232 0.870779
O O4 0.554574 0.608775 0.048503
O O5 0.251038 0.094914 0.834528
O O6 0.344578 0.995352 0.829563
O O7 0.396395 0.053936 0.144603
O O8 0.395053 0.132970 0.904873
O O9 0.052356 0.628872 0.062510
O O10 0.000000 0.500000 0.000000
O O11 0.500000 0.810858 0.750000
O O12 0.147811 0.926415 0.429522
O O13 0.117140 0.980312 0.111014
O O14 0.500000 0.528672 0.750000
#
# Coordination Sequence:
#
# PCOD9269441 Si02
#       6
#     8   8   8   8   8   8
#     4  11  22  37  56  77 105 146 186 222 271 332
#     4  10  20  34  56  85 111 139 181 229 270 314
#     4   9  18  34  56  79 109 145 178 214 264 323
#     4   9  19  37  55  76 108 147 183 215 265 333
#     4  11  20  35  56  83 110 139 178 230 273 315
#     4  10  20  35  56  80 108 144 181 218 270 333
#
# _framework density 18.586742999999998
#
# number of rings (size 3 to 8) (size 9 to 14) (size 15 to 20)
#    0.000    2.000    0.000    7.500    0.000    2.667 
#    0.000   10.000    0.000    0.000    0.000    0.000 
#    0.000    0.000    0.000    0.000    0.000    0.000 
#
# Total GULP energy -133848.832003 kJ/mol
# GULP energy per Si atom -5577.034667 kJ/mol
# Density = 1.854444 g / cm^3
# Si number density = 18.586743 Si / 1000 Ang^3
#
#
#
# Elastic Constant Matrix: (Units=GPa)
#
#
# Indices 1 2 3 4 5 6 
#
# 1 123.8702 48.4655 26.5791 0.0000 3.3053 0.0000
# 2 48.4655 110.0341 38.4088 0.0000 -3.7531 0.0000
# 3 26.5791 38.4088 51.4111 0.0000 -10.1847 0.0000
# 4 0.0000 0.0000 0.0000 20.8232 0.0000 -7.4997
# 5 3.3053 -3.7531 -10.1847 0.0000 27.0157 0.0000
# 6 0.0000 0.0000 0.0000 -7.4997 0.0000 21.2748
#
#
#
# Elastic Compliance Matrix: (Units=1/GPa)
#
#
# Indices 1 2 3 4 5 6 
#
# 1 0.010207 -0.003449 -0.003288 0.000000 -0.002968 0.000000
# 2 -0.003449 0.013550 -0.008520 0.000000 -0.000907 0.000000
# 3 -0.003288 -0.008520 0.029570 0.000000 0.010366 0.000000
# 4 0.000000 0.000000 0.000000 0.055007 0.000000 0.019391
# 5 -0.002968 -0.000907 0.010366 0.000000 0.041161 0.000000
# 6 0.000000 0.000000 0.000000 0.019391 0.000000 0.053840
#
#
# Mechanical properties :
#
#
# Convention : Reuss Voigt Hill
#
# Bulk Modulus (GPa) = 43.83492 56.91358 50.37425
# Shear Modulus (GPa) = 20.70793 25.28020 22.99407
#
# Velocity S-wave (km/s) = 3.34147 3.69198 3.52109
# Velocity P-wave (km/s) = 6.20664 6.99009 6.60998
#
# Compressibility (1/GPa) = 0.02281286
#
# Stress axis : x y z
#
# Youngs Moduli (GPa) = 97.96944 73.79849 33.81857
#
# Poissons Ratio (x) = 0.25456 0.11119
# Poissons Ratio (y) = 0.33794 0.28813
# Poissons Ratio (z) = 0.32212 0.62875
#
# Static dielectric constant tensor:
#      x y z
#    x 1.773670 0.000000 -0.140910 
#    y 0.000000 1.648710 0.000000 
#    z -0.140910 0.000000 1.855470 
# 
# From -- ./inp_files/56240.got.cif
#   From: 2010.05.17/outbox.cif.g08.bks.cpg/sg15_29_cif.got.tgz:56240.got - 2010.06.03 18:47:42.
