data_PCOD9269968
_publ_section_title
;
Structure prediction by ZEFSAII (Michael W. Deem and Ramdas Pophale) SiO2 
 PCOD9269968
Probable space group: C 2/C
;
_chemical_formula_sum "Si O2"
_cell_formula_units_Z 36
_cell_length_a 9.746418
_cell_length_b 9.717282
_cell_length_c 21.766354
_cell_angle_alpha 90.000000
_cell_angle_beta 35.119379
_cell_angle_gamma 90.000000
_cell_volume 1185.922388
_symmetry_space_group_name_H-M "C 2/C"
_symmetry_group_IT_number 15
_symmetry_cell_setting 'monoclinic'
loop_
_space_group_symop_operation_xyz
x,y,z
-x,y,1/2-z
-x,-y,-z
x,-y,1/2+z
1/2+x,1/2+y,z
1/2-x,1/2+y,1/2-z
1/2-x,1/2-y,-z
1/2+x,1/2-y,1/2+z
loop_
_atom_site_type_symbol
_atom_site_label
_atom_site_fract_x
_atom_site_fract_y
_atom_site_fract_z
Si Si1 0.802732 0.581901 0.702305
Si Si2 0.314175 0.906544 0.865252
Si Si3 0.345665 0.150925 0.017660
Si Si4 0.000000 0.855213 0.750000
Si Si5 0.442966 0.594943 0.925854
O O1 0.647260 0.449959 0.742568
O O2 0.631215 0.666088 0.811002
O O3 0.026076 0.525556 0.659840
O O4 0.884244 0.644097 0.607407
O O5 0.500000 0.840662 0.750000
O O6 0.108906 0.980477 0.900223
O O7 0.189090 0.831011 0.968843
O O8 0.213133 0.201737 0.128002
O O9 0.250000 0.250000 0.000000
O O10 0.254458 0.994492 0.038587
#
# Coordination Sequence:
#
# PCOD9269968 Si02
#       5
#     8   8   8   4   8
#     4   9  17  31  55  74 103 141 186 217 255 328
#     4   8  13  25  46  77  98 128 177 218 245 296
#     4  10  20  35  52  81 110 138 175 229 274 308
#     4  10  20  36  56  78 104 150 186 210 262 338
#     4   8  15  28  48  76 101 135 180 214 258 315
#
# _framework density 30.356117000000001
#
# number of rings (size 3 to 8) (size 9 to 14) (size 15 to 20)
#    0.000    3.111    0.000    0.667    0.000    0.000 
#   20.000    0.000   12.222    1.333    0.000    0.000 
#    0.000    0.000    0.000    0.000    0.000    0.000 
#
# Total GULP energy -100680.221508 kJ/mol
# GULP energy per Si atom -5593.345639 kJ/mol
# Density = 3.028703 g / cm^3
# Si number density = 30.356117 Si / 1000 Ang^3
#
#
#
# Elastic Constant Matrix: (Units=GPa)
#
#
# Indices 1 2 3 4 5 6 
#
# 1 100.7862 28.9443 48.7896 0.0001 28.6394 -0.0001
# 2 28.9443 80.9628 57.8328 0.0001 8.5634 0.0000
# 3 48.7896 57.8328 438.3872 -0.0007 67.8714 0.0002
# 4 0.0001 0.0001 -0.0007 53.5461 0.0000 13.9816
# 5 28.6394 8.5634 67.8714 0.0000 78.4853 0.0001
# 6 -0.0001 0.0000 0.0002 13.9816 0.0001 42.5449
#
#
#
# Elastic Compliance Matrix: (Units=1/GPa)
#
#
# Indices 1 2 3 4 5 6 
#
# 1 0.012220 -0.003771 -0.000272 0.000000 -0.003812 0.000000
# 2 -0.003771 0.014800 -0.001727 0.000000 0.001255 0.000000
# 3 -0.000272 -0.001727 0.002880 0.000000 -0.002203 0.000000
# 4 0.000000 0.000000 0.000000 0.020428 0.000000 -0.006713
# 5 -0.003812 0.001255 -0.002203 0.000000 0.015900 0.000000
# 6 0.000000 0.000000 0.000000 -0.006713 0.000000 0.025711
#
#
# Mechanical properties :
#
#
# Convention : Reuss Voigt Hill
#
# Bulk Modulus (GPa) = 54.46602 99.02996 76.74799
# Shear Modulus (GPa) = 45.61993 67.21992 56.41992
#
# Velocity S-wave (km/s) = 3.88083 4.71082 4.31583
# Velocity P-wave (km/s) = 6.16948 7.89194 7.08326
#
# Compressibility (1/GPa) = 0.01836007
#
# Stress axis : x y z
#
# Youngs Moduli (GPa) = 81.83275 67.56563 347.18596
#
# Poissons Ratio (x) = 0.25479 0.09455
# Poissons Ratio (y) = 0.30859 0.59961
# Poissons Ratio (z) = 0.02229 0.11669
#
# Static dielectric constant tensor:
#      x y z
#    x 2.364320 0.000000 -0.004940 
#    y 0.000000 2.324240 0.000000 
#    z -0.004940 0.000000 2.462510 
# 
# From -- ./inp_files/85112.got.cif
#   From: 2010.05.17/outbox.cif.g08.bks.cpg/sg15_43_cif.got.tgz:85112.got - 2010.06.03 18:47:42.
