data_PCOD9269942
_publ_section_title
;
Structure prediction by ZEFSAII (Michael W. Deem and Ramdas Pophale) SiO2 
 PCOD9269942
Probable space group: C 2/C
;
_chemical_formula_sum "Si O2"
_cell_formula_units_Z 40
_cell_length_a 13.008856
_cell_length_b 19.342855
_cell_length_c 13.408758
_cell_angle_alpha 90.000000
_cell_angle_beta 34.856500
_cell_angle_gamma 90.000000
_cell_volume 1928.332736
_symmetry_space_group_name_H-M "C 2/C"
_symmetry_group_IT_number 15
_symmetry_cell_setting 'monoclinic'
loop_
_space_group_symop_operation_xyz
x,y,z
-x,y,1/2-z
-x,-y,-z
x,-y,1/2+z
1/2+x,1/2+y,z
1/2-x,1/2+y,1/2-z
1/2-x,1/2-y,-z
1/2+x,1/2-y,1/2+z
loop_
_atom_site_type_symbol
_atom_site_label
_atom_site_fract_x
_atom_site_fract_y
_atom_site_fract_z
Si Si1 0.591875 0.566799 0.476139
Si Si2 0.172234 0.222899 0.163822
Si Si3 0.873046 0.593665 0.085709
Si Si4 0.302271 0.018133 0.940502
Si Si5 0.766576 0.369702 0.292223
O O1 0.500000 0.500000 0.500000
O O2 0.773968 0.577703 0.267395
O O3 0.657973 0.540766 0.530696
O O4 0.438148 0.625098 0.585384
O O5 0.294132 0.168208 0.120598
O O6 0.163322 0.292597 0.237260
O O7 0.000000 0.186378 0.250000
O O8 0.250000 0.250000 0.000000
O O9 0.805966 0.543004 0.050952
O O10 0.088421 0.597326 0.899993
O O11 0.500000 0.993757 0.750000
O O12 0.272743 0.084535 0.889527
#
# Coordination Sequence:
#
# PCOD9269942 Si02
#       5
#     8   8   8   8   8
#     4  10  23  36  53  82 117 152 200 226 274 354
#     4  12  19  31  55  85 118 151 182 221 292 367
#     4  11  22  36  57  81 124 156 174 240 289 328
#     4   9  19  36  55  79 114 152 193 230 276 341
#     4  10  20  35  50  84 117 149 187 220 280 356
#
# _framework density 20.743307000000001
#
# number of rings (size 3 to 8) (size 9 to 14) (size 15 to 20)
#    0.000    1.600    4.000    1.800    2.800    7.200 
#    0.000    2.000    0.000    0.000    0.000    1.400 
#    0.000    0.200    0.000    0.000    0.000    0.000 
#
# Total GULP energy -111458.077519 kJ/mol
# GULP energy per Si atom -5572.903876 kJ/mol
# Density = 2.069609 g / cm^3
# Si number density = 20.743307 Si / 1000 Ang^3
#
#
#
# Elastic Constant Matrix: (Units=GPa)
#
#
# Indices 1 2 3 4 5 6 
#
# 1 70.0861 33.7976 28.3440 -0.0054 -17.0305 -0.0051
# 2 33.7976 61.3125 17.0006 -0.0067 -0.6439 -0.0060
# 3 28.3440 17.0006 104.9523 -0.0340 0.7718 0.0017
# 4 -0.0054 -0.0067 -0.0340 24.0240 0.0092 0.8999
# 5 -17.0305 -0.6439 0.7718 0.0092 21.1317 0.0070
# 6 -0.0051 -0.0060 0.0017 0.8999 0.0070 19.5640
#
#
#
# Elastic Compliance Matrix: (Units=1/GPa)
#
#
# Indices 1 2 3 4 5 6 
#
# 1 0.029061 -0.014190 -0.005721 -0.000014 0.023198 -0.000004
# 2 -0.014190 0.024014 0.000021 0.000007 -0.010705 0.000007
# 3 -0.005721 0.000021 0.011107 0.000016 -0.005015 -0.000001
# 4 -0.000014 0.000007 0.000016 0.041697 -0.000030 -0.001918
# 5 0.023198 -0.010705 -0.005015 -0.000030 0.065875 -0.000019
# 6 -0.000004 0.000007 -0.000001 -0.001918 -0.000019 0.051203
#
#
# Mechanical properties :
#
#
# Convention : Reuss Voigt Hill
#
# Bulk Modulus (GPa) = 40.97876 43.84834 42.41355
# Shear Modulus (GPa) = 18.45916 23.42452 20.94184
#
# Velocity S-wave (km/s) = 2.98633 3.36409 3.18082
# Velocity P-wave (km/s) = 5.62929 6.02278 5.82936
#
# Compressibility (1/GPa) = 0.02440289
#
# Stress axis : x y z
#
# Youngs Moduli (GPa) = 34.41007 41.64318 90.03719
#
# Poissons Ratio (x) = 0.59091 0.51506
# Poissons Ratio (y) = 0.48827 -0.00190
# Poissons Ratio (z) = 0.19684 -0.00088
#
# Static dielectric constant tensor:
#      x y z
#    x 1.720710 -0.000010 -0.024490 
#    y -0.000010 1.778590 0.000060 
#    z -0.024490 0.000060 1.579450 
# 
# From -- ./inp_files/30440.got.cif
#   From: 2010.05.17/outbox.cif.g08.bks.cpg/sg15_16_cif.got.tgz:30440.got - 2010.06.03 18:47:42.
