data_PCOD9269990
_publ_section_title
;
Structure prediction by ZEFSAII (Michael W. Deem and Ramdas Pophale) SiO2 
 PCOD9269990
Probable space group: C 2/C
;
_chemical_formula_sum "Si O2"
_cell_formula_units_Z 64
_cell_length_a 22.692219
_cell_length_b 14.190451
_cell_length_c 21.647867
_cell_angle_alpha 90.000000
_cell_angle_beta 147.489805
_cell_angle_gamma 90.000000
_cell_volume 3746.502926
_symmetry_space_group_name_H-M "C 2/C"
_symmetry_group_IT_number 15
_symmetry_cell_setting 'monoclinic'
loop_
_space_group_symop_operation_xyz
x,y,z
-x,y,1/2-z
-x,-y,-z
x,-y,1/2+z
1/2+x,1/2+y,z
1/2-x,1/2+y,1/2-z
1/2-x,1/2-y,-z
1/2+x,1/2-y,1/2+z
loop_
_atom_site_type_symbol
_atom_site_label
_atom_site_fract_x
_atom_site_fract_y
_atom_site_fract_z
Si Si1 0.240465 0.295750 0.560732
Si Si2 0.678738 0.559047 0.125028
Si Si3 0.668853 0.459011 0.247685
Si Si4 0.974062 0.806297 0.432785
Si Si5 0.457462 0.413404 0.777884
Si Si6 0.609755 0.045918 0.017048
Si Si7 0.624516 0.643999 0.524464
Si Si8 0.075775 0.599394 0.130831
O O1 0.250000 0.250000 0.500000
O O2 0.352998 0.348226 0.674232
O O3 0.147161 0.374176 0.500012
O O4 0.223989 0.211165 0.594532
O O5 0.660870 0.526662 0.180473
O O6 0.661634 0.461722 0.072999
O O7 0.803171 0.595633 0.232443
O O8 0.585177 0.633323 0.023889
O O9 0.629644 0.357387 0.191330
O O10 0.580000 0.497846 0.216099
O O11 0.787589 0.474424 0.382390
O O12 0.942490 0.813895 0.477265
O O13 0.980857 0.700872 0.414115
O O14 0.500000 0.444539 0.750000
O O15 0.548010 0.358462 0.896844
O O16 0.592054 0.086875 0.070813
O O17 0.500632 0.984019 0.909876
#
# Coordination Sequence:
#
# PCOD9269990 Si02
#       8
#     8   8   8   8   8   8   8   8
#     4  11  22  35  56  84 113 155 195 227 281 349
#     4  10  20  35  53  79 113 142 190 237 287 340
#     4   9  18  34  53  79 109 145 186 241 280 330
#     4  11  19  32  59  81 111 147 194 234 286 348
#     4  11  20  34  54  79 114 144 191 231 278 334
#     4   9  20  37  49  80 122 146 188 235 290 340
#     4  11  20  36  52  81 113 151 187 236 279 337
#     4  10  21  34  53  83 113 153 181 233 300 344
#
# _framework density 17.082598000000001
#
# number of rings (size 3 to 8) (size 9 to 14) (size 15 to 20)
#    0.000    1.750    5.000    0.750    1.750    1.000 
#    2.250    0.000    0.000    0.000    3.250    3.500 
#    0.000    0.000    0.000    0.000    0.000    0.000 
#
# Total GULP energy -178224.591297 kJ/mol
# GULP energy per Si atom -5569.518478 kJ/mol
# Density = 1.704372 g / cm^3
# Si number density = 17.082598 Si / 1000 Ang^3
#
#
#
# Elastic Constant Matrix: (Units=GPa)
#
#
# Indices 1 2 3 4 5 6 
#
# 1 66.1149 33.2933 23.3390 0.0000 3.1954 0.0000
# 2 33.2933 89.7635 31.9026 0.0000 8.4168 0.0000
# 3 23.3390 31.9026 58.7162 0.0000 8.5294 0.0000
# 4 0.0000 0.0000 0.0000 -24.3167 0.0000 -10.3644
# 5 3.1954 8.4168 8.5294 0.0000 22.8194 0.0000
# 6 0.0000 0.0000 0.0000 -10.3644 0.0000 19.1722
#
#
#
# Elastic Compliance Matrix: (Units=1/GPa)
#
#
# Indices 1 2 3 4 5 6 
#
# 1 0.019648 -0.005652 -0.004908 0.000000 0.001168 0.000000
# 2 -0.005652 0.015560 -0.005804 0.000000 -0.002778 0.000000
# 3 -0.004908 -0.005804 0.022972 0.000000 -0.005758 0.000000
# 4 0.000000 0.000000 0.000000 -0.033423 0.000000 -0.018068
# 5 0.001168 -0.002778 -0.005758 0.000000 0.046836 0.000000
# 6 0.000000 0.000000 0.000000 -0.018068 0.000000 0.042391
#
#
# Mechanical properties :
#
#
# Convention : Reuss Voigt Hill
#
# Bulk Modulus (GPa) = 39.29193 43.51827 41.40510
# Shear Modulus (GPa) = 32.21702 11.93895 22.07799
#
# Velocity S-wave (km/s) = 4.34747 2.64653 3.59893
# Velocity P-wave (km/s) = 6.94635 5.90503 6.44675
#
# Compressibility (1/GPa) = 0.02545052
#
# Stress axis : x y z
#
# Youngs Moduli (GPa) = 50.89632 64.26657 43.53113
#
# Poissons Ratio (x) = 0.36327 0.21366
# Poissons Ratio (y) = 0.28769 0.25265
# Poissons Ratio (z) = 0.24981 0.37300
#
# Static dielectric constant tensor:
#      x y z
#    x 1.579180 0.000000 0.004900 
#    y 0.000000 1.594050 0.000000 
#    z 0.004900 0.000000 1.631640 
# 
# From -- ./inp_files/281959.got.cif
#   From: 2010.05.17/outbox.cif.g08.bks.cpg/sg15_141_cif.got.tgz:281959.got - 2010.06.03 18:47:42.
