data_PCOD9269824
_publ_section_title
;
Structure prediction by ZEFSAII (Michael W. Deem and Ramdas Pophale) SiO2 
 PCOD9269824
Probable space group: C 2/C
;
_chemical_formula_sum "Si O2"
_cell_formula_units_Z 36
_cell_length_a 13.503327
_cell_length_b 22.232716
_cell_length_c 5.702134
_cell_angle_alpha 90.000000
_cell_angle_beta 78.279192
_cell_angle_gamma 90.000000
_cell_volume 1676.175750
_symmetry_space_group_name_H-M "C 2/C"
_symmetry_group_IT_number 15
_symmetry_cell_setting 'monoclinic'
loop_
_space_group_symop_operation_xyz
x,y,z
-x,y,1/2-z
-x,-y,-z
x,-y,1/2+z
1/2+x,1/2+y,z
1/2-x,1/2+y,1/2-z
1/2-x,1/2-y,-z
1/2+x,1/2-y,1/2+z
loop_
_atom_site_type_symbol
_atom_site_label
_atom_site_fract_x
_atom_site_fract_y
_atom_site_fract_z
Si Si1 0.694327 0.426372 0.657030
Si Si2 0.336820 0.741237 0.148966
Si Si3 0.831084 0.668914 0.034189
Si Si4 0.500000 0.236618 0.250000
Si Si5 0.380996 0.438269 0.305147
O O1 0.807884 0.400896 0.578739
O O2 0.642751 0.407488 0.433175
O O3 0.678414 0.498209 0.668865
O O4 0.650474 0.407289 0.934269
O O5 0.280977 0.697069 0.355659
O O6 0.357080 0.804658 0.268290
O O7 0.250000 0.750000 0.000000
O O8 0.440242 0.724415 0.970768
O O9 0.915705 0.695867 0.164078
O O10 0.500000 0.451765 0.250000
#
# Coordination Sequence:
#
# PCOD9269824 Si02
#       5
#     8   8   8   4   8
#     4  10  20  34  62  84 119 155 191 243 295 355
#     4   9  20  38  57  82 116 149 195 245 291 346
#     4  10  21  37  59  85 116 156 196 242 294 351
#     4  10  20  38  60  80 116 156 198 240 296 350
#     4  10  20  39  57  87 121 156 195 242 303 357
#
# _framework density 21.477459
#
# number of rings (size 3 to 8) (size 9 to 14) (size 15 to 20)
#    0.000    2.222    0.000    4.000    6.222    0.000 
#    2.000   13.333    0.000    5.333    0.000    0.000 
#    0.000    0.000    0.000    0.000    0.000    0.000 
#
# Total GULP energy -100245.706496 kJ/mol
# GULP energy per Si atom -5569.205916 kJ/mol
# Density = 2.142858 g / cm^3
# Si number density = 21.477459 Si / 1000 Ang^3
#
#
#
# Elastic Constant Matrix: (Units=GPa)
#
#
# Indices 1 2 3 4 5 6 
#
# 1 91.7630 34.0146 38.7632 0.0000 2.6882 0.0000
# 2 34.0146 51.7408 19.9694 0.0000 3.2528 0.0000
# 3 38.7632 19.9694 162.7166 0.0000 10.4207 0.0000
# 4 0.0000 0.0000 0.0000 10.0037 0.0000 4.2746
# 5 2.6882 3.2528 10.4207 0.0000 46.8688 0.0000
# 6 0.0000 0.0000 0.0000 4.2746 0.0000 -0.5743
#
#
#
# Elastic Compliance Matrix: (Units=1/GPa)
#
#
# Indices 1 2 3 4 5 6 
#
# 1 0.015351 -0.009125 -0.002558 0.000000 0.000321 0.000000
# 2 -0.009125 0.025747 -0.000918 0.000000 -0.001059 0.000000
# 3 -0.002558 -0.000918 0.006953 0.000000 -0.001336 0.000000
# 4 0.000000 0.000000 0.000000 0.023913 0.000000 0.177975
# 5 0.000321 -0.001059 -0.001336 0.000000 0.021688 0.000000
# 6 0.000000 0.000000 0.000000 0.177975 0.000000 -0.416507
#
#
# Mechanical properties :
#
#
# Convention : Reuss Voigt Hill
#
# Bulk Modulus (GPa) = 43.76470 54.63498 49.19984
# Shear Modulus (GPa) = -17.23923 25.49118 4.12597
#
# Velocity S-wave (km/s) = -2.83621 3.44885 1.38753
# Velocity P-wave (km/s) = 3.11381 6.43063 5.05217
#
# Compressibility (1/GPa) = 0.02284947
#
# Stress axis : x y z
#
# Youngs Moduli (GPa) = 65.14198 38.83977 143.81890
#
# Poissons Ratio (x) = 0.35441 0.36785
# Poissons Ratio (y) = 0.59441 0.13205
# Poissons Ratio (z) = 0.16662 0.03566
#
# Static dielectric constant tensor:
#      x y z
#    x 1.755190 0.000000 -0.000120 
#    y 0.000000 1.931270 0.000000 
#    z -0.000120 0.000000 1.878030 
# 
# From -- ./inp_files/4830.got.cif
#   From: 2010.05.17/outbox.cif.g08.bks.cpg/sg15_3_cif.got.tgz:4830.got - 2010.06.03 18:47:42.
