data_PCOD9269173
_publ_section_title
;
Structure prediction by ZEFSAII (Michael W. Deem and Ramdas Pophale) SiO2 
 PCOD9269173
Probable space group: C 2/C
;
_chemical_formula_sum "Si O2"
_cell_formula_units_Z 60
_cell_length_a 6.309318
_cell_length_b 25.256168
_cell_length_c 24.124522
_cell_angle_alpha 90.000000
_cell_angle_beta 60.667836
_cell_angle_gamma 90.000000
_cell_volume 3351.372276
_symmetry_space_group_name_H-M "C 2/C"
_symmetry_group_IT_number 15
_symmetry_cell_setting 'monoclinic'
loop_
_space_group_symop_operation_xyz
x,y,z
-x,y,1/2-z
-x,-y,-z
x,-y,1/2+z
1/2+x,1/2+y,z
1/2-x,1/2+y,1/2-z
1/2-x,1/2-y,-z
1/2+x,1/2-y,1/2+z
loop_
_atom_site_type_symbol
_atom_site_label
_atom_site_fract_x
_atom_site_fract_y
_atom_site_fract_z
Si Si1 0.514913 0.360713 0.586015
Si Si2 0.084832 0.714208 0.416500
Si Si3 0.475232 0.837513 0.689368
Si Si4 0.500000 0.412295 0.750000
Si Si5 0.605261 0.996962 0.548844
Si Si6 0.523226 0.439548 0.440139
Si Si7 0.576090 0.327740 0.025919
Si Si8 0.101933 0.031494 0.129126
O O1 0.668533 0.315864 0.598469
O O2 0.525471 0.344576 0.520945
O O3 0.622116 0.417968 0.586053
O O4 0.234515 0.363686 0.641108
O O5 0.050597 0.706497 0.355121
O O6 0.059106 0.775406 0.435825
O O7 0.860005 0.685845 0.478096
O O8 0.500000 0.819706 0.750000
O O9 0.240449 0.875666 0.713309
O O10 0.538520 0.448426 0.799159
O O11 0.376084 0.980018 0.613758
O O12 0.820174 0.954918 0.512652
O O13 0.500000 0.000000 0.500000
O O14 0.724656 0.048127 0.561302
O O15 0.469545 0.379454 0.430959
O O16 0.496889 0.481564 0.393106
#
# Coordination Sequence:
#
# PCOD9269173 Si02
#       8
#     8   8   8   4   8   8   8   8
#     4  11  20  34  58  86 116 146 185 230 297 344
#     4  10  21  37  56  87 117 149 194 239 288 342
#     4  11  21  37  58  85 109 148 186 241 288 338
#     4  12  24  38  58  86 116 144 194 244 294 342
#     4   9  18  32  52  80 114 148 183 224 277 342
#     4  10  20  34  52  82 116 153 188 223 284 350
#     4  10  21  35  58  83 121 152 185 236 288 348
#     4  11  22  34  56  84 114 152 187 239 288 350
#
# _framework density 17.903115
#
# number of rings (size 3 to 8) (size 9 to 14) (size 15 to 20)
#    0.000    1.600    2.667    3.600    3.733    1.067 
#    0.000    0.000    1.467    0.000    3.467    0.000 
#    0.000    0.000    0.000    0.000    0.000    0.000 
#
# Total GULP energy -167230.452311 kJ/mol
# GULP energy per Si atom -5574.348410 kJ/mol
# Density = 1.786237 g / cm^3
# Si number density = 17.903115 Si / 1000 Ang^3
#
#
#
# Elastic Constant Matrix: (Units=GPa)
#
#
# Indices 1 2 3 4 5 6 
#
# 1 79.7217 42.4115 28.6573 0.0000 -8.3597 0.0000
# 2 42.4115 143.4518 49.8422 0.0000 1.6114 0.0000
# 3 28.6573 49.8422 78.6079 0.0000 10.1015 0.0000
# 4 0.0000 0.0000 0.0000 26.1162 0.0000 2.6681
# 5 -8.3597 1.6114 10.1015 0.0000 32.5103 0.0000
# 6 0.0000 0.0000 0.0000 2.6681 0.0000 19.9077
#
#
#
# Elastic Compliance Matrix: (Units=1/GPa)
#
#
# Indices 1 2 3 4 5 6 
#
# 1 0.016635 -0.003352 -0.004697 0.000000 0.005903 0.000000
# 2 -0.003352 0.009675 -0.004937 0.000000 0.000193 0.000000
# 3 -0.004697 -0.004937 0.018424 0.000000 -0.006688 0.000000
# 4 0.000000 0.000000 0.000000 0.038822 0.000000 -0.005203
# 5 0.005903 0.000193 -0.006688 0.000000 0.034346 0.000000
# 6 0.000000 0.000000 0.000000 -0.005203 0.000000 0.050929
#
#
# Mechanical properties :
#
#
# Convention : Reuss Voigt Hill
#
# Bulk Modulus (GPa) = 53.30554 60.40038 56.85296
# Shear Modulus (GPa) = 24.86842 27.76487 26.31665
#
# Velocity S-wave (km/s) = 3.73105 3.94234 3.83815
# Velocity P-wave (km/s) = 6.95701 7.38467 7.17403
#
# Compressibility (1/GPa) = 0.01875978
#
# Stress axis : x y z
#
# Youngs Moduli (GPa) = 60.11585 103.35457 54.27733
#
# Poissons Ratio (x) = 0.34647 0.25496
# Poissons Ratio (y) = 0.20152 0.26799
# Poissons Ratio (z) = 0.28238 0.51031
#
# Static dielectric constant tensor:
#      x y z
#    x 1.669560 0.000000 -0.008620 
#    y 0.000000 1.622840 0.000000 
#    z -0.008620 0.000000 1.641220 
# 
# From -- ./inp_files/228529.got.cif
#   From: 2010.05.17/outbox.cif.g08.bks.cpg/sg15_115_cif.got.tgz:228529.got - 2010.06.03 18:47:42.
