data_PCOD9269642
_publ_section_title
;
Structure prediction by ZEFSAII (Michael W. Deem and Ramdas Pophale) SiO2 
 PCOD9269642
Probable space group: C 2/C
;
_chemical_formula_sum "Si O2"
_cell_formula_units_Z 48
_cell_length_a 30.787190
_cell_length_b 12.047806
_cell_length_c 22.562511
_cell_angle_alpha 90.000000
_cell_angle_beta 164.290583
_cell_angle_gamma 90.000000
_cell_volume 2265.936930
_symmetry_space_group_name_H-M "C 2/C"
_symmetry_group_IT_number 15
_symmetry_cell_setting 'monoclinic'
loop_
_space_group_symop_operation_xyz
x,y,z
-x,y,1/2-z
-x,-y,-z
x,-y,1/2+z
1/2+x,1/2+y,z
1/2-x,1/2+y,1/2-z
1/2-x,1/2-y,-z
1/2+x,1/2-y,1/2+z
loop_
_atom_site_type_symbol
_atom_site_label
_atom_site_fract_x
_atom_site_fract_y
_atom_site_fract_z
Si Si1 0.540925 0.904296 0.506615
Si Si2 0.430232 0.246878 0.264654
Si Si3 0.250939 0.548982 0.174995
Si Si4 0.076219 0.832168 0.114826
Si Si5 0.500000 0.054742 0.750000
Si Si6 0.500000 0.380676 0.250000
Si Si7 0.671381 0.012741 0.360323
O O1 0.693680 0.930953 0.666502
O O2 0.576290 0.787493 0.584081
O O3 0.500000 0.000000 0.500000
O O4 0.393332 0.912692 0.265418
O O5 0.441072 0.317999 0.337614
O O6 0.540737 0.298124 0.358275
O O7 0.441198 0.119991 0.299881
O O8 0.250000 0.250000 0.000000
O O9 0.277751 0.417211 0.202501
O O10 0.418606 0.607284 0.383172
O O11 0.118657 0.599931 0.956587
O O12 0.366037 0.001477 0.618867
O O13 0.649231 0.454312 0.423582
#
# Coordination Sequence:
#
# PCOD9269642 Si02
#       7
#     8   8   8   8   4   4   8
#     4  11  24  41  63  95 133 170 218 274 334 394
#     4  10  20  34  58  91 132 164 209 274 331 384
#     4  10  25  43  71  93 133 180 219 277 332 410
#     4  11  24  44  65 101 130 179 225 269 340 405
#     4  10  21  46  63  94 134 176 219 271 344 390
#     4  10  21  34  61  96 126 176 221 277 328 390
#     4  10  21  39  62  92 128 172 217 277 332 395
#
# _framework density 21.18329
#
# number of rings (size 3 to 8) (size 9 to 14) (size 15 to 20)
#    0.000    1.667    1.667    2.500    4.667    4.000 
#    0.000    4.167    0.000    0.000    0.000    0.000 
#    0.000    0.000    0.000    0.000    0.000    0.000 
#
# Total GULP energy -133683.757068 kJ/mol
# GULP energy per Si atom -5570.156544 kJ/mol
# Density = 2.113508 g / cm^3
# Si number density = 21.183290 Si / 1000 Ang^3
#
#
#
# Elastic Constant Matrix: (Units=GPa)
#
#
# Indices 1 2 3 4 5 6 
#
# 1 147.9596 36.4446 20.5180 -0.0001 9.5317 0.0000
# 2 36.4446 65.8295 3.7716 0.0000 -8.9928 0.0000
# 3 20.5180 3.7716 85.4908 -0.0005 2.8812 -0.0001
# 4 -0.0001 0.0000 -0.0005 14.9133 -0.0002 -3.5371
# 5 9.5317 -8.9928 2.8812 -0.0002 38.4369 0.0000
# 6 0.0000 0.0000 -0.0001 -3.5371 0.0000 28.5580
#
#
#
# Elastic Compliance Matrix: (Units=1/GPa)
#
#
# Indices 1 2 3 4 5 6 
#
# 1 0.008426 -0.004995 -0.001696 0.000000 -0.003131 0.000000
# 2 -0.004995 0.018711 0.000185 0.000000 0.005603 0.000000
# 3 -0.001696 0.000185 0.012111 0.000000 -0.000444 0.000000
# 4 0.000000 0.000000 0.000000 0.069084 0.000000 0.008556
# 5 -0.003131 0.005603 -0.000444 0.000000 0.028137 0.000000
# 6 0.000000 0.000000 0.000000 0.008556 0.000000 0.036076
#
#
# Mechanical properties :
#
#
# Convention : Reuss Voigt Hill
#
# Bulk Modulus (GPa) = 38.11850 46.74980 42.43415
# Shear Modulus (GPa) = 25.73286 32.28468 29.00877
#
# Velocity S-wave (km/s) = 3.48914 3.90816 3.70458
# Velocity P-wave (km/s) = 5.85370 6.51783 6.19467
#
# Compressibility (1/GPa) = 0.02623398
#
# Stress axis : x y z
#
# Youngs Moduli (GPa) = 118.68081 53.44435 82.56877
#
# Poissons Ratio (x) = 0.26697 0.14007
# Poissons Ratio (y) = 0.59285 -0.01524
# Poissons Ratio (z) = 0.20132 -0.00987
#
# Static dielectric constant tensor:
#      x y z
#    x 1.788610 0.000000 0.007220 
#    y 0.000000 1.806110 0.000000 
#    z 0.007220 0.000000 1.839180 
# 
# From -- ./inp_files/257670.got.cif
#   From: 2010.05.17/outbox.cif.g08.bks.cpg/sg15_129_cif.got.tgz:257670.got - 2010.06.03 18:47:42.
