data_PCOD9269725
_publ_section_title
;
Structure prediction by ZEFSAII (Michael W. Deem and Ramdas Pophale) SiO2 
 PCOD9269725
Probable space group: C 2/C
;
_chemical_formula_sum "Si O2"
_cell_formula_units_Z 44
_cell_length_a 9.775577
_cell_length_b 15.238407
_cell_length_c 14.895204
_cell_angle_alpha 90.000000
_cell_angle_beta 108.565844
_cell_angle_gamma 90.000000
_cell_volume 2103.379793
_symmetry_space_group_name_H-M "C 2/C"
_symmetry_group_IT_number 15
_symmetry_cell_setting 'monoclinic'
loop_
_space_group_symop_operation_xyz
x,y,z
-x,y,1/2-z
-x,-y,-z
x,-y,1/2+z
1/2+x,1/2+y,z
1/2-x,1/2+y,1/2-z
1/2-x,1/2-y,-z
1/2+x,1/2-y,1/2+z
loop_
_atom_site_type_symbol
_atom_site_label
_atom_site_fract_x
_atom_site_fract_y
_atom_site_fract_z
Si Si1 0.812675 0.825515 0.842596
Si Si2 0.000000 0.633083 0.250000
Si Si3 0.151631 0.363085 0.178275
Si Si4 0.668851 0.596262 0.968161
Si Si5 0.601146 0.474648 0.183718
Si Si6 0.570588 0.004105 0.917319
O O1 0.880294 0.739074 0.815275
O O2 0.859026 0.922706 0.820330
O O3 0.645262 0.812901 0.781885
O O4 0.831564 0.830877 0.954124
O O5 0.987873 0.572572 0.159495
O O6 0.241488 0.374230 0.101851
O O7 0.255707 0.416533 0.268378
O O8 0.996751 0.409304 0.138448
O O9 0.507687 0.565753 0.912129
O O10 0.761609 0.515515 0.030818
O O11 0.500000 0.470425 0.250000
O O12 0.500000 0.000000 0.000000
#
# Coordination Sequence:
#
# PCOD9269725 Si02
#       6
#     8   4   8   8   8   8
#     4  11  21  36  58  87 111 146 199 233 282 344
#     4  10  20  34  60  84 112 150 194 236 286 336
#     4  10  20  37  58  85 115 148 190 235 289 336
#     4   9  20  36  60  80 113 148 190 239 288 332
#     4  10  21  39  55  81 120 154 180 234 290 339
#     4   9  18  37  57  82 115 152 185 235 287 338
#
# _framework density 20.918714999999999
#
# number of rings (size 3 to 8) (size 9 to 14) (size 15 to 20)
#    0.000    2.182    1.818    1.091    3.818    0.000 
#    1.636    0.909    0.000    0.000    0.000    0.000 
#    0.000    0.000    0.000    0.000    0.000    0.000 
#
# Total GULP energy -122692.268790 kJ/mol
# GULP energy per Si atom -5576.921309 kJ/mol
# Density = 2.087110 g / cm^3
# Si number density = 20.918715 Si / 1000 Ang^3
#
#
#
# Elastic Constant Matrix: (Units=GPa)
#
#
# Indices 1 2 3 4 5 6 
#
# 1 68.2551 25.4387 30.3841 0.0000 13.2582 0.0000
# 2 25.4387 120.5824 35.9541 0.0000 21.3596 0.0000
# 3 30.3841 35.9541 115.5359 0.0000 24.1109 0.0000
# 4 0.0000 0.0000 0.0000 11.6209 0.0000 -3.0139
# 5 13.2582 21.3596 24.1109 0.0000 36.3908 0.0000
# 6 0.0000 0.0000 0.0000 -3.0139 0.0000 22.5923
#
#
#
# Elastic Compliance Matrix: (Units=1/GPa)
#
#
# Indices 1 2 3 4 5 6 
#
# 1 0.017507 -0.002191 -0.003318 0.000000 -0.002893 0.000000
# 2 -0.002191 0.009958 -0.001705 0.000000 -0.003916 0.000000
# 3 -0.003318 -0.001705 0.011137 0.000000 -0.005169 0.000000
# 4 0.000000 0.000000 0.000000 0.089136 0.000000 0.011891
# 5 -0.002893 -0.003916 -0.005169 0.000000 0.034257 0.000000
# 6 0.000000 0.000000 0.000000 0.011891 0.000000 0.045849
#
#
# Mechanical properties :
#
#
# Convention : Reuss Voigt Hill
#
# Bulk Modulus (GPa) = 41.36974 54.21413 47.79194
# Shear Modulus (GPa) = 21.70792 28.29392 25.00092
#
# Velocity S-wave (km/s) = 3.22487 3.68171 3.46084
# Velocity P-wave (km/s) = 5.80394 6.63673 6.23426
#
# Compressibility (1/GPa) = 0.02417226
#
# Stress axis : x y z
#
# Youngs Moduli (GPa) = 57.12056 100.42618 89.78784
#
# Poissons Ratio (x) = 0.22007 0.29794
# Poissons Ratio (y) = 0.12517 0.15310
# Poissons Ratio (z) = 0.18954 0.17124
#
# Static dielectric constant tensor:
#      x y z
#    x 1.766030 0.000000 -0.028780 
#    y 0.000000 1.754720 0.000000 
#    z -0.028780 0.000000 1.788970 
# 
# From -- ./inp_files/142315.got.cif
#   From: 2010.05.17/outbox.cif.g08.bks.cpg/sg15_72_cif.got.tgz:142315.got - 2010.06.03 18:47:42.
