data_PCOD9269503
_publ_section_title
;
Structure prediction by ZEFSAII (Michael W. Deem and Ramdas Pophale) SiO2 
 PCOD9269503
Probable space group: C 2/C
;
_chemical_formula_sum "Si O2"
_cell_formula_units_Z 60
_cell_length_a 16.052385
_cell_length_b 18.692842
_cell_length_c 9.626741
_cell_angle_alpha 90.000000
_cell_angle_beta 68.972965
_cell_angle_gamma 90.000000
_cell_volume 2696.293782
_symmetry_space_group_name_H-M "C 2/C"
_symmetry_group_IT_number 15
_symmetry_cell_setting 'monoclinic'
loop_
_space_group_symop_operation_xyz
x,y,z
-x,y,1/2-z
-x,-y,-z
x,-y,1/2+z
1/2+x,1/2+y,z
1/2-x,1/2+y,1/2-z
1/2-x,1/2-y,-z
1/2+x,1/2-y,1/2+z
loop_
_atom_site_type_symbol
_atom_site_label
_atom_site_fract_x
_atom_site_fract_y
_atom_site_fract_z
Si Si1 0.354838 0.532144 0.882308
Si Si2 0.772788 0.346940 0.733909
Si Si3 0.947131 0.465204 0.906460
Si Si4 0.193697 0.572513 0.544217
Si Si5 0.079519 0.920806 0.879316
Si Si6 0.298457 0.144238 0.537272
Si Si7 0.819733 0.720962 0.794657
Si Si8 0.000000 0.193763 0.250000
O O1 0.281591 0.477116 0.993535
O O2 0.423518 0.553897 0.961189
O O3 0.295171 0.602112 0.879493
O O4 0.401864 0.488136 0.732343
O O5 0.821613 0.404326 0.607699
O O6 0.672445 0.376950 0.810050
O O7 0.805600 0.336607 0.870020
O O8 0.762189 0.276286 0.646493
O O9 0.890427 0.526272 0.861411
O O10 0.875067 0.413375 0.016368
O O11 0.000000 0.427786 0.750000
O O12 0.000000 0.500000 0.000000
O O13 0.199775 0.643801 0.629912
O O14 0.005194 0.864091 0.873607
O O15 0.320009 0.208370 0.627635
O O16 0.911826 0.756576 0.793772
#
# Coordination Sequence:
#
# PCOD9269503 Si02
#       8
#     8   8   8   8   8   8   8   4
#     4   9  18  35  61  85 103 133 179 243 280 305
#     4   9  19  36  54  80 108 141 180 232 270 311
#     4  11  22  34  52  81 114 144 173 222 278 335
#     4  10  20  34  57  83 107 135 185 227 275 320
#     4   9  18  35  56  81 112 137 177 225 280 329
#     4  10  20  35  56  82 108 138 185 229 275 318
#     4  11  21  35  57  76 109 148 188 216 262 338
#     4  10  24  36  50  78 114 156 178 210 270 336
#
# _framework density 22.252766999999999
#
# number of rings (size 3 to 8) (size 9 to 14) (size 15 to 20)
#    0.000    2.133    0.000    3.200    2.800    4.800 
#    0.000    0.000    0.000    1.600    0.000    0.000 
#    0.000    0.000    0.000    0.000    0.000    0.000 
#
# Total GULP energy -167451.651285 kJ/mol
# GULP energy per Si atom -5581.721710 kJ/mol
# Density = 2.220212 g / cm^3
# Si number density = 22.252767 Si / 1000 Ang^3
#
#
#
# Elastic Constant Matrix: (Units=GPa)
#
#
# Indices 1 2 3 4 5 6 
#
# 1 79.7542 32.8157 21.0644 0.0000 17.5524 0.0000
# 2 32.8157 77.1420 10.3135 0.0000 11.0285 0.0000
# 3 21.0644 10.3135 59.8087 0.0000 22.2570 0.0000
# 4 0.0000 0.0000 0.0000 31.0503 0.0000 16.0136
# 5 17.5524 11.0285 22.2570 0.0000 27.6708 0.0000
# 6 0.0000 0.0000 0.0000 16.0136 0.0000 20.6091
#
#
#
# Elastic Compliance Matrix: (Units=1/GPa)
#
#
# Indices 1 2 3 4 5 6 
#
# 1 0.017104 -0.006018 -0.002628 0.000000 -0.006337 0.000000
# 2 -0.006018 0.015874 0.000451 0.000000 -0.002872 0.000000
# 3 -0.002628 0.000451 0.024283 0.000000 -0.018045 0.000000
# 4 0.000000 0.000000 0.000000 0.053742 0.000000 -0.041758
# 5 -0.006337 -0.002872 -0.018045 0.000000 0.055818 0.000000
# 6 0.000000 0.000000 0.000000 -0.041758 0.000000 0.080969
#
#
# Mechanical properties :
#
#
# Convention : Reuss Voigt Hill
#
# Bulk Modulus (GPa) = 24.46807 38.34359 31.40583
# Shear Modulus (GPa) = 17.99845 26.03347 22.01596
#
# Velocity S-wave (km/s) = 2.84706 3.42409 3.14882
# Velocity P-wave (km/s) = 4.67194 5.73593 5.23106
#
# Compressibility (1/GPa) = 0.04086960
#
# Stress axis : x y z
#
# Youngs Moduli (GPa) = 58.46740 62.99777 41.18139
#
# Poissons Ratio (x) = 0.37915 0.10822
# Poissons Ratio (y) = 0.35188 -0.01858
# Poissons Ratio (z) = 0.15364 -0.02842
#
# Static dielectric constant tensor:
#      x y z
#    x 1.815520 0.000000 0.036950 
#    y 0.000000 1.891150 0.000000 
#    z 0.036950 0.000000 1.832930 
# 
# From -- ./inp_files/49076.got.cif
#   From: 2010.05.17/outbox.cif.g08.bks.cpg/sg15_25_cif.got.tgz:49076.got - 2010.06.03 18:47:42.
