data_PCOD9269113
_publ_section_title
;
Structure prediction by ZEFSAII (Michael W. Deem and Ramdas Pophale) SiO2 
 PCOD9269113
Probable space group: C 2/C
;
_chemical_formula_sum "Si O2"
_cell_formula_units_Z 40
_cell_length_a 13.278395
_cell_length_b 28.835635
_cell_length_c 4.966027
_cell_angle_alpha 90.000000
_cell_angle_beta 90.199326
_cell_angle_gamma 90.000000
_cell_volume 1901.435297
_symmetry_space_group_name_H-M "C 2/C"
_symmetry_group_IT_number 15
_symmetry_cell_setting 'monoclinic'
loop_
_space_group_symop_operation_xyz
x,y,z
-x,y,1/2-z
-x,-y,-z
x,-y,1/2+z
1/2+x,1/2+y,z
1/2-x,1/2+y,1/2-z
1/2-x,1/2-y,-z
1/2+x,1/2-y,1/2+z
loop_
_atom_site_type_symbol
_atom_site_label
_atom_site_fract_x
_atom_site_fract_y
_atom_site_fract_z
Si Si1 0.500000 0.000000 0.500000
Si Si2 0.912381 0.752050 0.906570
Si Si3 0.269562 0.304960 0.284662
Si Si4 0.217183 0.364310 0.771766
Si Si5 0.000000 0.329714 0.750000
Si Si6 0.213180 0.470656 0.722620
O O1 0.500000 0.040395 0.750000
O O2 0.410714 0.024074 0.264092
O O3 0.819217 0.733720 0.725361
O O4 0.000000 0.778314 0.750000
O O5 0.865868 0.780226 0.154602
O O6 0.965455 0.705876 0.019631
O O7 0.276884 0.331414 0.565204
O O8 0.235813 0.343701 0.066387
O O9 0.099800 0.358628 0.690097
O O10 0.243315 0.418192 0.759250
O O11 0.246438 0.506599 0.947886
#
# Coordination Sequence:
#
# PCOD9269113 Si02
#       6
#     4   8   8   8   4   8
#     4   8  16  28  40  66  88 132 164 212 244 290
#     4  10  20  37  55  80 109 152 191 222 290 318
#     4  10  23  36  56  77 116 145 189 239 265 328
#     4  11  22  37  51  83 110 148 193 226 269 321
#     4  10  22  32  56  78 110 154 188 228 258 334
#     4  10  20  34  51  72 106 146 182 221 269 322
#
# _framework density 21.036738
#
# number of rings (size 3 to 8) (size 9 to 14) (size 15 to 20)
#    0.000    2.000    2.000    1.200    7.000    2.400 
#   10.800    0.000    0.000    0.000    0.000    0.000 
#    0.000   16.000    0.000    0.000    0.000    0.000 
#
# Total GULP energy -111431.858782 kJ/mol
# GULP energy per Si atom -5571.592939 kJ/mol
# Density = 2.098886 g / cm^3
# Si number density = 21.036738 Si / 1000 Ang^3
#
#
#
# Elastic Constant Matrix: (Units=GPa)
#
#
# Indices 1 2 3 4 5 6 
#
# 1 48.3237 6.9081 10.1171 0.0000 -17.7655 0.0000
# 2 6.9081 97.9440 -8.5078 0.0000 4.1264 0.0000
# 3 10.1171 -8.5078 78.3379 0.0000 10.7830 0.0000
# 4 0.0000 0.0000 0.0000 34.5046 0.0000 7.7968
# 5 -17.7655 4.1264 10.7830 0.0000 31.3608 0.0000
# 6 0.0000 0.0000 0.0000 7.7968 0.0000 21.5504
#
#
#
# Elastic Compliance Matrix: (Units=1/GPa)
#
#
# Indices 1 2 3 4 5 6 
#
# 1 0.029959 -0.003556 -0.006986 0.000000 0.019842 0.000000
# 2 -0.003556 0.010830 0.002214 0.000000 -0.004200 0.000000
# 3 -0.006986 0.002214 0.015213 0.000000 -0.009480 0.000000
# 4 0.000000 0.000000 0.000000 0.031562 0.000000 -0.011419
# 5 0.019842 -0.004200 -0.009480 0.000000 0.046939 0.000000
# 6 0.000000 0.000000 0.000000 -0.011419 0.000000 0.050534
#
#
# Mechanical properties :
#
#
# Convention : Reuss Voigt Hill
#
# Bulk Modulus (GPa) = 25.41652 26.84893 26.13273
# Shear Modulus (GPa) = 23.27644 31.88905 27.58275
#
# Velocity S-wave (km/s) = 3.32997 3.89765 3.62494
# Velocity P-wave (km/s) = 5.18586 5.74858 5.47445
#
# Compressibility (1/GPa) = 0.03934448
#
# Stress axis : x y z
#
# Youngs Moduli (GPa) = 33.37867 92.33642 65.73436
#
# Poissons Ratio (x) = 0.32834 0.45925
# Poissons Ratio (y) = 0.11869 -0.14551
# Poissons Ratio (z) = 0.23320 -0.20439
#
# Static dielectric constant tensor:
#      x y z
#    x 1.878100 0.000000 -0.073820 
#    y 0.000000 1.736660 0.000000 
#    z -0.073820 0.000000 2.136820 
# 
# From -- ./inp_files/7323.got.cif
#   From: 2010.05.17/outbox.cif.g08.bks.cpg/sg15_4_cif.got.tgz:7323.got - 2010.06.03 18:47:42.
