data_PCOD9269590
_publ_section_title
;
Structure prediction by ZEFSAII (Michael W. Deem and Ramdas Pophale) SiO2 
 PCOD9269590
Probable space group: C 2/C
;
_chemical_formula_sum "Si O2"
_cell_formula_units_Z 36
_cell_length_a 21.356346
_cell_length_b 8.310952
_cell_length_c 14.010590
_cell_angle_alpha 90.000000
_cell_angle_beta 44.229085
_cell_angle_gamma 90.000000
_cell_volume 1734.588154
_symmetry_space_group_name_H-M "C 2/C"
_symmetry_group_IT_number 15
_symmetry_cell_setting 'monoclinic'
loop_
_space_group_symop_operation_xyz
x,y,z
-x,y,1/2-z
-x,-y,-z
x,-y,1/2+z
1/2+x,1/2+y,z
1/2-x,1/2+y,1/2-z
1/2-x,1/2-y,-z
1/2+x,1/2-y,1/2+z
loop_
_atom_site_type_symbol
_atom_site_label
_atom_site_fract_x
_atom_site_fract_y
_atom_site_fract_z
Si Si1 0.822583 0.660398 0.982896
Si Si2 0.000000 0.509292 0.250000
Si Si3 0.079331 0.336997 0.474930
Si Si4 0.902597 0.291626 0.589454
Si Si5 0.749549 0.686026 0.608507
O O1 0.860728 0.754367 0.033141
O O2 0.772548 0.501637 0.075858
O O3 0.750000 0.750000 0.000000
O O4 0.911366 0.598447 0.830365
O O5 0.974327 0.615293 0.369372
O O6 0.101070 0.511654 0.404756
O O7 0.169213 0.249797 0.412325
O O8 0.007222 0.248937 0.487673
O O9 0.842762 0.222928 0.738966
O O10 0.750000 0.750000 0.500000
#
# Coordination Sequence:
#
# PCOD9269590 Si02
#       5
#     8   4   8   8   8
#     4  10  22  36  57  83 113 148 181 232 285 331
#     4   8  16  34  56  76 104 148 186 214 270 336
#     4   9  18  33  57  82 110 146 185 229 271 328
#     4   9  18  33  54  81 108 144 189 225 271 326
#     4  10  20  34  58  85 109 144 187 231 273 328
#
# _framework density 20.754207000000001
#
# number of rings (size 3 to 8) (size 9 to 14) (size 15 to 20)
#    0.000    3.111    0.000    2.667    0.000   10.667 
#    0.000    2.222    0.000   12.000    0.000    0.000 
#    0.000    0.000    0.000    0.000    0.000    0.000 
#
# Total GULP energy -100374.361683 kJ/mol
# GULP energy per Si atom -5576.353427 kJ/mol
# Density = 2.070697 g / cm^3
# Si number density = 20.754207 Si / 1000 Ang^3
#
#
#
# Elastic Constant Matrix: (Units=GPa)
#
#
# Indices 1 2 3 4 5 6 
#
# 1 163.5374 18.0715 -3.4127 -0.0006 -32.9044 0.0003
# 2 18.0715 14.9127 13.3422 -0.0034 -7.1687 0.0022
# 3 -3.4127 13.3422 60.8112 -0.0013 -14.9225 0.0011
# 4 -0.0006 -0.0034 -0.0013 24.9315 0.0004 -8.6235
# 5 -32.9044 -7.1687 -14.9225 0.0004 37.7232 -0.0002
# 6 0.0003 0.0022 0.0011 -8.6235 -0.0002 26.0510
#
#
#
# Elastic Compliance Matrix: (Units=1/GPa)
#
#
# Indices 1 2 3 4 5 6 
#
# 1 0.009048 -0.011731 0.004952 -0.000001 0.007622 0.000000
# 2 -0.011731 0.101864 -0.023001 0.000011 0.000026 -0.000004
# 3 0.004952 -0.023001 0.024095 -0.000002 0.009480 0.000000
# 4 -0.000001 0.000011 -0.000002 0.045296 0.000000 0.014994
# 5 0.007622 0.000026 0.009480 0.000000 0.036912 0.000000
# 6 0.000000 -0.000004 0.000000 0.014994 0.000000 0.043350
#
#
# Mechanical properties :
#
#
# Convention : Reuss Voigt Hill
#
# Bulk Modulus (GPa) = 13.25442 32.80701 23.03071
# Shear Modulus (GPa) = 14.48121 31.82516 23.15319
#
# Velocity S-wave (km/s) = 2.64436 3.92015 3.34367
# Velocity P-wave (km/s) = 3.96532 6.02759 5.10175
#
# Compressibility (1/GPa) = 0.07544654
#
# Stress axis : x y z
#
# Youngs Moduli (GPa) = 110.52165 9.81698 41.50231
#
# Poissons Ratio (x) = 0.11516 -0.20552
# Poissons Ratio (y) = 1.29654 0.95460
# Poissons Ratio (z) = -0.54729 0.22580
#
# Static dielectric constant tensor:
#      x y z
#    x 1.869150 0.000000 -0.012080 
#    y 0.000000 1.756480 0.000000 
#    z -0.012080 0.000000 1.729560 
# 
# From -- ./inp_files/165599.got.cif
#   From: 2010.05.17/outbox.cif.g08.bks.cpg/sg15_83_cif.got.tgz:165599.got - 2010.06.03 18:47:42.
