data_PCOD9269041
_publ_section_title
;
Structure prediction by ZEFSAII (Michael W. Deem and Ramdas Pophale) SiO2 
 PCOD9269041
Probable space group: C 2/C
;
_chemical_formula_sum "Si O2"
_cell_formula_units_Z 56
_cell_length_a 7.164477
_cell_length_b 32.655452
_cell_length_c 14.576076
_cell_angle_alpha 90.000000
_cell_angle_beta 132.912020
_cell_angle_gamma 90.000000
_cell_volume 2497.636293
_symmetry_space_group_name_H-M "C 2/C"
_symmetry_group_IT_number 15
_symmetry_cell_setting 'monoclinic'
loop_
_space_group_symop_operation_xyz
x,y,z
-x,y,1/2-z
-x,-y,-z
x,-y,1/2+z
1/2+x,1/2+y,z
1/2-x,1/2+y,1/2-z
1/2-x,1/2-y,-z
1/2+x,1/2-y,1/2+z
loop_
_atom_site_type_symbol
_atom_site_label
_atom_site_fract_x
_atom_site_fract_y
_atom_site_fract_z
Si Si1 0.814648 0.620389 0.277273
Si Si2 0.533298 0.572061 0.455448
Si Si3 0.989213 0.795166 0.355903
Si Si4 0.717543 0.386073 0.193949
Si Si5 0.585310 0.961279 0.908526
Si Si6 0.474944 0.206354 0.353601
Si Si7 0.611221 0.957086 0.121889
O O1 0.547781 0.603974 0.150022
O O2 0.000000 0.623915 0.250000
O O3 0.939794 0.581937 0.369443
O O4 0.820612 0.664934 0.324318
O O5 0.546555 0.596234 0.555772
O O6 0.299140 0.541763 0.401275
O O7 0.807986 0.553686 0.525936
O O8 0.254232 0.797837 0.502171
O O9 0.870339 0.751277 0.347278
O O10 0.000000 0.790114 0.250000
O O11 0.858572 0.839231 0.318441
O O12 0.742466 0.418989 0.284218
O O13 0.000000 0.385471 0.250000
O O14 0.391711 0.998971 0.829301
O O15 0.700795 0.966281 0.048925
O O16 0.500000 0.206874 0.250000
#
# Coordination Sequence:
#
# PCOD9269041 Si02
#       7
#     8   8   8   8   8   8   8
#     4   9  18  33  58  80 109 149 192 230 286 348
#     4  10  21  37  58  79 111 157 189 235 289 349
#     4  10  20  33  62  90 112 147 196 247 292 351
#     4  10  22  37  55  82 119 149 188 241 295 350
#     4  10  21  37  58  81 112 154 193 242 287 343
#     4   9  18  35  57  89 117 145 195 243 294 356
#     4  10  23  37  53  85 118 146 196 242 287 341
#
# _framework density 22.421198
#
# number of rings (size 3 to 8) (size 9 to 14) (size 15 to 20)
#    0.000    2.286    0.000    3.000    4.000    6.857 
#    0.000    2.857    3.143    9.429    0.000    0.000 
#    0.000    0.000    0.000    0.000    0.000    0.000 
#
# Total GULP energy -156040.507214 kJ/mol
# GULP energy per Si atom -5572.875258 kJ/mol
# Density = 2.237017 g / cm^3
# Si number density = 22.421198 Si / 1000 Ang^3
#
#
#
# Elastic Constant Matrix: (Units=GPa)
#
#
# Indices 1 2 3 4 5 6 
#
# 1 57.6915 40.5438 21.3350 0.0000 4.5927 0.0000
# 2 40.5438 206.8167 53.8820 0.0000 5.2331 0.0000
# 3 21.3350 53.8820 113.1658 0.0000 -7.7939 0.0000
# 4 0.0000 0.0000 0.0000 41.0061 0.0000 3.1952
# 5 4.5927 5.2331 -7.7939 0.0000 17.1729 0.0000
# 6 0.0000 0.0000 0.0000 3.1952 0.0000 24.2879
#
#
#
# Elastic Compliance Matrix: (Units=1/GPa)
#
#
# Indices 1 2 3 4 5 6 
#
# 1 0.021147 -0.003253 -0.002848 0.000000 -0.005957 0.000000
# 2 -0.003253 0.006171 -0.002472 0.000000 -0.002132 0.000000
# 3 -0.002848 -0.002472 0.010999 0.000000 0.006507 0.000000
# 4 0.000000 0.000000 0.000000 0.024639 0.000000 -0.003241
# 5 -0.005957 -0.002132 0.006507 0.000000 0.063427 0.000000
# 6 0.000000 0.000000 0.000000 -0.003241 0.000000 0.041599
#
#
# Mechanical properties :
#
#
# Convention : Reuss Voigt Hill
#
# Bulk Modulus (GPa) = 47.23497 67.68841 57.46169
# Shear Modulus (GPa) = 26.01664 33.95426 29.98545
#
# Velocity S-wave (km/s) = 3.41010 3.89573 3.66098
# Velocity P-wave (km/s) = 6.05127 7.10567 6.59956
#
# Compressibility (1/GPa) = 0.02117076
#
# Stress axis : x y z
#
# Youngs Moduli (GPa) = 47.28769 162.05395 90.92095
#
# Poissons Ratio (x) = 0.52713 0.25897
# Poissons Ratio (y) = 0.15382 0.22473
# Poissons Ratio (z) = 0.13469 0.40055
#
# Static dielectric constant tensor:
#      x y z
#    x 1.892890 0.000000 0.000340 
#    y 0.000000 1.938550 0.000000 
#    z 0.000340 0.000000 1.943760 
# 
# From -- ./inp_files/194105.got.cif
#   From: 2010.05.17/outbox.cif.g08.bks.cpg/sg15_98_cif.got.tgz:194105.got - 2010.06.03 18:47:42.
