data_PCOD9269953
_publ_section_title
;
Structure prediction by ZEFSAII (Michael W. Deem and Ramdas Pophale) SiO2 
 PCOD9269953
Probable space group: C 2/C
;
_chemical_formula_sum "Si O2"
_cell_formula_units_Z 56
_cell_length_a 20.934366
_cell_length_b 7.679318
_cell_length_c 17.017176
_cell_angle_alpha 90.000000
_cell_angle_beta 114.086967
_cell_angle_gamma 90.000000
_cell_volume 2497.503032
_symmetry_space_group_name_H-M "C 2/C"
_symmetry_group_IT_number 15
_symmetry_cell_setting 'monoclinic'
loop_
_space_group_symop_operation_xyz
x,y,z
-x,y,1/2-z
-x,-y,-z
x,-y,1/2+z
1/2+x,1/2+y,z
1/2-x,1/2+y,1/2-z
1/2-x,1/2-y,-z
1/2+x,1/2-y,1/2+z
loop_
_atom_site_type_symbol
_atom_site_label
_atom_site_fract_x
_atom_site_fract_y
_atom_site_fract_z
Si Si1 0.232294 0.966656 0.994853
Si Si2 0.747920 0.186801 0.157210
Si Si3 0.909517 0.570758 0.429265
Si Si4 0.663169 0.210179 0.370892
Si Si5 0.332913 0.583768 0.783216
Si Si6 0.959237 0.287056 0.569344
Si Si7 0.911421 0.064609 0.980357
O O1 0.212382 0.134385 0.929104
O O2 0.243403 0.820896 0.932068
O O3 0.296913 0.035282 0.080575
O O4 0.162217 0.952442 0.010944
O O5 0.671753 0.094492 0.131006
O O6 0.734481 0.361578 0.198668
O O7 0.812678 0.089041 0.227368
O O8 0.919464 0.392789 0.480234
O O9 0.929958 0.731633 0.498476
O O10 0.966663 0.611379 0.390489
O O11 0.654703 0.266626 0.275891
O O12 0.588414 0.209839 0.377312
O O13 0.391661 0.549350 0.877993
O O14 0.959644 0.086853 0.539370
#
# Coordination Sequence:
#
# PCOD9269953 Si02
#       7
#     8   8   8   8   8   8   8
#     4   9  17  32  57  78 114 147 188 241 283 334
#     4  10  20  35  51  86 117 146 195 235 291 355
#     4  10  21  35  57  88 107 146 204 228 276 346
#     4   9  17  33  55  83 109 152 189 230 293 343
#     4  10  21  32  54  84 117 148 184 238 311 342
#     4  10  20  38  61  78 115 154 191 242 273 329
#     4  10  21  36  57  86 113 147 192 241 285 340
#
# _framework density 22.422395999999999
#
# number of rings (size 3 to 8) (size 9 to 14) (size 15 to 20)
#    0.000    2.286    1.429    1.286    4.000    2.286 
#    2.571    2.857    0.000    0.000    0.000    4.000 
#    0.000    0.000    0.000    0.000    0.000    0.000 
#
# Total GULP energy -156023.493422 kJ/mol
# GULP energy per Si atom -5572.267622 kJ/mol
# Density = 2.237136 g / cm^3
# Si number density = 22.422396 Si / 1000 Ang^3
#
#
#
# Elastic Constant Matrix: (Units=GPa)
#
#
# Indices 1 2 3 4 5 6 
#
# 1 88.1326 1.7538 51.2721 0.0000 -15.0848 0.0000
# 2 1.7538 44.0197 8.3751 0.0000 -9.9139 0.0000
# 3 51.2721 8.3751 125.0355 0.0000 -26.9784 0.0000
# 4 0.0000 0.0000 0.0000 28.7863 0.0000 0.5500
# 5 -15.0848 -9.9139 -26.9784 0.0000 34.6941 0.0000
# 6 0.0000 0.0000 0.0000 0.5500 0.0000 33.3081
#
#
#
# Elastic Compliance Matrix: (Units=1/GPa)
#
#
# Indices 1 2 3 4 5 6 
#
# 1 0.015070 0.001028 -0.005733 0.000000 0.002388 0.000000
# 2 0.001028 0.024352 -0.000547 0.000000 0.006981 0.000000
# 3 -0.005733 -0.000547 0.011792 0.000000 0.006521 0.000000
# 4 0.000000 0.000000 0.000000 0.034750 0.000000 -0.000574
# 5 0.002388 0.006981 0.006521 0.000000 0.036927 0.000000
# 6 0.000000 0.000000 0.000000 -0.000574 0.000000 0.030032
#
#
# Mechanical properties :
#
#
# Convention : Reuss Voigt Hill
#
# Bulk Modulus (GPa) = 24.56309 42.22107 33.39208
# Shear Modulus (GPa) = 28.24897 32.41017 30.32957
#
# Velocity S-wave (km/s) = 3.55329 3.80602 3.68182
# Velocity P-wave (km/s) = 5.27381 6.17941 5.74448
#
# Compressibility (1/GPa) = 0.04071150
#
# Stress axis : x y z
#
# Youngs Moduli (GPa) = 66.35597 41.06384 84.80106
#
# Poissons Ratio (x) = -0.04222 0.48619
# Poissons Ratio (y) = -0.06823 0.04635
# Poissons Ratio (z) = 0.38044 0.02244
#
# Static dielectric constant tensor:
#      x y z
#    x 1.880170 0.000000 -0.021990 
#    y 0.000000 1.953800 0.000000 
#    z -0.021990 0.000000 1.843400 
# 
# From -- ./inp_files/213451.got.cif
#   From: 2010.05.17/outbox.cif.g08.bks.cpg/sg15_107_cif.got.tgz:213451.got - 2010.06.03 18:47:42.
