data_PCOD9269519
_publ_section_title
;
Structure prediction by ZEFSAII (Michael W. Deem and Ramdas Pophale) SiO2 
 PCOD9269519
Probable space group: C 2/C
;
_chemical_formula_sum "Si O2"
_cell_formula_units_Z 56
_cell_length_a 19.200489
_cell_length_b 13.291279
_cell_length_c 14.179509
_cell_angle_alpha 90.000000
_cell_angle_beta 52.720347
_cell_angle_gamma 90.000000
_cell_volume 2879.276742
_symmetry_space_group_name_H-M "C 2/C"
_symmetry_group_IT_number 15
_symmetry_cell_setting 'monoclinic'
loop_
_space_group_symop_operation_xyz
x,y,z
-x,y,1/2-z
-x,-y,-z
x,-y,1/2+z
1/2+x,1/2+y,z
1/2-x,1/2+y,1/2-z
1/2-x,1/2-y,-z
1/2+x,1/2-y,1/2+z
loop_
_atom_site_type_symbol
_atom_site_label
_atom_site_fract_x
_atom_site_fract_y
_atom_site_fract_z
Si Si1 0.087880 0.019369 0.369257
Si Si2 0.745555 0.866980 0.741264
Si Si3 0.955202 0.377899 0.093497
Si Si4 0.005589 0.817154 0.641173
Si Si5 0.318501 0.343929 0.122299
Si Si6 0.167235 0.511695 0.665767
Si Si7 0.865437 0.488068 0.528748
O O1 0.155373 0.098913 0.360113
O O2 0.048668 0.078440 0.312141
O O3 0.138138 0.913392 0.331561
O O4 0.000000 0.000000 0.500000
O O5 0.723188 0.756160 0.797735
O O6 0.690246 0.905432 0.696558
O O7 0.717474 0.942212 0.849637
O O8 0.915492 0.442071 0.212106
O O9 0.898039 0.408756 0.050007
O O10 0.955814 0.261550 0.115651
O O11 0.055647 0.412994 0.006275
O O12 0.103055 0.824920 0.517607
O O13 0.000000 0.773153 0.750000
O O14 0.245145 0.410689 0.129737
O O15 0.150716 0.506075 0.568555
#
# Coordination Sequence:
#
# PCOD9269519 Si02
#       7
#     8   8   8   8   8   8   8
#     4   9  21  39  59  82 122 159 193 248 304 357
#     4  10  20  36  60  86 117 156 196 252 307 351
#     4  10  20  35  53  86 121 154 196 252 307 358
#     4  11  21  35  61  88 117 161 203 249 308 363
#     4  10  21  38  59  87 119 154 207 252 300 365
#     4  10  21  35  58  85 119 156 198 251 301 362
#     4  10  20  34  57  85 121 155 197 252 305 362
#
# _framework density 19.449328999999999
#
# number of rings (size 3 to 8) (size 9 to 14) (size 15 to 20)
#    0.000    2.000    1.429    2.143    2.000    0.571 
#    0.000    0.000    9.429    9.429    0.000    0.000 
#    0.000    0.000    0.000    0.000    0.000    0.000 
#
# Total GULP energy -155969.442242 kJ/mol
# GULP energy per Si atom -5570.337223 kJ/mol
# Density = 1.940506 g / cm^3
# Si number density = 19.449329 Si / 1000 Ang^3
#
#
#
# Elastic Constant Matrix: (Units=GPa)
#
#
# Indices 1 2 3 4 5 6 
#
# 1 71.2730 42.6972 40.8878 0.0000 7.0442 0.0000
# 2 42.6972 92.5036 43.3815 0.0000 -8.5051 0.0000
# 3 40.8878 43.3815 64.9775 0.0000 7.0213 0.0000
# 4 0.0000 0.0000 0.0000 22.1472 0.0000 -5.6879
# 5 7.0442 -8.5051 7.0213 0.0000 33.0988 0.0000
# 6 0.0000 0.0000 0.0000 -5.6879 0.0000 23.9765
#
#
#
# Elastic Compliance Matrix: (Units=1/GPa)
#
#
# Indices 1 2 3 4 5 6 
#
# 1 0.024590 -0.006964 -0.010302 0.000000 -0.004838 0.000000
# 2 -0.006964 0.019166 -0.009320 0.000000 0.008384 0.000000
# 3 -0.010302 -0.009320 0.028776 0.000000 -0.006307 0.000000
# 4 0.000000 0.000000 0.000000 0.048082 0.000000 0.011406
# 5 -0.004838 0.008384 -0.006307 0.000000 0.034734 0.000000
# 6 0.000000 0.000000 0.000000 0.011406 0.000000 0.044413
#
#
# Mechanical properties :
#
#
# Convention : Reuss Voigt Hill
#
# Bulk Modulus (GPa) = 51.64803 53.63188 52.63996
# Shear Modulus (GPa) = 19.27613 22.63034 20.95324
#
# Velocity S-wave (km/s) = 3.15158 3.41479 3.28582
# Velocity P-wave (km/s) = 6.31317 6.57136 6.44356
#
# Compressibility (1/GPa) = 0.01936182
#
# Stress axis : x y z
#
# Youngs Moduli (GPa) = 40.66642 52.17449 34.75070
#
# Poissons Ratio (x) = 0.36333 0.35799
# Poissons Ratio (y) = 0.28319 0.32388
# Poissons Ratio (z) = 0.41893 0.48628
#
# Static dielectric constant tensor:
#      x y z
#    x 1.719740 0.000000 -0.057180 
#    y 0.000000 1.743990 0.000000 
#    z -0.057180 0.000000 1.694490 
# 
# From -- ./inp_files/161227.got.cif
#   From: 2010.05.17/outbox.cif.g08.bks.cpg/sg15_81_cif.got.tgz:161227.got - 2010.06.03 18:47:42.
