data_PCOD9269861
_publ_section_title
;
Structure prediction by ZEFSAII (Michael W. Deem and Ramdas Pophale) SiO2 
 PCOD9269861
Probable space group: C 2/C
;
_chemical_formula_sum "Si O2"
_cell_formula_units_Z 44
_cell_length_a 16.697822
_cell_length_b 17.029449
_cell_length_c 9.690179
_cell_angle_alpha 90.000000
_cell_angle_beta 40.002825
_cell_angle_gamma 90.000000
_cell_volume 1771.271919
_symmetry_space_group_name_H-M "C 2/C"
_symmetry_group_IT_number 15
_symmetry_cell_setting 'monoclinic'
loop_
_space_group_symop_operation_xyz
x,y,z
-x,y,1/2-z
-x,-y,-z
x,-y,1/2+z
1/2+x,1/2+y,z
1/2-x,1/2+y,1/2-z
1/2-x,1/2-y,-z
1/2+x,1/2-y,1/2+z
loop_
_atom_site_type_symbol
_atom_site_label
_atom_site_fract_x
_atom_site_fract_y
_atom_site_fract_z
Si Si1 0.251952 0.467758 0.652434
Si Si2 0.500000 0.445203 0.750000
Si Si3 0.228397 0.165662 0.602199
Si Si4 0.795620 0.859587 0.835666
Si Si5 0.127644 0.371532 0.305128
Si Si6 0.984292 0.758743 0.434305
O O1 0.393249 0.503129 0.465868
O O2 0.250994 0.403452 0.533362
O O3 0.235925 0.427360 0.820818
O O4 0.149988 0.535623 0.760202
O O5 0.412442 0.393572 0.767188
O O6 0.250000 0.250000 0.500000
O O7 0.304551 0.146369 0.638535
O O8 0.085574 0.175515 0.834277
O O9 0.853535 0.796305 0.654893
O O10 0.695068 0.835166 0.082436
O O11 0.001481 0.322484 0.499124
O O12 0.000000 0.744752 0.250000
#
# Coordination Sequence:
#
# PCOD9269861 Si02
#       6
#     8   4   8   8   8   8
#     4  11  21  39  64  93 133 168 217 278 334 386
#     4  10  20  34  62  98 130 162 220 278 340 382
#     4  12  24  43  68  95 128 181 225 266 328 404
#     4  11  21  38  62  95 127 168 215 275 327 391
#     4  11  24  40  64  99 132 166 217 279 333 384
#     4  12  22  41  66  93 130 174 221 265 329 396
#
# _framework density 24.840904999999999
#
# number of rings (size 3 to 8) (size 9 to 14) (size 15 to 20)
#    0.000    0.727    3.636    6.545    0.000    0.000 
#    0.000    0.909    0.000    0.000    0.000    0.000 
#    0.000    0.000    0.000    0.000    0.000    0.000 
#
# Total GULP energy -123011.237133 kJ/mol
# GULP energy per Si atom -5591.419870 kJ/mol
# Density = 2.478437 g / cm^3
# Si number density = 24.840905 Si / 1000 Ang^3
#
#
#
# Elastic Constant Matrix: (Units=GPa)
#
#
# Indices 1 2 3 4 5 6 
#
# 1 31.5487 13.2263 28.3731 0.0000 21.5407 0.0000
# 2 13.2263 136.0992 39.9607 0.0000 14.3574 0.0000
# 3 28.3731 39.9607 140.8176 0.0000 24.2760 0.0000
# 4 0.0000 0.0000 0.0000 58.4852 0.0000 -3.2748
# 5 21.5407 14.3574 24.2760 0.0000 25.5122 0.0000
# 6 0.0000 0.0000 0.0000 -3.2748 0.0000 16.8114
#
#
#
# Elastic Compliance Matrix: (Units=1/GPa)
#
#
# Indices 1 2 3 4 5 6 
#
# 1 0.077937 0.000418 -0.005308 0.000000 -0.060990 0.000000
# 2 0.000418 0.008189 -0.001858 0.000000 -0.003194 0.000000
# 3 -0.005308 -0.001858 0.009265 0.000000 -0.003289 0.000000
# 4 0.000000 0.000000 0.000000 0.017287 0.000000 0.003367
# 5 -0.060990 -0.003194 -0.003289 0.000000 0.095619 0.000000
# 6 0.000000 0.000000 0.000000 0.003367 0.000000 0.060139
#
#
# Mechanical properties :
#
#
# Convention : Reuss Voigt Hill
#
# Bulk Modulus (GPa) = 12.21040 52.39840 32.30440
# Shear Modulus (GPa) = 16.16914 35.28879 25.72897
#
# Velocity S-wave (km/s) = 2.55406 3.77316 3.22180
# Velocity P-wave (km/s) = 3.69103 6.33417 5.18389
#
# Compressibility (1/GPa) = 0.08189739
#
# Stress axis : x y z
#
# Youngs Moduli (GPa) = 12.83080 122.11045 107.93297
#
# Poissons Ratio (x) = -0.05109 0.57291
# Poissons Ratio (y) = -0.00537 0.20049
# Poissons Ratio (z) = 0.06811 0.22682
#
# Static dielectric constant tensor:
#      x y z
#    x 2.190100 0.000000 -0.187890 
#    y 0.000000 2.113500 0.000000 
#    z -0.187890 0.000000 2.038550 
# 
# From -- ./inp_files/48906.got.cif
#   From: 2010.05.17/outbox.cif.g08.bks.cpg/sg15_25_cif.got.tgz:48906.got - 2010.06.03 18:47:42.
