data_PCOD9269889
_publ_section_title
;
Structure prediction by ZEFSAII (Michael W. Deem and Ramdas Pophale) SiO2 
 PCOD9269889
Probable space group: C 2/C
;
_chemical_formula_sum "Si O2"
_cell_formula_units_Z 52
_cell_length_a 9.887720
_cell_length_b 18.857830
_cell_length_c 14.601879
_cell_angle_alpha 90.000000
_cell_angle_beta 113.960051
_cell_angle_gamma 90.000000
_cell_volume 2488.063592
_symmetry_space_group_name_H-M "C 2/C"
_symmetry_group_IT_number 15
_symmetry_cell_setting 'monoclinic'
loop_
_space_group_symop_operation_xyz
x,y,z
-x,y,1/2-z
-x,-y,-z
x,-y,1/2+z
1/2+x,1/2+y,z
1/2-x,1/2+y,1/2-z
1/2-x,1/2-y,-z
1/2+x,1/2-y,1/2+z
loop_
_atom_site_type_symbol
_atom_site_label
_atom_site_fract_x
_atom_site_fract_y
_atom_site_fract_z
Si Si1 0.885929 0.511718 0.832181
Si Si2 0.319863 0.682594 0.967103
Si Si3 0.205330 0.964114 0.951084
Si Si4 0.650522 0.173827 0.737166
Si Si5 0.794921 0.445565 0.627639
Si Si6 0.500000 0.397160 0.750000
Si Si7 0.647058 0.688646 0.136606
O O1 0.827695 0.493987 0.915998
O O2 0.878894 0.595122 0.808949
O O3 0.781527 0.476289 0.726165
O O4 0.045796 0.475668 0.860416
O O5 0.277896 0.679565 0.848969
O O6 0.250000 0.750000 0.000000
O O7 0.251878 0.610754 0.991533
O O8 0.494331 0.682685 0.037705
O O9 0.070219 0.944913 0.848134
O O10 0.180778 0.019623 0.025444
O O11 0.500000 0.193928 0.750000
O O12 0.681216 0.229815 0.665414
O O13 0.770638 0.361611 0.625838
O O14 0.386523 0.345590 0.772142
#
# Coordination Sequence:
#
# PCOD9269889 Si02
#       7
#     8   8   8   8   8   4   8
#     4  11  23  41  67  96 129 175 228 270 327 402
#     4  11  22  37  68 101 124 171 218 276 337 390
#     4  11  22  40  63  95 132 169 223 271 332 400
#     4  12  20  40  65  96 130 170 226 274 316 400
#     4  11  23  40  64  99 127 174 217 276 328 395
#     4  10  20  34  64  92 124 166 206 278 332 376
#     4  11  23  40  62  99 135 161 218 280 337 385
#
# _framework density 20.899787
#
# number of rings (size 3 to 8) (size 9 to 14) (size 15 to 20)
#    0.000    0.923    6.923    1.385    0.000    3.692 
#    0.000    0.769    0.000    1.846    0.000    0.000 
#    0.000    0.000    0.000    0.000    0.000    0.000 
#
# Total GULP energy -145221.844979 kJ/mol
# GULP energy per Si atom -5585.455576 kJ/mol
# Density = 2.085222 g / cm^3
# Si number density = 20.899787 Si / 1000 Ang^3
#
#
#
# Elastic Constant Matrix: (Units=GPa)
#
#
# Indices 1 2 3 4 5 6 
#
# 1 39.9686 51.4988 28.4718 0.0000 1.9097 0.0000
# 2 51.4988 164.8236 29.9192 0.0000 6.9718 0.0000
# 3 28.4718 29.9192 108.2411 0.0000 12.8129 0.0000
# 4 0.0000 0.0000 0.0000 30.5439 0.0000 2.8744
# 5 1.9097 6.9718 12.8129 0.0000 18.7529 0.0000
# 6 0.0000 0.0000 0.0000 2.8744 0.0000 21.4816
#
#
#
# Elastic Compliance Matrix: (Units=1/GPa)
#
#
# Indices 1 2 3 4 5 6 
#
# 1 0.050049 -0.014102 -0.010101 0.000000 0.007048 0.000000
# 2 -0.014102 0.010389 0.001224 0.000000 -0.003263 0.000000
# 3 -0.010101 0.001224 0.012500 0.000000 -0.007967 0.000000
# 4 0.000000 0.000000 0.000000 0.033157 0.000000 -0.004437
# 5 0.007048 -0.003263 -0.007967 0.000000 0.059264 0.000000
# 6 0.000000 0.000000 0.000000 -0.004437 0.000000 0.047145
#
#
# Mechanical properties :
#
#
# Convention : Reuss Voigt Hill
#
# Bulk Modulus (GPa) = 37.06488 59.20143 48.13316
# Shear Modulus (GPa) = 18.69463 27.69858 23.19660
#
# Velocity S-wave (km/s) = 2.99405 3.64442 3.33513
# Velocity P-wave (km/s) = 5.45211 6.78947 6.15721
#
# Compressibility (1/GPa) = 0.02697971
#
# Stress axis : x y z
#
# Youngs Moduli (GPa) = 19.98051 96.25473 79.99718
#
# Poissons Ratio (x) = 1.35740 0.80806
# Poissons Ratio (y) = 0.28177 -0.09791
# Poissons Ratio (z) = 0.20183 -0.11781
#
# Static dielectric constant tensor:
#      x y z
#    x 1.813540 0.000000 0.066270 
#    y 0.000000 1.756310 0.000000 
#    z 0.066270 0.000000 1.784700 
# 
# From -- ./inp_files/145797.got.cif
#   From: 2010.05.17/outbox.cif.g08.bks.cpg/sg15_73_cif.got.tgz:145797.got - 2010.06.03 18:47:42.
