data_PCOD9269362
_publ_section_title
;
Structure prediction by ZEFSAII (Michael W. Deem and Ramdas Pophale) SiO2 
 PCOD9269362
Probable space group: C 2/C
;
_chemical_formula_sum "Si O2"
_cell_formula_units_Z 56
_cell_length_a 18.321204
_cell_length_b 15.834269
_cell_length_c 9.768912
_cell_angle_alpha 90.000000
_cell_angle_beta 117.431402
_cell_angle_gamma 90.000000
_cell_volume 2515.344251
_symmetry_space_group_name_H-M "C 2/C"
_symmetry_group_IT_number 15
_symmetry_cell_setting 'monoclinic'
loop_
_space_group_symop_operation_xyz
x,y,z
-x,y,1/2-z
-x,-y,-z
x,-y,1/2+z
1/2+x,1/2+y,z
1/2-x,1/2+y,1/2-z
1/2-x,1/2-y,-z
1/2+x,1/2-y,1/2+z
loop_
_atom_site_type_symbol
_atom_site_label
_atom_site_fract_x
_atom_site_fract_y
_atom_site_fract_z
Si Si1 0.914198 0.644634 0.709481
Si Si2 0.309904 0.449724 0.138287
Si Si3 0.439941 0.746820 0.495732
Si Si4 0.748708 0.055779 0.861768
Si Si5 0.322927 0.269827 0.457556
Si Si6 0.877460 0.764905 0.223477
Si Si7 0.545868 0.566521 0.142380
O O1 0.920909 0.686285 0.863032
O O2 0.834412 0.586439 0.638187
O O3 0.899746 0.722794 0.591960
O O4 0.000000 0.600976 0.750000
O O5 0.238709 0.447790 0.190706
O O6 0.361391 0.364290 0.188287
O O7 0.368802 0.523434 0.242809
O O8 0.278597 0.472035 0.961581
O O9 0.532092 0.751263 0.636815
O O10 0.378240 0.766191 0.568841
O O11 0.437990 0.653899 0.424041
O O12 0.818529 0.128834 0.943523
O O13 0.250000 0.250000 0.500000
O O14 0.316542 0.238224 0.294612
O O15 0.500000 0.578493 0.250000
O O16 0.500000 0.500000 0.000000
#
# Coordination Sequence:
#
# PCOD9269362 Si02
#       7
#     8   8   8   8   8   8   8
#     4  11  21  39  63  86 116 157 213 254 299 370
#     4  11  21  38  56  81 125 157 199 248 299 369
#     4  11  21  33  55  91 124 154 196 252 309 367
#     4  10  23  39  59  85 116 163 200 250 310 363
#     4   9  19  37  58  85 117 159 202 245 303 370
#     4  10  20  34  55  87 122 151 188 254 307 361
#     4  12  22  32  55  92 126 168 206 247 313 376
#
# _framework density 22.263356000000002
#
# number of rings (size 3 to 8) (size 9 to 14) (size 15 to 20)
#    0.000    1.429    2.857    3.857    2.000    0.000 
#    0.000   10.000    0.000    0.000    0.000    0.000 
#    0.000    0.000    0.000    0.000    0.000    0.000 
#
# Total GULP energy -156276.532999 kJ/mol
# GULP energy per Si atom -5581.304750 kJ/mol
# Density = 2.221268 g / cm^3
# Si number density = 22.263356 Si / 1000 Ang^3
#
#
#
# Elastic Constant Matrix: (Units=GPa)
#
#
# Indices 1 2 3 4 5 6 
#
# 1 81.6523 1.1402 27.2561 0.0000 -26.6816 0.0000
# 2 1.1402 13.7714 12.4676 0.0000 -3.8804 0.0000
# 3 27.2561 12.4676 103.7474 0.0000 -38.5252 0.0000
# 4 0.0000 0.0000 0.0000 16.3781 0.0000 -14.6723
# 5 -26.6816 -3.8804 -38.5252 0.0000 52.0258 0.0000
# 6 0.0000 0.0000 0.0000 -14.6723 0.0000 -2.5669
#
#
#
# Elastic Compliance Matrix: (Units=1/GPa)
#
#
# Indices 1 2 3 4 5 6 
#
# 1 0.014935 0.002201 -0.001770 0.000000 0.006513 0.000000
# 2 0.002201 0.081902 -0.010666 0.000000 -0.000661 0.000000
# 3 -0.001770 -0.010666 0.014831 0.000000 0.009280 0.000000
# 4 0.000000 0.000000 0.000000 0.009976 0.000000 -0.057020
# 5 0.006513 -0.000661 0.009280 0.000000 0.029384 0.000000
# 6 0.000000 0.000000 0.000000 -0.057020 0.000000 -0.063649
#
#
# Mechanical properties :
#
#
# Convention : Reuss Voigt Hill
#
# Bulk Modulus (GPa) = 10.96499 31.21100 21.08800
# Shear Modulus (GPa) = 36.16686 23.72121 29.94403
#
# Velocity S-wave (km/s) = 4.03488 3.26771 3.67139
# Velocity P-wave (km/s) = 5.16167 5.31852 5.24069
#
# Compressibility (1/GPa) = 0.09119932
#
# Stress axis : x y z
#
# Youngs Moduli (GPa) = 66.95491 12.20973 67.42505
#
# Poissons Ratio (x) = -0.02687 0.11931
# Poissons Ratio (y) = -0.14736 0.71915
# Poissons Ratio (z) = 0.11848 0.13023
#
# Static dielectric constant tensor:
#      x y z
#    x 1.904530 0.000000 -0.039210 
#    y 0.000000 1.805210 0.000000 
#    z -0.039210 0.000000 1.829580 
# 
# From -- ./inp_files/49123.got.cif
#   From: 2010.05.17/outbox.cif.g08.bks.cpg/sg15_25_cif.got.tgz:49123.got - 2010.06.03 18:47:42.
