data_PCOD9269718
_publ_section_title
;
Structure prediction by ZEFSAII (Michael W. Deem and Ramdas Pophale) SiO2 
 PCOD9269718
Probable space group: C 2/C
;
_chemical_formula_sum "Si O2"
_cell_formula_units_Z 56
_cell_length_a 5.524306
_cell_length_b 27.105286
_cell_length_c 18.978933
_cell_angle_alpha 90.000000
_cell_angle_beta 68.883844
_cell_angle_gamma 90.000000
_cell_volume 2651.039842
_symmetry_space_group_name_H-M "C 2/C"
_symmetry_group_IT_number 15
_symmetry_cell_setting 'monoclinic'
loop_
_space_group_symop_operation_xyz
x,y,z
-x,y,1/2-z
-x,-y,-z
x,-y,1/2+z
1/2+x,1/2+y,z
1/2-x,1/2+y,1/2-z
1/2-x,1/2-y,-z
1/2+x,1/2-y,1/2+z
loop_
_atom_site_type_symbol
_atom_site_label
_atom_site_fract_x
_atom_site_fract_y
_atom_site_fract_z
Si Si1 0.668805 0.541277 0.162005
Si Si2 0.599147 0.430012 0.159980
Si Si3 0.630261 0.719235 0.947999
Si Si4 0.427789 0.445706 0.033278
Si Si5 0.464030 0.131466 0.950545
Si Si6 0.724300 0.092826 0.112222
Si Si7 0.909053 0.688310 0.425800
O O1 0.500000 0.539207 0.250000
O O2 0.733889 0.484057 0.138293
O O3 0.460109 0.568557 0.132082
O O4 0.945152 0.566967 0.146597
O O5 0.500000 0.424021 0.250000
O O6 0.386625 0.438209 0.120783
O O7 0.771751 0.384016 0.116083
O O8 0.808300 0.671299 0.918236
O O9 0.565022 0.760964 0.896127
O O10 0.750000 0.750000 0.000000
O O11 0.355153 0.701490 0.006073
O O12 0.180324 0.420600 0.025380
O O13 0.500000 0.500000 0.000000
O O14 0.669591 0.413975 0.978792
O O15 0.445666 0.156654 0.029267
O O16 0.668968 0.150975 0.128145
#
# Coordination Sequence:
#
# PCOD9269718 Si02
#       7
#     8   8   8   8   8   8   8
#     4  11  26  43  61  94 135 180 220 272 331 408
#     4  11  25  39  57  89 135 181 225 263 330 405
#     4   9  19  34  58  93 131 155 202 281 337 392
#     4  12  23  36  60  95 129 169 222 270 319 387
#     4  11  20  38  59  88 136 169 216 271 335 391
#     4  12  22  39  68  93 129 169 222 274 334 387
#     4  10  20  34  60 100 124 155 214 276 336 389
#
# _framework density 21.123788000000001
#
# number of rings (size 3 to 8) (size 9 to 14) (size 15 to 20)
#    0.000    1.143    4.286    2.143    2.000    1.714 
#    0.000    0.000    0.000    0.000   14.857    0.000 
#    0.000    0.000    0.000    0.000    0.000    0.000 
#
# Total GULP energy -155882.190567 kJ/mol
# GULP energy per Si atom -5567.221092 kJ/mol
# Density = 2.107571 g / cm^3
# Si number density = 21.123788 Si / 1000 Ang^3
#
#
#
# Elastic Constant Matrix: (Units=GPa)
#
#
# Indices 1 2 3 4 5 6 
#
# 1 68.0391 25.7658 14.7149 0.0000 -1.0426 0.0000
# 2 25.7658 114.3500 5.5989 0.0000 1.8726 0.0000
# 3 14.7149 5.5989 52.6387 0.0000 6.7545 0.0000
# 4 0.0000 0.0000 0.0000 17.0338 0.0000 -7.3761
# 5 -1.0426 1.8726 6.7545 0.0000 21.7316 0.0000
# 6 0.0000 0.0000 0.0000 -7.3761 0.0000 49.3009
#
#
#
# Elastic Compliance Matrix: (Units=1/GPa)
#
#
# Indices 1 2 3 4 5 6 
#
# 1 0.017155 -0.003676 -0.004740 0.000000 0.002613 0.000000
# 2 -0.003676 0.009584 0.000143 0.000000 -0.001046 0.000000
# 3 -0.004740 0.000143 0.021183 0.000000 -0.006824 0.000000
# 4 0.000000 0.000000 0.000000 0.062774 0.000000 0.009392
# 5 0.002613 -0.001046 -0.006824 0.000000 0.048352 0.000000
# 6 0.000000 0.000000 0.000000 0.009392 0.000000 0.021689
#
#
# Mechanical properties :
#
#
# Convention : Reuss Voigt Hill
#
# Bulk Modulus (GPa) = 31.87307 36.35411 34.11359
# Shear Modulus (GPa) = 24.06849 30.20980 27.13914
#
# Velocity S-wave (km/s) = 3.37916 3.78581 3.58825
# Velocity P-wave (km/s) = 5.50876 6.02969 5.77511
#
# Compressibility (1/GPa) = 0.03137444
#
# Stress axis : x y z
#
# Youngs Moduli (GPa) = 58.29325 104.34551 47.20797
#
# Poissons Ratio (x) = 0.38358 0.22376
# Poissons Ratio (y) = 0.21429 -0.00673
# Poissons Ratio (z) = 0.27630 -0.01487
#
# Static dielectric constant tensor:
#      x y z
#    x 3.903370 0.000000 0.299230 
#    y 0.000000 2.127110 0.000000 
#    z 0.299230 0.000000 1.809010 
# 
# From -- ./inp_files/228404.got.cif
#   From: 2010.05.17/outbox.cif.g08.bks.cpg/sg15_115_cif.got.tgz:228404.got - 2010.06.03 18:47:42.
