data_PCOD9269394
_publ_section_title
;
Structure prediction by ZEFSAII (Michael W. Deem and Ramdas Pophale) SiO2 
 PCOD9269394
Probable space group: C 2/C
;
_chemical_formula_sum "Si O2"
_cell_formula_units_Z 64
_cell_length_a 7.961113
_cell_length_b 24.209483
_cell_length_c 14.324092
_cell_angle_alpha 90.000000
_cell_angle_beta 81.866279
_cell_angle_gamma 90.000000
_cell_volume 2732.974148
_symmetry_space_group_name_H-M "C 2/C"
_symmetry_group_IT_number 15
_symmetry_cell_setting 'monoclinic'
loop_
_space_group_symop_operation_xyz
x,y,z
-x,y,1/2-z
-x,-y,-z
x,-y,1/2+z
1/2+x,1/2+y,z
1/2-x,1/2+y,1/2-z
1/2-x,1/2-y,-z
1/2+x,1/2-y,1/2+z
loop_
_atom_site_type_symbol
_atom_site_label
_atom_site_fract_x
_atom_site_fract_y
_atom_site_fract_z
Si Si1 0.666086 0.244674 0.863601
Si Si2 0.627165 0.018247 0.377812
Si Si3 0.955007 0.042010 0.920425
Si Si4 0.473188 0.335402 0.364695
Si Si5 0.333229 0.367613 0.641569
Si Si6 0.220476 0.485759 0.654137
Si Si7 0.780880 0.256960 0.365996
Si Si8 0.763336 0.866140 0.865139
O O1 0.804423 0.201459 0.886997
O O2 0.701951 0.307079 0.896028
O O3 0.689575 0.246111 0.748725
O O4 0.467103 0.231842 0.893838
O O5 0.436465 0.994866 0.397432
O O6 0.662201 0.022683 0.264404
O O7 0.658559 0.081326 0.409757
O O8 0.772730 0.978336 0.401818
O O9 0.957422 0.107714 0.921604
O O10 0.119221 0.025462 0.846032
O O11 0.000000 0.000000 0.000000
O O12 0.500000 0.345419 0.250000
O O13 0.635111 0.301786 0.389968
O O14 0.264231 0.425263 0.609342
O O15 0.257594 0.364855 0.752739
O O16 0.536551 0.374607 0.631068
O O17 0.720497 0.195672 0.400816
#
# Coordination Sequence:
#
# PCOD9269394 Si02
#       8
#     8   8   8   8   8   8   8   8
#     4   8  15  27  47  82 116 139 165 214 282 340
#     4  10  20  35  60  90 112 139 186 243 293 334
#     4  12  26  42  56  74 114 162 203 238 277 334
#     4  10  20  34  56  80 108 144 186 228 276 338
#     4   8  13  25  49  83 119 138 161 218 286 341
#     4  10  20  35  60  90 112 139 186 243 293 334
#     4   8  15  27  47  82 116 139 165 214 282 340
#     4   8  13  25  49  83 119 138 161 218 286 341
#
# _framework density 23.417712999999999
#
# number of rings (size 3 to 8) (size 9 to 14) (size 15 to 20)
#    0.000    2.750    1.250    2.625    1.750    1.500 
#    0.000    2.500    0.000    1.500    0.000    0.000 
#    0.000    0.000    0.000    0.000    0.000    0.000 
#
# Total GULP energy -178654.161289 kJ/mol
# GULP energy per Si atom -5582.942540 kJ/mol
# Density = 2.336441 g / cm^3
# Si number density = 23.417713 Si / 1000 Ang^3
#
#
#
# Elastic Constant Matrix: (Units=GPa)
#
#
# Indices 1 2 3 4 5 6 
#
# 1 134.6108 100.9110 10.6219 0.0000 4.8339 0.0000
# 2 100.9110 176.7549 15.4803 0.0000 2.3948 0.0000
# 3 10.6219 15.4803 56.4735 0.0000 1.5003 0.0000
# 4 0.0000 0.0000 0.0000 17.1870 0.0000 -9.6294
# 5 4.8339 2.3948 1.5003 0.0000 12.9869 0.0000
# 6 0.0000 0.0000 0.0000 -9.6294 0.0000 -77.0381
#
#
#
# Elastic Compliance Matrix: (Units=1/GPa)
#
#
# Indices 1 2 3 4 5 6 
#
# 1 0.013152 -0.007431 -0.000344 0.000000 -0.003485 0.000000
# 2 -0.007431 0.010006 -0.001374 0.000000 0.001080 0.000000
# 3 -0.000344 -0.001374 0.018194 0.000000 -0.001720 0.000000
# 4 0.000000 0.000000 0.000000 0.054375 0.000000 -0.006797
# 5 -0.003485 0.001080 -0.001720 0.000000 0.078298 0.000000
# 6 0.000000 0.000000 0.000000 -0.006797 0.000000 -0.012131
#
#
# Mechanical properties :
#
#
# Convention : Reuss Voigt Hill
#
# Bulk Modulus (GPa) = 43.37626 69.09617 56.23621
# Shear Modulus (GPa) = 26.61317 6.68224 16.64770
#
# Velocity S-wave (km/s) = 3.37479 1.69106 2.66917
# Velocity P-wave (km/s) = 5.80936 5.77780 5.79360
#
# Compressibility (1/GPa) = 0.02305409
#
# Stress axis : x y z
#
# Youngs Moduli (GPa) = 76.03443 99.94222 54.96195
#
# Poissons Ratio (x) = 0.74269 0.01891
# Poissons Ratio (y) = 0.56503 0.07550
# Poissons Ratio (z) = 0.02616 0.13729
#
# Static dielectric constant tensor:
#      x y z
#    x 2.279550 0.000000 -0.165450 
#    y 0.000000 1.854670 0.000000 
#    z -0.165450 0.000000 2.052480 
# 
# From -- ./inp_files/192953.got.cif
#   From: 2010.05.17/outbox.cif.g08.bks.cpg/sg15_97_cif.got.tgz:192953.got - 2010.06.03 18:47:42.
