data_PCOD9269742
_publ_section_title
;
Structure prediction by ZEFSAII (Michael W. Deem and Ramdas Pophale) SiO2 
 PCOD9269742
Probable space group: C 2/C
;
_chemical_formula_sum "Si O2"
_cell_formula_units_Z 40
_cell_length_a 16.645903
_cell_length_b 7.070750
_cell_length_c 15.094880
_cell_angle_alpha 90.000000
_cell_angle_beta 53.445813
_cell_angle_gamma 90.000000
_cell_volume 1427.174259
_symmetry_space_group_name_H-M "C 2/C"
_symmetry_group_IT_number 15
_symmetry_cell_setting 'monoclinic'
loop_
_space_group_symop_operation_xyz
x,y,z
-x,y,1/2-z
-x,-y,-z
x,-y,1/2+z
1/2+x,1/2+y,z
1/2-x,1/2+y,1/2-z
1/2-x,1/2-y,-z
1/2+x,1/2-y,1/2+z
loop_
_atom_site_type_symbol
_atom_site_label
_atom_site_fract_x
_atom_site_fract_y
_atom_site_fract_z
Si Si1 0.471262 0.546705 0.620977
Si Si2 0.182598 0.054048 0.493661
Si Si3 0.241880 0.996958 0.266095
Si Si4 0.538654 0.124076 0.820420
Si Si5 0.333411 0.097130 0.022764
O O1 0.500000 0.500000 0.500000
O O2 0.573610 0.632692 0.592255
O O3 0.359057 0.626971 0.690274
O O4 0.458268 0.350523 0.680086
O O5 0.204414 0.112798 0.377737
O O6 0.277946 0.054218 0.495070
O O7 0.169777 0.820755 0.500921
O O8 0.348928 0.926939 0.230394
O O9 0.271685 0.083040 0.152835
O O10 0.500000 0.060197 0.750000
O O11 0.451874 0.058794 0.944924
#
# Coordination Sequence:
#
# PCOD9269742 Si02
#       5
#     8   8   8   8   8
#     4   9  21  36  57  87 120 151 196 243 292 348
#     4   9  19  36  55  88 117 153 203 244 287 357
#     4  11  20  33  56  92 118 153 192 249 299 339
#     4  11  21  37  61  91 119 152 201 248 289 355
#     4  10  20  34  60  87 120 153 197 249 295 347
#
# _framework density 28.027411000000001
#
# number of rings (size 3 to 8) (size 9 to 14) (size 15 to 20)
#    0.000    2.000    2.000    1.800    5.600    0.000 
#    0.000    0.000    0.000   10.800   20.800    0.000 
#    0.000    0.000    0.000    0.000    0.000    0.000 
#
# Total GULP energy -111736.548948 kJ/mol
# GULP energy per Si atom -5586.827447 kJ/mol
# Density = 2.796362 g / cm^3
# Si number density = 28.027411 Si / 1000 Ang^3
#
#
#
# Elastic Constant Matrix: (Units=GPa)
#
#
# Indices 1 2 3 4 5 6 
#
# 1 244.9067 23.9540 87.1349 0.0000 -68.3019 0.0000
# 2 23.9540 61.3227 0.3277 0.0002 -15.0801 -0.0003
# 3 87.1349 0.3277 149.1613 0.0000 -59.3047 0.0000
# 4 0.0000 0.0002 0.0000 28.9733 0.0000 -3.5862
# 5 -68.3019 -15.0801 -59.3047 0.0000 72.2408 0.0000
# 6 0.0000 -0.0003 0.0000 -3.5862 0.0000 42.7659
#
#
#
# Elastic Compliance Matrix: (Units=1/GPa)
#
#
# Indices 1 2 3 4 5 6 
#
# 1 0.005968 -0.001412 -0.002015 0.000000 0.003694 0.000000
# 2 -0.001412 0.017962 0.002591 0.000000 0.004541 0.000000
# 3 -0.002015 0.002591 0.010886 0.000000 0.007573 0.000000
# 4 0.000000 0.000000 0.000000 0.034877 0.000000 0.002925
# 5 0.003694 0.004541 0.007573 0.000000 0.024500 0.000000
# 6 0.000000 0.000000 0.000000 0.002925 0.000000 0.023628
#
#
# Mechanical properties :
#
#
# Convention : Reuss Voigt Hill
#
# Bulk Modulus (GPa) = 30.17045 75.35822 52.76433
# Shear Modulus (GPa) = 38.30206 51.72761 45.01484
#
# Velocity S-wave (km/s) = 3.70076 4.30071 4.01197
# Velocity P-wave (km/s) = 5.38969 7.18382 6.35043
#
# Compressibility (1/GPa) = 0.03314501
#
# Stress axis : x y z
#
# Youngs Moduli (GPa) = 167.54937 55.67394 91.85906
#
# Poissons Ratio (x) = 0.07862 0.18506
# Poissons Ratio (y) = 0.23660 -0.23801
# Poissons Ratio (z) = 0.33755 -0.14425
#
# Static dielectric constant tensor:
#      x y z
#    x 2.257360 0.000000 0.044120 
#    y 0.000000 2.419740 0.000000 
#    z 0.044120 0.000000 2.109470 
# 
# From -- ./inp_files/151194.got.cif
#   From: 2010.05.17/outbox.cif.g08.bks.cpg/sg15_76_cif.got.tgz:151194.got - 2010.06.03 18:47:42.
