data_PCOD9269686
_publ_section_title
;
Structure prediction by ZEFSAII (Michael W. Deem and Ramdas Pophale) SiO2 
 PCOD9269686
Probable space group: C 2/C
;
_chemical_formula_sum "Si O2"
_cell_formula_units_Z 48
_cell_length_a 16.462247
_cell_length_b 11.070727
_cell_length_c 12.866038
_cell_angle_alpha 90.000000
_cell_angle_beta 112.543381
_cell_angle_gamma 90.000000
_cell_volume 2165.654051
_symmetry_space_group_name_H-M "C 2/C"
_symmetry_group_IT_number 15
_symmetry_cell_setting 'monoclinic'
loop_
_space_group_symop_operation_xyz
x,y,z
-x,y,1/2-z
-x,-y,-z
x,-y,1/2+z
1/2+x,1/2+y,z
1/2-x,1/2+y,1/2-z
1/2-x,1/2-y,-z
1/2+x,1/2-y,1/2+z
loop_
_atom_site_type_symbol
_atom_site_label
_atom_site_fract_x
_atom_site_fract_y
_atom_site_fract_z
Si Si1 0.578998 0.311074 0.536760
Si Si2 0.067098 0.211747 0.367541
Si Si3 0.903628 0.048898 0.658100
Si Si4 0.763618 0.333531 0.405558
Si Si5 0.130076 0.424791 0.517840
Si Si6 0.487868 0.097259 0.365312
O O1 0.502793 0.337762 0.580939
O O2 0.601580 0.416708 0.466965
O O3 0.665729 0.243951 0.625303
O O4 0.538406 0.207420 0.443410
O O5 0.112059 0.094127 0.339990
O O6 0.136032 0.301417 0.456140
O O7 0.000000 0.268533 0.250000
O O8 0.696880 0.035665 0.542382
O O9 0.000000 0.073225 0.750000
O O10 0.832295 0.131153 0.682385
O O11 0.750000 0.250000 0.500000
O O12 0.108018 0.404505 0.628833
O O13 0.038783 0.476637 0.424921
O O14 0.500000 0.109049 0.250000
#
# Coordination Sequence:
#
# PCOD9269686 Si02
#       6
#     8   8   8   8   8   8
#     4   9  18  35  60  82 111 148 197 237 285 339
#     4  10  20  34  59  84 117 158 187 234 295 353
#     4  10  20  35  60  82 116 154 192 233 292 353
#     4   9  19  36  58  82 111 150 190 243 287 337
#     4   9  18  31  52  84 115 146 186 237 285 342
#     4   9  16  29  54  84 110 143 186 234 284 337
#
# _framework density 22.164204999999999
#
# number of rings (size 3 to 8) (size 9 to 14) (size 15 to 20)
#    0.000    2.667    0.000    2.500    0.000    0.667 
#    0.000    0.833   77.000    0.000    0.000    0.000 
#    0.000    0.000    0.000    0.000    0.000    0.000 
#
# Total GULP energy -133717.104864 kJ/mol
# GULP energy per Si atom -5571.546036 kJ/mol
# Density = 2.211376 g / cm^3
# Si number density = 22.164205 Si / 1000 Ang^3
#
#
#
# Elastic Constant Matrix: (Units=GPa)
#
#
# Indices 1 2 3 4 5 6 
#
# 1 56.9767 28.9546 20.2295 0.0000 9.1121 0.0000
# 2 28.9546 93.3596 18.4154 0.0000 14.0499 0.0000
# 3 20.2295 18.4154 48.9352 0.0000 -3.6034 0.0000
# 4 0.0000 0.0000 0.0000 16.5136 0.0000 -0.9317
# 5 9.1121 14.0499 -3.6034 0.0000 35.7082 0.0000
# 6 0.0000 0.0000 0.0000 -0.9317 0.0000 29.0274
#
#
#
# Elastic Compliance Matrix: (Units=1/GPa)
#
#
# Indices 1 2 3 4 5 6 
#
# 1 0.023849 -0.005005 -0.008340 0.000000 -0.004958 0.000000
# 2 -0.005005 0.013592 -0.003371 0.000000 -0.004411 0.000000
# 3 -0.008340 -0.003371 0.025596 0.000000 0.006038 0.000000
# 4 0.000000 0.000000 0.000000 0.060666 0.000000 0.001947
# 5 -0.004958 -0.004411 0.006038 0.000000 0.031615 0.000000
# 6 0.000000 0.000000 0.000000 0.001947 0.000000 0.034513
#
#
# Mechanical properties :
#
#
# Convention : Reuss Voigt Hill
#
# Bulk Modulus (GPa) = 33.77875 37.16339 35.47107
# Shear Modulus (GPa) = 21.44711 25.02798 23.23754
#
# Velocity S-wave (km/s) = 3.11408 3.36401 3.24145
# Velocity P-wave (km/s) = 5.31068 5.64734 5.48159
#
# Compressibility (1/GPa) = 0.02960441
#
# Stress axis : x y z
#
# Youngs Moduli (GPa) = 41.93091 73.57114 39.06832
#
# Poissons Ratio (x) = 0.36823 0.32585
# Poissons Ratio (y) = 0.20987 0.13169
# Poissons Ratio (z) = 0.34972 0.24799
#
# Static dielectric constant tensor:
#      x y z
#    x 1.920260 0.000000 0.013710 
#    y 0.000000 1.840120 0.000000 
#    z 0.013710 0.000000 1.835420 
# 
# From -- ./inp_files/144400.got.cif
#   From: 2010.05.17/outbox.cif.g08.bks.cpg/sg15_73_cif.got.tgz:144400.got - 2010.06.03 18:47:42.
