data_PCOD9269568
_publ_section_title
;
Structure prediction by ZEFSAII (Michael W. Deem and Ramdas Pophale) SiO2 
 PCOD9269568
Probable space group: C 2/C
;
_chemical_formula_sum "Si O2"
_cell_formula_units_Z 48
_cell_length_a 19.390910
_cell_length_b 12.845210
_cell_length_c 23.395582
_cell_angle_alpha 90.000000
_cell_angle_beta 151.391791
_cell_angle_gamma 90.000000
_cell_volume 2790.251815
_symmetry_space_group_name_H-M "C 2/C"
_symmetry_group_IT_number 15
_symmetry_cell_setting 'monoclinic'
loop_
_space_group_symop_operation_xyz
x,y,z
-x,y,1/2-z
-x,-y,-z
x,-y,1/2+z
1/2+x,1/2+y,z
1/2-x,1/2+y,1/2-z
1/2-x,1/2-y,-z
1/2+x,1/2-y,1/2+z
loop_
_atom_site_type_symbol
_atom_site_label
_atom_site_fract_x
_atom_site_fract_y
_atom_site_fract_z
Si Si1 0.380278 0.647780 0.920287
Si Si2 0.593118 0.434378 0.766040
Si Si3 0.057049 0.363503 0.579143
Si Si4 0.571645 0.056577 0.965258
Si Si5 0.934243 0.692238 0.763940
Si Si6 0.631189 0.458496 0.671988
O O1 0.439685 0.739596 0.922906
O O2 0.238027 0.679790 0.852200
O O3 0.340178 0.551059 0.850983
O O4 0.507026 0.612231 0.054547
O O5 0.500000 0.476776 0.750000
O O6 0.540077 0.316670 0.712754
O O7 0.584924 0.496707 0.701064
O O8 0.757378 0.429180 0.906713
O O9 0.011716 0.397559 0.481757
O O10 0.222279 0.396183 0.710308
O O11 0.967461 0.433754 0.558439
O O12 0.507533 0.121752 0.866225
O O13 0.000000 0.661850 0.750000
#
# Coordination Sequence:
#
# PCOD9269568 Si02
#       6
#     8   8   8   8   8   8
#     4  11  21  35  55  82 112 138 180 222 260 322
#     4  10  22  34  55  81 109 143 173 221 271 325
#     4  10  20  34  58  76 106 142 179 227 257 313
#     4  10  20  35  52  79 106 142 181 210 269 319
#     4  11  22  32  53  83 113 143 166 217 279 323
#     4  10  21  35  53  81 108 144 178 218 270 307
#
# _framework density 17.202748
#
# number of rings (size 3 to 8) (size 9 to 14) (size 15 to 20)
#    0.000    1.667    5.000    1.000    2.333    1.333 
#    0.000    0.000    0.000    2.000    0.000    0.000 
#    0.000    0.000    0.000    0.000    0.000    0.000 
#
# Total GULP energy -133755.808749 kJ/mol
# GULP energy per Si atom -5573.158698 kJ/mol
# Density = 1.716359 g / cm^3
# Si number density = 17.202748 Si / 1000 Ang^3
#
#
#
# Elastic Constant Matrix: (Units=GPa)
#
#
# Indices 1 2 3 4 5 6 
#
# 1 77.0716 6.8917 27.0311 -0.0002 -5.7387 -0.0001
# 2 6.8917 31.2809 17.5805 0.0006 2.0463 0.0003
# 3 27.0311 17.5805 70.0839 0.0010 -12.9221 0.0006
# 4 -0.0002 0.0006 0.0010 11.1026 0.0007 4.2210
# 5 -5.7387 2.0463 -12.9221 0.0007 18.3743 0.0002
# 6 -0.0001 0.0003 0.0006 4.2210 0.0002 20.6457
#
#
#
# Elastic Compliance Matrix: (Units=1/GPa)
#
#
# Indices 1 2 3 4 5 6 
#
# 1 0.015014 -0.000215 -0.005593 0.000001 0.000780 0.000000
# 2 -0.000215 0.039808 -0.012332 0.000000 -0.013173 0.000000
# 3 -0.005593 -0.012332 0.022348 -0.000002 0.015343 0.000000
# 4 0.000001 0.000000 -0.000002 0.097660 -0.000005 -0.019966
# 5 0.000780 -0.013173 0.015343 -0.000005 0.066925 0.000000
# 6 0.000000 0.000000 0.000000 -0.019966 0.000000 0.052518
#
#
# Mechanical properties :
#
#
# Convention : Reuss Voigt Hill
#
# Bulk Modulus (GPa) = 24.45572 31.27145 27.86358
# Shear Modulus (GPa) = 14.52713 18.48673 16.50693
#
# Velocity S-wave (km/s) = 2.90912 3.28172 3.10102
# Velocity P-wave (km/s) = 5.05282 5.70765 5.39019
#
# Compressibility (1/GPa) = 0.04089024
#
# Stress axis : x y z
#
# Youngs Moduli (GPa) = 66.60501 25.12038 44.74632
#
# Poissons Ratio (x) = 0.00541 0.25027
# Poissons Ratio (y) = 0.01435 0.55180
# Poissons Ratio (z) = 0.37252 0.30978
#
# Static dielectric constant tensor:
#      x y z
#    x 1.591480 0.000000 0.005540 
#    y 0.000000 1.606910 0.000000 
#    z 0.005540 0.000000 1.587120 
# 
# From -- ./inp_files/103753.got.cif
#   From: 2010.05.17/outbox.cif.g08.bks.cpg/sg15_52_cif.got.tgz:103753.got - 2010.06.03 18:47:42.
