data_PCOD9269271
_publ_section_title
;
Structure prediction by ZEFSAII (Michael W. Deem and Ramdas Pophale) SiO2 
 PCOD9269271
Probable space group: C 2/C
;
_chemical_formula_sum "Si O2"
_cell_formula_units_Z 60
_cell_length_a 15.303161
_cell_length_b 8.400447
_cell_length_c 24.683079
_cell_angle_alpha 90.000000
_cell_angle_beta 43.631367
_cell_angle_gamma 90.000000
_cell_volume 2189.484984
_symmetry_space_group_name_H-M "C 2/C"
_symmetry_group_IT_number 15
_symmetry_cell_setting 'monoclinic'
loop_
_space_group_symop_operation_xyz
x,y,z
-x,y,1/2-z
-x,-y,-z
x,-y,1/2+z
1/2+x,1/2+y,z
1/2-x,1/2+y,1/2-z
1/2-x,1/2-y,-z
1/2+x,1/2-y,1/2+z
loop_
_atom_site_type_symbol
_atom_site_label
_atom_site_fract_x
_atom_site_fract_y
_atom_site_fract_z
Si Si1 0.446575 0.390171 0.834016
Si Si2 0.832371 0.386891 0.662242
Si Si3 0.530762 0.698276 0.635074
Si Si4 0.622598 0.872060 0.272621
Si Si5 0.000000 0.616699 0.250000
Si Si6 0.025491 0.254039 0.006625
Si Si7 0.192788 0.584097 0.507224
Si Si8 0.829891 0.916566 0.531905
O O1 0.500000 0.405041 0.750000
O O2 0.520190 0.519284 0.836422
O O3 0.302233 0.450764 0.911501
O O4 0.485517 0.215979 0.836652
O O5 0.820405 0.558972 0.696645
O O6 0.908475 0.342682 0.573629
O O7 0.918996 0.311585 0.669639
O O8 0.710978 0.272824 0.713471
O O9 0.569901 0.764379 0.676391
O O10 0.614670 0.682673 0.544009
O O11 0.602139 0.000010 0.233193
O O12 0.060866 0.379650 0.037654
O O13 0.100145 0.086804 0.986406
O O14 0.882143 0.197066 0.057095
O O15 0.250000 0.750000 0.500000
O O16 0.203709 0.473937 0.555551
#
# Coordination Sequence:
#
# PCOD9269271 Si02
#       8
#     8   8   8   8   4   8   8   8
#     4  11  19  32  57  85 111 154 194 234 300 358
#     4  10  21  35  54  80 117 152 189 240 302 354
#     4   9  18  34  55  81 109 148 183 235 299 356
#     4  11  22  36  52  83 117 149 193 242 293 364
#     4  10  20  34  54  82 114 148 184 238 298 358
#     4   9  16  31  53  78 103 147 192 239 286 351
#     4   9  18  31  52  83 110 144 193 241 291 358
#     4   8  16  30  52  80 103 143 194 233 290 355
#
# _framework density 27.403703
#
# number of rings (size 3 to 8) (size 9 to 14) (size 15 to 20)
#    0.000    2.400    1.333    1.600    0.000    0.000 
#    2.400    0.000    0.000    8.000   24.267    0.000 
#    0.000    0.000    0.000    0.000    0.000    0.000 
#
# Total GULP energy -167048.666604 kJ/mol
# GULP energy per Si atom -5568.288887 kJ/mol
# Density = 2.734133 g / cm^3
# Si number density = 27.403703 Si / 1000 Ang^3
#
#
#
# Elastic Constant Matrix: (Units=GPa)
#
#
# Indices 1 2 3 4 5 6 
#
# 1 137.0647 32.1857 24.9833 0.0000 17.9871 0.0000
# 2 32.1857 66.9002 20.0054 0.0000 9.2774 0.0001
# 3 24.9833 20.0054 62.3795 0.0000 8.5948 0.0000
# 4 0.0000 0.0000 0.0000 45.4803 0.0000 14.7454
# 5 17.9871 9.2774 8.5948 0.0000 36.6289 0.0000
# 6 0.0000 0.0001 0.0000 14.7454 0.0000 74.9046
#
#
#
# Elastic Compliance Matrix: (Units=1/GPa)
#
#
# Indices 1 2 3 4 5 6 
#
# 1 0.008827 -0.003201 -0.002091 0.000000 -0.003033 0.000000
# 2 -0.003201 0.018028 -0.004224 0.000000 -0.002003 0.000000
# 3 -0.002091 -0.004224 0.018533 0.000000 -0.002252 0.000000
# 4 0.000000 0.000000 0.000000 0.023487 0.000000 -0.004623
# 5 -0.003033 -0.002003 -0.002252 0.000000 0.029826 0.000000
# 6 0.000000 0.000000 0.000000 -0.004623 0.000000 0.014260
#
#
# Mechanical properties :
#
#
# Convention : Reuss Voigt Hill
#
# Bulk Modulus (GPa) = 37.93965 46.74371 42.34168
# Shear Modulus (GPa) = 35.51700 44.01409 39.76554
#
# Velocity S-wave (km/s) = 3.60400 4.01201 3.81346
# Velocity P-wave (km/s) = 5.58508 6.20936 5.90548
#
# Compressibility (1/GPa) = 0.02635765
#
# Stress axis : x y z
#
# Youngs Moduli (GPa) = 113.29492 55.46813 53.95724
#
# Poissons Ratio (x) = 0.17753 0.11281
# Poissons Ratio (y) = 0.36262 0.22791
# Poissons Ratio (z) = 0.23687 0.23429
#
# Static dielectric constant tensor:
#      x y z
#    x 2.284840 0.000000 -0.043470 
#    y 0.000000 2.195610 0.000000 
#    z -0.043470 0.000000 2.279360 
# 
# From -- ./inp_files/298162.got.cif
#   From: 2010.05.17/outbox.cif.g08.bks.cpg/sg15_150_cif.got.tgz:298162.got - 2010.06.03 18:47:42.
