data_PCOD9269896
_publ_section_title
;
Structure prediction by ZEFSAII (Michael W. Deem and Ramdas Pophale) SiO2 
 PCOD9269896
Probable space group: C 2/C
;
_chemical_formula_sum "Si O2"
_cell_formula_units_Z 64
_cell_length_a 17.493211
_cell_length_b 5.761856
_cell_length_c 31.703498
_cell_angle_alpha 90.000000
_cell_angle_beta 97.114369
_cell_angle_gamma 90.000000
_cell_volume 3170.899713
_symmetry_space_group_name_H-M "C 2/C"
_symmetry_group_IT_number 15
_symmetry_cell_setting 'monoclinic'
loop_
_space_group_symop_operation_xyz
x,y,z
-x,y,1/2-z
-x,-y,-z
x,-y,1/2+z
1/2+x,1/2+y,z
1/2-x,1/2+y,1/2-z
1/2-x,1/2-y,-z
1/2+x,1/2-y,1/2+z
loop_
_atom_site_type_symbol
_atom_site_label
_atom_site_fract_x
_atom_site_fract_y
_atom_site_fract_z
Si Si1 0.710035 0.742287 0.839246
Si Si2 0.004701 0.386435 0.110453
Si Si3 0.403203 0.616597 0.451477
Si Si4 0.866951 0.075657 0.096372
Si Si5 0.961359 0.232162 0.539468
Si Si6 0.356462 0.906804 0.841141
Si Si7 0.271664 0.379850 0.402854
Si Si8 0.205670 0.218279 0.747522
O O1 0.662382 0.602936 0.870712
O O2 0.792144 0.611743 0.836811
O O3 0.729093 0.986511 0.861858
O O4 0.668536 0.742783 0.791331
O O5 0.064544 0.224662 0.089264
O O6 0.056176 0.509715 0.148925
O O7 0.932864 0.237804 0.120722
O O8 0.972267 0.561462 0.072950
O O9 0.421958 0.783638 0.491994
O O10 0.456006 0.389124 0.463154
O O11 0.315250 0.551217 0.437390
O O12 0.792079 0.224086 0.079244
O O13 0.906595 0.952511 0.059472
O O14 0.336151 0.769296 0.882775
O O15 0.342875 0.757246 0.798233
O O16 0.239643 0.953570 0.748311
#
# Coordination Sequence:
#
# PCOD9269896 Si02
#       8
#     8   8   8   8   8   8   8   8
#     4  10  20  38  60  91 124 155 203 254 312 372
#     4  11  20  39  60  89 121 160 205 251 311 376
#     4  10  21  35  63  88 114 158 209 260 301 363
#     4  10  24  37  59  86 123 168 192 250 321 373
#     4  10  21  39  55  87 124 158 202 254 313 367
#     4  10  20  34  64  95 114 157 204 259 306 369
#     4  11  19  38  60  88 117 154 205 253 305 368
#     4  10  20  36  63 103 128 155 210 272 319 370
#
# _framework density 20.183547000000001
#
# number of rings (size 3 to 8) (size 9 to 14) (size 15 to 20)
#    0.000    1.750    3.750    1.125    0.000    0.500 
#    0.000    2.500    0.000    4.500    0.000    0.000 
#    0.000    0.000    0.000    0.000    0.000    0.000 
#
# Total GULP energy -178482.453953 kJ/mol
# GULP energy per Si atom -5577.576686 kJ/mol
# Density = 2.013761 g / cm^3
# Si number density = 20.183547 Si / 1000 Ang^3
#
#
#
# Elastic Constant Matrix: (Units=GPa)
#
#
# Indices 1 2 3 4 5 6 
#
# 1 61.7660 2.0225 22.1631 0.0000 4.1380 0.0000
# 2 2.0225 39.3863 -13.0569 0.0000 -1.0556 0.0000
# 3 22.1631 -13.0569 55.3098 0.0000 11.2392 0.0000
# 4 0.0000 0.0000 0.0000 20.8273 0.0000 1.8367
# 5 4.1380 -1.0556 11.2392 0.0000 21.8645 0.0000
# 6 0.0000 0.0000 0.0000 1.8367 0.0000 20.6389
#
#
#
# Elastic Compliance Matrix: (Units=1/GPa)
#
#
# Indices 1 2 3 4 5 6 
#
# 1 0.019451 -0.003917 -0.008858 0.000000 0.000683 0.000000
# 2 -0.003917 0.028433 0.008768 0.000000 -0.002393 0.000000
# 3 -0.008858 0.008768 0.025987 0.000000 -0.011259 0.000000
# 4 0.000000 0.000000 0.000000 0.048394 0.000000 -0.004307
# 5 0.000683 -0.002393 -0.011259 0.000000 0.051279 0.000000
# 6 0.000000 0.000000 0.000000 -0.004307 0.000000 0.048836
#
#
# Mechanical properties :
#
#
# Convention : Reuss Voigt Hill
#
# Bulk Modulus (GPa) = 15.18413 19.85771 17.52092
# Shear Modulus (GPa) = 19.81416 22.35503 21.08459
#
# Velocity S-wave (km/s) = 3.13661 3.33165 3.23560
# Velocity P-wave (km/s) = 4.54501 4.96586 4.76009
#
# Compressibility (1/GPa) = 0.06585822
#
# Stress axis : x y z
#
# Youngs Moduli (GPa) = 51.41138 35.17012 38.48089
#
# Poissons Ratio (x) = 0.13776 0.34085
# Poissons Ratio (y) = 0.20137 -0.33740
# Poissons Ratio (z) = 0.45538 -0.30837
#
# Static dielectric constant tensor:
#      x y z
#    x 1.696770 0.000000 0.023260 
#    y 0.000000 1.779530 0.000000 
#    z 0.023260 0.000000 1.720120 
# 
# From -- ./inp_files/315104.got.cif
#   From: 2010.05.17/outbox.cif.g08.bks.cpg/sg15_158_cif.got.tgz:315104.got - 2010.06.03 18:47:42.
