data_PCOD9269475
_publ_section_title
;
Structure prediction by ZEFSAII (Michael W. Deem and Ramdas Pophale) SiO2 
 PCOD9269475
Probable space group: C 2/C
;
_chemical_formula_sum "Si O2"
_cell_formula_units_Z 52
_cell_length_a 18.760411
_cell_length_b 20.337661
_cell_length_c 23.051528
_cell_angle_alpha 90.000000
_cell_angle_beta 161.276252
_cell_angle_gamma 90.000000
_cell_volume 2823.290914
_symmetry_space_group_name_H-M "C 2/C"
_symmetry_group_IT_number 15
_symmetry_cell_setting 'monoclinic'
loop_
_space_group_symop_operation_xyz
x,y,z
-x,y,1/2-z
-x,-y,-z
x,-y,1/2+z
1/2+x,1/2+y,z
1/2-x,1/2+y,1/2-z
1/2-x,1/2-y,-z
1/2+x,1/2-y,1/2+z
loop_
_atom_site_type_symbol
_atom_site_label
_atom_site_fract_x
_atom_site_fract_y
_atom_site_fract_z
Si Si1 0.239123 0.596638 0.030321
Si Si2 0.852475 0.334840 0.438568
Si Si3 0.230121 0.444231 0.036695
Si Si4 0.500000 0.873866 0.750000
Si Si5 0.876354 0.780755 0.042243
Si Si6 0.341171 0.193629 0.433953
Si Si7 0.335670 0.303828 0.517916
O O1 0.500000 0.601459 0.250000
O O2 0.175650 0.521386 0.990373
O O3 0.113191 0.644566 0.977482
O O4 0.223477 0.629027 0.954360
O O5 0.867750 0.404504 0.483541
O O6 0.937471 0.278702 0.547694
O O7 0.592431 0.320066 0.227950
O O8 0.982499 0.322223 0.479462
O O9 0.500000 0.437896 0.250000
O O10 0.126678 0.412570 0.898625
O O11 0.306685 0.828006 0.627789
O O12 0.750000 0.750000 0.000000
O O13 0.313021 0.266883 0.439333
O O14 0.095629 0.180872 0.221296
O O15 0.250000 0.250000 0.500000
#
# Coordination Sequence:
#
# PCOD9269475 Si02
#       7
#     8   8   8   4   8   8   8
#     4   8  18  36  58  79 109 153 201 234 280 356
#     4  12  21  33  57  84 122 148 185 250 297 352
#     4  11  21  38  58  84 115 156 201 237 283 345
#     4  12  22  36  58  84 112 142 206 238 272 336
#     4  12  20  35  55  82 109 152 196 233 285 340
#     4  10  20  34  56  89 114 150 185 240 314 336
#     4   9  17  36  58  81 114 146 200 243 279 351
#
# _framework density 18.418222
#
# number of rings (size 3 to 8) (size 9 to 14) (size 15 to 20)
#    0.000    1.538    4.615    2.308    0.000    0.615 
#    5.538    0.000    0.000    0.923    0.000    0.000 
#    0.000    0.000    0.000    0.000    0.000    0.000 
#
# Total GULP energy -144831.356626 kJ/mol
# GULP energy per Si atom -5570.436793 kJ/mol
# Density = 1.837630 g / cm^3
# Si number density = 18.418222 Si / 1000 Ang^3
#
#
#
# Elastic Constant Matrix: (Units=GPa)
#
#
# Indices 1 2 3 4 5 6 
#
# 1 129.5279 64.0373 30.6981 -0.0102 16.3814 -0.0022
# 2 64.0373 131.2296 22.0487 0.1061 -0.9221 -0.0512
# 3 30.6981 22.0487 75.3253 0.0729 -2.9471 -0.0348
# 4 -0.0102 0.1061 0.0729 19.9861 -0.0142 -5.1665
# 5 16.3814 -0.9221 -2.9471 -0.0142 27.2051 -0.0160
# 6 -0.0022 -0.0512 -0.0348 -5.1665 -0.0160 22.5616
#
#
#
# Elastic Compliance Matrix: (Units=1/GPa)
#
#
# Indices 1 2 3 4 5 6 
#
# 1 0.012303 -0.005432 -0.003737 0.000040 -0.007997 -0.000013
# 2 -0.005432 0.010413 -0.000695 -0.000050 0.003548 0.000013
# 3 -0.003737 -0.000695 0.015154 -0.000047 0.003868 0.000013
# 4 0.000040 -0.000050 -0.000047 0.053184 0.000004 0.012179
# 5 -0.007997 0.003548 0.003868 0.000004 0.042112 0.000044
# 6 -0.000013 0.000013 0.000013 0.012179 0.000044 0.047112
#
#
# Mechanical properties :
#
#
# Convention : Reuss Voigt Hill
#
# Bulk Modulus (GPa) = 55.12383 63.29454 59.20919
# Shear Modulus (GPa) = 24.26569 28.57047 26.41808
#
# Velocity S-wave (km/s) = 3.63365 3.94281 3.79138
# Velocity P-wave (km/s) = 6.89917 7.42748 7.16819
#
# Compressibility (1/GPa) = 0.01814097
#
# Stress axis : x y z
#
# Youngs Moduli (GPa) = 81.28210 96.03668 65.99102
#
# Poissons Ratio (x) = 0.52166 0.24660
# Poissons Ratio (y) = 0.44152 0.04589
# Poissons Ratio (z) = 0.30374 0.06678
#
# Static dielectric constant tensor:
#      x y z
#    x 1.634410 -0.000040 -0.048160 
#    y -0.000040 1.688940 -0.000090 
#    z -0.048160 -0.000090 1.646120 
# 
# From -- ./inp_files/277974.got.cif
#   From: 2010.05.17/outbox.cif.g08.bks.cpg/sg15_139_cif.got.tgz:277974.got - 2010.06.03 18:47:42.
