data_PCOD9269857
_publ_section_title
;
Structure prediction by ZEFSAII (Michael W. Deem and Ramdas Pophale) SiO2 
 PCOD9269857
Probable space group: C 2/C
;
_chemical_formula_sum "Si O2"
_cell_formula_units_Z 52
_cell_length_a 16.786877
_cell_length_b 20.508794
_cell_length_c 10.765532
_cell_angle_alpha 90.000000
_cell_angle_beta 44.443748
_cell_angle_gamma 90.000000
_cell_volume 2595.213018
_symmetry_space_group_name_H-M "C 2/C"
_symmetry_group_IT_number 15
_symmetry_cell_setting 'monoclinic'
loop_
_space_group_symop_operation_xyz
x,y,z
-x,y,1/2-z
-x,-y,-z
x,-y,1/2+z
1/2+x,1/2+y,z
1/2-x,1/2+y,1/2-z
1/2-x,1/2-y,-z
1/2+x,1/2-y,1/2+z
loop_
_atom_site_type_symbol
_atom_site_label
_atom_site_fract_x
_atom_site_fract_y
_atom_site_fract_z
Si Si1 0.885914 0.885010 0.455731
Si Si2 0.984460 0.330238 0.906691
Si Si3 0.000000 0.887536 0.750000
Si Si4 0.004288 0.201459 0.008691
Si Si5 0.565484 0.025550 0.305909
Si Si6 0.773237 0.871339 0.330660
Si Si7 0.186712 0.978144 0.409466
O O1 0.911361 0.823710 0.512799
O O2 0.790607 0.874595 0.458463
O O3 0.000000 0.896635 0.250000
O O4 0.865869 0.950688 0.554320
O O5 0.000000 0.300829 0.750000
O O6 0.059290 0.395840 0.826617
O O7 0.008738 0.278857 0.988226
O O8 0.853041 0.350745 0.062517
O O9 0.973673 0.837636 0.666997
O O10 0.103293 0.934254 0.588433
O O11 0.128879 0.176042 0.829585
O O12 0.500000 0.010845 0.250000
O O13 0.500000 0.000000 0.500000
O O14 0.690077 0.993165 0.168052
O O15 0.797168 0.940048 0.237265
#
# Coordination Sequence:
#
# PCOD9269857 Si02
#       7
#     8   8   4   8   8   8   8
#     4  10  20  34  62  96 121 163 212 263 333 385
#     4  11  22  42  65  92 131 173 222 270 330 398
#     4  10  24  44  66  98 136 170 214 288 326 402
#     4  10  24  41  63  95 130 172 218 263 335 400
#     4  11  24  42  66 100 134 181 227 279 337 399
#     4  10  22  39  61  93 129 163 215 281 313 387
#     4  11  22  39  66  94 138 167 218 280 333 391
#
# _framework density 20.036891000000001
#
# number of rings (size 3 to 8) (size 9 to 14) (size 15 to 20)
#    0.000    1.538    2.308    3.231    2.154    5.538 
#    1.385    3.077    0.000    0.000    0.000    0.000 
#    0.000    0.000    0.000    0.000    0.000    0.000 
#
# Total GULP energy -145146.000658 kJ/mol
# GULP energy per Si atom -5582.538487 kJ/mol
# Density = 1.999129 g / cm^3
# Si number density = 20.036891 Si / 1000 Ang^3
#
#
#
# Elastic Constant Matrix: (Units=GPa)
#
#
# Indices 1 2 3 4 5 6 
#
# 1 84.3459 45.1955 37.2321 0.0000 -1.7796 0.0001
# 2 45.1955 76.4755 26.2983 0.0000 1.2056 0.0000
# 3 37.2321 26.2983 83.4454 0.0000 0.3701 0.0001
# 4 0.0000 0.0000 0.0000 8.3672 0.0000 27.2187
# 5 -1.7796 1.2056 0.3701 0.0000 26.5494 -0.0001
# 6 0.0001 0.0000 0.0001 27.2187 -0.0001 -17.1182
#
#
#
# Elastic Compliance Matrix: (Units=1/GPa)
#
#
# Indices 1 2 3 4 5 6 
#
# 1 0.019577 -0.009636 -0.005706 0.000000 0.001829 0.000000
# 2 -0.009636 0.019418 -0.001814 0.000000 -0.001502 0.000000
# 3 -0.005706 -0.001814 0.015104 0.000000 -0.000511 0.000000
# 4 0.000000 0.000000 0.000000 0.019362 0.000000 0.030787
# 5 0.001829 -0.001502 -0.000511 0.000000 0.037864 0.000000
# 6 0.000000 0.000000 0.000000 0.030787 0.000000 -0.009464
#
#
# Mechanical properties :
#
#
# Convention : Reuss Voigt Hill
#
# Bulk Modulus (GPa) = 50.53820 51.30206 50.92013
# Shear Modulus (GPa) = 35.02199 12.59575 23.80887
#
# Velocity S-wave (km/s) = 4.18530 2.50997 3.45084
# Velocity P-wave (km/s) = 6.97373 5.83603 6.43009
#
# Compressibility (1/GPa) = 0.01978701
#
# Stress axis : x y z
#
# Youngs Moduli (GPa) = 51.08131 51.49821 66.20905
#
# Poissons Ratio (x) = 0.49624 0.37779
# Poissons Ratio (y) = 0.49222 0.12008
# Poissons Ratio (z) = 0.29147 0.09340
#
# Static dielectric constant tensor:
#      x y z
#    x 1.724590 0.000000 -0.002190 
#    y 0.000000 1.717140 0.000000 
#    z -0.002190 0.000000 1.718570 
# 
# From -- ./inp_files/107462.got.cif
#   From: 2010.05.17/outbox.cif.g08.bks.cpg/sg15_54_cif.got.tgz:107462.got - 2010.06.03 18:47:42.
