data_PCOD9269431
_publ_section_title
;
Structure prediction by ZEFSAII (Michael W. Deem and Ramdas Pophale) SiO2 
 PCOD9269431
Probable space group: C 2/C
;
_chemical_formula_sum "Si O2"
_cell_formula_units_Z 56
_cell_length_a 12.249924
_cell_length_b 17.967718
_cell_length_c 14.824109
_cell_angle_alpha 90.000000
_cell_angle_beta 116.030302
_cell_angle_gamma 90.000000
_cell_volume 2931.858482
_symmetry_space_group_name_H-M "C 2/C"
_symmetry_group_IT_number 15
_symmetry_cell_setting 'monoclinic'
loop_
_space_group_symop_operation_xyz
x,y,z
-x,y,1/2-z
-x,-y,-z
x,-y,1/2+z
1/2+x,1/2+y,z
1/2-x,1/2+y,1/2-z
1/2-x,1/2-y,-z
1/2+x,1/2-y,1/2+z
loop_
_atom_site_type_symbol
_atom_site_label
_atom_site_fract_x
_atom_site_fract_y
_atom_site_fract_z
Si Si1 0.210508 0.581179 0.674644
Si Si2 0.949454 0.442642 0.135079
Si Si3 0.925488 0.076611 0.056293
Si Si4 0.229448 0.159885 0.627447
Si Si5 0.234288 0.445575 0.983794
Si Si6 0.639414 0.691037 0.311871
Si Si7 0.795513 0.928054 0.805886
O O1 0.267948 0.638018 0.766837
O O2 0.248261 0.594061 0.585027
O O3 0.242056 0.497751 0.727466
O O4 0.065420 0.592146 0.629524
O O5 0.839217 0.387374 0.120472
O O6 0.890419 0.507654 0.055670
O O7 0.000000 0.470409 0.250000
O O8 0.878935 0.126095 0.122430
O O9 0.063410 0.054427 0.122086
O O10 0.894621 0.129626 0.960518
O O11 0.844361 0.004005 0.020888
O O12 0.268313 0.244495 0.626995
O O13 0.233974 0.414646 0.881289
O O14 0.500000 0.721545 0.250000
O O15 0.694375 0.648264 0.246056
#
# Coordination Sequence:
#
# PCOD9269431 Si02
#       7
#     8   8   8   8   8   8   8
#     4  11  20  33  55  83 109 146 184 227 280 327
#     4   9  17  33  54  78 109 136 182 232 276 311
#     4  10  20  34  56  84 111 144 185 232 282 321
#     4  10  20  36  57  82 112 143 188 235 274 325
#     4  11  20  33  54  82 112 143 180 229 277 332
#     4  10  20  35  57  81 112 145 186 233 280 324
#     4  11  21  35  54  83 118 145 182 230 276 337
#
# _framework density 19.100512999999999
#
# number of rings (size 3 to 8) (size 9 to 14) (size 15 to 20)
#    0.000    1.714    5.714    2.571    0.000    0.000 
#    0.000    0.714    0.000    0.000    3.714    0.000 
#    0.000    0.000    0.000    0.000    0.000    0.000 
#
# Total GULP energy -155961.207540 kJ/mol
# GULP energy per Si atom -5570.043126 kJ/mol
# Density = 1.905704 g / cm^3
# Si number density = 19.100513 Si / 1000 Ang^3
#
#
#
# Elastic Constant Matrix: (Units=GPa)
#
#
# Indices 1 2 3 4 5 6 
#
# 1 19.7092 8.1467 16.9784 0.0000 -11.6496 0.0000
# 2 8.1467 14.9661 -4.8795 0.0000 -5.0504 0.0000
# 3 16.9784 -4.8795 61.0780 0.0000 -24.7115 0.0000
# 4 0.0000 0.0000 0.0000 11.8871 0.0000 -0.2262
# 5 -11.6496 -5.0504 -24.7115 0.0000 42.7058 0.0000
# 6 0.0000 0.0000 0.0000 -0.2262 0.0000 10.4815
#
#
#
# Elastic Compliance Matrix: (Units=1/GPa)
#
#
# Indices 1 2 3 4 5 6 
#
# 1 0.113731 -0.073773 -0.037194 0.000000 0.000778 0.000000
# 2 -0.073773 0.124379 0.036889 0.000000 0.015931 0.000000
# 3 -0.037194 0.036889 0.035669 0.000000 0.014857 0.000000
# 4 0.000000 0.000000 0.000000 0.084160 0.000000 0.001816
# 5 0.000778 0.015931 0.014857 0.000000 0.034109 0.000000
# 6 0.000000 0.000000 0.000000 0.001816 0.000000 0.095445
#
#
# Mechanical properties :
#
#
# Convention : Reuss Voigt Hill
#
# Bulk Modulus (GPa) = 7.96023 15.13828 11.54926
# Shear Modulus (GPa) = 7.37981 18.04871 12.71426
#
# Velocity S-wave (km/s) = 1.96775 3.07731 2.58282
# Velocity P-wave (km/s) = 3.05603 4.53533 3.86708
#
# Compressibility (1/GPa) = 0.12562446
#
# Stress axis : x y z
#
# Youngs Moduli (GPa) = 8.79264 8.03994 28.03521
#
# Poissons Ratio (x) = 0.59313 1.04274
# Poissons Ratio (y) = 0.64866 -1.03420
# Poissons Ratio (z) = 0.32703 -0.29659
#
# Static dielectric constant tensor:
#      x y z
#    x 1.682860 0.000000 -0.009650 
#    y 0.000000 1.648350 0.000000 
#    z -0.009650 0.000000 1.753620 
# 
# From -- ./inp_files/145741.got.cif
#   From: 2010.05.17/outbox.cif.g08.bks.cpg/sg15_73_cif.got.tgz:145741.got - 2010.06.03 18:47:42.
