data_PCOD9269333
_publ_section_title
;
Structure prediction by ZEFSAII (Michael W. Deem and Ramdas Pophale) SiO2 
 PCOD9269333
Probable space group: C 2/C
;
_chemical_formula_sum "Si O2"
_cell_formula_units_Z 40
_cell_length_a 5.287015
_cell_length_b 18.823644
_cell_length_c 21.662809
_cell_angle_alpha 90.000000
_cell_angle_beta 63.720132
_cell_angle_gamma 90.000000
_cell_volume 1933.072397
_symmetry_space_group_name_H-M "C 2/C"
_symmetry_group_IT_number 15
_symmetry_cell_setting 'monoclinic'
loop_
_space_group_symop_operation_xyz
x,y,z
-x,y,1/2-z
-x,-y,-z
x,-y,1/2+z
1/2+x,1/2+y,z
1/2-x,1/2+y,1/2-z
1/2-x,1/2-y,-z
1/2+x,1/2-y,1/2+z
loop_
_atom_site_type_symbol
_atom_site_label
_atom_site_fract_x
_atom_site_fract_y
_atom_site_fract_z
Si Si1 0.000000 0.191909 0.250000
Si Si2 0.831684 0.195130 0.396940
Si Si3 0.060060 0.310277 0.449168
Si Si4 0.972932 0.898220 0.046097
Si Si5 0.500000 0.902262 0.750000
Si Si6 0.126733 0.056114 0.398109
O O1 0.846305 0.225181 0.326242
O O2 0.754568 0.145906 0.245837
O O3 0.071567 0.239095 0.407793
O O4 0.564255 0.208442 0.469607
O O5 0.896109 0.110551 0.393414
O O6 0.823169 0.362710 0.443590
O O7 0.352556 0.348742 0.427259
O O8 0.155427 0.911384 0.963792
O O9 0.948317 0.974844 0.080737
O O10 0.614906 0.942872 0.677501
#
# Coordination Sequence:
#
# PCOD9269333 Si02
#       6
#     4   8   8   8   4   8
#     4  10  20  34  55  82 109 140 184 230 272 320
#     4   9  20  36  58  82 109 145 186 227 271 325
#     4  10  21  36  56  83 113 143 181 228 276 323
#     4  10  21  36  56  83 113 143 181 228 276 323
#     4  10  20  34  55  82 109 140 184 230 272 320
#     4   9  20  36  58  82 109 145 186 227 271 325
#
# _framework density 20.692447000000001
#
# number of rings (size 3 to 8) (size 9 to 14) (size 15 to 20)
#    0.000    2.400    0.000    1.200    0.000   20.800 
#    0.000    1.000    0.000    2.400    0.000    0.000 
#    0.000    0.000    0.000    0.000    0.000    0.000 
#
# Total GULP energy -111442.447093 kJ/mol
# GULP energy per Si atom -5572.122355 kJ/mol
# Density = 2.064535 g / cm^3
# Si number density = 20.692447 Si / 1000 Ang^3
#
#
#
# Elastic Constant Matrix: (Units=GPa)
#
#
# Indices 1 2 3 4 5 6 
#
# 1 96.0709 32.7107 13.9115 0.0000 11.2380 0.0000
# 2 32.7107 95.6871 13.4807 0.0000 9.3878 0.0000
# 3 13.9115 13.4807 118.3966 0.0000 2.2539 0.0000
# 4 0.0000 0.0000 0.0000 21.8153 0.0000 -0.5467
# 5 11.2380 9.3878 2.2539 0.0000 15.6214 0.0000
# 6 0.0000 0.0000 0.0000 -0.5467 0.0000 21.2120
#
#
#
# Elastic Compliance Matrix: (Units=1/GPa)
#
#
# Indices 1 2 3 4 5 6 
#
# 1 0.012525 -0.003483 -0.000946 0.000000 -0.006781 0.000000
# 2 -0.003483 0.012230 -0.000893 0.000000 -0.004715 0.000000
# 3 -0.000946 -0.000893 0.008660 0.000000 -0.000032 0.000000
# 4 0.000000 0.000000 0.000000 0.045869 0.000000 0.001182
# 5 -0.006781 -0.004715 -0.000032 0.000000 0.071731 0.000000
# 6 0.000000 0.000000 0.000000 0.001182 0.000000 0.047174
#
#
# Mechanical properties :
#
#
# Convention : Reuss Voigt Hill
#
# Bulk Modulus (GPa) = 43.91862 47.81782 45.86822
# Shear Modulus (GPa) = 23.10286 28.39986 25.75136
#
# Velocity S-wave (km/s) = 3.34501 3.70871 3.53155
# Velocity P-wave (km/s) = 6.01576 6.44192 6.23249
#
# Compressibility (1/GPa) = 0.02276939
#
# Stress axis : x y z
#
# Youngs Moduli (GPa) = 79.83949 81.76670 115.47768
#
# Poissons Ratio (x) = 0.28481 0.10924
# Poissons Ratio (y) = 0.27810 0.10318
# Poissons Ratio (z) = 0.07553 0.07306
#
# Static dielectric constant tensor:
#      x y z
#    x 1.782290 0.000000 -0.006680 
#    y 0.000000 1.752650 0.000000 
#    z -0.006680 0.000000 1.810330 
# 
# From -- ./inp_files/226741.got.cif
#   From: 2010.05.17/outbox.cif.g08.bks.cpg/sg15_114_cif.got.tgz:226741.got - 2010.06.03 18:47:42.
