data_PCOD9269483
_publ_section_title
;
Structure prediction by ZEFSAII (Michael W. Deem and Ramdas Pophale) SiO2 
 PCOD9269483
Probable space group: C 2/C
;
_chemical_formula_sum "Si O2"
_cell_formula_units_Z 48
_cell_length_a 5.440873
_cell_length_b 23.412067
_cell_length_c 14.635597
_cell_angle_alpha 90.000000
_cell_angle_beta 90.826651
_cell_angle_gamma 90.000000
_cell_volume 1864.118800
_symmetry_space_group_name_H-M "C 2/C"
_symmetry_group_IT_number 15
_symmetry_cell_setting 'monoclinic'
loop_
_space_group_symop_operation_xyz
x,y,z
-x,y,1/2-z
-x,-y,-z
x,-y,1/2+z
1/2+x,1/2+y,z
1/2-x,1/2+y,1/2-z
1/2-x,1/2-y,-z
1/2+x,1/2-y,1/2+z
loop_
_atom_site_type_symbol
_atom_site_label
_atom_site_fract_x
_atom_site_fract_y
_atom_site_fract_z
Si Si1 0.301937 0.771466 0.895845
Si Si2 0.482892 0.346666 0.391365
Si Si3 0.687121 0.943337 0.458807
Si Si4 0.312968 0.662317 0.400905
Si Si5 0.005836 0.043441 0.365370
Si Si6 0.698271 0.053182 0.674663
O O1 0.399853 0.713278 0.850884
O O2 0.537275 0.813469 0.889849
O O3 0.041437 0.798869 0.865313
O O4 0.250000 0.750000 0.000000
O O5 0.238909 0.382083 0.414024
O O6 0.631123 0.340129 0.488814
O O7 0.636339 0.391254 0.332806
O O8 0.793802 0.935376 0.558816
O O9 0.410328 0.955735 0.428664
O O10 0.846586 0.992211 0.409295
O O11 0.344629 0.600190 0.353556
O O12 0.184282 0.007966 0.299334
O O13 0.500000 0.063566 0.750000
#
# Coordination Sequence:
#
# PCOD9269483 Si02
#       6
#     8   8   8   8   8   8
#     4  10  20  34  56  91 123 152 193 244 302 356
#     4   9  20  33  53  85 116 153 195 241 301 353
#     4   9  19  35  59  80 117 151 198 254 303 359
#     4  10  21  33  60  90 121 156 192 251 306 347
#     4   9  20  36  55  91 112 157 199 252 306 360
#     4  11  23  36  59  85 119 163 198 251 311 369
#
# _framework density 25.749431000000001
#
# number of rings (size 3 to 8) (size 9 to 14) (size 15 to 20)
#    0.000    2.333    0.000    3.500   11.667    2.667 
#    0.000    0.000    0.000    2.000    0.000    0.000 
#    0.000    0.000    0.000    0.000    0.000    0.000 
#
# Total GULP energy -134046.167661 kJ/mol
# GULP energy per Si atom -5585.256986 kJ/mol
# Density = 2.569082 g / cm^3
# Si number density = 25.749431 Si / 1000 Ang^3
#
#
#
# Elastic Constant Matrix: (Units=GPa)
#
#
# Indices 1 2 3 4 5 6 
#
# 1 123.0152 49.0042 16.5993 0.0000 -16.9111 0.0000
# 2 49.0042 186.2232 23.3537 0.0000 -42.4642 0.0000
# 3 16.5993 23.3537 55.2279 0.0000 -16.5858 0.0000
# 4 0.0000 0.0000 0.0000 0.9136 0.0000 -9.5000
# 5 -16.9111 -42.4642 -16.5858 0.0000 44.7938 0.0000
# 6 0.0000 0.0000 0.0000 -9.5000 0.0000 42.8074
#
#
#
# Elastic Compliance Matrix: (Units=1/GPa)
#
#
# Indices 1 2 3 4 5 6 
#
# 1 0.009289 -0.002012 -0.001643 0.000000 0.000991 0.000000
# 2 -0.002012 0.007343 -0.000718 0.000000 0.005936 0.000000
# 3 -0.001643 -0.000718 0.020830 0.000000 0.006412 0.000000
# 4 0.000000 0.000000 0.000000 -0.837021 0.000000 -0.185755
# 5 0.000991 0.005936 0.006412 0.000000 0.030700 0.000000
# 6 0.000000 0.000000 0.000000 -0.185755 0.000000 -0.017863
#
#
# Mechanical properties :
#
#
# Convention : Reuss Voigt Hill
#
# Bulk Modulus (GPa) = 34.82547 60.26453 47.54500
# Shear Modulus (GPa) = -6.50698 36.07021 14.78162
#
# Velocity S-wave (km/s) = -1.59139 3.74681 2.39855
# Velocity P-wave (km/s) = 3.19021 6.49408 5.11618
#
# Compressibility (1/GPa) = 0.02871462
#
# Stress axis : x y z
#
# Youngs Moduli (GPa) = 107.65848 136.18560 48.00823
#
# Poissons Ratio (x) = 0.27405 0.07890
# Poissons Ratio (y) = 0.21664 0.03445
# Poissons Ratio (z) = 0.17692 0.09774
#
# Static dielectric constant tensor:
#      x y z
#    x 1.819780 0.000000 -0.114610 
#    y 0.000000 2.035850 0.000000 
#    z -0.114610 0.000000 2.104100 
# 
# From -- ./inp_files/185465.got.cif
#   From: 2010.05.17/outbox.cif.g08.bks.cpg/sg15_93_cif.got.tgz:185465.got - 2010.06.03 18:47:42.
