data_PCOD9269710
_publ_section_title
;
Structure prediction by ZEFSAII (Michael W. Deem and Ramdas Pophale) SiO2 
 PCOD9269710
Probable space group: C 2/C
;
_chemical_formula_sum "Si O2"
_cell_formula_units_Z 56
_cell_length_a 21.521218
_cell_length_b 5.437380
_cell_length_c 22.630025
_cell_angle_alpha 90.000000
_cell_angle_beta 87.794742
_cell_angle_gamma 90.000000
_cell_volume 2646.182565
_symmetry_space_group_name_H-M "C 2/C"
_symmetry_group_IT_number 15
_symmetry_cell_setting 'monoclinic'
loop_
_space_group_symop_operation_xyz
x,y,z
-x,y,1/2-z
-x,-y,-z
x,-y,1/2+z
1/2+x,1/2+y,z
1/2-x,1/2+y,1/2-z
1/2-x,1/2-y,-z
1/2+x,1/2-y,1/2+z
loop_
_atom_site_type_symbol
_atom_site_label
_atom_site_fract_x
_atom_site_fract_y
_atom_site_fract_z
Si Si1 0.576267 0.878110 0.341908
Si Si2 0.326214 0.692651 0.066327
Si Si3 0.260044 0.962753 0.846315
Si Si4 0.712950 0.555754 0.042225
Si Si5 0.138880 0.077892 0.650499
Si Si6 0.003008 0.870605 0.321240
Si Si7 0.175982 0.762220 0.752653
O O1 0.618328 0.812161 0.398255
O O2 0.535274 0.632723 0.333546
O O3 0.618711 0.891708 0.280716
O O4 0.539580 0.134501 0.346162
O O5 0.291791 0.471266 0.103836
O O6 0.269034 0.882453 0.062282
O O7 0.334181 0.589300 0.000306
O O8 0.322741 0.826631 0.862918
O O9 0.219129 0.780377 0.807865
O O10 0.279191 0.160253 0.798568
O O11 0.670596 0.610714 0.101597
O O12 0.750000 0.750000 0.000000
O O13 0.065837 0.115435 0.648559
O O14 0.149398 0.997430 0.718646
O O15 0.000000 0.839997 0.250000
#
# Coordination Sequence:
#
# PCOD9269710 Si02
#       7
#     8   8   8   8   8   8   8
#     4  11  26  42  68  92 137 178 226 269 332 398
#     4   9  22  41  63  97 124 173 219 277 341 397
#     4  10  20  34  59  91 126 157 212 272 345 402
#     4  10  21  42  69  95 130 168 221 285 344 395
#     4  11  23  38  61  93 126 173 221 270 338 396
#     4  12  25  45  63  98 135 184 222 271 327 400
#     4  11  20  35  59  94 126 167 207 281 336 411
#
# _framework density 21.162559000000002
#
# number of rings (size 3 to 8) (size 9 to 14) (size 15 to 20)
#    0.000    1.429    2.857    2.143    4.000    0.000 
#    0.000    1.429    0.000    0.000    0.000    0.000 
#    0.000    0.000    0.000    0.000    0.000    0.000 
#
# Total GULP energy -155900.479094 kJ/mol
# GULP energy per Si atom -5567.874253 kJ/mol
# Density = 2.111439 g / cm^3
# Si number density = 21.162559 Si / 1000 Ang^3
#
#
#
# Elastic Constant Matrix: (Units=GPa)
#
#
# Indices 1 2 3 4 5 6 
#
# 1 95.3452 15.0449 27.7743 0.0000 -2.2094 0.0000
# 2 15.0449 45.9925 -0.8822 0.0000 -0.0249 0.0000
# 3 27.7743 -0.8822 96.3348 0.0000 0.4991 0.0000
# 4 0.0000 0.0000 0.0000 21.8462 0.0000 -7.2495
# 5 -2.2094 -0.0249 0.4991 0.0000 29.2757 0.0000
# 6 0.0000 0.0000 0.0000 -7.2495 0.0000 24.3596
#
#
#
# Elastic Compliance Matrix: (Units=1/GPa)
#
#
# Indices 1 2 3 4 5 6 
#
# 1 0.012186 -0.004054 -0.003556 0.000000 0.000977 0.000000
# 2 -0.004054 0.023095 0.001382 0.000000 -0.000310 0.000000
# 3 -0.003556 0.001382 0.011421 0.000000 -0.000462 0.000000
# 4 0.000000 0.000000 0.000000 0.050791 0.000000 0.015115
# 5 0.000977 -0.000310 -0.000462 0.000000 0.034239 0.000000
# 6 0.000000 0.000000 0.000000 0.015115 0.000000 0.045550
#
#
# Mechanical properties :
#
#
# Convention : Reuss Voigt Hill
#
# Bulk Modulus (GPa) = 29.19993 35.72739 32.46366
# Shear Modulus (GPa) = 24.85672 28.14534 26.50103
#
# Velocity S-wave (km/s) = 3.43091 3.65082 3.54257
# Velocity P-wave (km/s) = 5.43348 5.88985 5.66626
#
# Compressibility (1/GPa) = 0.03424666
#
# Stress axis : x y z
#
# Youngs Moduli (GPa) = 82.05933 43.29911 87.56077
#
# Poissons Ratio (x) = 0.17554 0.31133
# Poissons Ratio (y) = 0.33267 -0.12100
# Poissons Ratio (z) = 0.29177 -0.05984
#
# Static dielectric constant tensor:
#      x y z
#    x 1.782780 0.000000 0.007160 
#    y 0.000000 1.890550 0.000000 
#    z 0.007160 0.000000 1.921860 
# 
# From -- ./inp_files/254012.got.cif
#   From: 2010.05.17/outbox.cif.g08.bks.cpg/sg15_128_cif.got.tgz:254012.got - 2010.06.03 18:47:42.
