data_PCOD9269867
_publ_section_title
;
Structure prediction by ZEFSAII (Michael W. Deem and Ramdas Pophale) SiO2 
 PCOD9269867
Probable space group: C 2/C
;
_chemical_formula_sum "Si O2"
_cell_formula_units_Z 52
_cell_length_a 22.362576
_cell_length_b 10.013114
_cell_length_c 14.841514
_cell_angle_alpha 90.000000
_cell_angle_beta 43.404512
_cell_angle_gamma 90.000000
_cell_volume 2283.586221
_symmetry_space_group_name_H-M "C 2/C"
_symmetry_group_IT_number 15
_symmetry_cell_setting 'monoclinic'
loop_
_space_group_symop_operation_xyz
x,y,z
-x,y,1/2-z
-x,-y,-z
x,-y,1/2+z
1/2+x,1/2+y,z
1/2-x,1/2+y,1/2-z
1/2-x,1/2-y,-z
1/2+x,1/2-y,1/2+z
loop_
_atom_site_type_symbol
_atom_site_label
_atom_site_fract_x
_atom_site_fract_y
_atom_site_fract_z
Si Si1 0.380988 0.103102 0.569590
Si Si2 0.805824 0.200187 0.296246
Si Si3 0.878410 0.271585 0.410953
Si Si4 0.421172 0.548357 0.651779
Si Si5 0.408493 0.854364 0.653421
Si Si6 0.500000 0.458664 0.750000
Si Si7 0.403996 0.076350 0.355443
O O1 0.331988 0.202653 0.688092
O O2 0.485836 0.128417 0.460652
O O3 0.352659 0.128822 0.497796
O O4 0.371574 0.953400 0.618443
O O5 0.859063 0.241682 0.327438
O O6 0.708271 0.220701 0.436079
O O7 0.840227 0.053209 0.234092
O O8 0.915114 0.420834 0.369890
O O9 0.937963 0.146512 0.371558
O O10 0.500000 0.500000 0.500000
O O11 0.393953 0.698153 0.657316
O O12 0.453495 0.541787 0.721556
O O13 0.370853 0.903275 0.791213
O O14 0.500000 0.139162 0.250000
#
# Coordination Sequence:
#
# PCOD9269867 Si02
#       7
#     8   8   8   8   8   4   8
#     4  10  20  35  60  87 120 166 202 248 300 366
#     4  10  21  40  61  89 122 162 203 259 310 356
#     4  10  20  40  64  86 119 160 214 254 300 373
#     4  11  23  38  62  93 128 160 198 254 311 367
#     4  10  21  36  60  90 125 158 206 248 301 367
#     4  10  24  38  64  88 120 166 208 244 312 362
#     4  10  20  34  63  89 117 155 211 252 293 357
#
# _framework density 22.771201000000001
#
# number of rings (size 3 to 8) (size 9 to 14) (size 15 to 20)
#    0.000    1.846    3.846    0.000    5.385    0.000 
#    2.769    0.769    3.385    0.000    0.000    0.000 
#    0.000    0.000    0.000    0.000    0.000    0.000 
#
# Total GULP energy -145262.337915 kJ/mol
# GULP energy per Si atom -5587.012997 kJ/mol
# Density = 2.271937 g / cm^3
# Si number density = 22.771201 Si / 1000 Ang^3
#
#
#
# Elastic Constant Matrix: (Units=GPa)
#
#
# Indices 1 2 3 4 5 6 
#
# 1 25.2468 -4.9135 23.4927 0.0000 16.3859 0.0000
# 2 -4.9135 114.6995 44.9804 -0.0001 18.7589 0.0000
# 3 23.4927 44.9804 159.0582 0.0000 27.5684 0.0000
# 4 0.0000 -0.0001 0.0000 24.7594 0.0000 3.4265
# 5 16.3859 18.7589 27.5684 0.0000 31.1233 0.0000
# 6 0.0000 0.0000 0.0000 3.4265 0.0000 10.9293
#
#
#
# Elastic Compliance Matrix: (Units=1/GPa)
#
#
# Indices 1 2 3 4 5 6 
#
# 1 0.075960 0.013007 -0.007806 0.000000 -0.040917 0.000000
# 2 0.013007 0.012492 -0.003499 0.000000 -0.011278 0.000000
# 3 -0.007806 -0.003499 0.008685 0.000000 -0.001474 0.000000
# 4 0.000000 0.000000 0.000000 0.042221 0.000000 -0.013237
# 5 -0.040917 -0.011278 -0.001474 0.000000 0.061776 0.000000
# 6 0.000000 0.000000 0.000000 -0.013237 0.000000 0.095647
#
#
# Mechanical properties :
#
#
# Convention : Reuss Voigt Hill
#
# Bulk Modulus (GPa) = 9.94608 47.34709 28.64659
# Shear Modulus (GPa) = 15.29561 29.05871 22.17716
#
# Velocity S-wave (km/s) = 2.59455 3.57615 3.12414
# Velocity P-wave (km/s) = 3.65416 6.15544 5.06174
#
# Compressibility (1/GPa) = 0.10054207
#
# Stress axis : x y z
#
# Youngs Moduli (GPa) = 13.16479 80.04900 115.14146
#
# Poissons Ratio (x) = -1.04120 0.89875
# Poissons Ratio (y) = -0.17123 0.40289
# Poissons Ratio (z) = 0.10276 0.28010
#
# Static dielectric constant tensor:
#      x y z
#    x 1.873680 0.000000 -0.006640 
#    y 0.000000 1.847000 0.000000 
#    z -0.006640 0.000000 1.846210 
# 
# From -- ./inp_files/181063.got.cif
#   From: 2010.05.17/outbox.cif.g08.bks.cpg/sg15_91_cif.got.tgz:181063.got - 2010.06.03 18:47:42.
