data_PCOD9269712
_publ_section_title
;
Structure prediction by ZEFSAII (Michael W. Deem and Ramdas Pophale) SiO2 
 PCOD9269712
Probable space group: C 2/C
;
_chemical_formula_sum "Si O2"
_cell_formula_units_Z 48
_cell_length_a 29.484022
_cell_length_b 14.244200
_cell_length_c 9.600425
_cell_angle_alpha 90.000000
_cell_angle_beta 34.296976
_cell_angle_gamma 90.000000
_cell_volume 2271.933635
_symmetry_space_group_name_H-M "C 2/C"
_symmetry_group_IT_number 15
_symmetry_cell_setting 'monoclinic'
loop_
_space_group_symop_operation_xyz
x,y,z
-x,y,1/2-z
-x,-y,-z
x,-y,1/2+z
1/2+x,1/2+y,z
1/2-x,1/2+y,1/2-z
1/2-x,1/2-y,-z
1/2+x,1/2-y,1/2+z
loop_
_atom_site_type_symbol
_atom_site_label
_atom_site_fract_x
_atom_site_fract_y
_atom_site_fract_z
Si Si1 0.665727 0.721364 0.787504
Si Si2 0.815291 0.407772 0.301471
Si Si3 0.358264 0.608280 0.376159
Si Si4 0.869900 0.898527 0.374500
Si Si5 0.583014 0.732436 0.498541
Si Si6 0.825159 0.412256 0.600487
O O1 0.750000 0.750000 0.500000
O O2 0.615404 0.666657 0.797675
O O3 0.636602 0.819822 0.926447
O O4 0.673750 0.649203 0.896206
O O5 0.718949 0.405330 0.528594
O O6 0.841018 0.418531 0.396200
O O7 0.846379 0.493734 0.129781
O O8 0.846669 0.307926 0.169274
O O9 0.396810 0.506093 0.293307
O O10 0.413974 0.684589 0.160129
O O11 0.905613 0.849420 0.418435
O O12 0.772409 0.902898 0.639423
O O13 0.500000 0.781188 0.750000
#
# Coordination Sequence:
#
# PCOD9269712 Si02
#       6
#     8   8   8   8   8   8
#     4  10  20  34  59  93 123 150 198 258 315 359
#     4  11  22  38  64  94 121 158 207 260 312 356
#     4  11  21  40  65  91 124 157 206 261 311 362
#     4  10  22  36  61  94 120 158 202 259 309 364
#     4  12  25  42  61  88 129 172 205 244 306 374
#     4  10  21  35  64  93 118 155 203 265 309 352
#
# _framework density 21.127376999999999
#
# number of rings (size 3 to 8) (size 9 to 14) (size 15 to 20)
#    0.000    1.333    3.333    3.500   14.000    0.667 
#    0.000    1.667    0.000    0.000    0.000    0.000 
#    0.000    0.000    0.000    0.000    0.000    0.000 
#
# Total GULP energy -134054.351517 kJ/mol
# GULP energy per Si atom -5585.597980 kJ/mol
# Density = 2.107929 g / cm^3
# Si number density = 21.127377 Si / 1000 Ang^3
#
#
#
# Elastic Constant Matrix: (Units=GPa)
#
#
# Indices 1 2 3 4 5 6 
#
# 1 55.0675 19.7538 30.6592 0.0000 35.5638 0.0000
# 2 19.7538 97.8013 17.4228 0.0000 13.3697 0.0000
# 3 30.6592 17.4228 47.3971 0.0000 21.9387 0.0000
# 4 0.0000 0.0000 0.0000 5.1618 0.0000 18.5813
# 5 35.5638 13.3697 21.9387 0.0000 29.9024 0.0000
# 6 0.0000 0.0000 0.0000 18.5813 0.0000 34.7677
#
#
#
# Elastic Compliance Matrix: (Units=1/GPa)
#
#
# Indices 1 2 3 4 5 6 
#
# 1 0.083191 -0.002535 -0.011521 0.000000 -0.089355 0.000000
# 2 -0.002535 0.011192 -0.002352 0.000000 -0.000263 0.000000
# 3 -0.011521 -0.002352 0.034201 0.000000 -0.010338 0.000000
# 4 0.000000 0.000000 0.000000 -0.209695 0.000000 0.112070
# 5 -0.089355 -0.000263 -0.010338 0.000000 0.147417 0.000000
# 6 0.000000 0.000000 0.000000 0.112070 0.000000 -0.031133
#
#
# Mechanical properties :
#
#
# Convention : Reuss Voigt Hill
#
# Bulk Modulus (GPa) = 10.44212 37.32639 23.88426
# Shear Modulus (GPa) = 50.04388 22.79504 36.41946
#
# Velocity S-wave (km/s) = 4.87218 3.28828 4.15638
# Velocity P-wave (km/s) = 6.05013 5.66769 5.86203
#
# Compressibility (1/GPa) = 0.09576599
#
# Stress axis : x y z
#
# Youngs Moduli (GPa) = 12.02058 89.35040 29.23911
#
# Poissons Ratio (x) = 0.22654 0.33686
# Poissons Ratio (y) = 0.03048 0.06878
# Poissons Ratio (z) = 0.13849 0.21019
#
# Static dielectric constant tensor:
#      x y z
#    x 1.745710 0.000000 0.002190 
#    y 0.000000 1.757220 0.000000 
#    z 0.002190 0.000000 1.792480 
# 
# From -- ./inp_files/55436.got.cif
#   From: 2010.05.17/outbox.cif.g08.bks.cpg/sg15_28_cif.got.tgz:55436.got - 2010.06.03 18:47:42.
