data_PCOD9269547
_publ_section_title
;
Structure prediction by ZEFSAII (Michael W. Deem and Ramdas Pophale) SiO2 
 PCOD9269547
Probable space group: C 2/C
;
_chemical_formula_sum "Si O2"
_cell_formula_units_Z 60
_cell_length_a 14.405916
_cell_length_b 25.347010
_cell_length_c 9.084440
_cell_angle_alpha 90.000000
_cell_angle_beta 112.548241
_cell_angle_gamma 90.000000
_cell_volume 3063.581788
_symmetry_space_group_name_H-M "C 2/C"
_symmetry_group_IT_number 15
_symmetry_cell_setting 'monoclinic'
loop_
_space_group_symop_operation_xyz
x,y,z
-x,y,1/2-z
-x,-y,-z
x,-y,1/2+z
1/2+x,1/2+y,z
1/2-x,1/2+y,1/2-z
1/2-x,1/2-y,-z
1/2+x,1/2-y,1/2+z
loop_
_atom_site_type_symbol
_atom_site_label
_atom_site_fract_x
_atom_site_fract_y
_atom_site_fract_z
Si Si1 0.306927 0.355358 0.189800
Si Si2 0.874602 0.711206 0.963017
Si Si3 0.500000 0.711577 0.750000
Si Si4 0.199472 0.436534 0.640013
Si Si5 0.734189 0.340568 0.000931
Si Si6 0.383873 0.245916 0.658621
Si Si7 0.517941 0.893493 0.935008
Si Si8 0.779219 0.453445 0.499970
O O1 0.227800 0.318407 0.049445
O O2 0.413555 0.326437 0.261768
O O3 0.264827 0.360576 0.330621
O O4 0.302924 0.412711 0.113599
O O5 0.840964 0.742730 0.797856
O O6 0.947786 0.661538 0.972667
O O7 0.937909 0.749899 0.103885
O O8 0.259379 0.386797 0.612122
O O9 0.227626 0.487219 0.560747
O O10 0.081442 0.419937 0.559287
O O11 0.219570 0.448767 0.823121
O O12 0.639456 0.302251 0.923879
O O13 0.827590 0.300208 0.036925
O O14 0.500000 0.237038 0.750000
O O15 0.500000 0.882106 0.750000
O O16 0.613534 0.932045 0.995977
#
# Coordination Sequence:
#
# PCOD9269547 Si02
#       8
#     8   8   4   8   8   8   8   8
#     4  10  23  40  57  87 123 158 208 249 303 360
#     4  10  20  34  57  90 125 159 200 243 301 369
#     4  12  22  36  64  86 126 170 196 256 300 364
#     4  11  21  37  64  84 122 159 201 252 309 351
#     4  10  22  38  58  87 120 159 199 251 299 358
#     4  10  20  36  56  85 123 156 197 238 300 366
#     4   9  18  34  54  91 122 157 193 241 302 374
#     4  10  22  38  59  87 120 155 205 251 301 363
#
# _framework density 19.584918999999999
#
# number of rings (size 3 to 8) (size 9 to 14) (size 15 to 20)
#    0.000    1.867    0.667    3.200    1.867    2.133 
#    0.000    6.000    1.467    1.600    0.000    0.000 
#    0.000    0.000    0.000    0.000    0.000    0.000 
#
# Total GULP energy -167390.592642 kJ/mol
# GULP energy per Si atom -5579.686421 kJ/mol
# Density = 1.954034 g / cm^3
# Si number density = 19.584919 Si / 1000 Ang^3
#
#
#
# Elastic Constant Matrix: (Units=GPa)
#
#
# Indices 1 2 3 4 5 6 
#
# 1 63.5208 36.0159 9.6580 0.0000 1.4160 0.0000
# 2 36.0159 132.8806 53.2053 0.0000 -9.8016 0.0000
# 3 9.6580 53.2053 70.0633 0.0000 -4.4195 0.0000
# 4 0.0000 0.0000 0.0000 30.0777 0.0000 1.1027
# 5 1.4160 -9.8016 -4.4195 0.0000 20.2064 0.0000
# 6 0.0000 0.0000 0.0000 1.1027 0.0000 15.0704
#
#
#
# Elastic Compliance Matrix: (Units=1/GPa)
#
#
# Indices 1 2 3 4 5 6 
#
# 1 0.019061 -0.006186 0.001822 0.000000 -0.003938 0.000000
# 2 -0.006186 0.013071 -0.008767 0.000000 0.004856 0.000000
# 3 0.001822 -0.008767 0.020688 0.000000 0.000145 0.000000
# 4 0.000000 0.000000 0.000000 0.033337 0.000000 -0.002439
# 5 -0.003938 0.004856 0.000145 0.000000 0.052153 0.000000
# 6 0.000000 0.000000 0.000000 -0.002439 0.000000 0.066534
#
#
# Mechanical properties :
#
#
# Convention : Reuss Voigt Hill
#
# Bulk Modulus (GPa) = 37.65364 51.58034 44.61699
# Shear Modulus (GPa) = 20.83704 24.24329 22.54016
#
# Velocity S-wave (km/s) = 3.26534 3.52213 3.39616
# Velocity P-wave (km/s) = 5.78655 6.55244 6.18137
#
# Compressibility (1/GPa) = 0.02655786
#
# Stress axis : x y z
#
# Youngs Moduli (GPa) = 52.46246 76.50734 48.33707
#
# Poissons Ratio (x) = 0.47330 -0.08806
# Poissons Ratio (y) = 0.32455 0.42375
# Poissons Ratio (z) = -0.09558 0.67071
#
# Static dielectric constant tensor:
#      x y z
#    x 1.719050 0.000000 -0.016470 
#    y 0.000000 1.680290 0.000000 
#    z -0.016470 0.000000 1.701360 
# 
# From -- ./inp_files/42705.got.cif
#   From: 2010.05.17/outbox.cif.g08.bks.cpg/sg15_22_cif.got.tgz:42705.got - 2010.06.03 18:47:42.
