data_PCOD9269665
_publ_section_title
;
Structure prediction by ZEFSAII (Michael W. Deem and Ramdas Pophale) SiO2 
 PCOD9269665
Probable space group: C 2/C
;
_chemical_formula_sum "Si O2"
_cell_formula_units_Z 44
_cell_length_a 7.821436
_cell_length_b 21.319504
_cell_length_c 11.786622
_cell_angle_alpha 90.000000
_cell_angle_beta 114.635523
_cell_angle_gamma 90.000000
_cell_volume 1786.513266
_symmetry_space_group_name_H-M "C 2/C"
_symmetry_group_IT_number 15
_symmetry_cell_setting 'monoclinic'
loop_
_space_group_symop_operation_xyz
x,y,z
-x,y,1/2-z
-x,-y,-z
x,-y,1/2+z
1/2+x,1/2+y,z
1/2-x,1/2+y,1/2-z
1/2-x,1/2-y,-z
1/2+x,1/2-y,1/2+z
loop_
_atom_site_type_symbol
_atom_site_label
_atom_site_fract_x
_atom_site_fract_y
_atom_site_fract_z
Si Si1 0.048451 0.122124 0.602504
Si Si2 0.874337 0.609811 0.950178
Si Si3 0.711002 0.506971 0.759470
Si Si4 0.000000 0.367802 0.750000
Si Si5 0.138364 0.293252 0.380812
Si Si6 0.140857 0.128232 0.188395
O O1 0.163432 0.057463 0.650533
O O2 0.202917 0.174833 0.652884
O O3 0.851537 0.126953 0.616218
O O4 0.981423 0.124309 0.455517
O O5 0.855630 0.540968 0.884532
O O6 0.015731 0.654714 0.918533
O O7 0.933666 0.611121 0.098927
O O8 0.500000 0.497731 0.750000
O O9 0.761783 0.437749 0.731508
O O10 0.185147 0.325831 0.771060
O O11 0.250000 0.250000 0.500000
O O12 0.000000 0.263081 0.250000
O O13 0.000000 0.133459 0.250000
#
# Coordination Sequence:
#
# PCOD9269665 Si02
#       6
#     8   8   8   4   8   8
#     4  10  21  41  65  88 130 172 210 273 324 384
#     4  10  22  42  64  92 129 173 218 270 331 393
#     4   9  18  35  62  91 127 173 219 256 321 389
#     4  10  22  36  60  92 132 176 216 266 324 386
#     4  12  27  45  71  99 126 170 226 280 342 398
#     4  10  20  34  58  95 133 173 216 260 313 388
#
# _framework density 24.628981
#
# number of rings (size 3 to 8) (size 9 to 14) (size 15 to 20)
#    0.000    1.818    1.818    1.636    0.000    8.000 
#    0.000    0.000    0.000    0.000    0.000    0.000 
#    0.000    0.000    0.000    0.000    0.000    0.000 
#
# Total GULP energy -122535.450746 kJ/mol
# GULP energy per Si atom -5569.793216 kJ/mol
# Density = 2.457292 g / cm^3
# Si number density = 24.628981 Si / 1000 Ang^3
#
#
#
# Elastic Constant Matrix: (Units=GPa)
#
#
# Indices 1 2 3 4 5 6 
#
# 1 93.7781 27.9668 64.7146 0.0000 15.9561 0.0000
# 2 27.9668 82.8543 17.1583 0.0000 12.2930 0.0000
# 3 64.7146 17.1583 138.9975 0.0000 27.6731 0.0000
# 4 0.0000 0.0000 0.0000 -147.6282 0.0000 55.2999
# 5 15.9561 12.2930 27.6731 0.0000 51.3096 0.0000
# 6 0.0000 0.0000 0.0000 55.2999 0.0000 -19.2802
#
#
#
# Elastic Compliance Matrix: (Units=1/GPa)
#
#
# Indices 1 2 3 4 5 6 
#
# 1 0.017039 -0.004180 -0.007351 0.000000 -0.000333 0.000000
# 2 -0.004180 0.013681 0.000729 0.000000 -0.002371 0.000000
# 3 -0.007351 0.000729 0.011322 0.000000 -0.003995 0.000000
# 4 0.000000 0.000000 0.000000 0.091044 0.000000 0.261134
# 5 -0.000333 -0.002371 -0.003995 0.000000 0.022316 0.000000
# 6 0.000000 0.000000 0.000000 0.261134 0.000000 0.697123
#
#
# Mechanical properties :
#
#
# Convention : Reuss Voigt Hill
#
# Bulk Modulus (GPa) = 48.92445 59.47883 54.20164
# Shear Modulus (GPa) = 5.67574 -9.40043 -1.86235
#
# Velocity S-wave (km/s) = 1.51970 -1.95579 -0.87052
# Velocity P-wave (km/s) = 4.79448 4.37061 4.58744
#
# Compressibility (1/GPa) = 0.02043968
#
# Stress axis : x y z
#
# Youngs Moduli (GPa) = 58.68746 73.09383 88.32165
#
# Poissons Ratio (x) = 0.30552 0.64925
# Poissons Ratio (y) = 0.24530 -0.06441
# Poissons Ratio (z) = 0.43141 -0.05331
#
# Static dielectric constant tensor:
#      x y z
#    x 2.055590 0.000000 -0.027550 
#    y 0.000000 2.096370 0.000000 
#    z -0.027550 0.000000 2.013290 
# 
# From -- ./inp_files/79467.got.cif
#   From: 2010.05.17/outbox.cif.g08.bks.cpg/sg15_40_cif.got.tgz:79467.got - 2010.06.03 18:47:42.
