data_PCOD9269080
_publ_section_title
;
Structure prediction by ZEFSAII (Michael W. Deem and Ramdas Pophale) SiO2 
 PCOD9269080
Probable space group: C 2/C
;
_chemical_formula_sum "Si O2"
_cell_formula_units_Z 32
_cell_length_a 21.104670
_cell_length_b 12.221759
_cell_length_c 5.755099
_cell_angle_alpha 90.000000
_cell_angle_beta 119.381343
_cell_angle_gamma 90.000000
_cell_volume 1293.509093
_symmetry_space_group_name_H-M "C 2/C"
_symmetry_group_IT_number 15
_symmetry_cell_setting 'monoclinic'
loop_
_space_group_symop_operation_xyz
x,y,z
-x,y,1/2-z
-x,-y,-z
x,-y,1/2+z
1/2+x,1/2+y,z
1/2-x,1/2+y,1/2-z
1/2-x,1/2-y,-z
1/2+x,1/2-y,1/2+z
loop_
_atom_site_type_symbol
_atom_site_label
_atom_site_fract_x
_atom_site_fract_y
_atom_site_fract_z
Si Si1 0.897332 0.515592 0.439101
Si Si2 0.242012 0.059659 0.639606
Si Si3 0.173506 0.246292 0.720995
Si Si4 0.583365 0.543813 0.652491
O O1 0.933744 0.497298 0.753614
O O2 0.829791 0.429998 0.307594
O O3 0.858982 0.634914 0.375094
O O4 0.200498 0.174886 0.549674
O O5 0.229796 0.990969 0.380009
O O6 0.107709 0.170828 0.704678
O O7 0.250000 0.250000 0.000000
O O8 0.500000 0.500000 0.500000
O O9 0.609799 0.503429 0.445996
#
# Coordination Sequence:
#
# PCOD9269080 Si02
#       4
#     8   8   8   8
#     4  10  22  35  48  81 130 158 203 257 333 392
#     4  10  20  34  48  78 126 162 203 254 328 396
#     4  12  22  36  64  94 132 180 216 279 358 389
#     4  10  24  46  68  96 134 184 234 279 330 423
#
# _framework density 24.738906
#
# number of rings (size 3 to 8) (size 9 to 14) (size 15 to 20)
#    0.000    1.500    5.000    1.500    0.000    8.000 
#    0.000    0.000    0.000    0.000    0.000   21.000 
#    0.000    0.000    0.000    0.000    0.000    0.000 
#
# Total GULP energy -89081.259112 kJ/mol
# GULP energy per Si atom -5567.578695 kJ/mol
# Density = 2.468260 g / cm^3
# Si number density = 24.738906 Si / 1000 Ang^3
#
#
#
# Elastic Constant Matrix: (Units=GPa)
#
#
# Indices 1 2 3 4 5 6 
#
# 1 120.6157 51.0201 71.6456 0.0000 -39.1318 0.0000
# 2 51.0201 111.7199 29.7317 0.0000 -8.3399 0.0000
# 3 71.6456 29.7317 238.1260 0.0000 -26.2948 0.0000
# 4 0.0000 0.0000 0.0000 22.7435 0.0000 -17.1962
# 5 -39.1318 -8.3399 -26.2948 0.0000 66.1437 0.0000
# 6 0.0000 0.0000 0.0000 -17.1962 0.0000 19.9627
#
#
#
# Elastic Compliance Matrix: (Units=1/GPa)
#
#
# Indices 1 2 3 4 5 6 
#
# 1 0.014474 -0.005324 -0.002948 0.000000 0.006720 0.000000
# 2 -0.005324 0.011252 0.000006 0.000000 -0.001729 0.000000
# 3 -0.002948 0.000006 0.005118 0.000000 0.000291 0.000000
# 4 0.000000 0.000000 0.000000 0.126097 0.000000 0.108622
# 5 0.006720 -0.001729 0.000291 0.000000 0.018992 0.000000
# 6 0.000000 0.000000 0.000000 0.108622 0.000000 0.143662
#
#
# Mechanical properties :
#
#
# Convention : Reuss Voigt Hill
#
# Bulk Modulus (GPa) = 69.87220 86.13961 78.00590
# Shear Modulus (GPa) = 14.66721 42.97427 28.82074
#
# Velocity S-wave (km/s) = 2.43755 4.17239 3.41691
# Velocity P-wave (km/s) = 6.01892 7.62279 6.86783
#
# Compressibility (1/GPa) = 0.01431184
#
# Stress axis : x y z
#
# Youngs Moduli (GPa) = 69.08916 88.87653 195.39430
#
# Poissons Ratio (x) = 0.47316 0.57604
# Poissons Ratio (y) = 0.36782 -0.00119
# Poissons Ratio (z) = 0.20368 -0.00054
#
# Static dielectric constant tensor:
#      x y z
#    x 3.689590 0.000000 0.608130 
#    y 0.000000 2.042280 0.000000 
#    z 0.608130 0.000000 2.195920 
# 
# From -- ./inp_files/14841.got.cif
#   From: 2010.05.17/outbox.cif.g08.bks.cpg/sg15_8_cif.got.tgz:14841.got - 2010.06.03 18:47:42.
