data_PCOD9269229
_publ_section_title
;
Structure prediction by ZEFSAII (Michael W. Deem and Ramdas Pophale) SiO2 
 PCOD9269229
Probable space group: C 2/C
;
_chemical_formula_sum "Si O2"
_cell_formula_units_Z 44
_cell_length_a 20.536858
_cell_length_b 11.177220
_cell_length_c 9.324730
_cell_angle_alpha 90.000000
_cell_angle_beta 94.282834
_cell_angle_gamma 90.000000
_cell_volume 2134.467881
_symmetry_space_group_name_H-M "C 2/C"
_symmetry_group_IT_number 15
_symmetry_cell_setting 'monoclinic'
loop_
_space_group_symop_operation_xyz
x,y,z
-x,y,1/2-z
-x,-y,-z
x,-y,1/2+z
1/2+x,1/2+y,z
1/2-x,1/2+y,1/2-z
1/2-x,1/2-y,-z
1/2+x,1/2-y,1/2+z
loop_
_atom_site_type_symbol
_atom_site_label
_atom_site_fract_x
_atom_site_fract_y
_atom_site_fract_z
Si Si1 0.196516 0.094257 0.495301
Si Si2 0.000000 0.043098 0.750000
Si Si3 0.647475 0.158360 0.642244
Si Si4 0.834679 0.512499 0.112901
Si Si5 0.730529 0.225225 0.232972
Si Si6 0.083981 0.902176 0.526458
O O1 0.212624 0.154609 0.345716
O O2 0.189053 0.198075 0.612639
O O3 0.264567 0.035294 0.551053
O O4 0.139901 0.997775 0.492484
O O5 0.956931 0.961302 0.850284
O O6 0.957011 0.115679 0.627110
O O7 0.630146 0.059206 0.521514
O O8 0.726111 0.188386 0.658457
O O9 0.612827 0.279474 0.591017
O O10 0.633768 0.094155 0.791144
O O11 0.816175 0.629871 0.201506
#
# Coordination Sequence:
#
# PCOD9269229 Si02
#       6
#     8   4   8   8   8   8
#     4  10  21  34  59  91 133 156 197 232 316 348
#     4  10  26  44  64  92 114 140 238 262 308 342
#     4  11  23  36  61  85 133 163 199 235 311 351
#     4  11  21  36  54  98 129 163 193 229 285 418
#     4  10  20  34  53  94 131 168 186 234 276 411
#     4  11  23  43  65  90 113 166 197 277 300 347
#
# _framework density 20.614037
#
# number of rings (size 3 to 8) (size 9 to 14) (size 15 to 20)
#    0.000    1.455    3.636    1.636    2.545    0.000 
#    0.000    0.000    0.000    3.273    0.000    0.000 
#    0.000    0.000    0.000    0.000    0.000    0.000 
#
# Total GULP energy -122836.196349 kJ/mol
# GULP energy per Si atom -5583.463470 kJ/mol
# Density = 2.056712 g / cm^3
# Si number density = 20.614037 Si / 1000 Ang^3
#
#
#
# Elastic Constant Matrix: (Units=GPa)
#
#
# Indices 1 2 3 4 5 6 
#
# 1 32.7155 19.8810 33.8965 0.0000 8.5813 0.0000
# 2 19.8810 50.6358 30.9843 0.0000 11.0222 0.0000
# 3 33.8965 30.9843 122.3138 0.0000 15.5958 0.0000
# 4 0.0000 0.0000 0.0000 36.2516 0.0000 -5.8226
# 5 8.5813 11.0222 15.5958 0.0000 21.2302 0.0000
# 6 0.0000 0.0000 0.0000 -5.8226 0.0000 6.9289
#
#
#
# Elastic Compliance Matrix: (Units=1/GPa)
#
#
# Indices 1 2 3 4 5 6 
#
# 1 0.049941 -0.012090 -0.009934 0.000000 -0.006611 0.000000
# 2 -0.012090 0.027810 -0.002732 0.000000 -0.007544 0.000000
# 3 -0.009934 -0.002732 0.012057 0.000000 -0.003423 0.000000
# 4 0.000000 0.000000 0.000000 0.031889 0.000000 0.026797
# 5 -0.006611 -0.007544 -0.003423 0.000000 0.056207 0.000000
# 6 0.000000 0.000000 0.000000 0.026797 0.000000 0.166841
#
#
# Mechanical properties :
#
#
# Convention : Reuss Voigt Hill
#
# Bulk Modulus (GPa) = 24.81721 41.68763 33.25242
# Shear Modulus (GPa) = 12.26422 20.94235 16.60328
#
# Velocity S-wave (km/s) = 2.44180 3.19082 2.84110
# Velocity P-wave (km/s) = 4.47381 5.81738 5.18926
#
# Compressibility (1/GPa) = 0.04029462
#
# Stress axis : x y z
#
# Youngs Moduli (GPa) = 20.02371 35.95846 82.93643
#
# Poissons Ratio (x) = 0.43474 0.82392
# Poissons Ratio (y) = 0.24209 0.22661
# Poissons Ratio (z) = 0.19892 0.09825
#
# Static dielectric constant tensor:
#      x y z
#    x 1.736320 0.000000 0.017100 
#    y 0.000000 1.774120 0.000000 
#    z 0.017100 0.000000 1.865400 
# 
# From -- ./inp_files/60716.got.cif
#   From: 2010.05.17/outbox.cif.g08.bks.cpg/sg15_31_cif.got.tgz:60716.got - 2010.06.03 18:47:42.
