data_PCOD9269437
_publ_section_title
;
Structure prediction by ZEFSAII (Michael W. Deem and Ramdas Pophale) SiO2 
 PCOD9269437
Probable space group: C 2/C
;
_chemical_formula_sum "Si O2"
_cell_formula_units_Z 44
_cell_length_a 19.028098
_cell_length_b 8.304492
_cell_length_c 17.077468
_cell_angle_alpha 90.000000
_cell_angle_beta 131.124939
_cell_angle_gamma 90.000000
_cell_volume 2032.762993
_symmetry_space_group_name_H-M "C 2/C"
_symmetry_group_IT_number 15
_symmetry_cell_setting 'monoclinic'
loop_
_space_group_symop_operation_xyz
x,y,z
-x,y,1/2-z
-x,-y,-z
x,-y,1/2+z
1/2+x,1/2+y,z
1/2-x,1/2+y,1/2-z
1/2-x,1/2-y,-z
1/2+x,1/2-y,1/2+z
loop_
_atom_site_type_symbol
_atom_site_label
_atom_site_fract_x
_atom_site_fract_y
_atom_site_fract_z
Si Si1 0.500000 0.518336 0.750000
Si Si2 0.540442 0.080433 0.416629
Si Si3 0.039407 0.963734 0.443533
Si Si4 0.134978 0.594936 0.647040
Si Si5 0.213672 0.915460 0.655864
Si Si6 0.339663 0.781397 0.620505
O O1 0.494935 0.442716 0.659168
O O2 0.406961 0.628848 0.680029
O O3 0.519180 0.272567 0.413256
O O4 0.607597 0.038808 0.539165
O O5 0.597094 0.083749 0.376943
O O6 0.449048 0.971830 0.360666
O O7 0.149500 0.989643 0.540402
O O8 0.000000 0.000000 0.500000
O O9 0.149117 0.785706 0.651833
O O10 0.235062 0.532156 0.747783
O O11 0.297380 0.827561 0.672174
O O12 0.250000 0.750000 0.500000
#
# Coordination Sequence:
#
# PCOD9269437 Si02
#       6
#     4   8   8   8   8   8
#     4  10  20  34  56  84 128 152 196 270 298 350
#     4   9  20  39  59  86 121 163 205 257 315 363
#     4  10  21  34  57  90 123 159 204 255 310 363
#     4  10  21  36  58  92 123 156 198 263 310 369
#     4  11  22  36  61  96 117 155 215 254 307 381
#     4  11  18  36  59  90 108 154 218 253 288 364
#
# _framework density 21.645416999999998
#
# number of rings (size 3 to 8) (size 9 to 14) (size 15 to 20)
#    0.000    1.818    5.455    2.182    5.091    0.000 
#    0.000    0.000    0.000   14.182    0.000    0.000 
#    0.000    0.000    0.000    0.000    0.000    0.000 
#
# Total GULP energy -122565.905724 kJ/mol
# GULP energy per Si atom -5571.177533 kJ/mol
# Density = 2.159615 g / cm^3
# Si number density = 21.645417 Si / 1000 Ang^3
#
#
#
# Elastic Constant Matrix: (Units=GPa)
#
#
# Indices 1 2 3 4 5 6 
#
# 1 114.9957 20.2601 22.0231 0.0000 -13.0618 0.0000
# 2 20.2601 24.5615 30.7520 0.0000 -0.4152 0.0000
# 3 22.0231 30.7520 156.3510 0.0000 12.7886 0.0000
# 4 0.0000 0.0000 0.0000 32.3816 0.0000 4.9486
# 5 -13.0618 -0.4152 12.7886 0.0000 34.9269 0.0000
# 6 0.0000 0.0000 0.0000 4.9486 0.0000 31.8708
#
#
#
# Elastic Compliance Matrix: (Units=1/GPa)
#
#
# Indices 1 2 3 4 5 6 
#
# 1 0.010680 -0.008565 -0.000142 0.000000 0.003944 0.000000
# 2 -0.008565 0.061634 -0.011045 0.000000 0.001574 0.000000
# 3 -0.000142 -0.011045 0.008869 0.000000 -0.003432 0.000000
# 4 0.000000 0.000000 0.000000 0.031632 0.000000 -0.004912
# 5 0.003944 0.001574 -0.003432 0.000000 0.031382 0.000000
# 6 0.000000 0.000000 0.000000 -0.004912 0.000000 0.032139
#
#
# Mechanical properties :
#
#
# Convention : Reuss Voigt Hill
#
# Bulk Modulus (GPa) = 23.99274 49.10873 36.55074
# Shear Modulus (GPa) = 21.76427 34.69407 28.22917
#
# Velocity S-wave (km/s) = 3.17439 4.00789 3.61524
# Velocity P-wave (km/s) = 4.95421 6.64489 5.86084
#
# Compressibility (1/GPa) = 0.04167927
#
# Stress axis : x y z
#
# Youngs Moduli (GPa) = 93.63079 16.22473 112.75197
#
# Poissons Ratio (x) = 0.13896 0.01606
# Poissons Ratio (y) = 0.80193 1.24534
# Poissons Ratio (z) = 0.01334 0.17920
#
# Static dielectric constant tensor:
#      x y z
#    x 1.855220 0.000000 0.012040 
#    y 0.000000 1.831270 0.000000 
#    z 0.012040 0.000000 1.869900 
# 
# From -- ./inp_files/213583.got.cif
#   From: 2010.05.17/outbox.cif.g08.bks.cpg/sg15_107_cif.got.tgz:213583.got - 2010.06.03 18:47:42.
