data_PCOD9269903
_publ_section_title
;
Structure prediction by ZEFSAII (Michael W. Deem and Ramdas Pophale) SiO2 
 PCOD9269903
Probable space group: C 2/C
;
_chemical_formula_sum "Si O2"
_cell_formula_units_Z 52
_cell_length_a 12.280270
_cell_length_b 22.111130
_cell_length_c 12.738292
_cell_angle_alpha 90.000000
_cell_angle_beta 47.154626
_cell_angle_gamma 90.000000
_cell_volume 2535.989873
_symmetry_space_group_name_H-M "C 2/C"
_symmetry_group_IT_number 15
_symmetry_cell_setting 'monoclinic'
loop_
_space_group_symop_operation_xyz
x,y,z
-x,y,1/2-z
-x,-y,-z
x,-y,1/2+z
1/2+x,1/2+y,z
1/2-x,1/2+y,1/2-z
1/2-x,1/2-y,-z
1/2+x,1/2-y,1/2+z
loop_
_atom_site_type_symbol
_atom_site_label
_atom_site_fract_x
_atom_site_fract_y
_atom_site_fract_z
Si Si1 0.147932 0.679127 0.810942
Si Si2 0.163513 0.894482 0.179066
Si Si3 0.832668 0.734318 0.054676
Si Si4 0.366262 0.623008 0.254659
Si Si5 0.000000 0.582209 0.750000
Si Si6 0.937578 0.066523 0.527531
Si Si7 0.739556 0.021622 0.468450
O O1 0.205148 0.652872 0.884640
O O2 0.284522 0.714003 0.667131
O O3 0.092794 0.628513 0.763296
O O4 0.005969 0.722885 0.920267
O O5 0.135544 0.916918 0.315917
O O6 0.000000 0.873045 0.250000
O O7 0.215617 0.952011 0.075614
O O8 0.758557 0.672874 0.146955
O O9 0.750000 0.750000 0.000000
O O10 0.500000 0.636008 0.250000
O O11 0.441030 0.614579 0.092446
O O12 0.292748 0.558319 0.331536
O O13 0.075581 0.537868 0.614405
O O14 0.828277 0.056283 0.502047
O O15 0.000000 0.000000 0.500000
#
# Coordination Sequence:
#
# PCOD9269903 Si02
#       7
#     8   8   8   8   4   8   8
#     4  12  26  42  68 102 132 176 227 290 343 405
#     4  12  25  44  67  96 139 184 229 278 343 414
#     4  12  23  43  68  99 134 171 223 286 354 395
#     4  10  20  34  64  99 130 167 215 278 337 400
#     4  12  22  40  64 106 140 164 220 284 354 404
#     4  11  20  37  64  96 127 177 228 261 322 414
#     4  11  21  39  62  98 139 173 216 277 341 412
#
# _framework density 20.504812999999999
#
# number of rings (size 3 to 8) (size 9 to 14) (size 15 to 20)
#    0.000    0.615    7.692    1.385    4.308    0.615 
#    2.769    0.769    0.000    0.000    0.000    0.000 
#    0.000    0.000    0.000    0.000    0.000    0.000 
#
# Total GULP energy -145055.189423 kJ/mol
# GULP energy per Si atom -5579.045747 kJ/mol
# Density = 2.045814 g / cm^3
# Si number density = 20.504813 Si / 1000 Ang^3
#
#
#
# Elastic Constant Matrix: (Units=GPa)
#
#
# Indices 1 2 3 4 5 6 
#
# 1 79.0721 26.0441 12.1941 0.0000 -7.9848 0.0000
# 2 26.0441 42.6965 17.9201 0.0000 -12.6629 0.0000
# 3 12.1941 17.9201 98.3492 0.0000 -10.1034 0.0000
# 4 0.0000 0.0000 0.0000 37.6342 0.0000 -3.4067
# 5 -7.9848 -12.6629 -10.1034 0.0000 22.4174 0.0000
# 6 0.0000 0.0000 0.0000 -3.4067 0.0000 32.7486
#
#
#
# Elastic Compliance Matrix: (Units=1/GPa)
#
#
# Indices 1 2 3 4 5 6 
#
# 1 0.015831 -0.009519 -0.000211 0.000000 0.000167 0.000000
# 2 -0.009519 0.035175 -0.003708 0.000000 0.014808 0.000000
# 3 -0.000211 -0.003708 0.011164 0.000000 0.002862 0.000000
# 4 0.000000 0.000000 0.000000 0.026824 0.000000 0.002790
# 5 0.000167 0.014808 0.002862 0.000000 0.054322 0.000000
# 6 0.000000 0.000000 0.000000 0.002790 0.000000 0.030826
#
#
# Mechanical properties :
#
#
# Convention : Reuss Voigt Hill
#
# Bulk Modulus (GPa) = 28.33299 36.93715 32.63507
# Shear Modulus (GPa) = 23.49818 29.49068 26.49443
#
# Velocity S-wave (km/s) = 3.38891 3.79652 3.59849
# Velocity P-wave (km/s) = 5.40006 6.10500 5.76332
#
# Compressibility (1/GPa) = 0.03529454
#
# Stress axis : x y z
#
# Youngs Moduli (GPa) = 63.16607 28.42910 89.57653
#
# Poissons Ratio (x) = 0.27061 0.01893
# Poissons Ratio (y) = 0.60125 0.33213
# Poissons Ratio (z) = 0.01335 0.10541
#
# Static dielectric constant tensor:
#      x y z
#    x 1.610520 0.000000 -0.061440 
#    y 0.000000 1.707710 0.000000 
#    z -0.061440 0.000000 1.785050 
# 
# From -- ./inp_files/91200.got.cif
#   From: 2010.05.17/outbox.cif.g08.bks.cpg/sg15_46_cif.got.tgz:91200.got - 2010.06.03 18:47:42.
