data_PCOD9269489
_publ_section_title
;
Structure prediction by ZEFSAII (Michael W. Deem and Ramdas Pophale) SiO2 
 PCOD9269489
Probable space group: C 2/C
;
_chemical_formula_sum "Si O2"
_cell_formula_units_Z 36
_cell_length_a 12.996515
_cell_length_b 18.577860
_cell_length_c 16.182674
_cell_angle_alpha 90.000000
_cell_angle_beta 26.342094
_cell_angle_gamma 90.000000
_cell_volume 1733.769595
_symmetry_space_group_name_H-M "C 2/C"
_symmetry_group_IT_number 15
_symmetry_cell_setting 'monoclinic'
loop_
_space_group_symop_operation_xyz
x,y,z
-x,y,1/2-z
-x,-y,-z
x,-y,1/2+z
1/2+x,1/2+y,z
1/2-x,1/2+y,1/2-z
1/2-x,1/2-y,-z
1/2+x,1/2-y,1/2+z
loop_
_atom_site_type_symbol
_atom_site_label
_atom_site_fract_x
_atom_site_fract_y
_atom_site_fract_z
Si Si1 0.609328 0.177381 0.084693
Si Si2 0.640144 0.888453 0.868235
Si Si3 0.581943 0.955721 0.322477
Si Si4 0.500000 0.431732 0.250000
Si Si5 0.890829 0.946385 0.944926
O O1 0.500000 0.153552 0.250000
O O2 0.416731 0.177309 0.151649
O O3 0.750000 0.250000 0.000000
O O4 0.787333 0.119366 0.921918
O O5 0.905490 0.887790 0.709064
O O6 0.613048 0.963294 0.835212
O O7 0.461065 0.899796 0.072287
O O8 0.341772 0.947223 0.443357
O O9 0.794457 0.944492 0.107126
O O10 0.481079 0.482478 0.183153
#
# Coordination Sequence:
#
# PCOD9269489 Si02
#       5
#     8   8   8   4   8
#     4  12  26  43  60  84 125 174 215 257 301 371
#     4  11  20  36  58  89 125 166 203 252 321 375
#     4  10  20  34  56  95 129 160 197 251 319 379
#     4  12  20  38  64  88 134 162 202 256 310 372
#     4  11  20  35  60  94 132 159 197 258 326 378
#
# _framework density 20.764005999999998
#
# number of rings (size 3 to 8) (size 9 to 14) (size 15 to 20)
#    0.000    0.889    5.556    3.333    0.000    1.778 
#    0.000    0.000    0.000    0.000    0.000    6.222 
#    0.000    0.000    0.000    0.000    0.000    0.000 
#
# Total GULP energy -100405.809382 kJ/mol
# GULP energy per Si atom -5578.100521 kJ/mol
# Density = 2.071675 g / cm^3
# Si number density = 20.764006 Si / 1000 Ang^3
#
#
#
# Elastic Constant Matrix: (Units=GPa)
#
#
# Indices 1 2 3 4 5 6 
#
# 1 89.5946 26.9669 39.4155 0.0025 4.7645 0.0075
# 2 26.9669 41.6354 20.3626 0.1283 -1.7072 0.0148
# 3 39.4155 20.3626 157.2653 0.0313 29.4378 -0.0375
# 4 0.0025 0.1283 0.0313 10.3574 0.0372 -6.0101
# 5 4.7645 -1.7072 29.4378 0.0372 54.7891 0.0155
# 6 0.0075 0.0148 -0.0375 -6.0101 0.0155 27.2002
#
#
#
# Elastic Compliance Matrix: (Units=1/GPa)
#
#
# Indices 1 2 3 4 5 6 
#
# 1 0.014825 -0.008332 -0.002609 0.000122 -0.000147 0.000024
# 2 -0.008332 0.030739 -0.002453 -0.000451 0.003001 -0.000119
# 3 -0.002609 -0.002453 0.008119 0.000035 -0.004212 0.000023
# 4 0.000122 -0.000451 0.000035 0.110756 -0.000126 0.024473
# 5 -0.000147 0.003001 -0.004212 -0.000126 0.020621 -0.000047
# 6 0.000024 -0.000119 0.000023 0.024473 -0.000047 0.042172
#
#
# Mechanical properties :
#
#
# Convention : Reuss Voigt Hill
#
# Bulk Modulus (GPa) = 37.18462 51.33171 44.25817
# Shear Modulus (GPa) = 19.01243 31.91939 25.46591
#
# Velocity S-wave (km/s) = 3.02924 3.92503 3.50586
# Velocity P-wave (km/s) = 5.49383 6.73174 6.14404
#
# Compressibility (1/GPa) = 0.02689284
#
# Stress axis : x y z
#
# Youngs Moduli (GPa) = 67.45352 32.53179 123.17301
#
# Poissons Ratio (x) = 0.27107 0.32139
# Poissons Ratio (y) = 0.56205 0.30219
# Poissons Ratio (z) = 0.17600 0.07981
#
# Static dielectric constant tensor:
#      x y z
#    x 1.943080 -0.000120 -0.093750 
#    y -0.000120 1.708170 0.000080 
#    z -0.093750 0.000080 1.797160 
# 
# From -- ./inp_files/146957.got.cif
#   From: 2010.05.17/outbox.cif.g08.bks.cpg/sg15_74_cif.got.tgz:146957.got - 2010.06.03 18:47:42.
