data_PCOD9269523
_publ_section_title
;
Structure prediction by ZEFSAII (Michael W. Deem and Ramdas Pophale) SiO2 
 PCOD9269523
Probable space group: C 2/C
;
_chemical_formula_sum "Si O2"
_cell_formula_units_Z 56
_cell_length_a 28.568333
_cell_length_b 10.299915
_cell_length_c 14.011913
_cell_angle_alpha 90.000000
_cell_angle_beta 132.739941
_cell_angle_gamma 90.000000
_cell_volume 3028.121396
_symmetry_space_group_name_H-M "C 2/C"
_symmetry_group_IT_number 15
_symmetry_cell_setting 'monoclinic'
loop_
_space_group_symop_operation_xyz
x,y,z
-x,y,1/2-z
-x,-y,-z
x,-y,1/2+z
1/2+x,1/2+y,z
1/2-x,1/2+y,1/2-z
1/2-x,1/2-y,-z
1/2+x,1/2-y,1/2+z
loop_
_atom_site_type_symbol
_atom_site_label
_atom_site_fract_x
_atom_site_fract_y
_atom_site_fract_z
Si Si1 0.369192 0.049972 0.592691
Si Si2 0.713029 0.801647 0.041169
Si Si3 0.425666 0.864271 0.367943
Si Si4 0.168777 0.132181 0.654745
Si Si5 0.572565 0.123441 0.014702
Si Si6 0.237086 0.260393 0.592815
Si Si7 0.145354 0.839008 0.615467
O O1 0.387383 0.124158 0.714970
O O2 0.423575 0.072272 0.589189
O O3 0.309980 0.119910 0.460280
O O4 0.340742 0.906338 0.565225
O O5 0.771237 0.853363 0.189638
O O6 0.673303 0.698747 0.050438
O O7 0.750000 0.750000 0.000000
O O8 0.499623 0.852555 0.442423
O O9 0.411379 0.750654 0.424145
O O10 0.407724 0.999672 0.394572
O O11 0.118173 0.251077 0.594118
O O12 0.201104 0.142606 0.594398
O O13 0.136360 0.992005 0.616589
O O14 0.250000 0.250000 0.500000
O O15 0.299826 0.292222 0.736590
#
# Coordination Sequence:
#
# PCOD9269523 Si02
#       7
#     8   8   8   8   8   8   8
#     4  11  20  37  62  89 115 155 203 245 294 358
#     4  11  23  35  59  90 126 154 190 251 313 360
#     4  11  22  39  66  82 119 161 209 250 288 358
#     4  10  23  37  58  87 126 152 195 248 303 366
#     4  10  23  42  58  89 117 163 205 247 295 357
#     4  10  20  34  57  86 119 150 190 240 299 357
#     4  11  22  37  58  92 118 157 197 243 309 357
#
# _framework density 18.493316
#
# number of rings (size 3 to 8) (size 9 to 14) (size 15 to 20)
#    0.000    1.429    4.286    1.286    2.000    0.571 
#    0.000    0.000    0.000    0.000    3.714    0.000 
#    0.000    0.000    0.000    0.000    0.000    0.000 
#
# Total GULP energy -155913.563094 kJ/mol
# GULP energy per Si atom -5568.341539 kJ/mol
# Density = 1.845122 g / cm^3
# Si number density = 18.493316 Si / 1000 Ang^3
#
#
#
# Elastic Constant Matrix: (Units=GPa)
#
#
# Indices 1 2 3 4 5 6 
#
# 1 133.9925 66.3540 23.3867 0.0000 -27.5961 0.0000
# 2 66.3540 120.6603 10.2825 0.0000 2.4739 0.0000
# 3 23.3867 10.2825 31.8392 0.0000 -12.5789 0.0000
# 4 0.0000 0.0000 0.0000 18.9816 0.0000 1.9747
# 5 -27.5961 2.4739 -12.5789 0.0000 25.6819 0.0000
# 6 0.0000 0.0000 0.0000 1.9747 0.0000 24.8957
#
#
#
# Elastic Compliance Matrix: (Units=1/GPa)
#
#
# Indices 1 2 3 4 5 6 
#
# 1 0.015540 -0.008708 -0.002076 0.000000 0.016520 0.000000
# 2 -0.008708 0.013554 -0.002720 0.000000 -0.011994 0.000000
# 3 -0.002076 -0.002720 0.040959 0.000000 0.018093 0.000000
# 4 0.000000 0.000000 0.000000 0.053121 0.000000 -0.004213
# 5 0.016520 -0.011994 0.018093 0.000000 0.066707 0.000000
# 6 0.000000 0.000000 0.000000 -0.004213 0.000000 0.040502
#
#
# Mechanical properties :
#
#
# Convention : Reuss Voigt Hill
#
# Bulk Modulus (GPa) = 23.23067 54.05983 38.64525
# Shear Modulus (GPa) = 18.40009 26.34308 22.37158
#
# Velocity S-wave (km/s) = 3.15772 3.77830 3.48186
# Velocity P-wave (km/s) = 5.08762 6.95195 6.09153
#
# Compressibility (1/GPa) = 0.04304654
#
# Stress axis : x y z
#
# Youngs Moduli (GPa) = 64.35088 73.77917 24.41462
#
# Poissons Ratio (x) = 0.64244 0.05067
# Poissons Ratio (y) = 0.56034 0.06641
# Poissons Ratio (z) = 0.13356 0.20068
#
# Static dielectric constant tensor:
#      x y z
#    x 1.728690 0.000000 0.002560 
#    y 0.000000 1.685840 0.000000 
#    z 0.002560 0.000000 1.638850 
# 
# From -- ./inp_files/180855.got.cif
#   From: 2010.05.17/outbox.cif.g08.bks.cpg/sg15_91_cif.got.tgz:180855.got - 2010.06.03 18:47:42.
