data_PCOD9269626
_publ_section_title
;
Structure prediction by ZEFSAII (Michael W. Deem and Ramdas Pophale) SiO2 
 PCOD9269626
Probable space group: C 2/C
;
_chemical_formula_sum "Si O2"
_cell_formula_units_Z 64
_cell_length_a 8.788042
_cell_length_b 20.317599
_cell_length_c 21.980652
_cell_angle_alpha 90.000000
_cell_angle_beta 66.433813
_cell_angle_gamma 90.000000
_cell_volume 3597.363965
_symmetry_space_group_name_H-M "C 2/C"
_symmetry_group_IT_number 15
_symmetry_cell_setting 'monoclinic'
loop_
_space_group_symop_operation_xyz
x,y,z
-x,y,1/2-z
-x,-y,-z
x,-y,1/2+z
1/2+x,1/2+y,z
1/2-x,1/2+y,1/2-z
1/2-x,1/2-y,-z
1/2+x,1/2-y,1/2+z
loop_
_atom_site_type_symbol
_atom_site_label
_atom_site_fract_x
_atom_site_fract_y
_atom_site_fract_z
Si Si1 0.003871 0.584499 0.177527
Si Si2 0.641075 0.584499 0.177527
Si Si3 0.727822 0.805220 0.590790
Si Si4 0.129370 0.658599 0.552205
Si Si5 0.257814 0.978977 0.424089
Si Si6 0.394007 0.478977 0.424089
Si Si7 0.266220 0.158599 0.552205
Si Si8 0.409403 0.694780 0.409210
O O1 0.820216 0.583394 0.179784
O O2 0.000000 0.573022 0.250000
O O3 0.091003 0.654118 0.148797
O O4 0.115353 0.529524 0.126473
O O5 0.500000 0.573022 0.250000
O O6 0.631700 0.529524 0.126473
O O7 0.611402 0.654118 0.148797
O O8 0.733096 0.831713 0.520756
O O9 0.699224 0.726949 0.590827
O O10 0.907751 0.816397 0.592249
O O11 0.170478 0.594606 0.584710
O O12 0.274607 0.668287 0.479245
O O13 0.119121 0.726949 0.590827
O O14 0.954425 0.650210 0.545575
O O15 0.083886 0.980804 0.416114
O O16 0.217271 0.000000 0.500000
O O17 0.339897 0.405394 0.415290
#
# Coordination Sequence:
#
# PCOD9269626 Si02
#       8
#     8   8   8   8   8   8   8   8
#     4  12  25  41  62  86 119 159 201 245 300 362
#     4  12  25  41  62  86 119 159 201 245 300 362
#     4  10  20  36  57  86 120 152 193 242 293 348
#     4  10  20  34  58  89 119 152 194 244 294 345
#     4  11  22  37  60  89 122 157 198 249 298 350
#     4  11  22  37  60  89 122 157 198 249 298 350
#     4  10  20  34  58  89 119 152 194 244 294 345
#     4  10  20  36  57  86 120 152 193 242 293 348
#
# _framework density 17.790804999999999
#
# number of rings (size 3 to 8) (size 9 to 14) (size 15 to 20)
#    0.000    1.250    2.500    4.500    0.000    4.000 
#    0.000    1.250    0.000    6.000    0.000    0.000 
#    0.000    0.000    0.000    0.000    0.000    0.000 
#
# Total GULP energy -178876.148207 kJ/mol
# GULP energy per Si atom -5589.879631 kJ/mol
# Density = 1.775031 g / cm^3
# Si number density = 17.790805 Si / 1000 Ang^3
#
#
#
# Elastic Constant Matrix: (Units=GPa)
#
#
# Indices 1 2 3 4 5 6 
#
# 1 131.1103 79.6975 78.9469 0.0000 0.3053 0.0000
# 2 79.6975 125.5031 67.1224 0.0000 -0.4866 0.0000
# 3 78.9469 67.1224 119.6625 0.0000 -0.7483 0.0000
# 4 0.0000 0.0000 0.0000 19.4985 0.0000 -0.5068
# 5 0.3053 -0.4866 -0.7483 0.0000 29.9865 0.0000
# 6 0.0000 0.0000 0.0000 -0.5068 0.0000 32.5972
#
#
#
# Elastic Compliance Matrix: (Units=1/GPa)
#
#
# Indices 1 2 3 4 5 6 
#
# 1 0.015449 -0.006228 -0.006702 0.000000 -0.000426 0.000000
# 2 -0.006228 0.013894 -0.003683 0.000000 0.000197 0.000000
# 3 -0.006702 -0.003683 0.014847 0.000000 0.000379 0.000000
# 4 0.000000 0.000000 0.000000 0.051307 0.000000 0.000798
# 5 -0.000426 0.000197 0.000379 0.000000 0.033365 0.000000
# 6 0.000000 0.000000 0.000000 0.000798 0.000000 0.030690
#
#
# Mechanical properties :
#
#
# Convention : Reuss Voigt Hill
#
# Bulk Modulus (GPa) = 91.21128 91.97883 91.59506
# Shear Modulus (GPa) = 25.45407 26.45039 25.95223
#
# Velocity S-wave (km/s) = 3.78662 3.86002 3.82349
# Velocity P-wave (km/s) = 8.39631 8.46633 8.43139
#
# Compressibility (1/GPa) = 0.01096356
#
# Stress axis : x y z
#
# Youngs Moduli (GPa) = 64.72721 71.97608 67.35503
#
# Poissons Ratio (x) = 0.44827 0.45140
# Poissons Ratio (y) = 0.40313 0.24808
# Poissons Ratio (z) = 0.43379 0.26510
#
# Static dielectric constant tensor:
#      x y z
#    x 1.589100 0.000000 -0.000590 
#    y 0.000000 1.617870 0.000000 
#    z -0.000590 0.000000 1.573820 
# 
# From -- ./inp_files/233829.got.cif
#   From: 2010.05.17/outbox.cif.g08.bks.cpg/sg15_117_cif.got.tgz:233829.got - 2010.06.03 18:47:42.
