data_PCOD9269897
_publ_section_title
;
Structure prediction by ZEFSAII (Michael W. Deem and Ramdas Pophale) SiO2 
 PCOD9269897
Probable space group: C 2/C
;
_chemical_formula_sum "Si O2"
_cell_formula_units_Z 48
_cell_length_a 9.513068
_cell_length_b 15.519933
_cell_length_c 14.947051
_cell_angle_alpha 90.000000
_cell_angle_beta 88.614646
_cell_angle_gamma 90.000000
_cell_volume 2206.170118
_symmetry_space_group_name_H-M "C 2/C"
_symmetry_group_IT_number 15
_symmetry_cell_setting 'monoclinic'
loop_
_space_group_symop_operation_xyz
x,y,z
-x,y,1/2-z
-x,-y,-z
x,-y,1/2+z
1/2+x,1/2+y,z
1/2-x,1/2+y,1/2-z
1/2-x,1/2-y,-z
1/2+x,1/2-y,1/2+z
loop_
_atom_site_type_symbol
_atom_site_label
_atom_site_fract_x
_atom_site_fract_y
_atom_site_fract_z
Si Si1 0.500000 0.286633 0.250000
Si Si2 0.500000 0.998131 0.750000
Si Si3 0.000000 0.083887 0.250000
Si Si4 0.795864 0.633315 0.543345
Si Si5 0.556556 0.691197 0.426721
Si Si6 0.961716 0.357128 0.603200
Si Si7 0.274409 0.565614 0.768388
Si Si8 0.250000 0.250000 0.000000
O O1 0.489125 0.225209 0.336803
O O2 0.633204 0.350620 0.257926
O O3 0.448892 0.934259 0.673506
O O4 0.630455 0.055806 0.715605
O O5 0.975485 0.143317 0.164498
O O6 0.868305 0.018986 0.256779
O O7 0.648601 0.634339 0.493183
O O8 0.841679 0.725727 0.584453
O O9 0.774230 0.574563 0.628793
O O10 0.919513 0.616357 0.470507
O O11 0.411586 0.721939 0.472065
O O12 0.816820 0.330077 0.559274
#
# Coordination Sequence:
#
# PCOD9269897 Si02
#       8
#     4   4   4   8   8   8   8   4
#     4  10  22  42  64  86 122 172 220 254 308 384
#     4  11  24  42  64  95 134 164 202 263 326 368
#     4  11  24  42  64  91 128 168 202 245 320 388
#     4  10  22  41  63  89 124 164 212 259 308 367
#     4  10  21  40  64  92 123 165 213 261 307 369
#     4  10  22  43  67  90 123 170 215 261 309 372
#     4  11  24  39  60  93 128 164 203 257 319 376
#     4  10  20  34  64  96 116 150 214 262 300 352
#
# _framework density 21.757162000000001
#
# number of rings (size 3 to 8) (size 9 to 14) (size 15 to 20)
#    0.000    1.667    0.000    5.000    0.000    8.667 
#    0.000    6.667    0.000    0.000    0.000    0.000 
#    0.000    0.000    0.000    0.000    0.000    0.000 
#
# Total GULP energy -133629.804102 kJ/mol
# GULP energy per Si atom -5567.908504 kJ/mol
# Density = 2.170764 g / cm^3
# Si number density = 21.757162 Si / 1000 Ang^3
#
#
#
# Elastic Constant Matrix: (Units=GPa)
#
#
# Indices 1 2 3 4 5 6 
#
# 1 147.0687 16.9628 11.7436 0.0000 4.8593 0.0000
# 2 16.9628 36.9304 6.4032 0.0000 -6.8494 0.0000
# 3 11.7436 6.4032 50.8601 0.0000 -14.2913 0.0000
# 4 0.0000 0.0000 0.0000 30.2144 0.0000 5.1847
# 5 4.8593 -6.8494 -14.2913 0.0000 25.9266 0.0000
# 6 0.0000 0.0000 0.0000 5.1847 0.0000 -5.2153
#
#
#
# Elastic Compliance Matrix: (Units=1/GPa)
#
#
# Indices 1 2 3 4 5 6 
#
# 1 0.007536 -0.003743 -0.002300 0.000000 -0.003669 0.000000
# 2 -0.003743 0.030463 -0.000606 0.000000 0.008415 0.000000
# 3 -0.002300 -0.000606 0.024074 0.000000 0.013541 0.000000
# 4 0.000000 0.000000 0.000000 0.028274 0.000000 0.028108
# 5 -0.003669 0.008415 0.013541 0.000000 0.048945 0.000000
# 6 0.000000 0.000000 0.000000 0.028108 0.000000 -0.163800
#
#
# Mechanical properties :
#
#
# Convention : Reuss Voigt Hill
#
# Bulk Modulus (GPa) = 20.50250 33.89762 27.20006
# Shear Modulus (GPa) = 990.33820 23.50179 506.91999
#
# Velocity S-wave (km/s) = 21.35805 3.29018 15.28057
# Velocity P-wave (km/s) = 24.85287 5.48156 17.99601
#
# Compressibility (1/GPa) = 0.04877453
#
# Stress axis : x y z
#
# Youngs Moduli (GPa) = 132.69362 32.82655 41.53858
#
# Poissons Ratio (x) = 0.12288 0.09553
# Poissons Ratio (y) = 0.49670 0.02519
# Poissons Ratio (z) = 0.30517 0.01990
#
# Static dielectric constant tensor:
#      x y z
#    x 1.798170 0.000000 0.035230 
#    y 0.000000 1.815950 0.000000 
#    z 0.035230 0.000000 1.845630 
# 
# From -- ./inp_files/134934.got.cif
#   From: 2010.05.17/outbox.cif.g08.bks.cpg/sg15_68_cif.got.tgz:134934.got - 2010.06.03 18:47:42.
