data_PCOD9269054
_publ_section_title
;
Structure prediction by ZEFSAII (Michael W. Deem and Ramdas Pophale) SiO2 
 PCOD9269054
Probable space group: C 2/C
;
_chemical_formula_sum "Si O2"
_cell_formula_units_Z 40
_cell_length_a 23.603648
_cell_length_b 8.162313
_cell_length_c 10.894928
_cell_angle_alpha 90.000000
_cell_angle_beta 44.204725
_cell_angle_gamma 90.000000
_cell_volume 1463.488132
_symmetry_space_group_name_H-M "C 2/C"
_symmetry_group_IT_number 15
_symmetry_cell_setting 'monoclinic'
loop_
_space_group_symop_operation_xyz
x,y,z
-x,y,1/2-z
-x,-y,-z
x,-y,1/2+z
1/2+x,1/2+y,z
1/2-x,1/2+y,1/2-z
1/2-x,1/2-y,-z
1/2+x,1/2-y,1/2+z
loop_
_atom_site_type_symbol
_atom_site_label
_atom_site_fract_x
_atom_site_fract_y
_atom_site_fract_z
Si Si1 0.643677 0.986460 0.584130
Si Si2 0.641945 0.388412 0.356337
Si Si3 0.734715 0.930514 0.691735
Si Si4 0.985182 0.678519 0.583306
Si Si5 0.950686 0.144663 0.721440
O O1 0.705886 0.993228 0.603745
O O2 0.595478 0.812723 0.667868
O O3 0.679415 0.012464 0.393601
O O4 0.582921 0.134672 0.714433
O O5 0.716417 0.262267 0.215828
O O6 0.474223 0.291883 0.481084
O O7 0.611419 0.450422 0.270144
O O8 0.823726 0.987348 0.596743
O O9 0.566158 0.730423 0.004430
O O10 0.000000 0.500000 0.500000
O O11 0.000000 0.055676 0.750000
#
# Coordination Sequence:
#
# PCOD9269054 Si02
#       5
#     8   8   8   8   8
#     4  10  20  33  65  89 124 160 211 264 303 370
#     4   9  22  36  60  92 127 163 199 268 314 378
#     4  11  22  39  58  96 128 161 207 256 330 367
#     4   8  15  33  52  94 112 157 206 265 291 348
#     4   8  15  28  53  86 118 149 211 261 291 343
#
# _framework density 27.331961
#
# number of rings (size 3 to 8) (size 9 to 14) (size 15 to 20)
#    1.200    1.600    2.000    1.200    2.800    4.000 
#    0.000    0.000    0.000    1.200    0.000    2.800 
#    0.000    1.600    0.000    0.000    0.000    0.000 
#
# Total GULP energy -111622.035795 kJ/mol
# GULP energy per Si atom -5581.101790 kJ/mol
# Density = 2.726975 g / cm^3
# Si number density = 27.331961 Si / 1000 Ang^3
#
#
#
# Elastic Constant Matrix: (Units=GPa)
#
#
# Indices 1 2 3 4 5 6 
#
# 1 255.8556 68.0443 47.7633 0.0000 -19.1871 0.0000
# 2 68.0443 70.8786 44.3341 0.0000 -11.7612 0.0000
# 3 47.7633 44.3341 117.1056 0.0000 -0.1097 0.0000
# 4 0.0000 0.0000 0.0000 50.6384 0.0000 -21.2651
# 5 -19.1871 -11.7612 -0.1097 0.0000 56.1740 0.0000
# 6 0.0000 0.0000 0.0000 -21.2651 0.0000 19.3130
#
#
#
# Elastic Compliance Matrix: (Units=1/GPa)
#
#
# Indices 1 2 3 4 5 6 
#
# 1 0.005293 -0.004711 -0.000375 0.000000 0.000821 0.000000
# 2 -0.004711 0.023554 -0.006993 0.000000 0.003309 0.000000
# 3 -0.000375 -0.006993 0.011338 0.000000 -0.001570 0.000000
# 4 0.000000 0.000000 0.000000 0.036732 0.000000 0.040445
# 5 0.000821 0.003309 -0.001570 0.000000 0.018772 0.000000
# 6 0.000000 0.000000 0.000000 0.040445 0.000000 0.096312
#
#
# Mechanical properties :
#
#
# Convention : Reuss Voigt Hill
#
# Bulk Modulus (GPa) = 62.38800 84.90257 73.64528
# Shear Modulus (GPa) = 22.57342 44.13828 33.35585
#
# Velocity S-wave (km/s) = 2.87696 4.02294 3.49721
# Velocity P-wave (km/s) = 5.82335 7.26014 6.58107
#
# Compressibility (1/GPa) = 0.01602872
#
# Stress axis : x y z
#
# Youngs Moduli (GPa) = 188.93947 42.45613 88.19954
#
# Poissons Ratio (x) = 0.19999 0.03304
# Poissons Ratio (y) = 0.89001 0.61675
# Poissons Ratio (z) = 0.07078 0.29688
#
# Static dielectric constant tensor:
#      x y z
#    x 2.179720 0.000000 0.001270 
#    y 0.000000 2.123210 0.000000 
#    z 0.001270 0.000000 2.458480 
# 
# From -- ./inp_files/172659.got.cif
#   From: 2010.05.17/outbox.cif.g08.bks.cpg/sg15_87_cif.got.tgz:172659.got - 2010.06.03 18:47:42.
