data_PCOD9269919
_publ_section_title
;
Structure prediction by ZEFSAII (Michael W. Deem and Ramdas Pophale) SiO2 
 PCOD9269919
Probable space group: C 2/C
;
_chemical_formula_sum "Si O2"
_cell_formula_units_Z 36
_cell_length_a 10.712261
_cell_length_b 16.367093
_cell_length_c 8.911767
_cell_angle_alpha 90.000000
_cell_angle_beta 98.909897
_cell_angle_gamma 90.000000
_cell_volume 1543.633046
_symmetry_space_group_name_H-M "C 2/C"
_symmetry_group_IT_number 15
_symmetry_cell_setting 'monoclinic'
loop_
_space_group_symop_operation_xyz
x,y,z
-x,y,1/2-z
-x,-y,-z
x,-y,1/2+z
1/2+x,1/2+y,z
1/2-x,1/2+y,1/2-z
1/2-x,1/2-y,-z
1/2+x,1/2-y,1/2+z
loop_
_atom_site_type_symbol
_atom_site_label
_atom_site_fract_x
_atom_site_fract_y
_atom_site_fract_z
Si Si1 0.041217 0.226744 0.931254
Si Si2 0.790616 0.617352 0.012938
Si Si3 0.000000 0.997570 0.250000
Si Si4 0.639133 0.395368 0.011085
Si Si5 0.150015 0.465652 0.285317
O O1 0.156161 0.163451 0.987028
O O2 0.000000 0.225151 0.750000
O O3 0.920253 0.194619 0.000039
O O4 0.100159 0.314755 0.973788
O O5 0.801836 0.563294 0.866603
O O6 0.809741 0.556235 0.154806
O O7 0.930593 0.942323 0.361856
O O8 0.094752 0.056126 0.357551
O O9 0.785033 0.405345 0.080469
O O10 0.000000 0.461759 0.250000
#
# Coordination Sequence:
#
# PCOD9269919 Si02
#       5
#     8   8   4   8   8
#     4  11  22  43  70 102 136 179 225 286 349 403
#     4  11  25  43  72  99 139 180 229 282 346 406
#     4  10  20  34  68 102 130 168 228 290 332 398
#     4  11  20  39  66 101 135 173 229 282 339 398
#     4  12  24  43  67 100 136 184 230 274 334 417
#
# _framework density 23.321604000000001
#
# number of rings (size 3 to 8) (size 9 to 14) (size 15 to 20)
#    0.000    0.889    3.333    5.333    0.000    0.000 
#    2.000    3.333    0.000    0.000    0.000    0.000 
#    0.000    0.000    0.000    0.000    0.000    0.000 
#
# Total GULP energy -100777.553330 kJ/mol
# GULP energy per Si atom -5598.752963 kJ/mol
# Density = 2.326852 g / cm^3
# Si number density = 23.321604 Si / 1000 Ang^3
#
#
#
# Elastic Constant Matrix: (Units=GPa)
#
#
# Indices 1 2 3 4 5 6 
#
# 1 104.8257 61.8780 44.9607 0.0000 45.3897 0.0000
# 2 61.8780 153.2754 55.8093 0.0000 16.7964 0.0000
# 3 44.9607 55.8093 112.6760 0.0000 27.8252 0.0000
# 4 0.0000 0.0000 0.0000 26.3892 0.0000 10.8169
# 5 45.3897 16.7964 27.8252 0.0000 39.2839 0.0000
# 6 0.0000 0.0000 0.0000 10.8169 0.0000 34.5791
#
#
#
# Elastic Compliance Matrix: (Units=1/GPa)
#
#
# Indices 1 2 3 4 5 6 
#
# 1 0.024979 -0.007257 -0.000014 0.000000 -0.025748 0.000000
# 2 -0.007257 0.010086 -0.003764 0.000000 0.006739 0.000000
# 3 -0.000014 -0.003764 0.012536 0.000000 -0.007254 0.000000
# 4 0.000000 0.000000 0.000000 0.043468 0.000000 -0.013597
# 5 -0.025748 0.006739 -0.007254 0.000000 0.057463 0.000000
# 6 0.000000 0.000000 0.000000 -0.013597 0.000000 0.033173
#
#
# Mechanical properties :
#
#
# Convention : Reuss Voigt Hill
#
# Bulk Modulus (GPa) = 39.16931 77.34147 58.25539
# Shear Modulus (GPa) = 23.55326 33.92571 28.73948
#
# Velocity S-wave (km/s) = 3.18139 3.81818 3.51424
# Velocity P-wave (km/s) = 5.50697 7.25762 6.44204
#
# Compressibility (1/GPa) = 0.02553019
#
# Stress axis : x y z
#
# Youngs Moduli (GPa) = 40.03431 99.14670 79.76807
#
# Poissons Ratio (x) = 0.71954 0.00112
# Poissons Ratio (y) = 0.29054 0.30025
# Poissons Ratio (z) = 0.00056 0.37319
#
# Static dielectric constant tensor:
#      x y z
#    x 1.938650 0.000000 0.007200 
#    y 0.000000 1.886070 0.000000 
#    z 0.007200 0.000000 1.852270 
# 
# From -- ./inp_files/28824.got.cif
#   From: 2010.05.17/outbox.cif.g08.bks.cpg/sg15_15_cif.got.tgz:28824.got - 2010.06.03 18:47:42.
