data_PCOD9269782
_publ_section_title
;
Structure prediction by ZEFSAII (Michael W. Deem and Ramdas Pophale) SiO2 
 PCOD9269782
Probable space group: C 2/C
;
_chemical_formula_sum "Si O2"
_cell_formula_units_Z 52
_cell_length_a 19.360360
_cell_length_b 18.208486
_cell_length_c 13.435292
_cell_angle_alpha 90.000000
_cell_angle_beta 33.624020
_cell_angle_gamma 90.000000
_cell_volume 2622.652848
_symmetry_space_group_name_H-M "C 2/C"
_symmetry_group_IT_number 15
_symmetry_cell_setting 'monoclinic'
loop_
_space_group_symop_operation_xyz
x,y,z
-x,y,1/2-z
-x,-y,-z
x,-y,1/2+z
1/2+x,1/2+y,z
1/2-x,1/2+y,1/2-z
1/2-x,1/2-y,-z
1/2+x,1/2-y,1/2+z
loop_
_atom_site_type_symbol
_atom_site_label
_atom_site_fract_x
_atom_site_fract_y
_atom_site_fract_z
Si Si1 0.913364 0.928670 0.089953
Si Si2 0.828465 0.233644 0.025479
Si Si3 0.019107 0.391845 0.962020
Si Si4 0.139394 0.078570 0.619705
Si Si5 0.454534 0.270760 0.067646
Si Si6 0.500000 0.854546 0.750000
Si Si7 0.799316 0.507174 0.790251
O O1 0.861118 0.913730 0.262466
O O2 0.965741 0.848335 0.997066
O O3 0.807024 0.953376 0.143595
O O4 0.000000 0.000000 0.000000
O O5 0.692042 0.257272 0.227766
O O6 0.831118 0.156321 0.966232
O O7 0.881677 0.300022 0.894746
O O8 0.939349 0.223515 0.973795
O O9 0.013668 0.310088 0.011176
O O10 0.151709 0.431314 0.817518
O O11 0.999056 0.391621 0.862836
O O12 0.917556 0.440174 0.141049
O O13 0.000000 0.057391 0.750000
O O14 0.239326 0.018302 0.465479
#
# Coordination Sequence:
#
# PCOD9269782 Si02
#       7
#     8   8   8   8   8   4   8
#     4  12  24  38  61  94 122 163 206 249 314 370
#     4  11  21  34  60  98 127 157 198 245 334 401
#     4  10  23  38  59  91 130 163 199 253 310 381
#     4  12  21  40  61  86 131 163 194 263 307 373
#     4  11  22  38  62  92 130 164 199 257 319 383
#     4  10  20  34  60  94 128 162 194 244 324 392
#     4  11  24  40  57  93 128 159 212 245 308 377
#
# _framework density 19.827252999999999
#
# number of rings (size 3 to 8) (size 9 to 14) (size 15 to 20)
#    0.000    0.923    5.385    2.769    4.308    3.077 
#    0.000    0.000    0.000    0.923    4.000    0.000 
#    0.000    0.000    0.000    0.000    0.000    0.000 
#
# Total GULP energy -144906.065083 kJ/mol
# GULP energy per Si atom -5573.310196 kJ/mol
# Density = 1.978213 g / cm^3
# Si number density = 19.827253 Si / 1000 Ang^3
#
#
#
# Elastic Constant Matrix: (Units=GPa)
#
#
# Indices 1 2 3 4 5 6 
#
# 1 32.4827 9.8473 -2.2849 0.0001 -13.7615 0.0000
# 2 9.8473 144.7979 24.4664 0.0000 -1.9653 0.0000
# 3 -2.2849 24.4664 71.9546 0.0001 -16.1961 0.0000
# 4 0.0001 0.0000 0.0001 41.8828 0.0000 -6.8246
# 5 -13.7615 -1.9653 -16.1961 0.0000 25.0536 0.0000
# 6 0.0000 0.0000 0.0000 -6.8246 0.0000 18.5483
#
#
#
# Elastic Compliance Matrix: (Units=1/GPa)
#
#
# Indices 1 2 3 4 5 6 
#
# 1 0.046191 -0.004414 0.010065 0.000000 0.031532 0.000000
# 2 -0.004414 0.007781 -0.003738 0.000000 -0.004231 0.000000
# 3 0.010065 -0.003738 0.019505 0.000000 0.017845 0.000000
# 4 0.000000 0.000000 0.000000 0.025399 0.000000 0.009345
# 5 0.031532 -0.004231 0.017845 0.000000 0.068439 0.000000
# 6 0.000000 0.000000 0.000000 0.009345 0.000000 0.057352
#
#
# Mechanical properties :
#
#
# Convention : Reuss Voigt Hill
#
# Bulk Modulus (GPa) = 12.93620 34.81030 23.87325
# Shear Modulus (GPa) = 20.27519 31.57736 25.92627
#
# Velocity S-wave (km/s) = 3.20127 3.99510 3.62001
# Velocity P-wave (km/s) = 4.49475 6.23506 5.43501
#
# Compressibility (1/GPa) = 0.07730246
#
# Stress axis : x y z
#
# Youngs Moduli (GPa) = 21.64938 128.52554 51.26911
#
# Poissons Ratio (x) = 0.56732 -0.51603
# Poissons Ratio (y) = 0.09556 0.19165
# Poissons Ratio (z) = -0.21791 0.48043
#
# Static dielectric constant tensor:
#      x y z
#    x 1.714530 0.000000 -0.028060 
#    y 0.000000 1.776820 0.000000 
#    z -0.028060 0.000000 1.731250 
# 
# From -- ./inp_files/168970.got.cif
#   From: 2010.05.17/outbox.cif.g08.bks.cpg/sg15_85_cif.got.tgz:168970.got - 2010.06.03 18:47:42.
