data_PCOD9269600
_publ_section_title
;
Structure prediction by ZEFSAII (Michael W. Deem and Ramdas Pophale) SiO2 
 PCOD9269600
Probable space group: C 2/C
;
_chemical_formula_sum "Si O2"
_cell_formula_units_Z 32
_cell_length_a 19.231271
_cell_length_b 13.895181
_cell_length_c 5.358272
_cell_angle_alpha 90.000000
_cell_angle_beta 55.263297
_cell_angle_gamma 90.000000
_cell_volume 1176.662996
_symmetry_space_group_name_H-M "C 2/C"
_symmetry_group_IT_number 15
_symmetry_cell_setting 'monoclinic'
loop_
_space_group_symop_operation_xyz
x,y,z
-x,y,1/2-z
-x,-y,-z
x,-y,1/2+z
1/2+x,1/2+y,z
1/2-x,1/2+y,1/2-z
1/2-x,1/2-y,-z
1/2+x,1/2-y,1/2+z
loop_
_atom_site_type_symbol
_atom_site_label
_atom_site_fract_x
_atom_site_fract_y
_atom_site_fract_z
Si Si1 0.770163 0.594811 0.353560
Si Si2 0.657335 0.727996 0.936986
Si Si3 0.111383 0.962855 0.662411
Si Si4 0.947783 0.621606 0.102843
O O1 0.703474 0.514368 0.420494
O O2 0.859375 0.563031 0.289310
O O3 0.722335 0.664305 0.645770
O O4 0.798395 0.671108 0.076261
O O5 0.618870 0.650539 0.204829
O O6 0.585808 0.771133 0.898636
O O7 0.073893 0.976443 0.464382
O O8 0.000000 0.620866 0.250000
O O9 0.000000 0.590935 0.750000
#
# Coordination Sequence:
#
# PCOD9269600 Si02
#       4
#     8   8   8   8
#     4   8  18  38  60  91 110 160 196 243 288 344
#     4   8  18  38  60  91 110 160 196 243 288 344
#     4  10  20  34  58  86 118 142 196 246 280 340
#     4  10  21  36  59  88 120 152 190 240 303 352
#
# _framework density 27.195553
#
# number of rings (size 3 to 8) (size 9 to 14) (size 15 to 20)
#    1.500    1.500    0.000    0.000    0.000    9.000 
#    0.000    0.000    0.000   36.000    0.000    0.000 
#    0.000    0.000    0.000    0.000    0.000    0.000 
#
# Total GULP energy -89281.127677 kJ/mol
# GULP energy per Si atom -5580.070480 kJ/mol
# Density = 2.713365 g / cm^3
# Si number density = 27.195553 Si / 1000 Ang^3
#
#
#
# Elastic Constant Matrix: (Units=GPa)
#
#
# Indices 1 2 3 4 5 6 
#
# 1 150.0505 35.6673 39.4176 0.0000 -7.2501 0.0000
# 2 35.6673 148.9244 13.8166 0.0000 7.1004 0.0000
# 3 39.4176 13.8166 96.2628 0.0000 -1.1357 0.0000
# 4 0.0000 0.0000 0.0000 5.6427 0.0000 1.0102
# 5 -7.2501 7.1004 -1.1357 0.0000 42.8182 0.0000
# 6 0.0000 0.0000 0.0000 1.0102 0.0000 16.6918
#
#
#
# Elastic Compliance Matrix: (Units=1/GPa)
#
#
# Indices 1 2 3 4 5 6 
#
# 1 0.007926 -0.001695 -0.002984 0.000000 0.001544 0.000000
# 2 -0.001695 0.007225 -0.000361 0.000000 -0.001495 0.000000
# 3 -0.002984 -0.000361 0.011660 0.000000 -0.000136 0.000000
# 4 0.000000 0.000000 0.000000 0.179162 0.000000 -0.010843
# 5 0.001544 -0.001495 -0.000136 0.000000 0.023860 0.000000
# 6 0.000000 0.000000 0.000000 -0.010843 0.000000 0.060566
#
#
# Mechanical properties :
#
#
# Convention : Reuss Voigt Hill
#
# Bulk Modulus (GPa) = 59.76443 63.67119 61.71781
# Shear Modulus (GPa) = 16.33689 33.45296 24.89493
#
# Velocity S-wave (km/s) = 2.45362 3.51107 3.02885
# Velocity P-wave (km/s) = 5.48183 6.31664 5.91399
#
# Compressibility (1/GPa) = 0.01673236
#
# Stress axis : x y z
#
# Youngs Moduli (GPa) = 126.17030 138.39890 85.76146
#
# Poissons Ratio (x) = 0.23459 0.25591
# Poissons Ratio (y) = 0.21386 0.03093
# Poissons Ratio (z) = 0.37649 0.04991
#
# Static dielectric constant tensor:
#      x y z
#    x 2.263500 0.000000 -0.048790 
#    y 0.000000 2.125670 0.000000 
#    z -0.048790 0.000000 2.207080 
# 
# From -- ./inp_files/6718.got.cif
#   From: 2010.05.17/outbox.cif.g08.bks.cpg/sg15_4_cif.got.tgz:6718.got - 2010.06.03 18:47:42.
