data_PCOD9269871
_publ_section_title
;
Structure prediction by ZEFSAII (Michael W. Deem and Ramdas Pophale) SiO2 
 PCOD9269871
Probable space group: C 2/C
;
_chemical_formula_sum "Si O2"
_cell_formula_units_Z 52
_cell_length_a 14.656501
_cell_length_b 12.934352
_cell_length_c 16.267867
_cell_angle_alpha 90.000000
_cell_angle_beta 126.439691
_cell_angle_gamma 90.000000
_cell_volume 2480.973943
_symmetry_space_group_name_H-M "C 2/C"
_symmetry_group_IT_number 15
_symmetry_cell_setting 'monoclinic'
loop_
_space_group_symop_operation_xyz
x,y,z
-x,y,1/2-z
-x,-y,-z
x,-y,1/2+z
1/2+x,1/2+y,z
1/2-x,1/2+y,1/2-z
1/2-x,1/2-y,-z
1/2+x,1/2-y,1/2+z
loop_
_atom_site_type_symbol
_atom_site_label
_atom_site_fract_x
_atom_site_fract_y
_atom_site_fract_z
Si Si1 0.500000 0.424494 0.250000
Si Si2 0.898746 0.309685 0.444273
Si Si3 0.000000 0.757928 0.750000
Si Si4 0.690715 0.336338 0.732699
Si Si5 0.000000 0.581181 0.250000
Si Si6 0.264451 0.498351 0.125073
Si Si7 0.921559 0.594318 0.585138
Si Si8 0.081492 0.745873 0.177718
O O1 0.392075 0.487330 0.161029
O O2 0.551342 0.352066 0.206118
O O3 0.855202 0.203583 0.379451
O O4 0.795638 0.386655 0.408878
O O5 0.976096 0.374502 0.421227
O O6 0.978484 0.284558 0.563462
O O7 0.085332 0.817159 0.736656
O O8 0.079592 0.685776 0.849456
O O9 0.731675 0.450483 0.781464
O O10 0.799027 0.261206 0.804723
O O11 0.948967 0.507926 0.152531
O O12 0.912449 0.658126 0.247900
O O13 0.188683 0.573091 0.028108
#
# Coordination Sequence:
#
# PCOD9269871 Si02
#       8
#     4   8   4   8   4   8   8   8
#     4  11  27  41  61 102 146 166 218 272 352 386
#     4  11  22  42  69  95 125 178 233 268 326 400
#     4   9  23  41  61 100 128 170 228 274 326 408
#     4  11  23  42  66  94 134 176 223 278 333 394
#     4  10  20  34  64 100 122 162 224 270 322 378
#     4  12  22  41  66  93 132 176 215 277 330 398
#     4  10  20  38  66  96 123 164 229 275 315 388
#     4  11  22  42  65  94 135 176 213 279 333 396
#
# _framework density 20.959510999999999
#
# number of rings (size 3 to 8) (size 9 to 14) (size 15 to 20)
#    0.000    1.231    4.615    1.846    0.000    2.462 
#    2.769    0.769    0.000    0.000    0.000    0.000 
#    0.000    0.000    0.000    0.000    0.000    0.000 
#
# Total GULP energy -145101.789313 kJ/mol
# GULP energy per Si atom -5580.838050 kJ/mol
# Density = 2.091181 g / cm^3
# Si number density = 20.959511 Si / 1000 Ang^3
#
#
#
# Elastic Constant Matrix: (Units=GPa)
#
#
# Indices 1 2 3 4 5 6 
#
# 1 54.6884 -0.8910 28.1453 0.0000 18.9032 0.0000
# 2 -0.8910 44.0769 26.0846 0.0000 -1.8231 0.0000
# 3 28.1453 26.0846 103.2859 0.0000 14.4650 0.0000
# 4 0.0000 0.0000 0.0000 27.3691 0.0000 -0.5843
# 5 18.9032 -1.8231 14.4650 0.0000 33.6046 0.0000
# 6 0.0000 0.0000 0.0000 -0.5843 0.0000 21.2207
#
#
#
# Elastic Compliance Matrix: (Units=1/GPa)
#
#
# Indices 1 2 3 4 5 6 
#
# 1 0.025555 0.003780 -0.006314 0.000000 -0.011452 0.000000
# 2 0.003780 0.027927 -0.008510 0.000000 0.003052 0.000000
# 3 -0.006314 -0.008510 0.013961 0.000000 -0.002919 0.000000
# 4 0.000000 0.000000 0.000000 0.036559 0.000000 0.001007
# 5 -0.011452 0.003052 -0.002919 0.000000 0.037622 0.000000
# 6 0.000000 0.000000 0.000000 0.001007 0.000000 0.047152
#
#
# Mechanical properties :
#
#
# Convention : Reuss Voigt Hill
#
# Bulk Modulus (GPa) = 22.04947 34.30322 28.17635
# Shear Modulus (GPa) = 22.12564 26.35305 24.23934
#
# Velocity S-wave (km/s) = 3.25258 3.54973 3.40440
# Velocity P-wave (km/s) = 4.96473 5.76218 5.37826
#
# Compressibility (1/GPa) = 0.04535257
#
# Stress axis : x y z
#
# Youngs Moduli (GPa) = 39.13100 35.80811 71.63019
#
# Poissons Ratio (x) = -0.13535 0.45231
# Poissons Ratio (y) = -0.14791 0.60959
# Poissons Ratio (z) = 0.24709 0.30474
#
# Static dielectric constant tensor:
#      x y z
#    x 1.768100 0.000000 -0.003560 
#    y 0.000000 1.790140 0.000000 
#    z -0.003560 0.000000 1.745100 
# 
# From -- ./inp_files/153379.got.cif
#   From: 2010.05.17/outbox.cif.g08.bks.cpg/sg15_77_cif.got.tgz:153379.got - 2010.06.03 18:47:42.
