data_PCOD9269549
_publ_section_title
;
Structure prediction by ZEFSAII (Michael W. Deem and Ramdas Pophale) SiO2 
 PCOD9269549
Probable space group: C 2/C
;
_chemical_formula_sum "Si O2"
_cell_formula_units_Z 48
_cell_length_a 14.862869
_cell_length_b 12.781745
_cell_length_c 10.511621
_cell_angle_alpha 90.000000
_cell_angle_beta 65.882175
_cell_angle_gamma 90.000000
_cell_volume 1822.610725
_symmetry_space_group_name_H-M "C 2/C"
_symmetry_group_IT_number 15
_symmetry_cell_setting 'monoclinic'
loop_
_space_group_symop_operation_xyz
x,y,z
-x,y,1/2-z
-x,-y,-z
x,-y,1/2+z
1/2+x,1/2+y,z
1/2-x,1/2+y,1/2-z
1/2-x,1/2-y,-z
1/2+x,1/2-y,1/2+z
loop_
_atom_site_type_symbol
_atom_site_label
_atom_site_fract_x
_atom_site_fract_y
_atom_site_fract_z
Si Si1 0.120407 0.110423 0.914264
Si Si2 0.465680 0.895686 0.449258
Si Si3 0.210071 0.374811 0.784087
Si Si4 0.394915 0.739790 0.830677
Si Si5 0.589488 0.638193 0.403877
Si Si6 0.839606 0.398830 0.276168
O O1 0.106570 0.147988 0.774978
O O2 0.232944 0.143652 0.879742
O O3 0.110140 0.984926 0.924185
O O4 0.027499 0.146506 0.053918
O O5 0.382758 0.836663 0.579111
O O6 0.402099 0.928609 0.363761
O O7 0.571188 0.842380 0.353411
O O8 0.500000 0.000000 0.500000
O O9 0.188110 0.321874 0.660268
O O10 0.322358 0.345086 0.749145
O O11 0.193131 0.498818 0.784524
O O12 0.500000 0.795888 0.750000
O O13 0.391947 0.696270 0.972987
#
# Coordination Sequence:
#
# PCOD9269549 Si02
#       6
#     8   8   8   8   8   8
#     4   9  19  37  56  80 114 158 200 234 283 363
#     4   9  19  34  55  85 115 156 194 237 298 353
#     4  10  20  34  57  91 118 149 196 250 300 342
#     4  10  21  36  57  90 120 151 190 258 299 344
#     4   9  19  36  56  81 119 156 198 236 294 349
#     4   9  19  36  58  82 119 161 196 239 287 361
#
# _framework density 26.335847999999999
#
# number of rings (size 3 to 8) (size 9 to 14) (size 15 to 20)
#    0.000    2.667    0.000    0.500    4.667    8.000 
#    6.000    3.333    0.000    0.000    8.667    0.000 
#    0.000    0.000    0.000    0.000    0.000    0.000 
#
# Total GULP energy -133916.295429 kJ/mol
# GULP energy per Si atom -5579.845643 kJ/mol
# Density = 2.627591 g / cm^3
# Si number density = 26.335848 Si / 1000 Ang^3
#
#
#
# Elastic Constant Matrix: (Units=GPa)
#
#
# Indices 1 2 3 4 5 6 
#
# 1 187.6730 10.8637 95.2341 0.0000 -82.0470 0.0000
# 2 10.8637 45.2255 30.8999 0.0000 -27.4262 0.0000
# 3 95.2341 30.8999 132.8211 0.0000 -66.8656 0.0000
# 4 0.0000 0.0000 0.0000 35.1328 0.0000 -11.3534
# 5 -82.0470 -27.4262 -66.8656 0.0000 87.8434 0.0000
# 6 0.0000 0.0000 0.0000 -11.3534 0.0000 21.5553
#
#
#
# Elastic Compliance Matrix: (Units=1/GPa)
#
#
# Indices 1 2 3 4 5 6 
#
# 1 0.011365 0.006018 -0.005284 0.000000 0.008472 0.000000
# 2 0.006018 0.031406 -0.006250 0.000000 0.010669 0.000000
# 3 -0.005284 -0.006250 0.015086 0.000000 0.004596 0.000000
# 4 0.000000 0.000000 0.000000 0.034302 0.000000 0.018067
# 5 0.008472 0.010669 0.004596 0.000000 0.026126 0.000000
# 6 0.000000 0.000000 0.000000 0.018067 0.000000 0.055909
#
#
# Mechanical properties :
#
#
# Convention : Reuss Voigt Hill
#
# Bulk Modulus (GPa) = 21.35663 71.07945 46.21804
# Shear Modulus (GPa) = 24.89605 44.15440 34.52522
#
# Velocity S-wave (km/s) = 3.07796 4.09906 3.62465
# Velocity P-wave (km/s) = 4.55617 7.03216 5.92495
#
# Compressibility (1/GPa) = 0.04682386
#
# Stress axis : x y z
#
# Youngs Moduli (GPa) = 87.98780 31.84088 66.28864
#
# Poissons Ratio (x) = -0.19161 0.35026
# Poissons Ratio (y) = -0.52950 0.41434
# Poissons Ratio (z) = 0.46492 0.19902
#
# Static dielectric constant tensor:
#      x y z
#    x 2.045820 0.000000 -0.080030 
#    y 0.000000 2.166430 0.000000 
#    z -0.080030 0.000000 2.159120 
# 
# From -- ./inp_files/96872.got.cif
#   From: 2010.05.17/outbox.cif.g08.bks.cpg/sg15_49_cif.got.tgz:96872.got - 2010.06.03 18:47:42.
