data_PCOD9269723
_publ_section_title
;
Structure prediction by ZEFSAII (Michael W. Deem and Ramdas Pophale) SiO2 
 PCOD9269723
Probable space group: C 2/C
;
_chemical_formula_sum "Si O2"
_cell_formula_units_Z 52
_cell_length_a 20.298448
_cell_length_b 26.842576
_cell_length_c 9.206884
_cell_angle_alpha 90.000000
_cell_angle_beta 29.647975
_cell_angle_gamma 90.000000
_cell_volume 2481.504351
_symmetry_space_group_name_H-M "C 2/C"
_symmetry_group_IT_number 15
_symmetry_cell_setting 'monoclinic'
loop_
_space_group_symop_operation_xyz
x,y,z
-x,y,1/2-z
-x,-y,-z
x,-y,1/2+z
1/2+x,1/2+y,z
1/2-x,1/2+y,1/2-z
1/2-x,1/2-y,-z
1/2+x,1/2-y,1/2+z
loop_
_atom_site_type_symbol
_atom_site_label
_atom_site_fract_x
_atom_site_fract_y
_atom_site_fract_z
Si Si1 0.175315 0.593848 0.063717
Si Si2 0.217062 0.679332 0.584711
Si Si3 0.623318 0.076829 0.819523
Si Si4 0.000000 0.996359 0.250000
Si Si5 0.093884 0.296633 0.781777
Si Si6 0.267134 0.247968 0.217401
Si Si7 0.681447 0.504211 0.159918
O O1 0.181106 0.652743 0.089392
O O2 0.033145 0.580688 0.408154
O O3 0.151470 0.584825 0.937160
O O4 0.293194 0.555593 0.880106
O O5 0.210674 0.620570 0.579717
O O6 0.298851 0.702467 0.562385
O O7 0.256855 0.707305 0.361831
O O8 0.062455 0.691620 0.923562
O O9 0.677615 0.026089 0.652449
O O10 0.878494 0.974071 0.576104
O O11 0.080502 0.021436 0.226883
O O12 0.143928 0.260027 0.559724
O O13 0.123461 0.272472 0.881014
#
# Coordination Sequence:
#
# PCOD9269723 Si02
#       7
#     8   8   8   4   8   8   8
#     4  10  20  37  65  95 116 149 191 258 307 343
#     4  10  20  37  62  86 118 151 192 240 304 340
#     4  10  20  37  65  95 116 149 191 258 307 343
#     4  10  24  38  62  78 116 186 184 232 280 346
#     4  10  20  37  62  86 118 151 192 240 304 340
#     4  10  20  34  60  82 116 156 186 234 288 350
#     4  11  21  42  64  86 123 157 204 232 288 365
#
# _framework density 20.955030000000001
#
# number of rings (size 3 to 8) (size 9 to 14) (size 15 to 20)
#    0.000    1.846    3.077    1.385    0.000    1.231 
#    0.000    1.538   67.692    0.000    0.000    0.000 
#    0.000    0.000    0.000    0.000    0.000    0.000 
#
# Total GULP energy -144749.777466 kJ/mol
# GULP energy per Si atom -5567.299133 kJ/mol
# Density = 2.090733 g / cm^3
# Si number density = 20.955030 Si / 1000 Ang^3
#
#
#
# Elastic Constant Matrix: (Units=GPa)
#
#
# Indices 1 2 3 4 5 6 
#
# 1 70.8228 12.1271 18.3276 -0.0001 17.3665 0.0000
# 2 12.1271 81.0732 29.1339 0.0000 3.3462 0.0000
# 3 18.3276 29.1339 69.5020 -0.0002 18.6903 0.0000
# 4 -0.0001 0.0000 -0.0002 30.6417 0.0001 -1.4961
# 5 17.3665 3.3462 18.6903 0.0001 34.3159 0.0000
# 6 0.0000 0.0000 0.0000 -1.4961 0.0000 9.9810
#
#
#
# Elastic Compliance Matrix: (Units=1/GPa)
#
#
# Indices 1 2 3 4 5 6 
#
# 1 0.016634 -0.001550 -0.001774 0.000000 -0.007301 0.000000
# 2 -0.001550 0.014813 -0.006588 0.000000 0.002928 0.000000
# 3 -0.001774 -0.006588 0.020155 0.000000 -0.009438 0.000000
# 4 0.000000 0.000000 0.000000 0.032876 0.000000 0.004928
# 5 -0.007301 0.002928 -0.009438 0.000000 0.037691 0.000000
# 6 0.000000 0.000000 0.000000 0.004928 0.000000 0.100929
#
#
# Mechanical properties :
#
#
# Convention : Reuss Voigt Hill
#
# Bulk Modulus (GPa) = 31.46595 37.84168 34.65382
# Shear Modulus (GPa) = 19.72279 25.77500 22.74890
#
# Velocity S-wave (km/s) = 3.07122 3.51096 3.29843
# Velocity P-wave (km/s) = 5.25595 5.87652 5.57488
#
# Compressibility (1/GPa) = 0.03178038
#
# Stress axis : x y z
#
# Youngs Moduli (GPa) = 60.11643 67.50875 49.61474
#
# Poissons Ratio (x) = 0.10461 0.08799
# Poissons Ratio (y) = 0.09315 0.32686
# Poissons Ratio (z) = 0.10662 0.44475
#
# Static dielectric constant tensor:
#      x y z
#    x 1.755270 0.000000 -0.013740 
#    y 0.000000 1.783010 0.000000 
#    z -0.013740 0.000000 1.788500 
# 
# From -- ./inp_files/59305.got.cif
#   From: 2010.05.17/outbox.cif.g08.bks.cpg/sg15_30_cif.got.tgz:59305.got - 2010.06.03 18:47:42.
