data_PCOD9269850
_publ_section_title
;
Structure prediction by ZEFSAII (Michael W. Deem and Ramdas Pophale) SiO2 
 PCOD9269850
Probable space group: C 2/C
;
_chemical_formula_sum "Si O2"
_cell_formula_units_Z 56
_cell_length_a 17.459304
_cell_length_b 18.544930
_cell_length_c 9.038512
_cell_angle_alpha 90.000000
_cell_angle_beta 60.493097
_cell_angle_gamma 90.000000
_cell_volume 2546.925447
_symmetry_space_group_name_H-M "C 2/C"
_symmetry_group_IT_number 15
_symmetry_cell_setting 'monoclinic'
loop_
_space_group_symop_operation_xyz
x,y,z
-x,y,1/2-z
-x,-y,-z
x,-y,1/2+z
1/2+x,1/2+y,z
1/2-x,1/2+y,1/2-z
1/2-x,1/2-y,-z
1/2+x,1/2-y,1/2+z
loop_
_atom_site_type_symbol
_atom_site_label
_atom_site_fract_x
_atom_site_fract_y
_atom_site_fract_z
Si Si1 0.578101 0.407910 0.890077
Si Si2 0.845196 0.352106 0.083864
Si Si3 0.366215 0.724496 0.298119
Si Si4 0.145286 0.528770 0.683914
Si Si5 0.000000 0.982282 0.250000
Si Si6 0.000000 0.578587 0.250000
Si Si7 0.327252 0.161477 0.045196
Si Si8 0.756243 0.387148 0.900492
O O1 0.561875 0.331456 0.827764
O O2 0.571992 0.464473 0.759222
O O3 0.669655 0.394189 0.886879
O O4 0.522492 0.434918 0.084023
O O5 0.851932 0.283115 0.181617
O O6 0.832391 0.422310 0.197734
O O7 0.933873 0.372333 0.908843
O O8 0.764779 0.345248 0.045474
O O9 0.383212 0.772637 0.426718
O O10 0.273452 0.681010 0.411015
O O11 0.140474 0.586652 0.556648
O O12 0.218549 0.469032 0.585469
O O13 0.059854 0.478529 0.784109
O O14 0.324188 0.150606 0.222550
#
# Coordination Sequence:
#
# PCOD9269850 Si02
#       8
#     8   8   8   8   4   4   8   8
#     4  10  23  41  64  83 120 154 202 263 316 361
#     4  10  21  35  57  92 125 159 202 242 297 370
#     4   9  20  40  59  84 120 159 200 244 299 362
#     4  10  20  35  58  90 120 160 200 245 297 355
#     4  10  24  45  59  90 116 152 210 268 310 372
#     4  10  20  35  55  86 132 160 196 244 296 360
#     4   9  19  36  57  85 120 152 198 245 289 361
#     4  10  20  34  62  93 117 155 200 249 305 352
#
# _framework density 21.987295
#
# number of rings (size 3 to 8) (size 9 to 14) (size 15 to 20)
#    0.000    2.286    0.000    2.143    6.000    4.000 
#    0.000    8.571    0.000    0.000    0.000    0.000 
#    0.000    0.000    0.000    0.000    0.000    0.000 
#
# Total GULP energy -155961.007849 kJ/mol
# GULP energy per Si atom -5570.035995 kJ/mol
# Density = 2.193725 g / cm^3
# Si number density = 21.987295 Si / 1000 Ang^3
#
#
#
# Elastic Constant Matrix: (Units=GPa)
#
#
# Indices 1 2 3 4 5 6 
#
# 1 67.7287 19.1209 12.6892 0.0000 18.2112 0.0000
# 2 19.1209 113.6118 36.5676 0.0000 -5.1286 0.0000
# 3 12.6892 36.5676 79.6041 0.0000 12.7524 0.0000
# 4 0.0000 0.0000 0.0000 18.4337 0.0000 -6.8129
# 5 18.2112 -5.1286 12.7524 0.0000 20.6134 0.0000
# 6 0.0000 0.0000 0.0000 -6.8129 0.0000 10.3895
#
#
#
# Elastic Compliance Matrix: (Units=1/GPa)
#
#
# Indices 1 2 3 4 5 6 
#
# 1 0.021823 -0.005525 0.002628 0.000000 -0.022280 0.000000
# 2 -0.005525 0.012471 -0.006801 0.000000 0.012191 0.000000
# 3 0.002628 -0.006801 0.017661 0.000000 -0.014940 0.000000
# 4 0.000000 0.000000 0.000000 0.071601 0.000000 0.046952
# 5 -0.022280 0.012191 -0.014940 0.000000 0.080472 0.000000
# 6 0.000000 0.000000 0.000000 0.046952 0.000000 0.127039
#
#
# Mechanical properties :
#
#
# Convention : Reuss Voigt Hill
#
# Bulk Modulus (GPa) = 30.71240 44.18889 37.45064
# Shear Modulus (GPa) = 13.83834 22.72512 18.28173
#
# Velocity S-wave (km/s) = 2.51146 3.21839 2.88665
# Velocity P-wave (km/s) = 4.73376 5.82681 5.30850
#
# Compressibility (1/GPa) = 0.03256014
#
# Stress axis : x y z
#
# Youngs Moduli (GPa) = 45.82352 80.18556 56.62256
#
# Poissons Ratio (x) = 0.44299 -0.14883
# Poissons Ratio (y) = 0.25315 0.38510
# Poissons Ratio (z) = -0.12044 0.54536
#
# Static dielectric constant tensor:
#      x y z
#    x 1.901950 0.000000 -0.023060 
#    y 0.000000 1.810580 0.000000 
#    z -0.023060 0.000000 1.865520 
# 
# From -- ./inp_files/57004.got.cif
#   From: 2010.05.17/outbox.cif.g08.bks.cpg/sg15_29_cif.got.tgz:57004.got - 2010.06.03 18:47:42.
