data_PCOD9269386
_publ_section_title
;
Structure prediction by ZEFSAII (Michael W. Deem and Ramdas Pophale) SiO2 
 PCOD9269386
Probable space group: C 2/C
;
_chemical_formula_sum "Si O2"
_cell_formula_units_Z 52
_cell_length_a 8.105924
_cell_length_b 11.016049
_cell_length_c 28.853252
_cell_angle_alpha 90.000000
_cell_angle_beta 78.038809
_cell_angle_gamma 90.000000
_cell_volume 2520.518982
_symmetry_space_group_name_H-M "C 2/C"
_symmetry_group_IT_number 15
_symmetry_cell_setting 'monoclinic'
loop_
_space_group_symop_operation_xyz
x,y,z
-x,y,1/2-z
-x,-y,-z
x,-y,1/2+z
1/2+x,1/2+y,z
1/2-x,1/2+y,1/2-z
1/2-x,1/2-y,-z
1/2+x,1/2-y,1/2+z
loop_
_atom_site_type_symbol
_atom_site_label
_atom_site_fract_x
_atom_site_fract_y
_atom_site_fract_z
Si Si1 0.826853 0.367889 0.168214
Si Si2 0.267380 0.911187 0.719565
Si Si3 0.500000 0.209775 0.750000
Si Si4 0.836731 0.393028 0.819276
Si Si5 0.110228 0.522640 0.593876
Si Si6 0.619671 0.384359 0.495009
Si Si7 0.565786 0.879349 0.969242
O O1 0.710639 0.483078 0.187698
O O2 0.935365 0.362660 0.209570
O O3 0.736768 0.240652 0.168952
O O4 0.952367 0.395582 0.118964
O O5 0.149023 0.795325 0.722975
O O6 0.266543 0.942405 0.774487
O O7 0.460782 0.880801 0.696199
O O8 0.798571 0.477627 0.865033
O O9 0.239738 0.592367 0.553194
O O10 0.024309 0.404961 0.574236
O O11 0.500000 0.500000 0.500000
O O12 0.528168 0.255304 0.491461
O O13 0.731261 0.382906 0.535675
O O14 0.500000 0.000000 0.000000
#
# Coordination Sequence:
#
# PCOD9269386 Si02
#       7
#     8   8   4   8   8   8   8
#     4  10  20  36  55  78 114 151 185 233 280 326
#     4   9  19  36  53  78 109 150 194 227 272 326
#     4  10  20  34  56  78 110 152 188 226 272 326
#     4   9  19  35  55  79 112 148 188 233 277 329
#     4  10  21  36  56  85 115 143 185 236 286 339
#     4  10  22  40  63  85 110 150 191 232 289 355
#     4   9  21  40  59  82 113 145 183 233 287 347
#
# _framework density 20.630673000000002
#
# number of rings (size 3 to 8) (size 9 to 14) (size 15 to 20)
#    0.000    2.462    0.000    1.846    0.000   12.308 
#    0.000    7.692    0.000    0.000    0.000    0.000 
#    0.000    0.000    0.000    0.000    0.000    0.000 
#
# Total GULP energy -144902.793501 kJ/mol
# GULP energy per Si atom -5573.184365 kJ/mol
# Density = 2.058372 g / cm^3
# Si number density = 20.630673 Si / 1000 Ang^3
#
#
#
# Elastic Constant Matrix: (Units=GPa)
#
#
# Indices 1 2 3 4 5 6 
#
# 1 28.7789 34.2237 8.8211 0.0000 -5.6148 0.0000
# 2 34.2237 124.8963 30.5503 0.0000 -14.1643 0.0000
# 3 8.8211 30.5503 64.7783 0.0000 -10.4642 0.0000
# 4 0.0000 0.0000 0.0000 28.8612 0.0000 -0.2093
# 5 -5.6148 -14.1643 -10.4642 0.0000 20.2767 0.0000
# 6 0.0000 0.0000 0.0000 -0.2093 0.0000 34.4355
#
#
#
# Elastic Compliance Matrix: (Units=1/GPa)
#
#
# Indices 1 2 3 4 5 6 
#
# 1 0.051977 -0.013734 0.000190 0.000000 0.004897 0.000000
# 2 -0.013734 0.013071 -0.003746 0.000000 0.003395 0.000000
# 3 0.000190 -0.003746 0.018288 0.000000 0.006874 0.000000
# 4 0.000000 0.000000 0.000000 0.034650 0.000000 0.000211
# 5 0.004897 0.003395 0.006874 0.000000 0.056593 0.000000
# 6 0.000000 0.000000 0.000000 0.000211 0.000000 0.029041
#
#
# Mechanical properties :
#
#
# Convention : Reuss Voigt Hill
#
# Bulk Modulus (GPa) = 20.50966 40.62710 30.56838
# Shear Modulus (GPa) = 19.65010 26.37190 23.01100
#
# Velocity S-wave (km/s) = 3.08956 3.57919 3.34335
# Velocity P-wave (km/s) = 4.76341 6.06763 5.45464
#
# Compressibility (1/GPa) = 0.04875752
#
# Stress axis : x y z
#
# Youngs Moduli (GPa) = 19.23938 76.50437 54.67932
#
# Poissons Ratio (x) = 1.05068 -0.01040
# Poissons Ratio (y) = 0.26423 0.20483
# Poissons Ratio (z) = -0.00366 0.28658
#
# Static dielectric constant tensor:
#      x y z
#    x 1.761160 0.000000 0.044210 
#    y 0.000000 1.763770 0.000000 
#    z 0.044210 0.000000 1.799680 
# 
# From -- ./inp_files/287567.got.cif
#   From: 2010.05.17/outbox.cif.g08.bks.cpg/sg15_144_cif.got.tgz:287567.got - 2010.06.03 18:47:42.
