data_PCOD9269825
_publ_section_title
;
Structure prediction by ZEFSAII (Michael W. Deem and Ramdas Pophale) SiO2 
 PCOD9269825
Probable space group: C 2/C
;
_chemical_formula_sum "Si O2"
_cell_formula_units_Z 52
_cell_length_a 15.868307
_cell_length_b 19.793545
_cell_length_c 19.636961
_cell_angle_alpha 90.000000
_cell_angle_beta 152.139684
_cell_angle_gamma 90.000000
_cell_volume 2882.309307
_symmetry_space_group_name_H-M "C 2/C"
_symmetry_group_IT_number 15
_symmetry_cell_setting 'monoclinic'
loop_
_space_group_symop_operation_xyz
x,y,z
-x,y,1/2-z
-x,-y,-z
x,-y,1/2+z
1/2+x,1/2+y,z
1/2-x,1/2+y,1/2-z
1/2-x,1/2-y,-z
1/2+x,1/2-y,1/2+z
loop_
_atom_site_type_symbol
_atom_site_label
_atom_site_fract_x
_atom_site_fract_y
_atom_site_fract_z
Si Si1 0.129964 0.277372 0.287749
Si Si2 0.041113 0.589525 0.891841
Si Si3 0.664871 0.585808 0.086073
Si Si4 0.367603 0.561838 0.212451
Si Si5 0.000000 0.473734 0.750000
Si Si6 0.967634 0.826018 0.889555
Si Si7 0.202551 0.034404 0.723509
O O1 0.015474 0.344102 0.188557
O O2 0.139388 0.231250 0.227666
O O3 0.328770 0.299790 0.453047
O O4 0.000000 0.240620 0.250000
O O5 0.060539 0.525654 0.853973
O O6 0.875627 0.575292 0.824330
O O7 0.216403 0.601359 0.062394
O O8 0.629637 0.649872 0.110308
O O9 0.681287 0.523757 0.151142
O O10 0.838547 0.573433 0.162711
O O11 0.482361 0.575945 0.912672
O O12 0.500000 0.534190 0.250000
O O13 0.468208 0.609143 0.339221
O O14 0.276779 0.502032 0.189946
#
# Coordination Sequence:
#
# PCOD9269825 Si02
#       7
#     8   8   8   8   4   8   8
#     4  12  22  36  56  81 116 149 191 229 281 343
#     4  11  20  34  54  85 114 147 183 229 285 338
#     4   9  18  35  56  82 110 150 187 233 281 337
#     4  11  21  32  51  80 115 146 183 227 275 337
#     4  10  20  34  62  86 114 146 188 232 288 338
#     4  11  23  38  54  81 113 156 188 231 282 334
#     4   9  18  32  53  77 114 143 184 229 285 332
#
# _framework density 18.041088999999999
#
# number of rings (size 3 to 8) (size 9 to 14) (size 15 to 20)
#    0.000    1.538    2.308    4.154    2.154    0.000 
#    0.000    0.000    0.000    0.923    2.000    0.000 
#    0.000    0.000    0.000    0.000    0.000    0.000 
#
# Total GULP energy -145025.809388 kJ/mol
# GULP energy per Si atom -5577.915746 kJ/mol
# Density = 1.800003 g / cm^3
# Si number density = 18.041089 Si / 1000 Ang^3
#
#
#
# Elastic Constant Matrix: (Units=GPa)
#
#
# Indices 1 2 3 4 5 6 
#
# 1 117.1248 29.6546 28.3246 -0.0147 15.2329 -0.0032
# 2 29.6546 41.0725 6.9115 -0.0138 -1.0147 -0.0028
# 3 28.3246 6.9115 70.8901 -0.0389 2.8195 -0.0154
# 4 -0.0147 -0.0138 -0.0389 23.4012 -0.0085 -5.9664
# 5 15.2329 -1.0147 2.8195 -0.0085 24.5941 0.0010
# 6 -0.0032 -0.0028 -0.0154 -5.9664 0.0010 25.6121
#
#
#
# Elastic Compliance Matrix: (Units=1/GPa)
#
#
# Indices 1 2 3 4 5 6 
#
# 1 0.012700 -0.008702 -0.003917 -0.000007 -0.007776 -0.000003
# 2 -0.008702 0.030758 0.000214 0.000017 0.006634 0.000006
# 3 -0.003917 0.000214 0.015625 0.000028 0.000643 0.000015
# 4 -0.000007 0.000017 0.000028 0.045431 0.000017 0.010583
# 5 -0.007776 0.006634 0.000643 0.000017 0.045676 0.000002
# 6 -0.000003 0.000006 0.000015 0.010583 0.000002 0.041509
#
#
# Mechanical properties :
#
#
# Convention : Reuss Voigt Hill
#
# Bulk Modulus (GPa) = 29.17687 39.87430 34.52559
# Shear Modulus (GPa) = 21.93627 25.66792 23.80210
#
# Velocity S-wave (km/s) = 3.49077 3.77602 3.63619
# Velocity P-wave (km/s) = 5.69692 6.41569 6.06696
#
# Compressibility (1/GPa) = 0.03427372
#
# Stress axis : x y z
#
# Youngs Moduli (GPa) = 78.74219 32.51174 64.00104
#
# Poissons Ratio (x) = 0.28293 0.25066
# Poissons Ratio (y) = 0.68524 -0.01372
# Poissons Ratio (z) = 0.30840 -0.00697
#
# Static dielectric constant tensor:
#      x y z
#    x 1.625860 0.000000 -0.010460 
#    y 0.000000 1.623760 0.000000 
#    z -0.010460 0.000000 1.634190 
# 
# From -- ./inp_files/40829.got.cif
#   From: 2010.05.17/outbox.cif.g08.bks.cpg/sg15_21_cif.got.tgz:40829.got - 2010.06.03 18:47:42.
