data_PCOD9269730
_publ_section_title
;
Structure prediction by ZEFSAII (Michael W. Deem and Ramdas Pophale) SiO2 
 PCOD9269730
Probable space group: C 2/C
;
_chemical_formula_sum "Si O2"
_cell_formula_units_Z 48
_cell_length_a 16.035014
_cell_length_b 5.468802
_cell_length_c 23.208583
_cell_angle_alpha 90.000000
_cell_angle_beta 102.323133
_cell_angle_gamma 90.000000
_cell_volume 1988.322020
_symmetry_space_group_name_H-M "C 2/C"
_symmetry_group_IT_number 15
_symmetry_cell_setting 'monoclinic'
loop_
_space_group_symop_operation_xyz
x,y,z
-x,y,1/2-z
-x,-y,-z
x,-y,1/2+z
1/2+x,1/2+y,z
1/2-x,1/2+y,1/2-z
1/2-x,1/2-y,-z
1/2+x,1/2-y,1/2+z
loop_
_atom_site_type_symbol
_atom_site_label
_atom_site_fract_x
_atom_site_fract_y
_atom_site_fract_z
Si Si1 0.493924 0.309034 0.681678
Si Si2 0.497670 0.914781 0.905743
Si Si3 0.423308 0.307207 0.495118
Si Si4 0.852246 0.972653 0.088209
Si Si5 0.346851 0.613947 0.798893
Si Si6 0.741772 0.113835 0.672493
O O1 0.500000 0.259155 0.750000
O O2 0.400789 0.342858 0.639660
O O3 0.553189 0.548159 0.679679
O O4 0.529769 0.079033 0.651854
O O5 0.578309 0.742485 0.905406
O O6 0.538040 0.103630 0.957571
O O7 0.419130 0.792522 0.929677
O O8 0.500000 0.500000 0.500000
O O9 0.347647 0.422368 0.522409
O O10 0.768309 0.895332 0.109507
O O11 0.305724 0.863505 0.816236
O O12 0.324236 0.616819 0.727399
O O13 0.303552 0.371311 0.820033
#
# Coordination Sequence:
#
# PCOD9269730 Si02
#       6
#     8   8   8   8   8   8
#     4  11  22  35  55  89 121 153 199 251 303 361
#     4   9  19  32  58  87 117 151 195 255 304 347
#     4   8  16  34  54  87 114 147 195 257 299 349
#     4  10  20  34  60  86 113 153 209 251 294 360
#     4  10  23  39  55  81 124 164 197 245 308 363
#     4  10  22  39  58  80 119 166 205 242 298 370
#
# _framework density 24.140955999999999
#
# number of rings (size 3 to 8) (size 9 to 14) (size 15 to 20)
#    0.000    2.333    1.667    0.000    7.000    2.000 
#    0.000    0.000    0.000    2.000    0.000    0.000 
#    0.000    0.000    0.000    0.000    0.000    0.000 
#
# Total GULP energy -133907.286487 kJ/mol
# GULP energy per Si atom -5579.470270 kJ/mol
# Density = 2.408601 g / cm^3
# Si number density = 24.140956 Si / 1000 Ang^3
#
#
#
# Elastic Constant Matrix: (Units=GPa)
#
#
# Indices 1 2 3 4 5 6 
#
# 1 21.2641 -2.5010 -0.8496 0.0000 -0.2142 0.0000
# 2 -2.5010 95.2408 27.0907 0.0000 -7.5890 0.0000
# 3 -0.8496 27.0907 133.6718 0.0000 -38.5303 0.0000
# 4 0.0000 0.0000 0.0000 26.4706 0.0000 3.2885
# 5 -0.2142 -7.5890 -38.5303 0.0000 33.4881 0.0000
# 6 0.0000 0.0000 0.0000 3.2885 0.0000 14.1299
#
#
#
# Elastic Compliance Matrix: (Units=1/GPa)
#
#
# Indices 1 2 3 4 5 6 
#
# 1 0.047194 0.001222 0.000328 0.000000 0.000956 0.000000
# 2 0.001222 0.011174 -0.002281 0.000000 -0.000085 0.000000
# 3 0.000328 -0.002281 0.011666 0.000000 0.012908 0.000000
# 4 0.000000 0.000000 0.000000 0.038902 0.000000 -0.009054
# 5 0.000956 -0.000085 0.012908 0.000000 0.044699 0.000000
# 6 0.000000 0.000000 0.000000 -0.009054 0.000000 0.072879
#
#
# Mechanical properties :
#
#
# Convention : Reuss Voigt Hill
#
# Bulk Modulus (GPa) = 14.58323 33.07298 23.82810
# Shear Modulus (GPa) = 19.93346 29.91351 24.92349
#
# Velocity S-wave (km/s) = 2.87664 3.52393 3.21661
# Velocity P-wave (km/s) = 4.13369 5.50337 4.86695
#
# Compressibility (1/GPa) = 0.06857192
#
# Stress axis : x y z
#
# Youngs Moduli (GPa) = 21.18904 89.49409 85.71924
#
# Poissons Ratio (x) = -0.10939 -0.02810
# Poissons Ratio (y) = -0.02590 0.19554
# Poissons Ratio (z) = -0.00695 0.20415
#
# Static dielectric constant tensor:
#      x y z
#    x 1.992770 0.000000 0.025730 
#    y 0.000000 2.044170 0.000000 
#    z 0.025730 0.000000 1.983200 
# 
# From -- ./inp_files/275613.got.cif
#   From: 2010.05.17/outbox.cif.g08.bks.cpg/sg15_138_cif.got.tgz:275613.got - 2010.06.03 18:47:42.
