data_PCOD9269028
_publ_section_title
;
Structure prediction by ZEFSAII (Michael W. Deem and Ramdas Pophale) SiO2 
 PCOD9269028
Probable space group: C 2/C
;
_chemical_formula_sum "Si O2"
_cell_formula_units_Z 60
_cell_length_a 24.519040
_cell_length_b 8.355922
_cell_length_c 17.464780
_cell_angle_alpha 90.000000
_cell_angle_beta 46.972209
_cell_angle_gamma 90.000000
_cell_volume 2615.723841
_symmetry_space_group_name_H-M "C 2/C"
_symmetry_group_IT_number 15
_symmetry_cell_setting 'monoclinic'
loop_
_space_group_symop_operation_xyz
x,y,z
-x,y,1/2-z
-x,-y,-z
x,-y,1/2+z
1/2+x,1/2+y,z
1/2-x,1/2+y,1/2-z
1/2-x,1/2-y,-z
1/2+x,1/2-y,1/2+z
loop_
_atom_site_type_symbol
_atom_site_label
_atom_site_fract_x
_atom_site_fract_y
_atom_site_fract_z
Si Si1 0.500000 0.890765 0.250000
Si Si2 0.804661 0.969951 0.172698
Si Si3 0.762665 0.969244 0.386234
Si Si4 0.639318 0.787481 0.203035
Si Si5 0.903836 0.289193 0.583395
Si Si6 0.072318 0.795643 0.927499
Si Si7 0.186120 0.363952 0.682558
Si Si8 0.405495 0.932676 0.964992
O O1 0.564637 0.781305 0.224223
O O2 0.465825 0.006682 0.347160
O O3 0.885572 0.036875 0.117393
O O4 0.759366 0.087858 0.162334
O O5 0.762486 0.953315 0.293192
O O6 0.831167 0.799192 0.115291
O O7 0.800891 0.801381 0.375335
O O8 0.807202 0.133516 0.361923
O O9 0.676444 0.960435 0.490095
O O10 0.615726 0.791671 0.315735
O O11 0.671120 0.965344 0.157765
O O12 0.879569 0.321075 0.694077
O O13 0.913499 0.454483 0.531020
O O14 0.984907 0.210911 0.496336
O O15 0.084499 0.736424 0.003041
#
# Coordination Sequence:
#
# PCOD9269028 Si02
#       8
#     4   8   8   8   8   8   8   8
#     4  12  28  42  64  90 128 176 226 256 316 392
#     4  10  20  33  61 103 127 153 206 272 320 384
#     4  10  22  38  66  97 130 165 212 265 325 378
#     4  11  23  43  67  95 130 170 212 268 321 384
#     4  11  20  32  60  94 130 164 200 257 330 371
#     4  11  20  38  64  95 130 161 208 264 329 376
#     4  11  20  38  65 102 127 161 214 268 317 386
#     4  12  21  40  64  91 125 172 213 262 320 384
#
# _framework density 22.938202
#
# number of rings (size 3 to 8) (size 9 to 14) (size 15 to 20)
#    0.000    1.067    5.333    2.400    3.733    0.533 
#    0.000    1.333    2.933    0.000    0.000    0.000 
#    0.000    0.000    0.000    0.000    0.000    0.000 
#
# Total GULP energy -167407.698127 kJ/mol
# GULP energy per Si atom -5580.256604 kJ/mol
# Density = 2.288599 g / cm^3
# Si number density = 22.938202 Si / 1000 Ang^3
#
#
#
# Elastic Constant Matrix: (Units=GPa)
#
#
# Indices 1 2 3 4 5 6 
#
# 1 60.0531 31.2478 9.5175 0.0000 -12.6313 -0.0001
# 2 31.2478 67.6276 -0.8449 -0.0028 -11.9717 0.0024
# 3 9.5175 -0.8449 52.2735 -0.0014 -5.8716 0.0007
# 4 0.0000 -0.0028 -0.0014 -2.9186 0.0006 -7.7964
# 5 -12.6313 -11.9717 -5.8716 0.0006 33.3098 -0.0006
# 6 -0.0001 0.0024 0.0007 -7.7964 -0.0006 16.0574
#
#
#
# Elastic Compliance Matrix: (Units=1/GPa)
#
#
# Indices 1 2 3 4 5 6 
#
# 1 0.023489 -0.010090 -0.003924 0.000003 0.004589 0.000004
# 2 -0.010090 0.020168 0.002599 -0.000005 0.003881 -0.000006
# 3 -0.003924 0.002599 0.020225 -0.000004 0.003011 -0.000003
# 4 0.000003 -0.000005 -0.000004 -0.149164 0.000000 -0.072425
# 5 0.004589 0.003881 0.003011 0.000000 0.033687 0.000001
# 6 0.000004 -0.000006 -0.000003 -0.072425 0.000001 0.027112
#
#
# Mechanical properties :
#
#
# Convention : Reuss Voigt Hill
#
# Bulk Modulus (GPa) = 24.35942 28.86610 26.61276
# Shear Modulus (GPa) = 415.55360 18.62531 217.08945
#
# Velocity S-wave (km/s) = 13.47425 2.85261 9.73891
# Velocity P-wave (km/s) = 15.89706 4.84371 11.75113
#
# Compressibility (1/GPa) = 0.04105188
#
# Stress axis : x y z
#
# Youngs Moduli (GPa) = 42.57246 49.58230 49.44408
#
# Poissons Ratio (x) = 0.50029 0.19404
# Poissons Ratio (y) = 0.42956 -0.12850
# Poissons Ratio (z) = 0.16707 -0.12886
#
# Static dielectric constant tensor:
#      x y z
#    x 1.884970 0.000000 -0.011130 
#    y 0.000000 1.962140 0.000000 
#    z -0.011130 0.000000 1.849750 
# 
# From -- ./inp_files/257184.got.cif
#   From: 2010.05.17/outbox.cif.g08.bks.cpg/sg15_129_cif.got.tgz:257184.got - 2010.06.03 18:47:42.
