data_PCOD9269260
_publ_section_title
;
Structure prediction by ZEFSAII (Michael W. Deem and Ramdas Pophale) SiO2 
 PCOD9269260
Probable space group: C 2/C
;
_chemical_formula_sum "Si O2"
_cell_formula_units_Z 60
_cell_length_a 23.811660
_cell_length_b 9.581249
_cell_length_c 24.762538
_cell_angle_alpha 90.000000
_cell_angle_beta 147.832619
_cell_angle_gamma 90.000000
_cell_volume 3007.741233
_symmetry_space_group_name_H-M "C 2/C"
_symmetry_group_IT_number 15
_symmetry_cell_setting 'monoclinic'
loop_
_space_group_symop_operation_xyz
x,y,z
-x,y,1/2-z
-x,-y,-z
x,-y,1/2+z
1/2+x,1/2+y,z
1/2-x,1/2+y,1/2-z
1/2-x,1/2-y,-z
1/2+x,1/2-y,1/2+z
loop_
_atom_site_type_symbol
_atom_site_label
_atom_site_fract_x
_atom_site_fract_y
_atom_site_fract_z
Si Si1 0.519809 0.472358 0.603155
Si Si2 0.439394 0.189691 0.581662
Si Si3 0.715522 0.659039 0.421252
Si Si4 0.102698 0.809657 0.565811
Si Si5 0.519482 0.092756 0.423256
Si Si6 0.500000 0.205014 0.750000
Si Si7 0.836449 0.782682 0.233850
Si Si8 0.757584 0.652043 0.955105
O O1 0.475801 0.349235 0.605392
O O2 0.565968 0.386366 0.589953
O O3 0.427921 0.576596 0.506138
O O4 0.610131 0.572699 0.701846
O O5 0.315724 0.181555 0.464222
O O6 0.459474 0.137743 0.660388
O O7 0.493513 0.073468 0.588459
O O8 0.750000 0.750000 0.500000
O O9 0.600978 0.708702 0.311773
O O10 0.714277 0.498765 0.435686
O O11 0.038394 0.671705 0.495224
O O12 0.223824 0.761169 0.667270
O O13 0.419753 0.163663 0.314809
O O14 0.624925 0.129956 0.473952
O O15 0.813120 0.794002 0.151613
O O16 0.750000 0.750000 0.000000
#
# Coordination Sequence:
#
# PCOD9269260 Si02
#       8
#     8   8   8   8   8   4   8   8
#     4  10  21  40  63  85 113 155 195 237 297 350
#     4  10  21  36  56  83 116 151 192 236 288 346
#     4   9  20  35  51  76 109 147 190 233 278 335
#     4   9  21  41  60  84 117 147 192 248 293 348
#     4   9  21  38  56  85 117 150 194 245 292 344
#     4  10  20  34  54  80 114 148 188 234 280 338
#     4  10  21  38  59  86 117 150 196 238 287 353
#     4  10  21  36  55  82 116 154 193 237 288 343
#
# _framework density 19.948525
#
# number of rings (size 3 to 8) (size 9 to 14) (size 15 to 20)
#    0.000    2.400    0.000    0.800    0.000   13.867 
#    0.000   13.333    0.000    0.000    0.000    0.000 
#    0.000    0.000    0.000    0.000    0.000    0.000 
#
# Total GULP energy -167091.795772 kJ/mol
# GULP energy per Si atom -5569.726526 kJ/mol
# Density = 1.990312 g / cm^3
# Si number density = 19.948525 Si / 1000 Ang^3
#
#
#
# Elastic Constant Matrix: (Units=GPa)
#
#
# Indices 1 2 3 4 5 6 
#
# 1 33.9461 19.9991 25.0410 0.0000 -9.9334 0.0000
# 2 19.9991 89.1173 34.6612 0.0000 11.8321 0.0000
# 3 25.0410 34.6612 128.2618 0.0000 16.9071 0.0000
# 4 0.0000 0.0000 0.0000 15.3840 0.0000 2.5291
# 5 -9.9334 11.8321 16.9071 0.0000 24.3539 0.0000
# 6 0.0000 0.0000 0.0000 2.5291 0.0000 37.4381
#
#
#
# Elastic Compliance Matrix: (Units=1/GPa)
#
#
# Indices 1 2 3 4 5 6 
#
# 1 0.058316 -0.013249 -0.012976 0.000000 0.039231 0.000000
# 2 -0.013249 0.015935 0.000014 0.000000 -0.013156 0.000000
# 3 -0.012976 0.000014 0.012135 0.000000 -0.013724 0.000000
# 4 0.000000 0.000000 0.000000 0.065733 0.000000 -0.004440
# 5 0.039231 -0.013156 -0.013724 0.000000 0.072982 0.000000
# 6 0.000000 0.000000 0.000000 -0.004440 0.000000 0.027011
#
#
# Mechanical properties :
#
#
# Convention : Reuss Voigt Hill
#
# Bulk Modulus (GPa) = 29.44160 45.63642 37.53901
# Shear Modulus (GPa) = 15.83006 26.87679 21.35342
#
# Velocity S-wave (km/s) = 2.82005 3.67455 3.27529
# Velocity P-wave (km/s) = 5.03929 6.39764 5.75866
#
# Compressibility (1/GPa) = 0.03396554
#
# Stress axis : x y z
#
# Youngs Moduli (GPa) = 17.14799 62.75319 82.40504
#
# Poissons Ratio (x) = 0.83139 1.06931
# Poissons Ratio (y) = 0.22719 -0.00119
# Poissons Ratio (z) = 0.22252 -0.00090
#
# Static dielectric constant tensor:
#      x y z
#    x 1.830470 0.000000 -0.176030 
#    y 0.000000 1.708370 0.000000 
#    z -0.176030 0.000000 2.099720 
# 
# From -- ./inp_files/303102.got.cif
#   From: 2010.05.17/outbox.cif.g08.bks.cpg/sg15_152_cif.got.tgz:303102.got - 2010.06.03 18:47:42.
