data_PCOD9269736
_publ_section_title
;
Structure prediction by ZEFSAII (Michael W. Deem and Ramdas Pophale) SiO2 
 PCOD9269736
Probable space group: C 2/C
;
_chemical_formula_sum "Si O2"
_cell_formula_units_Z 56
_cell_length_a 23.589694
_cell_length_b 12.998168
_cell_length_c 27.872221
_cell_angle_alpha 90.000000
_cell_angle_beta 161.202344
_cell_angle_gamma 90.000000
_cell_volume 2753.834989
_symmetry_space_group_name_H-M "C 2/C"
_symmetry_group_IT_number 15
_symmetry_cell_setting 'monoclinic'
loop_
_space_group_symop_operation_xyz
x,y,z
-x,y,1/2-z
-x,-y,-z
x,-y,1/2+z
1/2+x,1/2+y,z
1/2-x,1/2+y,1/2-z
1/2-x,1/2-y,-z
1/2+x,1/2-y,1/2+z
loop_
_atom_site_type_symbol
_atom_site_label
_atom_site_fract_x
_atom_site_fract_y
_atom_site_fract_z
Si Si1 0.768792 0.334666 0.335065
Si Si2 0.922838 0.948373 0.822886
Si Si3 0.498727 0.730748 0.691974
Si Si4 0.460826 0.040248 0.294644
Si Si5 0.781853 0.969446 0.995805
Si Si6 0.831829 0.283350 0.839462
Si Si7 0.155315 0.064204 0.599499
O O1 0.677225 0.442997 0.246877
O O2 0.680924 0.309487 0.315612
O O3 0.728393 0.246101 0.262922
O O4 0.976642 0.334368 0.507622
O O5 0.786607 0.857997 0.723042
O O6 0.073861 0.922085 0.981986
O O7 0.039315 0.965558 0.868504
O O8 0.500000 0.741429 0.750000
O O9 0.484791 0.841337 0.655753
O O10 0.352827 0.646218 0.561752
O O11 0.333838 0.037426 0.145737
O O12 0.646788 0.990368 0.427968
O O13 0.342848 0.992839 0.242536
O O14 0.829636 0.172336 0.862699
O O15 0.000000 0.000000 0.500000
#
# Coordination Sequence:
#
# PCOD9269736 Si02
#       7
#     8   8   8   8   8   8   8
#     4  11  25  38  64  93 131 162 207 252 315 371
#     4  10  22  41  62  86 129 160 206 263 308 367
#     4  11  22  35  57  90 123 161 198 253 305 377
#     4  10  20  34  60  86 119 160 205 247 305 367
#     4   9  20  38  56  86 120 160 203 253 302 360
#     4  12  23  42  63  95 122 170 205 257 311 368
#     4  11  21  38  62  90 123 162 211 250 307 382
#
# _framework density 20.335277999999999
#
# number of rings (size 3 to 8) (size 9 to 14) (size 15 to 20)
#    0.000    1.429    4.286    1.714    4.000    0.000 
#    0.000    2.143    0.000    0.000    3.714    0.000 
#    0.000    0.000    0.000    0.000    0.000    0.000 
#
# Total GULP energy -156085.392600 kJ/mol
# GULP energy per Si atom -5574.478307 kJ/mol
# Density = 2.028899 g / cm^3
# Si number density = 20.335278 Si / 1000 Ang^3
#
#
#
# Elastic Constant Matrix: (Units=GPa)
#
#
# Indices 1 2 3 4 5 6 
#
# 1 83.5013 47.9578 42.0808 0.0022 42.6898 -0.0065
# 2 47.9578 78.0856 34.6148 0.0763 31.8425 -0.0093
# 3 42.0808 34.6148 110.1086 0.0563 50.6930 -0.0025
# 4 0.0022 0.0763 0.0563 27.5152 0.0061 6.1174
# 5 42.6898 31.8425 50.6930 0.0061 49.8040 -0.0072
# 6 -0.0065 -0.0093 -0.0025 6.1174 -0.0072 22.5116
#
#
#
# Elastic Compliance Matrix: (Units=1/GPa)
#
#
# Indices 1 2 3 4 5 6 
#
# 1 0.025360 -0.009113 0.000937 0.000027 -0.016865 -0.000009
# 2 -0.009113 0.020623 -0.000990 -0.000058 -0.004366 0.000020
# 3 0.000937 -0.000990 0.017150 -0.000029 -0.017627 0.000004
# 4 0.000027 -0.000058 -0.000029 0.038681 0.000038 -0.010511
# 5 -0.016865 -0.004366 -0.017627 0.000038 0.055267 -0.000001
# 6 -0.000009 0.000020 0.000004 -0.010511 -0.000001 0.047278
#
#
# Mechanical properties :
#
#
# Convention : Reuss Voigt Hill
#
# Bulk Modulus (GPa) = 22.32127 57.88915 40.10521
# Shear Modulus (GPa) = 21.04158 29.76895 25.40527
#
# Velocity S-wave (km/s) = 3.22022 3.83025 3.53841
# Velocity P-wave (km/s) = 4.98265 6.93472 6.03809
#
# Compressibility (1/GPa) = 0.04480032
#
# Stress axis : x y z
#
# Youngs Moduli (GPa) = 39.43280 48.48937 58.30839
#
# Poissons Ratio (x) = 0.44191 -0.05466
# Poissons Ratio (y) = 0.35937 0.05774
# Poissons Ratio (z) = -0.03697 0.04802
#
# Static dielectric constant tensor:
#      x y z
#    x 1.828460 0.000020 0.021380 
#    y 0.000020 1.725370 0.000020 
#    z 0.021380 0.000020 1.719020 
# 
# From -- ./inp_files/318803.got.cif
#   From: 2010.05.17/outbox.cif.g08.bks.cpg/sg15_160_cif.got.tgz:318803.got - 2010.06.03 18:47:42.
