data_PCOD9269627
_publ_section_title
;
Structure prediction by ZEFSAII (Michael W. Deem and Ramdas Pophale) SiO2 
 PCOD9269627
Probable space group: C 2/C
;
_chemical_formula_sum "Si O2"
_cell_formula_units_Z 52
_cell_length_a 9.762144
_cell_length_b 21.633216
_cell_length_c 13.894919
_cell_angle_alpha 90.000000
_cell_angle_beta 67.274825
_cell_angle_gamma 90.000000
_cell_volume 2706.616652
_symmetry_space_group_name_H-M "C 2/C"
_symmetry_group_IT_number 15
_symmetry_cell_setting 'monoclinic'
loop_
_space_group_symop_operation_xyz
x,y,z
-x,y,1/2-z
-x,-y,-z
x,-y,1/2+z
1/2+x,1/2+y,z
1/2-x,1/2+y,1/2-z
1/2-x,1/2-y,-z
1/2+x,1/2-y,1/2+z
loop_
_atom_site_type_symbol
_atom_site_label
_atom_site_fract_x
_atom_site_fract_y
_atom_site_fract_z
Si Si1 0.448771 0.458206 0.655495
Si Si2 0.000000 0.775220 0.750000
Si Si3 0.225503 0.676931 0.014474
Si Si4 0.410799 0.182561 0.041470
Si Si5 0.262090 0.690859 0.594130
Si Si6 0.981555 0.905501 0.070608
Si Si7 0.248291 0.855255 0.778739
O O1 0.500000 0.444769 0.750000
O O2 0.521174 0.424153 0.542672
O O3 0.470193 0.530409 0.629903
O O4 0.285377 0.427867 0.700588
O O5 0.873693 0.730116 0.826063
O O6 0.908195 0.818824 0.700974
O O7 0.189376 0.666797 0.136916
O O8 0.081220 0.663261 0.988904
O O9 0.250000 0.750000 0.000000
O O10 0.367667 0.633911 0.953618
O O11 0.388634 0.257111 0.042014
O O12 0.347696 0.160016 0.160273
O O13 0.303465 0.161384 0.985196
O O14 0.342012 0.638025 0.632283
#
# Coordination Sequence:
#
# PCOD9269627 Si02
#       7
#     8   4   8   8   8   8   8
#     4  10  20  39  62  82 112 159 206 237 269 355
#     4  10  20  34  58  90 112 144 190 244 288 350
#     4  11  20  35  55  90 125 148 178 253 297 350
#     4  10  20  34  59  86 118 149 190 240 295 349
#     4  10  20  36  57  87 115 154 187 236 298 350
#     4  10  22  38  62  87 117 153 200 237 294 348
#     4  10  20  34  61  85 110 155 204 230 284 346
#
# _framework density 19.212177000000001
#
# number of rings (size 3 to 8) (size 9 to 14) (size 15 to 20)
#    0.000    1.846    2.308    2.308    8.615    0.000 
#    8.308    0.000   10.154    9.231    0.000    0.000 
#    0.000    0.000    0.000    0.000    0.000    0.000 
#
# Total GULP energy -144841.576687 kJ/mol
# GULP energy per Si atom -5570.829873 kJ/mol
# Density = 1.916845 g / cm^3
# Si number density = 19.212177 Si / 1000 Ang^3
#
#
#
# Elastic Constant Matrix: (Units=GPa)
#
#
# Indices 1 2 3 4 5 6 
#
# 1 112.6582 55.8206 19.9115 0.0000 -2.8369 0.0000
# 2 55.8206 105.9156 23.5060 0.0000 -10.7650 0.0000
# 3 19.9115 23.5060 49.5859 0.0000 5.0462 0.0000
# 4 0.0000 0.0000 0.0000 18.1270 0.0000 1.1309
# 5 -2.8369 -10.7650 5.0462 0.0000 19.7666 0.0000
# 6 0.0000 0.0000 0.0000 1.1309 0.0000 20.0708
#
#
#
# Elastic Compliance Matrix: (Units=1/GPa)
#
#
# Indices 1 2 3 4 5 6 
#
# 1 0.012222 -0.006135 -0.001887 0.000000 -0.001105 0.000000
# 2 -0.006135 0.014737 -0.005390 0.000000 0.008521 0.000000
# 3 -0.001887 -0.005390 0.024441 0.000000 -0.009446 0.000000
# 4 0.000000 0.000000 0.000000 0.055361 0.000000 -0.003119
# 5 -0.001105 0.008521 -0.009446 0.000000 0.057484 0.000000
# 6 0.000000 0.000000 0.000000 -0.003119 0.000000 0.049999
#
#
# Mechanical properties :
#
#
# Convention : Reuss Voigt Hill
#
# Bulk Modulus (GPa) = 40.68911 51.84842 46.26876
# Shear Modulus (GPa) = 20.05943 22.85432 21.45687
#
# Velocity S-wave (km/s) = 3.23476 3.45276 3.34554
# Velocity P-wave (km/s) = 5.93096 6.55296 6.24971
#
# Compressibility (1/GPa) = 0.02457660
#
# Stress axis : x y z
#
# Youngs Moduli (GPa) = 81.82100 67.85675 40.91475
#
# Poissons Ratio (x) = 0.41629 0.07721
# Poissons Ratio (y) = 0.50195 0.22052
# Poissons Ratio (z) = 0.15440 0.36573
#
# Static dielectric constant tensor:
#      x y z
#    x 1.709840 0.000000 0.011080 
#    y 0.000000 1.665530 0.000000 
#    z 0.011080 0.000000 1.740410 
# 
# From -- ./inp_files/135990.got.cif
#   From: 2010.05.17/outbox.cif.g08.bks.cpg/sg15_68_cif.got.tgz:135990.got - 2010.06.03 18:47:42.
