data_PCOD9269622
_publ_section_title
;
Structure prediction by ZEFSAII (Michael W. Deem and Ramdas Pophale) SiO2 
 PCOD9269622
Probable space group: C 2/C
;
_chemical_formula_sum "Si O2"
_cell_formula_units_Z 40
_cell_length_a 9.874362
_cell_length_b 28.174164
_cell_length_c 9.665937
_cell_angle_alpha 90.000000
_cell_angle_beta 55.105185
_cell_angle_gamma 90.000000
_cell_volume 2205.594856
_symmetry_space_group_name_H-M "C 2/C"
_symmetry_group_IT_number 15
_symmetry_cell_setting 'monoclinic'
loop_
_space_group_symop_operation_xyz
x,y,z
-x,y,1/2-z
-x,-y,-z
x,-y,1/2+z
1/2+x,1/2+y,z
1/2-x,1/2+y,1/2-z
1/2-x,1/2-y,-z
1/2+x,1/2-y,1/2+z
loop_
_atom_site_type_symbol
_atom_site_label
_atom_site_fract_x
_atom_site_fract_y
_atom_site_fract_z
Si Si1 0.891035 0.806482 0.025078
Si Si2 0.168119 0.110621 0.733036
Si Si3 0.247499 0.209835 0.201568
Si Si4 0.006804 0.371327 0.593328
Si Si5 0.956777 0.454394 0.115605
O O1 0.862573 0.856237 0.116983
O O2 0.809979 0.763805 0.159785
O O3 0.806130 0.803946 0.923919
O O4 0.084595 0.796471 0.888796
O O5 0.265888 0.062421 0.713236
O O6 0.302870 0.137720 0.558104
O O7 0.000000 0.102646 0.750000
O O8 0.393564 0.174698 0.158775
O O9 0.000000 0.393423 0.750000
O O10 0.951483 0.409184 0.509036
O O11 0.000000 0.460390 0.250000
O O12 0.000000 0.500000 0.000000
#
# Coordination Sequence:
#
# PCOD9269622 Si02
#       5
#     8   8   8   8   8
#     4  10  20  35  56  89 128 168 218 254 307 361
#     4  10  22  38  62  88 128 158 207 259 311 363
#     4  10  20  34  58  88 126 174 214 256 299 373
#     4  10  21  36  62  86 125 160 210 248 314 361
#     4  10  22  41  69  90 119 160 205 254 320 378
#
# _framework density 18.135698000000001
#
# number of rings (size 3 to 8) (size 9 to 14) (size 15 to 20)
#    1.200    0.800    0.000    4.200    0.000    2.400 
#    0.000    5.000    4.400    0.000    0.000    0.000 
#    0.000    0.000    0.000    0.000    0.000    0.000 
#
# Total GULP energy -111431.010527 kJ/mol
# GULP energy per Si atom -5571.550526 kJ/mol
# Density = 1.809442 g / cm^3
# Si number density = 18.135698 Si / 1000 Ang^3
#
#
#
# Elastic Constant Matrix: (Units=GPa)
#
#
# Indices 1 2 3 4 5 6 
#
# 1 118.0214 48.4161 41.5415 0.0000 -12.4295 0.0000
# 2 48.4161 94.9927 37.7464 0.0000 -0.1589 0.0000
# 3 41.5415 37.7464 105.4976 0.0000 -5.8312 0.0000
# 4 0.0000 0.0000 0.0000 37.8252 0.0000 -3.6424
# 5 -12.4295 -0.1589 -5.8312 0.0000 33.2432 0.0000
# 6 0.0000 0.0000 0.0000 -3.6424 0.0000 20.8701
#
#
#
# Elastic Compliance Matrix: (Units=1/GPa)
#
#
# Indices 1 2 3 4 5 6 
#
# 1 0.011874 -0.004983 -0.002675 0.000000 0.003947 0.000000
# 2 -0.004983 0.014380 -0.003314 0.000000 -0.002376 0.000000
# 3 -0.002675 -0.003314 0.011776 0.000000 0.001050 0.000000
# 4 0.000000 0.000000 0.000000 0.026889 0.000000 0.004693
# 5 0.003947 -0.002376 0.001050 0.000000 0.031730 0.000000
# 6 0.000000 0.000000 0.000000 0.004693 0.000000 0.048734
#
#
# Mechanical properties :
#
#
# Convention : Reuss Voigt Hill
#
# Bulk Modulus (GPa) = 62.16387 63.76886 62.96637
# Shear Modulus (GPa) = 28.95380 31.10821 30.03100
#
# Velocity S-wave (km/s) = 3.99997 4.14611 4.07370
# Velocity P-wave (km/s) = 7.46220 7.62619 7.54464
#
# Compressibility (1/GPa) = 0.01608651
#
# Stress axis : x y z
#
# Youngs Moduli (GPa) = 84.21622 69.54269 84.91872
#
# Poissons Ratio (x) = 0.34650 0.22714
# Poissons Ratio (y) = 0.41962 0.28144
# Poissons Ratio (z) = 0.22526 0.23048
#
# Static dielectric constant tensor:
#      x y z
#    x 1.616560 0.000000 0.010050 
#    y 0.000000 1.609880 0.000000 
#    z 0.010050 0.000000 1.632020 
# 
# From -- ./inp_files/32958.got.cif
#   From: 2010.05.17/outbox.cif.g08.bks.cpg/sg15_17_cif.got.tgz:32958.got - 2010.06.03 18:47:42.
