data_PCOD9269035
_publ_section_title
;
Structure prediction by ZEFSAII (Michael W. Deem and Ramdas Pophale) SiO2 
 PCOD9269035
Probable space group: C 2/C
;
_chemical_formula_sum "Si O2"
_cell_formula_units_Z 60
_cell_length_a 18.286070
_cell_length_b 19.630533
_cell_length_c 10.372334
_cell_angle_alpha 90.000000
_cell_angle_beta 125.762567
_cell_angle_gamma 90.000000
_cell_volume 3021.262691
_symmetry_space_group_name_H-M "C 2/C"
_symmetry_group_IT_number 15
_symmetry_cell_setting 'monoclinic'
loop_
_space_group_symop_operation_xyz
x,y,z
-x,y,1/2-z
-x,-y,-z
x,-y,1/2+z
1/2+x,1/2+y,z
1/2-x,1/2+y,1/2-z
1/2-x,1/2-y,-z
1/2+x,1/2-y,1/2+z
loop_
_atom_site_type_symbol
_atom_site_label
_atom_site_fract_x
_atom_site_fract_y
_atom_site_fract_z
Si Si1 0.562988 0.011939 0.440503
Si Si2 0.186653 0.206661 0.837552
Si Si3 0.715737 0.090718 0.000660
Si Si4 0.000000 0.775701 0.250000
Si Si5 0.813711 0.620220 0.816301
Si Si6 0.404112 0.357838 0.707689
Si Si7 0.442631 0.763224 0.419265
Si Si8 0.631072 0.770753 0.512381
O O1 0.500000 0.012053 0.250000
O O2 0.645267 0.958819 0.500104
O O3 0.500000 0.000000 0.500000
O O4 0.611987 0.082352 0.523080
O O5 0.233050 0.139970 0.827022
O O6 0.165789 0.253082 0.690882
O O7 0.091769 0.187326 0.804372
O O8 0.250000 0.250000 0.000000
O O9 0.822611 0.089533 0.141769
O O10 0.684633 0.166939 0.007937
O O11 0.707272 0.080810 0.837262
O O12 0.028284 0.732961 0.403323
O O13 0.855135 0.691913 0.812169
O O14 0.500000 0.383255 0.750000
O O15 0.425303 0.314297 0.858140
O O16 0.369513 0.298537 0.572469
O O17 0.525711 0.789957 0.420282
#
# Coordination Sequence:
#
# PCOD9269035 Si02
#       8
#     8   8   8   4   8   8   8   8
#     4  12  28  47  67  94 128 177 226 271 322 385
#     4  11  22  37  59  92 131 171 207 260 333 397
#     4  12  23  41  66  90 129 167 220 277 320 383
#     4  10  22  36  50  92 136 160 196 254 322 394
#     4  12  23  40  64  89 129 171 219 265 326 383
#     4  10  20  36  64  97 123 158 205 263 327 385
#     4  10  20  34  57  92 129 163 197 252 318 390
#     4  10  20  33  61  97 124 161 205 255 330 389
#
# _framework density 19.859245000000001
#
# number of rings (size 3 to 8) (size 9 to 14) (size 15 to 20)
#    0.000    1.067    5.333    2.000    0.933    1.067 
#    0.000    0.000    1.467    0.800    0.000    0.000 
#    0.000    0.000    0.000    0.000    0.000    0.000 
#
# Total GULP energy -167388.767503 kJ/mol
# GULP energy per Si atom -5579.625583 kJ/mol
# Density = 1.981404 g / cm^3
# Si number density = 19.859245 Si / 1000 Ang^3
#
#
#
# Elastic Constant Matrix: (Units=GPa)
#
#
# Indices 1 2 3 4 5 6 
#
# 1 187.8317 46.6480 36.9921 0.0000 12.0024 0.0000
# 2 46.6480 31.3134 11.2132 0.0000 0.9572 0.0000
# 3 36.9921 11.2132 115.4867 0.0000 -12.9781 0.0000
# 4 0.0000 0.0000 0.0000 18.8422 0.0000 8.7038
# 5 12.0024 0.9572 -12.9781 0.0000 33.8996 0.0000
# 6 0.0000 0.0000 0.0000 8.7038 0.0000 34.0613
#
#
#
# Elastic Compliance Matrix: (Units=1/GPa)
#
#
# Indices 1 2 3 4 5 6 
#
# 1 0.009140 -0.012750 -0.002103 0.000000 -0.003681 0.000000
# 2 -0.012750 0.051039 -0.000550 0.000000 0.002863 0.000000
# 3 -0.002103 -0.000550 0.009897 0.000000 0.004549 0.000000
# 4 0.000000 0.000000 0.000000 0.060175 0.000000 -0.015377
# 5 -0.003681 0.002863 0.004549 0.000000 0.032463 0.000000
# 6 0.000000 0.000000 0.000000 -0.015377 0.000000 0.033288
#
#
# Mechanical properties :
#
#
# Convention : Reuss Voigt Hill
#
# Bulk Modulus (GPa) = 25.46523 58.25982 41.86253
# Shear Modulus (GPa) = 20.84213 33.34584 27.09398
#
# Velocity S-wave (km/s) = 3.24310 4.10214 3.69765
# Velocity P-wave (km/s) = 5.18404 7.19978 6.27340
#
# Compressibility (1/GPa) = 0.03926923
#
# Stress axis : x y z
#
# Youngs Moduli (GPa) = 109.41077 19.59303 101.03692
#
# Poissons Ratio (x) = 0.24981 0.21252
# Poissons Ratio (y) = 1.39499 0.05556
# Poissons Ratio (z) = 0.23013 0.01077
#
# Static dielectric constant tensor:
#      x y z
#    x 1.783400 0.000000 0.006370 
#    y 0.000000 1.686590 0.000000 
#    z 0.006370 0.000000 1.737460 
# 
# From -- ./inp_files/50668.got.cif
#   From: 2010.05.17/outbox.cif.g08.bks.cpg/sg15_26_cif.got.tgz:50668.got - 2010.06.03 18:47:42.
