data_PCOD9269288
_publ_section_title
;
Structure prediction by ZEFSAII (Michael W. Deem and Ramdas Pophale) SiO2 
 PCOD9269288
Probable space group: C 2/C
;
_chemical_formula_sum "Si O2"
_cell_formula_units_Z 48
_cell_length_a 22.996093
_cell_length_b 7.450930
_cell_length_c 11.569453
_cell_angle_alpha 90.000000
_cell_angle_beta 103.017007
_cell_angle_gamma 90.000000
_cell_volume 1931.396842
_symmetry_space_group_name_H-M "C 2/C"
_symmetry_group_IT_number 15
_symmetry_cell_setting 'monoclinic'
loop_
_space_group_symop_operation_xyz
x,y,z
-x,y,1/2-z
-x,-y,-z
x,-y,1/2+z
1/2+x,1/2+y,z
1/2-x,1/2+y,1/2-z
1/2-x,1/2-y,-z
1/2+x,1/2-y,1/2+z
loop_
_atom_site_type_symbol
_atom_site_label
_atom_site_fract_x
_atom_site_fract_y
_atom_site_fract_z
Si Si1 0.174729 0.431200 0.456143
Si Si2 0.064839 0.304867 0.128271
Si Si3 0.278109 0.631153 0.865944
Si Si4 0.884080 0.973103 0.267527
Si Si5 0.564265 0.816281 0.539941
Si Si6 0.345178 0.675041 0.525451
O O1 0.206799 0.368074 0.351853
O O2 0.202925 0.326666 0.579155
O O3 0.106022 0.386744 0.453201
O O4 0.187149 0.641487 0.458868
O O5 0.068516 0.520685 0.136088
O O6 0.080795 0.160761 0.233300
O O7 0.116435 0.235070 0.066323
O O8 0.000872 0.281879 0.039586
O O9 0.312750 0.558210 0.768710
O O10 0.305141 0.494687 0.974444
O O11 0.913360 0.860633 0.385252
O O12 0.888746 0.875513 0.148087
#
# Coordination Sequence:
#
# PCOD9269288 Si02
#       6
#     8   8   8   8   8   8
#     4   9  18  36  57  75 109 149 188 232 282 339
#     4   9  19  36  57  81 113 149 185 238 282 339
#     4   9  19  37  54  79 116 150 185 234 284 338
#     4  10  20  34  54  86 112 145 191 231 285 340
#     4   9  18  35  58  78 107 149 189 230 290 333
#     4  10  20  34  56  84 112 149 189 230 290 340
#
# _framework density 24.852478999999999
#
# number of rings (size 3 to 8) (size 9 to 14) (size 15 to 20)
#    0.000    2.667    0.000    1.000    0.000    2.000 
#    9.000    0.000    0.000   12.000    0.000    0.000 
#    0.000    0.000    0.000    0.000    0.000    0.000 
#
# Total GULP energy -133794.691876 kJ/mol
# GULP energy per Si atom -5574.778828 kJ/mol
# Density = 2.479591 g / cm^3
# Si number density = 24.852479 Si / 1000 Ang^3
#
#
#
# Elastic Constant Matrix: (Units=GPa)
#
#
# Indices 1 2 3 4 5 6 
#
# 1 28.0424 -6.3738 -31.2533 0.0000 28.4367 0.0000
# 2 -6.3738 153.5914 28.2679 0.0000 30.6674 0.0000
# 3 -31.2533 28.2679 18.4958 0.0000 10.5080 0.0000
# 4 0.0000 0.0000 0.0000 28.8089 0.0000 0.9999
# 5 28.4367 30.6674 10.5080 0.0000 2.9810 0.0000
# 6 0.0000 0.0000 0.0000 0.9999 0.0000 30.9917
#
#
#
# Elastic Compliance Matrix: (Units=1/GPa)
#
#
# Indices 1 2 3 4 5 6 
#
# 1 0.003372 -0.004956 -0.002576 0.000000 0.027898 0.000000
# 2 -0.004956 0.012785 -0.019896 0.000000 -0.014114 0.000000
# 3 -0.002576 -0.019896 0.049995 0.000000 0.053028 0.000000
# 4 0.000000 0.000000 0.000000 0.034750 0.000000 -0.001121
# 5 0.027898 -0.014114 0.053028 0.000000 0.027606 0.000000
# 6 0.000000 0.000000 0.000000 -0.001121 0.000000 0.032303
#
#
# Mechanical properties :
#
#
# Convention : Reuss Voigt Hill
#
# Bulk Modulus (GPa) = 88.53330 20.15681 54.34506
# Shear Modulus (GPa) = 22.78590 26.52226 24.65408
#
# Velocity S-wave (km/s) = 3.03123 3.27033 3.15305
# Velocity P-wave (km/s) = 6.92474 4.73162 5.93044
#
# Compressibility (1/GPa) = 0.01129518
#
# Stress axis : x y z
#
# Youngs Moduli (GPa) = 296.51903 78.21647 20.00196
#
# Poissons Ratio (x) = 0.38766 0.05153
# Poissons Ratio (y) = 1.46963 0.39797
# Poissons Ratio (z) = 0.76386 1.55622
#
# Static dielectric constant tensor:
#      x y z
#    x 2.024030 0.000000 -0.056760 
#    y 0.000000 2.149820 0.000000 
#    z -0.056760 0.000000 1.995690 
# 
# From -- ./inp_files/121154.got.cif
#   From: 2010.05.17/outbox.cif.g08.bks.cpg/sg15_61_cif.got.tgz:121154.got - 2010.06.03 18:47:42.
