data_PCOD9269216
_publ_section_title
;
Structure prediction by ZEFSAII (Michael W. Deem and Ramdas Pophale) SiO2 
 PCOD9269216
Probable space group: C 2/C
;
_chemical_formula_sum "Si O2"
_cell_formula_units_Z 48
_cell_length_a 19.710195
_cell_length_b 9.338968
_cell_length_c 17.929214
_cell_angle_alpha 90.000000
_cell_angle_beta 137.222229
_cell_angle_gamma 90.000000
_cell_volume 2241.408308
_symmetry_space_group_name_H-M "C 2/C"
_symmetry_group_IT_number 15
_symmetry_cell_setting 'monoclinic'
loop_
_space_group_symop_operation_xyz
x,y,z
-x,y,1/2-z
-x,-y,-z
x,-y,1/2+z
1/2+x,1/2+y,z
1/2-x,1/2+y,1/2-z
1/2-x,1/2-y,-z
1/2+x,1/2-y,1/2+z
loop_
_atom_site_type_symbol
_atom_site_label
_atom_site_fract_x
_atom_site_fract_y
_atom_site_fract_z
Si Si1 0.419693 0.837719 0.745221
Si Si2 0.692538 0.644245 0.051576
Si Si3 0.142171 0.017391 0.659493
Si Si4 0.342707 0.080551 0.905532
Si Si5 0.004470 0.984300 0.176249
Si Si6 0.056105 0.679450 0.059013
O O1 0.500000 0.894142 0.750000
O O2 0.308601 0.877222 0.629448
O O3 0.436235 0.665177 0.759858
O O4 0.431710 0.871029 0.843604
O O5 0.675022 0.589677 0.121891
O O6 0.672010 0.815061 0.035955
O O7 0.606743 0.562713 0.937318
O O8 0.241395 0.082560 0.777105
O O9 0.081884 0.153829 0.578996
O O10 0.070129 0.949121 0.663638
O O11 0.371462 0.913706 0.934671
O O12 0.442212 0.144576 0.947681
O O13 0.000000 0.067629 0.250000
#
# Coordination Sequence:
#
# PCOD9269216 Si02
#       6
#     8   8   8   8   8   8
#     4  10  20  34  53  82 117 145 189 231 293 339
#     4  12  21  36  61  88 113 151 193 246 280 335
#     4  11  20  36  57  89 115 149 197 234 285 339
#     4  11  19  34  56  82 118 146 189 237 286 330
#     4  10  22  35  54  86 121 146 188 235 295 335
#     4  10  21  34  52  88 114 150 188 233 290 338
#
# _framework density 21.415106999999999
#
# number of rings (size 3 to 8) (size 9 to 14) (size 15 to 20)
#    0.000    1.333    8.333    0.500    0.000    4.000 
#    0.000    0.000    0.000    1.000    0.000    7.000 
#    0.000    0.000    0.000    0.000    0.000    0.000 
#
# Total GULP energy -133874.770833 kJ/mol
# GULP energy per Si atom -5578.115451 kJ/mol
# Density = 2.136637 g / cm^3
# Si number density = 21.415107 Si / 1000 Ang^3
#
#
#
# Elastic Constant Matrix: (Units=GPa)
#
#
# Indices 1 2 3 4 5 6 
#
# 1 136.1014 29.2845 65.9070 0.0000 17.7494 0.0000
# 2 29.2845 27.2538 -3.3193 0.0000 -4.2462 0.0000
# 3 65.9070 -3.3193 120.6896 0.0000 24.6542 0.0000
# 4 0.0000 0.0000 0.0000 18.5491 0.0000 6.4594
# 5 17.7494 -4.2462 24.6542 0.0000 36.8466 0.0000
# 6 0.0000 0.0000 0.0000 6.4594 0.0000 12.8669
#
#
#
# Elastic Compliance Matrix: (Units=1/GPa)
#
#
# Indices 1 2 3 4 5 6 
#
# 1 0.016058 -0.018948 -0.008414 0.000000 -0.004289 0.000000
# 2 -0.018948 0.059723 0.010100 0.000000 0.009252 0.000000
# 3 -0.008414 0.010100 0.014007 0.000000 -0.004155 0.000000
# 4 0.000000 0.000000 0.000000 0.065333 0.000000 -0.032798
# 5 -0.004289 0.009252 -0.004155 0.000000 0.033052 0.000000
# 6 0.000000 0.000000 0.000000 -0.032798 0.000000 0.094184
#
#
# Mechanical properties :
#
#
# Convention : Reuss Voigt Hill
#
# Bulk Modulus (GPa) = 18.09491 51.97657 35.03574
# Shear Modulus (GPa) = 14.91186 26.46402 20.68794
#
# Velocity S-wave (km/s) = 2.64166 3.51916 3.11150
# Velocity P-wave (km/s) = 4.21574 6.39033 5.41335
#
# Compressibility (1/GPa) = 0.05526415
#
# Stress axis : x y z
#
# Youngs Moduli (GPa) = 62.27300 16.74390 71.39190
#
# Poissons Ratio (x) = 0.31726 0.60071
# Poissons Ratio (y) = 1.17994 -0.72104
# Poissons Ratio (z) = 0.52398 -0.16911
#
# Static dielectric constant tensor:
#      x y z
#    x 1.856080 0.000000 -0.030420 
#    y 0.000000 1.809290 0.000000 
#    z -0.030420 0.000000 1.828770 
# 
# From -- ./inp_files/252298.got.cif
#   From: 2010.05.17/outbox.cif.g08.bks.cpg/sg15_127_cif.got.tgz:252298.got - 2010.06.03 18:47:42.
