data_PCOD9269552
_publ_section_title
;
Structure prediction by ZEFSAII (Michael W. Deem and Ramdas Pophale) SiO2 
 PCOD9269552
Probable space group: C 2/C
;
_chemical_formula_sum "Si O2"
_cell_formula_units_Z 40
_cell_length_a 7.172445
_cell_length_b 28.562888
_cell_length_c 8.471873
_cell_angle_alpha 90.000000
_cell_angle_beta 78.252310
_cell_angle_gamma 90.000000
_cell_volume 1699.242201
_symmetry_space_group_name_H-M "C 2/C"
_symmetry_group_IT_number 15
_symmetry_cell_setting 'monoclinic'
loop_
_space_group_symop_operation_xyz
x,y,z
-x,y,1/2-z
-x,-y,-z
x,-y,1/2+z
1/2+x,1/2+y,z
1/2-x,1/2+y,1/2-z
1/2-x,1/2-y,-z
1/2+x,1/2-y,1/2+z
loop_
_atom_site_type_symbol
_atom_site_label
_atom_site_fract_x
_atom_site_fract_y
_atom_site_fract_z
Si Si1 0.783864 0.350809 0.274742
Si Si2 0.283490 0.447761 0.846333
Si Si3 0.271936 0.195453 0.462679
Si Si4 0.788323 0.043435 0.715432
Si Si5 0.797778 0.656851 0.129137
O O1 0.798399 0.406122 0.232147
O O2 0.707396 0.342214 0.466862
O O3 0.000000 0.332246 0.250000
O O4 0.690867 0.329247 0.134346
O O5 0.500000 0.440986 0.750000
O O6 0.198709 0.494998 0.788144
O O7 0.180553 0.398517 0.838793
O O8 0.297624 0.457916 0.027526
O O9 0.250000 0.250000 0.500000
O O10 0.200648 0.179841 0.300693
O O11 0.495172 0.180696 0.419377
O O12 0.000000 0.044179 0.750000
#
# Coordination Sequence:
#
# PCOD9269552 Si02
#       5
#     8   8   8   8   8
#     4   9  20  40  60  87 127 155 198 257 302 359
#     4  10  20  35  58  89 126 164 199 247 302 356
#     4  10  21  40  65  83 117 159 202 256 314 358
#     4  10  20  34  57  91 123 166 205 238 299 369
#     4   9  21  41  59  91 119 154 203 250 306 369
#
# _framework density 23.539905000000001
#
# number of rings (size 3 to 8) (size 9 to 14) (size 15 to 20)
#    0.000    2.400    0.000    2.400    5.600    0.800 
#    7.200    6.000    0.000    0.000    0.000    0.000 
#    0.000    0.000    0.000    0.000    0.000    0.000 
#
# Total GULP energy -111618.245285 kJ/mol
# GULP energy per Si atom -5580.912264 kJ/mol
# Density = 2.348633 g / cm^3
# Si number density = 23.539905 Si / 1000 Ang^3
#
#
#
# Elastic Constant Matrix: (Units=GPa)
#
#
# Indices 1 2 3 4 5 6 
#
# 1 76.6362 22.6332 27.6778 0.0000 18.2485 0.0000
# 2 22.6332 197.7947 117.2486 0.0000 18.0597 0.0000
# 3 27.6778 117.2486 204.4814 0.0000 21.2817 0.0000
# 4 0.0000 0.0000 0.0000 34.8335 0.0000 -6.1011
# 5 18.2485 18.0597 21.2817 0.0000 23.7197 0.0000
# 6 0.0000 0.0000 0.0000 -6.1011 0.0000 27.8836
#
#
#
# Elastic Compliance Matrix: (Units=1/GPa)
#
#
# Indices 1 2 3 4 5 6 
#
# 1 0.016167 -0.000323 -0.000810 0.000000 -0.011465 0.000000
# 2 -0.000323 0.007760 -0.004210 0.000000 -0.001883 0.000000
# 3 -0.000810 -0.004210 0.007738 0.000000 -0.003114 0.000000
# 4 0.000000 0.000000 0.000000 0.029852 0.000000 0.006532
# 5 -0.011465 -0.001883 -0.003114 0.000000 0.055207 0.000000
# 6 0.000000 0.000000 0.000000 0.006532 0.000000 0.037293
#
#
# Mechanical properties :
#
#
# Convention : Reuss Voigt Hill
#
# Bulk Modulus (GPa) = 47.66606 90.44794 69.05700
# Shear Modulus (GPa) = 29.12132 38.04420 33.58276
#
# Velocity S-wave (km/s) = 3.52107 4.02451 3.78117
# Velocity P-wave (km/s) = 6.06824 7.75256 6.96153
#
# Compressibility (1/GPa) = 0.02097929
#
# Stress axis : x y z
#
# Youngs Moduli (GPa) = 61.85599 128.86252 129.22976
#
# Poissons Ratio (x) = 0.04163 0.10464
# Poissons Ratio (y) = 0.01998 0.54406
# Poissons Ratio (z) = 0.05009 0.54251
#
# Static dielectric constant tensor:
#      x y z
#    x 1.989410 0.000000 -0.053900 
#    y 0.000000 1.885440 0.000000 
#    z -0.053900 0.000000 1.938670 
# 
# From -- ./inp_files/24444.got.cif
#   From: 2010.05.17/outbox.cif.g08.bks.cpg/sg15_13_cif.got.tgz:24444.got - 2010.06.03 18:47:42.
