data_PCOD9269003
_publ_section_title
;
Structure prediction by ZEFSAII (Michael W. Deem and Ramdas Pophale) SiO2 
 PCOD9269003
Probable space group: C 2/C
;
_chemical_formula_sum "Si O2"
_cell_formula_units_Z 40
_cell_length_a 17.649788
_cell_length_b 6.164300
_cell_length_c 22.968272
_cell_angle_alpha 90.000000
_cell_angle_beta 120.300541
_cell_angle_gamma 90.000000
_cell_volume 2157.540677
_symmetry_space_group_name_H-M "C 2/C"
_symmetry_group_IT_number 15
_symmetry_cell_setting 'monoclinic'
loop_
_space_group_symop_operation_xyz
x,y,z
-x,y,1/2-z
-x,-y,-z
x,-y,1/2+z
1/2+x,1/2+y,z
1/2-x,1/2+y,1/2-z
1/2-x,1/2-y,-z
1/2+x,1/2-y,1/2+z
loop_
_atom_site_type_symbol
_atom_site_label
_atom_site_fract_x
_atom_site_fract_y
_atom_site_fract_z
Si Si1 0.870441 0.382276 0.180502
Si Si2 0.760306 0.499060 0.832036
Si Si3 0.289021 0.741470 0.578975
Si Si4 0.376474 0.790323 0.787515
Si Si5 0.970425 0.999044 0.672964
O O1 0.812132 0.524601 0.114265
O O2 0.900451 0.541344 0.244590
O O3 0.808394 0.197399 0.184215
O O4 0.944174 0.252931 0.171721
O O5 0.772347 0.615758 0.898634
O O6 0.709128 0.667817 0.770878
O O7 0.846226 0.417764 0.832826
O O8 0.250000 0.750000 0.500000
O O9 0.381929 0.615008 0.618130
O O10 0.448695 0.606320 0.829579
O O11 0.000000 0.060224 0.750000
#
# Coordination Sequence:
#
# PCOD9269003 Si02
#       5
#     8   8   8   8   8
#     4  10  20  35  60  82 124 151 197 253 303 362
#     4  10  20  33  59  89 118 160 199 256 319 355
#     4  10  23  41  59  84 123 170 213 248 305 377
#     4  11  20  34  57  95 123 150 204 257 316 362
#     4  11  21  33  57  94 116 155 207 256 313 355
#
# _framework density 18.539625999999998
#
# number of rings (size 3 to 8) (size 9 to 14) (size 15 to 20)
#    0.000    1.600    8.000    0.000    2.800    3.200 
#    0.000    1.000    0.000    2.400    0.000    0.000 
#    0.000    0.000    0.000    0.000    0.000    0.000 
#
# Total GULP energy -111429.663499 kJ/mol
# GULP energy per Si atom -5571.483175 kJ/mol
# Density = 1.849743 g / cm^3
# Si number density = 18.539626 Si / 1000 Ang^3
#
#
#
# Elastic Constant Matrix: (Units=GPa)
#
#
# Indices 1 2 3 4 5 6 
#
# 1 98.1884 47.9810 41.4162 0.0000 -12.5191 0.0000
# 2 47.9810 107.3434 35.3379 0.0000 -10.9365 0.0001
# 3 41.4162 35.3379 109.1703 0.0000 -12.3343 0.0000
# 4 0.0000 0.0000 0.0000 14.0828 0.0000 1.6394
# 5 -12.5191 -10.9365 -12.3343 0.0000 19.8832 0.0000
# 6 0.0000 0.0001 0.0000 1.6394 0.0000 41.9951
#
#
#
# Elastic Compliance Matrix: (Units=1/GPa)
#
#
# Indices 1 2 3 4 5 6 
#
# 1 0.014614 -0.004955 -0.003450 0.000000 0.004336 0.000000
# 2 -0.004955 0.012398 -0.001845 0.000000 0.002556 0.000000
# 3 -0.003450 -0.001845 0.011513 0.000000 0.003955 0.000000
# 4 0.000000 0.000000 0.000000 0.071333 0.000000 -0.002785
# 5 0.004336 0.002556 0.003955 0.000000 0.056882 0.000000
# 6 0.000000 0.000000 0.000000 -0.002785 0.000000 0.023921
#
#
# Mechanical properties :
#
#
# Convention : Reuss Voigt Hill
#
# Bulk Modulus (GPa) = 55.47776 62.68581 59.08179
# Shear Modulus (GPa) = 23.02352 27.85670 25.44011
#
# Velocity S-wave (km/s) = 3.52782 3.88048 3.70834
# Velocity P-wave (km/s) = 6.82516 7.34593 7.09033
#
# Compressibility (1/GPa) = 0.01802524
#
# Stress axis : x y z
#
# Youngs Moduli (GPa) = 68.42841 80.65681 86.85823
#
# Poissons Ratio (x) = 0.39962 0.29970
# Poissons Ratio (y) = 0.33903 0.16025
# Poissons Ratio (z) = 0.23611 0.14880
#
# Static dielectric constant tensor:
#      x y z
#    x 1.724860 0.000000 -0.003020 
#    y 0.000000 1.700890 0.000000 
#    z -0.003020 0.000000 1.583590 
# 
# From -- ./inp_files/208103.got.cif
#   From: 2010.05.17/outbox.cif.g08.bks.cpg/sg15_105_cif.got.tgz:208103.got - 2010.06.03 18:47:42.
