data_PCOD9269807
_publ_section_title
;
Structure prediction by ZEFSAII (Michael W. Deem and Ramdas Pophale) SiO2 
 PCOD9269807
Probable space group: C 2/C
;
_chemical_formula_sum "Si O2"
_cell_formula_units_Z 32
_cell_length_a 13.070276
_cell_length_b 18.199560
_cell_length_c 9.065072
_cell_angle_alpha 90.000000
_cell_angle_beta 48.877561
_cell_angle_gamma 90.000000
_cell_volume 1624.382359
_symmetry_space_group_name_H-M "C 2/C"
_symmetry_group_IT_number 15
_symmetry_cell_setting 'monoclinic'
loop_
_space_group_symop_operation_xyz
x,y,z
-x,y,1/2-z
-x,-y,-z
x,-y,1/2+z
1/2+x,1/2+y,z
1/2-x,1/2+y,1/2-z
1/2-x,1/2-y,-z
1/2+x,1/2-y,1/2+z
loop_
_atom_site_type_symbol
_atom_site_label
_atom_site_fract_x
_atom_site_fract_y
_atom_site_fract_z
Si Si1 0.292603 0.506943 0.953423
Si Si2 0.564894 0.597792 0.422790
Si Si3 0.235273 0.599689 0.748573
Si Si4 0.869875 0.746773 0.768789
O O1 0.383512 0.455453 0.758515
O O2 0.206421 0.557901 0.926937
O O3 0.376999 0.559711 0.984623
O O4 0.205864 0.452598 0.137512
O O5 0.401427 0.605745 0.584451
O O6 0.620660 0.678505 0.333796
O O7 0.160576 0.676407 0.802528
O O8 0.000000 0.739582 0.750000
O O9 0.750000 0.750000 0.000000
#
# Coordination Sequence:
#
# PCOD9269807 Si02
#       4
#     8   8   8   8
#     4  10  20  34  61  91 115 148 197 244 278 336
#     4  11  19  35  60  89 114 149 197 239 284 335
#     4  11  20  36  60  86 116 151 195 239 285 337
#     4  12  23  39  59  86 117 156 192 235 290 347
#
# _framework density 19.699795999999999
#
# number of rings (size 3 to 8) (size 9 to 14) (size 15 to 20)
#    0.000    1.000    5.000    6.000    0.000    1.000 
#    0.000    1.250    0.000    0.000    0.000    0.000 
#    0.000    0.000    0.000    0.000    0.000    0.000 
#
# Total GULP energy -89372.947229 kJ/mol
# GULP energy per Si atom -5585.809202 kJ/mol
# Density = 1.965496 g / cm^3
# Si number density = 19.699796 Si / 1000 Ang^3
#
#
#
# Elastic Constant Matrix: (Units=GPa)
#
#
# Indices 1 2 3 4 5 6 
#
# 1 62.1622 63.0085 37.1222 0.0000 17.5182 0.0000
# 2 63.0085 211.7494 48.5008 0.0000 25.7060 0.0000
# 3 37.1222 48.5008 61.3168 0.0000 25.4328 0.0000
# 4 0.0000 0.0000 0.0000 30.0886 0.0000 3.2361
# 5 17.5182 25.7060 25.4328 0.0000 37.4080 0.0000
# 6 0.0000 0.0000 0.0000 3.2361 0.0000 39.2704
#
#
#
# Elastic Compliance Matrix: (Units=1/GPa)
#
#
# Indices 1 2 3 4 5 6 
#
# 1 0.030194 -0.005821 -0.013189 0.000000 -0.001173 0.000000
# 2 -0.005821 0.006929 -0.001549 0.000000 -0.000982 0.000000
# 3 -0.013189 -0.001549 0.031358 0.000000 -0.014079 0.000000
# 4 0.000000 0.000000 0.000000 0.033532 0.000000 -0.002763
# 5 -0.001173 -0.000982 -0.014079 0.000000 0.037528 0.000000
# 6 0.000000 0.000000 0.000000 -0.002763 0.000000 0.025692
#
#
# Mechanical properties :
#
#
# Convention : Reuss Voigt Hill
#
# Bulk Modulus (GPa) = 36.54580 70.27682 53.41131
# Shear Modulus (GPa) = 23.20463 33.79319 28.49891
#
# Velocity S-wave (km/s) = 3.43580 4.14624 3.80762
# Velocity P-wave (km/s) = 5.85929 7.65984 6.81925
#
# Compressibility (1/GPa) = 0.02736293
#
# Stress axis : x y z
#
# Youngs Moduli (GPa) = 33.11866 144.32572 31.88937
#
# Poissons Ratio (x) = 0.84018 0.42059
# Poissons Ratio (y) = 0.19280 0.04939
# Poissons Ratio (z) = 0.43681 0.22354
#
# Static dielectric constant tensor:
#      x y z
#    x 1.695120 0.000000 0.012520 
#    y 0.000000 1.727520 0.000000 
#    z 0.012520 0.000000 1.692250 
# 
# From -- ./inp_files/28633.got.cif
#   From: 2010.05.17/outbox.cif.g08.bks.cpg/sg15_15_cif.got.tgz:28633.got - 2010.06.03 18:47:42.
