data_PCOD9269453
_publ_section_title
;
Structure prediction by ZEFSAII (Michael W. Deem and Ramdas Pophale) SiO2 
 PCOD9269453
Probable space group: C 2/C
;
_chemical_formula_sum "Si O2"
_cell_formula_units_Z 64
_cell_length_a 17.785758
_cell_length_b 22.491240
_cell_length_c 15.996734
_cell_angle_alpha 90.000000
_cell_angle_beta 32.023094
_cell_angle_gamma 90.000000
_cell_volume 3393.179401
_symmetry_space_group_name_H-M "C 2/C"
_symmetry_group_IT_number 15
_symmetry_cell_setting 'monoclinic'
loop_
_space_group_symop_operation_xyz
x,y,z
-x,y,1/2-z
-x,-y,-z
x,-y,1/2+z
1/2+x,1/2+y,z
1/2-x,1/2+y,1/2-z
1/2-x,1/2-y,-z
1/2+x,1/2-y,1/2+z
loop_
_atom_site_type_symbol
_atom_site_label
_atom_site_fract_x
_atom_site_fract_y
_atom_site_fract_z
Si Si1 0.655101 0.915269 0.080866
Si Si2 0.687518 0.817943 0.179764
Si Si3 0.490820 0.301116 0.658764
Si Si4 0.700584 0.407255 0.726611
Si Si5 0.706634 0.468313 0.003026
Si Si6 0.590023 0.536940 0.796463
Si Si7 0.894203 0.556275 0.188213
Si Si8 0.664528 0.075483 0.829713
O O1 0.500000 0.938546 0.250000
O O2 0.668517 0.850894 0.108776
O O3 0.681951 0.912651 0.957543
O O4 0.769070 0.960426 0.012790
O O5 0.587524 0.761380 0.279208
O O6 0.650411 0.868366 0.282707
O O7 0.851819 0.799890 0.027274
O O8 0.500000 0.313741 0.750000
O O9 0.398831 0.352374 0.701574
O O10 0.612543 0.468304 0.801314
O O11 0.786171 0.406655 0.731796
O O12 0.574563 0.454033 0.067274
O O13 0.667092 0.451495 0.134636
O O14 0.844439 0.440005 0.830569
O O15 0.675896 0.573148 0.784756
O O16 0.868386 0.486909 0.186370
O O17 0.051553 0.574321 0.012311
#
# Coordination Sequence:
#
# PCOD9269453 Si02
#       8
#     8   8   8   8   8   8   8   8
#     4  11  21  34  57  77 118 164 196 239 282 336
#     4  12  25  40  58  78 120 157 206 246 283 333
#     4  12  26  40  57  84 115 164 210 241 279 338
#     4  10  22  35  54  81 117 153 201 236 282 345
#     4  10  20  34  56  86 117 146 190 229 300 353
#     4   9  21  36  56  85 118 152 186 239 292 360
#     4  10  21  34  58  85 114 151 192 238 295 355
#     4  10  22  38  55  83 116 153 195 241 296 345
#
# _framework density 18.861367000000001
#
# number of rings (size 3 to 8) (size 9 to 14) (size 15 to 20)
#    0.000    1.500    2.500    2.250   12.250    1.000 
#    0.000    0.000    0.000    0.000    0.000    0.875 
#    0.000    0.000    0.000    0.000    0.000    0.000 
#
# Total GULP energy -178827.941457 kJ/mol
# GULP energy per Si atom -5588.373171 kJ/mol
# Density = 1.881844 g / cm^3
# Si number density = 18.861367 Si / 1000 Ang^3
#
#
#
# Elastic Constant Matrix: (Units=GPa)
#
#
# Indices 1 2 3 4 5 6 
#
# 1 44.6759 26.0670 9.1713 0.0029 -16.4445 -0.0019
# 2 26.0670 67.6798 16.6632 0.0078 -5.4534 -0.0017
# 3 9.1713 16.6632 96.5184 0.0195 -3.1165 -0.0056
# 4 0.0029 0.0078 0.0195 20.6731 -0.0039 -4.5231
# 5 -16.4445 -5.4534 -3.1165 -0.0039 28.0581 0.0006
# 6 -0.0019 -0.0017 -0.0056 -4.5231 0.0006 28.7703
#
#
#
# Elastic Compliance Matrix: (Units=1/GPa)
#
#
# Indices 1 2 3 4 5 6 
#
# 1 0.036833 -0.012469 -0.000731 0.000004 0.019083 0.000002
# 2 -0.012469 0.019861 -0.002364 -0.000004 -0.003710 -0.000001
# 3 -0.000731 -0.002364 0.010849 -0.000009 0.000317 0.000001
# 4 0.000004 -0.000004 -0.000009 0.050095 0.000007 0.007876
# 5 0.019083 -0.003710 0.000317 0.000007 0.046138 0.000001
# 6 0.000002 -0.000001 0.000001 0.007876 0.000001 0.035996
#
#
# Mechanical properties :
#
#
# Convention : Reuss Voigt Hill
#
# Bulk Modulus (GPa) = 27.46129 34.74191 31.10160
# Shear Modulus (GPa) = 20.57299 25.96514 23.26906
#
# Velocity S-wave (km/s) = 3.30623 3.71432 3.51620
# Velocity P-wave (km/s) = 5.40056 6.07079 5.74546
#
# Compressibility (1/GPa) = 0.03641490
#
# Stress axis : x y z
#
# Youngs Moduli (GPa) = 27.14988 50.35050 92.17834
#
# Poissons Ratio (x) = 0.62780 0.06739
# Poissons Ratio (y) = 0.33852 0.21789
# Poissons Ratio (z) = 0.01985 0.11902
#
# Static dielectric constant tensor:
#      x y z
#    x 1.681040 0.000000 -0.004570 
#    y 0.000000 1.613130 0.000000 
#    z -0.004570 0.000000 1.712000 
# 
# From -- ./inp_files/211963.got.cif
#   From: 2010.05.17/outbox.cif.g08.bks.cpg/sg15_106_cif.got.tgz:211963.got - 2010.06.03 18:47:42.
