data_PCOD9269234
_publ_section_title
;
Structure prediction by ZEFSAII (Michael W. Deem and Ramdas Pophale) SiO2 
 PCOD9269234
Probable space group: C 2/C
;
_chemical_formula_sum "Si O2"
_cell_formula_units_Z 60
_cell_length_a 24.794724
_cell_length_b 7.502673
_cell_length_c 12.829995
_cell_angle_alpha 90.000000
_cell_angle_beta 88.365226
_cell_angle_gamma 90.000000
_cell_volume 2385.750279
_symmetry_space_group_name_H-M "C 2/C"
_symmetry_group_IT_number 15
_symmetry_cell_setting 'monoclinic'
loop_
_space_group_symop_operation_xyz
x,y,z
-x,y,1/2-z
-x,-y,-z
x,-y,1/2+z
1/2+x,1/2+y,z
1/2-x,1/2+y,1/2-z
1/2-x,1/2-y,-z
1/2+x,1/2-y,1/2+z
loop_
_atom_site_type_symbol
_atom_site_label
_atom_site_fract_x
_atom_site_fract_y
_atom_site_fract_z
Si Si1 0.000000 0.423760 0.250000
Si Si2 0.554399 0.398088 0.472666
Si Si3 0.399711 0.127387 0.637438
Si Si4 0.774121 0.095251 0.574996
Si Si5 0.175242 0.311182 0.193529
Si Si6 0.623407 0.278438 0.299051
Si Si7 0.657082 0.556533 0.588705
Si Si8 0.075152 0.521701 0.572586
O O1 0.046719 0.311448 0.304559
O O2 0.030359 0.534452 0.158808
O O3 0.500000 0.500000 0.500000
O O4 0.574508 0.393377 0.351233
O O5 0.603195 0.488093 0.534297
O O6 0.550764 0.194546 0.514479
O O7 0.392201 0.922387 0.672977
O O8 0.408397 0.121712 0.514455
O O9 0.345737 0.208399 0.687489
O O10 0.750000 0.250000 0.500000
O O11 0.727523 0.072549 0.663823
O O12 0.825223 0.174936 0.632527
O O13 0.796434 0.932920 0.502625
O O14 0.179444 0.109926 0.154840
O O15 0.127250 0.400401 0.128482
O O16 0.639450 0.304231 0.178195
#
# Coordination Sequence:
#
# PCOD9269234 Si02
#       8
#     4   8   8   8   8   8   8   8
#     4  10  20  34  54  74 100 140 174 212 260 306
#     4   9  19  33  52  75 105 144 179 214 266 319
#     4  10  20  35  52  77 106 135 172 215 262 313
#     4   9  18  36  58  76 104 144 179 215 264 319
#     4   9  19  35  57  77 100 141 180 211 259 315
#     4  10  21  34  52  80 109 136 173 221 270 312
#     4   9  19  36  53  78 109 137 179 225 259 316
#     4   9  19  35  52  77 105 133 176 219 254 310
#
# _framework density 25.149321
#
# number of rings (size 3 to 8) (size 9 to 14) (size 15 to 20)
#    0.000    2.667    0.000    2.800    0.000    9.067 
#    0.000    6.000    0.000    0.000    0.000    0.000 
#    0.000    0.000    0.000    0.000    0.000    0.000 
#
# Total GULP energy -167675.833897 kJ/mol
# GULP energy per Si atom -5589.194463 kJ/mol
# Density = 2.509208 g / cm^3
# Si number density = 25.149321 Si / 1000 Ang^3
#
#
#
# Elastic Constant Matrix: (Units=GPa)
#
#
# Indices 1 2 3 4 5 6 
#
# 1 119.8371 14.1205 50.7985 0.0000 -34.1631 0.0000
# 2 14.1205 55.3250 39.1745 0.0000 -9.1153 0.0000
# 3 50.7985 39.1745 157.4909 0.0000 -29.3442 0.0000
# 4 0.0000 0.0000 0.0000 33.7256 0.0000 -5.9043
# 5 -34.1631 -9.1153 -29.3442 0.0000 49.5493 0.0000
# 6 0.0000 0.0000 0.0000 -5.9043 0.0000 12.7258
#
#
#
# Elastic Compliance Matrix: (Units=1/GPa)
#
#
# Indices 1 2 3 4 5 6 
#
# 1 0.011160 -0.000115 -0.002407 0.000000 0.006248 0.000000
# 2 -0.000115 0.021976 -0.005273 0.000000 0.000841 0.000000
# 3 -0.002407 -0.005273 0.008933 0.000000 0.002661 0.000000
# 4 0.000000 0.000000 0.000000 0.032272 0.000000 0.014973
# 5 0.006248 0.000841 0.002661 0.000000 0.026220 0.000000
# 6 0.000000 0.000000 0.000000 0.014973 0.000000 0.085528
#
#
# Mechanical properties :
#
#
# Convention : Reuss Voigt Hill
#
# Bulk Modulus (GPa) = 37.76322 60.09332 48.92827
# Shear Modulus (GPa) = 23.75240 34.43743 29.09492
#
# Velocity S-wave (km/s) = 3.07653 3.70445 3.40499
# Velocity P-wave (km/s) = 5.26006 6.49952 5.91236
#
# Compressibility (1/GPa) = 0.02648079
#
# Stress axis : x y z
#
# Youngs Moduli (GPa) = 89.60943 45.50340 111.94118
#
# Poissons Ratio (x) = 0.00521 0.26943
# Poissons Ratio (y) = 0.01027 0.59024
# Poissons Ratio (z) = 0.21568 0.23993
#
# Static dielectric constant tensor:
#      x y z
#    x 2.027210 0.000000 -0.044870 
#    y 0.000000 2.034890 0.000000 
#    z -0.044870 0.000000 2.115080 
# 
# From -- ./inp_files/176185.got.cif
#   From: 2010.05.17/outbox.cif.g08.bks.cpg/sg15_89_cif.got.tgz:176185.got - 2010.06.03 18:47:42.
