data_PCOD9269399
_publ_section_title
;
Structure prediction by ZEFSAII (Michael W. Deem and Ramdas Pophale) SiO2 
 PCOD9269399
Probable space group: C 2/C
;
_chemical_formula_sum "Si O2"
_cell_formula_units_Z 64
_cell_length_a 17.621322
_cell_length_b 9.351630
_cell_length_c 21.187757
_cell_angle_alpha 90.000000
_cell_angle_beta 90.314030
_cell_angle_gamma 90.000000
_cell_volume 3491.437427
_symmetry_space_group_name_H-M "C 2/C"
_symmetry_group_IT_number 15
_symmetry_cell_setting 'monoclinic'
loop_
_space_group_symop_operation_xyz
x,y,z
-x,y,1/2-z
-x,-y,-z
x,-y,1/2+z
1/2+x,1/2+y,z
1/2-x,1/2+y,1/2-z
1/2-x,1/2-y,-z
1/2+x,1/2-y,1/2+z
loop_
_atom_site_type_symbol
_atom_site_label
_atom_site_fract_x
_atom_site_fract_y
_atom_site_fract_z
Si Si1 0.801051 0.669551 0.448909
Si Si2 0.048839 0.599197 0.190639
Si Si3 0.226476 0.866747 0.448932
Si Si4 0.699452 0.352633 0.307346
Si Si5 0.051345 0.920396 0.449840
Si Si6 0.975987 0.615840 0.448568
Si Si7 0.278130 0.149888 0.306221
Si Si8 0.024575 0.905245 0.313002
O O1 0.750000 0.750000 0.500000
O O2 0.782344 0.501159 0.451957
O O3 0.891391 0.679969 0.459097
O O4 0.779526 0.714618 0.377022
O O5 0.025342 0.545305 0.121342
O O6 0.137991 0.580806 0.201221
O O7 0.000000 0.547699 0.250000
O O8 0.032323 0.770218 0.184484
O O9 0.250000 0.750000 0.500000
O O10 0.226452 0.806572 0.377255
O O11 0.141558 0.928556 0.459893
O O12 0.732608 0.263142 0.249579
O O13 0.719426 0.520027 0.302308
O O14 0.608610 0.340426 0.305356
O O15 0.028242 0.979368 0.380504
O O16 0.031919 0.751436 0.449497
O O17 0.000000 0.000000 0.500000
O O18 0.000000 0.500000 0.500000
O O19 0.000000 0.988711 0.250000
#
# Coordination Sequence:
#
# PCOD9269399 Si02
#       8
#     8   8   8   8   8   8   8   8
#     4  10  21  37  55  79 114 144 176 223 275 322
#     4   9  16  33  59  75 100 142 189 210 250 324
#     4  10  21  37  55  79 114 144 176 223 275 322
#     4  10  20  35  55  82 110 141 180 229 270 317
#     4  10  20  34  56  81 106 140 179 220 264 316
#     4  10  20  34  56  81 106 140 179 220 264 316
#     4  10  20  35  55  82 110 141 180 229 270 317
#     4   9  16  33  59  75 100 142 189 210 250 324
#
# _framework density 18.330559000000001
#
# number of rings (size 3 to 8) (size 9 to 14) (size 15 to 20)
#    0.000    2.250    2.500    1.500    0.000    1.000 
#    4.500    0.000    0.000    0.000    0.000    0.000 
#    0.000    0.000    0.000    0.000    0.000    0.000 
#
# Total GULP energy -178345.904915 kJ/mol
# GULP energy per Si atom -5573.309529 kJ/mol
# Density = 1.828884 g / cm^3
# Si number density = 18.330559 Si / 1000 Ang^3
#
#
#
# Elastic Constant Matrix: (Units=GPa)
#
#
# Indices 1 2 3 4 5 6 
#
# 1 40.5641 -3.6693 12.0486 0.0000 -5.6278 0.0000
# 2 -3.6693 17.7798 24.7685 0.0000 3.9542 0.0000
# 3 12.0486 24.7685 171.9904 0.0000 -5.5614 0.0000
# 4 0.0000 0.0000 0.0000 29.4375 0.0000 -7.7861
# 5 -5.6278 3.9542 -5.5614 0.0000 28.8966 0.0000
# 6 0.0000 0.0000 0.0000 -7.7861 0.0000 16.4634
#
#
#
# Elastic Compliance Matrix: (Units=1/GPa)
#
#
# Indices 1 2 3 4 5 6 
#
# 1 0.026859 0.009077 -0.003079 0.000000 0.003396 0.000000
# 2 0.009077 0.077552 -0.012166 0.000000 -0.011186 0.000000
# 3 -0.003079 -0.012166 0.007865 0.000000 0.002579 0.000000
# 4 0.000000 0.000000 0.000000 0.038827 0.000000 0.018363
# 5 0.003396 -0.011186 0.002579 0.000000 0.037295 0.000000
# 6 0.000000 0.000000 0.000000 0.018363 0.000000 0.069425
#
#
# Mechanical properties :
#
#
# Convention : Reuss Voigt Hill
#
# Bulk Modulus (GPa) = 10.00592 32.95887 21.48239
# Shear Modulus (GPa) = 16.47590 28.10526 22.29058
#
# Velocity S-wave (km/s) = 3.00129 3.91992 3.49095
# Velocity P-wave (km/s) = 4.18100 6.20540 5.29092
#
# Compressibility (1/GPa) = 0.09994086
#
# Stress axis : x y z
#
# Youngs Moduli (GPa) = 37.23131 12.89451 127.13933
#
# Poissons Ratio (x) = -0.11704 0.39145
# Poissons Ratio (y) = -0.33794 1.54677
# Poissons Ratio (z) = 0.11463 0.15687
#
# Static dielectric constant tensor:
#      x y z
#    x 1.612890 0.000000 -0.002390 
#    y 0.000000 1.592250 0.000000 
#    z -0.002390 0.000000 1.738100 
# 
# From -- ./inp_files/247486.got.cif
#   From: 2010.05.17/outbox.cif.g08.bks.cpg/sg15_124_cif.got.tgz:247486.got - 2010.06.03 18:47:42.
