data_PCOD9269328
_publ_section_title
;
Structure prediction by ZEFSAII (Michael W. Deem and Ramdas Pophale) SiO2 
 PCOD9269328
Probable space group: C 2/C
;
_chemical_formula_sum "Si O2"
_cell_formula_units_Z 56
_cell_length_a 26.175344
_cell_length_b 13.922707
_cell_length_c 9.821183
_cell_angle_alpha 90.000000
_cell_angle_beta 52.428211
_cell_angle_gamma 90.000000
_cell_volume 2836.798285
_symmetry_space_group_name_H-M "C 2/C"
_symmetry_group_IT_number 15
_symmetry_cell_setting 'monoclinic'
loop_
_space_group_symop_operation_xyz
x,y,z
-x,y,1/2-z
-x,-y,-z
x,-y,1/2+z
1/2+x,1/2+y,z
1/2-x,1/2+y,1/2-z
1/2-x,1/2-y,-z
1/2+x,1/2-y,1/2+z
loop_
_atom_site_type_symbol
_atom_site_label
_atom_site_fract_x
_atom_site_fract_y
_atom_site_fract_z
Si Si1 0.772056 0.386789 0.091309
Si Si2 0.430273 0.255448 0.914554
Si Si3 0.178552 0.795633 0.621756
Si Si4 0.957012 0.021960 0.441530
Si Si5 0.647321 0.268949 0.205477
Si Si6 0.648522 0.377833 0.947791
Si Si7 0.256049 0.476681 0.091682
O O1 0.701458 0.334612 0.194400
O O2 0.782272 0.418848 0.230225
O O3 0.817937 0.310403 0.944138
O O4 0.775769 0.482477 0.992699
O O5 0.500000 0.217976 0.750000
O O6 0.376332 0.248987 0.883752
O O7 0.442754 0.367256 0.934006
O O8 0.398546 0.220846 0.107897
O O9 0.250000 0.750000 0.500000
O O10 0.158323 0.801710 0.812233
O O11 0.188311 0.904118 0.548914
O O12 0.000000 0.983622 0.250000
O O13 0.891997 0.963022 0.551520
O O14 0.000000 0.000000 0.500000
O O15 0.617410 0.337686 0.137541
O O16 0.715153 0.427452 0.885090
#
# Coordination Sequence:
#
# PCOD9269328 Si02
#       7
#     8   8   8   8   8   8   8
#     4  10  20  34  55  81 115 148 194 245 294 341
#     4  11  23  39  57  83 123 162 203 236 289 361
#     4  12  24  37  56  87 122 155 200 252 298 351
#     4  11  21  33  54  80 115 161 198 222 270 355
#     4  10  21  35  56  81 115 157 200 241 293 345
#     4  11  21  34  54  81 118 159 192 239 283 349
#     4  11  20  34  54  83 115 150 189 244 298 350
#
# _framework density 19.740565
#
# number of rings (size 3 to 8) (size 9 to 14) (size 15 to 20)
#    0.000    1.143    4.286    3.429    6.000    0.000 
#    0.000    0.000    0.000    0.000    0.000    4.000 
#    0.000    0.000    0.000    0.000    0.000    0.000 
#
# Total GULP energy -156188.166011 kJ/mol
# GULP energy per Si atom -5578.148786 kJ/mol
# Density = 1.969563 g / cm^3
# Si number density = 19.740565 Si / 1000 Ang^3
#
#
#
# Elastic Constant Matrix: (Units=GPa)
#
#
# Indices 1 2 3 4 5 6 
#
# 1 59.7118 -7.2853 22.0869 0.0000 8.2318 0.0000
# 2 -7.2853 19.5392 6.7277 0.0000 5.5430 0.0000
# 3 22.0869 6.7277 132.2909 0.0000 11.6167 0.0000
# 4 0.0000 0.0000 0.0000 27.0224 0.0000 -0.8677
# 5 8.2318 5.5430 11.6167 0.0000 23.6943 0.0000
# 6 0.0000 0.0000 0.0000 -0.8677 0.0000 18.0882
#
#
#
# Elastic Compliance Matrix: (Units=1/GPa)
#
#
# Indices 1 2 3 4 5 6 
#
# 1 0.020410 0.011022 -0.003259 0.000000 -0.008071 0.000000
# 2 0.011022 0.061154 -0.003509 0.000000 -0.016415 0.000000
# 3 -0.003259 -0.003509 0.008475 0.000000 -0.002202 0.000000
# 4 0.000000 0.000000 0.000000 0.037063 0.000000 0.001778
# 5 -0.008071 -0.016415 -0.002202 0.000000 0.049928 0.000000
# 6 0.000000 0.000000 0.000000 0.001778 0.000000 0.055370
#
#
# Mechanical properties :
#
#
# Convention : Reuss Voigt Hill
#
# Bulk Modulus (GPa) = 10.14749 28.28896 19.21822
# Shear Modulus (GPa) = 19.47485 26.42848 22.95167
#
# Velocity S-wave (km/s) = 3.14433 3.66292 3.41349
# Velocity P-wave (km/s) = 4.28182 5.67898 5.02915
#
# Compressibility (1/GPa) = 0.09854655
#
# Stress axis : x y z
#
# Youngs Moduli (GPa) = 48.99507 16.35229 117.99316
#
# Poissons Ratio (x) = -0.18024 0.38459
# Poissons Ratio (y) = -0.54002 0.41401
# Poissons Ratio (z) = 0.15969 0.05738
#
# Static dielectric constant tensor:
#      x y z
#    x 1.643480 0.000000 -0.003350 
#    y 0.000000 1.711080 0.000000 
#    z -0.003350 0.000000 1.751500 
# 
# From -- ./inp_files/56182.got.cif
#   From: 2010.05.17/outbox.cif.g08.bks.cpg/sg15_29_cif.got.tgz:56182.got - 2010.06.03 18:47:42.
