data_PCOD9269831
_publ_section_title
;
Structure prediction by ZEFSAII (Michael W. Deem and Ramdas Pophale) SiO2 
 PCOD9269831
Probable space group: C 2/C
;
_chemical_formula_sum "Si O2"
_cell_formula_units_Z 60
_cell_length_a 9.246268
_cell_length_b 16.186105
_cell_length_c 19.035705
_cell_angle_alpha 90.000000
_cell_angle_beta 61.563456
_cell_angle_gamma 90.000000
_cell_volume 2505.169479
_symmetry_space_group_name_H-M "C 2/C"
_symmetry_group_IT_number 15
_symmetry_cell_setting 'monoclinic'
loop_
_space_group_symop_operation_xyz
x,y,z
-x,y,1/2-z
-x,-y,-z
x,-y,1/2+z
1/2+x,1/2+y,z
1/2-x,1/2+y,1/2-z
1/2-x,1/2-y,-z
1/2+x,1/2-y,1/2+z
loop_
_atom_site_type_symbol
_atom_site_label
_atom_site_fract_x
_atom_site_fract_y
_atom_site_fract_z
Si Si1 0.879645 0.695913 0.898932
Si Si2 0.226210 0.133857 0.802744
Si Si3 0.190072 0.313947 0.625748
Si Si4 0.500000 0.595951 0.250000
Si Si5 0.544324 0.348473 0.538666
Si Si6 0.063063 0.014893 0.602637
Si Si7 0.195688 0.626871 0.875953
Si Si8 0.837713 0.323774 0.704643
O O1 0.869915 0.651891 0.825882
O O2 0.955286 0.788143 0.891512
O O3 0.000498 0.643834 0.921418
O O4 0.688121 0.696033 0.963004
O O5 0.267817 0.102434 0.714260
O O6 0.162074 0.225257 0.800606
O O7 0.084756 0.079864 0.872480
O O8 0.359081 0.345402 0.552975
O O9 0.215578 0.214663 0.626200
O O10 0.178611 0.345267 0.709091
O O11 0.018489 0.344895 0.633042
O O12 0.502228 0.538046 0.316760
O O13 0.326855 0.643795 0.292307
O O14 0.590412 0.443275 0.539868
O O15 0.226921 0.060951 0.589869
#
# Coordination Sequence:
#
# PCOD9269831 Si02
#       8
#     8   8   8   4   8   8   8   8
#     4  10  23  42  66  90 121 180 214 250 302 388
#     4  11  21  37  62  92 123 162 211 249 324 377
#     4   9  18  37  60  85 116 163 199 251 303 377
#     4  12  22  36  58  98 122 148 200 264 314 350
#     4  10  22  42  66  89 129 162 222 258 305 361
#     4  12  22  39  61  92 127 158 196 275 312 365
#     4  10  20  38  62  93 125 160 207 255 318 375
#     4  10  20  34  62  88 117 160 198 248 319 375
#
# _framework density 23.950475000000001
#
# number of rings (size 3 to 8) (size 9 to 14) (size 15 to 20)
#    0.000    1.600    4.000    1.200    3.733    1.067 
#    2.400    0.667    2.933    0.000    0.000    0.000 
#    0.000    0.000    0.000    0.000    0.000    0.000 
#
# Total GULP energy -167420.340071 kJ/mol
# GULP energy per Si atom -5580.678002 kJ/mol
# Density = 2.389596 g / cm^3
# Si number density = 23.950475 Si / 1000 Ang^3
#
#
#
# Elastic Constant Matrix: (Units=GPa)
#
#
# Indices 1 2 3 4 5 6 
#
# 1 146.2702 46.1715 35.6681 0.0000 -46.7522 0.0000
# 2 46.1715 72.1112 5.3830 0.0000 -5.7516 0.0000
# 3 35.6681 5.3830 53.7000 0.0000 -27.1217 0.0000
# 4 0.0000 0.0000 0.0000 16.6635 0.0000 -3.1178
# 5 -46.7522 -5.7516 -27.1217 0.0000 45.8636 0.0000
# 6 0.0000 0.0000 0.0000 -3.1178 0.0000 38.5764
#
#
#
# Elastic Compliance Matrix: (Units=1/GPa)
#
#
# Indices 1 2 3 4 5 6 
#
# 1 0.013407 -0.007502 -0.002461 0.000000 0.011271 0.000000
# 2 -0.007502 0.018226 0.000639 0.000000 -0.004984 0.000000
# 3 -0.002461 0.000639 0.027043 0.000000 0.013564 0.000000
# 4 0.000000 0.000000 0.000000 0.060933 0.000000 0.004925
# 5 0.011271 -0.004984 0.013564 0.000000 0.040689 0.000000
# 6 0.000000 0.000000 0.000000 0.004925 0.000000 0.026321
#
#
# Mechanical properties :
#
#
# Convention : Reuss Voigt Hill
#
# Bulk Modulus (GPa) = 24.98245 49.61405 37.29825
# Shear Modulus (GPa) = 22.87193 32.54462 27.70827
#
# Velocity S-wave (km/s) = 3.09361 3.69023 3.40501
# Velocity P-wave (km/s) = 4.81810 6.23837 5.57366
#
# Compressibility (1/GPa) = 0.04002809
#
# Stress axis : x y z
#
# Youngs Moduli (GPa) = 74.58637 54.86812 36.97834
#
# Poissons Ratio (x) = 0.41161 0.09099
# Poissons Ratio (y) = 0.55953 -0.02362
# Poissons Ratio (z) = 0.18353 -0.03504
#
# Static dielectric constant tensor:
#      x y z
#    x 1.983290 0.000000 0.036970 
#    y 0.000000 1.903990 0.000000 
#    z 0.036970 0.000000 2.016660 
# 
# From -- ./inp_files/265536.got.cif
#   From: 2010.05.17/outbox.cif.g08.bks.cpg/sg15_133_cif.got.tgz:265536.got - 2010.06.03 18:47:42.
