data_PCOD9269909
_publ_section_title
;
Structure prediction by ZEFSAII (Michael W. Deem and Ramdas Pophale) SiO2 
 PCOD9269909
Probable space group: C 2/C
;
_chemical_formula_sum "Si O2"
_cell_formula_units_Z 40
_cell_length_a 18.576678
_cell_length_b 8.794339
_cell_length_c 9.708685
_cell_angle_alpha 90.000000
_cell_angle_beta 106.673600
_cell_angle_gamma 90.000000
_cell_volume 1519.415960
_symmetry_space_group_name_H-M "C 2/C"
_symmetry_group_IT_number 15
_symmetry_cell_setting 'monoclinic'
loop_
_space_group_symop_operation_xyz
x,y,z
-x,y,1/2-z
-x,-y,-z
x,-y,1/2+z
1/2+x,1/2+y,z
1/2-x,1/2+y,1/2-z
1/2-x,1/2-y,-z
1/2+x,1/2-y,1/2+z
loop_
_atom_site_type_symbol
_atom_site_label
_atom_site_fract_x
_atom_site_fract_y
_atom_site_fract_z
Si Si1 0.589766 0.315094 0.311480
Si Si2 0.356560 0.655816 0.182022
Si Si3 0.500000 0.140837 0.750000
Si Si4 0.190037 0.310598 0.077649
Si Si5 0.500000 0.000000 0.000000
Si Si6 0.146494 0.348398 0.574017
O O1 0.500000 0.327006 0.250000
O O2 0.627169 0.480811 0.339276
O O3 0.608836 0.219020 0.459302
O O4 0.631539 0.240503 0.205088
O O5 0.436786 0.729940 0.261378
O O6 0.306300 0.709403 0.283582
O O7 0.326753 0.732657 0.027041
O O8 0.541717 0.008179 0.670317
O O9 0.190530 0.491722 0.102730
O O10 0.250000 0.250000 0.000000
O O11 0.561921 0.113239 0.963820
#
# Coordination Sequence:
#
# PCOD9269909 Si02
#       6
#     8   8   4   8   4   8
#     4  12  27  44  74 111 146 190 243 308 371 428
#     4  11  24  44  68 106 151 186 241 304 364 430
#     4  10  20  36  62 102 144 180 236 298 364 420
#     4  12  28  49  72 103 145 199 248 299 363 439
#     4  10  20  34  66 104 136 184 230 300 356 416
#     4  11  24  43  70 102 142 187 242 295 356 431
#
# _framework density 26.325901999999999
#
# number of rings (size 3 to 8) (size 9 to 14) (size 15 to 20)
#    0.000    0.800    3.000    3.600    7.000    4.800 
#    0.000    3.000    0.000    0.000    0.000    0.000 
#    0.000    0.000    0.000    0.000    0.000    0.000 
#
# Total GULP energy -111478.164970 kJ/mol
# GULP energy per Si atom -5573.908248 kJ/mol
# Density = 2.626598 g / cm^3
# Si number density = 26.325902 Si / 1000 Ang^3
#
#
#
# Elastic Constant Matrix: (Units=GPa)
#
#
# Indices 1 2 3 4 5 6 
#
# 1 131.2746 47.3524 31.5921 0.0000 -9.9710 0.0000
# 2 47.3524 215.7074 76.4951 0.0000 -18.4265 0.0000
# 3 31.5921 76.4951 157.1543 0.0000 -47.9343 0.0000
# 4 0.0000 0.0000 0.0000 55.5601 0.0000 -32.5779
# 5 -9.9710 -18.4265 -47.9343 0.0000 51.1341 0.0000
# 6 0.0000 0.0000 0.0000 -32.5779 0.0000 99.8779
#
#
#
# Elastic Compliance Matrix: (Units=1/GPa)
#
#
# Indices 1 2 3 4 5 6 
#
# 1 0.008392 -0.001511 -0.000866 0.000000 0.000280 0.000000
# 2 -0.001511 0.005896 -0.002812 0.000000 -0.000806 0.000000
# 3 -0.000866 -0.002812 0.010567 0.000000 0.008723 0.000000
# 4 0.000000 0.000000 0.000000 0.022255 0.000000 0.007259
# 5 0.000280 -0.000806 0.008723 0.000000 0.027498 0.000000
# 6 0.000000 0.000000 0.000000 0.007259 0.000000 0.012380
#
#
# Mechanical properties :
#
#
# Convention : Reuss Voigt Hill
#
# Bulk Modulus (GPa) = 69.07682 90.55729 79.81705
# Shear Modulus (GPa) = 48.92746 64.56087 56.74416
#
# Velocity S-wave (km/s) = 4.31574 4.95751 4.64772
# Velocity P-wave (km/s) = 7.15054 8.20015 7.69327
#
# Compressibility (1/GPa) = 0.01447664
#
# Stress axis : x y z
#
# Youngs Moduli (GPa) = 119.15465 169.60683 94.63676
#
# Poissons Ratio (x) = 0.25632 0.08196
# Poissons Ratio (y) = 0.18008 0.26611
# Poissons Ratio (z) = 0.10320 0.47692
#
# Static dielectric constant tensor:
#      x y z
#    x 2.778230 0.000000 0.854490 
#    y 0.000000 2.326800 0.000000 
#    z 0.854490 0.000000 4.239080 
# 
# From -- ./inp_files/109739.got.cif
#   From: 2010.05.17/outbox.cif.g08.bks.cpg/sg15_55_cif.got.tgz:109739.got - 2010.06.03 18:47:42.
