data_PCOD9269894
_publ_section_title
;
Structure prediction by ZEFSAII (Michael W. Deem and Ramdas Pophale) SiO2 
 PCOD9269894
Probable space group: C 2/C
;
_chemical_formula_sum "Si O2"
_cell_formula_units_Z 56
_cell_length_a 8.583429
_cell_length_b 14.846205
_cell_length_c 23.679807
_cell_angle_alpha 90.000000
_cell_angle_beta 47.478825
_cell_angle_gamma 90.000000
_cell_volume 2224.017426
_symmetry_space_group_name_H-M "C 2/C"
_symmetry_group_IT_number 15
_symmetry_cell_setting 'monoclinic'
loop_
_space_group_symop_operation_xyz
x,y,z
-x,y,1/2-z
-x,-y,-z
x,-y,1/2+z
1/2+x,1/2+y,z
1/2-x,1/2+y,1/2-z
1/2-x,1/2-y,-z
1/2+x,1/2-y,1/2+z
loop_
_atom_site_type_symbol
_atom_site_label
_atom_site_fract_x
_atom_site_fract_y
_atom_site_fract_z
Si Si1 0.748569 0.709865 0.696927
Si Si2 0.143532 0.448195 0.663632
Si Si3 0.454983 0.040814 0.432360
Si Si4 0.295958 0.116306 0.571069
Si Si5 0.800558 0.762943 0.894623
Si Si6 0.694452 0.366954 0.326133
Si Si7 0.121249 0.886776 0.525602
O O1 0.500000 0.730487 0.750000
O O2 0.826529 0.684433 0.614915
O O3 0.754050 0.634396 0.745074
O O4 0.942295 0.768341 0.671721
O O5 0.003490 0.437712 0.642009
O O6 0.197615 0.551461 0.666821
O O7 0.370214 0.401347 0.595179
O O8 0.000000 0.413976 0.750000
O O9 0.406809 0.126306 0.483251
O O10 0.626997 0.977300 0.419790
O O11 0.240897 0.980202 0.483566
O O12 0.052592 0.115153 0.615518
O O13 0.735618 0.727907 0.848125
O O14 0.776565 0.848843 0.941742
O O15 0.692909 0.683200 0.959352
#
# Coordination Sequence:
#
# PCOD9269894 Si02
#       7
#     8   8   8   8   8   8   8
#     4  10  21  37  64  92 125 169 222 272 326 398
#     4  12  23  39  67  99 129 173 227 283 337 405
#     4  11  20  39  64  94 133 168 215 280 340 395
#     4  10  20  34  64  94 126 163 218 283 327 383
#     4  11  22  40  65  89 129 181 222 268 334 416
#     4  11  20  37  67  96 124 174 233 271 331 406
#     4  11  23  39  64  92 131 171 218 275 341 396
#
# _framework density 25.179659000000001
#
# number of rings (size 3 to 8) (size 9 to 14) (size 15 to 20)
#    0.000    1.143    4.286    3.429    0.000    0.571 
#    0.000    0.714   31.429    0.000    0.000    0.000 
#    0.000    0.000    0.000    0.000    0.000    0.000 
#
# Total GULP energy -156259.018759 kJ/mol
# GULP energy per Si atom -5580.679241 kJ/mol
# Density = 2.512235 g / cm^3
# Si number density = 25.179659 Si / 1000 Ang^3
#
#
#
# Elastic Constant Matrix: (Units=GPa)
#
#
# Indices 1 2 3 4 5 6 
#
# 1 136.8021 9.7640 53.7528 -0.0026 10.1147 0.0013
# 2 9.7640 53.2912 20.0266 -0.0017 20.5279 0.0010
# 3 53.7528 20.0266 119.9121 0.0008 24.5892 -0.0003
# 4 -0.0026 -0.0017 0.0008 -9.5706 0.0007 8.6779
# 5 10.1147 20.5279 24.5892 0.0007 55.4202 -0.0004
# 6 0.0013 0.0010 -0.0003 8.6779 -0.0004 14.6054
#
#
#
# Elastic Compliance Matrix: (Units=1/GPa)
#
#
# Indices 1 2 3 4 5 6 
#
# 1 0.008876 -0.000215 -0.003990 -0.000002 0.000230 0.000000
# 2 -0.000215 0.022430 -0.002149 -0.000004 -0.007315 0.000001
# 3 -0.003990 -0.002149 0.011193 0.000002 -0.003442 0.000000
# 4 -0.000002 -0.000004 0.000002 -0.067904 0.000002 0.040346
# 5 0.000230 -0.007315 -0.003442 0.000002 0.022239 0.000000
# 6 0.000000 0.000001 0.000000 0.040346 0.000000 0.044496
#
#
# Mechanical properties :
#
#
# Convention : Reuss Voigt Hill
#
# Bulk Modulus (GPa) = 33.56966 53.01025 43.28995
# Shear Modulus (GPa) = 78.16309 27.18846 52.67577
#
# Velocity S-wave (km/s) = 5.57759 3.28956 4.57880
# Velocity P-wave (km/s) = 7.40543 5.96044 6.72187
#
# Compressibility (1/GPa) = 0.02978880
#
# Stress axis : x y z
#
# Youngs Moduli (GPa) = 112.66374 44.58341 89.34335
#
# Poissons Ratio (x) = 0.00961 0.35648
# Poissons Ratio (y) = 0.02428 0.19203
# Poissons Ratio (z) = 0.44953 0.09583
#
# Static dielectric constant tensor:
#      x y z
#    x 1.984980 0.000000 -0.000680 
#    y 0.000000 2.046960 0.000000 
#    z -0.000680 0.000000 2.057070 
# 
# From -- ./inp_files/265458.got.cif
#   From: 2010.05.17/outbox.cif.g08.bks.cpg/sg15_133_cif.got.tgz:265458.got - 2010.06.03 18:47:42.
