data_PCOD9269346
_publ_section_title
;
Structure prediction by ZEFSAII (Michael W. Deem and Ramdas Pophale) SiO2 
 PCOD9269346
Probable space group: C 2/C
;
_chemical_formula_sum "Si O2"
_cell_formula_units_Z 48
_cell_length_a 18.873532
_cell_length_b 7.876467
_cell_length_c 16.932595
_cell_angle_alpha 90.000000
_cell_angle_beta 46.395475
_cell_angle_gamma 90.000000
_cell_volume 1822.708174
_symmetry_space_group_name_H-M "C 2/C"
_symmetry_group_IT_number 15
_symmetry_cell_setting 'monoclinic'
loop_
_space_group_symop_operation_xyz
x,y,z
-x,y,1/2-z
-x,-y,-z
x,-y,1/2+z
1/2+x,1/2+y,z
1/2-x,1/2+y,1/2-z
1/2-x,1/2-y,-z
1/2+x,1/2-y,1/2+z
loop_
_atom_site_type_symbol
_atom_site_label
_atom_site_fract_x
_atom_site_fract_y
_atom_site_fract_z
Si Si1 0.884597 0.428941 0.844661
Si Si2 0.018619 0.729296 0.550652
Si Si3 0.672841 0.617470 0.234095
Si Si4 0.095494 0.342217 0.503597
Si Si5 0.798857 0.760444 0.262076
Si Si6 0.390522 0.310827 0.872200
O O1 0.876955 0.305671 0.926615
O O2 0.846586 0.358609 0.791088
O O3 0.849572 0.619447 0.890429
O O4 0.000000 0.449773 0.750000
O O5 0.056455 0.536467 0.531742
O O6 0.093025 0.840435 0.547324
O O7 0.914019 0.753057 0.676358
O O8 0.988085 0.754323 0.483025
O O9 0.772097 0.678058 0.199139
O O10 0.646905 0.437222 0.291065
O O11 0.675362 0.585924 0.138388
O O12 0.194533 0.312633 0.379884
O O13 0.500000 0.330766 0.750000
#
# Coordination Sequence:
#
# PCOD9269346 Si02
#       6
#     8   8   8   8   8   8
#     4  10  20  35  58  84 112 150 189 233 284 338
#     4   8  16  32  57  80 107 146 187 223 270 335
#     4  10  20  34  55  83 113 151 187 229 281 336
#     4   9  18  35  59  85 111 150 192 230 276 337
#     4  11  22  35  57  86 117 146 190 240 281 329
#     4   8  15  31  54  77 107 146 185 216 265 335
#
# _framework density 26.334440000000001
#
# number of rings (size 3 to 8) (size 9 to 14) (size 15 to 20)
#    0.000    2.667    0.000    2.500    0.000    6.000 
#    0.000    3.333    0.000   18.000    0.000    0.000 
#    0.000    0.000    0.000    0.000    0.000    0.000 
#
# Total GULP energy -134019.264023 kJ/mol
# GULP energy per Si atom -5584.136001 kJ/mol
# Density = 2.627450 g / cm^3
# Si number density = 26.334440 Si / 1000 Ang^3
#
#
#
# Elastic Constant Matrix: (Units=GPa)
#
#
# Indices 1 2 3 4 5 6 
#
# 1 214.2367 44.7395 12.4632 0.0000 42.5652 0.0000
# 2 44.7395 52.3331 10.8978 -0.0001 -7.7421 0.0001
# 3 12.4632 10.8978 67.0143 0.0000 0.8588 0.0000
# 4 0.0000 -0.0001 0.0000 21.0244 0.0000 1.9676
# 5 42.5652 -7.7421 0.8588 0.0000 46.0495 0.0000
# 6 0.0000 0.0001 0.0000 1.9676 0.0000 31.5108
#
#
#
# Elastic Compliance Matrix: (Units=1/GPa)
#
#
# Indices 1 2 3 4 5 6 
#
# 1 0.008189 -0.008316 -0.000056 0.000000 -0.008966 0.000000
# 2 -0.008316 0.028765 -0.003292 0.000000 0.012584 0.000000
# 3 -0.000056 -0.003292 0.015478 0.000000 -0.000791 0.000000
# 4 0.000000 0.000000 0.000000 0.047843 0.000000 -0.002987
# 5 -0.008966 0.012584 -0.000791 0.000000 0.032134 0.000000
# 6 0.000000 0.000000 0.000000 -0.002987 0.000000 0.031922
#
#
# Mechanical properties :
#
#
# Convention : Reuss Voigt Hill
#
# Bulk Modulus (GPa) = 34.35946 52.19834 43.27890
# Shear Modulus (GPa) = 25.33437 37.41583 31.37510
#
# Velocity S-wave (km/s) = 3.10502 3.77343 3.45542
# Velocity P-wave (km/s) = 5.09220 6.23293 5.69122
#
# Compressibility (1/GPa) = 0.02910407
#
# Stress axis : x y z
#
# Youngs Moduli (GPa) = 122.11439 34.76484 64.60735
#
# Poissons Ratio (x) = 0.28909 0.00360
# Poissons Ratio (y) = 1.01546 0.21272
# Poissons Ratio (z) = 0.00681 0.11446
#
# Static dielectric constant tensor:
#      x y z
#    x 2.117280 0.000000 0.026590 
#    y 0.000000 2.038880 0.000000 
#    z 0.026590 0.000000 2.140130 
# 
# From -- ./inp_files/213751.got.cif
#   From: 2010.05.17/outbox.cif.g08.bks.cpg/sg15_107_cif.got.tgz:213751.got - 2010.06.03 18:47:42.
