data_PCOD9269796
_publ_section_title
;
Structure prediction by ZEFSAII (Michael W. Deem and Ramdas Pophale) SiO2 
 PCOD9269796
Probable space group: C 2/C
;
_chemical_formula_sum "Si O2"
_cell_formula_units_Z 56
_cell_length_a 8.904455
_cell_length_b 15.644652
_cell_length_c 19.362729
_cell_angle_alpha 90.000000
_cell_angle_beta 83.295210
_cell_angle_gamma 90.000000
_cell_volume 2678.918046
_symmetry_space_group_name_H-M "C 2/C"
_symmetry_group_IT_number 15
_symmetry_cell_setting 'monoclinic'
loop_
_space_group_symop_operation_xyz
x,y,z
-x,y,1/2-z
-x,-y,-z
x,-y,1/2+z
1/2+x,1/2+y,z
1/2-x,1/2+y,1/2-z
1/2-x,1/2-y,-z
1/2+x,1/2-y,1/2+z
loop_
_atom_site_type_symbol
_atom_site_label
_atom_site_fract_x
_atom_site_fract_y
_atom_site_fract_z
Si Si1 0.322695 0.109164 0.758290
Si Si2 0.257292 0.122970 0.910662
Si Si3 0.156396 0.899270 0.562148
Si Si4 0.102571 0.031443 0.679108
Si Si5 0.061151 0.295917 0.906438
Si Si6 0.162283 0.780932 0.168513
Si Si7 0.458416 0.227440 0.559406
O O1 0.500000 0.123443 0.750000
O O2 0.264385 0.079703 0.835944
O O3 0.270556 0.041918 0.702981
O O4 0.236589 0.197047 0.738952
O O5 0.162336 0.210508 0.909041
O O6 0.427014 0.155449 0.918047
O O7 0.193323 0.075064 0.981183
O O8 0.315788 0.869417 0.587852
O O9 0.044373 0.817889 0.565040
O O10 0.090924 0.971228 0.614900
O O11 0.074164 0.129750 0.659504
O O12 0.000000 0.007348 0.750000
O O13 0.958457 0.291625 0.843521
O O14 0.948942 0.291886 0.978489
O O15 0.303806 0.774074 0.109506
#
# Coordination Sequence:
#
# PCOD9269796 Si02
#       7
#     8   8   8   8   8   8   8
#     4  10  20  36  60  82 112 154 210 228 277 354
#     4   9  16  35  59  84 110 162 195 230 281 364
#     4   9  20  38  61  85 121 151 188 244 305 335
#     4  10  22  40  57  84 118 153 193 248 287 350
#     4   9  18  33  59  89 116 143 191 244 286 341
#     4  10  20  34  61  85 113 149 195 239 281 343
#     4   9  17  35  59  87 114 148 191 237 288 356
#
# _framework density 20.903962
#
# number of rings (size 3 to 8) (size 9 to 14) (size 15 to 20)
#    0.857    1.714    1.429    3.000    0.000    0.000 
#    5.143   14.286    0.000    0.000    0.000    0.000 
#    0.000    0.000    0.000    0.000    0.000    0.000 
#
# Total GULP energy -155922.451503 kJ/mol
# GULP energy per Si atom -5568.658982 kJ/mol
# Density = 2.085638 g / cm^3
# Si number density = 20.903962 Si / 1000 Ang^3
#
#
#
# Elastic Constant Matrix: (Units=GPa)
#
#
# Indices 1 2 3 4 5 6 
#
# 1 86.3304 -4.6279 37.2706 0.0000 0.9384 0.0000
# 2 -4.6279 10.5951 23.9383 0.0000 1.5333 0.0000
# 3 37.2706 23.9383 109.8366 0.0000 -6.7959 0.0000
# 4 0.0000 0.0000 0.0000 25.3307 0.0000 0.5231
# 5 0.9384 1.5333 -6.7959 0.0000 34.8749 0.0000
# 6 0.0000 0.0000 0.0000 0.5231 0.0000 9.8897
#
#
#
# Elastic Compliance Matrix: (Units=1/GPa)
#
#
# Indices 1 2 3 4 5 6 
#
# 1 0.024903 0.063472 -0.022772 0.000000 -0.007898 0.000000
# 2 0.063472 0.357311 -0.101716 0.000000 -0.037239 0.000000
# 3 -0.022772 -0.101716 0.039795 0.000000 0.012839 0.000000
# 4 0.000000 0.000000 0.000000 0.039521 0.000000 -0.002090
# 5 -0.007898 -0.037239 0.012839 0.000000 0.033026 0.000000
# 6 0.000000 0.000000 0.000000 -0.002090 0.000000 0.101226
#
#
# Mechanical properties :
#
#
# Convention : Reuss Voigt Hill
#
# Bulk Modulus (GPa) = 3.33360 35.54713 19.44036
# Shear Modulus (GPa) = 6.11392 24.03114 15.07253
#
# Velocity S-wave (km/s) = 1.71205 3.39425 2.68813
# Velocity P-wave (km/s) = 2.34656 5.69237 4.35370
#
# Compressibility (1/GPa) = 0.29997632
#
# Stress axis : x y z
#
# Youngs Moduli (GPa) = 40.15554 2.79868 25.12899
#
# Poissons Ratio (x) = -0.17764 0.57225
# Poissons Ratio (y) = -2.54876 2.55602
# Poissons Ratio (z) = 0.91444 0.28467
#
# Static dielectric constant tensor:
#      x y z
#    x 1.786080 0.000000 0.027650 
#    y 0.000000 1.725740 0.000000 
#    z 0.027650 0.000000 1.792050 
# 
# From -- ./inp_files/231548.got.cif
#   From: 2010.05.17/outbox.cif.g08.bks.cpg/sg15_116_cif.got.tgz:231548.got - 2010.06.03 18:47:42.
