data_PCOD9269457
_publ_section_title
;
Structure prediction by ZEFSAII (Michael W. Deem and Ramdas Pophale) SiO2 
 PCOD9269457
Probable space group: C 2/C
;
_chemical_formula_sum "Si O2"
_cell_formula_units_Z 32
_cell_length_a 21.749316
_cell_length_b 9.466953
_cell_length_c 12.094986
_cell_angle_alpha 90.000000
_cell_angle_beta 154.739895
_cell_angle_gamma 90.000000
_cell_volume 1062.704665
_symmetry_space_group_name_H-M "C 2/C"
_symmetry_group_IT_number 15
_symmetry_cell_setting 'monoclinic'
loop_
_space_group_symop_operation_xyz
x,y,z
-x,y,1/2-z
-x,-y,-z
x,-y,1/2+z
1/2+x,1/2+y,z
1/2-x,1/2+y,1/2-z
1/2-x,1/2-y,-z
1/2+x,1/2-y,1/2+z
loop_
_atom_site_type_symbol
_atom_site_label
_atom_site_fract_x
_atom_site_fract_y
_atom_site_fract_z
Si Si1 0.732169 0.877664 0.303872
Si Si2 0.000000 0.500000 0.500000
Si Si3 0.578257 0.314446 0.140396
Si Si4 0.500000 0.576181 0.750000
Si Si5 0.764730 0.078669 0.105770
O O1 0.581019 0.931733 0.015836
O O2 0.676301 0.913250 0.346162
O O3 0.772283 0.712571 0.377132
O O4 0.866614 0.975282 0.504762
O O5 0.908022 0.654032 0.366898
O O6 0.549673 0.339962 0.223517
O O7 0.712696 0.415098 0.327300
O O8 0.430767 0.376104 0.845448
#
# Coordination Sequence:
#
# PCOD9269457 Si02
#       5
#     8   4   8   4   8
#     4   9  18  35  57  82 112 151 199 243 291 354
#     4  10  20  36  58  82 116 164 206 228 282 372
#     4   9  18  35  58  83 114 152 197 243 289 352
#     4  10  20  34  56  86 120 150 198 266 306 330
#     4   8  16  34  58  78 108 154 194 223 286 369
#
# _framework density 30.111846
#
# number of rings (size 3 to 8) (size 9 to 14) (size 15 to 20)
#    0.000    3.000    0.000    0.000    0.000    4.000 
#    0.000   35.000    0.000   39.000    0.000    0.000 
#    0.000    0.000    0.000    0.000    0.000    0.000 
#
# Total GULP energy -89188.626909 kJ/mol
# GULP energy per Si atom -5574.289182 kJ/mol
# Density = 3.004331 g / cm^3
# Si number density = 30.111846 Si / 1000 Ang^3
#
#
#
# Elastic Constant Matrix: (Units=GPa)
#
#
# Indices 1 2 3 4 5 6 
#
# 1 131.9839 36.9777 35.6285 0.0000 13.9010 0.0000
# 2 36.9777 317.9367 47.3209 0.0000 0.3099 0.0000
# 3 35.6285 47.3209 123.4952 0.0000 11.5315 0.0000
# 4 0.0000 0.0000 0.0000 59.4876 0.0000 -5.6141
# 5 13.9010 0.3099 11.5315 0.0000 58.3198 0.0000
# 6 0.0000 0.0000 0.0000 -5.6141 0.0000 -15.6214
#
#
#
# Elastic Compliance Matrix: (Units=1/GPa)
#
#
# Indices 1 2 3 4 5 6 
#
# 1 0.008488 -0.000683 -0.002036 0.000000 -0.001617 0.000000
# 2 -0.000683 0.003394 -0.001138 0.000000 0.000370 0.000000
# 3 -0.002036 -0.001138 0.009246 0.000000 -0.001337 0.000000
# 4 0.000000 0.000000 0.000000 0.016259 0.000000 -0.005843
# 5 -0.001617 0.000370 -0.001337 0.000000 0.017795 0.000000
# 6 0.000000 0.000000 0.000000 -0.005843 0.000000 -0.061915
#
#
# Mechanical properties :
#
#
# Convention : Reuss Voigt Hill
#
# Bulk Modulus (GPa) = 74.55001 90.36334 82.45667
# Shear Modulus (GPa) = 917.32247 50.66978 483.99612
#
# Velocity S-wave (km/s) = 17.47283 4.10655 12.69180
# Velocity P-wave (km/s) = 20.78167 7.24978 15.56337
#
# Compressibility (1/GPa) = 0.01341381
#
# Stress axis : x y z
#
# Youngs Moduli (GPa) = 117.81504 294.66542 108.15703
#
# Poissons Ratio (x) = 0.20112 0.22023
# Poissons Ratio (y) = 0.08041 0.12308
# Poissons Ratio (z) = 0.23990 0.33533
#
# Static dielectric constant tensor:
#      x y z
#    x 2.886600 0.000000 -0.044840 
#    y 0.000000 2.433100 0.000000 
#    z -0.044840 0.000000 3.126880 
# 
# From -- ./inp_files/93287.got.cif
#   From: 2010.05.17/outbox.cif.g08.bks.cpg/sg15_47_cif.got.tgz:93287.got - 2010.06.03 18:47:42.
