data_PCOD9269226
_publ_section_title
;
Structure prediction by ZEFSAII (Michael W. Deem and Ramdas Pophale) SiO2 
 PCOD9269226
Probable space group: C 2/C
;
_chemical_formula_sum "Si O2"
_cell_formula_units_Z 60
_cell_length_a 11.833366
_cell_length_b 18.546863
_cell_length_c 17.544759
_cell_angle_alpha 90.000000
_cell_angle_beta 118.769859
_cell_angle_gamma 90.000000
_cell_volume 3375.264502
_symmetry_space_group_name_H-M "C 2/C"
_symmetry_group_IT_number 15
_symmetry_cell_setting 'monoclinic'
loop_
_space_group_symop_operation_xyz
x,y,z
-x,y,1/2-z
-x,-y,-z
x,-y,1/2+z
1/2+x,1/2+y,z
1/2-x,1/2+y,1/2-z
1/2-x,1/2-y,-z
1/2+x,1/2-y,1/2+z
loop_
_atom_site_type_symbol
_atom_site_label
_atom_site_fract_x
_atom_site_fract_y
_atom_site_fract_z
Si Si1 0.965671 0.713938 0.466258
Si Si2 0.060541 0.881702 0.847421
Si Si3 0.000000 0.387780 0.250000
Si Si4 0.354181 0.300834 0.862484
Si Si5 0.666905 0.939096 0.550516
Si Si6 0.304014 0.760067 0.177345
Si Si7 0.993361 0.510248 0.370524
Si Si8 0.584540 0.164404 0.347496
O O1 0.906784 0.637733 0.474871
O O2 0.839967 0.760932 0.402822
O O3 0.056070 0.747451 0.559806
O O4 0.045903 0.700430 0.414943
O O5 0.182780 0.926786 0.913789
O O6 0.118558 0.802675 0.842988
O O7 0.000000 0.912022 0.750000
O O8 0.946162 0.867243 0.868799
O O9 0.880574 0.334487 0.195054
O O10 0.026006 0.441348 0.188552
O O11 0.307581 0.265582 0.767059
O O12 0.231858 0.324813 0.871755
O O13 0.600735 0.990476 0.468138
O O14 0.635217 0.969025 0.624538
O O15 0.044406 0.580792 0.344173
O O16 0.500000 0.194442 0.250000
#
# Coordination Sequence:
#
# PCOD9269226 Si02
#       8
#     8   8   4   8   8   8   8   8
#     4  10  21  35  61  85 109 147 181 237 291 329
#     4   9  19  33  57  85 113 143 177 230 287 333
#     4  12  20  32  56  86 118 138 190 234 274 326
#     4  11  20  35  58  86 112 146 183 239 286 329
#     4   9  20  38  56  81 111 140 191 224 279 332
#     4  10  20  34  53  89 117 135 185 234 293 326
#     4  10  22  35  57  81 106 153 187 228 264 334
#     4  11  21  39  57  80 112 153 193 222 275 351
#
# _framework density 17.776384
#
# number of rings (size 3 to 8) (size 9 to 14) (size 15 to 20)
#    0.000    1.867    4.000    1.200    3.733    1.067 
#    0.000    0.667    2.933    0.000    0.000    0.000 
#    0.000    0.000    0.000    0.000    0.000    0.000 
#
# Total GULP energy -167402.366739 kJ/mol
# GULP energy per Si atom -5580.078891 kJ/mol
# Density = 1.773592 g / cm^3
# Si number density = 17.776384 Si / 1000 Ang^3
#
#
#
# Elastic Constant Matrix: (Units=GPa)
#
#
# Indices 1 2 3 4 5 6 
#
# 1 83.4103 -4.9577 10.4569 0.0000 14.5485 0.0000
# 2 -4.9577 30.1427 -3.1606 0.0000 -1.5456 0.0000
# 3 10.4569 -3.1606 47.3411 0.0000 3.1963 0.0000
# 4 0.0000 0.0000 0.0000 14.8637 0.0000 -2.3976
# 5 14.5485 -1.5456 3.1963 0.0000 20.7278 0.0000
# 6 0.0000 0.0000 0.0000 -2.3976 0.0000 12.2507
#
#
#
# Elastic Compliance Matrix: (Units=1/GPa)
#
#
# Indices 1 2 3 4 5 6 
#
# 1 0.014009 0.001577 -0.002358 0.000000 -0.009352 0.000000
# 2 0.001577 0.033684 0.001825 0.000000 0.001123 0.000000
# 3 -0.002358 0.001825 0.021873 0.000000 -0.001582 0.000000
# 4 0.000000 0.000000 0.000000 0.069471 0.000000 0.013596
# 5 -0.009352 0.001123 -0.001582 0.000000 0.055136 0.000000
# 6 0.000000 0.000000 0.000000 0.013596 0.000000 0.084289
#
#
# Mechanical properties :
#
#
# Convention : Reuss Voigt Hill
#
# Bulk Modulus (GPa) = 13.95586 18.39682 16.17634
# Shear Modulus (GPa) = 16.65231 20.13880 18.39555
#
# Velocity S-wave (km/s) = 3.06398 3.36950 3.22037
# Velocity P-wave (km/s) = 4.51499 5.05070 4.79034
#
# Compressibility (1/GPa) = 0.07165450
#
# Stress axis : x y z
#
# Youngs Moduli (GPa) = 71.38063 29.68777 45.71906
#
# Poissons Ratio (x) = -0.04683 0.10779
# Poissons Ratio (y) = -0.11260 -0.08342
# Poissons Ratio (z) = 0.16830 -0.05417
#
# Static dielectric constant tensor:
#      x y z
#    x 1.611260 0.000000 -0.015630 
#    y 0.000000 1.590140 0.000000 
#    z -0.015630 0.000000 1.620790 
# 
# From -- ./inp_files/199519.got.cif
#   From: 2010.05.17/outbox.cif.g08.bks.cpg/sg15_100_cif.got.tgz:199519.got - 2010.06.03 18:47:42.
