data_PCOD9269879
_publ_section_title
;
Structure prediction by ZEFSAII (Michael W. Deem and Ramdas Pophale) SiO2 
 PCOD9269879
Probable space group: C 2/C
;
_chemical_formula_sum "Si O2"
_cell_formula_units_Z 44
_cell_length_a 14.646519
_cell_length_b 13.413053
_cell_length_c 13.430161
_cell_angle_alpha 90.000000
_cell_angle_beta 61.154841
_cell_angle_gamma 90.000000
_cell_volume 2311.059064
_symmetry_space_group_name_H-M "C 2/C"
_symmetry_group_IT_number 15
_symmetry_cell_setting 'monoclinic'
loop_
_space_group_symop_operation_xyz
x,y,z
-x,y,1/2-z
-x,-y,-z
x,-y,1/2+z
1/2+x,1/2+y,z
1/2-x,1/2+y,1/2-z
1/2-x,1/2-y,-z
1/2+x,1/2-y,1/2+z
loop_
_atom_site_type_symbol
_atom_site_label
_atom_site_fract_x
_atom_site_fract_y
_atom_site_fract_z
Si Si1 0.534673 0.090306 0.054054
Si Si2 0.189339 0.671137 0.289892
Si Si3 0.208518 0.859274 0.557584
Si Si4 0.000000 0.207260 0.250000
Si Si5 0.849501 0.337590 0.189996
Si Si6 0.686094 0.987541 0.641928
O O1 0.434875 0.156573 0.137343
O O2 0.614433 0.151001 0.942163
O O3 0.592578 0.954919 0.618858
O O4 0.500000 0.000000 0.000000
O O5 0.234624 0.622987 0.367193
O O6 0.239284 0.780775 0.258402
O O7 0.229025 0.610690 0.172821
O O8 0.250000 0.750000 0.500000
O O9 0.086218 0.852953 0.643509
O O10 0.239159 0.943831 0.463804
O O11 0.934254 0.273661 0.207209
O O12 0.847303 0.442364 0.248589
#
# Coordination Sequence:
#
# PCOD9269879 Si02
#       6
#     8   8   8   4   8   8
#     4  12  22  37  67  95 123 165 219 263 313 372
#     4  11  24  38  61  98 127 163 209 264 324 370
#     4  11  20  38  61  89 124 165 211 260 314 376
#     4  10  20  34  64  88 118 168 212 254 318 376
#     4  11  23  39  60  95 130 159 209 267 317 376
#     4  12  22  38  64  91 127 161 215 268 303 383
#
# _framework density 19.038889000000001
#
# number of rings (size 3 to 8) (size 9 to 14) (size 15 to 20)
#    0.000    0.727    7.273    2.727    0.000    0.727 
#    0.000    3.636    4.000    0.000    0.000    0.000 
#    0.000    0.000    0.000    0.000    0.000    0.000 
#
# Total GULP energy -122851.629977 kJ/mol
# GULP energy per Si atom -5584.164999 kJ/mol
# Density = 1.899556 g / cm^3
# Si number density = 19.038889 Si / 1000 Ang^3
#
#
#
# Elastic Constant Matrix: (Units=GPa)
#
#
# Indices 1 2 3 4 5 6 
#
# 1 78.0163 45.2976 29.3183 0.0000 -0.4296 0.0000
# 2 45.2976 54.1456 38.4687 0.0000 2.9043 0.0000
# 3 29.3183 38.4687 113.9371 0.0000 -13.7356 0.0000
# 4 0.0000 0.0000 0.0000 47.1755 0.0000 8.6760
# 5 -0.4296 2.9043 -13.7356 0.0000 39.3419 0.0000
# 6 0.0000 0.0000 0.0000 8.6760 0.0000 31.3160
#
#
#
# Elastic Compliance Matrix: (Units=1/GPa)
#
#
# Indices 1 2 3 4 5 6 
#
# 1 0.025182 -0.022088 0.001261 0.000000 0.002346 0.000000
# 2 -0.022088 0.044597 -0.010230 0.000000 -0.007105 0.000000
# 3 0.001261 -0.010230 0.012526 0.000000 0.005142 0.000000
# 4 0.000000 0.000000 0.000000 0.022335 0.000000 -0.006188
# 5 0.002346 -0.007105 0.005142 0.000000 0.027764 0.000000
# 6 0.000000 0.000000 0.000000 -0.006188 0.000000 0.033647
#
#
# Mechanical properties :
#
#
# Convention : Reuss Voigt Hill
#
# Bulk Modulus (GPa) = 49.53056 52.47425 51.00241
# Shear Modulus (GPa) = 21.28603 32.43432 26.86017
#
# Velocity S-wave (km/s) = 3.34732 4.13193 3.76014
# Velocity P-wave (km/s) = 6.40401 7.09825 6.76005
#
# Compressibility (1/GPa) = 0.02018955
#
# Stress axis : x y z
#
# Youngs Moduli (GPa) = 39.71114 22.42319 79.83237
#
# Poissons Ratio (x) = 0.49529 -0.10064
# Poissons Ratio (y) = 0.87715 0.81668
# Poissons Ratio (z) = -0.05006 0.22939
#
# Static dielectric constant tensor:
#      x y z
#    x 1.649100 0.000000 -0.002800 
#    y 0.000000 1.673470 0.000000 
#    z -0.002800 0.000000 1.709310 
# 
# From -- ./inp_files/215258.got.cif
#   From: 2010.05.17/outbox.cif.g08.bks.cpg/sg15_108_cif.got.tgz:215258.got - 2010.06.03 18:47:42.
