data_PCOD9269272
_publ_section_title
;
Structure prediction by ZEFSAII (Michael W. Deem and Ramdas Pophale) SiO2 
 PCOD9269272
Probable space group: C 2/C
;
_chemical_formula_sum "Si O2"
_cell_formula_units_Z 56
_cell_length_a 12.902777
_cell_length_b 12.420590
_cell_length_c 26.173051
_cell_angle_alpha 90.000000
_cell_angle_beta 144.713639
_cell_angle_gamma 90.000000
_cell_volume 2423.006440
_symmetry_space_group_name_H-M "C 2/C"
_symmetry_group_IT_number 15
_symmetry_cell_setting 'monoclinic'
loop_
_space_group_symop_operation_xyz
x,y,z
-x,y,1/2-z
-x,-y,-z
x,-y,1/2+z
1/2+x,1/2+y,z
1/2-x,1/2+y,1/2-z
1/2-x,1/2-y,-z
1/2+x,1/2-y,1/2+z
loop_
_atom_site_type_symbol
_atom_site_label
_atom_site_fract_x
_atom_site_fract_y
_atom_site_fract_z
Si Si1 0.000000 0.744912 0.750000
Si Si2 0.853352 0.713352 0.789390
Si Si3 0.511893 0.643672 0.895485
Si Si4 0.828397 0.908029 0.416769
Si Si5 0.477664 0.019554 0.151743
Si Si6 0.500000 0.176349 0.250000
Si Si7 0.109294 0.630404 0.486199
Si Si8 0.397796 0.247529 0.922609
O O1 0.075752 0.792398 0.727159
O O2 0.173927 0.676751 0.837710
O O3 0.640323 0.695424 0.701380
O O4 0.926507 0.737771 0.874171
O O5 0.926360 0.594201 0.806550
O O6 0.419706 0.564037 0.899236
O O7 0.681777 0.599062 0.934128
O O8 0.583887 0.745158 0.957695
O O9 0.977136 0.845195 0.508808
O O10 0.723880 0.996966 0.407629
O O11 0.556920 0.100518 0.225384
O O12 0.482871 0.062699 0.096039
O O13 0.318111 0.235649 0.158863
O O14 0.052349 0.643077 0.522310
#
# Coordination Sequence:
#
# PCOD9269272 Si02
#       8
#     4   8   8   8   8   4   8   8
#     4   8  17  34  54  76 105 140 186 228 263 312
#     4  10  20  36  57  82 114 151 185 231 284 334
#     4   9  17  35  56  76 111 152 188 228 281 331
#     4   9  19  35  57  83 110 148 188 230 278 328
#     4  11  22  35  56  85 115 141 188 245 281 318
#     4  12  23  38  60  90 111 140 196 244 271 328
#     4  10  20  34  54  82 114 148 186 232 281 339
#     4  11  23  37  59  84 115 154 188 220 285 355
#
# _framework density 23.111782999999999
#
# number of rings (size 3 to 8) (size 9 to 14) (size 15 to 20)
#    0.000    2.000    0.000    6.857    0.000    6.286 
#    0.000    0.000    0.000    3.429    0.000    3.000 
#    0.000    0.000    0.000    0.000    0.000    0.000 
#
# Total GULP energy -156125.391915 kJ/mol
# GULP energy per Si atom -5575.906854 kJ/mol
# Density = 2.305918 g / cm^3
# Si number density = 23.111783 Si / 1000 Ang^3
#
#
#
# Elastic Constant Matrix: (Units=GPa)
#
#
# Indices 1 2 3 4 5 6 
#
# 1 75.4950 9.8357 33.2241 0.0000 -28.0501 0.0000
# 2 9.8357 30.2327 14.6328 0.0000 -3.5905 0.0000
# 3 33.2241 14.6328 126.3072 0.0000 -16.1183 0.0000
# 4 0.0000 0.0000 0.0000 19.4817 0.0000 -7.6821
# 5 -28.0501 -3.5905 -16.1183 0.0000 53.6208 0.0000
# 6 0.0000 0.0000 0.0000 -7.6821 0.0000 29.5893
#
#
#
# Elastic Compliance Matrix: (Units=1/GPa)
#
#
# Indices 1 2 3 4 5 6 
#
# 1 0.018243 -0.003325 -0.003353 0.000000 0.008313 0.000000
# 2 -0.003325 0.035719 -0.003307 0.000000 -0.000342 0.000000
# 3 -0.003353 -0.003307 0.009286 0.000000 0.000816 0.000000
# 4 0.000000 0.000000 0.000000 0.057184 0.000000 0.014846
# 5 0.008313 -0.000342 0.000816 0.000000 0.023221 0.000000
# 6 0.000000 0.000000 0.000000 0.014846 0.000000 0.037650
#
#
# Mechanical properties :
#
#
# Convention : Reuss Voigt Hill
#
# Bulk Modulus (GPa) = 23.10614 38.60222 30.85418
# Shear Modulus (GPa) = 23.18040 32.16118 27.67079
#
# Velocity S-wave (km/s) = 3.17040 3.73439 3.46390
# Velocity P-wave (km/s) = 4.83955 5.94415 5.42006
#
# Compressibility (1/GPa) = 0.04327855
#
# Stress axis : x y z
#
# Youngs Moduli (GPa) = 54.81482 27.99666 107.68473
#
# Poissons Ratio (x) = 0.09309 0.36103
# Poissons Ratio (y) = 0.18227 0.35611
# Poissons Ratio (z) = 0.18378 0.09258
#
# Static dielectric constant tensor:
#      x y z
#    x 2.012820 0.000000 -0.007230 
#    y 0.000000 1.887760 0.000000 
#    z -0.007230 0.000000 1.887950 
# 
# From -- ./inp_files/296625.got.cif
#   From: 2010.05.17/outbox.cif.g08.bks.cpg/sg15_149_cif.got.tgz:296625.got - 2010.06.03 18:47:42.
