data_PCOD9269433
_publ_section_title
;
Structure prediction by ZEFSAII (Michael W. Deem and Ramdas Pophale) SiO2 
 PCOD9269433
Probable space group: C 2/C
;
_chemical_formula_sum "Si O2"
_cell_formula_units_Z 48
_cell_length_a 13.881721
_cell_length_b 23.561982
_cell_length_c 5.707676
_cell_angle_alpha 90.000000
_cell_angle_beta 88.522032
_cell_angle_gamma 90.000000
_cell_volume 1866.250500
_symmetry_space_group_name_H-M "C 2/C"
_symmetry_group_IT_number 15
_symmetry_cell_setting 'monoclinic'
loop_
_space_group_symop_operation_xyz
x,y,z
-x,y,1/2-z
-x,-y,-z
x,-y,1/2+z
1/2+x,1/2+y,z
1/2-x,1/2+y,1/2-z
1/2-x,1/2-y,-z
1/2+x,1/2-y,1/2+z
loop_
_atom_site_type_symbol
_atom_site_label
_atom_site_fract_x
_atom_site_fract_y
_atom_site_fract_z
Si Si1 0.345578 0.026716 0.906199
Si Si2 0.434542 0.225070 0.041713
Si Si3 0.329267 0.851548 0.268117
Si Si4 0.618771 0.653574 0.010036
Si Si5 0.258901 0.808532 0.855914
Si Si6 0.889718 0.027426 0.596393
O O1 0.369684 0.093453 0.892563
O O2 0.228122 0.025793 0.903779
O O3 0.377288 0.999250 0.654491
O O4 0.500000 0.203054 0.250000
O O5 0.447645 0.292326 0.027276
O O6 0.327142 0.210956 0.143467
O O7 0.408197 0.198133 0.791561
O O8 0.216443 0.843235 0.346215
O O9 0.314991 0.857274 0.992123
O O10 0.578829 0.591626 0.967655
O O11 0.661425 0.664440 0.266577
O O12 0.250000 0.750000 0.000000
O O13 0.915282 0.990302 0.362709
#
# Coordination Sequence:
#
# PCOD9269433 Si02
#       6
#     8   8   8   8   8   8
#     4   9  19  31  52  85 117 146 190 243 291 342
#     4  11  23  37  54  85 118 148 192 244 295 347
#     4  10  20  35  57  83 112 152 188 237 292 346
#     4  10  20  34  56  84 114 151 190 239 291 347
#     4  11  19  35  59  81 113 150 195 234 291 357
#     4   9  19  31  52  84 118 148 191 243 291 341
#
# _framework density 25.720018
#
# number of rings (size 3 to 8) (size 9 to 14) (size 15 to 20)
#    0.000    2.000    3.333    1.000   14.000    0.667 
#    0.000    0.000    0.000    2.000    0.000    0.000 
#    0.000    0.000    0.000    0.000    0.000    0.000 
#
# Total GULP energy -133845.759436 kJ/mol
# GULP energy per Si atom -5576.906643 kJ/mol
# Density = 2.566148 g / cm^3
# Si number density = 25.720018 Si / 1000 Ang^3
#
#
#
# Elastic Constant Matrix: (Units=GPa)
#
#
# Indices 1 2 3 4 5 6 
#
# 1 33.8562 -5.6237 6.3438 0.0000 9.6863 0.0000
# 2 -5.6237 113.0412 26.5243 0.0000 23.1348 0.0000
# 3 6.3438 26.5243 124.2893 0.0000 44.0740 0.0000
# 4 0.0000 0.0000 0.0000 35.7853 0.0000 -1.6324
# 5 9.6863 23.1348 44.0740 0.0000 26.4489 0.0000
# 6 0.0000 0.0000 0.0000 -1.6324 0.0000 6.5607
#
#
#
# Elastic Compliance Matrix: (Units=1/GPa)
#
#
# Indices 1 2 3 4 5 6 
#
# 1 0.039330 0.007176 0.009276 0.000000 -0.036138 0.000000
# 2 0.007176 0.012425 0.004322 0.000000 -0.020698 0.000000
# 3 0.009276 0.004322 0.022477 0.000000 -0.044633 0.000000
# 4 0.000000 0.000000 0.000000 0.028265 0.000000 0.007033
# 5 -0.036138 -0.020698 -0.044633 0.000000 0.143524 0.000000
# 6 0.000000 0.000000 0.000000 0.007033 0.000000 0.154174
#
#
# Mechanical properties :
#
#
# Convention : Reuss Voigt Hill
#
# Bulk Modulus (GPa) = 8.63710 36.18617 22.41164
# Shear Modulus (GPa) = 12.58682 30.02178 21.30430
#
# Velocity S-wave (km/s) = 2.21459 3.42022 2.88117
# Velocity P-wave (km/s) = 3.14716 5.44949 4.44981
#
# Compressibility (1/GPa) = 0.11577962
#
# Stress axis : x y z
#
# Youngs Moduli (GPa) = 25.42610 80.48090 44.48944
#
# Poissons Ratio (x) = -0.57753 -0.41268
# Poissons Ratio (y) = -0.18246 -0.19228
# Poissons Ratio (z) = -0.23585 -0.34783
#
# Static dielectric constant tensor:
#      x y z
#    x 2.110240 0.000000 0.095430 
#    y 0.000000 1.922660 0.000000 
#    z 0.095430 0.000000 2.920130 
# 
# From -- ./inp_files/10664.got.cif
#   From: 2010.05.17/outbox.cif.g08.bks.cpg/sg15_6_cif.got.tgz:10664.got - 2010.06.03 18:47:42.
