data_PCOD9269192
_publ_section_title
;
Structure prediction by ZEFSAII (Michael W. Deem and Ramdas Pophale) SiO2 
 PCOD9269192
Probable space group: C 2/C
;
_chemical_formula_sum "Si O2"
_cell_formula_units_Z 64
_cell_length_a 26.436515
_cell_length_b 22.023240
_cell_length_c 20.314538
_cell_angle_alpha 90.000000
_cell_angle_beta 16.284885
_cell_angle_gamma 90.000000
_cell_volume 3316.586109
_symmetry_space_group_name_H-M "C 2/C"
_symmetry_group_IT_number 15
_symmetry_cell_setting 'monoclinic'
loop_
_space_group_symop_operation_xyz
x,y,z
-x,y,1/2-z
-x,-y,-z
x,-y,1/2+z
1/2+x,1/2+y,z
1/2-x,1/2+y,1/2-z
1/2-x,1/2-y,-z
1/2+x,1/2-y,1/2+z
loop_
_atom_site_type_symbol
_atom_site_label
_atom_site_fract_x
_atom_site_fract_y
_atom_site_fract_z
Si Si1 0.115361 0.193848 0.172378
Si Si2 0.417662 0.443378 0.063056
Si Si3 0.606770 0.560777 0.186534
Si Si4 0.484064 0.941860 0.974328
Si Si5 0.706921 0.691066 0.513246
Si Si6 0.205363 0.938784 0.020972
Si Si7 0.979942 0.692028 0.484703
Si Si8 0.077853 0.193196 0.946837
O O1 0.202024 0.126385 0.070546
O O2 0.000000 0.194573 0.250000
O O3 0.987169 0.198123 0.396302
O O4 0.250000 0.250000 0.000000
O O5 0.201434 0.446777 0.334561
O O6 0.472392 0.374587 0.016267
O O7 0.500000 0.500000 0.000000
O O8 0.476544 0.445628 0.912394
O O9 0.500000 0.561475 0.250000
O O10 0.724658 0.499830 0.038600
O O11 0.655988 0.942213 0.712199
O O12 0.474048 0.876009 0.022917
O O13 0.500000 0.000000 0.000000
O O14 0.500000 0.693558 0.750000
O O15 0.750000 0.750000 0.500000
O O16 0.734690 0.627068 0.516517
O O17 0.844278 0.691614 0.280700
O O18 0.000000 0.937592 0.250000
O O19 0.993345 0.750047 0.514654
O O20 0.794787 0.697616 0.675056
#
# Coordination Sequence:
#
# PCOD9269192 Si02
#       8
#     8   8   8   8   8   8   8   8
#     4  10  20  35  56  80 107 141 181 225 270 323
#     4  10  22  38  56  84 118 147 184 238 292 333
#     4   9  18  36  59  78 105 148 187 221 270 334
#     4  10  20  35  57  82 107 145 193 230 272 340
#     4  10  20  34  53  77 105 138 176 220 269 321
#     4   9  18  33  54  79 103 133 182 230 263 315
#     4  10  21  36  54  80 111 142 185 231 273 334
#     4  10  21  37  57  82 112 148 186 227 282 338
#
# _framework density 19.296951
#
# number of rings (size 3 to 8) (size 9 to 14) (size 15 to 20)
#    0.000    2.250    0.000    3.000    0.000    5.000 
#    0.000    3.125    0.000    0.000    0.000    0.000 
#    0.000    0.000    0.000    0.000    0.000    0.000 
#
# Total GULP energy -178282.617602 kJ/mol
# GULP energy per Si atom -5571.331800 kJ/mol
# Density = 1.925303 g / cm^3
# Si number density = 19.296951 Si / 1000 Ang^3
#
#
#
# Elastic Constant Matrix: (Units=GPa)
#
#
# Indices 1 2 3 4 5 6 
#
# 1 42.0018 54.5277 20.3223 -0.0254 1.1943 0.0195
# 2 54.5277 222.2353 50.7886 -0.0947 -7.7529 0.0115
# 3 20.3223 50.7886 86.9027 -0.0652 0.2573 0.0638
# 4 -0.0254 -0.0947 -0.0652 30.8560 0.0431 3.2384
# 5 1.1943 -7.7529 0.2573 0.0431 16.1618 -0.0309
# 6 0.0195 0.0115 0.0638 3.2384 -0.0309 35.2428
#
#
#
# Elastic Compliance Matrix: (Units=1/GPa)
#
#
# Indices 1 2 3 4 5 6 
#
# 1 0.036661 -0.008395 -0.003647 0.000008 -0.006678 -0.000018
# 2 -0.008395 0.007222 -0.002270 0.000004 0.004121 0.000010
# 3 -0.003647 -0.002270 0.013690 0.000023 -0.001037 -0.000025
# 4 0.000008 0.000004 0.000023 0.032724 -0.000092 -0.003007
# 5 -0.006678 0.004121 -0.001037 -0.000092 0.064362 0.000069
# 6 -0.000018 0.000010 -0.000025 -0.003007 0.000069 0.028651
#
#
# Mechanical properties :
#
#
# Convention : Reuss Voigt Hill
#
# Bulk Modulus (GPa) = 34.54327 66.93524 50.73925
# Shear Modulus (GPa) = 22.56487 31.48553 27.02520
#
# Velocity S-wave (km/s) = 3.42328 4.04373 3.74637
# Velocity P-wave (km/s) = 5.79352 7.52094 6.71303
#
# Compressibility (1/GPa) = 0.02894920
#
# Stress axis : x y z
#
# Youngs Moduli (GPa) = 27.27674 138.46684 73.04738
#
# Poissons Ratio (x) = 1.16238 0.26643
# Poissons Ratio (y) = 0.22898 0.16581
# Poissons Ratio (z) = 0.09949 0.31430
#
# Static dielectric constant tensor:
#      x y z
#    x 1.661140 -0.000020 0.008940 
#    y -0.000020 1.752110 0.000010 
#    z 0.008940 0.000010 1.667370 
# 
# From -- ./inp_files/220250.got.cif
#   From: 2010.05.17/outbox.cif.g08.bks.cpg/sg15_111_cif.got.tgz:220250.got - 2010.06.03 18:47:42.
