data_PCOD9269941
_publ_section_title
;
Structure prediction by ZEFSAII (Michael W. Deem and Ramdas Pophale) SiO2 
 PCOD9269941
Probable space group: C 2/C
;
_chemical_formula_sum "Si O2"
_cell_formula_units_Z 60
_cell_length_a 14.473932
_cell_length_b 26.938277
_cell_length_c 10.537735
_cell_angle_alpha 90.000000
_cell_angle_beta 53.841449
_cell_angle_gamma 90.000000
_cell_volume 3317.306197
_symmetry_space_group_name_H-M "C 2/C"
_symmetry_group_IT_number 15
_symmetry_cell_setting 'monoclinic'
loop_
_space_group_symop_operation_xyz
x,y,z
-x,y,1/2-z
-x,-y,-z
x,-y,1/2+z
1/2+x,1/2+y,z
1/2-x,1/2+y,1/2-z
1/2-x,1/2-y,-z
1/2+x,1/2-y,1/2+z
loop_
_atom_site_type_symbol
_atom_site_label
_atom_site_fract_x
_atom_site_fract_y
_atom_site_fract_z
Si Si1 0.499754 0.612154 0.107355
Si Si2 0.614812 0.934234 0.407406
Si Si3 0.887984 0.459245 0.492561
Si Si4 0.227362 0.075505 0.342891
Si Si5 0.800023 0.035724 0.566719
Si Si6 0.000000 0.729424 0.250000
Si Si7 0.810910 0.347446 0.987363
Si Si8 0.073412 0.174959 0.806891
O O1 0.500000 0.633360 0.250000
O O2 0.374464 0.596089 0.162152
O O3 0.581560 0.563903 0.046237
O O4 0.549932 0.648292 0.958230
O O5 0.513849 0.936007 0.385704
O O6 0.737911 0.945397 0.245299
O O7 0.616233 0.883496 0.481371
O O8 0.593366 0.981383 0.515797
O O9 0.834246 0.440300 0.668734
O O10 0.791077 0.449991 0.467782
O O11 0.262936 0.117033 0.415007
O O12 0.187698 0.023724 0.439100
O O13 0.029567 0.768187 0.338887
O O14 0.891435 0.695628 0.369193
O O15 0.703837 0.327311 0.154832
O O16 0.000000 0.150497 0.750000
#
# Coordination Sequence:
#
# PCOD9269941 Si02
#       8
#     8   8   8   8   8   4   8   8
#     4  12  23  40  61  87 127 173 208 254 310 375
#     4  10  21  33  56  84 121 166 200 251 299 365
#     4  10  20  35  50  83 129 167 208 239 291 358
#     4  11  22  35  57  90 126 164 212 251 297 373
#     4  11  21  36  54  84 126 171 208 244 295 363
#     4  10  24  40  70  98 114 150 206 276 328 370
#     4  12  20  40  66  94 123 155 205 263 321 369
#     4  10  23  42  65  93 120 153 208 268 319 364
#
# _framework density 18.086963999999998
#
# number of rings (size 3 to 8) (size 9 to 14) (size 15 to 20)
#    0.400    0.800    5.333    2.000    0.000    0.000 
#    2.400    0.000    0.000    6.400    0.000    0.000 
#    0.000    0.000    0.000    0.000    0.000    0.000 
#
# Total GULP energy -167379.358299 kJ/mol
# GULP energy per Si atom -5579.311943 kJ/mol
# Density = 1.804580 g / cm^3
# Si number density = 18.086964 Si / 1000 Ang^3
#
#
#
# Elastic Constant Matrix: (Units=GPa)
#
#
# Indices 1 2 3 4 5 6 
#
# 1 87.6017 38.1256 26.5685 0.0000 3.3838 0.0000
# 2 38.1256 98.4106 41.2941 0.0000 3.3420 0.0000
# 3 26.5685 41.2941 88.4723 0.0000 -1.3790 0.0000
# 4 0.0000 0.0000 0.0000 11.8953 0.0000 -2.1079
# 5 3.3838 3.3420 -1.3790 0.0000 30.6227 0.0000
# 6 0.0000 0.0000 0.0000 -2.1079 0.0000 26.2380
#
#
#
# Elastic Compliance Matrix: (Units=1/GPa)
#
#
# Indices 1 2 3 4 5 6 
#
# 1 0.014074 -0.004517 -0.002136 0.000000 -0.001158 0.000000
# 2 -0.004517 0.014169 -0.005277 0.000000 -0.001285 0.000000
# 3 -0.002136 -0.005277 0.014430 0.000000 0.001462 0.000000
# 4 0.000000 0.000000 0.000000 0.085281 0.000000 0.006851
# 5 -0.001158 -0.001285 0.001462 0.000000 0.032990 0.000000
# 6 0.000000 0.000000 0.000000 0.006851 0.000000 0.038663
#
#
# Mechanical properties :
#
#
# Convention : Reuss Voigt Hill
#
# Bulk Modulus (GPa) = 53.15404 54.05122 53.60263
# Shear Modulus (GPa) = 21.76389 24.98428 23.37409
#
# Velocity S-wave (km/s) = 3.47261 3.72067 3.59878
# Velocity P-wave (km/s) = 6.74763 6.95750 6.85337
#
# Compressibility (1/GPa) = 0.01881324
#
# Stress axis : x y z
#
# Youngs Moduli (GPa) = 71.05477 70.57531 69.29829
#
# Poissons Ratio (x) = 0.31876 0.14804
# Poissons Ratio (y) = 0.32092 0.36570
# Poissons Ratio (z) = 0.15180 0.37243
#
# Static dielectric constant tensor:
#      x y z
#    x 1.633840 0.000000 0.010220 
#    y 0.000000 1.596680 0.000000 
#    z 0.010220 0.000000 1.651360 
# 
# From -- ./inp_files/100671.got.cif
#   From: 2010.05.17/outbox.cif.g08.bks.cpg/sg15_51_cif.got.tgz:100671.got - 2010.06.03 18:47:42.
