data_PCOD9269539
_publ_section_title
;
Structure prediction by ZEFSAII (Michael W. Deem and Ramdas Pophale) SiO2 
 PCOD9269539
Probable space group: C 2/C
;
_chemical_formula_sum "Si O2"
_cell_formula_units_Z 56
_cell_length_a 10.143970
_cell_length_b 18.499781
_cell_length_c 26.868788
_cell_angle_alpha 90.000000
_cell_angle_beta 36.616484
_cell_angle_gamma 90.000000
_cell_volume 3007.467213
_symmetry_space_group_name_H-M "C 2/C"
_symmetry_group_IT_number 15
_symmetry_cell_setting 'monoclinic'
loop_
_space_group_symop_operation_xyz
x,y,z
-x,y,1/2-z
-x,-y,-z
x,-y,1/2+z
1/2+x,1/2+y,z
1/2-x,1/2+y,1/2-z
1/2-x,1/2-y,-z
1/2+x,1/2-y,1/2+z
loop_
_atom_site_type_symbol
_atom_site_label
_atom_site_fract_x
_atom_site_fract_y
_atom_site_fract_z
Si Si1 0.375116 0.396068 0.412095
Si Si2 0.581154 0.727394 0.008323
Si Si3 0.431871 0.874197 0.678721
Si Si4 0.933493 0.917981 0.510462
Si Si5 0.509250 0.466460 0.806754
Si Si6 0.123469 0.646764 0.420468
Si Si7 0.427395 0.270327 0.323337
O O1 0.446829 0.401801 0.447536
O O2 0.453577 0.464006 0.356203
O O3 0.459819 0.323533 0.359800
O O4 0.107850 0.389956 0.493212
O O5 0.574796 0.642631 0.996774
O O6 0.330895 0.749182 0.099024
O O7 0.750000 0.750000 0.000000
O O8 0.636041 0.776180 0.943458
O O9 0.678052 0.906523 0.603570
O O10 0.247266 0.932720 0.747395
O O11 0.383885 0.847892 0.636893
O O12 0.434846 0.803244 0.711734
O O13 0.000000 0.000000 0.500000
O O14 0.500000 0.482048 0.750000
O O15 0.326964 0.404688 0.872323
O O16 0.500000 0.306519 0.250000
#
# Coordination Sequence:
#
# PCOD9269539 Si02
#       7
#     8   8   8   8   8   8   8
#     4  10  20  37  59  82 117 150 189 239 286 344
#     4  10  22  38  60  87 113 150 200 239 276 349
#     4   9  20  38  58  81 114 152 190 230 285 348
#     4  10  22  40  60  83 113 154 194 238 292 342
#     4  10  20  34  57  89 119 149 189 236 290 347
#     4   9  19  36  59  84 109 154 193 233 280 336
#     4  10  21  37  59  84 114 153 188 236 292 339
#
# _framework density 18.620318999999999
#
# number of rings (size 3 to 8) (size 9 to 14) (size 15 to 20)
#    0.000    2.286    0.000    1.714    4.000    4.571 
#    7.714    0.000    0.000    0.000    0.000    0.000 
#    0.000    0.000    0.000    0.000    0.000    0.000 
#
# Total GULP energy -156305.734610 kJ/mol
# GULP energy per Si atom -5582.347665 kJ/mol
# Density = 1.857794 g / cm^3
# Si number density = 18.620319 Si / 1000 Ang^3
#
#
#
# Elastic Constant Matrix: (Units=GPa)
#
#
# Indices 1 2 3 4 5 6 
#
# 1 81.9626 62.3937 24.3317 -0.0001 -9.0054 0.0016
# 2 62.3937 127.5823 37.9141 0.0003 -2.8232 0.0009
# 3 24.3317 37.9141 50.6069 -0.0008 14.1095 0.0050
# 4 -0.0001 0.0003 -0.0008 26.3948 0.0017 8.9955
# 5 -9.0054 -2.8232 14.1095 0.0017 17.1547 -0.0020
# 6 0.0016 0.0009 0.0050 8.9955 -0.0020 26.7247
#
#
#
# Elastic Compliance Matrix: (Units=1/GPa)
#
#
# Indices 1 2 3 4 5 6 
#
# 1 0.023731 -0.007809 -0.011256 -0.000003 0.020431 0.000003
# 2 -0.007809 0.014250 -0.008347 -0.000002 0.005111 0.000003
# 3 -0.011256 -0.008347 0.043410 0.000009 -0.042987 -0.000013
# 4 -0.000003 -0.000002 0.000009 0.042796 -0.000015 -0.014405
# 5 0.020431 0.005111 -0.042987 -0.000015 0.105216 0.000020
# 6 0.000003 0.000003 -0.000013 -0.014405 0.000020 0.042267
#
#
# Mechanical properties :
#
#
# Convention : Reuss Voigt Hill
#
# Bulk Modulus (GPa) = 37.63782 56.60343 47.12063
# Shear Modulus (GPa) = 14.90980 23.08898 18.99939
#
# Velocity S-wave (km/s) = 2.83278 3.52517 3.19777
# Velocity P-wave (km/s) = 5.56388 6.85812 6.24462
#
# Compressibility (1/GPa) = 0.02656902
#
# Stress axis : x y z
#
# Youngs Moduli (GPa) = 42.13872 70.17325 23.03594
#
# Poissons Ratio (x) = 0.54795 0.25929
# Poissons Ratio (y) = 0.32904 0.19228
# Poissons Ratio (z) = 0.47431 0.58574
#
# Static dielectric constant tensor:
#      x y z
#    x 1.635680 0.000000 0.009180 
#    y 0.000000 1.618970 0.000000 
#    z 0.009180 0.000000 1.633910 
# 
# From -- ./inp_files/190885.got.cif
#   From: 2010.05.17/outbox.cif.g08.bks.cpg/sg15_96_cif.got.tgz:190885.got - 2010.06.03 18:47:42.
