data_PCOD9269694
_publ_section_title
;
Structure prediction by ZEFSAII (Michael W. Deem and Ramdas Pophale) SiO2 
 PCOD9269694
Probable space group: C 2/C
;
_chemical_formula_sum "Si O2"
_cell_formula_units_Z 56
_cell_length_a 17.824487
_cell_length_b 18.608384
_cell_length_c 16.991953
_cell_angle_alpha 90.000000
_cell_angle_beta 31.159578
_cell_angle_gamma 90.000000
_cell_volume 2916.185071
_symmetry_space_group_name_H-M "C 2/C"
_symmetry_group_IT_number 15
_symmetry_cell_setting 'monoclinic'
loop_
_space_group_symop_operation_xyz
x,y,z
-x,y,1/2-z
-x,-y,-z
x,-y,1/2+z
1/2+x,1/2+y,z
1/2-x,1/2+y,1/2-z
1/2-x,1/2-y,-z
1/2+x,1/2-y,1/2+z
loop_
_atom_site_type_symbol
_atom_site_label
_atom_site_fract_x
_atom_site_fract_y
_atom_site_fract_z
Si Si1 0.329094 0.816300 0.383467
Si Si2 0.148251 0.661383 0.133069
Si Si3 0.715239 0.270580 0.317866
Si Si4 0.096021 0.931449 0.592001
Si Si5 0.067377 0.842842 0.884949
Si Si6 0.912426 0.916473 0.474246
Si Si7 0.165997 0.186042 0.689420
O O1 0.500000 0.816706 0.250000
O O2 0.250000 0.750000 0.500000
O O3 0.298876 0.806048 0.316842
O O4 0.243676 0.889984 0.481195
O O5 0.106553 0.735752 0.215571
O O6 0.000000 0.620067 0.250000
O O7 0.266113 0.623827 0.081198
O O8 0.224274 0.670592 0.979997
O O9 0.774364 0.190068 0.263376
O O10 0.544791 0.280624 0.487384
O O11 0.737870 0.304298 0.210951
O O12 0.000000 0.957821 0.750000
O O13 0.996231 0.872683 0.638100
O O14 0.111083 0.000759 0.524146
O O15 0.058954 0.902277 0.959929
O O16 0.041989 0.874531 0.311381
#
# Coordination Sequence:
#
# PCOD9269694 Si02
#       7
#     8   8   8   8   8   8   8
#     4  11  22  40  63  91 119 152 203 254 299 350
#     4  11  21  33  55  84 118 150 192 239 288 352
#     4  10  20  34  59  87 114 148 190 245 299 343
#     4  11  23  39  60  84 119 163 200 247 304 351
#     4  10  21  37  60  88 115 150 201 250 293 359
#     4  11  22  39  58  84 120 160 198 239 300 366
#     4  10  20  35  55  83 116 150 193 238 288 357
#
# _framework density 19.20317
#
# number of rings (size 3 to 8) (size 9 to 14) (size 15 to 20)
#    0.000    1.429    1.429    6.429    2.000    0.571 
#    0.000    0.000    0.000    0.000    0.000   15.000 
#    0.000    0.000    0.000    0.000    0.000    0.000 
#
# Total GULP energy -156156.637522 kJ/mol
# GULP energy per Si atom -5577.022769 kJ/mol
# Density = 1.915946 g / cm^3
# Si number density = 19.203170 Si / 1000 Ang^3
#
#
#
# Elastic Constant Matrix: (Units=GPa)
#
#
# Indices 1 2 3 4 5 6 
#
# 1 99.3522 -4.5652 20.9046 0.0000 -15.8768 -0.0001
# 2 -4.5652 71.0322 12.0219 0.0006 -23.1422 -0.0029
# 3 20.9046 12.0219 36.2654 0.0001 -27.3107 -0.0039
# 4 0.0000 0.0006 0.0001 16.4919 -0.0001 6.0388
# 5 -15.8768 -23.1422 -27.3107 -0.0001 28.7081 0.0019
# 6 -0.0001 -0.0029 -0.0039 6.0388 0.0019 -2.7603
#
#
#
# Elastic Compliance Matrix: (Units=1/GPa)
#
#
# Indices 1 2 3 4 5 6 
#
# 1 0.011894 0.003269 -0.003532 -0.000001 0.005853 0.000003
# 2 0.003269 0.024337 0.021806 0.000005 0.042171 -0.000016
# 3 -0.003532 0.021806 0.120419 0.000021 0.130183 -0.000058
# 4 -0.000001 0.000005 0.000021 0.033666 0.000019 0.073653
# 5 0.005853 0.042171 0.130183 0.000019 0.195911 -0.000054
# 6 0.000003 -0.000016 -0.000058 0.073653 -0.000054 -0.201144
#
#
# Mechanical properties :
#
#
# Convention : Reuss Voigt Hill
#
# Bulk Modulus (GPa) = 5.00659 29.26359 17.13509
# Shear Modulus (GPa) = 23.97210 20.37384 22.17297
#
# Velocity S-wave (km/s) = 3.53702 3.26078 3.40170
# Velocity P-wave (km/s) = 4.39244 5.42668 4.93672
#
# Compressibility (1/GPa) = 0.19973682
#
# Stress axis : x y z
#
# Youngs Moduli (GPa) = 84.07659 41.08988 8.30431
#
# Poissons Ratio (x) = -0.13433 0.02933
# Poissons Ratio (y) = -0.27486 -0.18108
# Poissons Ratio (z) = 0.29694 -0.89600
#
# Static dielectric constant tensor:
#      x y z
#    x 1.695840 0.000000 0.005300 
#    y 0.000000 1.681540 0.000000 
#    z 0.005300 0.000000 1.685920 
# 
# From -- ./inp_files/211871.got.cif
#   From: 2010.05.17/outbox.cif.g08.bks.cpg/sg15_106_cif.got.tgz:211871.got - 2010.06.03 18:47:42.
