data_PCOD9269838
_publ_section_title
;
Structure prediction by ZEFSAII (Michael W. Deem and Ramdas Pophale) SiO2 
 PCOD9269838
Probable space group: C 2/C
;
_chemical_formula_sum "Si O2"
_cell_formula_units_Z 40
_cell_length_a 14.005522
_cell_length_b 4.811822
_cell_length_c 25.040395
_cell_angle_alpha 90.000000
_cell_angle_beta 55.398450
_cell_angle_gamma 90.000000
_cell_volume 1389.036680
_symmetry_space_group_name_H-M "C 2/C"
_symmetry_group_IT_number 15
_symmetry_cell_setting 'monoclinic'
loop_
_space_group_symop_operation_xyz
x,y,z
-x,y,1/2-z
-x,-y,-z
x,-y,1/2+z
1/2+x,1/2+y,z
1/2-x,1/2+y,1/2-z
1/2-x,1/2-y,-z
1/2+x,1/2-y,1/2+z
loop_
_atom_site_type_symbol
_atom_site_label
_atom_site_fract_x
_atom_site_fract_y
_atom_site_fract_z
Si Si1 0.234141 0.027455 0.219751
Si Si2 0.000000 0.241554 0.750000
Si Si3 0.250000 0.250000 0.000000
Si Si4 0.071293 0.202093 0.534844
Si Si5 0.361568 0.681876 0.099273
Si Si6 0.365692 0.958450 0.380040
O O1 0.247625 0.842988 0.269086
O O2 0.109615 0.953156 0.232380
O O3 0.338363 0.912250 0.150579
O O4 0.972733 0.439751 0.810154
O O5 0.179545 0.163253 0.083661
O O6 0.158235 0.057023 0.000170
O O7 0.084694 0.316664 0.470989
O O8 0.122172 0.419898 0.561852
O O9 0.951836 0.056115 0.586932
O O10 0.236453 0.566027 0.124658
#
# Coordination Sequence:
#
# PCOD9269838 Si02
#       6
#     8   4   4   8   8   8
#     4  11  25  46  69 102 142 184 236 294 351 431
#     4  10  24  46  68 100 136 190 234 292 364 418
#     4  10  20  34  62  90 118 164 210 266 334 394
#     4  10  20  40  61  88 127 163 218 280 333 408
#     4   9  20  40  60  92 123 168 222 272 345 409
#     4  10  21  42  60  91 128 168 223 281 339 415
#
# _framework density 28.796932999999999
#
# number of rings (size 3 to 8) (size 9 to 14) (size 15 to 20)
#    0.000    2.000    0.000    3.600    2.800    0.800 
#   32.400    8.000    0.000    0.000    0.000    0.000 
#    0.000    0.000    0.000    0.000    0.000    0.000 
#
# Total GULP energy -111560.200288 kJ/mol
# GULP energy per Si atom -5578.010014 kJ/mol
# Density = 2.873139 g / cm^3
# Si number density = 28.796933 Si / 1000 Ang^3
#
#
#
# Elastic Constant Matrix: (Units=GPa)
#
#
# Indices 1 2 3 4 5 6 
#
# 1 129.7596 18.0412 39.7738 0.1387 -12.8846 -0.0915
# 2 18.0412 52.7713 13.9532 0.0228 0.9205 0.0759
# 3 39.7738 13.9532 132.9117 0.0192 17.9791 -0.0247
# 4 0.1387 0.0228 0.0192 38.1486 0.0181 0.2929
# 5 -12.8846 0.9205 17.9791 0.0181 48.7195 -0.0192
# 6 -0.0915 0.0759 -0.0247 0.2929 -0.0192 33.9982
#
#
#
# Elastic Compliance Matrix: (Units=1/GPa)
#
#
# Indices 1 2 3 4 5 6 
#
# 1 0.009337 -0.002455 -0.003028 -0.000033 0.003633 0.000031
# 2 -0.002455 0.020144 -0.001306 -0.000002 -0.000548 -0.000053
# 3 -0.003028 -0.001306 0.009128 0.000009 -0.004144 -0.000001
# 4 -0.000033 -0.000002 0.000009 0.026215 -0.000022 -0.000226
# 5 0.003633 -0.000548 -0.004144 -0.000022 0.023026 0.000021
# 6 0.000031 -0.000053 -0.000001 -0.000226 0.000021 0.029415
#
#
# Mechanical properties :
#
#
# Convention : Reuss Voigt Hill
#
# Bulk Modulus (GPa) = 39.95040 50.99765 45.47403
# Shear Modulus (GPa) = 35.92319 40.41822 38.17070
#
# Velocity S-wave (km/s) = 3.53578 3.75048 3.64471
# Velocity P-wave (km/s) = 5.52922 6.04174 5.79115
#
# Compressibility (1/GPa) = 0.02503104
#
# Stress axis : x y z
#
# Youngs Moduli (GPa) = 107.10405 49.64282 109.55829
#
# Poissons Ratio (x) = 0.12187 0.33171
# Poissons Ratio (y) = 0.26292 0.14308
# Poissons Ratio (z) = 0.32428 0.06483
#
# Static dielectric constant tensor:
#      x y z
#    x 2.108690 0.000010 0.146410 
#    y 0.000010 1.845750 -0.000150 
#    z 0.146410 -0.000150 2.497760 
# 
# From -- ./inp_files/271723.got.cif
#   From: 2010.05.17/outbox.cif.g08.bks.cpg/sg15_136_cif.got.tgz:271723.got - 2010.06.03 18:47:42.
