data_PCOD9269542
_publ_section_title
;
Structure prediction by ZEFSAII (Michael W. Deem and Ramdas Pophale) SiO2 
 PCOD9269542
Probable space group: C 2/C
;
_chemical_formula_sum "Si O2"
_cell_formula_units_Z 60
_cell_length_a 15.315420
_cell_length_b 21.528270
_cell_length_c 14.087677
_cell_angle_alpha 90.000000
_cell_angle_beta 40.460036
_cell_angle_gamma 90.000000
_cell_volume 3014.164273
_symmetry_space_group_name_H-M "C 2/C"
_symmetry_group_IT_number 15
_symmetry_cell_setting 'monoclinic'
loop_
_space_group_symop_operation_xyz
x,y,z
-x,y,1/2-z
-x,-y,-z
x,-y,1/2+z
1/2+x,1/2+y,z
1/2-x,1/2+y,1/2-z
1/2-x,1/2-y,-z
1/2+x,1/2-y,1/2+z
loop_
_atom_site_type_symbol
_atom_site_label
_atom_site_fract_x
_atom_site_fract_y
_atom_site_fract_z
Si Si1 0.000000 0.676959 0.750000
Si Si2 0.096224 0.245060 0.999770
Si Si3 0.649990 0.712937 0.648944
Si Si4 0.292811 0.284289 0.684800
Si Si5 0.606954 0.542264 0.852400
Si Si6 0.352314 0.393348 0.488421
Si Si7 0.743491 0.614609 0.904865
Si Si8 0.162520 0.012766 0.112224
O O1 0.921758 0.720968 0.886102
O O2 0.896901 0.635282 0.777101
O O3 0.947234 0.236194 0.075517
O O4 0.203774 0.287024 0.852966
O O5 0.154742 0.176569 0.968627
O O6 0.500000 0.735804 0.750000
O O7 0.750000 0.750000 0.500000
O O8 0.708599 0.729205 0.702021
O O9 0.655472 0.644532 0.602846
O O10 0.293674 0.347460 0.619224
O O11 0.704284 0.572152 0.848428
O O12 0.686369 0.507241 0.701891
O O13 0.500000 0.500000 0.000000
O O14 0.506322 0.593706 0.891115
O O15 0.296855 0.460132 0.499684
O O16 0.715093 0.576931 0.025659
O O17 0.000000 0.015902 0.250000
#
# Coordination Sequence:
#
# PCOD9269542 Si02
#       8
#     4   8   8   8   8   8   8   8
#     4  12  30  46  62  98 134 188 224 280 352 410
#     4  12  26  43  69  96 135 176 236 276 345 413
#     4  10  20  34  57  89 135 175 211 268 330 389
#     4  11  23  40  66 100 131 184 226 279 343 410
#     4  11  21  38  67 103 127 172 232 282 335 396
#     4  10  20  36  62  97 136 163 224 276 336 399
#     4  12  25  45  70  93 141 170 228 292 337 408
#     4  10  22  38  67 104 129 168 221 284 339 390
#
# _framework density 19.906015
#
# number of rings (size 3 to 8) (size 9 to 14) (size 15 to 20)
#    0.000    1.067    5.333    3.200    2.800    1.067 
#    0.000    0.667    8.800    0.000    0.000    0.000 
#    0.000    0.000    0.000    0.000    0.000    0.000 
#
# Total GULP energy -167218.852783 kJ/mol
# GULP energy per Si atom -5573.961759 kJ/mol
# Density = 1.986071 g / cm^3
# Si number density = 19.906015 Si / 1000 Ang^3
#
#
#
# Elastic Constant Matrix: (Units=GPa)
#
#
# Indices 1 2 3 4 5 6 
#
# 1 87.5010 24.4264 16.0176 -0.0014 -4.2415 0.0001
# 2 24.4264 76.7274 34.5844 -0.0009 12.0283 -0.0001
# 3 16.0176 34.5844 98.0243 -0.0016 16.0413 0.0001
# 4 -0.0014 -0.0009 -0.0016 5.9156 0.0010 1.5049
# 5 -4.2415 12.0283 16.0413 0.0010 45.1202 -0.0003
# 6 0.0001 -0.0001 0.0001 1.5049 -0.0003 28.1774
#
#
#
# Elastic Compliance Matrix: (Units=1/GPa)
#
#
# Indices 1 2 3 4 5 6 
#
# 1 0.012886 -0.004014 -0.001128 0.000002 0.002683 0.000000
# 2 -0.004014 0.016981 -0.004813 0.000001 -0.003193 0.000000
# 3 -0.001128 -0.004813 0.012626 0.000003 -0.003312 0.000000
# 4 0.000002 0.000001 0.000003 0.171373 -0.000005 -0.009153
# 5 0.002683 -0.003193 -0.003312 -0.000005 0.024444 0.000001
# 6 0.000000 0.000000 0.000000 -0.009153 0.000001 0.035978
#
#
# Mechanical properties :
#
#
# Convention : Reuss Voigt Hill
#
# Bulk Modulus (GPa) = 44.28261 45.81217 45.04739
# Shear Modulus (GPa) = 16.57136 28.32426 22.44781
#
# Velocity S-wave (km/s) = 2.88840 3.77623 3.36175
# Velocity P-wave (km/s) = 5.78083 6.48671 6.14391
#
# Compressibility (1/GPa) = 0.02258223
#
# Stress axis : x y z
#
# Youngs Moduli (GPa) = 77.60610 58.88968 79.20255
#
# Poissons Ratio (x) = 0.23639 0.08936
# Poissons Ratio (y) = 0.31152 0.38117
# Poissons Ratio (z) = 0.08756 0.28341
#
# Static dielectric constant tensor:
#      x y z
#    x 1.765910 0.000000 0.059960 
#    y 0.000000 1.773770 0.000000 
#    z 0.059960 0.000000 1.720240 
# 
# From -- ./inp_files/156356.got.cif
#   From: 2010.05.17/outbox.cif.g08.bks.cpg/sg15_79_cif.got.tgz:156356.got - 2010.06.03 18:47:42.
