data_PCOD9269548
_publ_section_title
;
Structure prediction by ZEFSAII (Michael W. Deem and Ramdas Pophale) SiO2 
 PCOD9269548
Probable space group: C 2/C
;
_chemical_formula_sum "Si O2"
_cell_formula_units_Z 56
_cell_length_a 14.921313
_cell_length_b 17.540837
_cell_length_c 12.922841
_cell_angle_alpha 90.000000
_cell_angle_beta 121.127726
_cell_angle_gamma 90.000000
_cell_volume 2895.327921
_symmetry_space_group_name_H-M "C 2/C"
_symmetry_group_IT_number 15
_symmetry_cell_setting 'monoclinic'
loop_
_space_group_symop_operation_xyz
x,y,z
-x,y,1/2-z
-x,-y,-z
x,-y,1/2+z
1/2+x,1/2+y,z
1/2-x,1/2+y,1/2-z
1/2-x,1/2-y,-z
1/2+x,1/2-y,1/2+z
loop_
_atom_site_type_symbol
_atom_site_label
_atom_site_fract_x
_atom_site_fract_y
_atom_site_fract_z
Si Si1 0.271094 0.709324 0.303424
Si Si2 0.486253 0.621776 0.921369
Si Si3 0.719533 0.470559 0.212464
Si Si4 0.080020 0.104688 0.204206
Si Si5 0.802177 0.924024 0.989385
Si Si6 0.972740 0.702522 0.355543
Si Si7 0.153237 0.375262 0.082537
O O1 0.352290 0.682269 0.264032
O O2 0.289022 0.651585 0.410111
O O3 0.151127 0.696484 0.201627
O O4 0.296786 0.794340 0.354267
O O5 0.369008 0.594487 0.833786
O O6 0.499064 0.710378 0.902284
O O7 0.515115 0.602463 0.057658
O O8 0.574640 0.576091 0.909622
O O9 0.667655 0.538333 0.249932
O O10 0.724116 0.505538 0.100418
O O11 0.829121 0.435385 0.314631
O O12 0.000000 0.100712 0.250000
O O13 0.725674 0.912369 0.037686
O O14 0.000000 0.691753 0.250000
O O15 0.041497 0.645730 0.466698
#
# Coordination Sequence:
#
# PCOD9269548 Si02
#       7
#     8   8   8   8   8   8   8
#     4  10  20  38  58  91 123 150 203 250 297 361
#     4  10  20  34  57  90 127 148 202 256 303 360
#     4  10  23  34  57  93 125 157 203 253 300 367
#     4  10  22  40  60  87 125 165 199 249 307 358
#     4  10  20  36  53  88 127 157 193 251 304 357
#     4  12  21  34  63  95 120 159 198 254 310 354
#     4  12  21  36  63  89 122 160 198 249 308 361
#
# _framework density 19.341505999999999
#
# number of rings (size 3 to 8) (size 9 to 14) (size 15 to 20)
#    0.000    1.714    5.714    3.000    4.000    0.000 
#    0.000    3.571    0.000    0.000    7.429    0.000 
#    0.000    0.000    0.000    0.000    0.000    0.000 
#
# Total GULP energy -156208.786224 kJ/mol
# GULP energy per Si atom -5578.885222 kJ/mol
# Density = 1.929748 g / cm^3
# Si number density = 19.341506 Si / 1000 Ang^3
#
#
#
# Elastic Constant Matrix: (Units=GPa)
#
#
# Indices 1 2 3 4 5 6 
#
# 1 63.4738 7.7271 21.1923 0.0000 8.9226 0.0000
# 2 7.7271 57.8925 35.9638 0.0000 2.1865 0.0000
# 3 21.1923 35.9638 84.1545 0.0000 22.0477 0.0000
# 4 0.0000 0.0000 0.0000 31.2031 0.0000 3.3286
# 5 8.9226 2.1865 22.0477 0.0000 19.4831 0.0000
# 6 0.0000 0.0000 0.0000 3.3286 0.0000 18.0239
#
#
#
# Elastic Compliance Matrix: (Units=1/GPa)
#
#
# Indices 1 2 3 4 5 6 
#
# 1 0.017451 -0.000203 -0.003156 0.000000 -0.004398 0.000000
# 2 -0.000203 0.025840 -0.014578 0.000000 0.013690 0.000000
# 3 -0.003156 -0.014578 0.025728 0.000000 -0.026034 0.000000
# 4 0.000000 0.000000 0.000000 0.032692 0.000000 -0.006038
# 5 -0.004398 0.013690 -0.026034 0.000000 0.081265 0.000000
# 6 0.000000 0.000000 0.000000 -0.006038 0.000000 0.056597
#
#
# Mechanical properties :
#
#
# Convention : Reuss Voigt Hill
#
# Bulk Modulus (GPa) = 30.17016 37.25413 33.71214
# Shear Modulus (GPa) = 17.45232 23.11789 20.28510
#
# Velocity S-wave (km/s) = 3.00713 3.46099 3.24201
# Velocity P-wave (km/s) = 5.26209 5.93922 5.61088
#
# Compressibility (1/GPa) = 0.03314534
#
# Stress axis : x y z
#
# Youngs Moduli (GPa) = 57.30308 38.70003 38.86768
#
# Poissons Ratio (x) = 0.00785 0.12266
# Poissons Ratio (y) = 0.01162 0.56663
# Poissons Ratio (z) = 0.18083 0.56419
#
# Static dielectric constant tensor:
#      x y z
#    x 1.682230 0.000000 0.010380 
#    y 0.000000 1.700410 0.000000 
#    z 0.010380 0.000000 1.734320 
# 
# From -- ./inp_files/155239.got.cif
#   From: 2010.05.17/outbox.cif.g08.bks.cpg/sg15_78_cif.got.tgz:155239.got - 2010.06.03 18:47:42.
