data_PCOD9269625
_publ_section_title
;
Structure prediction by ZEFSAII (Michael W. Deem and Ramdas Pophale) SiO2 
 PCOD9269625
Probable space group: C 2/C
;
_chemical_formula_sum "Si O2"
_cell_formula_units_Z 48
_cell_length_a 8.959607
_cell_length_b 29.571185
_cell_length_c 17.834964
_cell_angle_alpha 90.000000
_cell_angle_beta 148.761007
_cell_angle_gamma 90.000000
_cell_volume 2450.586213
_symmetry_space_group_name_H-M "C 2/C"
_symmetry_group_IT_number 15
_symmetry_cell_setting 'monoclinic'
loop_
_space_group_symop_operation_xyz
x,y,z
-x,y,1/2-z
-x,-y,-z
x,-y,1/2+z
1/2+x,1/2+y,z
1/2-x,1/2+y,1/2-z
1/2-x,1/2-y,-z
1/2+x,1/2-y,1/2+z
loop_
_atom_site_type_symbol
_atom_site_label
_atom_site_fract_x
_atom_site_fract_y
_atom_site_fract_z
Si Si1 0.723797 0.950013 0.979246
Si Si2 0.834152 0.476771 0.251142
Si Si3 0.788869 0.241839 0.427103
Si Si4 0.685251 0.144981 0.402733
Si Si5 0.658191 0.827070 0.592983
Si Si6 0.332904 0.091851 0.887780
O O1 0.634177 0.939950 0.025587
O O2 0.996798 0.982276 0.093050
O O3 0.821215 0.901969 0.986960
O O4 0.466010 0.974856 0.828103
O O5 0.867154 0.439881 0.330944
O O6 0.000000 0.459767 0.250000
O O7 0.500000 0.246535 0.250000
O O8 0.750000 0.250000 0.500000
O O9 0.872323 0.188816 0.460580
O O10 0.022102 0.279718 0.506446
O O11 0.500000 0.134796 0.250000
O O12 0.486465 0.160260 0.388253
O O13 0.550399 0.866697 0.491142
O O14 0.000000 0.825068 0.750000
O O15 0.000000 0.109075 0.750000
#
# Coordination Sequence:
#
# PCOD9269625 Si02
#       6
#     8   8   8   8   8   8
#     4  10  21  37  56  78 110 152 192 234 288 347
#     4  11  22  35  54  81 111 147 193 243 289 336
#     4   9  18  36  60  82 111 153 193 233 289 356
#     4   9  19  37  57  79 110 152 193 230 283 350
#     4  10  20  34  58  89 116 147 189 242 293 342
#     4   9  20  37  55  79 114 157 194 228 285 357
#
# _framework density 19.587150000000001
#
# number of rings (size 3 to 8) (size 9 to 14) (size 15 to 20)
#    0.000    2.333    0.000    2.000    0.000    5.333 
#    0.000    9.167    0.000    0.000    0.000    0.000 
#    0.000    0.000    0.000    0.000    0.000    0.000 
#
# Total GULP energy -133740.977970 kJ/mol
# GULP energy per Si atom -5572.540749 kJ/mol
# Density = 1.954257 g / cm^3
# Si number density = 19.587150 Si / 1000 Ang^3
#
#
#
# Elastic Constant Matrix: (Units=GPa)
#
#
# Indices 1 2 3 4 5 6 
#
# 1 29.0701 11.9434 1.5902 0.0000 -13.0427 0.0001
# 2 11.9434 83.3143 49.2708 0.0000 15.8361 0.0002
# 3 1.5902 49.2708 77.2471 0.0000 5.2684 0.0004
# 4 0.0000 0.0000 0.0000 -4.2656 0.0000 -9.6814
# 5 -13.0427 15.8361 5.2684 0.0000 36.3275 0.0000
# 6 0.0001 0.0002 0.0004 -9.6814 0.0000 2.1542
#
#
#
# Elastic Compliance Matrix: (Units=1/GPa)
#
#
# Indices 1 2 3 4 5 6 
#
# 1 0.052128 -0.016978 0.008055 0.000001 0.024949 0.000000
# 2 -0.016978 0.026556 -0.015537 0.000000 -0.015419 0.000000
# 3 0.008055 -0.015537 0.022251 0.000001 0.006438 0.000000
# 4 0.000001 0.000000 0.000001 -0.020931 0.000000 -0.094069
# 5 0.024949 -0.015419 0.006438 0.000000 0.042273 0.000000
# 6 0.000000 0.000000 0.000000 -0.094069 0.000000 0.041446
#
#
# Mechanical properties :
#
#
# Convention : Reuss Voigt Hill
#
# Bulk Modulus (GPa) = 19.22587 35.02669 27.12628
# Shear Modulus (GPa) = 21.74088 15.29837 18.51963
#
# Velocity S-wave (km/s) = 3.33522 2.79774 3.07823
# Velocity P-wave (km/s) = 4.96673 5.32520 5.14909
#
# Compressibility (1/GPa) = 0.05201325
#
# Stress axis : x y z
#
# Youngs Moduli (GPa) = 19.18344 37.65653 44.94249
#
# Poissons Ratio (x) = 0.63935 -0.36200
# Poissons Ratio (y) = 0.32570 0.69828
# Poissons Ratio (z) = -0.15452 0.58507
#
# Static dielectric constant tensor:
#      x y z
#    x 1.714940 0.000000 -0.018220 
#    y 0.000000 1.711940 0.000000 
#    z -0.018220 0.000000 1.703340 
# 
# From -- ./inp_files/52889.got.cif
#   From: 2010.05.17/outbox.cif.g08.bks.cpg/sg15_27_cif.got.tgz:52889.got - 2010.06.03 18:47:42.
