data_PCOD9269495
_publ_section_title
;
Structure prediction by ZEFSAII (Michael W. Deem and Ramdas Pophale) SiO2 
 PCOD9269495
Probable space group: C 2/C
;
_chemical_formula_sum "Si O2"
_cell_formula_units_Z 60
_cell_length_a 19.594720
_cell_length_b 15.693683
_cell_length_c 9.752485
_cell_angle_alpha 90.000000
_cell_angle_beta 60.933245
_cell_angle_gamma 90.000000
_cell_volume 2621.305417
_symmetry_space_group_name_H-M "C 2/C"
_symmetry_group_IT_number 15
_symmetry_cell_setting 'monoclinic'
loop_
_space_group_symop_operation_xyz
x,y,z
-x,y,1/2-z
-x,-y,-z
x,-y,1/2+z
1/2+x,1/2+y,z
1/2-x,1/2+y,1/2-z
1/2-x,1/2-y,-z
1/2+x,1/2-y,1/2+z
loop_
_atom_site_type_symbol
_atom_site_label
_atom_site_fract_x
_atom_site_fract_y
_atom_site_fract_z
Si Si1 0.779085 0.353414 0.340607
Si Si2 0.813960 0.607144 0.230383
Si Si3 0.877369 0.118333 0.809774
Si Si4 0.162089 0.224930 0.413275
Si Si5 0.002826 0.847289 0.948372
Si Si6 0.277217 0.017186 0.523858
Si Si7 0.127422 0.264119 0.019452
Si Si8 0.500000 0.503915 0.250000
O O1 0.811158 0.318455 0.162804
O O2 0.758328 0.444202 0.427580
O O3 0.847473 0.319933 0.375311
O O4 0.699731 0.300483 0.434796
O O5 0.729918 0.656649 0.304176
O O6 0.825779 0.578971 0.375248
O O7 0.874359 0.674373 0.110291
O O8 0.813070 0.529465 0.121146
O O9 0.939394 0.135520 0.630745
O O10 0.851124 0.203651 0.913927
O O11 0.926919 0.055531 0.860375
O O12 0.800613 0.065025 0.849054
O O13 0.080771 0.199300 0.421616
O O14 0.949989 0.789108 0.901866
O O15 0.023009 0.934704 0.851840
#
# Coordination Sequence:
#
# PCOD9269495 Si02
#       8
#     8   8   8   8   8   8   8   4
#     4   9  18  37  56  76 109 152 198 236 279 339
#     4   9  20  37  55  82 116 148 194 245 287 343
#     4  11  23  34  50  84 125 151 178 236 291 350
#     4  10  20  37  53  80 117 153 185 236 282 343
#     4  12  22  35  56  84 115 156 194 224 293 353
#     4  10  20  34  57  80 109 152 195 238 296 335
#     4   9  19  35  54  79 110 147 192 241 271 346
#     4  12  22  32  50  80 118 156 180 216 276 358
#
# _framework density 22.88936
#
# number of rings (size 3 to 8) (size 9 to 14) (size 15 to 20)
#    0.000    1.867    1.333    3.600    5.600    0.000 
#    2.400    2.000    0.000    0.800    0.000    0.000 
#    0.000    0.000    0.000    0.000    0.000    0.000 
#
# Total GULP energy -167483.215620 kJ/mol
# GULP energy per Si atom -5582.773854 kJ/mol
# Density = 2.283726 g / cm^3
# Si number density = 22.889360 Si / 1000 Ang^3
#
#
#
# Elastic Constant Matrix: (Units=GPa)
#
#
# Indices 1 2 3 4 5 6 
#
# 1 56.2559 23.1227 10.0829 0.0000 0.9223 0.0000
# 2 23.1227 54.1380 42.0142 0.0000 -6.9315 0.0000
# 3 10.0829 42.0142 134.2531 0.0000 9.0654 0.0000
# 4 0.0000 0.0000 0.0000 41.3989 0.0000 6.1856
# 5 0.9223 -6.9315 9.0654 0.0000 23.4772 0.0000
# 6 0.0000 0.0000 0.0000 6.1856 0.0000 24.0419
#
#
#
# Elastic Compliance Matrix: (Units=1/GPa)
#
#
# Indices 1 2 3 4 5 6 
#
# 1 0.022444 -0.012236 0.002512 0.000000 -0.005464 0.000000
# 2 -0.012236 0.033832 -0.010653 0.000000 0.014583 0.000000
# 3 0.002512 -0.010653 0.011102 0.000000 -0.007531 0.000000
# 4 0.000000 0.000000 0.000000 0.025121 0.000000 -0.006463
# 5 -0.005464 0.014583 -0.007531 0.000000 0.050023 0.000000
# 6 0.000000 0.000000 0.000000 -0.006463 0.000000 0.043257
#
#
# Mechanical properties :
#
#
# Convention : Reuss Voigt Hill
#
# Bulk Modulus (GPa) = 37.55775 43.89852 40.72813
# Shear Modulus (GPa) = 21.23970 29.07874 25.15922
#
# Velocity S-wave (km/s) = 3.04950 3.56814 3.31896
# Velocity P-wave (km/s) = 5.37059 6.01629 5.70259
#
# Compressibility (1/GPa) = 0.02662566
#
# Stress axis : x y z
#
# Youngs Moduli (GPa) = 44.55461 29.55773 90.07018
#
# Poissons Ratio (x) = 0.36166 -0.22629
# Poissons Ratio (y) = 0.54515 0.95956
# Poissons Ratio (z) = -0.11194 0.31489
#
# Static dielectric constant tensor:
#      x y z
#    x 1.894740 0.000000 0.138760 
#    y 0.000000 1.905240 0.000000 
#    z 0.138760 0.000000 1.923410 
# 
# From -- ./inp_files/118766.got.cif
#   From: 2010.05.17/outbox.cif.g08.bks.cpg/sg15_60_cif.got.tgz:118766.got - 2010.06.03 18:47:42.
