data_PCOD9269222
_publ_section_title
;
Structure prediction by ZEFSAII (Michael W. Deem and Ramdas Pophale) SiO2 
 PCOD9269222
Probable space group: C 2/C
;
_chemical_formula_sum "Si O2"
_cell_formula_units_Z 48
_cell_length_a 21.105003
_cell_length_b 6.972108
_cell_length_c 22.311730
_cell_angle_alpha 90.000000
_cell_angle_beta 144.945179
_cell_angle_gamma 90.000000
_cell_volume 1885.675309
_symmetry_space_group_name_H-M "C 2/C"
_symmetry_group_IT_number 15
_symmetry_cell_setting 'monoclinic'
loop_
_space_group_symop_operation_xyz
x,y,z
-x,y,1/2-z
-x,-y,-z
x,-y,1/2+z
1/2+x,1/2+y,z
1/2-x,1/2+y,1/2-z
1/2-x,1/2-y,-z
1/2+x,1/2-y,1/2+z
loop_
_atom_site_type_symbol
_atom_site_label
_atom_site_fract_x
_atom_site_fract_y
_atom_site_fract_z
Si Si1 0.136043 0.837957 0.486766
Si Si2 0.015018 0.270612 0.011575
Si Si3 0.884316 0.322356 0.297487
Si Si4 0.377167 0.138211 0.139765
Si Si5 0.088672 0.987239 0.248453
Si Si6 0.322346 0.749692 0.781724
O O1 0.107068 0.789277 0.533335
O O2 0.258150 0.929801 0.573599
O O3 0.137904 0.651477 0.443756
O O4 0.030028 0.940427 0.373723
O O5 0.908049 0.181650 0.898645
O O6 0.016943 0.244403 0.084206
O O7 0.000000 0.500000 0.000000
O O8 0.788484 0.246095 0.267467
O O9 0.867386 0.551136 0.287736
O O10 0.891924 0.214543 0.240352
O O11 0.500000 0.056038 0.250000
O O12 0.388492 0.355737 0.176544
O O13 0.177050 0.901556 0.270369
#
# Coordination Sequence:
#
# PCOD9269222 Si02
#       6
#     8   8   8   8   8   8
#     4   9  18  33  56  84 113 157 203 243 303 359
#     4   9  20  34  54  85 125 157 193 247 304 364
#     4  11  20  35  54  84 122 156 199 240 305 363
#     4   9  18  34  58  84 112 153 205 252 292 353
#     4  10  20  35  57  84 117 155 201 249 295 360
#     4  10  20  34  53  83 118 161 195 241 302 363
#
# _framework density 25.455069000000002
#
# number of rings (size 3 to 8) (size 9 to 14) (size 15 to 20)
#    0.000    2.333    1.667    1.000    2.333    2.667 
#    3.000    0.000    0.000   21.000    0.000   66.500 
#    0.000    0.000    0.000    0.000    0.000    0.000 
#
# Total GULP energy -133609.513023 kJ/mol
# GULP energy per Si atom -5567.063043 kJ/mol
# Density = 2.539713 g / cm^3
# Si number density = 25.455069 Si / 1000 Ang^3
#
#
#
# Elastic Constant Matrix: (Units=GPa)
#
#
# Indices 1 2 3 4 5 6 
#
# 1 73.7183 35.0660 -20.4307 0.0000 -16.1869 0.0000
# 2 35.0660 80.0245 -2.6809 0.0000 5.5988 0.0000
# 3 -20.4307 -2.6809 60.6034 0.0000 -6.0122 0.0000
# 4 0.0000 0.0000 0.0000 13.3256 0.0000 -4.8571
# 5 -16.1869 5.5988 -6.0122 0.0000 25.3679 0.0000
# 6 0.0000 0.0000 0.0000 -4.8571 0.0000 33.8460
#
#
#
# Elastic Compliance Matrix: (Units=1/GPa)
#
#
# Indices 1 2 3 4 5 6 
#
# 1 0.028552 -0.013806 0.011392 0.000000 0.023966 0.000000
# 2 -0.013806 0.019373 -0.005218 0.000000 -0.014322 0.000000
# 3 0.011392 -0.005218 0.021450 0.000000 0.013505 0.000000
# 4 0.000000 0.000000 0.000000 0.079185 0.000000 0.011363
# 5 0.023966 -0.014322 0.013505 0.000000 0.061074 0.000000
# 6 0.000000 0.000000 0.000000 0.011363 0.000000 0.031176
#
#
# Mechanical properties :
#
#
# Convention : Reuss Voigt Hill
#
# Bulk Modulus (GPa) = 18.48049 26.47277 22.47663
# Shear Modulus (GPa) = 18.24068 28.00069 23.12069
#
# Velocity S-wave (km/s) = 2.67981 3.32023 3.01706
# Velocity P-wave (km/s) = 4.10500 5.01208 4.58104
#
# Compressibility (1/GPa) = 0.05411112
#
# Stress axis : x y z
#
# Youngs Moduli (GPa) = 35.02352 51.61767 46.61950
#
# Poissons Ratio (x) = 0.71265 -0.53111
# Poissons Ratio (y) = 0.48355 0.24327
# Poissons Ratio (z) = -0.39900 0.26935
#
# Static dielectric constant tensor:
#      x y z
#    x 2.025920 0.000000 0.014360 
#    y 0.000000 2.072950 0.000000 
#    z 0.014360 0.000000 2.182400 
# 
# From -- ./inp_files/301925.got.cif
#   From: 2010.05.17/outbox.cif.g08.bks.cpg/sg15_151_cif.got.tgz:301925.got - 2010.06.03 18:47:42.
