data_PCOD9269563
_publ_section_title
;
Structure prediction by ZEFSAII (Michael W. Deem and Ramdas Pophale) SiO2 
 PCOD9269563
Probable space group: C 2/C
;
_chemical_formula_sum "Si O2"
_cell_formula_units_Z 60
_cell_length_a 25.498645
_cell_length_b 8.068131
_cell_length_c 22.509181
_cell_angle_alpha 90.000000
_cell_angle_beta 39.277767
_cell_angle_gamma 90.000000
_cell_volume 2931.626944
_symmetry_space_group_name_H-M "C 2/C"
_symmetry_group_IT_number 15
_symmetry_cell_setting 'monoclinic'
loop_
_space_group_symop_operation_xyz
x,y,z
-x,y,1/2-z
-x,-y,-z
x,-y,1/2+z
1/2+x,1/2+y,z
1/2-x,1/2+y,1/2-z
1/2-x,1/2-y,-z
1/2+x,1/2-y,1/2+z
loop_
_atom_site_type_symbol
_atom_site_label
_atom_site_fract_x
_atom_site_fract_y
_atom_site_fract_z
Si Si1 0.949121 0.577935 0.599366
Si Si2 0.621178 0.402681 0.464013
Si Si3 0.339151 0.214740 0.950770
Si Si4 0.666986 0.255412 0.873531
Si Si5 0.147742 0.743976 0.317817
Si Si6 0.482028 0.596482 0.651699
Si Si7 0.000000 0.120519 0.250000
Si Si8 0.085243 0.569284 0.053524
O O1 0.903977 0.740709 0.614714
O O2 0.875970 0.445728 0.675042
O O3 0.000000 0.500000 0.500000
O O4 0.014512 0.564629 0.595502
O O5 0.659247 0.308844 0.486914
O O6 0.671048 0.564203 0.399055
O O7 0.614069 0.288138 0.412671
O O8 0.535243 0.481094 0.561196
O O9 0.418816 0.278928 0.843299
O O10 0.357492 0.021880 0.949203
O O11 0.250000 0.250000 0.000000
O O12 0.755853 0.218782 0.768888
O O13 0.639314 0.126993 0.949244
O O14 0.100123 0.849790 0.310192
O O15 0.471082 0.496069 0.721323
O O16 0.536189 0.764341 0.614925
#
# Coordination Sequence:
#
# PCOD9269563 Si02
#       8
#     8   8   8   8   8   8   4   8
#     4   9  18  35  55  81 123 160 195 241 311 384
#     4  10  21  39  58  89 126 161 207 261 319 369
#     4  11  25  46  67  91 128 171 222 267 318 375
#     4  10  20  34  57  97 128 160 205 255 318 383
#     4  11  20  34  61  95 123 161 205 261 320 377
#     4   9  21  40  63  87 126 162 213 260 317 383
#     4  10  24  46  62  98 122 168 222 268 316 388
#     4   9  20  40  63  88 122 173 203 253 323 380
#
# _framework density 20.466449999999998
#
# number of rings (size 3 to 8) (size 9 to 14) (size 15 to 20)
#    0.000    2.133    0.000    3.600    1.867    2.667 
#    9.600    2.000    0.000    0.000    0.000    0.000 
#    0.000    0.000    0.000    0.000    0.000    0.000 
#
# Total GULP energy -167492.454540 kJ/mol
# GULP energy per Si atom -5583.081818 kJ/mol
# Density = 2.041987 g / cm^3
# Si number density = 20.466450 Si / 1000 Ang^3
#
#
#
# Elastic Constant Matrix: (Units=GPa)
#
#
# Indices 1 2 3 4 5 6 
#
# 1 100.0135 46.4547 39.9761 -0.0021 -13.6219 0.0035
# 2 46.4547 82.1583 34.8804 -0.0060 -2.6233 0.0071
# 3 39.9761 34.8804 74.5651 -0.0009 -2.6926 0.0016
# 4 -0.0021 -0.0060 -0.0009 14.7708 0.0007 1.4942
# 5 -13.6219 -2.6233 -2.6926 0.0007 32.3420 -0.0011
# 6 0.0035 0.0071 0.0016 1.4942 -0.0011 36.2226
#
#
#
# Elastic Compliance Matrix: (Units=1/GPa)
#
#
# Indices 1 2 3 4 5 6 
#
# 1 0.015948 -0.006604 -0.005254 -0.000001 0.005744 0.000000
# 2 -0.006604 0.017936 -0.004912 0.000006 -0.001736 -0.000003
# 3 -0.005254 -0.004912 0.018487 -0.000002 -0.001072 0.000001
# 4 -0.000001 0.000006 -0.000002 0.067985 -0.000002 -0.002804
# 5 0.005744 -0.001736 -0.001072 -0.000002 0.033109 0.000001
# 6 0.000000 -0.000003 0.000001 -0.002804 0.000001 0.027723
#
#
# Mechanical properties :
#
#
# Convention : Reuss Voigt Hill
#
# Bulk Modulus (GPa) = 53.10279 55.48440 54.29359
# Shear Modulus (GPa) = 22.62404 25.69545 24.15975
#
# Velocity S-wave (km/s) = 3.32839 3.54714 3.43950
# Velocity P-wave (km/s) = 6.38542 6.62910 6.50840
#
# Compressibility (1/GPa) = 0.01883140
#
# Stress axis : x y z
#
# Youngs Moduli (GPa) = 62.70267 55.75479 54.09236
#
# Poissons Ratio (x) = 0.36819 0.28418
# Poissons Ratio (y) = 0.41407 0.26572
# Poissons Ratio (z) = 0.32942 0.27388
#
# Static dielectric constant tensor:
#      x y z
#    x 1.714470 0.000000 0.006150 
#    y 0.000000 1.790320 0.000000 
#    z 0.006150 0.000000 1.717900 
# 
# From -- ./inp_files/281661.got.cif
#   From: 2010.05.17/outbox.cif.g08.bks.cpg/sg15_141_cif.got.tgz:281661.got - 2010.06.03 18:47:42.
