data_PCOD9269597
_publ_section_title
;
Structure prediction by ZEFSAII (Michael W. Deem and Ramdas Pophale) SiO2 
 PCOD9269597
Probable space group: C 2/C
;
_chemical_formula_sum "Si O2"
_cell_formula_units_Z 52
_cell_length_a 18.067280
_cell_length_b 7.674099
_cell_length_c 28.083524
_cell_angle_alpha 90.000000
_cell_angle_beta 137.971301
_cell_angle_gamma 90.000000
_cell_volume 2606.898645
_symmetry_space_group_name_H-M "C 2/C"
_symmetry_group_IT_number 15
_symmetry_cell_setting 'monoclinic'
loop_
_space_group_symop_operation_xyz
x,y,z
-x,y,1/2-z
-x,-y,-z
x,-y,1/2+z
1/2+x,1/2+y,z
1/2-x,1/2+y,1/2-z
1/2-x,1/2-y,-z
1/2+x,1/2-y,1/2+z
loop_
_atom_site_type_symbol
_atom_site_label
_atom_site_fract_x
_atom_site_fract_y
_atom_site_fract_z
Si Si1 0.107168 0.877463 0.554335
Si Si2 0.130343 0.296635 0.683291
Si Si3 0.788506 0.553371 0.698248
Si Si4 0.000000 0.485691 0.750000
Si Si5 0.490113 0.075130 0.942135
Si Si6 0.589915 0.262268 0.375823
Si Si7 0.189879 0.596783 0.515476
O O1 0.077048 0.750786 0.584033
O O2 0.138038 0.752895 0.524226
O O3 0.211197 0.992296 0.618243
O O4 0.000000 0.000000 0.500000
O O5 0.186691 0.392508 0.754535
O O6 0.219593 0.192612 0.695473
O O7 0.073666 0.443104 0.622790
O O8 0.025836 0.187598 0.654209
O O9 0.908280 0.597659 0.733911
O O10 0.940884 0.355878 0.683992
O O11 0.500000 0.000000 0.000000
O O12 0.618608 0.077805 0.989197
O O13 0.680910 0.411385 0.410051
O O14 0.659221 0.147234 0.446922
#
# Coordination Sequence:
#
# PCOD9269597 Si02
#       7
#     8   8   8   4   8   8   8
#     4  11  20  33  59  88 112 149 198 238 295 346
#     4  10  21  36  60  82 116 153 192 237 292 349
#     4  11  21  37  59  85 115 152 193 242 289 357
#     4  10  20  34  58  86 112 154 196 242 298 344
#     4   9  18  33  54  84 111 147 187 239 281 340
#     4   9  17  33  55  82 109 151 192 227 291 356
#     4   9  17  32  55  79 113 150 186 237 286 352
#
# _framework density 19.947073
#
# number of rings (size 3 to 8) (size 9 to 14) (size 15 to 20)
#    0.000    2.154    1.538    3.692    0.000    0.000 
#    0.000    0.000   10.154    9.231    0.000    0.000 
#    0.000    0.000    0.000    0.000    0.000    0.000 
#
# Total GULP energy -144759.139225 kJ/mol
# GULP energy per Si atom -5567.659201 kJ/mol
# Density = 1.990167 g / cm^3
# Si number density = 19.947073 Si / 1000 Ang^3
#
#
#
# Elastic Constant Matrix: (Units=GPa)
#
#
# Indices 1 2 3 4 5 6 
#
# 1 123.1562 28.4521 38.0190 0.0000 32.8069 0.0000
# 2 28.4521 18.3456 8.5346 0.0000 19.1979 0.0001
# 3 38.0190 8.5346 106.3621 0.0000 11.8845 0.0001
# 4 0.0000 0.0000 0.0000 17.8712 0.0000 2.9370
# 5 32.8069 19.1979 11.8845 0.0000 45.5820 0.0000
# 6 0.0000 0.0001 0.0001 2.9370 0.0000 25.9462
#
#
#
# Elastic Compliance Matrix: (Units=1/GPa)
#
#
# Indices 1 2 3 4 5 6 
#
# 1 0.013732 -0.018457 -0.003288 0.000000 -0.001253 0.000000
# 2 -0.018457 0.123431 0.001048 0.000000 -0.038975 0.000000
# 3 -0.003288 0.001048 0.010586 0.000000 -0.000835 0.000000
# 4 0.000000 0.000000 0.000000 0.057017 0.000000 -0.006454
# 5 -0.001253 -0.038975 -0.000835 0.000000 0.039473 0.000000
# 6 0.000000 0.000000 0.000000 -0.006454 0.000000 0.039272
#
#
# Mechanical properties :
#
#
# Convention : Reuss Voigt Hill
#
# Bulk Modulus (GPa) = 9.40228 44.20834 26.80531
# Shear Modulus (GPa) = 13.87512 29.40377 21.63945
#
# Velocity S-wave (km/s) = 2.64028 3.84355 3.29727
# Velocity P-wave (km/s) = 3.74414 6.47365 5.28804
#
# Compressibility (1/GPa) = 0.10635722
#
# Stress axis : x y z
#
# Youngs Moduli (GPa) = 72.82025 8.10166 94.46218
#
# Poissons Ratio (x) = 0.14953 0.31056
# Poissons Ratio (y) = 1.34403 -0.09900
# Poissons Ratio (z) = 0.23941 -0.00849
#
# Static dielectric constant tensor:
#      x y z
#    x 1.848980 0.000000 0.063980 
#    y 0.000000 1.733860 0.000000 
#    z 0.063980 0.000000 1.719970 
# 
# From -- ./inp_files/315378.got.cif
#   From: 2010.05.17/outbox.cif.g08.bks.cpg/sg15_158_cif.got.tgz:315378.got - 2010.06.03 18:47:42.
