data_PCOD9269268
_publ_section_title
;
Structure prediction by ZEFSAII (Michael W. Deem and Ramdas Pophale) SiO2 
 PCOD9269268
Probable space group: C 2/C
;
_chemical_formula_sum "Si O2"
_cell_formula_units_Z 52
_cell_length_a 16.393782
_cell_length_b 24.371876
_cell_length_c 8.169257
_cell_angle_alpha 90.000000
_cell_angle_beta 53.079932
_cell_angle_gamma 90.000000
_cell_volume 2609.487301
_symmetry_space_group_name_H-M "C 2/C"
_symmetry_group_IT_number 15
_symmetry_cell_setting 'monoclinic'
loop_
_space_group_symop_operation_xyz
x,y,z
-x,y,1/2-z
-x,-y,-z
x,-y,1/2+z
1/2+x,1/2+y,z
1/2-x,1/2+y,1/2-z
1/2-x,1/2-y,-z
1/2+x,1/2-y,1/2+z
loop_
_atom_site_type_symbol
_atom_site_label
_atom_site_fract_x
_atom_site_fract_y
_atom_site_fract_z
Si Si1 0.922789 0.523158 0.227442
Si Si2 0.676688 0.073010 0.440411
Si Si3 0.400838 0.571276 0.070546
Si Si4 0.000000 0.982886 0.750000
Si Si5 0.869643 0.687540 0.101292
Si Si6 0.000000 0.224001 0.250000
Si Si7 0.000000 0.284361 0.750000
Si Si8 0.624836 0.692053 0.408796
O O1 0.841773 0.557533 0.227447
O O2 0.871863 0.472608 0.384383
O O3 0.000000 0.555881 0.250000
O O4 0.000000 0.500000 0.000000
O O5 0.797572 0.072635 0.302924
O O6 0.625613 0.132457 0.515075
O O7 0.481873 0.554087 0.111834
O O8 0.405633 0.631871 0.988833
O O9 0.411211 0.525337 0.916402
O O10 0.747799 0.696626 0.266768
O O11 0.932189 0.683353 0.196946
O O12 0.923082 0.737560 0.944632
O O13 0.072351 0.192718 0.291757
O O14 0.076812 0.243175 0.562533
#
# Coordination Sequence:
#
# PCOD9269268 Si02
#       8
#     8   8   8   4   8   4   4   8
#     4   9  19  33  52  73 104 142 174 216 260 329
#     4  10  20  35  52  79 108 141 183 220 277 316
#     4  10  20  34  55  78 110 140 177 227 265 334
#     4  10  20  34  54  82 108 142 182 218 280 316
#     4  10  22  35  58  81 112 144 189 237 274 337
#     4  10  21  36  58  78 112 144 187 234 284 328
#     4  10  21  38  58  80 112 146 189 236 284 328
#     4  10  20  38  56  83 109 148 185 227 288 333
#
# _framework density 19.927285999999999
#
# number of rings (size 3 to 8) (size 9 to 14) (size 15 to 20)
#    0.000    2.154    0.000    2.769    4.308    0.000 
#    0.000    0.000    0.000   18.462    0.000    0.000 
#    0.000    0.000    0.000    0.000    0.000    0.000 
#
# Total GULP energy -144736.521090 kJ/mol
# GULP energy per Si atom -5566.789273 kJ/mol
# Density = 1.988193 g / cm^3
# Si number density = 19.927286 Si / 1000 Ang^3
#
#
#
# Elastic Constant Matrix: (Units=GPa)
#
#
# Indices 1 2 3 4 5 6 
#
# 1 83.9055 13.6892 12.8374 0.0000 -15.6724 0.0000
# 2 13.6892 63.7148 8.3790 0.0000 -17.4456 0.0000
# 3 12.8374 8.3790 57.9914 0.0000 -14.5382 0.0000
# 4 0.0000 0.0000 0.0000 29.7594 0.0000 9.9858
# 5 -15.6724 -17.4456 -14.5382 0.0000 28.1284 0.0000
# 6 0.0000 0.0000 0.0000 9.9858 0.0000 30.4655
#
#
#
# Elastic Compliance Matrix: (Units=1/GPa)
#
#
# Indices 1 2 3 4 5 6 
#
# 1 0.013437 -0.001024 -0.001274 0.000000 0.006193 0.000000
# 2 -0.001024 0.018986 0.000336 0.000000 0.011379 0.000000
# 3 -0.001274 0.000336 0.019935 0.000000 0.009802 0.000000
# 4 0.000000 0.000000 0.000000 0.037755 0.000000 -0.012375
# 5 0.006193 0.011379 0.009802 0.000000 0.051125 0.000000
# 6 0.000000 0.000000 0.000000 -0.012375 0.000000 0.036880
#
#
# Mechanical properties :
#
#
# Convention : Reuss Voigt Hill
#
# Bulk Modulus (GPa) = 20.64638 30.60255 25.62447
# Shear Modulus (GPa) = 25.22870 29.05107 27.13989
#
# Velocity S-wave (km/s) = 3.56200 3.82233 3.69446
# Velocity P-wave (km/s) = 5.22499 5.90514 5.57545
#
# Compressibility (1/GPa) = 0.04843464
#
# Stress axis : x y z
#
# Youngs Moduli (GPa) = 74.42176 52.66959 50.16389
#
# Poissons Ratio (x) = 0.05391 0.06391
# Poissons Ratio (y) = 0.07618 -0.01685
# Poissons Ratio (z) = 0.09481 -0.01769
#
# Static dielectric constant tensor:
#      x y z
#    x 1.777050 0.000000 0.012130 
#    y 0.000000 1.714390 0.000000 
#    z 0.012130 0.000000 1.721510 
# 
# From -- ./inp_files/42083.got.cif
#   From: 2010.05.17/outbox.cif.g08.bks.cpg/sg15_22_cif.got.tgz:42083.got - 2010.06.03 18:47:42.
