data_PCOD9269253
_publ_section_title
;
Structure prediction by ZEFSAII (Michael W. Deem and Ramdas Pophale) SiO2 
 PCOD9269253
Probable space group: C 2/C
;
_chemical_formula_sum "Si O2"
_cell_formula_units_Z 40
_cell_length_a 11.738123
_cell_length_b 25.966168
_cell_length_c 8.871334
_cell_angle_alpha 90.000000
_cell_angle_beta 124.208092
_cell_angle_gamma 90.000000
_cell_volume 2236.153331
_symmetry_space_group_name_H-M "C 2/C"
_symmetry_group_IT_number 15
_symmetry_cell_setting 'monoclinic'
loop_
_space_group_symop_operation_xyz
x,y,z
-x,y,1/2-z
-x,-y,-z
x,-y,1/2+z
1/2+x,1/2+y,z
1/2-x,1/2+y,1/2-z
1/2-x,1/2-y,-z
1/2+x,1/2-y,1/2+z
loop_
_atom_site_type_symbol
_atom_site_label
_atom_site_fract_x
_atom_site_fract_y
_atom_site_fract_z
Si Si1 0.829889 0.454023 0.436330
Si Si2 0.663224 0.942286 0.716581
Si Si3 0.690039 0.850224 0.247831
Si Si4 0.131860 0.333706 0.552976
Si Si5 0.849810 0.238400 0.712241
O O1 0.783552 0.445395 0.573173
O O2 0.784433 0.509690 0.342506
O O3 0.790422 0.409452 0.288410
O O4 0.996815 0.450428 0.579373
O O5 0.687050 0.885125 0.674252
O O6 0.686031 0.837789 0.422399
O O7 0.535097 0.836545 0.076582
O O8 0.802262 0.814835 0.251303
O O9 0.165746 0.282945 0.673068
O O10 0.750000 0.250000 0.500000
O O11 0.000000 0.237488 0.750000
#
# Coordination Sequence:
#
# PCOD9269253 Si02
#       5
#     8   8   8   8   8
#     4   9  16  27  46  74 110 140 179 221 277 333
#     4   9  16  26  46  75 107 144 175 223 280 326
#     4  10  20  35  53  79 112 146 183 232 279 330
#     4  10  20  34  54  79 113 144 184 231 280 329
#     4  12  23  38  57  80 111 150 191 231 278 329
#
# _framework density 17.88786
#
# number of rings (size 3 to 8) (size 9 to 14) (size 15 to 20)
#    0.000    2.000    2.000    3.000    2.800    4.800 
#    0.000    0.000    0.000    0.000    0.000   12.600 
#    0.000    0.000    0.000    0.000    0.000    0.000 
#
# Total GULP energy -111475.298509 kJ/mol
# GULP energy per Si atom -5573.764925 kJ/mol
# Density = 1.784715 g / cm^3
# Si number density = 17.887860 Si / 1000 Ang^3
#
#
#
# Elastic Constant Matrix: (Units=GPa)
#
#
# Indices 1 2 3 4 5 6 
#
# 1 63.6803 37.5233 41.6719 0.0000 -13.4010 0.0000
# 2 37.5233 114.0763 38.0230 0.0000 -16.1842 0.0000
# 3 41.6719 38.0230 80.9380 0.0000 -22.7956 0.0000
# 4 0.0000 0.0000 0.0000 29.5300 0.0000 -13.5229
# 5 -13.4010 -16.1842 -22.7956 0.0000 21.3029 0.0000
# 6 0.0000 0.0000 0.0000 -13.5229 0.0000 21.1382
#
#
#
# Elastic Compliance Matrix: (Units=1/GPa)
#
#
# Indices 1 2 3 4 5 6 
#
# 1 0.025741 -0.004737 -0.010708 0.000000 0.001136 0.000000
# 2 -0.004737 0.011487 -0.001917 0.000000 0.003696 0.000000
# 3 -0.010708 -0.001917 0.023563 0.000000 0.017022 0.000000
# 4 0.000000 0.000000 0.000000 0.047895 0.000000 0.030640
# 5 0.001136 0.003696 0.017022 0.000000 0.068679 0.000000
# 6 0.000000 0.000000 0.000000 0.030640 0.000000 0.066909
#
#
# Mechanical properties :
#
#
# Convention : Reuss Voigt Hill
#
# Bulk Modulus (GPa) = 38.36063 54.79232 46.57648
# Shear Modulus (GPa) = 17.38004 23.82598 20.60301
#
# Velocity S-wave (km/s) = 3.12045 3.65357 3.39748
# Velocity P-wave (km/s) = 5.87150 6.96388 6.44089
#
# Compressibility (1/GPa) = 0.02606839
#
# Stress axis : x y z
#
# Youngs Moduli (GPa) = 38.84903 87.05183 42.44016
#
# Poissons Ratio (x) = 0.41234 0.45444
# Poissons Ratio (y) = 0.18402 0.08134
# Poissons Ratio (z) = 0.41598 0.16685
#
# Static dielectric constant tensor:
#      x y z
#    x 1.589780 0.000000 -0.015830 
#    y 0.000000 1.613390 0.000000 
#    z -0.015830 0.000000 1.605280 
# 
# From -- ./inp_files/31325.got.cif
#   From: 2010.05.17/outbox.cif.g08.bks.cpg/sg15_16_cif.got.tgz:31325.got - 2010.06.03 18:47:42.
