data_PCOD9269806
_publ_section_title
;
Structure prediction by ZEFSAII (Michael W. Deem and Ramdas Pophale) SiO2 
 PCOD9269806
Probable space group: C 2/C
;
_chemical_formula_sum "Si O2"
_cell_formula_units_Z 40
_cell_length_a 14.795038
_cell_length_b 7.333832
_cell_length_c 14.576096
_cell_angle_alpha 90.000000
_cell_angle_beta 71.290893
_cell_angle_gamma 90.000000
_cell_volume 1497.998203
_symmetry_space_group_name_H-M "C 2/C"
_symmetry_group_IT_number 15
_symmetry_cell_setting 'monoclinic'
loop_
_space_group_symop_operation_xyz
x,y,z
-x,y,1/2-z
-x,-y,-z
x,-y,1/2+z
1/2+x,1/2+y,z
1/2-x,1/2+y,1/2-z
1/2-x,1/2-y,-z
1/2+x,1/2-y,1/2+z
loop_
_atom_site_type_symbol
_atom_site_label
_atom_site_fract_x
_atom_site_fract_y
_atom_site_fract_z
Si Si1 0.821921 0.909822 0.169088
Si Si2 0.930684 0.727807 0.912159
Si Si3 0.375184 0.210300 0.716551
Si Si4 0.808766 0.423251 0.946401
Si Si5 0.521231 0.645343 0.636133
O O1 0.868328 0.076451 0.206269
O O2 0.765755 0.987562 0.100783
O O3 0.920108 0.800190 0.120767
O O4 0.734516 0.846034 0.261593
O O5 0.904209 0.683868 0.812984
O O6 0.850331 0.601680 0.986203
O O7 0.936594 0.950491 0.916345
O O8 0.040571 0.657980 0.880923
O O9 0.905216 0.312636 0.890148
O O10 0.750000 0.250000 0.000000
O O11 0.500000 0.625227 0.750000
#
# Coordination Sequence:
#
# PCOD9269806 Si02
#       5
#     8   8   8   8   8
#     4  10  20  34  61  89 119 154 210 252 322 372
#     4   9  19  38  57  84 123 142 200 262 303 357
#     4   9  17  32  55  91 111 140 195 265 306 349
#     4  11  26  40  57  88 128 172 203 243 317 390
#     4  11  21  39  65  91 119 155 209 272 314 358
#
# _framework density 26.702304000000002
#
# number of rings (size 3 to 8) (size 9 to 14) (size 15 to 20)
#    0.000    2.000    4.000    1.200    8.400    1.600 
#    0.000    4.000    0.000    0.000    0.000    0.000 
#    0.000    0.000    0.000    0.000    0.000    0.000 
#
# Total GULP energy -111370.131877 kJ/mol
# GULP energy per Si atom -5568.506594 kJ/mol
# Density = 2.664153 g / cm^3
# Si number density = 26.702304 Si / 1000 Ang^3
#
#
#
# Elastic Constant Matrix: (Units=GPa)
#
#
# Indices 1 2 3 4 5 6 
#
# 1 185.1058 75.4261 47.6156 0.0000 -40.4667 0.0000
# 2 75.4261 135.7798 35.9035 0.0000 -18.4599 0.0000
# 3 47.6156 35.9035 41.4333 0.0000 -29.7208 0.0000
# 4 0.0000 0.0000 0.0000 37.5223 0.0000 -19.2308
# 5 -40.4667 -18.4599 -29.7208 0.0000 45.2811 0.0000
# 6 0.0000 0.0000 0.0000 -19.2308 0.0000 61.7944
#
#
#
# Elastic Compliance Matrix: (Units=1/GPa)
#
#
# Indices 1 2 3 4 5 6 
#
# 1 0.008620 -0.003036 -0.004983 0.000000 0.003195 0.000000
# 2 -0.003036 0.010831 -0.008834 0.000000 -0.004097 0.000000
# 3 -0.004983 -0.008834 0.059979 0.000000 0.031313 0.000000
# 4 0.000000 0.000000 0.000000 0.031708 0.000000 0.009868
# 5 0.003195 -0.004097 0.031313 0.000000 0.043822 0.000000
# 6 0.000000 0.000000 0.000000 0.009868 0.000000 0.019254
#
#
# Mechanical properties :
#
#
# Convention : Reuss Voigt Hill
#
# Bulk Modulus (GPa) = 21.87183 75.57881 48.72532
# Shear Modulus (GPa) = 22.40533 42.47780 32.44156
#
# Velocity S-wave (km/s) = 2.89983 3.99280 3.48937
# Velocity P-wave (km/s) = 4.40690 7.04431 5.87550
#
# Compressibility (1/GPa) = 0.04572091
#
# Stress axis : x y z
#
# Youngs Moduli (GPa) = 116.01184 92.33101 16.67258
#
# Poissons Ratio (x) = 0.28034 0.08309
# Poissons Ratio (y) = 0.35224 0.14729
# Poissons Ratio (z) = 0.57813 0.81569
#
# Static dielectric constant tensor:
#      x y z
#    x 2.281320 0.000000 -0.109520 
#    y 0.000000 2.146530 0.000000 
#    z -0.109520 0.000000 2.671640 
# 
# From -- ./inp_files/202221.got.cif
#   From: 2010.05.17/outbox.cif.g08.bks.cpg/sg15_102_cif.got.tgz:202221.got - 2010.06.03 18:47:42.
