data_PCOD9269876
_publ_section_title
;
Structure prediction by ZEFSAII (Michael W. Deem and Ramdas Pophale) SiO2 
 PCOD9269876
Probable space group: C 2/C
;
_chemical_formula_sum "Si O2"
_cell_formula_units_Z 44
_cell_length_a 13.548579
_cell_length_b 15.495603
_cell_length_c 10.941420
_cell_angle_alpha 90.000000
_cell_angle_beta 97.509875
_cell_angle_gamma 90.000000
_cell_volume 2277.375393
_symmetry_space_group_name_H-M "C 2/C"
_symmetry_group_IT_number 15
_symmetry_cell_setting 'monoclinic'
loop_
_space_group_symop_operation_xyz
x,y,z
-x,y,1/2-z
-x,-y,-z
x,-y,1/2+z
1/2+x,1/2+y,z
1/2-x,1/2+y,1/2-z
1/2-x,1/2-y,-z
1/2+x,1/2-y,1/2+z
loop_
_atom_site_type_symbol
_atom_site_label
_atom_site_fract_x
_atom_site_fract_y
_atom_site_fract_z
Si Si1 0.259687 0.890273 0.584077
Si Si2 0.735264 0.157211 0.935865
Si Si3 0.000000 0.151802 0.750000
Si Si4 0.562228 0.022821 0.887271
Si Si5 0.791674 0.199336 0.668886
Si Si6 0.602422 0.468442 0.072165
O O1 0.245765 0.868706 0.437944
O O2 0.254884 0.796196 0.641854
O O3 0.360108 0.944033 0.621819
O O4 0.170008 0.950092 0.615734
O O5 0.630538 0.107063 0.929539
O O6 0.754100 0.170663 0.794852
O O7 0.823148 0.092182 0.994282
O O8 0.750000 0.250000 0.000000
O O9 0.912129 0.205344 0.673400
O O10 0.936014 0.090220 0.824840
O O11 0.500000 0.034801 0.750000
O O12 0.500000 0.000000 0.000000
O O13 0.500000 0.500000 0.000000
#
# Coordination Sequence:
#
# PCOD9269876 Si02
#       6
#     8   8   4   8   8   8
#     4  10  22  39  66  90 129 166 210 261 318 380
#     4  10  24  42  62  91 130 163 208 267 312 374
#     4  10  20  34  64  86 128 156 206 252 306 376
#     4  11  25  43  68  96 132 174 222 263 326 393
#     4  10  21  39  60  95 127 163 212 261 314 379
#     4  10  20  39  60  91 116 160 204 249 310 371
#
# _framework density 19.320485999999999
#
# number of rings (size 3 to 8) (size 9 to 14) (size 15 to 20)
#    0.000    1.818    1.818    1.091    3.818    2.909 
#    3.273    0.000    0.000    0.000    0.000    0.000 
#    0.000    0.000    0.000    0.000    0.000    0.000 
#
# Total GULP energy -122570.944835 kJ/mol
# GULP energy per Si atom -5571.406583 kJ/mol
# Density = 1.927651 g / cm^3
# Si number density = 19.320486 Si / 1000 Ang^3
#
#
#
# Elastic Constant Matrix: (Units=GPa)
#
#
# Indices 1 2 3 4 5 6 
#
# 1 138.6257 46.6130 41.8107 0.0000 10.3419 0.0000
# 2 46.6130 75.5270 10.0141 0.0000 12.8695 0.0000
# 3 41.8107 10.0141 55.5445 0.0000 7.1421 0.0000
# 4 0.0000 0.0000 0.0000 8.7760 0.0000 4.8666
# 5 10.3419 12.8695 7.1421 0.0000 29.9913 0.0000
# 6 0.0000 0.0000 0.0000 4.8666 0.0000 22.6708
#
#
#
# Elastic Compliance Matrix: (Units=1/GPa)
#
#
# Indices 1 2 3 4 5 6 
#
# 1 0.011575 -0.006214 -0.007657 0.000000 0.000498 0.000000
# 2 -0.006214 0.017806 0.002243 0.000000 -0.006032 0.000000
# 3 -0.007657 0.002243 0.023878 0.000000 -0.004008 0.000000
# 4 0.000000 0.000000 0.000000 0.129344 0.000000 -0.027766
# 5 0.000498 -0.006032 -0.004008 0.000000 0.036714 0.000000
# 6 0.000000 0.000000 0.000000 -0.027766 0.000000 0.050070
#
#
# Mechanical properties :
#
#
# Convention : Reuss Voigt Hill
#
# Bulk Modulus (GPa) = 33.32952 51.84143 42.58548
# Shear Modulus (GPa) = 16.52105 23.70489 20.11297
#
# Velocity S-wave (km/s) = 2.92739 3.50656 3.22998
# Velocity P-wave (km/s) = 5.35859 6.57915 5.99999
#
# Compressibility (1/GPa) = 0.03000343
#
# Stress axis : x y z
#
# Youngs Moduli (GPa) = 86.39145 56.16217 41.87880
#
# Poissons Ratio (x) = 0.34897 0.32067
# Poissons Ratio (y) = 0.53680 -0.09392
# Poissons Ratio (z) = 0.66150 -0.12595
#
# Static dielectric constant tensor:
#      x y z
#    x 1.729640 0.000000 0.063510 
#    y 0.000000 1.717450 0.000000 
#    z 0.063510 0.000000 1.724730 
# 
# From -- ./inp_files/86203.got.cif
#   From: 2010.05.17/outbox.cif.g08.bks.cpg/sg15_44_cif.got.tgz:86203.got - 2010.06.03 18:47:42.
