data_PCOD9269957
_publ_section_title
;
Structure prediction by ZEFSAII (Michael W. Deem and Ramdas Pophale) SiO2 
 PCOD9269957
Probable space group: C 2/C
;
_chemical_formula_sum "Si O2"
_cell_formula_units_Z 60
_cell_length_a 20.479097
_cell_length_b 27.640219
_cell_length_c 11.323508
_cell_angle_alpha 90.000000
_cell_angle_beta 151.790479
_cell_angle_gamma 90.000000
_cell_volume 3029.816388
_symmetry_space_group_name_H-M "C 2/C"
_symmetry_group_IT_number 15
_symmetry_cell_setting 'monoclinic'
loop_
_space_group_symop_operation_xyz
x,y,z
-x,y,1/2-z
-x,-y,-z
x,-y,1/2+z
1/2+x,1/2+y,z
1/2-x,1/2+y,1/2-z
1/2-x,1/2-y,-z
1/2+x,1/2-y,1/2+z
loop_
_atom_site_type_symbol
_atom_site_label
_atom_site_fract_x
_atom_site_fract_y
_atom_site_fract_z
Si Si1 0.286801 0.088922 0.640548
Si Si2 0.980536 0.343770 0.073639
Si Si3 0.579566 0.261232 0.748268
Si Si4 0.141581 0.943989 0.144192
Si Si5 0.271799 0.409027 0.825082
Si Si6 0.500000 0.517943 0.750000
Si Si7 0.645008 0.984746 0.435333
Si Si8 0.058648 0.865340 0.605709
O O1 0.396238 0.131020 0.799766
O O2 0.232649 0.074885 0.680737
O O3 0.356726 0.042446 0.691267
O O4 0.157414 0.108077 0.358598
O O5 0.000000 0.350010 0.250000
O O6 0.998875 0.287029 0.080079
O O7 0.843945 0.372029 0.814191
O O8 0.500000 0.270360 0.750000
O O9 0.551493 0.309648 0.629498
O O10 0.750000 0.250000 0.000000
O O11 0.240651 0.974673 0.383746
O O12 0.077136 0.897576 0.102443
O O13 0.032087 0.982113 0.911123
O O14 0.191831 0.444063 0.604938
O O15 0.373434 0.374941 0.911774
O O16 0.368348 0.446437 0.049651
O O17 0.500000 0.003834 0.250000
#
# Coordination Sequence:
#
# PCOD9269957 Si02
#       8
#     8   8   8   8   8   4   8   8
#     4  11  18  33  54  73 117 140 175 222 272 319
#     4  11  18  35  54  82 109 139 176 224 279 328
#     4  11  21  32  57  88 114 144 178 226 288 342
#     4  11  23  33  50  84 109 146 181 221 268 325
#     4  10  20  37  55  77 107 145 182 226 263 325
#     4  10  22  34  54  80 104 144 196 212 264 326
#     4  10  20  35  52  76 107 148 181 216 273 318
#     4  11  20  35  53  79 115 139 172 229 274 323
#
# _framework density 19.803180999999999
#
# number of rings (size 3 to 8) (size 9 to 14) (size 15 to 20)
#    0.000    1.333    6.667    1.600    1.867    2.133 
#    0.000    0.000    0.000    0.800    1.733    0.000 
#    0.000    0.000    0.000    0.000    0.000    0.000 
#
# Total GULP energy -167284.038075 kJ/mol
# GULP energy per Si atom -5576.134603 kJ/mol
# Density = 1.975811 g / cm^3
# Si number density = 19.803181 Si / 1000 Ang^3
#
#
#
# Elastic Constant Matrix: (Units=GPa)
#
#
# Indices 1 2 3 4 5 6 
#
# 1 46.0038 17.5881 11.0251 0.0000 19.4477 0.0000
# 2 17.5881 152.0355 47.4141 0.0000 15.9071 0.0000
# 3 11.0251 47.4141 59.3470 0.0000 21.9963 0.0000
# 4 0.0000 0.0000 0.0000 47.2420 0.0000 -18.1638
# 5 19.4477 15.9071 21.9963 0.0000 21.1670 0.0000
# 6 0.0000 0.0000 0.0000 -18.1638 0.0000 64.8902
#
#
#
# Elastic Compliance Matrix: (Units=1/GPa)
#
#
# Indices 1 2 3 4 5 6 
#
# 1 0.040306 -0.003802 0.013363 0.000000 -0.048061 0.000000
# 2 -0.003802 0.009135 -0.008689 0.000000 0.005657 0.000000
# 3 0.013363 -0.008689 0.038123 0.000000 -0.045365 0.000000
# 4 0.000000 0.000000 0.000000 0.023720 0.000000 0.006640
# 5 -0.048061 0.005657 -0.045365 0.000000 0.134291 0.000000
# 6 0.000000 0.000000 0.000000 0.006640 0.000000 0.017269
#
#
# Mechanical properties :
#
#
# Convention : Reuss Voigt Hill
#
# Bulk Modulus (GPa) = 11.19709 45.49344 28.34526
# Shear Modulus (GPa) = 17.18985 38.75043 27.97014
#
# Velocity S-wave (km/s) = 2.94944 4.42835 3.76228
# Velocity P-wave (km/s) = 4.15516 7.01211 5.76347
#
# Compressibility (1/GPa) = 0.08930894
#
# Stress axis : x y z
#
# Youngs Moduli (GPa) = 24.81041 109.46925 26.23083
#
# Poissons Ratio (x) = 0.41615 -0.35052
# Poissons Ratio (y) = 0.09432 0.22791
# Poissons Ratio (z) = -0.33154 0.95114
#
# Static dielectric constant tensor:
#      x y z
#    x 1.688100 0.000000 -0.039330 
#    y 0.000000 1.676760 0.000000 
#    z -0.039330 0.000000 1.737560 
# 
# From -- ./inp_files/174940.got.cif
#   From: 2010.05.17/outbox.cif.g08.bks.cpg/sg15_88_cif.got.tgz:174940.got - 2010.06.03 18:47:42.
