data_PCOD9269923
_publ_section_title
;
Structure prediction by ZEFSAII (Michael W. Deem and Ramdas Pophale) SiO2 
 PCOD9269923
Probable space group: C 2/C
;
_chemical_formula_sum "Si O2"
_cell_formula_units_Z 56
_cell_length_a 20.788645
_cell_length_b 7.895107
_cell_length_c 13.605223
_cell_angle_alpha 90.000000
_cell_angle_beta 94.947876
_cell_angle_gamma 90.000000
_cell_volume 2224.684756
_symmetry_space_group_name_H-M "C 2/C"
_symmetry_group_IT_number 15
_symmetry_cell_setting 'monoclinic'
loop_
_space_group_symop_operation_xyz
x,y,z
-x,y,1/2-z
-x,-y,-z
x,-y,1/2+z
1/2+x,1/2+y,z
1/2-x,1/2+y,1/2-z
1/2-x,1/2-y,-z
1/2+x,1/2-y,1/2+z
loop_
_atom_site_type_symbol
_atom_site_label
_atom_site_fract_x
_atom_site_fract_y
_atom_site_fract_z
Si Si1 0.224382 0.653126 0.673025
Si Si2 0.909213 0.402166 0.415710
Si Si3 0.139196 0.167640 0.769403
Si Si4 0.301971 0.660802 0.143929
Si Si5 0.000000 0.125677 0.750000
Si Si6 0.872047 0.228545 0.960601
Si Si7 0.500000 0.104024 0.750000
Si Si8 0.487792 0.647861 0.087914
O O1 0.159051 0.693369 0.607486
O O2 0.295303 0.740747 0.670695
O O3 0.239538 0.460194 0.646426
O O4 0.206612 0.682856 0.784297
O O5 0.897616 0.577695 0.468901
O O6 0.944428 0.460517 0.317536
O O7 0.958940 0.262016 0.460351
O O8 0.145417 0.970340 0.802457
O O9 0.066234 0.222934 0.783972
O O10 0.145827 0.183860 0.652994
O O11 0.182150 0.797824 0.964931
O O12 0.012392 0.004511 0.658544
O O13 0.930127 0.110175 0.007656
O O14 0.538604 0.221229 0.832436
#
# Coordination Sequence:
#
# PCOD9269923 Si02
#       8
#     8   8   8   8   4   8   4   8
#     4  10  21  43  66  95 135 180 221 268 351 402
#     4  10  20  34  68  99 132 175 221 280 332 404
#     4  10  25  38  69  95 130 186 222 274 341 399
#     4  10  23  45  69  92 141 178 222 283 343 406
#     4  11  18  45  64  86 141 190 209 274 356 399
#     4  12  22  41  68 103 130 174 240 275 332 408
#     4   7  18  33  58  92 129 176 205 264 350 373
#     4   9  18  37  65  92 131 171 217 274 334 387
#
# _framework density 25.172107
#
# number of rings (size 3 to 8) (size 9 to 14) (size 15 to 20)
#    1.714    0.286    1.429    3.000    0.000    3.429 
#    0.000    0.714    3.143    0.000    0.000    0.000 
#    0.000    0.000    0.000    0.000    0.000    0.000 
#
# Total GULP energy -155959.964872 kJ/mol
# GULP energy per Si atom -5569.998745 kJ/mol
# Density = 2.511481 g / cm^3
# Si number density = 25.172107 Si / 1000 Ang^3
#
#
#
# Elastic Constant Matrix: (Units=GPa)
#
#
# Indices 1 2 3 4 5 6 
#
# 1 139.0012 14.3140 29.5446 0.0000 18.3398 0.0000
# 2 14.3140 54.1353 3.6388 0.0000 -15.4163 0.0000
# 3 29.5446 3.6388 63.3355 0.0000 -0.2257 0.0000
# 4 0.0000 0.0000 0.0000 32.2041 0.0000 -9.4072
# 5 18.3398 -15.4163 -0.2257 0.0000 61.3455 0.0000
# 6 0.0000 0.0000 0.0000 -9.4072 0.0000 12.6584
#
#
#
# Elastic Compliance Matrix: (Units=1/GPa)
#
#
# Indices 1 2 3 4 5 6 
#
# 1 0.008793 -0.003030 -0.003940 0.000000 -0.003405 0.000000
# 2 -0.003030 0.021020 0.000228 0.000000 0.006189 0.000000
# 3 -0.003940 0.000228 0.017618 0.000000 0.001300 0.000000
# 4 0.000000 0.000000 0.000000 0.039662 0.000000 0.029475
# 5 -0.003405 0.006189 0.001300 0.000000 0.018879 0.000000
# 6 0.000000 0.000000 0.000000 0.029475 0.000000 0.100903
#
#
# Mechanical properties :
#
#
# Convention : Reuss Voigt Hill
#
# Bulk Modulus (GPa) = 29.45669 39.05184 34.25427
# Shear Modulus (GPa) = 21.58195 35.17324 28.37760
#
# Velocity S-wave (km/s) = 2.93127 3.74212 3.36124
# Velocity P-wave (km/s) = 4.81498 5.84969 5.35737
#
# Compressibility (1/GPa) = 0.03394815
#
# Stress axis : x y z
#
# Youngs Moduli (GPa) = 113.73035 47.57265 56.75930
#
# Poissons Ratio (x) = 0.14413 0.22361
# Poissons Ratio (y) = 0.34456 -0.01292
# Poissons Ratio (z) = 0.44806 -0.01083
#
# Static dielectric constant tensor:
#      x y z
#    x 2.103540 0.000000 0.063180 
#    y 0.000000 2.039140 0.000000 
#    z 0.063180 0.000000 1.940100 
# 
# From -- ./inp_files/214636.got.cif
#   From: 2010.05.17/outbox.cif.g08.bks.cpg/sg15_108_cif.got.tgz:214636.got - 2010.06.03 18:47:42.
