data_PCOD9269520
_publ_section_title
;
Structure prediction by ZEFSAII (Michael W. Deem and Ramdas Pophale) SiO2 
 PCOD9269520
Probable space group: C 2/C
;
_chemical_formula_sum "Si O2"
_cell_formula_units_Z 56
_cell_length_a 17.571643
_cell_length_b 26.447695
_cell_length_c 5.569631
_cell_angle_alpha 90.000000
_cell_angle_beta 58.817453
_cell_angle_gamma 90.000000
_cell_volume 2214.408875
_symmetry_space_group_name_H-M "C 2/C"
_symmetry_group_IT_number 15
_symmetry_cell_setting 'monoclinic'
loop_
_space_group_symop_operation_xyz
x,y,z
-x,y,1/2-z
-x,-y,-z
x,-y,1/2+z
1/2+x,1/2+y,z
1/2-x,1/2+y,1/2-z
1/2-x,1/2-y,-z
1/2+x,1/2-y,1/2+z
loop_
_atom_site_type_symbol
_atom_site_label
_atom_site_fract_x
_atom_site_fract_y
_atom_site_fract_z
Si Si1 0.611986 0.022811 0.453205
Si Si2 0.269574 0.451034 0.234411
Si Si3 0.839511 0.624064 0.269616
Si Si4 0.053448 0.219982 0.411445
Si Si5 0.193399 0.859526 0.622283
Si Si6 0.196568 0.712795 0.906759
Si Si7 0.034637 0.057189 0.940288
O O1 0.604279 0.083612 0.473606
O O2 0.578560 0.000694 0.758549
O O3 0.716204 0.002518 0.273340
O O4 0.195449 0.414274 0.469606
O O5 0.359048 0.449659 0.241799
O O6 0.302850 0.418465 0.952161
O O7 0.757488 0.643626 0.245358
O O8 0.871499 0.675415 0.339128
O O9 0.098847 0.165009 0.323719
O O10 0.138126 0.257048 0.309501
O O11 0.000000 0.229287 0.250000
O O12 0.000000 0.223575 0.750000
O O13 0.235426 0.824759 0.340823
O O14 0.250000 0.750000 0.000000
O O15 0.000000 0.080897 0.750000
O O16 0.000000 0.079428 0.250000
O O17 0.000000 0.000000 0.000000
#
# Coordination Sequence:
#
# PCOD9269520 Si02
#       7
#     8   8   8   8   8   8   8
#     4  10  20  34  57  85 124 161 207 273 333 353
#     4  10  23  38  56  83 126 166 219 282 316 371
#     4  10  22  36  66  90 120 171 230 278 321 394
#     4  12  28  46  69 101 139 175 222 293 357 409
#     4  11  23  43  68  96 127 182 230 275 333 415
#     4  11  23  45  72  97 130 177 232 285 353 416
#     4  10  24  35  50  71 104 168 225 253 315 375
#
# _framework density 25.288914999999999
#
# number of rings (size 3 to 8) (size 9 to 14) (size 15 to 20)
#    0.000    1.429    2.857    1.286   14.000    0.571 
#    0.000    0.000    0.000    0.000    0.000    0.000 
#    0.000   30.857    0.000    0.000    0.000    0.000 
#
# Total GULP energy -156400.044563 kJ/mol
# GULP energy per Si atom -5585.715877 kJ/mol
# Density = 2.523136 g / cm^3
# Si number density = 25.288915 Si / 1000 Ang^3
#
#
#
# Elastic Constant Matrix: (Units=GPa)
#
#
# Indices 1 2 3 4 5 6 
#
# 1 107.4669 34.8511 51.3703 0.0000 28.3949 0.0000
# 2 34.8511 149.7844 34.2822 0.0000 13.5920 0.0000
# 3 51.3703 34.2822 128.2635 0.0000 16.8806 0.0000
# 4 0.0000 0.0000 0.0000 23.9142 0.0000 28.1719
# 5 28.3949 13.5920 16.8806 0.0000 51.2906 0.0000
# 6 0.0000 0.0000 0.0000 28.1719 0.0000 23.5266
#
#
#
# Elastic Compliance Matrix: (Units=1/GPa)
#
#
# Indices 1 2 3 4 5 6 
#
# 1 0.013290 -0.001637 -0.004154 0.000000 -0.005556 0.000000
# 2 -0.001637 0.007399 -0.001237 0.000000 -0.000647 0.000000
# 3 -0.004154 -0.001237 0.009872 0.000000 -0.000622 0.000000
# 4 0.000000 0.000000 0.000000 -0.101831 0.000000 0.121938
# 5 -0.005556 -0.000647 -0.000622 0.000000 0.022949 0.000000
# 6 0.000000 0.000000 0.000000 0.121938 0.000000 -0.103509
#
#
# Mechanical properties :
#
#
# Convention : Reuss Voigt Hill
#
# Bulk Modulus (GPa) = 60.58473 69.61355 65.09914
# Shear Modulus (GPa) = -37.80065 37.41371 -0.19347
#
# Velocity S-wave (km/s) = -3.87040 3.85054 -0.27689
# Velocity P-wave (km/s) = 2.00892 6.88156 5.06910
#
# Compressibility (1/GPa) = 0.01650581
#
# Stress axis : x y z
#
# Youngs Moduli (GPa) = 75.24562 135.15340 101.29209
#
# Poissons Ratio (x) = 0.22129 0.42074
# Poissons Ratio (y) = 0.12320 0.12526
# Poissons Ratio (z) = 0.31255 0.16714
#
# Static dielectric constant tensor:
#      x y z
#    x 2.055250 0.000000 0.009810 
#    y 0.000000 1.980750 0.000000 
#    z 0.009810 0.000000 2.141870 
# 
# From -- ./inp_files/11493.got.cif
#   From: 2010.05.17/outbox.cif.g08.bks.cpg/sg15_6_cif.got.tgz:11493.got - 2010.06.03 18:47:42.
