data_PCOD9269193
_publ_section_title
;
Structure prediction by ZEFSAII (Michael W. Deem and Ramdas Pophale) SiO2 
 PCOD9269193
Probable space group: C 2/C
;
_chemical_formula_sum "Si O2"
_cell_formula_units_Z 56
_cell_length_a 17.172127
_cell_length_b 24.951191
_cell_length_c 9.135092
_cell_angle_alpha 90.000000
_cell_angle_beta 127.652386
_cell_angle_gamma 90.000000
_cell_volume 3098.890250
_symmetry_space_group_name_H-M "C 2/C"
_symmetry_group_IT_number 15
_symmetry_cell_setting 'monoclinic'
loop_
_space_group_symop_operation_xyz
x,y,z
-x,y,1/2-z
-x,-y,-z
x,-y,1/2+z
1/2+x,1/2+y,z
1/2-x,1/2+y,1/2-z
1/2-x,1/2-y,-z
1/2+x,1/2-y,1/2+z
loop_
_atom_site_type_symbol
_atom_site_label
_atom_site_fract_x
_atom_site_fract_y
_atom_site_fract_z
Si Si1 0.904880 0.669236 0.730207
Si Si2 0.308023 0.238791 0.371055
Si Si3 0.613809 0.669804 0.180558
Si Si4 0.625102 0.547095 0.714480
Si Si5 0.991403 0.262208 0.913346
Si Si6 0.387821 0.557744 0.469283
Si Si7 0.800698 0.138377 0.921846
O O1 0.865354 0.718827 0.583540
O O2 0.810658 0.630756 0.643084
O O3 0.000000 0.647881 0.750000
O O4 0.942807 0.693432 0.927299
O O5 0.206382 0.208076 0.257330
O O6 0.379560 0.223490 0.322421
O O7 0.293462 0.302052 0.347367
O O8 0.628036 0.617956 0.098443
O O9 0.623222 0.646923 0.356188
O O10 0.520638 0.705724 0.026165
O O11 0.506337 0.551022 0.591586
O O12 0.652659 0.489432 0.679789
O O13 0.664402 0.593587 0.651842
O O14 0.654834 0.551167 0.917397
O O15 0.000000 0.257949 0.750000
#
# Coordination Sequence:
#
# PCOD9269193 Si02
#       7
#     8   8   8   8   8   8   8
#     4   9  18  36  52  75 110 144 183 219 265 327
#     4  10  20  34  53  77 107 148 185 216 269 329
#     4  11  21  35  53  78 112 144 184 225 264 324
#     4  10  22  37  57  78 108 144 182 224 266 327
#     4  11  22  31  48  76 112 148 176 224 269 313
#     4  10  22  38  52  80 110 143 181 221 273 315
#     4  11  19  35  57  80 103 148 186 222 269 319
#
# _framework density 18.070985
#
# number of rings (size 3 to 8) (size 9 to 14) (size 15 to 20)
#    0.000    1.714    2.857    2.571    4.000    4.571 
#    0.000    0.000    0.000    0.000    0.000   17.000 
#    0.000    0.000    0.000    0.000    0.000    0.000 
#
# Total GULP energy -156115.660324 kJ/mol
# GULP energy per Si atom -5575.559297 kJ/mol
# Density = 1.802985 g / cm^3
# Si number density = 18.070985 Si / 1000 Ang^3
#
#
#
# Elastic Constant Matrix: (Units=GPa)
#
#
# Indices 1 2 3 4 5 6 
#
# 1 102.8161 16.5891 26.5064 0.0000 -11.3953 0.0000
# 2 16.5891 43.6212 9.6738 0.0000 -16.4520 0.0000
# 3 26.5064 9.6738 44.0725 0.0000 -18.7872 0.0000
# 4 0.0000 0.0000 0.0000 18.8871 0.0000 -5.7235
# 5 -11.3953 -16.4520 -18.7872 0.0000 30.9332 0.0000
# 6 0.0000 0.0000 0.0000 -5.7235 0.0000 20.7946
#
#
#
# Elastic Compliance Matrix: (Units=1/GPa)
#
#
# Indices 1 2 3 4 5 6 
#
# 1 0.011965 -0.003678 -0.007210 0.000000 -0.001928 0.000000
# 2 -0.003678 0.029810 0.002496 0.000000 0.016016 0.000000
# 3 -0.007210 0.002496 0.034964 0.000000 0.019907 0.000000
# 4 0.000000 0.000000 0.000000 0.057764 0.000000 0.015899
# 5 -0.001928 0.016016 0.019907 0.000000 0.052226 0.000000
# 6 0.000000 0.000000 0.000000 0.015899 0.000000 0.052465
#
#
# Mechanical properties :
#
#
# Convention : Reuss Voigt Hill
#
# Bulk Modulus (GPa) = 16.67931 32.89426 24.78678
# Shear Modulus (GPa) = 18.11825 23.30569 20.71197
#
# Velocity S-wave (km/s) = 3.16985 3.59510 3.38915
# Velocity P-wave (km/s) = 4.75890 5.95612 5.39085
#
# Compressibility (1/GPa) = 0.05995453
#
# Stress axis : x y z
#
# Youngs Moduli (GPa) = 83.57868 33.54535 28.60055
#
# Poissons Ratio (x) = 0.12339 0.20622
# Poissons Ratio (y) = 0.30742 -0.07139
# Poissons Ratio (z) = 0.60263 -0.08373
#
# Static dielectric constant tensor:
#      x y z
#    x 1.658480 0.000000 0.007020 
#    y 0.000000 1.597230 0.000000 
#    z 0.007020 0.000000 1.674380 
# 
# From -- ./inp_files/50108.got.cif
#   From: 2010.05.17/outbox.cif.g08.bks.cpg/sg15_26_cif.got.tgz:50108.got - 2010.06.03 18:47:42.
