data_PCOD9269155
_publ_section_title
;
Structure prediction by ZEFSAII (Michael W. Deem and Ramdas Pophale) SiO2 
 PCOD9269155
Probable space group: C 2/C
;
_chemical_formula_sum "Si O2"
_cell_formula_units_Z 60
_cell_length_a 7.640749
_cell_length_b 19.083447
_cell_length_c 22.651863
_cell_angle_alpha 90.000000
_cell_angle_beta 112.937231
_cell_angle_gamma 90.000000
_cell_volume 3041.756290
_symmetry_space_group_name_H-M "C 2/C"
_symmetry_group_IT_number 15
_symmetry_cell_setting 'monoclinic'
loop_
_space_group_symop_operation_xyz
x,y,z
-x,y,1/2-z
-x,-y,-z
x,-y,1/2+z
1/2+x,1/2+y,z
1/2-x,1/2+y,1/2-z
1/2-x,1/2-y,-z
1/2+x,1/2-y,1/2+z
loop_
_atom_site_type_symbol
_atom_site_label
_atom_site_fract_x
_atom_site_fract_y
_atom_site_fract_z
Si Si1 0.698823 0.037026 0.958420
Si Si2 0.191537 0.828707 0.979793
Si Si3 0.408463 0.306561 0.038381
Si Si4 0.677857 0.542730 0.204403
Si Si5 0.500000 0.669024 0.250000
Si Si6 0.525435 0.050418 0.158674
Si Si7 0.058713 0.956535 0.416030
Si Si8 0.185132 0.306363 0.630209
O O1 0.871791 0.039177 0.933846
O O2 0.529012 0.997305 0.904183
O O3 0.663189 0.116996 0.971638
O O4 0.781314 0.000299 0.027915
O O5 0.203142 0.836497 0.911859
O O6 0.250000 0.750000 0.000000
O O7 0.992008 0.836989 0.987297
O O8 0.372400 0.375593 0.073023
O O9 0.563137 0.259037 0.092453
O O10 0.250000 0.250000 0.000000
O O11 0.585109 0.615788 0.212468
O O12 0.841825 0.553343 0.177110
O O13 0.519435 0.491268 0.154889
O O14 0.797895 0.521641 0.279083
O O15 0.663704 0.714186 0.300637
O O16 0.569063 0.128540 0.141627
#
# Coordination Sequence:
#
# PCOD9269155 Si02
#       8
#     8   8   8   8   4   8   8   8
#     4   9  16  29  51  77 100 131 172 210 257 315
#     4   9  19  34  50  75 109 136 166 215 270 318
#     4  10  20  35  54  76 105 140 181 226 270 318
#     4   9  18  34  53  75 105 135 172 222 269 319
#     4  10  20  34  54  76 102 138 174 216 264 322
#     4   9  18  32  53  80 103 134 179 218 261 324
#     4   9  17  30  51  75 101 135 172 215 266 312
#     4  10  20  34  52  78 107 138 174 215 270 323
#
# _framework density 19.725446000000002
#
# number of rings (size 3 to 8) (size 9 to 14) (size 15 to 20)
#    0.000    2.667    0.000    1.600    0.000    3.733 
#    0.000   10.667    0.000    3.200    0.000    0.000 
#    0.000    0.000    0.000    0.000    0.000    0.000 
#
# Total GULP energy -167138.960811 kJ/mol
# GULP energy per Si atom -5571.298694 kJ/mol
# Density = 1.968055 g / cm^3
# Si number density = 19.725446 Si / 1000 Ang^3
#
#
#
# Elastic Constant Matrix: (Units=GPa)
#
#
# Indices 1 2 3 4 5 6 
#
# 1 40.1094 18.1126 39.1507 0.0000 4.6965 0.0000
# 2 18.1126 91.1737 56.1587 0.0000 16.4213 0.0000
# 3 39.1507 56.1587 112.1253 0.0000 24.2768 0.0000
# 4 0.0000 0.0000 0.0000 31.7804 0.0000 7.9676
# 5 4.6965 16.4213 24.2768 0.0000 34.2747 0.0000
# 6 0.0000 0.0000 0.0000 7.9676 0.0000 17.6405
#
#
#
# Elastic Compliance Matrix: (Units=1/GPa)
#
#
# Indices 1 2 3 4 5 6 
#
# 1 0.038561 0.000581 -0.014825 0.000000 0.004938 0.000000
# 2 0.000581 0.016029 -0.007738 0.000000 -0.002279 0.000000
# 3 -0.014825 -0.007738 0.019758 0.000000 -0.008256 0.000000
# 4 0.000000 0.000000 0.000000 0.035484 0.000000 -0.016027
# 5 0.004938 -0.002279 -0.008256 0.000000 0.035439 0.000000
# 6 0.000000 0.000000 0.000000 -0.016027 0.000000 0.063926
#
#
# Mechanical properties :
#
#
# Convention : Reuss Voigt Hill
#
# Bulk Modulus (GPa) = 32.90992 52.25028 42.58010
# Shear Modulus (GPa) = 18.99051 25.40489 22.19770
#
# Velocity S-wave (km/s) = 3.10617 3.59266 3.35824
# Velocity P-wave (km/s) = 5.43918 6.61482 6.05560
#
# Compressibility (1/GPa) = 0.03038597
#
# Stress axis : x y z
#
# Youngs Moduli (GPa) = 25.93261 62.38616 50.61215
#
# Poissons Ratio (x) = -0.03627 0.75031
# Poissons Ratio (y) = -0.01508 0.39164
# Poissons Ratio (z) = 0.38445 0.48274
#
# Static dielectric constant tensor:
#      x y z
#    x 1.765460 0.000000 -0.013980 
#    y 0.000000 1.681070 0.000000 
#    z -0.013980 0.000000 1.722160 
# 
# From -- ./inp_files/233560.got.cif
#   From: 2010.05.17/outbox.cif.g08.bks.cpg/sg15_117_cif.got.tgz:233560.got - 2010.06.03 18:47:42.
