data_PCOD9269135
_publ_section_title
;
Structure prediction by ZEFSAII (Michael W. Deem and Ramdas Pophale) SiO2 
 PCOD9269135
Probable space group: C 2/C
;
_chemical_formula_sum "Si O2"
_cell_formula_units_Z 64
_cell_length_a 23.234769
_cell_length_b 26.812650
_cell_length_c 5.686921
_cell_angle_alpha 90.000000
_cell_angle_beta 104.729940
_cell_angle_gamma 90.000000
_cell_volume 3426.434250
_symmetry_space_group_name_H-M "C 2/C"
_symmetry_group_IT_number 15
_symmetry_cell_setting 'monoclinic'
loop_
_space_group_symop_operation_xyz
x,y,z
-x,y,1/2-z
-x,-y,-z
x,-y,1/2+z
1/2+x,1/2+y,z
1/2-x,1/2+y,1/2-z
1/2-x,1/2-y,-z
1/2+x,1/2-y,1/2+z
loop_
_atom_site_type_symbol
_atom_site_label
_atom_site_fract_x
_atom_site_fract_y
_atom_site_fract_z
Si Si1 0.563129 0.789527 0.259054
Si Si2 0.555118 0.884700 0.962192
Si Si3 0.859132 0.659616 0.277494
Si Si4 0.319438 0.230867 0.852566
Si Si5 0.723897 0.659036 0.190414
Si Si6 0.080791 0.478327 0.234087
Si Si7 0.777108 0.476803 0.154884
Si Si8 0.266171 0.635196 0.814585
O O1 0.500000 0.764208 0.250000
O O2 0.590381 0.825584 0.487287
O O3 0.622140 0.759790 0.245722
O O4 0.547059 0.828112 0.035168
O O5 0.500000 0.900976 0.750000
O O6 0.614243 0.882625 0.864372
O O7 0.564907 0.920588 0.189483
O O8 0.793604 0.643443 0.288027
O O9 0.845798 0.710868 0.123902
O O10 0.282417 0.281106 0.827283
O O11 0.279742 0.183025 0.732668
O O12 0.695653 0.642081 0.407542
O O13 0.704537 0.639159 0.914434
O O14 0.059882 0.497640 0.464729
O O15 0.151995 0.483919 0.295200
O O16 0.755097 0.506061 0.369550
O O17 0.763702 0.418774 0.192461
#
# Coordination Sequence:
#
# PCOD9269135 Si02
#       8
#     8   8   8   8   8   8   8   8
#     4  11  21  34  53  72  96 135 174 208 254 309
#     4  11  23  36  50  69  93 127 174 228 270 317
#     4  10  20  34  52  70  98 128 167 213 261 305
#     4  10  22  34  52  80 106 132 170 225 260 313
#     4  11  22  34  56  82 106 132 170 221 269 312
#     4  10  23  36  51  70  90 122 166 222 282 326
#     4  10  20  35  51  72 101 133 175 219 263 320
#     4  11  20  34  53  79 103 137 173 217 270 311
#
# _framework density 18.678308999999999
#
# number of rings (size 3 to 8) (size 9 to 14) (size 15 to 20)
#    0.000    1.500    2.500    4.875    3.500    1.500 
#    0.000    0.000    0.000    0.000    0.000    0.000 
#    0.000    0.000    0.000    0.000    0.000   12.500 
#
# Total GULP energy -178384.986992 kJ/mol
# GULP energy per Si atom -5574.530844 kJ/mol
# Density = 1.863580 g / cm^3
# Si number density = 18.678309 Si / 1000 Ang^3
#
#
#
# Elastic Constant Matrix: (Units=GPa)
#
#
# Indices 1 2 3 4 5 6 
#
# 1 43.2229 23.4243 5.7074 0.0000 -10.7126 0.0000
# 2 23.4243 72.8404 33.0140 0.0000 -12.8814 0.0000
# 3 5.7074 33.0140 121.8359 0.0000 -16.9996 0.0000
# 4 0.0000 0.0000 0.0000 23.4779 0.0000 -4.5010
# 5 -10.7126 -12.8814 -16.9996 0.0000 18.6078 0.0000
# 6 0.0000 0.0000 0.0000 -4.5010 0.0000 13.5295
#
#
#
# Elastic Compliance Matrix: (Units=1/GPa)
#
#
# Indices 1 2 3 4 5 6 
#
# 1 0.031098 -0.008767 0.002945 0.000000 0.014525 0.000000
# 2 -0.008767 0.019228 -0.004179 0.000000 0.004446 0.000000
# 3 0.002945 -0.004179 0.010355 0.000000 0.008263 0.000000
# 4 0.000000 0.000000 0.000000 0.045495 0.000000 0.015135
# 5 0.014525 0.004446 0.008263 0.000000 0.072729 0.000000
# 6 0.000000 0.000000 0.000000 0.015135 0.000000 0.078948
#
#
# Mechanical properties :
#
#
# Convention : Reuss Voigt Hill
#
# Bulk Modulus (GPa) = 24.58212 40.24340 32.41276
# Shear Modulus (GPa) = 17.15767 22.83996 19.99881
#
# Velocity S-wave (km/s) = 3.03411 3.50066 3.27570
# Velocity P-wave (km/s) = 5.04617 6.15888 5.63008
#
# Compressibility (1/GPa) = 0.04067997
#
# Stress axis : x y z
#
# Youngs Moduli (GPa) = 32.15633 52.00651 96.57041
#
# Poissons Ratio (x) = 0.45594 -0.28445
# Poissons Ratio (y) = 0.28191 0.40360
# Poissons Ratio (z) = -0.09472 0.21735
#
# Static dielectric constant tensor:
#      x y z
#    x 1.676270 0.000000 -0.075340 
#    y 0.000000 1.633990 0.000000 
#    z -0.075340 0.000000 1.802120 
# 
# From -- ./inp_files/16171.got.cif
#   From: 2010.05.17/outbox.cif.g08.bks.cpg/sg15_9_cif.got.tgz:16171.got - 2010.06.03 18:47:42.
