data_PCOD9269242
_publ_section_title
;
Structure prediction by ZEFSAII (Michael W. Deem and Ramdas Pophale) SiO2 
 PCOD9269242
Probable space group: C 2/C
;
_chemical_formula_sum "Si O2"
_cell_formula_units_Z 40
_cell_length_a 13.586487
_cell_length_b 34.227235
_cell_length_c 5.122516
_cell_angle_alpha 90.000000
_cell_angle_beta 110.937933
_cell_angle_gamma 90.000000
_cell_volume 2224.817315
_symmetry_space_group_name_H-M "C 2/C"
_symmetry_group_IT_number 15
_symmetry_cell_setting 'monoclinic'
loop_
_space_group_symop_operation_xyz
x,y,z
-x,y,1/2-z
-x,-y,-z
x,-y,1/2+z
1/2+x,1/2+y,z
1/2-x,1/2+y,1/2-z
1/2-x,1/2-y,-z
1/2+x,1/2-y,1/2+z
loop_
_atom_site_type_symbol
_atom_site_label
_atom_site_fract_x
_atom_site_fract_y
_atom_site_fract_z
Si Si1 0.124618 0.632283 0.328266
Si Si2 0.260379 0.899099 0.063555
Si Si3 0.620446 0.526316 0.330376
Si Si4 0.273770 0.294138 0.946022
Si Si5 0.119365 0.176231 0.452800
O O1 0.179667 0.607018 0.607736
O O2 0.176119 0.675739 0.386117
O O3 0.000000 0.633979 0.250000
O O4 0.159320 0.612949 0.089140
O O5 0.206243 0.940650 0.967941
O O6 0.167126 0.867016 0.970118
O O7 0.500000 0.541513 0.250000
O O8 0.631241 0.491686 0.552660
O O9 0.360582 0.309865 0.233749
O O10 0.250000 0.250000 0.000000
O O11 0.314142 0.297760 0.688738
O O12 0.000000 0.177498 0.250000
#
# Coordination Sequence:
#
# PCOD9269242 Si02
#       5
#     8   8   8   8   8
#     4  10  21  36  56  77 102 145 187 219 258 304
#     4  10  20  36  56  78 108 137 175 220 255 314
#     4  10  20  34  56  85 112 138 167 208 270 328
#     4  10  21  36  52  78 108 135 176 222 264 312
#     4  10  20  34  54  78 104 137 170 209 266 318
#
# _framework density 17.979004
#
# number of rings (size 3 to 8) (size 9 to 14) (size 15 to 20)
#    0.000    2.000    0.000    3.600    0.000    1.600 
#    0.000    6.000    0.000   12.000    0.000    0.000 
#    0.000    0.000    0.000    0.000    0.000    0.000 
#
# Total GULP energy -111657.640853 kJ/mol
# GULP energy per Si atom -5582.882043 kJ/mol
# Density = 1.793808 g / cm^3
# Si number density = 17.979004 Si / 1000 Ang^3
#
#
#
# Elastic Constant Matrix: (Units=GPa)
#
#
# Indices 1 2 3 4 5 6 
#
# 1 61.9764 15.5365 -4.4078 0.0000 18.7308 0.0000
# 2 15.5365 38.0562 -14.9183 0.0000 8.4007 0.0000
# 3 -4.4078 -14.9183 36.1101 0.0000 -10.2046 0.0000
# 4 0.0000 0.0000 0.0000 15.0243 0.0000 -0.8793
# 5 18.7308 8.4007 -10.2046 0.0000 32.6524 0.0000
# 6 0.0000 0.0000 0.0000 -0.8793 0.0000 6.2176
#
#
#
# Elastic Compliance Matrix: (Units=1/GPa)
#
#
# Indices 1 2 3 4 5 6 
#
# 1 0.021223 -0.007632 -0.003782 0.000000 -0.011393 0.000000
# 2 -0.007632 0.034689 0.013288 0.000000 -0.000394 0.000000
# 3 -0.003782 0.013288 0.035504 0.000000 0.009846 0.000000
# 4 0.000000 0.000000 0.000000 0.067114 0.000000 0.009491
# 5 -0.011393 -0.000394 0.009846 0.000000 0.040339 0.000000
# 6 0.000000 0.000000 0.000000 0.009491 0.000000 0.162177
#
#
# Mechanical properties :
#
#
# Convention : Reuss Voigt Hill
#
# Bulk Modulus (GPa) = 10.50818 14.28482 12.39650
# Shear Modulus (GPa) = 12.85288 20.10767 16.48027
#
# Velocity S-wave (km/s) = 2.67663 3.34787 3.03089
# Velocity P-wave (km/s) = 3.92554 4.78611 4.37703
#
# Compressibility (1/GPa) = 0.09516397
#
# Stress axis : x y z
#
# Youngs Moduli (GPa) = 47.11977 28.82790 28.16593
#
# Poissons Ratio (x) = 0.22001 0.10652
# Poissons Ratio (y) = 0.35961 -0.37428
# Poissons Ratio (z) = 0.17821 -0.38307
#
# Static dielectric constant tensor:
#      x y z
#    x 1.595440 0.000000 -0.011040 
#    y 0.000000 1.589410 0.000000 
#    z -0.011040 0.000000 1.604280 
# 
# From -- ./inp_files/5585.got.cif
#   From: 2010.05.17/outbox.cif.g08.bks.cpg/sg15_3_cif.got.tgz:5585.got - 2010.06.03 18:47:42.
