data_PCOD9269783
_publ_section_title
;
Structure prediction by ZEFSAII (Michael W. Deem and Ramdas Pophale) SiO2 
 PCOD9269783
Probable space group: C 2/C
;
_chemical_formula_sum "Si O2"
_cell_formula_units_Z 52
_cell_length_a 22.069027
_cell_length_b 5.117276
_cell_length_c 20.198550
_cell_angle_alpha 90.000000
_cell_angle_beta 118.555376
_cell_angle_gamma 90.000000
_cell_volume 2003.607098
_symmetry_space_group_name_H-M "C 2/C"
_symmetry_group_IT_number 15
_symmetry_cell_setting 'monoclinic'
loop_
_space_group_symop_operation_xyz
x,y,z
-x,y,1/2-z
-x,-y,-z
x,-y,1/2+z
1/2+x,1/2+y,z
1/2-x,1/2+y,1/2-z
1/2-x,1/2-y,-z
1/2+x,1/2-y,1/2+z
loop_
_atom_site_type_symbol
_atom_site_label
_atom_site_fract_x
_atom_site_fract_y
_atom_site_fract_z
Si Si1 0.143857 0.500374 0.246576
Si Si2 0.369524 0.139843 0.616105
Si Si3 0.796709 0.843395 0.827845
Si Si4 0.912163 0.781366 0.399435
Si Si5 0.750000 0.250000 0.000000
Si Si6 0.962593 0.125854 0.062583
Si Si7 0.663288 0.745667 0.015256
O O1 0.173108 0.240727 0.226893
O O2 0.215028 0.661972 0.285960
O O3 0.087906 0.599697 0.164522
O O4 0.883120 0.487747 0.192957
O O5 0.329408 0.989141 0.532471
O O6 0.305240 0.334265 0.590688
O O7 0.438107 0.241453 0.617323
O O8 0.823511 0.667820 0.902989
O O9 0.834711 0.112970 0.864713
O O10 0.940871 0.706968 0.486639
O O11 0.960615 0.028002 0.405434
O O12 0.712099 0.498156 0.025481
O O13 0.913478 0.868654 0.033348
#
# Coordination Sequence:
#
# PCOD9269783 Si02
#       7
#     8   8   8   8   4   8   8
#     4  12  24  39  63 100 136 175 223 288 359 408
#     4  11  23  39  64 101 130 177 225 287 348 413
#     4  11  23  39  62  94 135 174 224 277 351 417
#     4  10  22  45  67  95 131 180 228 285 340 422
#     4  10  20  34  60  94 132 164 214 278 336 410
#     4   9  22  44  70  92 128 182 236 275 338 419
#     4  10  21  40  63  97 128 175 229 277 339 413
#
# _framework density 25.953192000000001
#
# number of rings (size 3 to 8) (size 9 to 14) (size 15 to 20)
#    0.000    1.538    3.077    1.385    0.000    4.923 
#    0.000    9.231    0.000    0.000    0.000    0.000 
#    0.000    0.000    0.000    0.000    0.000    0.000 
#
# Total GULP energy -144882.038016 kJ/mol
# GULP energy per Si atom -5572.386078 kJ/mol
# Density = 2.589412 g / cm^3
# Si number density = 25.953192 Si / 1000 Ang^3
#
#
#
# Elastic Constant Matrix: (Units=GPa)
#
#
# Indices 1 2 3 4 5 6 
#
# 1 130.7188 32.7683 45.6444 0.0006 -17.2567 -0.0005
# 2 32.7683 69.9939 23.9359 0.0026 -6.8917 -0.0002
# 3 45.6444 23.9359 84.3975 0.0014 -18.2117 -0.0005
# 4 0.0006 0.0026 0.0014 38.1488 -0.0010 -6.7112
# 5 -17.2567 -6.8917 -18.2117 -0.0010 30.7688 0.0000
# 6 -0.0005 -0.0002 -0.0005 -6.7112 0.0000 35.5327
#
#
#
# Elastic Compliance Matrix: (Units=1/GPa)
#
#
# Indices 1 2 3 4 5 6 
#
# 1 0.010198 -0.003127 -0.004065 0.000000 0.002613 0.000000
# 2 -0.003127 0.016808 -0.003029 -0.000001 0.000218 0.000000
# 3 -0.004065 -0.003029 0.016357 0.000000 0.006723 0.000000
# 4 0.000000 -0.000001 0.000000 0.027114 0.000001 0.005121
# 5 0.002613 0.000218 0.006723 0.000001 0.037995 0.000000
# 6 0.000000 0.000000 0.000000 0.005121 0.000000 0.029110
#
#
# Mechanical properties :
#
#
# Convention : Reuss Voigt Hill
#
# Bulk Modulus (GPa) = 43.62558 54.42306 49.02432
# Shear Modulus (GPa) = 30.18166 33.07416 31.62791
#
# Velocity S-wave (km/s) = 3.41387 3.57371 3.49471
# Velocity P-wave (km/s) = 5.69080 6.16797 5.93418
#
# Compressibility (1/GPa) = 0.02292233
#
# Stress axis : x y z
#
# Youngs Moduli (GPa) = 98.05649 59.49501 61.13705
#
# Poissons Ratio (x) = 0.18605 0.24850
# Poissons Ratio (y) = 0.30663 0.18516
# Poissons Ratio (z) = 0.39856 0.18019
#
# Static dielectric constant tensor:
#      x y z
#    x 7.937490 -0.000630 3.126060 
#    y -0.000630 15.116170 -0.000340 
#    z 3.126060 -0.000340 3.779440 
# 
# From -- ./inp_files/318304.got.cif
#   From: 2010.05.17/outbox.cif.g08.bks.cpg/sg15_160_cif.got.tgz:318304.got - 2010.06.03 18:47:42.
