data_PCOD9269655
_publ_section_title
;
Structure prediction by ZEFSAII (Michael W. Deem and Ramdas Pophale) SiO2 
 PCOD9269655
Probable space group: C 2/C
;
_chemical_formula_sum "Si O2"
_cell_formula_units_Z 64
_cell_length_a 8.363501
_cell_length_b 21.000840
_cell_length_c 19.246470
_cell_angle_alpha 90.000000
_cell_angle_beta 126.840106
_cell_angle_gamma 90.000000
_cell_volume 2705.422666
_symmetry_space_group_name_H-M "C 2/C"
_symmetry_group_IT_number 15
_symmetry_cell_setting 'monoclinic'
loop_
_space_group_symop_operation_xyz
x,y,z
-x,y,1/2-z
-x,-y,-z
x,-y,1/2+z
1/2+x,1/2+y,z
1/2-x,1/2+y,1/2-z
1/2-x,1/2-y,-z
1/2+x,1/2-y,1/2+z
loop_
_atom_site_type_symbol
_atom_site_label
_atom_site_fract_x
_atom_site_fract_y
_atom_site_fract_z
Si Si1 0.759514 0.351891 0.536195
Si Si2 0.771349 0.070512 0.066788
Si Si3 0.563945 0.068930 0.862046
Si Si4 0.589825 0.660037 0.196189
Si Si5 0.977110 0.709674 0.635278
Si Si6 0.453124 0.241267 0.471902
Si Si7 0.917546 0.567332 0.329656
Si Si8 0.487298 0.538552 0.922724
O O1 0.595800 0.302088 0.518722
O O2 0.933347 0.308225 0.548299
O O3 0.637027 0.401601 0.457357
O O4 0.867363 0.398662 0.618050
O O5 0.646853 0.069913 0.105479
O O6 0.912866 0.132531 0.101941
O O7 0.639516 0.064765 0.962820
O O8 0.928545 0.012128 0.109709
O O9 0.471989 0.138760 0.828197
O O10 0.762363 0.063409 0.866641
O O11 0.433374 0.006427 0.815106
O O12 0.500000 0.658376 0.250000
O O13 0.631779 0.733524 0.190371
O O14 0.769573 0.610695 0.247110
O O15 0.763046 0.734224 0.609150
O O16 0.941062 0.708347 0.543428
O O17 0.500000 0.500000 0.000000
#
# Coordination Sequence:
#
# PCOD9269655 Si02
#       8
#     8   8   8   8   8   8   8   8
#     4  11  20  37  58  95 133 155 208 264 317 361
#     4  10  20  37  64  89 124 164 211 260 306 373
#     4  11  21  36  65  98 119 154 214 269 312 360
#     4  10  23  41  61  86 125 174 208 251 319 394
#     4  11  21  39  62  88 125 163 216 253 310 375
#     4  10  22  34  63  94 121 166 206 264 312 369
#     4  11  22  38  63  92 127 169 208 253 324 385
#     4  10  20  34  58  93 128 157 198 272 312 353
#
# _framework density 23.656193999999999
#
# number of rings (size 3 to 8) (size 9 to 14) (size 15 to 20)
#    0.000    1.500    3.750    4.125    3.500    0.000 
#    0.000    3.750    0.000    0.000    0.000    0.000 
#    0.000    0.000    0.000    0.000    0.000    0.000 
#
# Total GULP energy -178948.431455 kJ/mol
# GULP energy per Si atom -5592.138483 kJ/mol
# Density = 2.360235 g / cm^3
# Si number density = 23.656194 Si / 1000 Ang^3
#
#
#
# Elastic Constant Matrix: (Units=GPa)
#
#
# Indices 1 2 3 4 5 6 
#
# 1 55.9813 29.5346 18.8308 0.0000 -6.8802 0.0000
# 2 29.5346 230.5196 43.1020 0.0000 22.6934 0.0000
# 3 18.8308 43.1020 70.8891 0.0000 -1.4312 0.0000
# 4 0.0000 0.0000 0.0000 40.5088 0.0000 15.7699
# 5 -6.8802 22.6934 -1.4312 0.0000 26.2965 0.0000
# 6 0.0000 0.0000 0.0000 15.7699 0.0000 41.9722
#
#
#
# Elastic Compliance Matrix: (Units=1/GPa)
#
#
# Indices 1 2 3 4 5 6 
#
# 1 0.021623 -0.002823 -0.003868 0.000000 0.007883 0.000000
# 2 -0.002823 0.005828 -0.002913 0.000000 -0.005927 0.000000
# 3 -0.003868 -0.002913 0.016954 0.000000 0.002425 0.000000
# 4 0.000000 0.000000 0.000000 0.028915 0.000000 -0.010864
# 5 0.007883 -0.005927 0.002425 0.000000 0.045337 0.000000
# 6 0.000000 0.000000 0.000000 -0.010864 0.000000 0.027907
#
#
# Mechanical properties :
#
#
# Convention : Reuss Voigt Hill
#
# Bulk Modulus (GPa) = 39.68902 60.03607 49.86255
# Shear Modulus (GPa) = 28.70734 39.48367 34.09550
#
# Velocity S-wave (km/s) = 3.48735 4.08985 3.80055
# Velocity P-wave (km/s) = 5.74711 6.90914 6.35474
#
# Compressibility (1/GPa) = 0.02519588
#
# Stress axis : x y z
#
# Youngs Moduli (GPa) = 46.24811 171.58945 58.98222
#
# Poissons Ratio (x) = 0.48442 0.22815
# Poissons Ratio (y) = 0.13056 0.17183
# Poissons Ratio (z) = 0.17889 0.49987
#
# Static dielectric constant tensor:
#      x y z
#    x 1.918520 0.000000 0.001110 
#    y 0.000000 1.911220 0.000000 
#    z 0.001110 0.000000 1.950310 
# 
# From -- ./inp_files/266128.got.cif
#   From: 2010.05.17/outbox.cif.g08.bks.cpg/sg15_134_cif.got.tgz:266128.got - 2010.06.03 18:47:42.
