data_PCOD9269469
_publ_section_title
;
Structure prediction by ZEFSAII (Michael W. Deem and Ramdas Pophale) SiO2 
 PCOD9269469
Probable space group: C 2/C
;
_chemical_formula_sum "Si O2"
_cell_formula_units_Z 48
_cell_length_a 10.910644
_cell_length_b 17.125309
_cell_length_c 25.698798
_cell_angle_alpha 90.000000
_cell_angle_beta 148.125136
_cell_angle_gamma 90.000000
_cell_volume 2535.652195
_symmetry_space_group_name_H-M "C 2/C"
_symmetry_group_IT_number 15
_symmetry_cell_setting 'monoclinic'
loop_
_space_group_symop_operation_xyz
x,y,z
-x,y,1/2-z
-x,-y,-z
x,-y,1/2+z
1/2+x,1/2+y,z
1/2-x,1/2+y,1/2-z
1/2-x,1/2-y,-z
1/2+x,1/2-y,1/2+z
loop_
_atom_site_type_symbol
_atom_site_label
_atom_site_fract_x
_atom_site_fract_y
_atom_site_fract_z
Si Si1 0.401817 0.271188 0.977689
Si Si2 0.620255 0.363212 0.429564
Si Si3 0.299998 0.391998 0.222061
Si Si4 0.568418 0.032384 0.080904
Si Si5 0.866668 0.828401 0.654642
Si Si6 0.521553 0.731592 0.108197
O O1 0.196541 0.215357 0.925073
O O2 0.370250 0.298636 0.907025
O O3 0.449122 0.336177 0.038011
O O4 0.626741 0.215844 0.057649
O O5 0.427236 0.402265 0.323329
O O6 0.847569 0.416646 0.518191
O O7 0.500000 0.385496 0.250000
O O8 0.140144 0.463829 0.145833
O O9 0.151644 0.312323 0.168561
O O10 0.784426 0.088545 0.146576
O O11 0.500000 0.000000 0.000000
O O12 0.018551 0.825086 0.657120
O O13 0.000000 0.787604 0.750000
O O14 0.250000 0.750000 0.000000
#
# Coordination Sequence:
#
# PCOD9269469 Si02
#       6
#     8   8   8   8   8   8
#     4   9  18  35  55  84 115 153 193 247 302 347
#     4  10  20  34  57  85 120 153 200 249 292 358
#     4  12  20  35  60  88 118 159 200 240 306 359
#     4  11  21  35  54  87 115 151 198 244 290 352
#     4  10  20  34  56  88 113 144 194 249 296 349
#     4  10  20  36  58  87 118 149 193 252 304 351
#
# _framework density 18.930040999999999
#
# number of rings (size 3 to 8) (size 9 to 14) (size 15 to 20)
#    0.000    1.667    3.333    3.500    0.000    0.000 
#    0.000    0.000    0.000    9.000   21.667    0.000 
#    0.000    0.000    0.000    0.000    0.000    0.000 
#
# Total GULP energy -133822.474080 kJ/mol
# GULP energy per Si atom -5575.936420 kJ/mol
# Density = 1.888696 g / cm^3
# Si number density = 18.930041 Si / 1000 Ang^3
#
#
#
# Elastic Constant Matrix: (Units=GPa)
#
#
# Indices 1 2 3 4 5 6 
#
# 1 94.9771 22.1053 33.1757 -0.0001 -26.7274 0.0000
# 2 22.1053 52.7201 38.0422 -0.0002 -2.1583 -0.0001
# 3 33.1757 38.0422 98.6656 -0.0003 -17.8310 0.0000
# 4 -0.0001 -0.0002 -0.0003 15.9955 -0.0001 -10.8484
# 5 -26.7274 -2.1583 -17.8310 -0.0001 32.1101 0.0000
# 6 0.0000 -0.0001 0.0000 -10.8484 0.0000 11.5284
#
#
#
# Elastic Compliance Matrix: (Units=1/GPa)
#
#
# Indices 1 2 3 4 5 6 
#
# 1 0.015476 -0.005271 -0.001008 0.000000 0.011967 0.000000
# 2 -0.005271 0.028618 -0.010790 0.000000 -0.008456 0.000000
# 3 -0.001008 -0.010790 0.015953 0.000001 0.007294 0.000000
# 4 0.000000 0.000000 0.000001 0.172803 0.000001 0.162610
# 5 0.011967 -0.008456 0.007294 0.000001 0.044586 0.000001
# 6 0.000000 0.000000 0.000000 0.162610 0.000001 0.239761
#
#
# Mechanical properties :
#
#
# Convention : Reuss Voigt Hill
#
# Bulk Modulus (GPa) = 38.59928 48.11213 43.35570
# Shear Modulus (GPa) = 8.92904 22.12945 15.52924
#
# Velocity S-wave (km/s) = 2.17419 3.42279 2.86728
# Velocity P-wave (km/s) = 5.17084 6.41027 5.82362
#
# Compressibility (1/GPa) = 0.02590722
#
# Stress axis : x y z
#
# Youngs Moduli (GPa) = 64.61778 34.94314 62.68524
#
# Poissons Ratio (x) = 0.18419 0.06322
# Poissons Ratio (y) = 0.34062 0.67636
# Poissons Ratio (z) = 0.06516 0.37703
#
# Static dielectric constant tensor:
#      x y z
#    x 1.691010 0.000000 0.045660 
#    y 0.000000 1.543120 0.000000 
#    z 0.045660 0.000000 1.877790 
# 
# From -- ./inp_files/293139.got.cif
#   From: 2010.05.17/outbox.cif.g08.bks.cpg/sg15_147_cif.got.tgz:293139.got - 2010.06.03 18:47:42.
