data_PCOD9269705
_publ_section_title
;
Structure prediction by ZEFSAII (Michael W. Deem and Ramdas Pophale) SiO2 
 PCOD9269705
Probable space group: C 2/C
;
_chemical_formula_sum "Si O2"
_cell_formula_units_Z 60
_cell_length_a 14.502437
_cell_length_b 21.199514
_cell_length_c 10.973563
_cell_angle_alpha 90.000000
_cell_angle_beta 68.578645
_cell_angle_gamma 90.000000
_cell_volume 3140.702504
_symmetry_space_group_name_H-M "C 2/C"
_symmetry_group_IT_number 15
_symmetry_cell_setting 'monoclinic'
loop_
_space_group_symop_operation_xyz
x,y,z
-x,y,1/2-z
-x,-y,-z
x,-y,1/2+z
1/2+x,1/2+y,z
1/2-x,1/2+y,1/2-z
1/2-x,1/2-y,-z
1/2+x,1/2-y,1/2+z
loop_
_atom_site_type_symbol
_atom_site_label
_atom_site_fract_x
_atom_site_fract_y
_atom_site_fract_z
Si Si1 0.230279 0.418702 0.773892
Si Si2 0.000000 0.906807 0.250000
Si Si3 0.338539 0.325020 0.204938
Si Si4 0.162890 0.964600 0.993607
Si Si5 0.598841 0.959105 0.273815
Si Si6 0.173127 0.390464 0.447189
Si Si7 0.230250 0.901110 0.464150
Si Si8 0.382665 0.191528 0.300205
O O1 0.325358 0.426049 0.638047
O O2 0.166847 0.482503 0.784142
O O3 0.158814 0.363224 0.765297
O O4 0.261843 0.404596 0.895291
O O5 0.938955 0.861058 0.190396
O O6 0.923814 0.945839 0.371522
O O7 0.253587 0.363422 0.315841
O O8 0.312678 0.337785 0.076190
O O9 0.342121 0.256345 0.263222
O O10 0.267737 0.945325 0.008340
O O11 0.161916 0.038373 0.963211
O O12 0.500000 0.978549 0.250000
O O13 0.586045 0.918884 0.405208
O O14 0.663666 0.918106 0.147223
O O15 0.148260 0.334054 0.551340
O O16 0.500000 0.196283 0.250000
#
# Coordination Sequence:
#
# PCOD9269705 Si02
#       8
#     8   4   8   8   8   8   8   8
#     4  10  21  37  55  86 125 156 186 242 302 357
#     4  10  20  38  64  84 114 152 208 250 280 350
#     4  10  21  39  58  83 111 158 197 244 292 342
#     4   9  19  37  59  87 117 153 193 241 301 346
#     4  10  20  34  59  90 121 157 191 239 300 353
#     4   9  19  37  60  84 116 151 195 242 296 350
#     4  10  21  37  57  83 123 154 189 241 303 357
#     4  11  22  36  58  87 111 152 206 243 280 355
#
# _framework density 19.104005000000001
#
# number of rings (size 3 to 8) (size 9 to 14) (size 15 to 20)
#    0.000    2.133    2.000    0.800    3.733    1.600 
#    0.000    0.000    0.000    0.000    3.467    0.000 
#    0.000    0.000    0.000    0.000    0.000    0.000 
#
# Total GULP energy -167156.071376 kJ/mol
# GULP energy per Si atom -5571.869046 kJ/mol
# Density = 1.906052 g / cm^3
# Si number density = 19.104005 Si / 1000 Ang^3
#
#
#
# Elastic Constant Matrix: (Units=GPa)
#
#
# Indices 1 2 3 4 5 6 
#
# 1 63.7351 11.7763 39.1840 0.0000 17.3580 0.0000
# 2 11.7763 64.4743 17.1562 0.0000 12.4523 0.0000
# 3 39.1840 17.1562 95.5182 0.0000 31.7350 0.0000
# 4 0.0000 0.0000 0.0000 17.1644 0.0000 13.0126
# 5 17.3580 12.4523 31.7350 0.0000 28.9704 0.0000
# 6 0.0000 0.0000 0.0000 13.0126 0.0000 14.4679
#
#
#
# Elastic Compliance Matrix: (Units=1/GPa)
#
#
# Indices 1 2 3 4 5 6 
#
# 1 0.021519 -0.001150 -0.007077 0.000000 -0.004646 0.000000
# 2 -0.001150 0.017034 -0.000604 0.000000 -0.005971 0.000000
# 3 -0.007077 -0.000604 0.018844 0.000000 -0.016142 0.000000
# 4 0.000000 0.000000 0.000000 0.183128 0.000000 -0.164708
# 5 -0.004646 -0.005971 -0.016142 0.000000 0.057551 0.000000
# 6 0.000000 0.000000 0.000000 -0.164708 0.000000 0.217259
#
#
# Mechanical properties :
#
#
# Convention : Reuss Voigt Hill
#
# Bulk Modulus (GPa) = 25.16684 39.99561 32.58123
# Shear Modulus (GPa) = 9.15343 22.49461 15.82402
#
# Velocity S-wave (km/s) = 2.19129 3.43517 2.88116
# Velocity P-wave (km/s) = 4.42770 6.05929 5.30658
#
# Compressibility (1/GPa) = 0.03973482
#
# Stress axis : x y z
#
# Youngs Moduli (GPa) = 46.47070 58.70600 53.06675
#
# Poissons Ratio (x) = 0.06750 0.37557
# Poissons Ratio (y) = 0.05343 0.03205
# Poissons Ratio (z) = 0.32889 0.03545
#
# Static dielectric constant tensor:
#      x y z
#    x 1.691960 0.000000 0.035700 
#    y 0.000000 1.677520 0.000000 
#    z 0.035700 0.000000 1.727670 
# 
# From -- ./inp_files/99746.got.cif
#   From: 2010.05.17/outbox.cif.g08.bks.cpg/sg15_50_cif.got.tgz:99746.got - 2010.06.03 18:47:42.
