data_PCOD9269780
_publ_section_title
;
Structure prediction by ZEFSAII (Michael W. Deem and Ramdas Pophale) SiO2 
 PCOD9269780
Probable space group: C 2/C
;
_chemical_formula_sum "Si O2"
_cell_formula_units_Z 52
_cell_length_a 14.513410
_cell_length_b 22.715578
_cell_length_c 11.516040
_cell_angle_alpha 90.000000
_cell_angle_beta 33.332321
_cell_angle_gamma 90.000000
_cell_volume 2086.217318
_symmetry_space_group_name_H-M "C 2/C"
_symmetry_group_IT_number 15
_symmetry_cell_setting 'monoclinic'
loop_
_space_group_symop_operation_xyz
x,y,z
-x,y,1/2-z
-x,-y,-z
x,-y,1/2+z
1/2+x,1/2+y,z
1/2-x,1/2+y,1/2-z
1/2-x,1/2-y,-z
1/2+x,1/2-y,1/2+z
loop_
_atom_site_type_symbol
_atom_site_label
_atom_site_fract_x
_atom_site_fract_y
_atom_site_fract_z
Si Si1 0.852182 0.495407 0.749019
Si Si2 0.740772 0.676316 0.428852
Si Si3 0.061401 0.268394 0.480622
Si Si4 0.624838 0.668649 0.959938
Si Si5 0.112696 0.083272 0.393892
Si Si6 0.186407 0.388735 0.048266
Si Si7 0.000000 0.392458 0.750000
O O1 0.674005 0.479388 0.876957
O O2 0.831458 0.550765 0.857116
O O3 0.000000 0.500000 0.500000
O O4 0.921206 0.437610 0.742101
O O5 0.626679 0.733343 0.526950
O O6 0.632849 0.625404 0.484030
O O7 0.836136 0.649483 0.440063
O O8 0.899824 0.693114 0.180722
O O9 0.007894 0.218138 0.442649
O O10 0.205142 0.308173 0.276546
O O11 0.559830 0.606318 0.978226
O O12 0.679925 0.654612 0.032958
O O13 0.247715 0.097281 0.149498
O O14 0.000000 0.362200 0.250000
#
# Coordination Sequence:
#
# PCOD9269780 Si02
#       7
#     8   8   8   8   8   8   4
#     4  11  21  39  63  89 121 159 208 253 308 368
#     4   9  19  35  61  86 127 156 206 249 303 368
#     4   9  19  40  60  89 124 167 197 253 312 356
#     4  10  22  39  63  89 125 161 204 253 305 367
#     4  10  21  39  59  90 123 160 203 258 302 364
#     4  12  22  38  63  92 121 165 207 252 309 369
#     4  10  20  34  60  94 112 158 202 248 300 372
#
# _framework density 24.925497
#
# number of rings (size 3 to 8) (size 9 to 14) (size 15 to 20)
#    0.000    1.846    2.308    1.385    2.154    1.231 
#    0.000   19.231    0.000    0.000    0.000    0.000 
#    0.000    0.000    0.000    0.000    0.000    0.000 
#
# Total GULP energy -145062.078811 kJ/mol
# GULP energy per Si atom -5579.310723 kJ/mol
# Density = 2.486877 g / cm^3
# Si number density = 24.925497 Si / 1000 Ang^3
#
#
#
# Elastic Constant Matrix: (Units=GPa)
#
#
# Indices 1 2 3 4 5 6 
#
# 1 121.1385 16.0445 11.8837 0.0090 -24.3108 -0.0062
# 2 16.0445 75.2816 34.7511 0.0012 -8.1469 -0.0004
# 3 11.8837 34.7511 67.8651 0.0096 -7.0209 -0.0075
# 4 0.0090 0.0012 0.0096 26.8271 -0.0086 1.6376
# 5 -24.3108 -8.1469 -7.0209 -0.0086 37.2323 0.0064
# 6 -0.0062 -0.0004 -0.0075 1.6376 0.0064 37.5484
#
#
#
# Elastic Compliance Matrix: (Units=1/GPa)
#
#
# Indices 1 2 3 4 5 6 
#
# 1 0.009654 -0.001201 -0.000460 -0.000001 0.005954 0.000001
# 2 -0.001201 0.017718 -0.008712 0.000003 0.001450 -0.000002
# 3 -0.000460 -0.008712 0.019428 -0.000006 0.001457 0.000004
# 4 -0.000001 0.000003 -0.000006 0.037375 0.000008 -0.001630
# 5 0.005954 0.001450 0.001457 0.000008 0.031338 -0.000004
# 6 0.000001 -0.000002 0.000004 -0.001630 -0.000004 0.026703
#
#
# Mechanical properties :
#
#
# Convention : Reuss Voigt Hill
#
# Bulk Modulus (GPa) = 38.38215 43.29376 40.83795
# Shear Modulus (GPa) = 29.12950 33.76196 31.44573
#
# Velocity S-wave (km/s) = 3.42228 3.68437 3.55574
# Velocity P-wave (km/s) = 5.57209 5.95872 5.76865
#
# Compressibility (1/GPa) = 0.02605378
#
# Stress axis : x y z
#
# Youngs Moduli (GPa) = 103.58300 56.43931 51.47310
#
# Poissons Ratio (x) = 0.06779 0.02365
# Poissons Ratio (y) = 0.12441 0.44846
# Poissons Ratio (z) = 0.04760 0.49173
#
# Static dielectric constant tensor:
#      x y z
#    x 2.094070 0.000000 -0.024320 
#    y 0.000000 2.030280 0.000000 
#    z -0.024320 0.000000 1.936310 
# 
# From -- ./inp_files/100634.got.cif
#   From: 2010.05.17/outbox.cif.g08.bks.cpg/sg15_51_cif.got.tgz:100634.got - 2010.06.03 18:47:42.
