data_PCOD9269166
_publ_section_title
;
Structure prediction by ZEFSAII (Michael W. Deem and Ramdas Pophale) SiO2 
 PCOD9269166
Probable space group: C 2/C
;
_chemical_formula_sum "Si O2"
_cell_formula_units_Z 44
_cell_length_a 13.200387
_cell_length_b 25.527066
_cell_length_c 11.417569
_cell_angle_alpha 90.000000
_cell_angle_beta 40.133286
_cell_angle_gamma 90.000000
_cell_volume 2479.875540
_symmetry_space_group_name_H-M "C 2/C"
_symmetry_group_IT_number 15
_symmetry_cell_setting 'monoclinic'
loop_
_space_group_symop_operation_xyz
x,y,z
-x,y,1/2-z
-x,-y,-z
x,-y,1/2+z
1/2+x,1/2+y,z
1/2-x,1/2+y,1/2-z
1/2-x,1/2-y,-z
1/2+x,1/2-y,1/2+z
loop_
_atom_site_type_symbol
_atom_site_label
_atom_site_fract_x
_atom_site_fract_y
_atom_site_fract_z
Si Si1 0.806467 0.429752 0.171910
Si Si2 0.000000 0.756903 0.250000
Si Si3 0.206075 0.308629 0.385883
Si Si4 0.156501 0.904581 0.536321
Si Si5 0.901074 0.523002 0.944475
Si Si6 0.824194 0.704302 0.857651
O O1 0.813505 0.371710 0.109862
O O2 0.672499 0.428117 0.390804
O O3 0.972871 0.446934 0.084886
O O4 0.793125 0.477948 0.095181
O O5 0.912705 0.719206 0.419599
O O6 0.876178 0.792506 0.287385
O O7 0.176247 0.285871 0.281617
O O8 0.291486 0.933039 0.488986
O O9 0.210284 0.845039 0.474860
O O10 0.000000 0.909538 0.750000
O O11 0.000000 0.498537 0.750000
O O12 0.000000 0.693254 0.750000
O O13 0.750000 0.750000 0.000000
#
# Coordination Sequence:
#
# PCOD9269166 Si02
#       6
#     8   4   8   8   8   8
#     4   9  19  36  57  79 106 145 191 235 279 343
#     4  10  22  38  56  78 118 158 188 228 276 342
#     4  10  21  38  56  82 115 150 192 232 280 344
#     4  10  20  34  52  80 115 143 176 231 287 340
#     4   9  18  35  58  80 107 142 188 236 290 342
#     4  11  21  36  61  87 113 147 191 244 293 342
#
# _framework density 17.742826000000001
#
# number of rings (size 3 to 8) (size 9 to 14) (size 15 to 20)
#    0.000    2.182    0.000    4.364    1.273    2.182 
#    1.636    3.636    0.000    0.000    0.000    0.000 
#    0.000    0.000    0.000    0.000    0.000    0.000 
#
# Total GULP energy -122535.242789 kJ/mol
# GULP energy per Si atom -5569.783763 kJ/mol
# Density = 1.770244 g / cm^3
# Si number density = 17.742826 Si / 1000 Ang^3
#
#
#
# Elastic Constant Matrix: (Units=GPa)
#
#
# Indices 1 2 3 4 5 6 
#
# 1 79.6408 21.5740 24.6495 0.0000 17.2256 0.0000
# 2 21.5740 82.9423 38.1120 0.0000 23.7426 0.0000
# 3 24.6495 38.1120 110.6936 0.0000 14.2819 0.0000
# 4 0.0000 0.0000 0.0000 18.5816 0.0000 -7.6349
# 5 17.2256 23.7426 14.2819 0.0000 24.8914 0.0000
# 6 0.0000 0.0000 0.0000 -7.6349 0.0000 10.1364
#
#
#
# Elastic Compliance Matrix: (Units=1/GPa)
#
#
# Indices 1 2 3 4 5 6 
#
# 1 0.015257 -0.000453 -0.002090 0.000000 -0.008927 0.000000
# 2 -0.000453 0.018381 -0.004326 0.000000 -0.014737 0.000000
# 3 -0.002090 -0.004326 0.011091 0.000000 -0.000791 0.000000
# 4 0.000000 0.000000 0.000000 0.077937 0.000000 0.058703
# 5 -0.008927 -0.014737 -0.000791 0.000000 0.060863 0.000000
# 6 0.000000 0.000000 0.000000 0.058703 0.000000 0.142870
#
#
# Mechanical properties :
#
#
# Convention : Reuss Voigt Hill
#
# Bulk Modulus (GPa) = 32.26767 49.10531 40.68649
# Shear Modulus (GPa) = 14.26671 23.31797 18.79234
#
# Velocity S-wave (km/s) = 2.83871 3.62915 3.25799
# Velocity P-wave (km/s) = 5.38240 6.73032 6.09374
#
# Compressibility (1/GPa) = 0.03099078
#
# Stress axis : x y z
#
# Youngs Moduli (GPa) = 65.54509 54.40478 90.16410
#
# Poissons Ratio (x) = 0.02463 0.18842
# Poissons Ratio (y) = 0.02967 0.39008
# Poissons Ratio (z) = 0.13697 0.23537
#
# Static dielectric constant tensor:
#      x y z
#    x 1.643110 0.000000 0.045980 
#    y 0.000000 1.577490 0.000000 
#    z 0.045980 0.000000 1.636580 
# 
# From -- ./inp_files/91140.got.cif
#   From: 2010.05.17/outbox.cif.g08.bks.cpg/sg15_46_cif.got.tgz:91140.got - 2010.06.03 18:47:42.
