data_PCOD9269337
_publ_section_title
;
Structure prediction by ZEFSAII (Michael W. Deem and Ramdas Pophale) SiO2 
 PCOD9269337
Probable space group: C 2/C
;
_chemical_formula_sum "Si O2"
_cell_formula_units_Z 52
_cell_length_a 13.318464
_cell_length_b 23.789702
_cell_length_c 8.801750
_cell_angle_alpha 90.000000
_cell_angle_beta 112.573906
_cell_angle_gamma 90.000000
_cell_volume 2575.105657
_symmetry_space_group_name_H-M "C 2/C"
_symmetry_group_IT_number 15
_symmetry_cell_setting 'monoclinic'
loop_
_space_group_symop_operation_xyz
x,y,z
-x,y,1/2-z
-x,-y,-z
x,-y,1/2+z
1/2+x,1/2+y,z
1/2-x,1/2+y,1/2-z
1/2-x,1/2-y,-z
1/2+x,1/2-y,1/2+z
loop_
_atom_site_type_symbol
_atom_site_label
_atom_site_fract_x
_atom_site_fract_y
_atom_site_fract_z
Si Si1 0.249406 0.505201 0.212967
Si Si2 0.830259 0.242269 0.771397
Si Si3 0.817168 0.080203 0.517385
Si Si4 0.500000 0.342929 0.250000
Si Si5 0.434122 0.814549 0.069524
Si Si6 0.118633 0.561035 0.881271
Si Si7 0.351708 0.825000 0.495585
O O1 0.303662 0.554463 0.342720
O O2 0.324268 0.471495 0.139264
O O3 0.203398 0.460454 0.306123
O O4 0.151683 0.531047 0.056553
O O5 0.925624 0.196704 0.810165
O O6 0.719522 0.209278 0.670381
O O7 0.846994 0.286971 0.644131
O O8 0.847962 0.274756 0.937830
O O9 0.919589 0.120024 0.601850
O O10 0.710358 0.117055 0.500702
O O11 0.500000 0.789039 0.250000
O O12 0.380873 0.872250 0.095722
O O13 0.527289 0.830928 0.999244
O O14 0.000000 0.545620 0.750000
#
# Coordination Sequence:
#
# PCOD9269337 Si02
#       7
#     8   8   8   4   8   8   8
#     4  10  21  37  54  84 112 150 184 229 282 330
#     4  10  20  37  59  80 108 145 196 230 272 331
#     4  10  21  36  60  82 113 144 190 233 280 331
#     4  10  20  38  62  80 104 150 198 236 268 330
#     4  11  21  34  54  83 117 146 176 229 286 336
#     4  10  20  34  55  82 115 146 181 225 280 343
#     4  10  20  36  59  82 107 148 189 233 269 334
#
# _framework density 20.193345999999998
#
# number of rings (size 3 to 8) (size 9 to 14) (size 15 to 20)
#    0.000    1.846    1.538    3.231    0.000    2.462 
#    0.000    0.000    6.769    0.000    0.000    0.000 
#    0.000    0.000    0.000    0.000    0.000    0.000 
#
# Total GULP energy -145251.099969 kJ/mol
# GULP energy per Si atom -5586.580768 kJ/mol
# Density = 2.014739 g / cm^3
# Si number density = 20.193346 Si / 1000 Ang^3
#
#
#
# Elastic Constant Matrix: (Units=GPa)
#
#
# Indices 1 2 3 4 5 6 
#
# 1 27.4810 8.5250 14.1659 0.0000 6.9736 0.0000
# 2 8.5250 82.3172 59.2426 0.0000 5.3129 0.0000
# 3 14.1659 59.2426 116.8295 0.0000 -2.3807 0.0000
# 4 0.0000 0.0000 0.0000 15.4239 0.0000 21.1928
# 5 6.9736 5.3129 -2.3807 0.0000 18.2490 0.0000
# 6 0.0000 0.0000 0.0000 21.1928 0.0000 4.8600
#
#
#
# Elastic Compliance Matrix: (Units=1/GPa)
#
#
# Indices 1 2 3 4 5 6 
#
# 1 0.043795 0.001105 -0.006235 0.000000 -0.017871 0.000000
# 2 0.001105 0.020052 -0.010457 0.000000 -0.007624 0.000000
# 3 -0.006235 -0.010457 0.014768 0.000000 0.007354 0.000000
# 4 0.000000 0.000000 0.000000 -0.012988 0.000000 0.056639
# 5 -0.017871 -0.007624 0.007354 0.000000 0.064805 0.000000
# 6 0.000000 0.000000 0.000000 0.056639 0.000000 -0.041221
#
#
# Mechanical properties :
#
#
# Convention : Reuss Voigt Hill
#
# Bulk Modulus (GPa) = 21.07905 43.38831 32.23368
# Shear Modulus (GPa) = 36.71119 17.35285 27.03202
#
# Velocity S-wave (km/s) = 4.26841 2.93462 3.66274
# Velocity P-wave (km/s) = 5.89523 5.74593 5.82106
#
# Compressibility (1/GPa) = 0.04744047
#
# Stress axis : x y z
#
# Youngs Moduli (GPa) = 22.83375 49.87091 67.71373
#
# Poissons Ratio (x) = -0.05510 0.42217
# Poissons Ratio (y) = -0.02523 0.70810
# Poissons Ratio (z) = 0.14236 0.52152
#
# Static dielectric constant tensor:
#      x y z
#    x 1.714410 0.000000 -0.000770 
#    y 0.000000 1.717480 0.000000 
#    z -0.000770 0.000000 1.729670 
# 
# From -- ./inp_files/42314.got.cif
#   From: 2010.05.17/outbox.cif.g08.bks.cpg/sg15_22_cif.got.tgz:42314.got - 2010.06.03 18:47:42.
