data_PCOD9269077
_publ_section_title
;
Structure prediction by ZEFSAII (Michael W. Deem and Ramdas Pophale) SiO2 
 PCOD9269077
Probable space group: C 2/C
;
_chemical_formula_sum "Si O2"
_cell_formula_units_Z 52
_cell_length_a 20.499703
_cell_length_b 26.979815
_cell_length_c 5.196556
_cell_angle_alpha 90.000000
_cell_angle_beta 122.199214
_cell_angle_gamma 90.000000
_cell_volume 2432.066320
_symmetry_space_group_name_H-M "C 2/C"
_symmetry_group_IT_number 15
_symmetry_cell_setting 'monoclinic'
loop_
_space_group_symop_operation_xyz
x,y,z
-x,y,1/2-z
-x,-y,-z
x,-y,1/2+z
1/2+x,1/2+y,z
1/2-x,1/2+y,1/2-z
1/2-x,1/2-y,-z
1/2+x,1/2-y,1/2+z
loop_
_atom_site_type_symbol
_atom_site_label
_atom_site_fract_x
_atom_site_fract_y
_atom_site_fract_z
Si Si1 0.500000 0.155637 0.250000
Si Si2 0.641060 0.681519 0.007082
Si Si3 0.659638 0.614884 0.551645
Si Si4 0.587680 0.482013 0.117139
Si Si5 0.306350 0.801102 0.925342
Si Si6 0.948649 0.249001 0.351306
Si Si7 0.329509 0.134886 0.976513
O O1 0.517506 0.196421 0.510758
O O2 0.421328 0.124297 0.127743
O O3 0.644913 0.640086 0.244065
O O4 0.719281 0.713099 0.192039
O O5 0.574427 0.718980 0.944517
O O6 0.641820 0.654225 0.738852
O O7 0.603648 0.569289 0.504671
O O8 0.751842 0.601486 0.774037
O O9 0.622411 0.480383 0.477456
O O10 0.500000 0.500000 0.000000
O O11 0.368223 0.758577 0.035591
O O12 0.314112 0.823731 0.226189
O O13 0.324363 0.843023 0.751536
O O14 0.000000 0.221990 0.250000
#
# Coordination Sequence:
#
# PCOD9269077 Si02
#       7
#     4   8   8   8   8   8   8
#     4  10  20  34  48  76 108 142 188 224 264 298
#     4  10  22  35  53  75 106 145 182 224 263 300
#     4  10  21  40  56  80 105 135 179 215 267 324
#     4  10  21  40  63  86 106 135 166 208 268 328
#     4   9  18  34  50  69  98 144 188 225 260 299
#     4  11  21  33  47  72 107 146 190 227 264 299
#     4   9  18  32  55  73 102 137 175 226 262 305
#
# _framework density 21.380998000000002
#
# number of rings (size 3 to 8) (size 9 to 14) (size 15 to 20)
#    0.000    2.154    1.538    1.385    2.154    0.000 
#    8.308    6.154    0.000    0.000    0.000    1.077 
#    0.000    0.000    0.000    0.000    0.000    0.000 
#
# Total GULP energy -144890.557981 kJ/mol
# GULP energy per Si atom -5572.713768 kJ/mol
# Density = 2.133233 g / cm^3
# Si number density = 21.380998 Si / 1000 Ang^3
#
#
#
# Elastic Constant Matrix: (Units=GPa)
#
#
# Indices 1 2 3 4 5 6 
#
# 1 123.1367 24.4721 21.5193 0.0000 19.9005 0.0000
# 2 24.4721 43.5723 14.2292 0.0000 7.0678 0.0000
# 3 21.5193 14.2292 63.3559 0.0000 -10.1005 0.0000
# 4 0.0000 0.0000 0.0000 16.9424 0.0000 -2.6436
# 5 19.9005 7.0678 -10.1005 0.0000 55.7651 0.0000
# 6 0.0000 0.0000 0.0000 -2.6436 0.0000 28.6849
#
#
#
# Elastic Compliance Matrix: (Units=1/GPa)
#
#
# Indices 1 2 3 4 5 6 
#
# 1 0.010052 -0.004049 -0.003084 0.000000 -0.003632 0.000000
# 2 -0.004049 0.027426 -0.005260 0.000000 -0.002984 0.000000
# 3 -0.003084 -0.005260 0.018838 0.000000 0.005179 0.000000
# 4 0.000000 0.000000 0.000000 0.059885 0.000000 0.005519
# 5 -0.003632 -0.002984 0.005179 0.000000 0.020545 0.000000
# 6 0.000000 0.000000 0.000000 0.005519 0.000000 0.035370
#
#
# Mechanical properties :
#
#
# Convention : Reuss Voigt Hill
#
# Bulk Modulus (GPa) = 31.71561 38.94511 35.33036
# Shear Modulus (GPa) = 24.10653 31.60143 27.85398
#
# Velocity S-wave (km/s) = 3.36143 3.84867 3.61327
# Velocity P-wave (km/s) = 5.47096 6.16474 5.82818
#
# Compressibility (1/GPa) = 0.03153022
#
# Stress axis : x y z
#
# Youngs Moduli (GPa) = 99.48493 36.46134 53.08314
#
# Poissons Ratio (x) = 0.14764 0.16370
# Poissons Ratio (y) = 0.40284 0.27922
# Poissons Ratio (z) = 0.30680 0.19179
#
# Static dielectric constant tensor:
#      x y z
#    x 1.844330 0.000000 0.048530 
#    y 0.000000 1.775840 0.000000 
#    z 0.048530 0.000000 1.942780 
# 
# From -- ./inp_files/11309.got.cif
#   From: 2010.05.17/outbox.cif.g08.bks.cpg/sg15_6_cif.got.tgz:11309.got - 2010.06.03 18:47:42.
