data_PCOD9269446
_publ_section_title
;
Structure prediction by ZEFSAII (Michael W. Deem and Ramdas Pophale) SiO2 
 PCOD9269446
Probable space group: C 2/C
;
_chemical_formula_sum "Si O2"
_cell_formula_units_Z 36
_cell_length_a 14.214524
_cell_length_b 20.038411
_cell_length_c 5.235717
_cell_angle_alpha 90.000000
_cell_angle_beta 109.159658
_cell_angle_gamma 90.000000
_cell_volume 1408.715336
_symmetry_space_group_name_H-M "C 2/C"
_symmetry_group_IT_number 15
_symmetry_cell_setting 'monoclinic'
loop_
_space_group_symop_operation_xyz
x,y,z
-x,y,1/2-z
-x,-y,-z
x,-y,1/2+z
1/2+x,1/2+y,z
1/2-x,1/2+y,1/2-z
1/2-x,1/2-y,-z
1/2+x,1/2-y,1/2+z
loop_
_atom_site_type_symbol
_atom_site_label
_atom_site_fract_x
_atom_site_fract_y
_atom_site_fract_z
Si Si1 0.386413 0.026963 0.854648
Si Si2 0.163412 0.821921 0.681386
Si Si3 0.500000 0.855346 0.250000
Si Si4 0.379772 0.464921 0.100337
Si Si5 0.380308 0.754144 0.853046
O O1 0.407662 0.100089 0.768326
O O2 0.340970 0.981345 0.592215
O O3 0.500000 0.000000 0.000000
O O4 0.150998 0.897181 0.572431
O O5 0.276283 0.794868 0.775365
O O6 0.110969 0.779434 0.412226
O O7 0.122467 0.801979 0.924389
O O8 0.539406 0.809296 0.506877
O O9 0.500000 0.464088 0.250000
O O10 0.348284 0.477732 0.366701
#
# Coordination Sequence:
#
# PCOD9269446 Si02
#       5
#     8   8   4   8   8
#     4   8  16  30  46  68 108 134 161 224 259 294
#     4  10  22  42  54  82 120 151 180 238 298 344
#     4  10  20  34  56  86 102 142 202 222 266 348
#     4  10  21  37  61  87 112 147 197 247 289 349
#     4  10  23  36  59  82 117 151 188 231 284 347
#
# _framework density 25.555197
#
# number of rings (size 3 to 8) (size 9 to 14) (size 15 to 20)
#    0.000    2.667    0.000    1.333    3.111    7.111 
#    0.000    6.667    0.000    0.000    0.000    0.000 
#    0.000    0.000    0.000    0.000    0.000    0.000 
#
# Total GULP energy -100689.339487 kJ/mol
# GULP energy per Si atom -5593.852194 kJ/mol
# Density = 2.549703 g / cm^3
# Si number density = 25.555197 Si / 1000 Ang^3
#
#
#
# Elastic Constant Matrix: (Units=GPa)
#
#
# Indices 1 2 3 4 5 6 
#
# 1 58.9303 8.6293 36.7601 0.0000 -17.6959 0.0000
# 2 8.6293 130.8554 75.9282 0.0000 -2.7284 0.0000
# 3 36.7601 75.9282 205.9329 0.0000 -22.1966 0.0000
# 4 0.0000 0.0000 0.0000 61.6228 0.0000 -46.7490
# 5 -17.6959 -2.7284 -22.1966 0.0000 39.0148 0.0000
# 6 0.0000 0.0000 0.0000 -46.7490 0.0000 144.1269
#
#
#
# Elastic Compliance Matrix: (Units=1/GPa)
#
#
# Indices 1 2 3 4 5 6 
#
# 1 0.021215 0.000598 -0.003160 0.000000 0.007867 0.000000
# 2 0.000598 0.009816 -0.003860 0.000000 -0.001238 0.000000
# 3 -0.003160 -0.003860 0.007094 0.000000 0.002333 0.000000
# 4 0.000000 0.000000 0.000000 0.021524 0.000000 0.006982
# 5 0.007867 -0.001238 0.002333 0.000000 0.030440 0.000000
# 6 0.000000 0.000000 0.000000 0.006982 0.000000 0.009203
#
#
# Mechanical properties :
#
#
# Convention : Reuss Voigt Hill
#
# Bulk Modulus (GPa) = 39.55092 70.92818 55.23955
# Shear Modulus (GPa) = 41.47235 67.24630 54.35932
#
# Velocity S-wave (km/s) = 4.03284 5.13530 4.61709
# Velocity P-wave (km/s) = 6.09879 7.93579 7.07715
#
# Compressibility (1/GPa) = 0.02528386
#
# Stress axis : x y z
#
# Youngs Moduli (GPa) = 47.13699 101.87222 140.95486
#
# Poissons Ratio (x) = -0.06096 0.44537
# Poissons Ratio (y) = -0.02821 0.54402
# Poissons Ratio (z) = 0.14894 0.39318
#
# Static dielectric constant tensor:
#      x y z
#    x 11.783250 0.000000 -1.608880 
#    y 0.000000 2.008070 0.000000 
#    z -1.608880 0.000000 2.262600 
# 
# From -- ./inp_files/9732.got.cif
#   From: 2010.05.17/outbox.cif.g08.bks.cpg/sg15_5_cif.got.tgz:9732.got - 2010.06.03 18:47:42.
