data_PCOD9269673
_publ_section_title
;
Structure prediction by ZEFSAII (Michael W. Deem and Ramdas Pophale) SiO2 
 PCOD9269673
Probable space group: C 2/C
;
_chemical_formula_sum "Si O2"
_cell_formula_units_Z 40
_cell_length_a 5.279616
_cell_length_b 20.054222
_cell_length_c 20.593429
_cell_angle_alpha 90.000000
_cell_angle_beta 118.562394
_cell_angle_gamma 90.000000
_cell_volume 1915.041582
_symmetry_space_group_name_H-M "C 2/C"
_symmetry_group_IT_number 15
_symmetry_cell_setting 'monoclinic'
loop_
_space_group_symop_operation_xyz
x,y,z
-x,y,1/2-z
-x,-y,-z
x,-y,1/2+z
1/2+x,1/2+y,z
1/2-x,1/2+y,1/2-z
1/2-x,1/2-y,-z
1/2+x,1/2-y,1/2+z
loop_
_atom_site_type_symbol
_atom_site_label
_atom_site_fract_x
_atom_site_fract_y
_atom_site_fract_z
Si Si1 0.556772 0.224253 0.563455
Si Si2 0.748380 0.354680 0.540640
Si Si3 0.834954 0.033178 0.798145
Si Si4 0.695541 0.889927 0.398117
Si Si5 0.111042 0.517942 0.085117
O O1 0.734443 0.292861 0.588751
O O2 0.674582 0.178741 0.519436
O O3 0.494084 0.176396 0.616179
O O4 0.250000 0.250000 0.500000
O O5 0.439031 0.386773 0.484379
O O6 0.971483 0.411782 0.586052
O O7 0.500000 0.011889 0.750000
O O8 0.824419 0.099168 0.842368
O O9 0.000000 0.042275 0.750000
O O10 0.044802 0.983462 0.863885
O O11 0.513428 0.956124 0.389322
O O12 0.000000 0.500000 0.000000
#
# Coordination Sequence:
#
# PCOD9269673 Si02
#       5
#     8   8   8   8   8
#     4   9  19  34  55  94 140 168 210 276 343 404
#     4  10  20  34  59 100 137 168 215 281 339 407
#     4  12  26  42  60  97 141 181 224 283 356 417
#     4  11  20  37  64  93 142 170 222 280 349 407
#     4  12  22  37  66 101 137 173 226 287 348 411
#
# _framework density 20.887273
#
# number of rings (size 3 to 8) (size 9 to 14) (size 15 to 20)
#    0.000    1.200    6.000    0.600    0.000    0.000 
#    0.000    0.000    0.000    0.000    0.000   57.400 
#    0.000    0.000    0.000    0.000    0.000    0.400 
#
# Total GULP energy -111544.424133 kJ/mol
# GULP energy per Si atom -5577.221207 kJ/mol
# Density = 2.083973 g / cm^3
# Si number density = 20.887273 Si / 1000 Ang^3
#
#
#
# Elastic Constant Matrix: (Units=GPa)
#
#
# Indices 1 2 3 4 5 6 
#
# 1 111.1898 61.2766 48.9399 0.0000 16.4237 0.0000
# 2 61.2766 147.0294 37.4336 0.0000 25.4111 0.0000
# 3 48.9399 37.4336 90.6660 0.0000 9.6905 0.0000
# 4 0.0000 0.0000 0.0000 4.5722 0.0000 -1.3494
# 5 16.4237 25.4111 9.6905 0.0000 33.3129 0.0000
# 6 0.0000 0.0000 0.0000 -1.3494 0.0000 50.3128
#
#
#
# Elastic Compliance Matrix: (Units=1/GPa)
#
#
# Indices 1 2 3 4 5 6 
#
# 1 0.014036 -0.004024 -0.005680 0.000000 -0.002198 0.000000
# 2 -0.004024 0.009673 -0.001285 0.000000 -0.005021 0.000000
# 3 -0.005680 -0.001285 0.014678 0.000000 -0.000489 0.000000
# 4 0.000000 0.000000 0.000000 0.220457 0.000000 0.005913
# 5 -0.002198 -0.005021 -0.000489 0.000000 0.035075 0.000000
# 6 0.000000 0.000000 0.000000 0.005913 0.000000 0.020034
#
#
# Mechanical properties :
#
#
# Convention : Reuss Voigt Hill
#
# Bulk Modulus (GPa) = 60.93989 71.57616 66.25803
# Shear Modulus (GPa) = 14.64550 31.05525 22.85037
#
# Velocity S-wave (km/s) = 2.65083 3.86009 3.31113
# Velocity P-wave (km/s) = 6.21355 7.36270 6.81239
#
# Compressibility (1/GPa) = 0.01640961
#
# Stress axis : x y z
#
# Youngs Moduli (GPa) = 71.24645 103.37737 68.12694
#
# Poissons Ratio (x) = 0.41594 0.38697
# Poissons Ratio (y) = 0.28666 0.08757
# Poissons Ratio (z) = 0.40469 0.13288
#
# Static dielectric constant tensor:
#      x y z
#    x 1.924760 0.000000 0.000360 
#    y 0.000000 1.699620 0.000000 
#    z 0.000360 0.000000 1.779960 
# 
# From -- ./inp_files/184756.got.cif
#   From: 2010.05.17/outbox.cif.g08.bks.cpg/sg15_93_cif.got.tgz:184756.got - 2010.06.03 18:47:42.
