data_PCOD9269715
_publ_section_title
;
Structure prediction by ZEFSAII (Michael W. Deem and Ramdas Pophale) SiO2 
 PCOD9269715
Probable space group: C 2/C
;
_chemical_formula_sum "Si O2"
_cell_formula_units_Z 52
_cell_length_a 9.314694
_cell_length_b 22.833491
_cell_length_c 14.859181
_cell_angle_alpha 90.000000
_cell_angle_beta 121.397116
_cell_angle_gamma 90.000000
_cell_volume 2697.605858
_symmetry_space_group_name_H-M "C 2/C"
_symmetry_group_IT_number 15
_symmetry_cell_setting 'monoclinic'
loop_
_space_group_symop_operation_xyz
x,y,z
-x,y,1/2-z
-x,-y,-z
x,-y,1/2+z
1/2+x,1/2+y,z
1/2-x,1/2+y,1/2-z
1/2-x,1/2-y,-z
1/2+x,1/2-y,1/2+z
loop_
_atom_site_type_symbol
_atom_site_label
_atom_site_fract_x
_atom_site_fract_y
_atom_site_fract_z
Si Si1 0.731715 0.944012 0.084329
Si Si2 0.317942 0.081758 0.225751
Si Si3 0.944026 0.115031 0.507060
Si Si4 0.262406 0.314407 0.465156
Si Si5 0.167075 0.576044 0.054769
Si Si6 0.779095 0.049308 0.802950
Si Si7 0.000000 0.356361 0.250000
O O1 0.811626 0.895119 0.045392
O O2 0.819850 0.948695 0.210300
O O3 0.737948 0.011610 0.051044
O O4 0.533231 0.929250 0.029402
O O5 0.500000 0.102586 0.250000
O O6 0.307933 0.086515 0.330321
O O7 0.302456 0.012530 0.201430
O O8 0.164447 0.109044 0.119197
O O9 0.067695 0.171036 0.536435
O O10 0.074156 0.063821 0.579093
O O11 0.250000 0.250000 0.500000
O O12 0.248396 0.369781 0.528715
O O13 0.091092 0.318493 0.353163
O O14 0.645515 0.100778 0.766014
#
# Coordination Sequence:
#
# PCOD9269715 Si02
#       7
#     8   8   8   8   8   8   4
#     4  10  20  37  61  98 125 156 199 269 329 378
#     4  11  21  35  59  93 137 166 194 257 337 395
#     4  11  24  36  62  94 126 162 222 262 311 385
#     4  11  26  45  64  90 124 173 222 263 307 378
#     4  10  22  37  63  89 130 165 200 256 329 382
#     4  10  20  34  59  94 130 163 203 253 328 389
#     4  10  20  38  68  86 120 176 206 256 310 392
#
# _framework density 19.276353
#
# number of rings (size 3 to 8) (size 9 to 14) (size 15 to 20)
#    0.000    1.538    3.846    0.923    6.462    1.846 
#    0.000    0.769    0.000    0.000    0.000    0.000 
#    0.000    0.000    0.000    0.000    0.000    0.000 
#
# Total GULP energy -144880.306345 kJ/mol
# GULP energy per Si atom -5572.319475 kJ/mol
# Density = 1.923248 g / cm^3
# Si number density = 19.276353 Si / 1000 Ang^3
#
#
#
# Elastic Constant Matrix: (Units=GPa)
#
#
# Indices 1 2 3 4 5 6 
#
# 1 73.3780 23.0486 12.1672 0.0000 12.7826 0.0000
# 2 23.0486 75.4064 -4.0377 0.0000 4.6512 0.0000
# 3 12.1672 -4.0377 98.6295 0.0000 22.1660 0.0000
# 4 0.0000 0.0000 0.0000 30.4797 0.0000 -6.9486
# 5 12.7826 4.6512 22.1660 0.0000 30.5133 0.0000
# 6 0.0000 0.0000 0.0000 -6.9486 0.0000 18.9653
#
#
#
# Elastic Compliance Matrix: (Units=1/GPa)
#
#
# Indices 1 2 3 4 5 6 
#
# 1 0.016192 -0.004672 -0.000985 0.000000 -0.005355 0.000000
# 2 -0.004672 0.014856 0.001498 0.000000 -0.001396 0.000000
# 3 -0.000985 0.001498 0.012286 0.000000 -0.008741 0.000000
# 4 0.000000 0.000000 0.000000 0.035799 0.000000 0.013116
# 5 -0.005355 -0.001396 -0.008741 0.000000 0.041578 0.000000
# 6 0.000000 0.000000 0.000000 0.013116 0.000000 0.057534
#
#
# Mechanical properties :
#
#
# Convention : Reuss Voigt Hill
#
# Bulk Modulus (GPa) = 28.55798 34.41890 31.48844
# Shear Modulus (GPa) = 25.22275 30.40738 27.81507
#
# Velocity S-wave (km/s) = 3.62122 3.97601 3.80276
# Velocity P-wave (km/s) = 5.68608 6.24280 5.97093
#
# Compressibility (1/GPa) = 0.03501648
#
# Stress axis : x y z
#
# Youngs Moduli (GPa) = 61.76016 67.31424 81.39193
#
# Poissons Ratio (x) = 0.31446 0.08018
# Poissons Ratio (y) = 0.28852 -0.12194
# Poissons Ratio (z) = 0.06084 -0.10085
#
# Static dielectric constant tensor:
#      x y z
#    x 1.727890 0.000000 -0.008920 
#    y 0.000000 1.630490 0.000000 
#    z -0.008920 0.000000 1.713770 
# 
# From -- ./inp_files/137516.got.cif
#   From: 2010.05.17/outbox.cif.g08.bks.cpg/sg15_69_cif.got.tgz:137516.got - 2010.06.03 18:47:42.
