data_PCOD9269081
_publ_section_title
;
Structure prediction by ZEFSAII (Michael W. Deem and Ramdas Pophale) SiO2 
 PCOD9269081
Probable space group: C 2/C
;
_chemical_formula_sum "Si O2"
_cell_formula_units_Z 52
_cell_length_a 13.530108
_cell_length_b 23.476027
_cell_length_c 12.457704
_cell_angle_alpha 90.000000
_cell_angle_beta 132.783784
_cell_angle_gamma 90.000000
_cell_volume 2904.115306
_symmetry_space_group_name_H-M "C 2/C"
_symmetry_group_IT_number 15
_symmetry_cell_setting 'monoclinic'
loop_
_space_group_symop_operation_xyz
x,y,z
-x,y,1/2-z
-x,-y,-z
x,-y,1/2+z
1/2+x,1/2+y,z
1/2-x,1/2+y,1/2-z
1/2-x,1/2-y,-z
1/2+x,1/2-y,1/2+z
loop_
_atom_site_type_symbol
_atom_site_label
_atom_site_fract_x
_atom_site_fract_y
_atom_site_fract_z
Si Si1 0.835411 0.388499 0.242267
Si Si2 0.090039 0.056370 0.042096
Si Si3 0.500000 0.537861 0.750000
Si Si4 0.391403 0.355126 0.765567
Si Si5 0.745958 0.992815 0.189262
Si Si6 0.345195 0.766766 0.171968
Si Si7 0.863159 0.581136 0.521603
O O1 0.765532 0.428322 0.278824
O O2 0.790695 0.323808 0.188369
O O3 0.993811 0.388951 0.386127
O O4 0.826766 0.419552 0.120200
O O5 0.057001 0.109581 0.093951
O O6 0.233134 0.032552 0.190313
O O7 0.066975 0.069687 0.900614
O O8 0.000000 0.000000 0.000000
O O9 0.621235 0.501753 0.788000
O O10 0.500000 0.358299 0.750000
O O11 0.358808 0.288610 0.757040
O O12 0.254319 0.383980 0.623091
O O13 0.631936 0.019352 0.030180
O O14 0.500000 0.779226 0.250000
O O15 0.250000 0.750000 0.000000
#
# Coordination Sequence:
#
# PCOD9269081 Si02
#       7
#     8   8   4   8   8   8   8
#     4  11  20  35  53  77 114 150 180 233 278 345
#     4   9  20  31  50  79 112 142 176 231 281 340
#     4  10  20  34  48  80 110 138 194 228 278 342
#     4  10  21  32  57  83 113 144 181 233 295 335
#     4  10  21  31  54  74 109 150 188 230 286 323
#     4  11  20  35  55  84 116 147 188 233 290 348
#     4  10  20  34  50  78 113 141 186 222 280 349
#
# _framework density 17.905625000000001
#
# number of rings (size 3 to 8) (size 9 to 14) (size 15 to 20)
#    0.000    1.846    3.077    1.385   14.000    0.000 
#    0.000    0.000    0.000    0.923    0.000    4.308 
#    0.000    0.000    0.000    0.000    0.000    0.000 
#
# Total GULP energy -144783.617383 kJ/mol
# GULP energy per Si atom -5568.600669 kJ/mol
# Density = 1.786487 g / cm^3
# Si number density = 17.905625 Si / 1000 Ang^3
#
#
#
# Elastic Constant Matrix: (Units=GPa)
#
#
# Indices 1 2 3 4 5 6 
#
# 1 41.3189 26.1630 19.5280 0.0000 -5.8438 0.0000
# 2 26.1630 142.0028 45.2295 0.0000 -19.8759 0.0000
# 3 19.5280 45.2295 106.9061 0.0000 -14.8338 0.0000
# 4 0.0000 0.0000 0.0000 34.1929 0.0000 -5.7412
# 5 -5.8438 -19.8759 -14.8338 0.0000 24.0890 0.0000
# 6 0.0000 0.0000 0.0000 -5.7412 0.0000 23.3935
#
#
#
# Elastic Compliance Matrix: (Units=1/GPa)
#
#
# Indices 1 2 3 4 5 6 
#
# 1 0.028507 -0.003976 -0.003303 0.000000 0.001601 0.000000
# 2 -0.003976 0.009290 -0.002487 0.000000 0.005169 0.000000
# 3 -0.003303 -0.002487 0.011605 0.000000 0.004293 0.000000
# 4 0.000000 0.000000 0.000000 0.030503 0.000000 0.007486
# 5 0.001601 0.005169 0.004293 0.000000 0.048810 0.000000
# 6 0.000000 0.000000 0.000000 0.007486 0.000000 0.044584
#
#
# Mechanical properties :
#
#
# Convention : Reuss Voigt Hill
#
# Bulk Modulus (GPa) = 33.47762 52.45209 42.96485
# Shear Modulus (GPa) = 24.65623 29.62225 27.13924
#
# Velocity S-wave (km/s) = 3.71483 4.07179 3.89740
# Velocity P-wave (km/s) = 6.09404 7.17378 6.65584
#
# Compressibility (1/GPa) = 0.02987070
#
# Stress axis : x y z
#
# Youngs Moduli (GPa) = 35.07901 107.63836 86.16826
#
# Poissons Ratio (x) = 0.42798 0.28461
# Poissons Ratio (y) = 0.13948 0.21430
# Poissons Ratio (z) = 0.11586 0.26769
#
# Static dielectric constant tensor:
#      x y z
#    x 1.637420 0.000000 0.033240 
#    y 0.000000 1.665420 0.000000 
#    z 0.033240 0.000000 1.708790 
# 
# From -- ./inp_files/100517.got.cif
#   From: 2010.05.17/outbox.cif.g08.bks.cpg/sg15_51_cif.got.tgz:100517.got - 2010.06.03 18:47:42.
