data_PCOD9269654
_publ_section_title
;
Structure prediction by ZEFSAII (Michael W. Deem and Ramdas Pophale) SiO2 
 PCOD9269654
Probable space group: C 2/C
;
_chemical_formula_sum "Si O2"
_cell_formula_units_Z 48
_cell_length_a 23.799659
_cell_length_b 9.247549
_cell_length_c 12.613921
_cell_angle_alpha 90.000000
_cell_angle_beta 115.433892
_cell_angle_gamma 90.000000
_cell_volume 2507.115743
_symmetry_space_group_name_H-M "C 2/C"
_symmetry_group_IT_number 15
_symmetry_cell_setting 'monoclinic'
loop_
_space_group_symop_operation_xyz
x,y,z
-x,y,1/2-z
-x,-y,-z
x,-y,1/2+z
1/2+x,1/2+y,z
1/2-x,1/2+y,1/2-z
1/2-x,1/2-y,-z
1/2+x,1/2-y,1/2+z
loop_
_atom_site_type_symbol
_atom_site_label
_atom_site_fract_x
_atom_site_fract_y
_atom_site_fract_z
Si Si1 0.639486 0.217161 0.165347
Si Si2 0.071461 0.784438 0.332863
Si Si3 0.276611 0.108813 0.577819
Si Si4 0.349627 0.493960 0.958652
Si Si5 0.133655 0.460453 0.003715
Si Si6 0.785830 0.751043 0.806241
O O1 0.605979 0.251308 0.249180
O O2 0.632469 0.351902 0.077194
O O3 0.713576 0.205992 0.249398
O O4 0.619017 0.070915 0.087542
O O5 0.102426 0.916638 0.423753
O O6 0.080231 0.643239 0.415349
O O7 0.000000 0.813200 0.250000
O O8 0.250000 0.250000 0.500000
O O9 0.294249 0.156493 0.708956
O O10 0.216830 0.005086 0.535264
O O11 0.336140 0.052531 0.565464
O O12 0.331241 0.388546 0.846327
O O13 0.189801 0.351777 0.081198
#
# Coordination Sequence:
#
# PCOD9269654 Si02
#       6
#     8   8   8   8   8   8
#     4  11  21  37  62  85 119 150 192 239 296 347
#     4  11  26  43  58  80 116 161 209 245 273 325
#     4  11  20  32  61  92 122 142 176 232 298 365
#     4  10  22  37  61  89 119 152 188 236 297 349
#     4  11  21  38  59  89 119 155 189 233 294 351
#     4  10  20  34  58  93 125 147 177 233 301 362
#
# _framework density 19.145506000000001
#
# number of rings (size 3 to 8) (size 9 to 14) (size 15 to 20)
#    0.000    1.333    3.333    5.000    2.333    4.000 
#    0.000    0.833    0.000    0.000    0.000    0.000 
#    0.000    0.000    0.000    0.000    0.000    0.000 
#
# Total GULP energy -133920.911207 kJ/mol
# GULP energy per Si atom -5580.037967 kJ/mol
# Density = 1.910193 g / cm^3
# Si number density = 19.145506 Si / 1000 Ang^3
#
#
#
# Elastic Constant Matrix: (Units=GPa)
#
#
# Indices 1 2 3 4 5 6 
#
# 1 27.3104 21.3279 47.9200 0.0000 9.4043 0.0000
# 2 21.3279 100.7203 41.6193 0.0000 16.4087 0.0000
# 3 47.9200 41.6193 99.4354 0.0000 21.2081 0.0000
# 4 0.0000 0.0000 0.0000 26.2923 0.0000 -1.6166
# 5 9.4043 16.4087 21.2081 0.0000 26.1532 0.0000
# 6 0.0000 0.0000 0.0000 -1.6166 0.0000 11.1341
#
#
#
# Elastic Compliance Matrix: (Units=1/GPa)
#
#
# Indices 1 2 3 4 5 6 
#
# 1 0.240615 -0.004638 -0.116298 0.000000 0.010696 0.000000
# 2 -0.004638 0.012484 -0.002026 0.000000 -0.004522 0.000000
# 3 -0.116298 -0.002026 0.069840 0.000000 -0.013544 0.000000
# 4 0.000000 0.000000 0.000000 0.038377 0.000000 0.005572
# 5 0.010696 -0.004522 -0.013544 0.000000 0.048211 0.000000
# 6 0.000000 0.000000 0.000000 0.005572 0.000000 0.090623
#
#
# Mechanical properties :
#
#
# Convention : Reuss Voigt Hill
#
# Bulk Modulus (GPa) = 12.98412 49.91117 31.44765
# Shear Modulus (GPa) = 6.47882 20.48919 13.48401
#
# Velocity S-wave (km/s) = 1.84156 3.27491 2.65673
# Velocity P-wave (km/s) = 3.36427 6.35815 5.08647
#
# Compressibility (1/GPa) = 0.07701713
#
# Stress axis : x y z
#
# Youngs Moduli (GPa) = 4.15601 80.09988 14.31847
#
# Poissons Ratio (x) = 0.37148 1.66521
# Poissons Ratio (y) = 0.01927 0.02901
# Poissons Ratio (z) = 0.48333 0.16227
#
# Static dielectric constant tensor:
#      x y z
#    x 1.633280 0.000000 -0.033990 
#    y 0.000000 1.737540 0.000000 
#    z -0.033990 0.000000 1.676260 
# 
# From -- ./inp_files/116725.got.cif
#   From: 2010.05.17/outbox.cif.g08.bks.cpg/sg15_59_cif.got.tgz:116725.got - 2010.06.03 18:47:42.
