data_PCOD9269370
_publ_section_title
;
Structure prediction by ZEFSAII (Michael W. Deem and Ramdas Pophale) SiO2 
 PCOD9269370
Probable space group: C 2/C
;
_chemical_formula_sum "Si O2"
_cell_formula_units_Z 64
_cell_length_a 23.867647
_cell_length_b 16.323073
_cell_length_c 10.927015
_cell_angle_alpha 90.000000
_cell_angle_beta 40.535246
_cell_angle_gamma 90.000000
_cell_volume 2766.751115
_symmetry_space_group_name_H-M "C 2/C"
_symmetry_group_IT_number 15
_symmetry_cell_setting 'monoclinic'
loop_
_space_group_symop_operation_xyz
x,y,z
-x,y,1/2-z
-x,-y,-z
x,-y,1/2+z
1/2+x,1/2+y,z
1/2-x,1/2+y,1/2-z
1/2-x,1/2-y,-z
1/2+x,1/2-y,1/2+z
loop_
_atom_site_type_symbol
_atom_site_label
_atom_site_fract_x
_atom_site_fract_y
_atom_site_fract_z
Si Si1 0.659195 0.064378 0.554101
Si Si2 0.806359 0.110926 0.012952
Si Si3 0.061238 0.184479 0.535336
Si Si4 0.369188 0.819629 0.624494
Si Si5 0.469002 0.069004 0.145557
Si Si6 0.854329 0.648368 0.659353
Si Si7 0.710124 0.465374 0.313208
Si Si8 0.915467 0.140817 0.592648
O O1 0.623024 0.122907 0.506831
O O2 0.657504 0.116494 0.681715
O O3 0.597933 0.985755 0.668926
O O4 0.749160 0.026342 0.356078
O O5 0.730128 0.173071 0.170730
O O6 0.775857 0.018121 0.085895
O O7 0.880505 0.119348 0.991255
O O8 0.845558 0.130702 0.817662
O O9 0.124558 0.255808 0.383172
O O10 0.000000 0.215537 0.750000
O O11 0.005126 0.147117 0.517883
O O12 0.421152 0.859527 0.650542
O O13 0.401335 0.728076 0.551831
O O14 0.557961 0.109096 0.041063
O O15 0.500000 0.000000 0.000000
O O16 0.772090 0.614038 0.723395
O O17 0.614032 0.432538 0.447009
#
# Coordination Sequence:
#
# PCOD9269370 Si02
#       8
#     8   8   8   8   8   8   8   8
#     4  10  22  37  58  92 130 163 202 260 311 382
#     4  10  22  41  62  90 123 161 211 260 310 369
#     4  10  23  41  63  90 122 162 205 260 311 371
#     4  11  21  38  61  93 125 166 209 252 319 374
#     4  10  20  34  55  89 130 165 193 243 308 380
#     4  11  22  38  58  92 129 161 205 249 320 375
#     4  11  23  39  65  91 121 168 211 258 313 366
#     4  11  22  42  64  90 122 164 216 260 308 377
#
# _framework density 23.131824000000002
#
# number of rings (size 3 to 8) (size 9 to 14) (size 15 to 20)
#    0.000    1.500    1.250    5.625    1.750    5.500 
#    0.000    6.875    0.000    0.000    0.000    0.000 
#    0.000    0.000    0.000    0.000    0.000    0.000 
#
# Total GULP energy -178754.309436 kJ/mol
# GULP energy per Si atom -5586.072170 kJ/mol
# Density = 2.307918 g / cm^3
# Si number density = 23.131824 Si / 1000 Ang^3
#
#
#
# Elastic Constant Matrix: (Units=GPa)
#
#
# Indices 1 2 3 4 5 6 
#
# 1 95.7423 18.5260 3.5474 0.0000 -3.1964 0.0000
# 2 18.5260 76.8447 12.2099 0.0000 5.2210 0.0000
# 3 3.5474 12.2099 31.9991 0.0000 13.3429 0.0000
# 4 0.0000 0.0000 0.0000 6.8949 0.0000 13.4676
# 5 -3.1964 5.2210 13.3429 0.0000 28.4610 0.0000
# 6 0.0000 0.0000 0.0000 13.4676 0.0000 33.7394
#
#
#
# Elastic Compliance Matrix: (Units=1/GPa)
#
#
# Indices 1 2 3 4 5 6 
#
# 1 0.011075 -0.002639 -0.001170 0.000000 0.002276 0.000000
# 2 -0.002639 0.014482 -0.004974 0.000000 -0.000621 0.000000
# 3 -0.001170 -0.004974 0.040960 0.000000 -0.018422 0.000000
# 4 0.000000 0.000000 0.000000 0.658308 0.000000 -0.262774
# 5 0.002276 -0.000621 -0.018422 0.000000 0.044142 0.000000
# 6 0.000000 0.000000 0.000000 -0.262774 0.000000 0.134529
#
#
# Mechanical properties :
#
#
# Convention : Reuss Voigt Hill
#
# Bulk Modulus (GPa) = 20.42890 30.35031 25.38960
# Shear Modulus (GPa) = 5.33402 25.17256 15.25329
#
# Velocity S-wave (km/s) = 1.52017 3.30240 2.57068
# Velocity P-wave (km/s) = 3.45426 5.26215 4.45096
#
# Compressibility (1/GPa) = 0.04895025
#
# Stress axis : x y z
#
# Youngs Moduli (GPa) = 90.29648 69.05133 24.41399
#
# Poissons Ratio (x) = 0.18220 0.02857
# Poissons Ratio (y) = 0.23826 0.12145
# Poissons Ratio (z) = 0.10566 0.34350
#
# Static dielectric constant tensor:
#      x y z
#    x 1.914200 0.000000 0.012640 
#    y 0.000000 1.862960 0.000000 
#    z 0.012640 0.000000 1.910970 
# 
# From -- ./inp_files/123484.got.cif
#   From: 2010.05.17/outbox.cif.g08.bks.cpg/sg15_62_cif.got.tgz:123484.got - 2010.06.03 18:47:42.
