data_PCOD9269616
_publ_section_title
;
Structure prediction by ZEFSAII (Michael W. Deem and Ramdas Pophale) SiO2 
 PCOD9269616
Probable space group: C 2/C
;
_chemical_formula_sum "Si O2"
_cell_formula_units_Z 32
_cell_length_a 8.763699
_cell_length_b 13.064878
_cell_length_c 9.681716
_cell_angle_alpha 90.000000
_cell_angle_beta 97.626897
_cell_angle_gamma 90.000000
_cell_volume 1098.717397
_symmetry_space_group_name_H-M "C 2/C"
_symmetry_group_IT_number 15
_symmetry_cell_setting 'monoclinic'
loop_
_space_group_symop_operation_xyz
x,y,z
-x,y,1/2-z
-x,-y,-z
x,-y,1/2+z
1/2+x,1/2+y,z
1/2-x,1/2+y,1/2-z
1/2-x,1/2-y,-z
1/2+x,1/2-y,1/2+z
loop_
_atom_site_type_symbol
_atom_site_label
_atom_site_fract_x
_atom_site_fract_y
_atom_site_fract_z
Si Si1 0.994641 0.797794 0.000260
Si Si2 0.693887 0.997739 0.111421
Si Si3 0.000000 0.000000 0.500000
Si Si4 0.323709 0.124432 0.143555
Si Si5 0.000000 0.336007 0.250000
O O1 0.861327 0.869265 0.907549
O O2 0.063781 0.732812 0.883976
O O3 0.088244 0.891584 0.068898
O O4 0.901051 0.726615 0.094382
O O5 0.649945 0.097461 0.194979
O O6 0.875732 0.998716 0.114365
O O7 0.630423 0.902565 0.192166
O O8 0.632371 0.970302 0.950563
#
# Coordination Sequence:
#
# PCOD9269616 Si02
#       5
#     8   8   4   8   4
#     4   9  18  34  61  86 113 153 195 234 285 346
#     4  10  21  35  60  88 115 151 194 240 288 340
#     4  10  20  34  58  88 114 148 196 240 280 338
#     4   9  19  37  61  87 115 152 193 236 289 343
#     4  10  20  36  62  86 112 154 196 236 288 344
#
# _framework density 29.124866999999998
#
# number of rings (size 3 to 8) (size 9 to 14) (size 15 to 20)
#    0.000    2.500    0.000    3.000    0.000    7.000 
#    0.000    0.000    0.000  102.000    0.000    0.000 
#    0.000    0.000    0.000    0.000    0.000    0.000 
#
# Total GULP energy -89172.276971 kJ/mol
# GULP energy per Si atom -5573.267311 kJ/mol
# Density = 2.905858 g / cm^3
# Si number density = 29.124867 Si / 1000 Ang^3
#
#
#
# Elastic Constant Matrix: (Units=GPa)
#
#
# Indices 1 2 3 4 5 6 
#
# 1 100.2564 33.8442 64.5010 0.0000 -13.6049 0.0000
# 2 33.8442 125.1288 61.1810 0.0000 -34.5105 0.0000
# 3 64.5010 61.1810 158.1155 0.0000 -22.8356 0.0000
# 4 0.0000 0.0000 0.0000 56.2946 0.0000 -11.3223
# 5 -13.6049 -34.5105 -22.8356 0.0000 70.6158 0.0000
# 6 0.0000 0.0000 0.0000 -11.3223 0.0000 36.8116
#
#
#
# Elastic Compliance Matrix: (Units=1/GPa)
#
#
# Indices 1 2 3 4 5 6 
#
# 1 0.013680 -0.001082 -0.005096 0.000000 0.000459 0.000000
# 2 -0.001082 0.010995 -0.003217 0.000000 0.004124 0.000000
# 3 -0.005096 -0.003217 0.009734 0.000000 0.000594 0.000000
# 4 0.000000 0.000000 0.000000 0.018935 0.000000 0.005824
# 5 0.000459 0.004124 0.000594 0.000000 0.016457 0.000000
# 6 0.000000 0.000000 0.000000 0.005824 0.000000 0.028957
#
#
# Mechanical properties :
#
#
# Convention : Reuss Voigt Hill
#
# Bulk Modulus (GPa) = 64.02440 78.06149 71.04294
# Shear Modulus (GPa) = 40.73159 47.67604 44.20382
#
# Velocity S-wave (km/s) = 3.74373 4.05032 3.90004
# Velocity P-wave (km/s) = 6.38105 6.98097 6.68774
#
# Compressibility (1/GPa) = 0.01561904
#
# Stress axis : x y z
#
# Youngs Moduli (GPa) = 73.09731 90.94988 102.73403
#
# Poissons Ratio (x) = 0.09842 0.52351
# Poissons Ratio (y) = 0.07910 0.33053
# Poissons Ratio (z) = 0.37248 0.29262
#
# Static dielectric constant tensor:
#      x y z
#    x 1.752970 0.000000 -0.269420 
#    y 0.000000 0.785810 0.000000 
#    z -0.269420 0.000000 2.068820 
# 
# From -- ./inp_files/84320.got.cif
#   From: 2010.05.17/outbox.cif.g08.bks.cpg/sg15_43_cif.got.tgz:84320.got - 2010.06.03 18:47:42.
