data_PCOD9269581
_publ_section_title
;
Structure prediction by ZEFSAII (Michael W. Deem and Ramdas Pophale) SiO2 
 PCOD9269581
Probable space group: C 2/C
;
_chemical_formula_sum "Si O2"
_cell_formula_units_Z 48
_cell_length_a 19.540394
_cell_length_b 14.810428
_cell_length_c 11.634785
_cell_angle_alpha 90.000000
_cell_angle_beta 37.291587
_cell_angle_gamma 90.000000
_cell_volume 2040.045608
_symmetry_space_group_name_H-M "C 2/C"
_symmetry_group_IT_number 15
_symmetry_cell_setting 'monoclinic'
loop_
_space_group_symop_operation_xyz
x,y,z
-x,y,1/2-z
-x,-y,-z
x,-y,1/2+z
1/2+x,1/2+y,z
1/2-x,1/2+y,1/2-z
1/2-x,1/2-y,-z
1/2+x,1/2-y,1/2+z
loop_
_atom_site_type_symbol
_atom_site_label
_atom_site_fract_x
_atom_site_fract_y
_atom_site_fract_z
Si Si1 0.602374 0.671051 0.730480
Si Si2 0.878052 0.014715 0.222152
Si Si3 0.097485 0.789926 0.822473
Si Si4 0.823693 0.708711 0.576630
Si Si5 0.464698 0.900573 0.172315
Si Si6 0.336553 0.018566 0.656492
O O1 0.621321 0.564310 0.683828
O O2 0.705203 0.693017 0.676310
O O3 0.614524 0.729796 0.600393
O O4 0.495821 0.691433 0.953496
O O5 0.874878 0.116238 0.273462
O O6 0.779644 0.004488 0.255407
O O7 0.000000 0.000000 0.000000
O O8 0.056384 0.706050 0.803489
O O9 0.196958 0.755683 0.772759
O O10 0.878006 0.610579 0.533568
O O11 0.500000 0.932221 0.250000
O O12 0.353325 0.946660 0.265573
O O13 0.577168 0.934312 0.956269
#
# Coordination Sequence:
#
# PCOD9269581 Si02
#       6
#     8   8   8   8   8   8
#     4   9  18  34  56  86 117 152 200 247 300 367
#     4   9  19  38  59  87 126 167 200 245 315 380
#     4  10  20  34  58  82 121 160 192 252 309 368
#     4   9  18  33  57  88 114 150 202 250 304 352
#     4  10  22  40  60  91 118 160 215 256 313 368
#     4   9  20  39  64  88 122 160 206 267 311 361
#
# _framework density 23.528884000000001
#
# number of rings (size 3 to 8) (size 9 to 14) (size 15 to 20)
#    0.000    2.667    0.000    0.500    2.333    4.000 
#    6.000    5.833    0.000    0.000    0.000    0.000 
#    0.000    0.000    0.000    0.000    0.000    0.000 
#
# Total GULP energy -133663.798089 kJ/mol
# GULP energy per Si atom -5569.324920 kJ/mol
# Density = 2.347533 g / cm^3
# Si number density = 23.528884 Si / 1000 Ang^3
#
#
#
# Elastic Constant Matrix: (Units=GPa)
#
#
# Indices 1 2 3 4 5 6 
#
# 1 101.0609 16.8137 11.4465 0.0000 -10.2412 0.0000
# 2 16.8137 120.3549 6.3978 0.0000 -6.8909 0.0000
# 3 11.4465 6.3978 11.2821 0.0000 -8.0041 0.0000
# 4 0.0000 0.0000 0.0000 15.8167 0.0000 -13.1430
# 5 -10.2412 -6.8909 -8.0041 0.0000 25.5794 0.0000
# 6 0.0000 0.0000 0.0000 -13.1430 0.0000 4.0114
#
#
#
# Elastic Compliance Matrix: (Units=1/GPa)
#
#
# Indices 1 2 3 4 5 6 
#
# 1 0.011319 -0.000979 -0.010155 0.000000 0.001090 0.000000
# 2 -0.000979 0.008672 -0.003271 0.000000 0.000921 0.000000
# 3 -0.010155 -0.003271 0.125044 0.000000 0.034181 0.000000
# 4 0.000000 0.000000 0.000000 -0.036703 0.000000 -0.120256
# 5 0.001090 0.000921 0.034181 0.000000 0.050474 0.000000
# 6 0.000000 0.000000 0.000000 -0.120256 0.000000 -0.144719
#
#
# Mechanical properties :
#
#
# Convention : Reuss Voigt Hill
#
# Bulk Modulus (GPa) = 8.60408 33.55709 21.08059
# Shear Modulus (GPa) = 61.24650 22.28416 41.76533
#
# Velocity S-wave (km/s) = 5.10753 3.08083 4.21772
# Velocity P-wave (km/s) = 6.20058 5.19119 5.71820
#
# Compressibility (1/GPa) = 0.11622395
#
# Stress axis : x y z
#
# Youngs Moduli (GPa) = 88.35053 115.31193 7.99721
#
# Poissons Ratio (x) = 0.11289 0.08121
# Poissons Ratio (y) = 0.08649 0.02616
# Poissons Ratio (z) = 0.89718 0.37723
#
# Static dielectric constant tensor:
#      x y z
#    x 1.940090 0.000000 0.022930 
#    y 0.000000 2.024590 0.000000 
#    z 0.022930 0.000000 2.008840 
# 
# From -- ./inp_files/112919.got.cif
#   From: 2010.05.17/outbox.cif.g08.bks.cpg/sg15_57_cif.got.tgz:112919.got - 2010.06.03 18:47:42.
