data_PCOD9269895
_publ_section_title
;
Structure prediction by ZEFSAII (Michael W. Deem and Ramdas Pophale) SiO2 
 PCOD9269895
Probable space group: C 2/C
;
_chemical_formula_sum "Si O2"
_cell_formula_units_Z 40
_cell_length_a 12.124262
_cell_length_b 14.285708
_cell_length_c 11.928634
_cell_angle_alpha 90.000000
_cell_angle_beta 87.705725
_cell_angle_gamma 90.000000
_cell_volume 2064.426975
_symmetry_space_group_name_H-M "C 2/C"
_symmetry_group_IT_number 15
_symmetry_cell_setting 'monoclinic'
loop_
_space_group_symop_operation_xyz
x,y,z
-x,y,1/2-z
-x,-y,-z
x,-y,1/2+z
1/2+x,1/2+y,z
1/2-x,1/2+y,1/2-z
1/2-x,1/2-y,-z
1/2+x,1/2-y,1/2+z
loop_
_atom_site_type_symbol
_atom_site_label
_atom_site_fract_x
_atom_site_fract_y
_atom_site_fract_z
Si Si1 0.888348 0.659911 0.178691
Si Si2 0.206925 0.493982 0.669176
Si Si3 0.368575 0.633171 0.747376
Si Si4 0.215766 0.647633 0.960140
Si Si5 0.474440 0.900644 0.442817
O O1 0.817374 0.570849 0.221714
O O2 0.839322 0.761110 0.210144
O O3 0.000000 0.651591 0.250000
O O4 0.916783 0.656025 0.046335
O O5 0.317785 0.553670 0.671204
O O6 0.210976 0.421905 0.565853
O O7 0.108717 0.569200 0.651787
O O8 0.500000 0.628107 0.750000
O O9 0.306904 0.617504 0.867250
O O10 0.092382 0.645688 0.912589
O O11 0.250000 0.750000 0.000000
O O12 0.500000 0.000000 0.500000
#
# Coordination Sequence:
#
# PCOD9269895 Si02
#       5
#     8   8   8   8   8
#     4  11  19  39  62  87 121 153 196 250 296 347
#     4  11  22  38  64  89 119 153 204 255 286 352
#     4  11  25  40  58  86 123 165 193 238 311 361
#     4  11  20  39  63  88 118 157 199 240 302 360
#     4  10  20  34  64  95 109 149 205 255 291 336
#
# _framework density 19.375834999999999
#
# number of rings (size 3 to 8) (size 9 to 14) (size 15 to 20)
#    0.000    1.200    6.000    3.600    0.000    1.600 
#    0.000    2.000    0.000    0.000    0.000    0.000 
#    0.000    0.000    0.000    0.000    0.000    0.000 
#
# Total GULP energy -111634.325392 kJ/mol
# GULP energy per Si atom -5581.716270 kJ/mol
# Density = 1.933173 g / cm^3
# Si number density = 19.375835 Si / 1000 Ang^3
#
#
#
# Elastic Constant Matrix: (Units=GPa)
#
#
# Indices 1 2 3 4 5 6 
#
# 1 113.0323 58.7654 33.0442 0.0000 -12.5884 0.0000
# 2 58.7654 106.9062 21.1652 0.0000 8.1785 0.0000
# 3 33.0442 21.1652 74.7056 0.0000 -21.3759 0.0000
# 4 0.0000 0.0000 0.0000 23.2368 0.0000 -7.1297
# 5 -12.5884 8.1785 -21.3759 0.0000 28.5247 0.0000
# 6 0.0000 0.0000 0.0000 -7.1297 0.0000 37.8118
#
#
#
# Elastic Compliance Matrix: (Units=1/GPa)
#
#
# Indices 1 2 3 4 5 6 
#
# 1 0.014445 -0.008081 -0.002053 0.000000 0.007153 0.000000
# 2 -0.008081 0.015406 -0.003914 0.000000 -0.010917 0.000000
# 3 -0.002053 -0.003914 0.019686 0.000000 0.014968 0.000000
# 4 0.000000 0.000000 0.000000 0.045678 0.000000 0.008613
# 5 0.007153 -0.010917 0.014968 0.000000 0.052561 0.000000
# 6 0.000000 0.000000 0.000000 0.008613 0.000000 0.028071
#
#
# Mechanical properties :
#
#
# Convention : Reuss Voigt Hill
#
# Bulk Modulus (GPa) = 46.64005 57.84375 52.24190
# Shear Modulus (GPa) = 23.68653 30.02596 26.85625
#
# Velocity S-wave (km/s) = 3.50019 3.94084 3.72703
# Velocity P-wave (km/s) = 6.36071 7.11515 6.74848
#
# Compressibility (1/GPa) = 0.02144080
#
# Stress axis : x y z
#
# Youngs Moduli (GPa) = 69.22644 64.90908 50.79792
#
# Poissons Ratio (x) = 0.52455 0.10430
# Poissons Ratio (y) = 0.55943 0.19882
# Poissons Ratio (z) = 0.14213 0.25405
#
# Static dielectric constant tensor:
#      x y z
#    x 1.699060 0.000000 -0.009710 
#    y 0.000000 1.715470 0.000000 
#    z -0.009710 0.000000 2.036230 
# 
# From -- ./inp_files/85499.got.cif
#   From: 2010.05.17/outbox.cif.g08.bks.cpg/sg15_43_cif.got.tgz:85499.got - 2010.06.03 18:47:42.
