data_PCOD9269241
_publ_section_title
;
Structure prediction by ZEFSAII (Michael W. Deem and Ramdas Pophale) SiO2 
 PCOD9269241
Probable space group: C 2/C
;
_chemical_formula_sum "Si O2"
_cell_formula_units_Z 40
_cell_length_a 8.908665
_cell_length_b 27.860179
_cell_length_c 11.329133
_cell_angle_alpha 90.000000
_cell_angle_beta 42.789332
_cell_angle_gamma 90.000000
_cell_volume 1910.107506
_symmetry_space_group_name_H-M "C 2/C"
_symmetry_group_IT_number 15
_symmetry_cell_setting 'monoclinic'
loop_
_space_group_symop_operation_xyz
x,y,z
-x,y,1/2-z
-x,-y,-z
x,-y,1/2+z
1/2+x,1/2+y,z
1/2-x,1/2+y,1/2-z
1/2-x,1/2-y,-z
1/2+x,1/2-y,1/2+z
loop_
_atom_site_type_symbol
_atom_site_label
_atom_site_fract_x
_atom_site_fract_y
_atom_site_fract_z
Si Si1 0.286596 0.101174 0.790264
Si Si2 0.710159 0.803028 0.714436
Si Si3 0.378192 0.698016 0.694513
Si Si4 0.135256 0.101288 0.291802
Si Si5 0.863311 0.997081 0.204492
O O1 0.500000 0.100210 0.750000
O O2 0.278038 0.151787 0.726281
O O3 0.276697 0.051688 0.722768
O O4 0.057782 0.100739 0.997559
O O5 0.500000 0.802599 0.750000
O O6 0.721701 0.750909 0.767952
O O7 0.710752 0.852313 0.786386
O O8 0.928332 0.805912 0.511083
O O9 0.500000 0.697189 0.750000
O O10 0.000000 0.105289 0.250000
O O11 0.252755 0.049369 0.226374
O O12 0.000000 0.994856 0.250000
O O13 0.000000 0.000000 0.000000
#
# Coordination Sequence:
#
# PCOD9269241 Si02
#       5
#     8   8   8   8   8
#     4  10  21  35  55  82 109 142 183 225 274 328
#     4  10  20  34  54  78 103 138 180 221 269 325
#     4  10  20  35  53  77 107 139 178 224 270 325
#     4   9  20  37  54  76 109 141 176 222 273 327
#     4   9  18  37  58  79 111 148 183 228 277 327
#
# _framework density 20.941229
#
# number of rings (size 3 to 8) (size 9 to 14) (size 15 to 20)
#    0.000    2.400    0.000    3.000    0.000    4.800 
#    0.000   13.000    0.000    0.000    0.000    0.000 
#    0.000    0.000    0.000    0.000    0.000    0.000 
#
# Total GULP energy -111400.518128 kJ/mol
# GULP energy per Si atom -5570.025906 kJ/mol
# Density = 2.089357 g / cm^3
# Si number density = 20.941229 Si / 1000 Ang^3
#
#
#
# Elastic Constant Matrix: (Units=GPa)
#
#
# Indices 1 2 3 4 5 6 
#
# 1 72.1898 91.6741 2.9312 0.0000 2.7605 0.0000
# 2 91.6741 292.3290 18.5896 0.0000 -4.3246 0.0000
# 3 2.9312 18.5896 49.4998 0.0000 -0.7444 0.0000
# 4 0.0000 0.0000 0.0000 16.1874 0.0000 3.9649
# 5 2.7605 -4.3246 -0.7444 0.0000 22.9937 0.0000
# 6 0.0000 0.0000 0.0000 3.9649 0.0000 43.6591
#
#
#
# Elastic Compliance Matrix: (Units=1/GPa)
#
#
# Indices 1 2 3 4 5 6 
#
# 1 0.023508 -0.007521 0.001370 0.000000 -0.004193 0.000000
# 2 -0.007521 0.005920 -0.001748 0.000000 0.001960 0.000000
# 3 0.001370 -0.001748 0.020780 0.000000 0.000180 0.000000
# 4 0.000000 0.000000 0.000000 0.063182 0.000000 -0.005738
# 5 -0.004193 0.001960 0.000180 0.000000 0.044368 0.000000
# 6 0.000000 0.000000 0.000000 -0.005738 0.000000 0.023426
#
#
# Mechanical properties :
#
#
# Convention : Reuss Voigt Hill
#
# Bulk Modulus (GPa) = 29.06282 71.15648 50.10965
# Shear Modulus (GPa) = 23.98614 36.62294 30.30454
#
# Velocity S-wave (km/s) = 3.38805 4.18645 3.80823
# Velocity P-wave (km/s) = 5.40496 7.57769 6.58160
#
# Compressibility (1/GPa) = 0.03440822
#
# Stress axis : x y z
#
# Youngs Moduli (GPa) = 42.53781 168.92863 48.12255
#
# Poissons Ratio (x) = 1.27057 -0.06590
# Poissons Ratio (y) = 0.31994 0.08413
# Poissons Ratio (z) = -0.05826 0.29533
#
# Static dielectric constant tensor:
#      x y z
#    x 2.017010 0.000000 0.489360 
#    y 0.000000 1.855030 0.000000 
#    z 0.489360 0.000000 2.510870 
# 
# From -- ./inp_files/24413.got.cif
#   From: 2010.05.17/outbox.cif.g08.bks.cpg/sg15_13_cif.got.tgz:24413.got - 2010.06.03 18:47:42.
