data_PCOD9269769
_publ_section_title
;
Structure prediction by ZEFSAII (Michael W. Deem and Ramdas Pophale) SiO2 
 PCOD9269769
Probable space group: C 2/C
;
_chemical_formula_sum "Si O2"
_cell_formula_units_Z 60
_cell_length_a 22.230860
_cell_length_b 8.426417
_cell_length_c 21.275402
_cell_angle_alpha 90.000000
_cell_angle_beta 130.825440
_cell_angle_gamma 90.000000
_cell_volume 3015.806730
_symmetry_space_group_name_H-M "C 2/C"
_symmetry_group_IT_number 15
_symmetry_cell_setting 'monoclinic'
loop_
_space_group_symop_operation_xyz
x,y,z
-x,y,1/2-z
-x,-y,-z
x,-y,1/2+z
1/2+x,1/2+y,z
1/2-x,1/2+y,1/2-z
1/2-x,1/2-y,-z
1/2+x,1/2-y,1/2+z
loop_
_atom_site_type_symbol
_atom_site_label
_atom_site_fract_x
_atom_site_fract_y
_atom_site_fract_z
Si Si1 0.184565 0.618968 0.685665
Si Si2 0.500000 0.783376 0.750000
Si Si3 0.757071 0.399319 0.957639
Si Si4 0.894945 0.614144 0.002316
Si Si5 0.321135 0.419175 0.729531
Si Si6 0.007712 0.845847 0.679985
Si Si7 0.448320 0.990487 0.830466
Si Si8 0.619434 0.407466 0.419691
O O1 0.129256 0.623277 0.586416
O O2 0.270024 0.565008 0.719557
O O3 0.187830 0.782203 0.725127
O O4 0.139970 0.496679 0.701936
O O5 0.434231 0.678637 0.669847
O O6 0.457627 0.892663 0.772897
O O7 0.843163 0.475015 0.001168
O O8 0.716256 0.362168 0.862416
O O9 0.703858 0.538712 0.951357
O O10 0.750000 0.250000 0.000000
O O11 0.874146 0.781808 0.020312
O O12 0.987346 0.581082 0.077641
O O13 0.414042 0.449173 0.782053
O O14 0.025304 0.671832 0.665246
O O15 0.000000 0.832365 0.750000
O O16 0.930667 0.932988 0.599791
#
# Coordination Sequence:
#
# PCOD9269769 Si02
#       8
#     8   4   8   8   8   8   8   8
#     4  10  23  41  57  82 120 159 198 236 288 361
#     4  10  20  34  60  92 110 152 194 250 306 336
#     4  11  22  38  59  87 119 154 199 246 302 347
#     4  10  23  37  56  86 121 157 193 241 301 352
#     4  10  23  39  61  85 115 159 198 242 291 351
#     4  11  19  37  63  88 118 148 196 250 291 350
#     4  10  21  37  61  86 117 158 196 242 294 356
#     4  11  21  36  58  88 121 146 190 256 300 346
#
# _framework density 19.895174000000001
#
# number of rings (size 3 to 8) (size 9 to 14) (size 15 to 20)
#    0.000    1.600    2.667    1.600    0.000    6.400 
#    0.000    2.667    0.000    0.000    0.000    0.000 
#    0.000    0.000    0.000    0.000    0.000    0.000 
#
# Total GULP energy -167577.779147 kJ/mol
# GULP energy per Si atom -5585.925972 kJ/mol
# Density = 1.984989 g / cm^3
# Si number density = 19.895174 Si / 1000 Ang^3
#
#
#
# Elastic Constant Matrix: (Units=GPa)
#
#
# Indices 1 2 3 4 5 6 
#
# 1 60.4131 2.8133 9.2398 0.0000 -5.7181 0.0000
# 2 2.8133 51.2482 -3.5511 0.0000 -18.1858 0.0000
# 3 9.2398 -3.5511 11.9959 0.0000 -9.4822 0.0000
# 4 0.0000 0.0000 0.0000 7.4198 0.0000 -1.2218
# 5 -5.7181 -18.1858 -9.4822 0.0000 31.3858 0.0000
# 6 0.0000 0.0000 0.0000 -1.2218 0.0000 37.2440
#
#
#
# Elastic Compliance Matrix: (Units=1/GPa)
#
#
# Indices 1 2 3 4 5 6 
#
# 1 0.019352 -0.004231 -0.020113 0.000000 -0.005002 0.000000
# 2 -0.004231 0.032421 0.035597 0.000000 0.028769 0.000000
# 3 -0.020113 0.035597 0.161324 0.000000 0.065700 0.000000
# 4 0.000000 0.000000 0.000000 0.135506 0.000000 0.004445
# 5 -0.005002 0.028769 0.065700 0.000000 0.067469 0.000000
# 6 0.000000 0.000000 0.000000 0.004445 0.000000 0.026996
#
#
# Mechanical properties :
#
#
# Convention : Reuss Voigt Hill
#
# Bulk Modulus (GPa) = 4.24443 15.62902 9.93672
# Shear Modulus (GPa) = 10.01812 22.88695 16.45254
#
# Velocity S-wave (km/s) = 2.24642 3.39540 2.87881
# Velocity P-wave (km/s) = 2.97767 4.82124 4.00693
#
# Compressibility (1/GPa) = 0.23560307
#
# Stress axis : x y z
#
# Youngs Moduli (GPa) = 51.67321 30.84448 6.19871
#
# Poissons Ratio (x) = 0.13051 0.12467
# Poissons Ratio (y) = 0.21864 -0.22066
# Poissons Ratio (z) = 1.03929 -1.09797
#
# Static dielectric constant tensor:
#      x y z
#    x 1.703130 0.000000 0.012660 
#    y 0.000000 1.701680 0.000000 
#    z 0.012660 0.000000 1.678680 
# 
# From -- ./inp_files/214311.got.cif
#   From: 2010.05.17/outbox.cif.g08.bks.cpg/sg15_108_cif.got.tgz:214311.got - 2010.06.03 18:47:42.
