data_PCOD9269447
_publ_section_title
;
Structure prediction by ZEFSAII (Michael W. Deem and Ramdas Pophale) SiO2 
 PCOD9269447
Probable space group: C 2/C
;
_chemical_formula_sum "Si O2"
_cell_formula_units_Z 52
_cell_length_a 17.761763
_cell_length_b 8.513692
_cell_length_c 16.611462
_cell_angle_alpha 90.000000
_cell_angle_beta 112.393090
_cell_angle_gamma 90.000000
_cell_volume 2322.533499
_symmetry_space_group_name_H-M "C 2/C"
_symmetry_group_IT_number 15
_symmetry_cell_setting 'monoclinic'
loop_
_space_group_symop_operation_xyz
x,y,z
-x,y,1/2-z
-x,-y,-z
x,-y,1/2+z
1/2+x,1/2+y,z
1/2-x,1/2+y,1/2-z
1/2-x,1/2-y,-z
1/2+x,1/2-y,1/2+z
loop_
_atom_site_type_symbol
_atom_site_label
_atom_site_fract_x
_atom_site_fract_y
_atom_site_fract_z
Si Si1 0.324600 0.179828 0.881520
Si Si2 0.500000 0.631238 0.750000
Si Si3 0.494693 0.313607 0.992460
Si Si4 0.311712 0.187367 0.679692
Si Si5 0.046433 0.173652 0.340754
Si Si6 0.853192 0.672402 0.374294
Si Si7 0.157954 0.660234 0.320400
O O1 0.401161 0.265468 0.952335
O O2 0.327234 0.198841 0.783432
O O3 0.239816 0.249430 0.878562
O O4 0.335461 0.996462 0.904745
O O5 0.497212 0.497921 0.678457
O O6 0.422985 0.739080 0.699988
O O7 0.532835 0.259271 0.922265
O O8 0.500000 0.500000 0.000000
O O9 0.554909 0.230150 0.079038
O O10 0.361605 0.323882 0.654031
O O11 0.215312 0.204497 0.625588
O O12 0.342013 0.022039 0.655603
O O13 0.000000 0.265236 0.250000
O O14 0.835903 0.651047 0.273545
#
# Coordination Sequence:
#
# PCOD9269447 Si02
#       7
#     8   4   8   8   8   8   8
#     4  10  20  39  59  86 121 155 197 242 295 356
#     4  10  20  34  56  86 112 152 200 248 292 338
#     4  12  23  38  61  89 122 157 198 244 300 350
#     4  10  20  38  62  88 115 157 202 239 293 353
#     4  10  22  38  61  84 119 159 196 242 292 353
#     4  10  22  36  61  89 119 157 195 248 298 348
#     4  10  21  36  62  89 117 153 204 247 288 355
#
# _framework density 22.389341999999999
#
# number of rings (size 3 to 8) (size 9 to 14) (size 15 to 20)
#    0.462    1.231    1.538    3.231    1.077    4.308 
#    0.000    1.538    0.000    6.462    0.000    0.000 
#    0.000    0.000    0.000    0.000    0.000    0.000 
#
# Total GULP energy -145007.788076 kJ/mol
# GULP energy per Si atom -5577.222618 kJ/mol
# Density = 2.233838 g / cm^3
# Si number density = 22.389342 Si / 1000 Ang^3
#
#
#
# Elastic Constant Matrix: (Units=GPa)
#
#
# Indices 1 2 3 4 5 6 
#
# 1 84.1797 15.8782 22.7962 0.0000 45.5264 0.0000
# 2 15.8782 96.4291 32.2959 0.0000 36.0070 0.0000
# 3 22.7962 32.2959 31.1126 0.0000 35.0932 0.0000
# 4 0.0000 0.0000 0.0000 14.5603 0.0000 7.0874
# 5 45.5264 36.0070 35.0932 0.0000 52.4990 0.0000
# 6 0.0000 0.0000 0.0000 7.0874 0.0000 42.7364
#
#
#
# Elastic Compliance Matrix: (Units=1/GPa)
#
#
# Indices 1 2 3 4 5 6 
#
# 1 0.027570 0.003130 0.024140 0.000000 -0.042191 0.000000
# 2 0.003130 0.016256 -0.014349 0.000000 -0.004271 0.000000
# 3 0.024140 -0.014349 0.170147 0.000000 -0.124828 0.000000
# 4 0.000000 0.000000 0.000000 0.074711 0.000000 -0.012390
# 5 -0.042191 -0.004271 -0.124828 0.000000 0.142006 0.000000
# 6 0.000000 0.000000 0.000000 -0.012390 0.000000 0.025454
#
#
# Mechanical properties :
#
#
# Convention : Reuss Voigt Hill
#
# Bulk Modulus (GPa) = 4.16992 39.29577 21.73284
# Shear Modulus (GPa) = 9.79930 31.34255 20.57093
#
# Velocity S-wave (km/s) = 2.09434 3.74557 3.03443
# Velocity P-wave (km/s) = 2.77756 6.02452 4.69094
#
# Compressibility (1/GPa) = 0.23981297
#
# Stress axis : x y z
#
# Youngs Moduli (GPa) = 36.27171 61.51672 5.87727
#
# Poissons Ratio (x) = -0.19253 -0.14188
# Poissons Ratio (y) = -0.11352 0.08433
# Poissons Ratio (z) = -0.87560 0.88272
#
# Static dielectric constant tensor:
#      x y z
#    x 1.872070 0.000000 -0.033230 
#    y 0.000000 1.856110 0.000000 
#    z -0.033230 0.000000 1.947950 
# 
# From -- ./inp_files/209693.got.cif
#   From: 2010.05.17/outbox.cif.g08.bks.cpg/sg15_105_cif.got.tgz:209693.got - 2010.06.03 18:47:42.
