data_PCOD9269079
_publ_section_title
;
Structure prediction by ZEFSAII (Michael W. Deem and Ramdas Pophale) SiO2 
 PCOD9269079
Probable space group: C 2/C
;
_chemical_formula_sum "Si O2"
_cell_formula_units_Z 32
_cell_length_a 21.362197
_cell_length_b 12.132691
_cell_length_c 5.476664
_cell_angle_alpha 90.000000
_cell_angle_beta 108.300109
_cell_angle_gamma 90.000000
_cell_volume 1347.658201
_symmetry_space_group_name_H-M "C 2/C"
_symmetry_group_IT_number 15
_symmetry_cell_setting 'monoclinic'
loop_
_space_group_symop_operation_xyz
x,y,z
-x,y,1/2-z
-x,-y,-z
x,-y,1/2+z
1/2+x,1/2+y,z
1/2-x,1/2+y,1/2-z
1/2-x,1/2-y,-z
1/2+x,1/2-y,1/2+z
loop_
_atom_site_type_symbol
_atom_site_label
_atom_site_fract_x
_atom_site_fract_y
_atom_site_fract_z
Si Si1 0.115546 0.978376 0.711418
Si Si2 0.759893 0.563393 0.924401
Si Si3 0.073828 0.570545 0.866517
Si Si4 0.321677 0.762402 0.208534
O O1 0.145404 0.856103 0.730530
O O2 0.079099 0.007369 0.420279
O O3 0.180030 0.060539 0.806477
O O4 0.776220 0.490636 0.703423
O O5 0.801631 0.673635 0.932614
O O6 0.078447 0.485457 0.640317
O O7 0.128790 0.661722 0.883574
O O8 0.000000 0.618455 0.750000
O O9 0.250000 0.750000 0.000000
#
# Coordination Sequence:
#
# PCOD9269079 Si02
#       4
#     8   8   8   8
#     4  10  22  35  48  79 121 152 191 245 307 367
#     4  10  20  34  48  78 119 149 191 243 309 364
#     4  10  24  46  68  94 130 171 218 267 320 388
#     4  12  22  36  64  92 123 168 209 268 321 379
#
# _framework density 23.744893999999999
#
# number of rings (size 3 to 8) (size 9 to 14) (size 15 to 20)
#    0.000    1.500    5.000    1.500    0.000    8.000 
#    0.000    0.000    0.000    1.500    0.000    0.000 
#    0.000    0.000    0.000    0.000    0.000    0.000 
#
# Total GULP energy -89404.010634 kJ/mol
# GULP energy per Si atom -5587.750665 kJ/mol
# Density = 2.369085 g / cm^3
# Si number density = 23.744894 Si / 1000 Ang^3
#
#
#
# Elastic Constant Matrix: (Units=GPa)
#
#
# Indices 1 2 3 4 5 6 
#
# 1 107.0674 20.4789 20.1359 0.0000 7.9617 0.0000
# 2 20.4789 90.8426 39.2263 0.0000 -16.1605 0.0000
# 3 20.1359 39.2263 139.6429 0.0000 -49.0261 0.0000
# 4 0.0000 0.0000 0.0000 27.3425 0.0000 -12.2513
# 5 7.9617 -16.1605 -49.0261 0.0000 42.2512 0.0000
# 6 0.0000 0.0000 0.0000 -12.2513 0.0000 37.8113
#
#
#
# Elastic Compliance Matrix: (Units=1/GPa)
#
#
# Indices 1 2 3 4 5 6 
#
# 1 0.010891 -0.002224 -0.003315 0.000000 -0.006750 0.000000
# 2 -0.002224 0.013018 -0.002431 0.000000 0.002577 0.000000
# 3 -0.003315 -0.002431 0.013862 0.000000 0.015780 0.000000
# 4 0.000000 0.000000 0.000000 0.042784 0.000000 0.013863
# 5 -0.006750 0.002577 0.015780 0.000000 0.044236 0.000000
# 6 0.000000 0.000000 0.000000 0.013863 0.000000 0.030939
#
#
# Mechanical properties :
#
#
# Convention : Reuss Voigt Hill
#
# Bulk Modulus (GPa) = 45.81099 55.24834 50.52966
# Shear Modulus (GPa) = 27.94115 38.66179 33.30147
#
# Velocity S-wave (km/s) = 3.43406 4.03949 3.74902
# Velocity P-wave (km/s) = 5.92103 6.71376 6.32982
#
# Compressibility (1/GPa) = 0.02182882
#
# Stress axis : x y z
#
# Youngs Moduli (GPa) = 91.82045 76.81806 72.13926
#
# Poissons Ratio (x) = 0.17087 0.23917
# Poissons Ratio (y) = 0.20424 0.17538
# Poissons Ratio (z) = 0.30442 0.18676
#
# Static dielectric constant tensor:
#      x y z
#    x 1.902020 0.000000 -0.043440 
#    y 0.000000 1.984720 0.000000 
#    z -0.043440 0.000000 1.959250 
# 
# From -- ./inp_files/14896.got.cif
#   From: 2010.05.17/outbox.cif.g08.bks.cpg/sg15_8_cif.got.tgz:14896.got - 2010.06.03 18:47:42.
