data_PCOD9269451
_publ_section_title
;
Structure prediction by ZEFSAII (Michael W. Deem and Ramdas Pophale) SiO2 
 PCOD9269451
Probable space group: C 2/C
;
_chemical_formula_sum "Si O2"
_cell_formula_units_Z 40
_cell_length_a 20.755953
_cell_length_b 12.384725
_cell_length_c 26.933519
_cell_angle_alpha 90.000000
_cell_angle_beta 161.035450
_cell_angle_gamma 90.000000
_cell_volume 2250.001972
_symmetry_space_group_name_H-M "C 2/C"
_symmetry_group_IT_number 15
_symmetry_cell_setting 'monoclinic'
loop_
_space_group_symop_operation_xyz
x,y,z
-x,y,1/2-z
-x,-y,-z
x,-y,1/2+z
1/2+x,1/2+y,z
1/2-x,1/2+y,1/2-z
1/2-x,1/2-y,-z
1/2+x,1/2-y,1/2+z
loop_
_atom_site_type_symbol
_atom_site_label
_atom_site_fract_x
_atom_site_fract_y
_atom_site_fract_z
Si Si1 0.305319 0.303043 0.372532
Si Si2 0.256500 0.220235 0.222519
Si Si3 0.908053 0.499457 0.817648
Si Si4 0.820396 0.098684 0.156974
Si Si5 0.272050 0.961641 0.323530
O O1 0.283486 0.249567 0.300974
O O2 0.535138 0.321210 0.550929
O O3 0.184727 0.414746 0.287806
O O4 0.231749 0.215516 0.358808
O O5 0.261642 0.334443 0.197621
O O6 0.405273 0.129494 0.309814
O O7 0.759108 0.510927 0.756401
O O8 0.123765 0.546231 0.988905
O O9 0.000000 0.101639 0.250000
O O10 0.861762 0.025502 0.235606
O O11 0.500000 0.000000 0.500000
#
# Coordination Sequence:
#
# PCOD9269451 Si02
#       5
#     8   8   8   8   8
#     4  11  19  35  56  89 114 147 190 243 295 333
#     4  11  19  34  63  85 116 140 197 255 279 332
#     4  10  20  34  56  86 114 146 201 241 283 337
#     4  11  21  37  58  82 122 161 189 228 293 366
#     4   9  16  34  55  80 109 144 193 229 276 337
#
# _framework density 17.777763
#
# number of rings (size 3 to 8) (size 9 to 14) (size 15 to 20)
#    0.000    1.600    8.000    1.800    0.000    0.800 
#    0.000    1.000    0.000    1.200    0.000    0.000 
#    0.000    0.000    0.000    0.000    0.000    0.000 
#
# Total GULP energy -111343.108558 kJ/mol
# GULP energy per Si atom -5567.155428 kJ/mol
# Density = 1.773730 g / cm^3
# Si number density = 17.777763 Si / 1000 Ang^3
#
#
#
# Elastic Constant Matrix: (Units=GPa)
#
#
# Indices 1 2 3 4 5 6 
#
# 1 62.1443 26.6692 27.4039 -0.0070 15.7270 -0.0043
# 2 26.6692 138.2214 23.8502 0.0041 1.9053 0.0064
# 3 27.4039 23.8502 69.2381 0.0183 -6.8175 0.0184
# 4 -0.0070 0.0041 0.0183 30.5677 0.0017 -9.2611
# 5 15.7270 1.9053 -6.8175 0.0017 14.8551 0.0009
# 6 -0.0043 0.0064 0.0184 -9.2611 0.0009 16.0045
#
#
#
# Elastic Compliance Matrix: (Units=1/GPa)
#
#
# Indices 1 2 3 4 5 6 
#
# 1 0.038024 -0.003457 -0.018621 0.000041 -0.048358 0.000059
# 2 -0.003457 0.008082 -0.001212 -0.000003 0.002067 -0.000004
# 3 -0.018621 -0.001212 0.025331 -0.000039 0.031494 -0.000058
# 4 0.000041 -0.000003 -0.000039 0.039669 -0.000067 0.022955
# 5 -0.048358 0.002067 0.031494 -0.000067 0.132702 -0.000096
# 6 0.000059 -0.000004 -0.000058 0.022955 -0.000096 0.075766
#
#
# Mechanical properties :
#
#
# Convention : Reuss Voigt Hill
#
# Bulk Modulus (GPa) = 40.22764 47.27227 43.74996
# Shear Modulus (GPa) = 13.35324 25.06415 19.20870
#
# Velocity S-wave (km/s) = 2.74363 3.75888 3.29065
# Velocity P-wave (km/s) = 5.71960 6.74443 6.25305
#
# Compressibility (1/GPa) = 0.02485853
#
# Stress axis : x y z
#
# Youngs Moduli (GPa) = 26.29884 123.72418 39.47657
#
# Poissons Ratio (x) = 0.42772 0.73508
# Poissons Ratio (y) = 0.09092 0.04786
# Poissons Ratio (z) = 0.48970 0.15000
#
# Static dielectric constant tensor:
#      x y z
#    x 1.617820 0.000000 -0.056960 
#    y 0.000000 1.733150 0.000000 
#    z -0.056960 0.000000 1.622820 
# 
# From -- ./inp_files/54872.got.cif
#   From: 2010.05.17/outbox.cif.g08.bks.cpg/sg15_28_cif.got.tgz:54872.got - 2010.06.03 18:47:42.
