data_PCOD9269620
_publ_section_title
;
Structure prediction by ZEFSAII (Michael W. Deem and Ramdas Pophale) SiO2 
 PCOD9269620
Probable space group: C 2/C
;
_chemical_formula_sum "Si O2"
_cell_formula_units_Z 28
_cell_length_a 9.863762
_cell_length_b 12.695213
_cell_length_c 8.327848
_cell_angle_alpha 90.000000
_cell_angle_beta 106.981301
_cell_angle_gamma 90.000000
_cell_volume 997.366989
_symmetry_space_group_name_H-M "C 2/C"
_symmetry_group_IT_number 15
_symmetry_cell_setting 'monoclinic'
loop_
_space_group_symop_operation_xyz
x,y,z
-x,y,1/2-z
-x,-y,-z
x,-y,1/2+z
1/2+x,1/2+y,z
1/2-x,1/2+y,1/2-z
1/2-x,1/2-y,-z
1/2+x,1/2-y,1/2+z
loop_
_atom_site_type_symbol
_atom_site_label
_atom_site_fract_x
_atom_site_fract_y
_atom_site_fract_z
Si Si1 0.750870 0.139377 0.405335
Si Si2 0.300798 0.543274 0.761475
Si Si3 0.112290 0.746821 0.067074
Si Si4 0.000000 0.624458 0.750000
O O1 0.750000 0.250000 0.500000
O O2 0.765563 0.062561 0.564499
O O3 0.638069 0.169820 0.225924
O O4 0.855146 0.072544 0.322771
O O5 0.398758 0.636751 0.863472
O O6 0.143803 0.557844 0.789483
O O7 0.250000 0.750000 0.000000
O O8 0.998135 0.697966 0.907392
#
# Coordination Sequence:
#
# PCOD9269620 Si02
#       4
#     8   8   8   4
#     4  10  21  37  60  86 117 154 194 238 292 350
#     4  10  20  35  57  82 117 156 192 241 293 336
#     4   9  19  35  55  82 113 148 188 235 288 342
#     4  10  20  34  58  88 118 150 198 244 286 346
#
# _framework density 28.073920000000001
#
# number of rings (size 3 to 8) (size 9 to 14) (size 15 to 20)
#    0.000    2.286    0.000    3.429    0.000    5.714 
#    0.000    0.000    0.000   44.571    0.000    0.000 
#    0.000    0.000    0.000    0.000    0.000    0.000 
#
# Total GULP energy -78063.922283 kJ/mol
# GULP energy per Si atom -5575.994449 kJ/mol
# Density = 2.801002 g / cm^3
# Si number density = 28.073920 Si / 1000 Ang^3
#
#
#
# Elastic Constant Matrix: (Units=GPa)
#
#
# Indices 1 2 3 4 5 6 
#
# 1 111.7997 0.6259 19.9182 0.0000 -11.6457 0.0000
# 2 0.6259 184.2905 107.5497 0.0000 -0.2195 0.0000
# 3 19.9182 107.5497 289.0063 0.0000 -4.7593 0.0000
# 4 0.0000 0.0000 0.0000 73.6217 0.0000 -4.2020
# 5 -11.6457 -0.2195 -4.7593 0.0000 34.6411 0.0000
# 6 0.0000 0.0000 0.0000 -4.2020 0.0000 22.2385
#
#
#
# Elastic Compliance Matrix: (Units=1/GPa)
#
#
# Indices 1 2 3 4 5 6 
#
# 1 0.009394 0.000409 -0.000749 0.000000 0.003058 0.000000
# 2 0.000409 0.006953 -0.002618 0.000000 -0.000178 0.000000
# 3 -0.000749 -0.002618 0.004492 0.000000 0.000349 0.000000
# 4 0.000000 0.000000 0.000000 0.013731 0.000000 0.002595
# 5 0.003058 -0.000178 0.000349 0.000000 0.029942 0.000000
# 6 0.000000 0.000000 0.000000 0.002595 0.000000 0.045457
#
#
# Mechanical properties :
#
#
# Convention : Reuss Voigt Hill
#
# Bulk Modulus (GPa) = 67.01771 93.47601 80.24686
# Shear Modulus (GPa) = 41.36987 56.56711 48.96849
#
# Velocity S-wave (km/s) = 3.84292 4.49367 4.18098
# Velocity P-wave (km/s) = 6.60412 7.76484 7.20788
#
# Compressibility (1/GPa) = 0.01492143
#
# Stress axis : x y z
#
# Youngs Moduli (GPa) = 106.44764 143.82841 222.62048
#
# Poissons Ratio (x) = -0.05883 0.16681
# Poissons Ratio (y) = -0.04354 0.58293
# Poissons Ratio (z) = 0.07976 0.37661
#
# Static dielectric constant tensor:
#      x y z
#    x 2.325290 0.000000 0.089570 
#    y 0.000000 2.433620 0.000000 
#    z 0.089570 0.000000 2.089980 
# 
# From -- ./inp_files/27716.got.cif
#   From: 2010.05.17/outbox.cif.g08.bks.cpg/sg15_14_cif.got.tgz:27716.got - 2010.06.03 18:47:42.
