data_PCOD9269689
_publ_section_title
;
Structure prediction by ZEFSAII (Michael W. Deem and Ramdas Pophale) SiO2 
 PCOD9269689
Probable space group: C 2/C
;
_chemical_formula_sum "Si O2"
_cell_formula_units_Z 48
_cell_length_a 14.622929
_cell_length_b 16.790930
_cell_length_c 30.426019
_cell_angle_alpha 90.000000
_cell_angle_beta 160.115457
_cell_angle_gamma 90.000000
_cell_volume 2540.937142
_symmetry_space_group_name_H-M "C 2/C"
_symmetry_group_IT_number 15
_symmetry_cell_setting 'monoclinic'
loop_
_space_group_symop_operation_xyz
x,y,z
-x,y,1/2-z
-x,-y,-z
x,-y,1/2+z
1/2+x,1/2+y,z
1/2-x,1/2+y,1/2-z
1/2-x,1/2-y,-z
1/2+x,1/2-y,1/2+z
loop_
_atom_site_type_symbol
_atom_site_label
_atom_site_fract_x
_atom_site_fract_y
_atom_site_fract_z
Si Si1 0.659138 0.767119 0.670546
Si Si2 0.382091 0.333781 0.114002
Si Si3 0.329793 0.347081 0.568068
Si Si4 0.500000 0.812023 0.250000
Si Si5 0.405198 0.320657 0.505988
Si Si6 0.303515 0.495088 0.620149
Si Si7 0.000000 0.718724 0.250000
O O1 0.588044 0.691663 0.668854
O O2 0.401355 0.814427 0.537279
O O3 0.819087 0.740833 0.700108
O O4 0.860463 0.820242 0.789296
O O5 0.391242 0.422571 0.136630
O O6 0.425445 0.274143 0.174570
O O7 0.291392 0.360275 0.499040
O O8 0.155144 0.273879 0.509769
O O9 0.301531 0.424101 0.584560
O O10 0.718522 0.850516 0.381474
O O11 0.722027 0.326894 0.637403
O O12 0.500000 0.478727 0.750000
O O13 0.000000 0.500000 0.500000
#
# Coordination Sequence:
#
# PCOD9269689 Si02
#       7
#     8   8   8   4   8   8   4
#     4  10  21  37  60  86 120 163 211 251 292 352
#     4  11  22  37  59  92 124 159 204 250 303 363
#     4  10  22  39  55  86 121 166 195 247 309 361
#     4  10  20  34  59  85 108 152 202 264 288 340
#     4  10  21  35  60  81 119 153 209 244 293 353
#     4  12  26  38  61  91 132 161 190 249 325 379
#     4  12  18  36  57  91 116 152 200 256 288 354
#
# _framework density 18.890668999999999
#
# number of rings (size 3 to 8) (size 9 to 14) (size 15 to 20)
#    0.000    1.333    4.167    2.000    7.000    0.000 
#    0.000    0.000    0.000    2.000    0.000    0.000 
#    0.000    0.000    0.000    0.000    0.000    0.000 
#
# Total GULP energy -133861.056874 kJ/mol
# GULP energy per Si atom -5577.544036 kJ/mol
# Density = 1.884767 g / cm^3
# Si number density = 18.890669 Si / 1000 Ang^3
#
#
#
# Elastic Constant Matrix: (Units=GPa)
#
#
# Indices 1 2 3 4 5 6 
#
# 1 129.0494 40.3887 36.0214 -0.0166 -2.6406 0.0057
# 2 40.3887 60.0328 5.6474 -0.0219 2.9049 0.0032
# 3 36.0214 5.6474 109.8701 0.0029 -0.4093 0.0105
# 4 -0.0166 -0.0219 0.0029 -6.0671 0.0230 -2.2233
# 5 -2.6406 2.9049 -0.4093 0.0230 41.5550 -0.0103
# 6 0.0057 0.0032 0.0105 -2.2233 -0.0103 31.4986
#
#
#
# Elastic Compliance Matrix: (Units=1/GPa)
#
#
# Indices 1 2 3 4 5 6 
#
# 1 0.010880 -0.007075 -0.003199 -0.000002 0.001154 0.000000
# 2 -0.007075 0.021397 0.001212 -0.000062 -0.001933 -0.000006
# 3 -0.003199 0.001212 0.010087 0.000009 -0.000189 -0.000002
# 4 -0.000002 -0.000062 0.000009 -0.160666 0.000090 -0.011341
# 5 0.001154 -0.001933 -0.000189 0.000090 0.024271 0.000014
# 6 0.000000 -0.000006 -0.000002 -0.011341 0.000014 0.030947
#
#
# Mechanical properties :
#
#
# Convention : Reuss Voigt Hill
#
# Bulk Modulus (GPa) = 41.25160 51.45194 46.35177
# Shear Modulus (GPa) = -135.56921 27.85694 -53.85614
#
# Velocity S-wave (km/s) = -8.48062 3.84427 -5.34521
# Velocity P-wave (km/s) = 8.60292 6.85568 3.67490
#
# Compressibility (1/GPa) = 0.02424149
#
# Stress axis : x y z
#
# Youngs Moduli (GPa) = 91.91481 46.73641 99.13318
#
# Poissons Ratio (x) = 0.33064 0.31713
# Poissons Ratio (y) = 0.65025 -0.12019
# Poissons Ratio (z) = 0.29404 -0.05666
#
# Static dielectric constant tensor:
#      x y z
#    x 1.688750 0.000030 -0.014150 
#    y 0.000030 1.625590 -0.000010 
#    z -0.014150 -0.000010 1.719940 
# 
# From -- ./inp_files/205308.got.cif
#   From: 2010.05.17/outbox.cif.g08.bks.cpg/sg15_103_cif.got.tgz:205308.got - 2010.06.03 18:47:42.
