data_PCOD9269427
_publ_section_title
;
Structure prediction by ZEFSAII (Michael W. Deem and Ramdas Pophale) SiO2 
 PCOD9269427
Probable space group: C 2/C
;
_chemical_formula_sum "Si O2"
_cell_formula_units_Z 56
_cell_length_a 10.774472
_cell_length_b 13.381439
_cell_length_c 17.539266
_cell_angle_alpha 90.000000
_cell_angle_beta 78.874971
_cell_angle_gamma 90.000000
_cell_volume 2481.255681
_symmetry_space_group_name_H-M "C 2/C"
_symmetry_group_IT_number 15
_symmetry_cell_setting 'monoclinic'
loop_
_space_group_symop_operation_xyz
x,y,z
-x,y,1/2-z
-x,-y,-z
x,-y,1/2+z
1/2+x,1/2+y,z
1/2-x,1/2+y,1/2-z
1/2-x,1/2-y,-z
1/2+x,1/2-y,1/2+z
loop_
_atom_site_type_symbol
_atom_site_label
_atom_site_fract_x
_atom_site_fract_y
_atom_site_fract_z
Si Si1 0.623414 0.104855 0.539468
Si Si2 0.273047 0.710217 0.391218
Si Si3 0.900983 0.786925 0.397049
Si Si4 0.152099 0.610615 0.979209
Si Si5 0.238492 0.759554 0.227465
Si Si6 0.037232 0.860738 0.834757
Si Si7 0.901697 0.075245 0.690450
O O1 0.688208 0.174763 0.595359
O O2 0.667531 0.163973 0.457775
O O3 0.471167 0.097346 0.559643
O O4 0.668731 0.991228 0.525259
O O5 0.238022 0.698823 0.306692
O O6 0.405200 0.652629 0.392991
O O7 0.884804 0.703492 0.462474
O O8 0.784595 0.863935 0.423428
O O9 0.874617 0.739054 0.317372
O O10 0.030907 0.848099 0.375912
O O11 0.364373 0.728816 0.167655
O O12 0.220060 0.873211 0.257896
O O13 0.000000 0.856195 0.750000
O O14 0.105926 0.965143 0.842359
O O15 0.000000 0.066682 0.750000
#
# Coordination Sequence:
#
# PCOD9269427 Si02
#       7
#     8   8   8   8   8   8   8
#     4  10  21  37  56  80 113 151 188 228 275 327
#     4  10  20  36  57  81 111 146 186 229 276 331
#     4  10  20  36  57  81 111 146 186 229 276 331
#     4  10  21  37  56  80 113 151 188 228 275 327
#     4  10  20  34  56  84 110 136 182 238 278 320
#     4   9  18  33  53  77 106 141 177 216 270 330
#     4   9  18  33  53  77 106 141 177 216 270 330
#
# _framework density 22.569217999999999
#
# number of rings (size 3 to 8) (size 9 to 14) (size 15 to 20)
#    0.000    2.286    0.000    2.571    0.000    2.286 
#    0.000    1.429    0.000   18.000    0.000    0.000 
#    0.000    0.000    0.000    0.000    0.000    0.000 
#
# Total GULP energy -156221.641627 kJ/mol
# GULP energy per Si atom -5579.344344 kJ/mol
# Density = 2.251785 g / cm^3
# Si number density = 22.569218 Si / 1000 Ang^3
#
#
#
# Elastic Constant Matrix: (Units=GPa)
#
#
# Indices 1 2 3 4 5 6 
#
# 1 78.2216 31.5957 4.7740 0.0000 -20.6646 0.0000
# 2 31.5957 110.2711 -0.1994 0.0000 -20.5643 0.0000
# 3 4.7740 -0.1994 50.6739 0.0000 -4.4324 0.0000
# 4 0.0000 0.0000 0.0000 21.9214 0.0000 -7.4982
# 5 -20.6646 -20.5643 -4.4324 0.0000 29.0546 0.0000
# 6 0.0000 0.0000 0.0000 -7.4982 0.0000 21.0443
#
#
#
# Elastic Compliance Matrix: (Units=1/GPa)
#
#
# Indices 1 2 3 4 5 6 
#
# 1 0.016551 -0.002960 -0.000734 0.000000 0.009565 0.000000
# 2 -0.002960 0.011001 0.000830 0.000000 0.005808 0.000000
# 3 -0.000734 0.000830 0.020080 0.000000 0.003129 0.000000
# 4 0.000000 0.000000 0.000000 0.051949 0.000000 0.018510
# 5 0.009565 0.005808 0.003129 0.000000 0.045809 0.000000
# 6 0.000000 0.000000 0.000000 0.018510 0.000000 0.054114
#
#
# Mechanical properties :
#
#
# Convention : Reuss Voigt Hill
#
# Bulk Modulus (GPa) = 23.86382 34.61192 29.23787
# Shear Modulus (GPa) = 22.81015 27.93716 25.37365
#
# Velocity S-wave (km/s) = 3.18256 3.52212 3.35664
# Velocity P-wave (km/s) = 4.90933 5.64886 5.29203
#
# Compressibility (1/GPa) = 0.04190444
#
# Stress axis : x y z
#
# Youngs Moduli (GPa) = 60.41753 90.89844 49.80047
#
# Poissons Ratio (x) = 0.26906 0.03657
# Poissons Ratio (y) = 0.17884 -0.04134
# Poissons Ratio (z) = 0.04437 -0.07546
#
# Static dielectric constant tensor:
#      x y z
#    x 1.886660 0.000000 0.019580 
#    y 0.000000 1.857760 0.000000 
#    z 0.019580 0.000000 1.854120 
# 
# From -- ./inp_files/236975.got.cif
#   From: 2010.05.17/outbox.cif.g08.bks.cpg/sg15_119_cif.got.tgz:236975.got - 2010.06.03 18:47:42.
