data_PCOD9269329
_publ_section_title
;
Structure prediction by ZEFSAII (Michael W. Deem and Ramdas Pophale) SiO2 
 PCOD9269329
Probable space group: C 2/C
;
_chemical_formula_sum "Si O2"
_cell_formula_units_Z 60
_cell_length_a 24.905319
_cell_length_b 12.906593
_cell_length_c 8.522203
_cell_angle_alpha 90.000000
_cell_angle_beta 96.193531
_cell_angle_gamma 90.000000
_cell_volume 2723.411461
_symmetry_space_group_name_H-M "C 2/C"
_symmetry_group_IT_number 15
_symmetry_cell_setting 'monoclinic'
loop_
_space_group_symop_operation_xyz
x,y,z
-x,y,1/2-z
-x,-y,-z
x,-y,1/2+z
1/2+x,1/2+y,z
1/2-x,1/2+y,1/2-z
1/2-x,1/2-y,-z
1/2+x,1/2-y,1/2+z
loop_
_atom_site_type_symbol
_atom_site_label
_atom_site_fract_x
_atom_site_fract_y
_atom_site_fract_z
Si Si1 0.500000 0.483346 0.750000
Si Si2 0.609064 0.860910 0.296501
Si Si3 0.098614 0.857705 0.304828
Si Si4 0.653949 0.035553 0.502548
Si Si5 0.664626 0.446914 0.810816
Si Si6 0.778109 0.382776 0.760452
Si Si7 0.064477 0.179122 0.127198
Si Si8 0.664464 0.715819 0.558930
O O1 0.449823 0.560242 0.725778
O O2 0.486676 0.399231 0.883167
O O3 0.561411 0.781664 0.233342
O O4 0.649939 0.789082 0.408106
O O5 0.607957 0.965325 0.401496
O O6 0.631789 0.896451 0.136711
O O7 0.083079 0.796950 0.456594
O O8 0.112541 0.789271 0.158073
O O9 0.150849 0.932976 0.331619
O O10 0.686538 0.099922 0.383320
O O11 0.695486 0.957389 0.600182
O O12 0.716805 0.417375 0.727309
O O13 0.613041 0.390118 0.716425
O O14 0.673511 0.395112 0.984318
O O15 0.786974 0.266959 0.829052
#
# Coordination Sequence:
#
# PCOD9269329 Si02
#       8
#     4   8   8   8   8   8   8   8
#     4  10  22  40  64  90 122 158 192 238 302 360
#     4   9  19  38  58  85 115 152 203 247 300 346
#     4  11  22  37  60  87 122 158 198 243 299 360
#     4   9  19  35  58  80 112 157 202 244 290 350
#     4  10  21  35  51  80 118 158 199 238 293 347
#     4  10  20  34  55  81 115 158 204 240 293 342
#     4  10  21  37  58  88 118 153 198 248 293 356
#     4  10  21  37  54  81 121 156 197 248 288 349
#
# _framework density 22.031191
#
# number of rings (size 3 to 8) (size 9 to 14) (size 15 to 20)
#    0.000    2.133    0.000    3.200    3.733    2.133 
#    4.800    3.333    0.000    0.800    0.000    6.533 
#    0.000    0.000    0.000    0.000    0.000    0.000 
#
# Total GULP energy -167259.850051 kJ/mol
# GULP energy per Si atom -5575.328335 kJ/mol
# Density = 2.198105 g / cm^3
# Si number density = 22.031191 Si / 1000 Ang^3
#
#
#
# Elastic Constant Matrix: (Units=GPa)
#
#
# Indices 1 2 3 4 5 6 
#
# 1 68.8462 30.7324 14.3904 0.0000 -2.5336 0.0000
# 2 30.7324 51.7428 36.3472 0.0000 -0.8746 0.0000
# 3 14.3904 36.3472 109.5794 0.0000 -10.3828 0.0000
# 4 0.0000 0.0000 0.0000 34.3014 0.0000 -1.5220
# 5 -2.5336 -0.8746 -10.3828 0.0000 10.7522 0.0000
# 6 0.0000 0.0000 0.0000 -1.5220 0.0000 17.0872
#
#
#
# Elastic Compliance Matrix: (Units=1/GPa)
#
#
# Indices 1 2 3 4 5 6 
#
# 1 0.020354 -0.013705 0.002445 0.000000 0.006043 0.000000
# 2 -0.013705 0.034862 -0.010788 0.000000 -0.010811 0.000000
# 3 0.002445 -0.010788 0.013599 0.000000 0.012830 0.000000
# 4 0.000000 0.000000 0.000000 0.029269 0.000000 0.002607
# 5 0.006043 -0.010811 0.012830 0.000000 0.105938 0.000000
# 6 0.000000 0.000000 0.000000 0.002607 0.000000 0.058755
#
#
# Mechanical properties :
#
#
# Convention : Reuss Voigt Hill
#
# Bulk Modulus (GPa) = 40.45401 43.67872 42.06637
# Shear Modulus (GPa) = 15.86735 22.34140 19.10437
#
# Velocity S-wave (km/s) = 2.68661 3.18792 2.94794
# Velocity P-wave (km/s) = 5.29394 5.78094 5.54279
#
# Compressibility (1/GPa) = 0.02471943
#
# Stress axis : x y z
#
# Youngs Moduli (GPa) = 49.13006 28.68466 73.53621
#
# Poissons Ratio (x) = 0.39312 -0.17983
# Poissons Ratio (y) = 0.67333 0.79332
# Poissons Ratio (z) = -0.12015 0.30945
#
# Static dielectric constant tensor:
#      x y z
#    x 1.828590 0.000000 -0.006190 
#    y 0.000000 1.863980 0.000000 
#    z -0.006190 0.000000 1.847310 
# 
# From -- ./inp_files/65514.got.cif
#   From: 2010.05.17/outbox.cif.g08.bks.cpg/sg15_33_cif.got.tgz:65514.got - 2010.06.03 18:47:42.
