data_PCOD9269882
_publ_section_title
;
Structure prediction by ZEFSAII (Michael W. Deem and Ramdas Pophale) SiO2 
 PCOD9269882
Probable space group: C 2/C
;
_chemical_formula_sum "Si O2"
_cell_formula_units_Z 60
_cell_length_a 29.117728
_cell_length_b 9.842049
_cell_length_c 22.975411
_cell_angle_alpha 90.000000
_cell_angle_beta 29.704295
_cell_angle_gamma 90.000000
_cell_volume 3262.652340
_symmetry_space_group_name_H-M "C 2/C"
_symmetry_group_IT_number 15
_symmetry_cell_setting 'monoclinic'
loop_
_space_group_symop_operation_xyz
x,y,z
-x,y,1/2-z
-x,-y,-z
x,-y,1/2+z
1/2+x,1/2+y,z
1/2-x,1/2+y,1/2-z
1/2-x,1/2-y,-z
1/2+x,1/2-y,1/2+z
loop_
_atom_site_type_symbol
_atom_site_label
_atom_site_fract_x
_atom_site_fract_y
_atom_site_fract_z
Si Si1 0.717810 0.765434 0.222142
Si Si2 0.086638 0.731992 0.036656
Si Si3 0.335157 0.743219 0.705601
Si Si4 0.754478 0.978753 0.368918
Si Si5 0.000000 0.343493 0.750000
Si Si6 0.712038 0.093581 0.040303
Si Si7 0.737371 0.460911 0.885467
Si Si8 0.520401 0.160617 0.981483
O O1 0.752381 0.762058 0.250493
O O2 0.742021 0.625603 0.163668
O O3 0.608517 0.796770 0.346548
O O4 0.766683 0.891585 0.137378
O O5 0.022172 0.732112 0.164800
O O6 0.159674 0.606436 0.962097
O O7 0.147112 0.868992 0.973119
O O8 0.037288 0.706511 0.029836
O O9 0.330672 0.613841 0.752493
O O10 0.318304 0.875252 0.764052
O O11 0.427522 0.760413 0.567013
O O12 0.761256 0.977130 0.431094
O O13 0.100284 0.413244 0.653369
O O14 0.739766 0.033472 0.071715
O O15 0.750000 0.250000 0.000000
O O16 0.500000 0.000000 0.000000
#
# Coordination Sequence:
#
# PCOD9269882 Si02
#       8
#     8   8   8   8   4   8   8   8
#     4  12  24  41  59  91 132 159 199 258 313 365
#     4  10  21  38  64  93 115 160 211 249 303 364
#     4  11  21  39  63  88 120 159 206 249 300 373
#     4  10  22  39  61  88 124 160 201 258 301 364
#     4  10  20  34  64  90 114 144 206 266 276 354
#     4  11  20  40  63  92 114 159 211 248 302 364
#     4  11  21  40  65  87 120 162 197 257 309 362
#     4  12  23  36  65  93 122 165 210 246 309 367
#
# _framework density 18.389946999999999
#
# number of rings (size 3 to 8) (size 9 to 14) (size 15 to 20)
#    0.000    1.067    8.000    2.400    0.000    1.067 
#    0.000    0.000    0.000    3.200    0.000    0.000 
#    0.000    0.000    0.000    0.000    0.000    0.000 
#
# Total GULP energy -167303.154521 kJ/mol
# GULP energy per Si atom -5576.771817 kJ/mol
# Density = 1.834809 g / cm^3
# Si number density = 18.389947 Si / 1000 Ang^3
#
#
#
# Elastic Constant Matrix: (Units=GPa)
#
#
# Indices 1 2 3 4 5 6 
#
# 1 73.1213 28.6499 14.6434 0.0010 21.1225 -0.0001
# 2 28.6499 123.6692 48.9038 0.0028 17.9666 -0.0005
# 3 14.6434 48.9038 102.8218 0.0010 7.8683 -0.0003
# 4 0.0010 0.0028 0.0010 10.9791 -0.0003 -1.7887
# 5 21.1225 17.9666 7.8683 -0.0003 37.4190 0.0002
# 6 -0.0001 -0.0005 -0.0003 -1.7887 0.0002 -2.6834
#
#
#
# Elastic Compliance Matrix: (Units=1/GPa)
#
#
# Indices 1 2 3 4 5 6 
#
# 1 0.017207 -0.002530 -0.000607 -0.000001 -0.008371 0.000000
# 2 -0.002530 0.010908 -0.004610 -0.000002 -0.002840 0.000000
# 3 -0.000607 -0.004610 0.012002 0.000000 0.000032 -0.000001
# 4 -0.000001 -0.000002 0.000000 0.082160 0.000003 -0.054767
# 5 -0.008371 -0.002840 0.000032 0.000003 0.032806 0.000001
# 6 0.000000 0.000000 -0.000001 -0.054767 0.000001 -0.336161
#
#
# Mechanical properties :
#
#
# Convention : Reuss Voigt Hill
#
# Bulk Modulus (GPa) = 40.61310 53.77851 47.19580
# Shear Modulus (GPa) = -31.77095 22.97063 -4.40016
#
# Velocity S-wave (km/s) = -4.16098 3.53808 -1.54851
# Velocity P-wave (km/s) = 0.97605 6.78215 4.74578
#
# Compressibility (1/GPa) = 0.02462260
#
# Stress axis : x y z
#
# Youngs Moduli (GPa) = 58.11669 91.67639 83.31786
#
# Poissons Ratio (x) = 0.23197 0.05053
# Poissons Ratio (y) = 0.14705 0.38412
# Poissons Ratio (z) = 0.03525 0.42266
#
# Static dielectric constant tensor:
#      x y z
#    x 1.648320 0.000000 -0.017880 
#    y 0.000000 1.603020 0.000000 
#    z -0.017880 0.000000 1.666490 
# 
# From -- ./inp_files/284289.got.cif
#   From: 2010.05.17/outbox.cif.g08.bks.cpg/sg15_143_cif.got.tgz:284289.got - 2010.06.03 18:47:42.
