data_PCOD9269478
_publ_section_title
;
Structure prediction by ZEFSAII (Michael W. Deem and Ramdas Pophale) SiO2 
 PCOD9269478
Probable space group: C 2/C
;
_chemical_formula_sum "Si O2"
_cell_formula_units_Z 48
_cell_length_a 10.751927
_cell_length_b 22.856273
_cell_length_c 12.564655
_cell_angle_alpha 90.000000
_cell_angle_beta 130.634816
_cell_angle_gamma 90.000000
_cell_volume 2343.219371
_symmetry_space_group_name_H-M "C 2/C"
_symmetry_group_IT_number 15
_symmetry_cell_setting 'monoclinic'
loop_
_space_group_symop_operation_xyz
x,y,z
-x,y,1/2-z
-x,-y,-z
x,-y,1/2+z
1/2+x,1/2+y,z
1/2-x,1/2+y,1/2-z
1/2-x,1/2-y,-z
1/2+x,1/2-y,1/2+z
loop_
_atom_site_type_symbol
_atom_site_label
_atom_site_fract_x
_atom_site_fract_y
_atom_site_fract_z
Si Si1 0.348106 0.492122 0.992383
Si Si2 0.657696 0.043673 0.708161
Si Si3 0.018555 0.877099 0.140791
Si Si4 0.251029 0.811008 0.870985
Si Si5 0.190484 0.562605 0.064658
Si Si6 0.479218 0.711001 0.056090
O O1 0.190819 0.505720 0.832749
O O2 0.500000 0.500000 0.000000
O O3 0.379065 0.428236 0.057046
O O4 0.340824 0.544116 0.073322
O O5 0.804605 0.090584 0.776292
O O6 0.478751 0.071564 0.594931
O O7 0.672072 0.994873 0.625020
O O8 0.000000 0.851805 0.250000
O O9 0.000800 0.832593 0.032435
O O10 0.277852 0.878196 0.855814
O O11 0.155296 0.811119 0.931447
O O12 0.140461 0.782666 0.717711
O O13 0.412316 0.772847 0.977334
#
# Coordination Sequence:
#
# PCOD9269478 Si02
#       6
#     8   8   8   8   8   8
#     4  10  20  34  56  89 122 162 200 251 318 382
#     4  10  22  35  58  92 123 165 201 256 324 379
#     4  11  21  39  62  91 132 167 217 262 321 401
#     4  10  22  42  64  92 123 159 222 271 315 378
#     4  11  21  37  59  90 128 159 202 263 318 377
#     4  10  23  40  65  92 119 170 214 270 320 368
#
# _framework density 20.484636999999999
#
# number of rings (size 3 to 8) (size 9 to 14) (size 15 to 20)
#    0.000    1.667    1.667    3.500    2.333    4.000 
#    3.000    0.833    0.000    0.000    0.000    0.000 
#    0.000    0.000    0.000    0.000    0.000    0.000 
#
# Total GULP energy -133846.895023 kJ/mol
# GULP energy per Si atom -5576.953959 kJ/mol
# Density = 2.043801 g / cm^3
# Si number density = 20.484637 Si / 1000 Ang^3
#
#
#
# Elastic Constant Matrix: (Units=GPa)
#
#
# Indices 1 2 3 4 5 6 
#
# 1 54.0469 28.2889 33.4972 0.0000 -2.7746 0.0000
# 2 28.2889 72.3067 20.7266 0.0000 -6.2572 0.0000
# 3 33.4972 20.7266 98.2336 0.0000 -8.7615 0.0000
# 4 0.0000 0.0000 0.0000 38.9529 0.0000 -1.0087
# 5 -2.7746 -6.2572 -8.7615 0.0000 27.1980 0.0000
# 6 0.0000 0.0000 0.0000 -1.0087 0.0000 19.0459
#
#
#
# Elastic Compliance Matrix: (Units=1/GPa)
#
#
# Indices 1 2 3 4 5 6 
#
# 1 0.027856 -0.008812 -0.007791 0.000000 -0.001695 0.000000
# 2 -0.008812 0.017669 -0.000454 0.000000 0.003020 0.000000
# 3 -0.007791 -0.000454 0.013232 0.000000 0.003363 0.000000
# 4 0.000000 0.000000 0.000000 0.025707 0.000000 0.001362
# 5 -0.001695 0.003020 0.003363 0.000000 0.038373 0.000000
# 6 0.000000 0.000000 0.000000 0.001362 0.000000 0.052577
#
#
# Mechanical properties :
#
#
# Convention : Reuss Voigt Hill
#
# Bulk Modulus (GPa) = 40.57732 43.29027 41.93380
# Shear Modulus (GPa) = 22.96298 26.51100 24.73699
#
# Velocity S-wave (km/s) = 3.35174 3.60139 3.47881
# Velocity P-wave (km/s) = 5.90174 6.20260 6.05404
#
# Compressibility (1/GPa) = 0.02464431
#
# Stress axis : x y z
#
# Youngs Moduli (GPa) = 35.89864 56.59676 75.57320
#
# Poissons Ratio (x) = 0.49872 0.58878
# Poissons Ratio (y) = 0.31633 0.03430
# Poissons Ratio (z) = 0.27968 0.02569
#
# Static dielectric constant tensor:
#      x y z
#    x 1.775800 0.000000 -0.017250 
#    y 0.000000 1.711920 0.000000 
#    z -0.017250 0.000000 1.804690 
# 
# From -- ./inp_files/89805.got.cif
#   From: 2010.05.17/outbox.cif.g08.bks.cpg/sg15_45_cif.got.tgz:89805.got - 2010.06.03 18:47:42.
