data_PCOD9269947
_publ_section_title
;
Structure prediction by ZEFSAII (Michael W. Deem and Ramdas Pophale) SiO2 
 PCOD9269947
Probable space group: C 2/C
;
_chemical_formula_sum "Si O2"
_cell_formula_units_Z 48
_cell_length_a 25.438548
_cell_length_b 20.493846
_cell_length_c 17.362279
_cell_angle_alpha 90.000000
_cell_angle_beta 163.789500
_cell_angle_gamma 90.000000
_cell_volume 2526.892280
_symmetry_space_group_name_H-M "C 2/C"
_symmetry_group_IT_number 15
_symmetry_cell_setting 'monoclinic'
loop_
_space_group_symop_operation_xyz
x,y,z
-x,y,1/2-z
-x,-y,-z
x,-y,1/2+z
1/2+x,1/2+y,z
1/2-x,1/2+y,1/2-z
1/2-x,1/2-y,-z
1/2+x,1/2-y,1/2+z
loop_
_atom_site_type_symbol
_atom_site_label
_atom_site_fract_x
_atom_site_fract_y
_atom_site_fract_z
Si Si1 0.500000 0.938767 0.250000
Si Si2 0.358101 0.525807 0.706873
Si Si3 0.040406 0.659998 0.678080
Si Si4 0.118511 0.564714 0.653856
Si Si5 0.527214 0.694640 0.195635
Si Si6 0.000000 0.001521 0.250000
Si Si7 0.164572 0.915084 0.175303
O O1 0.555776 0.890817 0.398702
O O2 0.672352 0.982227 0.461421
O O3 0.404962 0.539983 0.684297
O O4 0.338837 0.586317 0.737624
O O5 0.534414 0.478481 0.975584
O O6 0.046654 0.625296 0.603613
O O7 0.967316 0.733418 0.582652
O O8 0.255500 0.672940 0.008828
O O9 0.136943 0.574297 0.588107
O O10 0.000000 0.500000 0.500000
O O11 0.328844 0.547569 0.980976
O O12 0.500000 0.692663 0.250000
O O13 0.417302 0.644924 0.986994
#
# Coordination Sequence:
#
# PCOD9269947 Si02
#       7
#     4   8   8   8   8   4   8
#     4  12  18  32  51  84 109 138 192 234 270 348
#     4  10  21  33  55  77 110 149 186 233 286 330
#     4  11  21  31  52  83 115 150 189 225 282 357
#     4  11  20  35  57  85 118 153 195 238 287 347
#     4  11  20  35  53  75 118 163 181 220 295 352
#     4  10  20  38  55  80 121 150 178 240 302 328
#     4  10  20  35  51  76 113 153 187 230 282 339
#
# _framework density 18.995664000000001
#
# number of rings (size 3 to 8) (size 9 to 14) (size 15 to 20)
#    0.000    1.333    5.833    2.000    1.167    0.000 
#    0.000    0.000    0.000    0.000    0.000    2.333 
#    0.000    0.000    0.000    0.000    0.000    0.000 
#
# Total GULP energy -133721.938652 kJ/mol
# GULP energy per Si atom -5571.747444 kJ/mol
# Density = 1.895243 g / cm^3
# Si number density = 18.995664 Si / 1000 Ang^3
#
#
#
# Elastic Constant Matrix: (Units=GPa)
#
#
# Indices 1 2 3 4 5 6 
#
# 1 191.7287 69.6885 9.3537 0.0000 23.2910 0.0000
# 2 69.6885 106.4322 13.1850 0.0000 1.2756 0.0000
# 3 9.3537 13.1850 10.8382 0.0000 8.4730 0.0000
# 4 0.0000 0.0000 0.0000 12.7378 0.0000 -11.5373
# 5 23.2910 1.2756 8.4730 0.0000 18.3616 0.0000
# 6 0.0000 0.0000 0.0000 -11.5373 0.0000 28.9789
#
#
#
# Elastic Compliance Matrix: (Units=1/GPa)
#
#
# Indices 1 2 3 4 5 6 
#
# 1 0.009788 -0.008282 0.017028 0.000000 -0.019698 0.000000
# 2 -0.008282 0.018992 -0.036197 0.000000 0.025889 0.000000
# 3 0.017028 -0.036197 0.213570 0.000000 -0.117636 0.000000
# 4 0.000000 0.000000 0.000000 0.122782 0.000000 0.048883
# 5 -0.019698 0.025889 -0.117636 0.000000 0.131932 0.000000
# 6 0.000000 0.000000 0.000000 0.048883 0.000000 0.053970
#
#
# Mechanical properties :
#
#
# Convention : Reuss Voigt Hill
#
# Bulk Modulus (GPa) = 5.33481 54.82815 30.08148
# Shear Modulus (GPa) = 7.48032 26.46713 16.97372
#
# Velocity S-wave (km/s) = 1.98657 3.73678 2.99249
# Velocity P-wave (km/s) = 2.84191 6.89523 5.27355
#
# Compressibility (1/GPa) = 0.18744806
#
# Stress axis : x y z
#
# Youngs Moduli (GPa) = 102.16230 52.65237 4.68231
#
# Poissons Ratio (x) = 0.43609 -0.07973
# Poissons Ratio (y) = 0.84615 0.16948
# Poissons Ratio (z) = -1.73958 1.90583
#
# Static dielectric constant tensor:
#      x y z
#    x 1.795040 0.000000 0.007810 
#    y 0.000000 1.684970 0.000000 
#    z 0.007810 0.000000 1.703900 
# 
# From -- ./inp_files/63325.got.cif
#   From: 2010.05.17/outbox.cif.g08.bks.cpg/sg15_32_cif.got.tgz:63325.got - 2010.06.03 18:47:42.
