data_PCOD9269832
_publ_section_title
;
Structure prediction by ZEFSAII (Michael W. Deem and Ramdas Pophale) SiO2 
 PCOD9269832
Probable space group: C 2/C
;
_chemical_formula_sum "Si O2"
_cell_formula_units_Z 52
_cell_length_a 16.633073
_cell_length_b 7.317613
_cell_length_c 18.500624
_cell_angle_alpha 90.000000
_cell_angle_beta 82.514279
_cell_angle_gamma 90.000000
_cell_volume 2232.600973
_symmetry_space_group_name_H-M "C 2/C"
_symmetry_group_IT_number 15
_symmetry_cell_setting 'monoclinic'
loop_
_space_group_symop_operation_xyz
x,y,z
-x,y,1/2-z
-x,-y,-z
x,-y,1/2+z
1/2+x,1/2+y,z
1/2-x,1/2+y,1/2-z
1/2-x,1/2-y,-z
1/2+x,1/2-y,1/2+z
loop_
_atom_site_type_symbol
_atom_site_label
_atom_site_fract_x
_atom_site_fract_y
_atom_site_fract_z
Si Si1 0.801396 0.308377 0.642167
Si Si2 0.500000 0.262886 0.250000
Si Si3 0.952877 0.258841 0.057688
Si Si4 0.249887 0.089680 0.298911
Si Si5 0.010622 0.347296 0.905740
Si Si6 0.763381 0.655729 0.575457
Si Si7 0.568639 0.387347 0.791875
O O1 0.802212 0.410323 0.720171
O O2 0.893616 0.300165 0.603687
O O3 0.751317 0.440262 0.593193
O O4 0.766729 0.106305 0.661694
O O5 0.517439 0.164873 0.173537
O O6 0.429671 0.407190 0.238536
O O7 0.002873 0.441381 0.071066
O O8 0.859311 0.314482 0.075037
O O9 0.963967 0.118934 0.122179
O O10 0.969691 0.221805 0.971872
O O11 0.280002 0.226973 0.357103
O O12 0.162060 0.166314 0.281372
O O13 0.750000 0.750000 0.500000
O O14 0.500000 0.291982 0.750000
#
# Coordination Sequence:
#
# PCOD9269832 Si02
#       7
#     8   4   8   8   8   8   8
#     4  11  21  40  64  86 124 162 206 247 306 363
#     4  10  20  34  62  88 118 148 206 240 296 364
#     4   9  21  40  62  83 124 161 196 250 311 355
#     4  11  21  40  63  90 121 164 205 253 308 363
#     4  10  21  38  59  90 118 162 198 249 301 364
#     4  10  23  41  62  91 127 159 205 258 306 365
#     4   9  20  39  57  91 114 154 203 247 303 360
#
# _framework density 23.291219000000002
#
# number of rings (size 3 to 8) (size 9 to 14) (size 15 to 20)
#    0.462    1.538    3.077    0.000    1.077    3.692 
#    0.000    4.615    0.000    0.000    0.000    0.000 
#    0.000    0.000    0.000    0.000    0.000    0.000 
#
# Total GULP energy -144925.707901 kJ/mol
# GULP energy per Si atom -5574.065689 kJ/mol
# Density = 2.323821 g / cm^3
# Si number density = 23.291219 Si / 1000 Ang^3
#
#
#
# Elastic Constant Matrix: (Units=GPa)
#
#
# Indices 1 2 3 4 5 6 
#
# 1 25.4714 10.7429 15.2051 0.0000 -6.4118 0.0000
# 2 10.7429 75.8762 24.4782 0.0000 2.6403 0.0000
# 3 15.2051 24.4782 152.9984 0.0000 -0.2722 0.0000
# 4 0.0000 0.0000 0.0000 37.6478 0.0000 -4.5015
# 5 -6.4118 2.6403 -0.2722 0.0000 42.6024 0.0000
# 6 0.0000 0.0000 0.0000 -4.5015 0.0000 14.5697
#
#
#
# Elastic Compliance Matrix: (Units=1/GPa)
#
#
# Indices 1 2 3 4 5 6 
#
# 1 0.045566 -0.005530 -0.003631 0.000000 0.007177 0.000000
# 2 -0.005530 0.014600 -0.001789 0.000000 -0.001749 0.000000
# 3 -0.003631 -0.001789 0.007182 0.000000 -0.000390 0.000000
# 4 0.000000 0.000000 0.000000 0.027581 0.000000 0.008522
# 5 0.007177 -0.001749 -0.000390 0.000000 0.024659 0.000000
# 6 0.000000 0.000000 0.000000 0.008522 0.000000 0.071268
#
#
# Mechanical properties :
#
#
# Convention : Reuss Voigt Hill
#
# Bulk Modulus (GPa) = 22.00286 39.46647 30.73466
# Shear Modulus (GPa) = 21.93874 32.55865 27.24869
#
# Velocity S-wave (km/s) = 3.07242 3.74290 3.42411
# Velocity P-wave (km/s) = 4.69614 5.97165 5.37189
#
# Compressibility (1/GPa) = 0.04544864
#
# Stress axis : x y z
#
# Youngs Moduli (GPa) = 21.94610 68.49106 139.22804
#
# Poissons Ratio (x) = 0.37875 0.50552
# Poissons Ratio (y) = 0.12136 0.24914
# Poissons Ratio (z) = 0.07968 0.12256
#
# Static dielectric constant tensor:
#      x y z
#    x 1.892070 0.000000 0.039890 
#    y 0.000000 1.981150 0.000000 
#    z 0.039890 0.000000 1.921890 
# 
# From -- ./inp_files/166233.got.cif
#   From: 2010.05.17/outbox.cif.g08.bks.cpg/sg15_84_cif.got.tgz:166233.got - 2010.06.03 18:47:42.
