data_PCOD9269335
_publ_section_title
;
Structure prediction by ZEFSAII (Michael W. Deem and Ramdas Pophale) SiO2 
 PCOD9269335
Probable space group: C 2/C
;
_chemical_formula_sum "Si O2"
_cell_formula_units_Z 60
_cell_length_a 19.712152
_cell_length_b 9.819003
_cell_length_c 14.384060
_cell_angle_alpha 90.000000
_cell_angle_beta 56.348860
_cell_angle_gamma 90.000000
_cell_volume 2317.549731
_symmetry_space_group_name_H-M "C 2/C"
_symmetry_group_IT_number 15
_symmetry_cell_setting 'monoclinic'
loop_
_space_group_symop_operation_xyz
x,y,z
-x,y,1/2-z
-x,-y,-z
x,-y,1/2+z
1/2+x,1/2+y,z
1/2-x,1/2+y,1/2-z
1/2-x,1/2-y,-z
1/2+x,1/2-y,1/2+z
loop_
_atom_site_type_symbol
_atom_site_label
_atom_site_fract_x
_atom_site_fract_y
_atom_site_fract_z
Si Si1 0.092828 0.189687 0.500600
Si Si2 0.835657 0.242699 0.878385
Si Si3 0.114193 0.496932 0.411931
Si Si4 0.000000 0.747611 0.750000
Si Si5 0.950530 0.790612 0.980426
Si Si6 0.384925 0.984191 0.300493
Si Si7 0.244600 0.827955 0.765771
Si Si8 0.733064 0.342709 0.423233
O O1 0.113497 0.144981 0.590302
O O2 0.106981 0.355320 0.472139
O O3 0.162523 0.131563 0.379528
O O4 0.003463 0.161345 0.528218
O O5 0.900265 0.367734 0.827107
O O6 0.804356 0.249301 0.794556
O O7 0.750000 0.250000 0.000000
O O8 0.068481 0.629234 0.486891
O O9 0.086531 0.477011 0.326852
O O10 0.206400 0.551465 0.323611
O O11 0.002243 0.819253 0.847434
O O12 0.924204 0.644778 0.818265
O O13 0.861427 0.851358 0.029100
O O14 0.287465 0.976459 0.391362
O O15 0.224511 0.726709 0.697859
O O16 0.750000 0.250000 0.500000
#
# Coordination Sequence:
#
# PCOD9269335 Si02
#       8
#     8   8   8   4   8   8   8   8
#     4  11  19  36  57  82 117 152 189 257 292 359
#     4   9  21  37  58  81 112 152 199 238 299 349
#     4  10  20  34  55  82 114 147 192 244 298 357
#     4  12  20  32  50  90 118 150 190 246 304 352
#     4  11  23  33  54  86 123 151 193 241 310 353
#     4  11  21  35  58  85 118 154 197 245 299 364
#     4   9  20  37  52  82 113 153 197 235 296 360
#     4  11  21  37  53  81 122 157 186 235 294 367
#
# _framework density 25.889412
#
# number of rings (size 3 to 8) (size 9 to 14) (size 15 to 20)
#    0.000    1.600    4.000    1.200    3.733    0.000 
#    0.000    0.000    0.000    7.200    0.000    0.933 
#    4.000    0.000    0.000    0.000    0.000    0.000 
#
# Total GULP energy -167424.809182 kJ/mol
# GULP energy per Si atom -5580.826973 kJ/mol
# Density = 2.583049 g / cm^3
# Si number density = 25.889412 Si / 1000 Ang^3
#
#
#
# Elastic Constant Matrix: (Units=GPa)
#
#
# Indices 1 2 3 4 5 6 
#
# 1 163.5130 8.4572 39.6981 0.0000 -4.6069 0.0000
# 2 8.4572 61.6745 17.1907 0.0000 -3.0532 0.0000
# 3 39.6981 17.1907 100.7793 0.0000 24.7188 0.0000
# 4 0.0000 0.0000 0.0000 23.6849 0.0000 3.5341
# 5 -4.6069 -3.0532 24.7188 0.0000 64.7519 0.0000
# 6 0.0000 0.0000 0.0000 3.5341 0.0000 11.7896
#
#
#
# Elastic Compliance Matrix: (Units=1/GPa)
#
#
# Indices 1 2 3 4 5 6 
#
# 1 0.006927 0.000011 -0.003146 0.000000 0.001694 0.000000
# 2 0.000011 0.017289 -0.003479 0.000000 0.002144 0.000000
# 3 -0.003146 -0.003479 0.013075 0.000000 -0.005379 0.000000
# 4 0.000000 0.000000 0.000000 0.044198 0.000000 -0.013249
# 5 0.001694 0.002144 -0.005379 0.000000 0.017719 0.000000
# 6 0.000000 0.000000 0.000000 -0.013249 0.000000 0.088792
#
#
# Mechanical properties :
#
#
# Convention : Reuss Voigt Hill
#
# Bulk Modulus (GPa) = 41.56022 50.73987 46.15004
# Shear Modulus (GPa) = 23.89514 37.41999 30.65757
#
# Velocity S-wave (km/s) = 3.04134 3.80594 3.44492
# Velocity P-wave (km/s) = 5.33112 6.24138 5.80412
#
# Compressibility (1/GPa) = 0.02406147
#
# Stress axis : x y z
#
# Youngs Moduli (GPa) = 144.36962 57.84157 76.48342
#
# Poissons Ratio (x) = -0.00063 0.24061
# Poissons Ratio (y) = -0.00158 0.26611
# Poissons Ratio (z) = 0.45417 0.20125
#
# Static dielectric constant tensor:
#      x y z
#    x 2.116000 0.000000 -0.001890 
#    y 0.000000 2.157460 0.000000 
#    z -0.001890 0.000000 2.028690 
# 
# From -- ./inp_files/167604.got.cif
#   From: 2010.05.17/outbox.cif.g08.bks.cpg/sg15_84_cif.got.tgz:167604.got - 2010.06.03 18:47:42.
