data_PCOD9269875
_publ_section_title
;
Structure prediction by ZEFSAII (Michael W. Deem and Ramdas Pophale) SiO2 
 PCOD9269875
Probable space group: C 2/C
;
_chemical_formula_sum "Si O2"
_cell_formula_units_Z 44
_cell_length_a 8.450017
_cell_length_b 24.605186
_cell_length_c 9.141860
_cell_angle_alpha 90.000000
_cell_angle_beta 100.884144
_cell_angle_gamma 90.000000
_cell_volume 1866.530780
_symmetry_space_group_name_H-M "C 2/C"
_symmetry_group_IT_number 15
_symmetry_cell_setting 'monoclinic'
loop_
_space_group_symop_operation_xyz
x,y,z
-x,y,1/2-z
-x,-y,-z
x,-y,1/2+z
1/2+x,1/2+y,z
1/2-x,1/2+y,1/2-z
1/2-x,1/2-y,-z
1/2+x,1/2-y,1/2+z
loop_
_atom_site_type_symbol
_atom_site_label
_atom_site_fract_x
_atom_site_fract_y
_atom_site_fract_z
Si Si1 0.290344 0.657238 0.573309
Si Si2 0.000000 0.061974 0.750000
Si Si3 0.443138 0.689691 0.090367
Si Si4 0.161404 0.689595 0.840777
Si Si5 0.941631 0.430092 0.484451
Si Si6 0.301629 0.024100 0.649006
O O1 0.391278 0.603571 0.636765
O O2 0.397767 0.688640 0.479018
O O3 0.266632 0.693141 0.712612
O O4 0.119970 0.630855 0.496784
O O5 0.887006 0.028680 0.842839
O O6 0.500000 0.662282 0.250000
O O7 0.396437 0.752155 0.113851
O O8 0.287457 0.666335 0.979883
O O9 0.000000 0.660090 0.750000
O O10 0.867478 0.466136 0.603183
O O11 0.871318 0.455087 0.318162
O O12 0.129152 0.439126 0.474364
#
# Coordination Sequence:
#
# PCOD9269875 Si02
#       6
#     8   4   8   8   8   8
#     4  11  21  38  61  91 125 177 221 262 334 408
#     4  10  20  34  64  86 122 168 218 266 322 414
#     4  10  22  42  61  96 128 165 223 291 328 381
#     4  10  22  39  69  87 126 177 217 273 338 404
#     4   9  20  37  61  85 125 170 211 271 326 408
#     4   9  19  37  57  88 121 166 215 265 339 381
#
# _framework density 23.573143999999999
#
# number of rings (size 3 to 8) (size 9 to 14) (size 15 to 20)
#    0.000    2.182    1.818    0.000    5.091    5.818 
#    4.909    2.727    8.000    0.000    0.000    0.000 
#    0.000    0.000    0.000    0.000    0.000    0.000 
#
# Total GULP energy -122479.377590 kJ/mol
# GULP energy per Si atom -5567.244436 kJ/mol
# Density = 2.351949 g / cm^3
# Si number density = 23.573144 Si / 1000 Ang^3
#
#
#
# Elastic Constant Matrix: (Units=GPa)
#
#
# Indices 1 2 3 4 5 6 
#
# 1 145.8190 32.8052 73.3643 0.0000 -39.6366 0.0000
# 2 32.8052 86.4688 24.4286 0.0000 -33.1805 0.0000
# 3 73.3643 24.4286 116.3072 0.0000 -27.4438 0.0000
# 4 0.0000 0.0000 0.0000 35.7553 0.0000 1.0867
# 5 -39.6366 -33.1805 -27.4438 0.0000 57.2031 0.0000
# 6 0.0000 0.0000 0.0000 1.0867 0.0000 40.4133
#
#
#
# Elastic Compliance Matrix: (Units=1/GPa)
#
#
# Indices 1 2 3 4 5 6 
#
# 1 0.011200 -0.000897 -0.005827 0.000000 0.004444 0.000000
# 2 -0.000897 0.015105 -0.000773 0.000000 0.007769 0.000000
# 3 -0.005827 -0.000773 0.012830 0.000000 0.001669 0.000000
# 4 0.000000 0.000000 0.000000 0.027991 0.000000 -0.000753
# 5 0.004444 0.007769 0.001669 0.000000 0.025868 0.000000
# 6 0.000000 0.000000 0.000000 -0.000753 0.000000 0.024765
#
#
# Mechanical properties :
#
#
# Convention : Reuss Voigt Hill
#
# Bulk Modulus (GPa) = 41.42838 67.75457 54.59148
# Shear Modulus (GPa) = 35.51145 41.20748 38.35947
#
# Velocity S-wave (km/s) = 3.88550 4.18553 4.03830
# Velocity P-wave (km/s) = 6.14345 7.22239 6.70466
#
# Compressibility (1/GPa) = 0.02413804
#
# Stress axis : x y z
#
# Youngs Moduli (GPa) = 89.28951 66.20381 77.94277
#
# Poissons Ratio (x) = 0.05941 0.45420
# Poissons Ratio (y) = 0.08012 0.06028
# Poissons Ratio (z) = 0.52032 0.05120
#
# Static dielectric constant tensor:
#      x y z
#    x 2.144850 0.000000 0.081020 
#    y 0.000000 1.953520 0.000000 
#    z 0.081020 0.000000 1.920350 
# 
# From -- ./inp_files/25625.got.cif
#   From: 2010.05.17/outbox.cif.g08.bks.cpg/sg15_13_cif.got.tgz:25625.got - 2010.06.03 18:47:42.
