data_PCOD9269846
_publ_section_title
;
Structure prediction by ZEFSAII (Michael W. Deem and Ramdas Pophale) SiO2 
 PCOD9269846
Probable space group: C 2/C
;
_chemical_formula_sum "Si O2"
_cell_formula_units_Z 44
_cell_length_a 7.693786
_cell_length_b 22.046402
_cell_length_c 11.141248
_cell_angle_alpha 90.000000
_cell_angle_beta 84.266053
_cell_angle_gamma 90.000000
_cell_volume 1880.326388
_symmetry_space_group_name_H-M "C 2/C"
_symmetry_group_IT_number 15
_symmetry_cell_setting 'monoclinic'
loop_
_space_group_symop_operation_xyz
x,y,z
-x,y,1/2-z
-x,-y,-z
x,-y,1/2+z
1/2+x,1/2+y,z
1/2-x,1/2+y,1/2-z
1/2-x,1/2-y,-z
1/2+x,1/2-y,1/2+z
loop_
_atom_site_type_symbol
_atom_site_label
_atom_site_fract_x
_atom_site_fract_y
_atom_site_fract_z
Si Si1 0.424055 0.375529 0.566485
Si Si2 0.296530 0.958543 0.761813
Si Si3 0.248754 0.701629 0.392467
Si Si4 0.500000 0.216173 0.750000
Si Si5 0.758298 0.978846 0.483156
Si Si6 0.085026 0.351797 0.488176
O O1 0.321611 0.401763 0.689457
O O2 0.332348 0.260457 0.777693
O O3 0.429719 0.435821 0.483057
O O4 0.281319 0.332445 0.512640
O O5 0.500000 0.944206 0.750000
O O6 0.757373 0.982690 0.863850
O O7 0.270706 0.003195 0.879553
O O8 0.250000 0.750000 0.500000
O O9 0.393961 0.653363 0.421605
O O10 0.059831 0.670659 0.407287
O O11 0.530325 0.824966 0.364316
O O12 0.608892 0.925212 0.481215
#
# Coordination Sequence:
#
# PCOD9269846 Si02
#       6
#     8   8   8   4   8   8
#     4   8  21  36  63  88 135 168 225 273 336 398
#     4   9  17  33  61  99 126 190 226 275 335 404
#     4  10  20  39  62  91 128 171 223 280 344 400
#     4  10  20  34  62  92 122 168 218 276 338 408
#     4   8  19  34  64  90 137 173 227 270 331 406
#     4   8  20  39  59  91 128 173 211 278 339 396
#
# _framework density 23.400193999999999
#
# number of rings (size 3 to 8) (size 9 to 14) (size 15 to 20)
#    2.182    0.727    0.000    0.545    1.273    5.818 
#    0.000    7.273    8.000    1.091    0.000    0.000 
#    0.000    0.000    0.000    0.000    0.000    0.000 
#
# Total GULP energy -122633.087968 kJ/mol
# GULP energy per Si atom -5574.231271 kJ/mol
# Density = 2.334693 g / cm^3
# Si number density = 23.400194 Si / 1000 Ang^3
#
#
#
# Elastic Constant Matrix: (Units=GPa)
#
#
# Indices 1 2 3 4 5 6 
#
# 1 56.9766 26.6032 10.7738 0.0000 -8.4350 0.0000
# 2 26.6032 63.6561 47.7164 0.0000 -1.5024 0.0000
# 3 10.7738 47.7164 149.1454 0.0000 1.0073 0.0000
# 4 0.0000 0.0000 0.0000 23.9733 0.0000 -5.6141
# 5 -8.4350 -1.5024 1.0073 0.0000 34.9472 0.0000
# 6 0.0000 0.0000 0.0000 -5.6141 0.0000 40.7671
#
#
#
# Elastic Compliance Matrix: (Units=1/GPa)
#
#
# Indices 1 2 3 4 5 6 
#
# 1 0.023017 -0.010825 0.001766 0.000000 0.005039 0.000000
# 2 -0.010825 0.025797 -0.007463 0.000000 -0.001289 0.000000
# 3 0.001766 -0.007463 0.008966 0.000000 -0.000153 0.000000
# 4 0.000000 0.000000 0.000000 0.043103 0.000000 0.005936
# 5 0.005039 -0.001289 -0.000153 0.000000 0.029780 0.000000
# 6 0.000000 0.000000 0.000000 0.005936 0.000000 0.025347
#
#
# Mechanical properties :
#
#
# Convention : Reuss Voigt Hill
#
# Bulk Modulus (GPa) = 40.42310 48.88502 44.65406
# Shear Modulus (GPa) = 25.34247 32.24983 28.79615
#
# Velocity S-wave (km/s) = 3.29447 3.71642 3.51179
# Velocity P-wave (km/s) = 5.63769 6.27311 5.96387
#
# Compressibility (1/GPa) = 0.02473833
#
# Stress axis : x y z
#
# Youngs Moduli (GPa) = 43.44579 38.76466 111.53477
#
# Poissons Ratio (x) = 0.41961 -0.19701
# Poissons Ratio (y) = 0.47028 0.83234
# Poissons Ratio (z) = -0.07674 0.28928
#
# Static dielectric constant tensor:
#      x y z
#    x 1.976860 0.000000 0.061310 
#    y 0.000000 1.965140 0.000000 
#    z 0.061310 0.000000 1.987130 
# 
# From -- ./inp_files/136687.got.cif
#   From: 2010.05.17/outbox.cif.g08.bks.cpg/sg15_69_cif.got.tgz:136687.got - 2010.06.03 18:47:42.
