data_PCOD9269788
_publ_section_title
;
Structure prediction by ZEFSAII (Michael W. Deem and Ramdas Pophale) SiO2 
 PCOD9269788
Probable space group: C 2/C
;
_chemical_formula_sum "Si O2"
_cell_formula_units_Z 60
_cell_length_a 13.625377
_cell_length_b 21.468283
_cell_length_c 14.118655
_cell_angle_alpha 90.000000
_cell_angle_beta 44.376616
_cell_angle_gamma 90.000000
_cell_volume 2888.332661
_symmetry_space_group_name_H-M "C 2/C"
_symmetry_group_IT_number 15
_symmetry_cell_setting 'monoclinic'
loop_
_space_group_symop_operation_xyz
x,y,z
-x,y,1/2-z
-x,-y,-z
x,-y,1/2+z
1/2+x,1/2+y,z
1/2-x,1/2+y,1/2-z
1/2-x,1/2-y,-z
1/2+x,1/2-y,1/2+z
loop_
_atom_site_type_symbol
_atom_site_label
_atom_site_fract_x
_atom_site_fract_y
_atom_site_fract_z
Si Si1 0.654430 0.060007 0.096498
Si Si2 0.336165 0.986405 0.599038
Si Si3 0.734002 0.468883 0.353544
Si Si4 0.544161 0.400482 0.621688
Si Si5 0.753457 0.850449 0.761309
Si Si6 0.500000 0.110022 0.750000
Si Si7 0.162899 0.697261 0.116662
Si Si8 0.701443 0.813110 0.987207
O O1 0.500000 0.055523 0.250000
O O2 0.666971 0.131375 0.056254
O O3 0.753850 0.038711 0.113400
O O4 0.685281 0.009556 0.993244
O O5 0.310747 0.915881 0.652423
O O6 0.500000 0.000000 0.500000
O O7 0.243127 0.027293 0.734961
O O8 0.600633 0.440100 0.495790
O O9 0.873938 0.431595 0.293065
O O10 0.500000 0.435557 0.750000
O O11 0.418229 0.359052 0.668261
O O12 0.672550 0.359722 0.571627
O O13 0.721666 0.824931 0.679118
O O14 0.692475 0.803263 0.881479
O O15 0.564821 0.154544 0.625130
O O16 0.000000 0.714788 0.250000
O O17 0.250000 0.750000 0.000000
O O18 0.750000 0.750000 0.000000
#
# Coordination Sequence:
#
# PCOD9269788 Si02
#       8
#     8   8   8   8   8   4   8   8
#     4  11  20  38  66  95 133 169 217 282 336 399
#     4  12  20  36  67  99 126 165 213 271 342 394
#     4  11  19  37  62  96 130 162 215 268 336 401
#     4   9  21  39  60  94 135 171 207 269 332 399
#     4  11  23  44  67  91 137 177 213 276 341 391
#     4  10  20  34  60  98 132 160 216 282 320 402
#     4  11  26  51  70  93 132 185 239 281 328 404
#     4  10  22  38  62  94 131 173 216 268 333 392
#
# _framework density 20.773230999999999
#
# number of rings (size 3 to 8) (size 9 to 14) (size 15 to 20)
#    0.000    1.333    3.333    4.000    2.800    1.600 
#    7.200    0.667    0.000    0.000    0.000    0.000 
#    0.000    0.000    0.000    0.000    0.000    0.000 
#
# Total GULP energy -167273.731726 kJ/mol
# GULP energy per Si atom -5575.791058 kJ/mol
# Density = 2.072595 g / cm^3
# Si number density = 20.773231 Si / 1000 Ang^3
#
#
#
# Elastic Constant Matrix: (Units=GPa)
#
#
# Indices 1 2 3 4 5 6 
#
# 1 71.1261 7.6293 46.8722 -0.0002 22.9070 0.0001
# 2 7.6293 99.4672 57.1690 -0.0002 17.8554 0.0001
# 3 46.8722 57.1690 148.7237 -0.0004 22.1049 0.0003
# 4 -0.0002 -0.0002 -0.0004 26.4917 0.0003 9.2129
# 5 22.9070 17.8554 22.1049 0.0003 39.1000 -0.0002
# 6 0.0001 0.0001 0.0003 9.2129 -0.0002 16.4146
#
#
#
# Elastic Compliance Matrix: (Units=1/GPa)
#
#
# Indices 1 2 3 4 5 6 
#
# 1 0.021535 0.004176 -0.006805 0.000000 -0.010676 0.000000
# 2 0.004176 0.014135 -0.005924 0.000000 -0.005552 0.000000
# 3 -0.006805 -0.005924 0.011083 0.000000 0.000427 0.000000
# 4 0.000000 0.000000 0.000000 0.046902 -0.000001 -0.026325
# 5 -0.010676 -0.005552 0.000427 -0.000001 0.034124 0.000001
# 6 0.000000 0.000000 0.000000 -0.026325 0.000001 0.075697
#
#
# Mechanical properties :
#
#
# Convention : Reuss Voigt Hill
#
# Bulk Modulus (GPa) = 33.73272 60.29534 47.01403
# Shear Modulus (GPa) = 21.69531 30.24436 25.96983
#
# Velocity S-wave (km/s) = 3.23521 3.81980 3.53959
# Velocity P-wave (km/s) = 5.49811 6.96728 6.27584
#
# Compressibility (1/GPa) = 0.02964480
#
# Stress axis : x y z
#
# Youngs Moduli (GPa) = 46.43669 70.74649 90.23181
#
# Poissons Ratio (x) = -0.29545 0.61407
# Poissons Ratio (y) = -0.19393 0.53457
# Poissons Ratio (z) = 0.31602 0.41913
#
# Static dielectric constant tensor:
#      x y z
#    x 1.802240 0.000000 0.032860 
#    y 0.000000 1.798150 0.000000 
#    z 0.032860 0.000000 1.797190 
# 
# From -- ./inp_files/156351.got.cif
#   From: 2010.05.17/outbox.cif.g08.bks.cpg/sg15_79_cif.got.tgz:156351.got - 2010.06.03 18:47:42.
