data_PCOD9269243
_publ_section_title
;
Structure prediction by ZEFSAII (Michael W. Deem and Ramdas Pophale) SiO2 
 PCOD9269243
Probable space group: C 2/C
;
_chemical_formula_sum "Si O2"
_cell_formula_units_Z 52
_cell_length_a 7.893546
_cell_length_b 11.051747
_cell_length_c 27.019557
_cell_angle_alpha 90.000000
_cell_angle_beta 93.287808
_cell_angle_gamma 90.000000
_cell_volume 2353.238169
_symmetry_space_group_name_H-M "C 2/C"
_symmetry_group_IT_number 15
_symmetry_cell_setting 'monoclinic'
loop_
_space_group_symop_operation_xyz
x,y,z
-x,y,1/2-z
-x,-y,-z
x,-y,1/2+z
1/2+x,1/2+y,z
1/2-x,1/2+y,1/2-z
1/2-x,1/2-y,-z
1/2+x,1/2-y,1/2+z
loop_
_atom_site_type_symbol
_atom_site_label
_atom_site_fract_x
_atom_site_fract_y
_atom_site_fract_z
Si Si1 0.746415 0.691516 0.336759
Si Si2 0.500000 0.613045 0.250000
Si Si3 0.545123 0.752698 0.095767
Si Si4 0.293181 0.128543 0.032012
Si Si5 0.768621 0.917507 0.288882
Si Si6 0.864926 0.631592 0.502116
Si Si7 0.612638 0.931909 0.179569
O O1 0.622586 0.688930 0.286526
O O2 0.627586 0.704403 0.382287
O O3 0.851324 0.810815 0.323303
O O4 0.836455 0.564161 0.337776
O O5 0.393499 0.530679 0.286188
O O6 0.668720 0.649672 0.076184
O O7 0.482805 0.845991 0.052418
O O8 0.638058 0.830395 0.139026
O O9 0.267712 0.995844 0.006824
O O10 0.250000 0.250000 0.000000
O O11 0.498532 0.131056 0.040374
O O12 0.720616 0.898709 0.230134
O O13 0.587099 0.941806 0.311056
O O14 0.750000 0.750000 0.500000
#
# Coordination Sequence:
#
# PCOD9269243 Si02
#       7
#     8   4   8   8   8   8   8
#     4  10  20  35  55  79 112 147 182 229 277 325
#     4  10  20  34  54  78 106 146 192 224 264 324
#     4  10  21  36  56  85 114 142 184 231 282 338
#     4   9  21  40  61  82 110 147 184 230 287 344
#     4   9  19  36  54  78 109 149 191 224 267 323
#     4  10  22  40  61  85 112 146 188 234 285 346
#     4   9  19  36  55  78 114 149 182 230 277 322
#
# _framework density 22.09721
#
# number of rings (size 3 to 8) (size 9 to 14) (size 15 to 20)
#    0.000    2.462    0.000    1.846    0.000   12.308 
#    0.000    7.692    0.000    0.000    0.000    0.000 
#    0.000    0.000    0.000    0.000    0.000    0.000 
#
# Total GULP energy -144985.701477 kJ/mol
# GULP energy per Si atom -5576.373134 kJ/mol
# Density = 2.204692 g / cm^3
# Si number density = 22.097210 Si / 1000 Ang^3
#
#
#
# Elastic Constant Matrix: (Units=GPa)
#
#
# Indices 1 2 3 4 5 6 
#
# 1 36.9472 44.8834 16.6220 0.0000 -19.8665 0.0000
# 2 44.8834 149.2681 30.0733 0.0000 -27.7226 0.0000
# 3 16.6220 30.0733 53.8597 0.0000 -26.3619 0.0000
# 4 0.0000 0.0000 0.0000 23.7476 0.0000 -11.3906
# 5 -19.8665 -27.7226 -26.3619 0.0000 29.2572 0.0000
# 6 0.0000 0.0000 0.0000 -11.3906 0.0000 36.8944
#
#
#
# Elastic Compliance Matrix: (Units=1/GPa)
#
#
# Indices 1 2 3 4 5 6 
#
# 1 0.056337 -0.012120 0.004443 0.000000 0.030774 0.000000
# 2 -0.012120 0.010795 -0.002341 0.000000 -0.000111 0.000000
# 3 0.004443 -0.002341 0.033800 0.000000 0.031254 0.000000
# 4 0.000000 0.000000 0.000000 0.049429 0.000000 0.015261
# 5 0.030774 -0.000111 0.031254 0.000000 0.083132 0.000000
# 6 0.000000 0.000000 0.000000 0.015261 0.000000 0.031816
#
#
# Mechanical properties :
#
#
# Convention : Reuss Voigt Hill
#
# Bulk Modulus (GPa) = 12.36151 47.02581 29.69366
# Shear Modulus (GPa) = 16.00973 27.87959 21.94466
#
# Velocity S-wave (km/s) = 2.69460 3.55587 3.15476
# Velocity P-wave (km/s) = 3.90992 6.17952 5.17078
#
# Compressibility (1/GPa) = 0.08089629
#
# Stress axis : x y z
#
# Youngs Moduli (GPa) = 17.75036 92.63746 29.58571
#
# Poissons Ratio (x) = 1.12273 -0.13145
# Poissons Ratio (y) = 0.21513 0.06927
# Poissons Ratio (z) = -0.07887 0.21688
#
# Static dielectric constant tensor:
#      x y z
#    x 1.858870 0.000000 -0.004030 
#    y 0.000000 1.830720 0.000000 
#    z -0.004030 0.000000 1.866130 
# 
# From -- ./inp_files/287599.got.cif
#   From: 2010.05.17/outbox.cif.g08.bks.cpg/sg15_144_cif.got.tgz:287599.got - 2010.06.03 18:47:42.
