data_PCOD9269289
_publ_section_title
;
Structure prediction by ZEFSAII (Michael W. Deem and Ramdas Pophale) SiO2 
 PCOD9269289
Probable space group: C 2/C
;
_chemical_formula_sum "Si O2"
_cell_formula_units_Z 64
_cell_length_a 28.622185
_cell_length_b 11.540919
_cell_length_c 23.163618
_cell_angle_alpha 90.000000
_cell_angle_beta 154.481050
_cell_angle_gamma 90.000000
_cell_volume 3296.362297
_symmetry_space_group_name_H-M "C 2/C"
_symmetry_group_IT_number 15
_symmetry_cell_setting 'monoclinic'
loop_
_space_group_symop_operation_xyz
x,y,z
-x,y,1/2-z
-x,-y,-z
x,-y,1/2+z
1/2+x,1/2+y,z
1/2-x,1/2+y,1/2-z
1/2-x,1/2-y,-z
1/2+x,1/2-y,1/2+z
loop_
_atom_site_type_symbol
_atom_site_label
_atom_site_fract_x
_atom_site_fract_y
_atom_site_fract_z
Si Si1 0.029132 0.642097 0.481246
Si Si2 0.186627 0.358839 0.365394
Si Si3 0.449804 0.056778 0.585681
Si Si4 0.602636 0.243814 0.063822
Si Si5 0.279979 0.927899 0.228431
Si Si6 0.120049 0.886434 0.582740
Si Si7 0.249596 0.911772 0.943082
Si Si8 0.929136 0.936211 0.845815
O O1 0.013599 0.558601 0.408999
O O2 0.104270 0.575827 0.611836
O O3 0.098617 0.755549 0.541558
O O4 0.932580 0.698562 0.412190
O O5 0.210205 0.398526 0.327261
O O6 0.230807 0.227316 0.416523
O O7 0.243280 0.429445 0.480350
O O8 0.057231 0.377853 0.228618
O O9 0.391173 0.137030 0.472506
O O10 0.359867 0.045025 0.535337
O O11 0.704320 0.330151 0.174480
O O12 0.505372 0.322858 0.928753
O O13 0.219824 0.049579 0.165423
O O14 0.137806 0.907447 0.670964
O O15 0.010256 0.957733 0.446818
O O16 0.147528 0.959370 0.793582
#
# Coordination Sequence:
#
# PCOD9269289 Si02
#       8
#     8   8   8   8   8   8   8   8
#     4  11  23  35  60  85 121 152 183 229 292 346
#     4  11  23  37  56  87 115 146 193 240 283 341
#     4  12  22  37  56  85 116 150 183 239 282 342
#     4  10  20  34  54  86 115 146 178 233 282 335
#     4  11  21  36  58  85 121 147 188 237 280 341
#     4   9  20  35  57  87 113 152 186 230 281 349
#     4  11  22  38  60  81 114 153 189 235 294 337
#     4   9  17  38  58  80 117 144 189 233 280 337
#
# _framework density 19.415341000000002
#
# number of rings (size 3 to 8) (size 9 to 14) (size 15 to 20)
#    0.000    1.500    3.750    3.000    1.750    0.000 
#    0.000    2.500    0.000    4.500    0.000    0.000 
#    0.000    0.000    0.000    0.000    0.000    0.000 
#
# Total GULP energy -178602.486862 kJ/mol
# GULP energy per Si atom -5581.327714 kJ/mol
# Density = 1.937115 g / cm^3
# Si number density = 19.415341 Si / 1000 Ang^3
#
#
#
# Elastic Constant Matrix: (Units=GPa)
#
#
# Indices 1 2 3 4 5 6 
#
# 1 65.7404 10.3533 29.3638 0.0000 1.7453 0.0000
# 2 10.3533 65.2861 3.6963 0.0000 -0.2849 0.0000
# 3 29.3638 3.6963 87.5722 0.0000 -0.0178 0.0000
# 4 0.0000 0.0000 0.0000 20.5695 0.0000 5.0561
# 5 1.7453 -0.2849 -0.0178 0.0000 29.4956 0.0000
# 6 0.0000 0.0000 0.0000 5.0561 0.0000 20.8252
#
#
#
# Elastic Compliance Matrix: (Units=1/GPa)
#
#
# Indices 1 2 3 4 5 6 
#
# 1 0.018345 -0.002572 -0.006043 0.000000 -0.001114 0.000000
# 2 -0.002572 0.015715 0.000199 0.000000 0.000304 0.000000
# 3 -0.006043 0.000199 0.013437 0.000000 0.000368 0.000000
# 4 0.000000 0.000000 0.000000 0.051701 0.000000 -0.012553
# 5 -0.001114 0.000304 0.000368 0.000000 0.033972 0.000000
# 6 0.000000 0.000000 0.000000 -0.012553 0.000000 0.051066
#
#
# Mechanical properties :
#
#
# Convention : Reuss Voigt Hill
#
# Bulk Modulus (GPa) = 32.60964 33.93617 33.27290
# Shear Modulus (GPa) = 23.66405 25.85707 24.76056
#
# Velocity S-wave (km/s) = 3.49497 3.65332 3.57502
# Velocity P-wave (km/s) = 5.75488 5.94245 5.84942
#
# Compressibility (1/GPa) = 0.03066578
#
# Stress axis : x y z
#
# Youngs Moduli (GPa) = 54.51030 63.63304 74.42084
#
# Poissons Ratio (x) = 0.16366 0.44972
# Poissons Ratio (y) = 0.14020 -0.01482
# Poissons Ratio (z) = 0.32941 -0.01267
#
# Static dielectric constant tensor:
#      x y z
#    x 1.700720 0.000000 0.031460 
#    y 0.000000 1.709120 0.000000 
#    z 0.031460 0.000000 1.712350 
# 
# From -- ./inp_files/257521.got.cif
#   From: 2010.05.17/outbox.cif.g08.bks.cpg/sg15_129_cif.got.tgz:257521.got - 2010.06.03 18:47:42.
