data_PCOD9269858
_publ_section_title
;
Structure prediction by ZEFSAII (Michael W. Deem and Ramdas Pophale) SiO2 
 PCOD9269858
Probable space group: C 2/C
;
_chemical_formula_sum "Si O2"
_cell_formula_units_Z 64
_cell_length_a 23.675073
_cell_length_b 17.672269
_cell_length_c 17.943308
_cell_angle_alpha 90.000000
_cell_angle_beta 159.990847
_cell_angle_gamma 90.000000
_cell_volume 2568.788839
_symmetry_space_group_name_H-M "C 2/C"
_symmetry_group_IT_number 15
_symmetry_cell_setting 'monoclinic'
loop_
_space_group_symop_operation_xyz
x,y,z
-x,y,1/2-z
-x,-y,-z
x,-y,1/2+z
1/2+x,1/2+y,z
1/2-x,1/2+y,1/2-z
1/2-x,1/2-y,-z
1/2+x,1/2-y,1/2+z
loop_
_atom_site_type_symbol
_atom_site_label
_atom_site_fract_x
_atom_site_fract_y
_atom_site_fract_z
Si Si1 0.648152 0.752112 0.988254
Si Si2 0.662015 0.640928 0.480576
Si Si3 0.512114 0.834618 0.044609
Si Si4 0.107146 0.997380 0.008652
Si Si5 0.258133 0.989720 0.981202
Si Si6 0.348639 0.102244 0.208931
Si Si7 0.466185 0.686366 0.911356
Si Si8 0.249091 0.073954 0.312757
O O1 0.500000 0.771705 0.750000
O O2 0.568194 0.718957 0.966036
O O3 0.751193 0.681411 0.080353
O O4 0.774843 0.822718 0.151432
O O5 0.606442 0.587474 0.479354
O O6 0.724240 0.579726 0.496679
O O7 0.815733 0.684045 0.703580
O O8 0.500000 0.682771 0.250000
O O9 0.504308 0.879398 0.955560
O O10 0.436125 0.754263 0.932348
O O11 0.399411 0.884332 0.958640
O O12 0.227101 0.049196 0.107675
O O13 0.183339 0.002668 0.184444
O O14 0.921994 0.025687 0.762976
O O15 0.307390 0.950465 0.965721
O O16 0.366790 0.052718 0.157467
O O17 0.587394 0.627252 0.101288
#
# Coordination Sequence:
#
# PCOD9269858 Si02
#       8
#     8   8   8   8   8   8   8   8
#     4  11  21  38  66  99 136 180 230 289 335 406
#     4   9  20  39  65  93 119 170 220 279 341 415
#     4  10  22  42  66  90 137 182 225 276 348 406
#     4   9  17  35  58  92 126 170 217 264 346 400
#     4  10  20  34  62  97 130 164 224 272 342 410
#     4   9  18  35  63  96 127 178 215 273 347 410
#     4  11  22  42  65  97 135 189 231 273 343 407
#     4  11  22  39  62 100 133 182 220 283 335 412
#
# _framework density 24.914465
#
# number of rings (size 3 to 8) (size 9 to 14) (size 15 to 20)
#    0.000    2.000    3.750    2.625    0.000    7.000 
#    0.000    0.625    0.000    4.500    0.000    0.000 
#    0.000    0.000    0.000    0.000    0.000    0.000 
#
# Total GULP energy -178781.051972 kJ/mol
# GULP energy per Si atom -5586.907874 kJ/mol
# Density = 2.485776 g / cm^3
# Si number density = 24.914465 Si / 1000 Ang^3
#
#
#
# Elastic Constant Matrix: (Units=GPa)
#
#
# Indices 1 2 3 4 5 6 
#
# 1 114.8414 28.4977 34.5908 0.0015 -18.3767 0.0001
# 2 28.4977 19.3764 12.7830 0.0016 -1.0244 0.0003
# 3 34.5908 12.7830 149.2499 0.0019 -15.8086 0.0004
# 4 0.0015 0.0016 0.0019 35.2890 0.0005 11.7101
# 5 -18.3767 -1.0244 -15.8086 0.0005 29.3066 -0.0003
# 6 0.0001 0.0003 0.0004 11.7101 -0.0003 10.4724
#
#
#
# Elastic Compliance Matrix: (Units=1/GPa)
#
#
# Indices 1 2 3 4 5 6 
#
# 1 0.015917 -0.022390 -0.000845 0.000000 0.008742 0.000001
# 2 -0.022390 0.086208 -0.003566 -0.000003 -0.012950 0.000001
# 3 -0.000845 -0.003566 0.007564 0.000000 0.003426 0.000000
# 4 0.000000 -0.000003 0.000000 0.045055 -0.000002 -0.050380
# 5 0.008742 -0.012950 0.003426 -0.000002 0.040999 0.000003
# 6 0.000001 0.000001 0.000000 -0.050380 0.000003 0.151823
#
#
# Mechanical properties :
#
#
# Convention : Reuss Voigt Hill
#
# Bulk Modulus (GPa) = 17.82984 48.35675 33.09330
# Shear Modulus (GPa) = 11.90857 28.85337 20.38097
#
# Velocity S-wave (km/s) = 2.18864 3.40677 2.86324
# Velocity P-wave (km/s) = 3.68223 5.90983 4.92366
#
# Compressibility (1/GPa) = 0.05608577
#
# Stress axis : x y z
#
# Youngs Moduli (GPa) = 62.82440 11.59992 132.19884
#
# Poissons Ratio (x) = 0.25973 0.11176
# Poissons Ratio (y) = 1.40667 0.47141
# Poissons Ratio (z) = 0.05311 0.04136
#
# Static dielectric constant tensor:
#      x y z
#    x 2.036930 0.000000 0.011380 
#    y 0.000000 1.965980 0.000000 
#    z 0.011380 0.000000 2.038070 
# 
# From -- ./inp_files/220292.got.cif
#   From: 2010.05.17/outbox.cif.g08.bks.cpg/sg15_111_cif.got.tgz:220292.got - 2010.06.03 18:47:42.
