data_PCOD9269680
_publ_section_title
;
Structure prediction by ZEFSAII (Michael W. Deem and Ramdas Pophale) SiO2 
 PCOD9269680
Probable space group: C 2/C
;
_chemical_formula_sum "Si O2"
_cell_formula_units_Z 44
_cell_length_a 29.250776
_cell_length_b 9.859535
_cell_length_c 24.716615
_cell_angle_alpha 90.000000
_cell_angle_beta 160.350649
_cell_angle_gamma 90.000000
_cell_volume 2396.965257
_symmetry_space_group_name_H-M "C 2/C"
_symmetry_group_IT_number 15
_symmetry_cell_setting 'monoclinic'
loop_
_space_group_symop_operation_xyz
x,y,z
-x,y,1/2-z
-x,-y,-z
x,-y,1/2+z
1/2+x,1/2+y,z
1/2-x,1/2+y,1/2-z
1/2-x,1/2-y,-z
1/2+x,1/2-y,1/2+z
loop_
_atom_site_type_symbol
_atom_site_label
_atom_site_fract_x
_atom_site_fract_y
_atom_site_fract_z
Si Si1 0.848128 0.141493 0.946399
Si Si2 0.144594 0.172947 0.418036
Si Si3 0.364952 0.330408 0.989848
Si Si4 0.457617 0.830666 0.403363
Si Si5 0.946310 0.642380 0.369296
Si Si6 0.000000 0.089972 0.750000
O O1 0.702047 0.186772 0.760022
O O2 0.874515 0.980077 0.972865
O O3 0.829086 0.167170 0.989172
O O4 0.972083 0.222923 0.057977
O O5 0.250000 0.250000 0.500000
O O6 0.000000 0.244538 0.250000
O O7 0.118823 0.019324 0.368015
O O8 0.203200 0.311544 0.816757
O O9 0.436968 0.220899 0.032506
O O10 0.444653 0.333573 0.136000
O O11 0.539548 0.830449 0.550858
O O12 0.462578 0.980088 0.382031
#
# Coordination Sequence:
#
# PCOD9269680 Si02
#       6
#     8   8   8   8   8   4
#     4  10  20  34  59  82 115 141 187 234 283 325
#     4   9  17  32  54  81 111 145 176 230 275 327
#     4  10  21  39  57  80 112 155 183 236 277 336
#     4  10  21  37  56  87 111 146 187 238 274 337
#     4  10  22  38  58  79 118 149 188 227 284 332
#     4   8  20  36  58  78 116 146 186 232 280 328
#
# _framework density 18.356545000000001
#
# number of rings (size 3 to 8) (size 9 to 14) (size 15 to 20)
#    0.545    1.818    0.000    2.182    0.000    2.909 
#    0.000    0.000    2.000    0.000    0.000    0.000 
#    0.000    0.000    0.000    0.000    0.000    0.000 
#
# Total GULP energy -122543.508626 kJ/mol
# GULP energy per Si atom -5570.159483 kJ/mol
# Density = 1.831476 g / cm^3
# Si number density = 18.356545 Si / 1000 Ang^3
#
#
#
# Elastic Constant Matrix: (Units=GPa)
#
#
# Indices 1 2 3 4 5 6 
#
# 1 25.6379 9.7071 23.6758 0.0001 -1.3002 0.0000
# 2 9.7071 34.1820 17.9612 0.0004 13.8543 0.0002
# 3 23.6758 17.9612 85.0537 0.0004 -5.4856 0.0002
# 4 0.0001 0.0004 0.0004 11.6941 0.0003 16.5963
# 5 -1.3002 13.8543 -5.4856 0.0003 33.8911 0.0001
# 6 0.0000 0.0002 0.0002 16.5963 0.0001 15.0965
#
#
#
# Elastic Compliance Matrix: (Units=1/GPa)
#
#
# Indices 1 2 3 4 5 6 
#
# 1 0.055098 -0.010722 -0.012787 0.000001 0.004427 0.000000
# 2 -0.010722 0.044336 -0.007653 0.000000 -0.019774 -0.000001
# 3 -0.012787 -0.007653 0.017284 0.000000 0.005436 0.000000
# 4 0.000001 0.000000 0.000000 -0.152648 0.000001 0.167813
# 5 0.004427 -0.019774 0.005436 0.000001 0.038639 -0.000001
# 6 0.000000 -0.000001 0.000000 0.167813 -0.000001 -0.118245
#
#
# Mechanical properties :
#
#
# Convention : Reuss Voigt Hill
#
# Bulk Modulus (GPa) = 18.38509 27.50688 22.94599
# Shear Modulus (GPa) = -142.53432 18.37163 -62.08135
#
# Velocity S-wave (km/s) = -8.82135 3.16701 -5.82178
# Velocity P-wave (km/s) = 9.68079 5.32828 5.71520
#
# Compressibility (1/GPa) = 0.05439189
#
# Stress axis : x y z
#
# Youngs Moduli (GPa) = 18.14959 22.55491 57.85830
#
# Poissons Ratio (x) = 0.24183 0.73986
# Poissons Ratio (y) = 0.19460 0.44282
# Poissons Ratio (z) = 0.23209 0.17262
#
# Static dielectric constant tensor:
#      x y z
#    x 1.603210 0.000000 -0.046500 
#    y 0.000000 1.631260 0.000000 
#    z -0.046500 0.000000 1.684060 
# 
# From -- ./inp_files/304232.got.cif
#   From: 2010.05.17/outbox.cif.g08.bks.cpg/sg15_153_cif.got.tgz:304232.got - 2010.06.03 18:47:42.
