data_PCOD9269713
_publ_section_title
;
Structure prediction by ZEFSAII (Michael W. Deem and Ramdas Pophale) SiO2 
 PCOD9269713
Probable space group: C 2/C
;
_chemical_formula_sum "Si O2"
_cell_formula_units_Z 56
_cell_length_a 12.129572
_cell_length_b 17.994063
_cell_length_c 16.151994
_cell_angle_alpha 90.000000
_cell_angle_beta 54.007550
_cell_angle_gamma 90.000000
_cell_volume 2852.332008
_symmetry_space_group_name_H-M "C 2/C"
_symmetry_group_IT_number 15
_symmetry_cell_setting 'monoclinic'
loop_
_space_group_symop_operation_xyz
x,y,z
-x,y,1/2-z
-x,-y,-z
x,-y,1/2+z
1/2+x,1/2+y,z
1/2-x,1/2+y,1/2-z
1/2-x,1/2-y,-z
1/2+x,1/2-y,1/2+z
loop_
_atom_site_type_symbol
_atom_site_label
_atom_site_fract_x
_atom_site_fract_y
_atom_site_fract_z
Si Si1 0.219188 0.036750 0.079185
Si Si2 0.922933 0.528059 0.363918
Si Si3 0.752657 0.635263 0.332709
Si Si4 0.847277 0.893657 0.285320
Si Si5 0.560257 0.495939 0.881575
Si Si6 0.096935 0.632392 0.390501
Si Si7 0.166613 0.271814 0.452458
O O1 0.287911 0.106107 0.095610
O O2 0.061004 0.036187 0.122468
O O3 0.221957 0.962951 0.135367
O O4 0.309508 0.021114 0.957730
O O5 0.851202 0.602852 0.360152
O O6 0.000000 0.495076 0.250000
O O7 0.027650 0.556320 0.386786
O O8 0.679556 0.563346 0.329327
O O9 0.836731 0.668942 0.220070
O O10 0.647927 0.692831 0.416637
O O11 0.758804 0.823175 0.351346
O O12 0.000000 0.879593 0.250000
O O13 0.878063 0.926906 0.180464
O O14 0.500000 0.500000 0.000000
O O15 0.974415 0.684805 0.473610
O O16 0.250000 0.250000 0.500000
#
# Coordination Sequence:
#
# PCOD9269713 Si02
#       7
#     8   8   8   8   8   8   8
#     4  11  20  40  63  93 123 167 218 266 312 384
#     4  10  20  34  59  93 128 159 199 262 326 377
#     4  11  23  41  60  95 132 170 206 269 330 381
#     4  10  23  38  64  95 126 167 217 264 321 390
#     4  11  23  41  65  93 128 173 227 273 313 381
#     4  11  23  38  62  90 128 170 206 261 330 386
#     4  12  25  39  64  97 136 168 211 268 337 401
#
# _framework density 19.633057000000001
#
# number of rings (size 3 to 8) (size 9 to 14) (size 15 to 20)
#    0.000    1.143    5.714    0.429    4.000    0.000 
#    0.000    0.714    0.000    1.714    0.000    0.000 
#    0.000    0.000    0.000    0.000    0.000    0.000 
#
# Total GULP energy -156138.627733 kJ/mol
# GULP energy per Si atom -5576.379562 kJ/mol
# Density = 1.958837 g / cm^3
# Si number density = 19.633057 Si / 1000 Ang^3
#
#
#
# Elastic Constant Matrix: (Units=GPa)
#
#
# Indices 1 2 3 4 5 6 
#
# 1 77.4938 17.5796 7.3894 0.0000 -0.9564 0.0000
# 2 17.5796 42.9981 17.4362 0.0000 6.2022 0.0000
# 3 7.3894 17.4362 105.9236 0.0000 -1.3677 0.0000
# 4 0.0000 0.0000 0.0000 30.8600 0.0000 -6.1496
# 5 -0.9564 6.2022 -1.3677 0.0000 25.0101 0.0000
# 6 0.0000 0.0000 0.0000 -6.1496 0.0000 18.8698
#
#
#
# Elastic Compliance Matrix: (Units=1/GPa)
#
#
# Indices 1 2 3 4 5 6 
#
# 1 0.014327 -0.006176 0.000044 0.000000 0.002082 0.000000
# 2 -0.006176 0.028653 -0.004384 0.000000 -0.007581 0.000000
# 3 0.000044 -0.004384 0.010181 0.000000 0.001646 0.000000
# 4 0.000000 0.000000 0.000000 0.034655 0.000000 0.011294
# 5 0.002082 -0.007581 0.001646 0.000000 0.042033 0.000000
# 6 0.000000 0.000000 0.000000 0.011294 0.000000 0.056675
#
#
# Mechanical properties :
#
#
# Convention : Reuss Voigt Hill
#
# Bulk Modulus (GPa) = 31.12383 34.58066 32.85224
# Shear Modulus (GPa) = 22.90802 27.21534 25.06168
#
# Velocity S-wave (km/s) = 3.41956 3.72721 3.57670
# Velocity P-wave (km/s) = 5.61056 6.01453 5.81605
#
# Compressibility (1/GPa) = 0.03212972
#
# Stress axis : x y z
#
# Youngs Moduli (GPa) = 69.79979 34.90053 98.22663
#
# Poissons Ratio (x) = 0.21553 -0.00432
# Poissons Ratio (y) = 0.43105 0.43059
# Poissons Ratio (z) = -0.00307 0.15299
#
# Static dielectric constant tensor:
#      x y z
#    x 1.716110 0.000000 0.018430 
#    y 0.000000 1.664170 0.000000 
#    z 0.018430 0.000000 1.810600 
# 
# From -- ./inp_files/145993.got.cif
#   From: 2010.05.17/outbox.cif.g08.bks.cpg/sg15_73_cif.got.tgz:145993.got - 2010.06.03 18:47:42.
