data_PCOD9269123
_publ_section_title
;
Structure prediction by ZEFSAII (Michael W. Deem and Ramdas Pophale) SiO2 
 PCOD9269123
Probable space group: C 2/C
;
_chemical_formula_sum "Si O2"
_cell_formula_units_Z 44
_cell_length_a 18.600705
_cell_length_b 20.081087
_cell_length_c 5.147326
_cell_angle_alpha 90.000000
_cell_angle_beta 111.429111
_cell_angle_gamma 90.000000
_cell_volume 1789.729824
_symmetry_space_group_name_H-M "C 2/C"
_symmetry_group_IT_number 15
_symmetry_cell_setting 'monoclinic'
loop_
_space_group_symop_operation_xyz
x,y,z
-x,y,1/2-z
-x,-y,-z
x,-y,1/2+z
1/2+x,1/2+y,z
1/2-x,1/2+y,1/2-z
1/2-x,1/2-y,-z
1/2+x,1/2-y,1/2+z
loop_
_atom_site_type_symbol
_atom_site_label
_atom_site_fract_x
_atom_site_fract_y
_atom_site_fract_z
Si Si1 0.834450 0.888472 0.923739
Si Si2 0.000000 0.653691 0.250000
Si Si3 0.000000 0.789818 0.750000
Si Si4 0.420449 0.956271 0.314571
Si Si5 0.500000 0.383540 0.250000
Si Si6 0.239550 0.388946 0.290477
Si Si7 0.632532 0.235126 0.583472
O O1 0.804962 0.896292 0.593299
O O2 0.842219 0.808139 0.970657
O O3 0.919039 0.919123 0.084185
O O4 0.772540 0.909967 0.055422
O O5 0.030357 0.606656 0.519428
O O6 0.075075 0.699051 0.302118
O O7 0.984580 0.837485 0.482699
O O8 0.925826 0.748210 0.750913
O O9 0.332644 0.932855 0.222356
O O10 0.430848 0.013509 0.544426
O O11 0.203650 0.313948 0.232755
#
# Coordination Sequence:
#
# PCOD9269123 Si02
#       7
#     8   4   4   8   4   8   8
#     4  11  21  38  57  87 124 162 198 247 308 384
#     4  10  23  38  63  94 126 172 213 240 301 372
#     4  10  20  34  51  78 120 174 203 228 280 346
#     4  11  24  45  65  88 121 163 216 273 307 345
#     4  10  21  36  56  80 116 160 198 234 293 368
#     4  11  24  37  60  89 116 159 211 256 317 368
#     4  10  21  35  55  87 130 166 202 247 292 369
#
# _framework density 24.584717000000001
#
# number of rings (size 3 to 8) (size 9 to 14) (size 15 to 20)
#    0.000    1.455    0.000    7.091    0.000    8.727 
#    0.000    0.000    0.000    0.000    0.000   12.727 
#    0.000    0.000    0.000    0.000    0.000    0.000 
#
# Total GULP energy -123133.480484 kJ/mol
# GULP energy per Si atom -5596.976386 kJ/mol
# Density = 2.452876 g / cm^3
# Si number density = 24.584717 Si / 1000 Ang^3
#
#
#
# Elastic Constant Matrix: (Units=GPa)
#
#
# Indices 1 2 3 4 5 6 
#
# 1 95.1651 -9.5961 21.7930 0.0000 -11.0378 0.0000
# 2 -9.5961 29.3466 -0.4848 0.0000 -1.4168 0.0000
# 3 21.7930 -0.4848 100.5703 0.0000 8.2645 0.0000
# 4 0.0000 0.0000 0.0000 -2.7068 0.0000 0.7032
# 5 -11.0378 -1.4168 8.2645 0.0000 53.7457 0.0000
# 6 0.0000 0.0000 0.0000 0.7032 0.0000 38.2794
#
#
#
# Elastic Compliance Matrix: (Units=1/GPa)
#
#
# Indices 1 2 3 4 5 6 
#
# 1 0.011898 0.003988 -0.002804 0.000000 0.002980 0.000000
# 2 0.003988 0.035456 -0.000848 0.000000 0.001884 0.000000
# 3 -0.002804 -0.000848 0.010732 0.000000 -0.002248 0.000000
# 4 0.000000 0.000000 0.000000 -0.367685 0.000000 0.006755
# 5 0.002980 0.001884 -0.002248 0.000000 0.019614 0.000000
# 6 0.000000 0.000000 0.000000 0.006755 0.000000 0.026000
#
#
# Mechanical properties :
#
#
# Convention : Reuss Voigt Hill
#
# Bulk Modulus (GPa) = 17.01892 27.61179 22.31536
# Shear Modulus (GPa) = -20.40213 32.08831 5.84309
#
# Velocity S-wave (km/s) = -2.88387 3.61669 1.54333
# Velocity P-wave (km/s) = 2.03749 5.35689 3.50321
#
# Compressibility (1/GPa) = 0.05875812
#
# Stress axis : x y z
#
# Youngs Moduli (GPa) = 84.04850 28.20360 93.18328
#
# Poissons Ratio (x) = -0.11248 0.26127
# Poissons Ratio (y) = -0.33519 0.07903
# Poissons Ratio (z) = 0.23566 0.02392
#
# Static dielectric constant tensor:
#      x y z
#    x 1.999570 0.000000 0.056010 
#    y 0.000000 2.004200 0.000000 
#    z 0.056010 0.000000 1.933760 
# 
# From -- ./inp_files/10432.got.cif
#   From: 2010.05.17/outbox.cif.g08.bks.cpg/sg15_6_cif.got.tgz:10432.got - 2010.06.03 18:47:42.
