data_PCOD9269674
_publ_section_title
;
Structure prediction by ZEFSAII (Michael W. Deem and Ramdas Pophale) SiO2 
 PCOD9269674
Probable space group: C 2/C
;
_chemical_formula_sum "Si O2"
_cell_formula_units_Z 40
_cell_length_a 19.999019
_cell_length_b 5.272066
_cell_length_c 18.139060
_cell_angle_alpha 90.000000
_cell_angle_beta 85.165190
_cell_angle_gamma 90.000000
_cell_volume 1905.707585
_symmetry_space_group_name_H-M "C 2/C"
_symmetry_group_IT_number 15
_symmetry_cell_setting 'monoclinic'
loop_
_space_group_symop_operation_xyz
x,y,z
-x,y,1/2-z
-x,-y,-z
x,-y,1/2+z
1/2+x,1/2+y,z
1/2-x,1/2+y,1/2-z
1/2-x,1/2-y,-z
1/2+x,1/2-y,1/2+z
loop_
_atom_site_type_symbol
_atom_site_label
_atom_site_fract_x
_atom_site_fract_y
_atom_site_fract_z
Si Si1 0.897528 0.921641 0.960870
Si Si2 0.030243 0.312285 0.436149
Si Si3 0.736736 0.549962 0.797659
Si Si4 0.725468 0.293871 0.085092
Si Si5 0.648008 0.868010 0.895882
O O1 0.962998 0.818781 0.912153
O O2 0.844133 0.058508 0.914450
O O3 0.861190 0.718598 0.017910
O O4 0.926617 0.112623 0.020544
O O5 0.081397 0.474436 0.382587
O O6 0.000000 0.500000 0.500000
O O7 0.735255 0.298955 0.746651
O O8 0.779285 0.457602 0.864905
O O9 0.665685 0.637787 0.839594
O O10 0.750000 0.250000 0.000000
O O11 0.786369 0.457878 0.112108
#
# Coordination Sequence:
#
# PCOD9269674 Si02
#       5
#     8   8   8   8   8
#     4  10  20  34  59 101 135 168 216 285 341 405
#     4   9  19  34  55  93 140 167 213 272 338 405
#     4  12  26  42  60  97 142 182 224 279 360 427
#     4  12  22  37  67 101 138 170 226 294 350 404
#     4  11  20  37  63  94 141 174 217 279 348 416
#
# _framework density 20.98958
#
# number of rings (size 3 to 8) (size 9 to 14) (size 15 to 20)
#    0.000    1.200    6.000    0.600    0.000    0.000 
#    0.000    0.000    0.000    0.000    0.000   57.400 
#    0.000    0.000    0.000    0.000    0.000    0.400 
#
# Total GULP energy -111545.280436 kJ/mol
# GULP energy per Si atom -5577.264022 kJ/mol
# Density = 2.094181 g / cm^3
# Si number density = 20.989580 Si / 1000 Ang^3
#
#
#
# Elastic Constant Matrix: (Units=GPa)
#
#
# Indices 1 2 3 4 5 6 
#
# 1 161.1584 66.5096 38.8247 0.0000 -22.0527 0.0000
# 2 66.5096 112.6037 48.7959 0.0000 -12.6504 0.0000
# 3 38.8247 48.7959 92.5490 0.0000 -9.3323 0.0000
# 4 0.0000 0.0000 0.0000 35.6546 0.0000 -5.4180
# 5 -22.0527 -12.6504 -9.3323 0.0000 6.7088 0.0000
# 6 0.0000 0.0000 0.0000 -5.4180 0.0000 49.2227
#
#
#
# Elastic Compliance Matrix: (Units=1/GPa)
#
#
# Indices 1 2 3 4 5 6 
#
# 1 0.012246 -0.003478 0.000110 0.000000 0.033847 0.000000
# 2 -0.003478 0.014057 -0.005156 0.000000 0.007902 0.000000
# 3 0.000110 -0.005156 0.014578 0.000000 0.010918 0.000000
# 4 0.000000 0.000000 0.000000 0.028524 0.000000 0.003140
# 5 0.033847 0.007902 0.010918 0.000000 0.290405 0.000000
# 6 0.000000 0.000000 0.000000 0.003140 0.000000 0.020661
#
#
# Mechanical properties :
#
#
# Convention : Reuss Voigt Hill
#
# Bulk Modulus (GPa) = 41.95852 74.95240 58.45546
# Shear Modulus (GPa) = 12.33157 32.46260 22.39709
#
# Velocity S-wave (km/s) = 2.42649 3.93696 3.27013
# Velocity P-wave (km/s) = 5.28053 7.51352 6.49373
#
# Compressibility (1/GPa) = 0.02383306
#
# Stress axis : x y z
#
# Youngs Moduli (GPa) = 81.66213 71.14004 68.59529
#
# Poissons Ratio (x) = 0.24741 -0.00752
# Poissons Ratio (y) = 0.28401 0.35365
# Poissons Ratio (z) = -0.00895 0.36677
#
# Static dielectric constant tensor:
#      x y z
#    x 1.697850 0.000000 -0.009530 
#    y 0.000000 1.963670 0.000000 
#    z -0.009530 0.000000 1.776860 
# 
# From -- ./inp_files/175131.got.cif
#   From: 2010.05.17/outbox.cif.g08.bks.cpg/sg15_88_cif.got.tgz:175131.got - 2010.06.03 18:47:42.
