data_PCOD9269348
_publ_section_title
;
Structure prediction by ZEFSAII (Michael W. Deem and Ramdas Pophale) SiO2 
 PCOD9269348
Probable space group: C 2/C
;
_chemical_formula_sum "Si O2"
_cell_formula_units_Z 52
_cell_length_a 6.110697
_cell_length_b 18.034578
_cell_length_c 24.613840
_cell_angle_alpha 90.000000
_cell_angle_beta 67.988415
_cell_angle_gamma 90.000000
_cell_volume 2514.817529
_symmetry_space_group_name_H-M "C 2/C"
_symmetry_group_IT_number 15
_symmetry_cell_setting 'monoclinic'
loop_
_space_group_symop_operation_xyz
x,y,z
-x,y,1/2-z
-x,-y,-z
x,-y,1/2+z
1/2+x,1/2+y,z
1/2-x,1/2+y,1/2-z
1/2-x,1/2-y,-z
1/2+x,1/2-y,1/2+z
loop_
_atom_site_type_symbol
_atom_site_label
_atom_site_fract_x
_atom_site_fract_y
_atom_site_fract_z
Si Si1 0.774043 0.427777 0.968411
Si Si2 0.983480 0.998844 0.187402
Si Si3 0.672681 0.649812 0.985689
Si Si4 0.600393 0.941860 0.417897
Si Si5 0.500000 0.941614 0.750000
Si Si6 0.591614 0.786339 0.929892
Si Si7 0.298257 0.651771 0.308090
O O1 0.930836 0.487488 0.921825
O O2 0.884761 0.346817 0.946276
O O3 0.495747 0.419432 0.985487
O O4 0.817005 0.445142 0.027500
O O5 0.000000 0.982840 0.250000
O O6 0.162327 0.945668 0.139301
O O7 0.704309 0.007659 0.204093
O O8 0.084621 0.082567 0.170259
O O9 0.537750 0.704651 0.956967
O O10 0.918019 0.626601 0.934307
O O11 0.734693 0.685142 0.038135
O O12 0.389243 0.888627 0.714022
O O13 0.704316 0.790163 0.860068
O O14 0.500000 0.683045 0.250000
#
# Coordination Sequence:
#
# PCOD9269348 Si02
#       7
#     8   8   8   8   4   8   8
#     4  10  20  34  55  84 115 151 189 231 285 335
#     4   9  18  34  55  84 114 139 190 241 283 335
#     4  10  22  36  58  84 115 160 183 227 301 337
#     4  10  20  36  54  85 119 142 191 242 271 349
#     4   8  18  32  54  86 108 146 180 230 308 318
#     4  10  20  38  56  85 117 145 195 242 273 349
#     4   9  18  34  55  85 113 138 191 244 277 334
#
# _framework density 20.677446
#
# number of rings (size 3 to 8) (size 9 to 14) (size 15 to 20)
#    0.000    2.769    1.538    0.923    0.000    4.923 
#    0.000    0.000    3.385    0.000    0.000    0.000 
#    0.000    0.000    0.000    0.000    0.000    0.000 
#
# Total GULP energy -144905.278429 kJ/mol
# GULP energy per Si atom -5573.279940 kJ/mol
# Density = 2.063038 g / cm^3
# Si number density = 20.677446 Si / 1000 Ang^3
#
#
#
# Elastic Constant Matrix: (Units=GPa)
#
#
# Indices 1 2 3 4 5 6 
#
# 1 64.5967 6.5314 21.5732 0.0000 -19.7203 0.0000
# 2 6.5314 40.5418 20.5677 0.0000 -1.7119 0.0000
# 3 21.5732 20.5677 120.4801 0.0000 -23.6294 0.0000
# 4 0.0000 0.0000 0.0000 23.9504 0.0000 -6.8423
# 5 -19.7203 -1.7119 -23.6294 0.0000 17.3275 0.0000
# 6 0.0000 0.0000 0.0000 -6.8423 0.0000 20.7360
#
#
#
# Elastic Compliance Matrix: (Units=1/GPa)
#
#
# Indices 1 2 3 4 5 6 
#
# 1 0.024420 -0.003790 0.002255 0.000000 0.030492 0.000000
# 2 -0.003790 0.027906 -0.005994 0.000000 -0.009730 0.000000
# 3 0.002255 -0.005994 0.012705 0.000000 0.019300 0.000000
# 4 0.000000 0.000000 0.000000 0.046099 0.000000 0.015211
# 5 0.030492 -0.009730 0.019300 0.000000 0.117772 0.000000
# 6 0.000000 0.000000 0.000000 0.015211 0.000000 0.053245
#
#
# Mechanical properties :
#
#
# Convention : Reuss Voigt Hill
#
# Bulk Modulus (GPa) = 20.01115 35.88480 27.94797
# Shear Modulus (GPa) = 15.93055 24.19920 20.06488
#
# Velocity S-wave (km/s) = 2.77868 3.42470 3.11846
# Velocity P-wave (km/s) = 4.47141 5.74720 5.14897
#
# Compressibility (1/GPa) = 0.04997215
#
# Stress axis : x y z
#
# Youngs Moduli (GPa) = 40.95063 35.83407 78.71083
#
# Poissons Ratio (x) = 0.13583 -0.17748
# Poissons Ratio (y) = 0.15522 0.47177
# Poissons Ratio (z) = -0.09234 0.21478
#
# Static dielectric constant tensor:
#      x y z
#    x 1.796220 0.000000 -0.035850 
#    y 0.000000 1.810450 0.000000 
#    z -0.035850 0.000000 1.729630 
# 
# From -- ./inp_files/261118.got.cif
#   From: 2010.05.17/outbox.cif.g08.bks.cpg/sg15_131_cif.got.tgz:261118.got - 2010.06.03 18:47:42.
