data_PCOD9269484
_publ_section_title
;
Structure prediction by ZEFSAII (Michael W. Deem and Ramdas Pophale) SiO2 
 PCOD9269484
Probable space group: C 2/C
;
_chemical_formula_sum "Si O2"
_cell_formula_units_Z 52
_cell_length_a 15.987162
_cell_length_b 25.902674
_cell_length_c 9.824748
_cell_angle_alpha 90.000000
_cell_angle_beta 141.021440
_cell_angle_gamma 90.000000
_cell_volume 2559.224804
_symmetry_space_group_name_H-M "C 2/C"
_symmetry_group_IT_number 15
_symmetry_cell_setting 'monoclinic'
loop_
_space_group_symop_operation_xyz
x,y,z
-x,y,1/2-z
-x,-y,-z
x,-y,1/2+z
1/2+x,1/2+y,z
1/2-x,1/2+y,1/2-z
1/2-x,1/2-y,-z
1/2+x,1/2-y,1/2+z
loop_
_atom_site_type_symbol
_atom_site_label
_atom_site_fract_x
_atom_site_fract_y
_atom_site_fract_z
Si Si1 0.111108 0.855284 0.673160
Si Si2 0.265413 0.754040 0.854201
Si Si3 0.000000 0.311805 0.250000
Si Si4 0.840850 0.915885 0.030893
Si Si5 0.095464 0.493891 0.752045
Si Si6 0.193815 0.393306 0.363039
Si Si7 0.299997 0.351901 0.244403
O O1 0.162770 0.799272 0.691794
O O2 0.165197 0.894156 0.628365
O O3 0.954207 0.855157 0.479336
O O4 0.174077 0.873350 0.894218
O O5 0.253442 0.704216 0.742712
O O6 0.250000 0.750000 0.000000
O O7 0.414419 0.776942 0.039309
O O8 0.910603 0.349811 0.225932
O O9 0.801827 0.870871 0.090605
O O10 0.000000 0.929980 0.250000
O O11 0.728886 0.959898 0.903076
O O12 0.146190 0.551374 0.851905
O O13 0.000000 0.473215 0.750000
O O14 0.000000 0.500000 0.500000
O O15 0.218906 0.392389 0.234009
#
# Coordination Sequence:
#
# PCOD9269484 Si02
#       7
#     8   8   4   8   8   8   8
#     4  10  22  40  63  88 129 167 216 265 322 396
#     4  11  20  34  63  91 123 161 214 264 322 373
#     4  10  20  34  56  92 126 150 208 268 320 368
#     4  10  25  46  63  92 137 176 216 269 334 401
#     4  12  25  44  70  96 131 173 223 276 336 391
#     4  11  22  38  64  93 122 164 216 272 323 378
#     4  11  22  39  62  95 128 167 214 271 323 389
#
# _framework density 20.318653000000001
#
# number of rings (size 3 to 8) (size 9 to 14) (size 15 to 20)
#    0.000    1.231    3.846    3.231    2.154    1.846 
#    0.000    3.846    0.000    0.000    0.000    0.000 
#    0.000    0.000    0.000    0.000    0.000    0.000 
#
# Total GULP energy -144996.727677 kJ/mol
# GULP energy per Si atom -5576.797218 kJ/mol
# Density = 2.027241 g / cm^3
# Si number density = 20.318653 Si / 1000 Ang^3
#
#
#
# Elastic Constant Matrix: (Units=GPa)
#
#
# Indices 1 2 3 4 5 6 
#
# 1 92.5134 31.1496 18.2750 0.0000 -3.4915 0.0000
# 2 31.1496 100.5780 18.9124 0.0000 11.6978 0.0000
# 3 18.2750 18.9124 40.0692 0.0000 -7.0524 0.0000
# 4 0.0000 0.0000 0.0000 22.4171 0.0000 4.0950
# 5 -3.4915 11.6978 -7.0524 0.0000 26.2001 0.0000
# 6 0.0000 0.0000 0.0000 4.0950 0.0000 30.3782
#
#
#
# Elastic Compliance Matrix: (Units=1/GPa)
#
#
# Indices 1 2 3 4 5 6 
#
# 1 0.012830 -0.003524 -0.003790 0.000000 0.002263 0.000000
# 2 -0.003524 0.013074 -0.005956 0.000000 -0.007910 0.000000
# 3 -0.003790 -0.005956 0.031361 0.000000 0.010596 0.000000
# 4 0.000000 0.000000 0.000000 0.045735 0.000000 -0.006165
# 5 0.002263 -0.007910 0.010596 0.000000 0.044853 0.000000
# 6 0.000000 0.000000 0.000000 -0.006165 0.000000 0.033749
#
#
# Mechanical properties :
#
#
# Convention : Reuss Voigt Hill
#
# Bulk Modulus (GPa) = 32.54602 41.09274 36.81938
# Shear Modulus (GPa) = 22.89550 26.78731 24.84140
#
# Velocity S-wave (km/s) = 3.36046 3.63486 3.50035
# Velocity P-wave (km/s) = 5.57759 6.15503 5.87341
#
# Compressibility (1/GPa) = 0.03072572
#
# Stress axis : x y z
#
# Youngs Moduli (GPa) = 77.94315 76.48879 31.88644
#
# Poissons Ratio (x) = 0.26955 0.12085
# Poissons Ratio (y) = 0.27468 0.18991
# Poissons Ratio (z) = 0.29540 0.45554
#
# Static dielectric constant tensor:
#      x y z
#    x 1.763500 0.000000 0.017420 
#    y 0.000000 1.741550 0.000000 
#    z 0.017420 0.000000 1.748310 
# 
# From -- ./inp_files/43652.got.cif
#   From: 2010.05.17/outbox.cif.g08.bks.cpg/sg15_22_cif.got.tgz:43652.got - 2010.06.03 18:47:42.
