data_PCOD9269803
_publ_section_title
;
Structure prediction by ZEFSAII (Michael W. Deem and Ramdas Pophale) SiO2 
 PCOD9269803
Probable space group: C 2/C
;
_chemical_formula_sum "Si O2"
_cell_formula_units_Z 60
_cell_length_a 13.171905
_cell_length_b 19.503850
_cell_length_c 14.242027
_cell_angle_alpha 90.000000
_cell_angle_beta 59.933891
_cell_angle_gamma 90.000000
_cell_volume 3166.515951
_symmetry_space_group_name_H-M "C 2/C"
_symmetry_group_IT_number 15
_symmetry_cell_setting 'monoclinic'
loop_
_space_group_symop_operation_xyz
x,y,z
-x,y,1/2-z
-x,-y,-z
x,-y,1/2+z
1/2+x,1/2+y,z
1/2-x,1/2+y,1/2-z
1/2-x,1/2-y,-z
1/2+x,1/2-y,1/2+z
loop_
_atom_site_type_symbol
_atom_site_label
_atom_site_fract_x
_atom_site_fract_y
_atom_site_fract_z
Si Si1 0.029655 0.616879 0.531066
Si Si2 0.556017 0.371007 0.329791
Si Si3 0.686840 0.195478 0.099746
Si Si4 0.576186 0.784902 0.846174
Si Si5 0.235063 0.461286 0.204576
Si Si6 0.669225 0.984653 0.426439
Si Si7 0.164676 0.057956 0.496412
Si Si8 0.000000 0.386596 0.250000
O O1 0.092724 0.668168 0.430038
O O2 0.099481 0.545245 0.509444
O O3 0.014266 0.649190 0.641752
O O4 0.907023 0.585489 0.547528
O O5 0.500000 0.364465 0.250000
O O6 0.560610 0.295653 0.372059
O O7 0.683820 0.404593 0.281567
O O8 0.467070 0.418318 0.428574
O O9 0.551586 0.190718 0.131035
O O10 0.671886 0.212445 0.217783
O O11 0.756980 0.125121 0.059238
O O12 0.750000 0.250000 0.000000
O O13 0.191263 0.508644 0.310122
O O14 0.309293 0.503303 0.095704
O O15 0.118569 0.430198 0.212008
O O16 0.786852 0.971782 0.428452
#
# Coordination Sequence:
#
# PCOD9269803 Si02
#       8
#     8   8   8   8   8   8   8   4
#     4  10  20  37  57  96 121 160 207 265 323 364
#     4  12  23  41  61  92 127 171 204 250 320 389
#     4  11  21  35  59  95 128 160 202 262 325 376
#     4  11  22  37  63  93 131 162 209 269 321 374
#     4  11  24  39  62  93 122 168 212 258 318 370
#     4  10  20  34  61  88 124 158 202 266 314 369
#     4  12  21  38  62  89 132 159 205 260 313 386
#     4  10  22  40  66  86 122 162 222 266 308 378
#
# _framework density 18.948270000000001
#
# number of rings (size 3 to 8) (size 9 to 14) (size 15 to 20)
#    0.000    1.067    6.667    1.200    0.000    1.067 
#    0.000    0.667    0.000    0.000    0.000    0.000 
#    0.000    0.000    0.000    0.000    0.000    0.000 
#
# Total GULP energy -167192.580748 kJ/mol
# GULP energy per Si atom -5573.086025 kJ/mol
# Density = 1.890514 g / cm^3
# Si number density = 18.948270 Si / 1000 Ang^3
#
#
#
# Elastic Constant Matrix: (Units=GPa)
#
#
# Indices 1 2 3 4 5 6 
#
# 1 66.9443 28.1999 25.7577 0.0000 -3.3077 0.0000
# 2 28.1999 58.6332 27.6118 0.0000 8.6502 0.0000
# 3 25.7577 27.6118 125.2940 0.0000 18.2279 0.0000
# 4 0.0000 0.0000 0.0000 33.2446 0.0000 -2.3043
# 5 -3.3077 8.6502 18.2279 0.0000 36.8584 0.0000
# 6 0.0000 0.0000 0.0000 -2.3043 0.0000 13.2036
#
#
#
# Elastic Compliance Matrix: (Units=1/GPa)
#
#
# Indices 1 2 3 4 5 6 
#
# 1 0.020171 -0.009121 -0.002921 0.000000 0.005396 0.000000
# 2 -0.009121 0.023385 -0.002544 0.000000 -0.005049 0.000000
# 3 -0.002921 -0.002544 0.009799 0.000000 -0.004511 0.000000
# 4 0.000000 0.000000 0.000000 0.030448 0.000000 0.005314
# 5 0.005396 -0.005049 -0.004511 0.000000 0.031031 0.000000
# 6 0.000000 0.000000 0.000000 0.005314 0.000000 0.076665
#
#
# Mechanical properties :
#
#
# Convention : Reuss Voigt Hill
#
# Bulk Modulus (GPa) = 41.35493 46.00117 43.67805
# Shear Modulus (GPa) = 21.85962 27.94811 24.90387
#
# Velocity S-wave (km/s) = 3.40022 3.84470 3.62927
# Velocity P-wave (km/s) = 6.10638 6.63618 6.37679
#
# Compressibility (1/GPa) = 0.02418091
#
# Stress axis : x y z
#
# Youngs Moduli (GPa) = 49.57649 42.76248 102.05446
#
# Poissons Ratio (x) = 0.39006 0.29815
# Poissons Ratio (y) = 0.45221 0.25961
# Poissons Ratio (z) = 0.14484 0.10878
#
# Static dielectric constant tensor:
#      x y z
#    x 1.673900 0.000000 0.005800 
#    y 0.000000 1.645520 0.000000 
#    z 0.005800 0.000000 1.705560 
# 
# From -- ./inp_files/147092.got.cif
#   From: 2010.05.17/outbox.cif.g08.bks.cpg/sg15_74_cif.got.tgz:147092.got - 2010.06.03 18:47:42.
