data_PCOD9269397
_publ_section_title
;
Structure prediction by ZEFSAII (Michael W. Deem and Ramdas Pophale) SiO2 
 PCOD9269397
Probable space group: C 2/C
;
_chemical_formula_sum "Si O2"
_cell_formula_units_Z 48
_cell_length_a 13.605532
_cell_length_b 23.660892
_cell_length_c 18.203974
_cell_angle_alpha 90.000000
_cell_angle_beta 153.420284
_cell_angle_gamma 90.000000
_cell_volume 2622.105065
_symmetry_space_group_name_H-M "C 2/C"
_symmetry_group_IT_number 15
_symmetry_cell_setting 'monoclinic'
loop_
_space_group_symop_operation_xyz
x,y,z
-x,y,1/2-z
-x,-y,-z
x,-y,1/2+z
1/2+x,1/2+y,z
1/2-x,1/2+y,1/2-z
1/2-x,1/2-y,-z
1/2+x,1/2-y,1/2+z
loop_
_atom_site_type_symbol
_atom_site_label
_atom_site_fract_x
_atom_site_fract_y
_atom_site_fract_z
Si Si1 0.739868 0.304337 0.875175
Si Si2 0.510303 0.024845 0.177070
Si Si3 0.866978 0.581726 0.391113
Si Si4 0.472638 0.492955 0.150635
Si Si5 0.610983 0.817632 0.246332
Si Si6 0.753613 0.070862 0.771744
O O1 0.500000 0.314496 0.750000
O O2 0.796915 0.353612 0.855961
O O3 0.736283 0.241369 0.840424
O O4 0.916112 0.307887 0.058048
O O5 0.500000 0.052914 0.250000
O O6 0.540596 0.065516 0.127327
O O7 0.698820 0.977995 0.293479
O O8 0.280806 0.990401 0.020578
O O9 0.651773 0.542718 0.261316
O O10 0.055550 0.569004 0.578279
O O11 0.500000 0.467674 0.250000
O O12 0.468620 0.553137 0.871249
O O13 0.500000 0.832574 0.250000
O O14 0.753671 0.869145 0.310971
#
# Coordination Sequence:
#
# PCOD9269397 Si02
#       6
#     8   8   8   8   8   8
#     4  10  20  35  55  78 105 140 175 215 266 308
#     4  11  22  36  50  84 113 133 173 224 261 311
#     4  10  20  34  57  79 105 141 180 210 260 325
#     4  11  18  35  59  75 106 145 175 207 266 319
#     4  10  20  36  53  79 109 135 174 222 259 311
#     4  10  20  34  56  81 104 141 180 213 257 318
#
# _framework density 18.305903000000001
#
# number of rings (size 3 to 8) (size 9 to 14) (size 15 to 20)
#    0.000    1.667    3.333    4.000    2.333    2.667 
#    9.000    0.000    0.000    2.000    0.000    0.000 
#    0.000    0.000    0.000    0.000    0.000    0.000 
#
# Total GULP energy -133941.568094 kJ/mol
# GULP energy per Si atom -5580.898671 kJ/mol
# Density = 1.826424 g / cm^3
# Si number density = 18.305903 Si / 1000 Ang^3
#
#
#
# Elastic Constant Matrix: (Units=GPa)
#
#
# Indices 1 2 3 4 5 6 
#
# 1 145.6011 69.3815 27.8801 0.0005 -14.6922 0.0066
# 2 69.3815 98.9769 7.8308 -0.0013 -18.2481 -0.0053
# 3 27.8801 7.8308 28.4111 -0.0596 -4.8597 0.0002
# 4 0.0005 -0.0013 -0.0596 12.7560 -0.0145 2.6335
# 5 -14.6922 -18.2481 -4.8597 -0.0145 28.3280 0.0078
# 6 0.0066 -0.0053 0.0002 2.6335 0.0078 20.8587
#
#
#
# Elastic Compliance Matrix: (Units=1/GPa)
#
#
# Indices 1 2 3 4 5 6 
#
# 1 0.012675 -0.008154 -0.010266 -0.000050 -0.000440 0.000001
# 2 -0.008154 0.016817 0.004632 0.000032 0.007399 0.000000
# 3 -0.010266 0.004632 0.044913 0.000222 0.005364 -0.000026
# 4 -0.000050 0.000032 0.000222 0.080494 0.000077 -0.010163
# 5 -0.000440 0.007399 0.005364 0.000077 0.040759 -0.000023
# 6 0.000001 0.000000 -0.000026 -0.010163 -0.000023 0.049225
#
#
# Mechanical properties :
#
#
# Convention : Reuss Voigt Hill
#
# Bulk Modulus (GPa) = 21.35437 53.68598 37.52017
# Shear Modulus (GPa) = 17.35705 23.58165 20.46935
#
# Velocity S-wave (km/s) = 3.08257 3.59304 3.34755
# Velocity P-wave (km/s) = 4.93561 6.82672 5.95669
#
# Compressibility (1/GPa) = 0.04682883
#
# Stress axis : x y z
#
# Youngs Moduli (GPa) = 78.89629 59.46487 22.26529
#
# Poissons Ratio (x) = 0.48486 0.22857
# Poissons Ratio (y) = 0.64330 -0.10313
# Poissons Ratio (z) = 0.80994 -0.27544
#
# Static dielectric constant tensor:
#      x y z
#    x 1.615930 0.000000 -0.024740 
#    y 0.000000 1.617870 0.000000 
#    z -0.024740 0.000000 1.688140 
# 
# From -- ./inp_files/148820.got.cif
#   From: 2010.05.17/outbox.cif.g08.bks.cpg/sg15_75_cif.got.tgz:148820.got - 2010.06.03 18:47:42.
