data_PCOD9269905
_publ_section_title
;
Structure prediction by ZEFSAII (Michael W. Deem and Ramdas Pophale) SiO2 
 PCOD9269905
Probable space group: C 2/C
;
_chemical_formula_sum "Si O2"
_cell_formula_units_Z 48
_cell_length_a 11.330965
_cell_length_b 16.527557
_cell_length_c 13.796392
_cell_angle_alpha 90.000000
_cell_angle_beta 89.945524
_cell_angle_gamma 90.000000
_cell_volume 2583.692895
_symmetry_space_group_name_H-M "C 2/C"
_symmetry_group_IT_number 15
_symmetry_cell_setting 'monoclinic'
loop_
_space_group_symop_operation_xyz
x,y,z
-x,y,1/2-z
-x,-y,-z
x,-y,1/2+z
1/2+x,1/2+y,z
1/2-x,1/2+y,1/2-z
1/2-x,1/2-y,-z
1/2+x,1/2-y,1/2+z
loop_
_atom_site_type_symbol
_atom_site_label
_atom_site_fract_x
_atom_site_fract_y
_atom_site_fract_z
Si Si1 0.538371 0.636522 0.639221
Si Si2 0.731260 0.495549 0.603189
Si Si3 0.736990 0.755121 0.615525
Si Si4 0.867282 0.899195 0.722618
Si Si5 0.365563 0.889153 0.223752
Si Si6 0.688726 0.559555 0.893871
O O1 0.500000 0.623331 0.750000
O O2 0.631451 0.566939 0.607987
O O3 0.603916 0.722521 0.633516
O O4 0.416882 0.622252 0.582741
O O5 0.690218 0.424952 0.675297
O O6 0.845185 0.535814 0.651442
O O7 0.745915 0.467678 0.493962
O O8 0.750000 0.750000 0.500000
O O9 0.784174 0.837968 0.662515
O O10 0.817877 0.688691 0.668088
O O11 0.000000 0.871078 0.750000
O O12 0.870864 0.981195 0.657819
O O13 0.500000 0.880010 0.250000
O O14 0.281912 0.905315 0.316930
#
# Coordination Sequence:
#
# PCOD9269905 Si02
#       6
#     8   8   8   8   8   8
#     4  11  18  40  63  91 124 162 202 263 310 362
#     4  10  20  34  65  95 113 154 215 260 297 363
#     4  11  24  38  58  89 124 165 201 254 319 366
#     4  11  20  35  58  94 123 154 214 259 290 365
#     4  10  22  42  59  83 130 167 199 252 324 373
#     4  11  20  38  68  93 118 163 214 259 305 364
#
# _framework density 18.578060000000001
#
# number of rings (size 3 to 8) (size 9 to 14) (size 15 to 20)
#    0.000    1.333    6.667    3.000    2.333    0.667 
#    0.000    5.833    0.000    0.000    0.000    0.000 
#    0.000    0.000    0.000    0.000    0.000    0.000 
#
# Total GULP energy -133844.322471 kJ/mol
# GULP energy per Si atom -5576.846770 kJ/mol
# Density = 1.853578 g / cm^3
# Si number density = 18.578060 Si / 1000 Ang^3
#
#
#
# Elastic Constant Matrix: (Units=GPa)
#
#
# Indices 1 2 3 4 5 6 
#
# 1 88.2104 29.2546 15.0309 0.0000 2.9935 0.0000
# 2 29.2546 63.6482 20.9343 0.0000 -7.7782 0.0000
# 3 15.0309 20.9343 110.9924 0.0000 2.2062 0.0000
# 4 0.0000 0.0000 0.0000 17.4042 0.0000 -0.8814
# 5 2.9935 -7.7782 2.2062 0.0000 4.8649 0.0000
# 6 0.0000 0.0000 0.0000 -0.8814 0.0000 18.4122
#
#
#
# Elastic Compliance Matrix: (Units=1/GPa)
#
#
# Indices 1 2 3 4 5 6 
#
# 1 0.015705 -0.010637 0.000413 0.000000 -0.026857 0.000000
# 2 -0.010637 0.029051 -0.005139 0.000000 0.055323 0.000000
# 3 0.000413 -0.005139 0.010183 0.000000 -0.013088 0.000000
# 4 0.000000 0.000000 0.000000 0.057597 0.000000 0.002757
# 5 -0.026857 0.055323 -0.013088 0.000000 0.316467 0.000000
# 6 0.000000 0.000000 0.000000 0.002757 0.000000 0.054444
#
#
# Mechanical properties :
#
#
# Convention : Reuss Voigt Hill
#
# Bulk Modulus (GPa) = 41.29602 43.69897 42.49749
# Shear Modulus (GPa) = 9.57408 21.31165 15.44286
#
# Velocity S-wave (km/s) = 2.27258 3.39062 2.88625
# Velocity P-wave (km/s) = 5.40026 6.23709 5.83370
#
# Compressibility (1/GPa) = 0.02421541
#
# Stress axis : x y z
#
# Youngs Moduli (GPa) = 63.67361 34.42190 98.20256
#
# Poissons Ratio (x) = 0.36613 -0.04058
# Poissons Ratio (y) = 0.67727 0.50463
# Poissons Ratio (z) = -0.02631 0.17688
#
# Static dielectric constant tensor:
#      x y z
#    x 1.660840 0.000000 0.020520 
#    y 0.000000 1.679240 0.000000 
#    z 0.020520 0.000000 1.644350 
# 
# From -- ./inp_files/143529.got.cif
#   From: 2010.05.17/outbox.cif.g08.bks.cpg/sg15_72_cif.got.tgz:143529.got - 2010.06.03 18:47:42.
