data_PCOD9269623
_publ_section_title
;
Structure prediction by ZEFSAII (Michael W. Deem and Ramdas Pophale) SiO2 
 PCOD9269623
Probable space group: C 2/C
;
_chemical_formula_sum "Si O2"
_cell_formula_units_Z 44
_cell_length_a 23.182812
_cell_length_b 15.876686
_cell_length_c 13.620057
_cell_angle_alpha 90.000000
_cell_angle_beta 159.718726
_cell_angle_gamma 90.000000
_cell_volume 1737.680457
_symmetry_space_group_name_H-M "C 2/C"
_symmetry_group_IT_number 15
_symmetry_cell_setting 'monoclinic'
loop_
_space_group_symop_operation_xyz
x,y,z
-x,y,1/2-z
-x,-y,-z
x,-y,1/2+z
1/2+x,1/2+y,z
1/2-x,1/2+y,1/2-z
1/2-x,1/2-y,-z
1/2+x,1/2-y,1/2+z
loop_
_atom_site_type_symbol
_atom_site_label
_atom_site_fract_x
_atom_site_fract_y
_atom_site_fract_z
Si Si1 0.316335 0.887556 0.641830
Si Si2 0.771099 0.800554 0.328736
Si Si3 0.038669 0.744726 0.617550
Si Si4 0.000000 0.669469 0.250000
Si Si5 0.962162 0.912877 0.995281
Si Si6 0.308224 0.504588 0.907853
O O1 0.407346 0.812459 0.844564
O O2 0.399261 0.887059 0.667185
O O3 0.120255 0.878381 0.308622
O O4 0.314619 0.972437 0.703750
O O5 0.936343 0.754686 0.555020
O O6 0.777617 0.901197 0.324662
O O7 0.711840 0.790653 0.347074
O O8 0.625437 0.776243 0.018079
O O9 0.063041 0.840828 0.622865
O O10 0.810801 0.935715 0.825363
O O11 0.000000 0.000000 0.000000
O O12 0.500000 0.506461 0.250000
#
# Coordination Sequence:
#
# PCOD9269623 Si02
#       6
#     8   8   8   4   8   8
#     4  10  21  35  59  92 121 165 198 262 312 378
#     4  11  23  39  61  94 126 166 207 269 323 382
#     4  11  22  37  62  93 129 154 213 265 320 375
#     4  10  20  34  58  88 132 148 196 262 328 366
#     4  11  19  36  62  87 124 163 206 251 321 387
#     4  10  22  40  62  87 126 168 215 253 317 390
#
# _framework density 25.321110999999998
#
# number of rings (size 3 to 8) (size 9 to 14) (size 15 to 20)
#    0.000    1.455    3.636    1.636    2.545    2.909 
#    1.636    2.727    0.000    0.000    4.727    0.000 
#    0.000    0.000    0.000    0.000    0.000    0.000 
#
# Total GULP energy -122809.420337 kJ/mol
# GULP energy per Si atom -5582.246379 kJ/mol
# Density = 2.526348 g / cm^3
# Si number density = 25.321111 Si / 1000 Ang^3
#
#
#
# Elastic Constant Matrix: (Units=GPa)
#
#
# Indices 1 2 3 4 5 6 
#
# 1 183.9010 33.1639 60.3834 0.0000 32.6033 0.0000
# 2 33.1639 105.5424 27.6972 0.0000 10.0945 0.0000
# 3 60.3834 27.6972 105.3889 0.0000 26.8180 0.0000
# 4 0.0000 0.0000 0.0000 26.6612 0.0000 3.3764
# 5 32.6033 10.0945 26.8180 0.0000 42.6060 0.0000
# 6 0.0000 0.0000 0.0000 3.3764 0.0000 110.2848
#
#
#
# Elastic Compliance Matrix: (Units=1/GPa)
#
#
# Indices 1 2 3 4 5 6 
#
# 1 0.007223 -0.001166 -0.002972 0.000000 -0.003380 0.000000
# 2 -0.001166 0.010392 -0.001981 0.000000 -0.000323 0.000000
# 3 -0.002972 -0.001981 0.013114 0.000000 -0.005511 0.000000
# 4 0.000000 0.000000 0.000000 0.037654 0.000000 -0.001153
# 5 -0.003380 -0.000323 -0.005511 0.000000 0.029603 0.000000
# 6 0.000000 0.000000 0.000000 -0.001153 0.000000 0.009103
#
#
# Mechanical properties :
#
#
# Convention : Reuss Voigt Hill
#
# Bulk Modulus (GPa) = 54.07822 70.81348 62.44585
# Shear Modulus (GPa) = 39.84351 54.14959 46.99655
#
# Velocity S-wave (km/s) = 3.97108 4.62943 4.31283
# Velocity P-wave (km/s) = 6.51378 7.52345 7.03675
#
# Compressibility (1/GPa) = 0.01849173
#
# Stress axis : x y z
#
# Youngs Moduli (GPa) = 138.44371 96.22742 76.25226
#
# Poissons Ratio (x) = 0.11225 0.22661
# Poissons Ratio (y) = 0.16149 0.15103
# Poissons Ratio (z) = 0.41143 0.19059
#
# Static dielectric constant tensor:
#      x y z
#    x 2.311880 0.000000 -0.221090 
#    y 0.000000 1.948090 0.000000 
#    z -0.221090 0.000000 2.228780 
# 
# From -- ./inp_files/119178.got.cif
#   From: 2010.05.17/outbox.cif.g08.bks.cpg/sg15_60_cif.got.tgz:119178.got - 2010.06.03 18:47:42.
