data_PCOD9269179
_publ_section_title
;
Structure prediction by ZEFSAII (Michael W. Deem and Ramdas Pophale) SiO2 
 PCOD9269179
Probable space group: C 2/C
;
_chemical_formula_sum "Si O2"
_cell_formula_units_Z 60
_cell_length_a 19.617892
_cell_length_b 6.133066
_cell_length_c 22.987379
_cell_angle_alpha 90.000000
_cell_angle_beta 111.877182
_cell_angle_gamma 90.000000
_cell_volume 2566.612235
_symmetry_space_group_name_H-M "C 2/C"
_symmetry_group_IT_number 15
_symmetry_cell_setting 'monoclinic'
loop_
_space_group_symop_operation_xyz
x,y,z
-x,y,1/2-z
-x,-y,-z
x,-y,1/2+z
1/2+x,1/2+y,z
1/2-x,1/2+y,1/2-z
1/2-x,1/2-y,-z
1/2+x,1/2-y,1/2+z
loop_
_atom_site_type_symbol
_atom_site_label
_atom_site_fract_x
_atom_site_fract_y
_atom_site_fract_z
Si Si1 0.197131 0.989122 0.929288
Si Si2 0.839343 0.767869 0.474202
Si Si3 0.253161 0.354101 0.884026
Si Si4 0.880894 0.488507 0.389943
Si Si5 0.285130 0.860984 0.754447
Si Si6 0.526654 0.138355 0.676371
Si Si7 0.102643 0.870449 0.799099
Si Si8 0.000000 0.745160 0.250000
O O1 0.278175 0.910578 0.972531
O O2 0.175809 0.887214 0.859578
O O3 0.203230 0.243943 0.917928
O O4 0.142972 0.903078 0.962018
O O5 0.895208 0.643438 0.449666
O O6 0.794669 0.936297 0.420007
O O7 0.204893 0.387324 0.811528
O O8 0.318675 0.185377 0.888344
O O9 0.846554 0.621528 0.324102
O O10 0.950041 0.370154 0.382560
O O11 0.258897 0.599692 0.749432
O O12 0.504425 0.905159 0.694954
O O13 0.594417 0.228954 0.738027
O O14 0.458762 0.284016 0.675150
O O15 0.071552 0.105532 0.772958
#
# Coordination Sequence:
#
# PCOD9269179 Si02
#       8
#     8   8   8   8   8   8   8   4
#     4  10  22  36  59  78 114 156 198 245 293 367
#     4  10  21  39  53  84 115 153 196 238 301 373
#     4  10  21  34  53  83 116 151 197 239 312 363
#     4  10  21  34  55  82 118 151 188 248 308 366
#     4  10  20  34  52  87 124 156 198 248 317 388
#     4   9  20  36  57  84 114 145 192 248 304 350
#     4   9  20  37  55  82 110 148 200 242 297 361
#     4   8  18  36  54  82 110 142 186 238 292 346
#
# _framework density 23.377120000000001
#
# number of rings (size 3 to 8) (size 9 to 14) (size 15 to 20)
#    0.000    2.667    1.333    0.400    3.733    5.333 
#    0.000    0.667    0.000    1.600    0.000    0.000 
#    0.000    0.000    0.000    0.000    0.000    0.000 
#
# Total GULP energy -167127.215154 kJ/mol
# GULP energy per Si atom -5570.907172 kJ/mol
# Density = 2.332391 g / cm^3
# Si number density = 23.377120 Si / 1000 Ang^3
#
#
#
# Elastic Constant Matrix: (Units=GPa)
#
#
# Indices 1 2 3 4 5 6 
#
# 1 34.0976 10.8450 6.4761 0.0000 -15.2003 0.0000
# 2 10.8450 85.3623 25.4477 0.0000 -5.0003 0.0000
# 3 6.4761 25.4477 77.0561 0.0000 -23.1985 0.0000
# 4 0.0000 0.0000 0.0000 28.0046 0.0000 -1.0677
# 5 -15.2003 -5.0003 -23.1985 0.0000 24.6682 0.0000
# 6 0.0000 0.0000 0.0000 -1.0677 0.0000 14.2380
#
#
#
# Elastic Compliance Matrix: (Units=1/GPa)
#
#
# Indices 1 2 3 4 5 6 
#
# 1 0.045189 -0.006316 0.008768 0.000000 0.034811 0.000000
# 2 -0.006316 0.013945 -0.006131 0.000000 -0.006831 0.000000
# 3 0.008768 -0.006131 0.021646 0.000000 0.024517 0.000000
# 4 0.000000 0.000000 0.000000 0.035811 0.000000 0.002686
# 5 0.034811 -0.006831 0.024517 0.000000 0.083660 0.000000
# 6 0.000000 0.000000 0.000000 0.002686 0.000000 0.070436
#
#
# Mechanical properties :
#
#
# Convention : Reuss Voigt Hill
#
# Bulk Modulus (GPa) = 13.61978 31.33930 22.47954
# Shear Modulus (GPa) = 16.52792 23.63197 20.07994
#
# Velocity S-wave (km/s) = 2.66186 3.18292 2.93398
# Velocity P-wave (km/s) = 3.90974 5.19067 4.59506
#
# Compressibility (1/GPa) = 0.07342262
#
# Stress axis : x y z
#
# Youngs Moduli (GPa) = 22.12919 71.71139 46.19705
#
# Poissons Ratio (x) = 0.45292 -0.40505
# Poissons Ratio (y) = 0.13977 0.28323
# Poissons Ratio (z) = -0.19403 0.43966
#
# Static dielectric constant tensor:
#      x y z
#    x 1.953870 0.000000 -0.025640 
#    y 0.000000 1.943780 0.000000 
#    z -0.025640 0.000000 1.892110 
# 
# From -- ./inp_files/281020.got.cif
#   From: 2010.05.17/outbox.cif.g08.bks.cpg/sg15_141_cif.got.tgz:281020.got - 2010.06.03 18:47:42.
