data_PCOD9269111
_publ_section_title
;
Structure prediction by ZEFSAII (Michael W. Deem and Ramdas Pophale) SiO2 
 PCOD9269111
Probable space group: C 2/C
;
_chemical_formula_sum "Si O2"
_cell_formula_units_Z 48
_cell_length_a 15.149851
_cell_length_b 28.023134
_cell_length_c 10.962618
_cell_angle_alpha 90.000000
_cell_angle_beta 27.119502
_cell_angle_gamma 90.000000
_cell_volume 2121.579408
_symmetry_space_group_name_H-M "C 2/C"
_symmetry_group_IT_number 15
_symmetry_cell_setting 'monoclinic'
loop_
_space_group_symop_operation_xyz
x,y,z
-x,y,1/2-z
-x,-y,-z
x,-y,1/2+z
1/2+x,1/2+y,z
1/2-x,1/2+y,1/2-z
1/2-x,1/2-y,-z
1/2+x,1/2-y,1/2+z
loop_
_atom_site_type_symbol
_atom_site_label
_atom_site_fract_x
_atom_site_fract_y
_atom_site_fract_z
Si Si1 0.851193 0.965731 0.760096
Si Si2 0.339942 0.608953 0.618630
Si Si3 0.767612 0.800391 0.324473
Si Si4 0.823469 0.691348 0.292507
Si Si5 0.915723 0.402985 0.578753
Si Si6 0.208071 0.060334 0.558507
O O1 0.685905 0.941402 0.882337
O O2 0.981807 0.922318 0.644410
O O3 0.769243 0.003450 0.956025
O O4 0.000000 0.000000 0.500000
O O5 0.383426 0.664167 0.594299
O O6 0.294517 0.586835 0.809258
O O7 0.144753 0.602973 0.779909
O O8 0.794112 0.744042 0.275873
O O9 0.798334 0.811360 0.431094
O O10 0.545352 0.811471 0.564818
O O11 0.806324 0.648310 0.218016
O O12 0.873880 0.420701 0.767377
O O13 0.000000 0.068927 0.750000
#
# Coordination Sequence:
#
# PCOD9269111 Si02
#       6
#     8   8   8   8   8   8
#     4  10  22  35  49  75  97 138 181 215 253 307
#     4  10  20  34  51  71 104 138 173 210 254 295
#     4   9  17  28  43  71  96 131 169 199 237 304
#     4   9  18  27  44  70  96 131 170 196 243 300
#     4  11  20  36  52  71 105 141 170 215 254 301
#     4  11  20  35  51  71 100 137 176 214 256 304
#
# _framework density 22.624654
#
# number of rings (size 3 to 8) (size 9 to 14) (size 15 to 20)
#    0.000    2.000    5.000    0.500    2.333    2.667 
#    3.000    0.000    0.000    0.000    0.000    0.000 
#    0.000    1.333    0.000    0.000    0.333    0.167 
#
# Total GULP energy -134099.855389 kJ/mol
# GULP energy per Si atom -5587.493975 kJ/mol
# Density = 2.257316 g / cm^3
# Si number density = 22.624654 Si / 1000 Ang^3
#
#
#
# Elastic Constant Matrix: (Units=GPa)
#
#
# Indices 1 2 3 4 5 6 
#
# 1 63.5660 12.5426 16.7116 -0.0040 -23.9068 0.0015
# 2 12.5426 150.4747 15.4362 0.0001 -4.7095 0.0003
# 3 16.7116 15.4362 25.9790 -0.0089 -7.4879 0.0032
# 4 -0.0040 0.0001 -0.0089 17.9023 0.0074 -2.0460
# 5 -23.9068 -4.7095 -7.4879 0.0074 21.9838 -0.0021
# 6 0.0015 0.0003 0.0032 -2.0460 -0.0021 40.9821
#
#
#
# Elastic Compliance Matrix: (Units=1/GPa)
#
#
# Indices 1 2 3 4 5 6 
#
# 1 0.029074 -0.000486 -0.010347 -0.000010 0.027989 0.000001
# 2 -0.000486 0.007085 -0.004005 -0.000002 -0.000375 0.000000
# 3 -0.010347 -0.004005 0.048832 0.000020 0.004523 -0.000002
# 4 -0.000010 -0.000002 0.000020 0.056179 -0.000023 0.002805
# 5 0.027989 -0.000375 0.004523 -0.000023 0.077386 0.000001
# 6 0.000001 0.000000 -0.000002 0.002805 0.000001 0.024541
#
#
# Mechanical properties :
#
#
# Convention : Reuss Voigt Hill
#
# Bulk Modulus (GPa) = 18.07816 36.60007 27.33912
# Shear Modulus (GPa) = 17.16965 29.19562 23.18263
#
# Velocity S-wave (km/s) = 2.75779 3.59616 3.20451
# Velocity P-wave (km/s) = 4.26009 5.78406 5.07955
#
# Compressibility (1/GPa) = 0.05531537
#
# Stress axis : x y z
#
# Youngs Moduli (GPa) = 34.39471 141.13737 20.47843
#
# Poissons Ratio (x) = 0.06860 0.21188
# Poissons Ratio (y) = 0.01672 0.08202
# Poissons Ratio (z) = 0.35587 0.56531
#
# Static dielectric constant tensor:
#      x y z
#    x 1.861370 0.000000 -0.013940 
#    y 0.000000 1.903080 -0.000010 
#    z -0.013940 -0.000010 1.860500 
# 
# From -- ./inp_files/101404.got.cif
#   From: 2010.05.17/outbox.cif.g08.bks.cpg/sg15_51_cif.got.tgz:101404.got - 2010.06.03 18:47:42.
