data_PCOD9269619
_publ_section_title
;
Structure prediction by ZEFSAII (Michael W. Deem and Ramdas Pophale) SiO2 
 PCOD9269619
Probable space group: C 2/C
;
_chemical_formula_sum "Si O2"
_cell_formula_units_Z 52
_cell_length_a 5.330573
_cell_length_b 24.959052
_cell_length_c 21.280977
_cell_angle_alpha 90.000000
_cell_angle_beta 112.504860
_cell_angle_gamma 90.000000
_cell_volume 2615.734308
_symmetry_space_group_name_H-M "C 2/C"
_symmetry_group_IT_number 15
_symmetry_cell_setting 'monoclinic'
loop_
_space_group_symop_operation_xyz
x,y,z
-x,y,1/2-z
-x,-y,-z
x,-y,1/2+z
1/2+x,1/2+y,z
1/2-x,1/2+y,1/2-z
1/2-x,1/2-y,-z
1/2+x,1/2-y,1/2+z
loop_
_atom_site_type_symbol
_atom_site_label
_atom_site_fract_x
_atom_site_fract_y
_atom_site_fract_z
Si Si1 0.682595 0.595469 0.205324
Si Si2 0.494536 0.228129 0.673356
Si Si3 0.813857 0.030019 0.794805
Si Si4 0.128341 0.865417 0.138171
Si Si5 0.167545 0.170850 0.417924
Si Si6 0.500000 0.309102 0.250000
Si Si7 0.282276 0.314283 0.999276
O O1 0.500000 0.601925 0.250000
O O2 0.675075 0.532622 0.186548
O O3 0.524176 0.630234 0.138818
O O4 0.000000 0.609839 0.250000
O O5 0.500000 0.236372 0.750000
O O6 0.391871 0.169223 0.643284
O O7 0.343338 0.273400 0.621645
O O8 0.812424 0.229003 0.690376
O O9 0.500000 0.042407 0.750000
O O10 0.885660 0.070871 0.857893
O O11 0.000000 0.036538 0.750000
O O12 0.126382 0.847768 0.210935
O O13 0.890322 0.840693 0.073755
O O14 0.488706 0.159911 0.454887
O O15 0.016809 0.176517 0.470014
O O16 0.250000 0.250000 0.000000
#
# Coordination Sequence:
#
# PCOD9269619 Si02
#       7
#     8   8   8   8   8   4   8
#     4  10  22  42  69  95 125 163 210 266 322 368
#     4  10  22  34  58  89 119 156 204 265 314 365
#     4  10  21  39  65  96 123 156 206 270 325 367
#     4  11  22  38  60  89 123 164 204 259 315 368
#     4  12  25  42  61  89 128 167 213 247 311 381
#     4  10  20  34  58  88 118 142 206 262 314 354
#     4  12  26  42  61  87 130 177 209 247 312 384
#
# _framework density 19.879695000000002
#
# number of rings (size 3 to 8) (size 9 to 14) (size 15 to 20)
#    0.000    1.231    2.308    4.154    5.385    0.000 
#    0.000    1.538    0.000    0.000    0.000    0.000 
#    0.000    0.000    0.000    0.000    0.000    0.000 
#
# Total GULP energy -144876.164537 kJ/mol
# GULP energy per Si atom -5572.160174 kJ/mol
# Density = 1.983445 g / cm^3
# Si number density = 19.879695 Si / 1000 Ang^3
#
#
#
# Elastic Constant Matrix: (Units=GPa)
#
#
# Indices 1 2 3 4 5 6 
#
# 1 99.4249 13.7992 32.3189 0.0000 14.1264 0.0000
# 2 13.7992 69.6674 37.9330 0.0000 3.9828 0.0000
# 3 32.3189 37.9330 89.2475 0.0000 14.8568 0.0000
# 4 0.0000 0.0000 0.0000 20.8923 0.0000 6.5376
# 5 14.1264 3.9828 14.8568 0.0000 38.7353 0.0000
# 6 0.0000 0.0000 0.0000 6.5376 0.0000 17.4564
#
#
#
# Elastic Compliance Matrix: (Units=1/GPa)
#
#
# Indices 1 2 3 4 5 6 
#
# 1 0.011682 -0.000137 -0.003702 0.000000 -0.002826 0.000000
# 2 -0.000137 0.018730 -0.008117 0.000000 0.001237 0.000000
# 3 -0.003702 -0.008117 0.016698 0.000000 -0.004220 0.000000
# 4 0.000000 0.000000 0.000000 0.054219 0.000000 -0.020306
# 5 -0.002826 0.001237 -0.004220 0.000000 0.028338 0.000000
# 6 0.000000 0.000000 0.000000 -0.020306 0.000000 0.064890
#
#
# Mechanical properties :
#
#
# Convention : Reuss Voigt Hill
#
# Bulk Modulus (GPa) = 43.10690 47.38244 45.24467
# Shear Modulus (GPa) = 22.10425 27.03603 24.57014
#
# Velocity S-wave (km/s) = 3.33814 3.69179 3.51941
# Velocity P-wave (km/s) = 6.04884 6.48528 6.27086
#
# Compressibility (1/GPa) = 0.02319814
#
# Stress axis : x y z
#
# Youngs Moduli (GPa) = 85.60442 53.39022 59.88805
#
# Poissons Ratio (x) = 0.00730 0.22168
# Poissons Ratio (y) = 0.01171 0.48613
# Poissons Ratio (z) = 0.31687 0.43338
#
# Static dielectric constant tensor:
#      x y z
#    x 2.059260 0.000000 0.087960 
#    y 0.000000 1.760100 0.000000 
#    z 0.087960 0.000000 1.735520 
# 
# From -- ./inp_files/228218.got.cif
#   From: 2010.05.17/outbox.cif.g08.bks.cpg/sg15_115_cif.got.tgz:228218.got - 2010.06.03 18:47:42.
