data_PCOD9269410
_publ_section_title
;
Structure prediction by ZEFSAII (Michael W. Deem and Ramdas Pophale) SiO2 
 PCOD9269410
Probable space group: C 2/C
;
_chemical_formula_sum "Si O2"
_cell_formula_units_Z 44
_cell_length_a 26.277209
_cell_length_b 12.803509
_cell_length_c 7.784144
_cell_angle_alpha 90.000000
_cell_angle_beta 127.485315
_cell_angle_gamma 90.000000
_cell_volume 2078.122532
_symmetry_space_group_name_H-M "C 2/C"
_symmetry_group_IT_number 15
_symmetry_cell_setting 'monoclinic'
loop_
_space_group_symop_operation_xyz
x,y,z
-x,y,1/2-z
-x,-y,-z
x,-y,1/2+z
1/2+x,1/2+y,z
1/2-x,1/2+y,1/2-z
1/2-x,1/2-y,-z
1/2+x,1/2-y,1/2+z
loop_
_atom_site_type_symbol
_atom_site_label
_atom_site_fract_x
_atom_site_fract_y
_atom_site_fract_z
Si Si1 0.500000 0.061338 0.250000
Si Si2 0.573519 0.649747 0.948708
Si Si3 0.282415 0.598322 0.635904
Si Si4 0.134701 0.051843 0.387555
Si Si5 0.048150 0.637379 0.984917
Si Si6 0.338488 0.788479 0.569998
O O1 0.485553 0.119128 0.398318
O O2 0.444076 0.977096 0.087134
O O3 0.500000 0.665135 0.750000
O O4 0.598829 0.551083 0.886869
O O5 0.615337 0.751622 0.988355
O O6 0.586919 0.616106 0.170495
O O7 0.304930 0.489117 0.601821
O O8 0.295612 0.686309 0.520156
O O9 0.210410 0.616076 0.552276
O O10 0.333487 0.613828 0.892614
O O11 0.000000 0.692466 0.750000
O O12 0.114566 0.688975 0.173323
#
# Coordination Sequence:
#
# PCOD9269410 Si02
#       6
#     4   8   8   8   8   8
#     4   8  18  36  54  74 112 140 194 210 260 348
#     4  10  20  34  56  82 109 142 178 230 276 332
#     4   9  20  38  54  78 106 142 182 229 269 326
#     4   9  19  38  58  75 105 146 190 219 267 333
#     4   9  18  35  54  77 110 148 178 231 272 325
#     4  10  21  34  53  81 115 135 177 232 280 324
#
# _framework density 21.172957
#
# number of rings (size 3 to 8) (size 9 to 14) (size 15 to 20)
#    0.545    2.182    0.000    0.545    1.273    3.636 
#    0.000    1.818    0.000    0.000    0.000    0.000 
#    0.000    0.000    0.000    0.000    0.000    0.000 
#
# Total GULP energy -122478.889507 kJ/mol
# GULP energy per Si atom -5567.222250 kJ/mol
# Density = 2.112477 g / cm^3
# Si number density = 21.172957 Si / 1000 Ang^3
#
#
#
# Elastic Constant Matrix: (Units=GPa)
#
#
# Indices 1 2 3 4 5 6 
#
# 1 68.9032 12.7854 19.9036 0.0000 7.1136 0.0000
# 2 12.7854 29.8466 5.6475 0.0000 3.9852 0.0000
# 3 19.9036 5.6475 59.0497 0.0000 -6.0466 0.0000
# 4 0.0000 0.0000 0.0000 72.5907 0.0000 24.6017
# 5 7.1136 3.9852 -6.0466 0.0000 37.9579 0.0000
# 6 0.0000 0.0000 0.0000 24.6017 0.0000 28.9264
#
#
#
# Elastic Compliance Matrix: (Units=1/GPa)
#
#
# Indices 1 2 3 4 5 6 
#
# 1 0.017657 -0.005996 -0.005746 0.000000 -0.003595 0.000000
# 2 -0.005996 0.036821 -0.001811 0.000000 -0.003030 0.000000
# 3 -0.005746 -0.001811 0.019493 0.000000 0.004372 0.000000
# 4 0.000000 0.000000 0.000000 0.019355 0.000000 -0.016461
# 5 -0.003595 -0.003030 0.004372 0.000000 0.028033 0.000000
# 6 0.000000 0.000000 0.000000 -0.016461 0.000000 0.048570
#
#
# Mechanical properties :
#
#
# Convention : Reuss Voigt Hill
#
# Bulk Modulus (GPa) = 21.33850 26.05249 23.69550
# Shear Modulus (GPa) = 23.51218 35.85921 29.68570
#
# Velocity S-wave (km/s) = 3.33600 4.11984 3.74847
# Velocity P-wave (km/s) = 4.99386 5.91288 5.47269
#
# Compressibility (1/GPa) = 0.04686365
#
# Stress axis : x y z
#
# Youngs Moduli (GPa) = 56.63558 27.15874 51.30160
#
# Poissons Ratio (x) = 0.16285 0.29478
# Poissons Ratio (y) = 0.33961 0.09289
# Poissons Ratio (z) = 0.32543 0.04917
#
# Static dielectric constant tensor:
#      x y z
#    x 1.827410 0.000000 0.004710 
#    y 0.000000 1.797430 0.000000 
#    z 0.004710 0.000000 1.747940 
# 
# From -- ./inp_files/47126.got.cif
#   From: 2010.05.17/outbox.cif.g08.bks.cpg/sg15_24_cif.got.tgz:47126.got - 2010.06.03 18:47:42.
