data_PCOD9269082
_publ_section_title
;
Structure prediction by ZEFSAII (Michael W. Deem and Ramdas Pophale) SiO2 
 PCOD9269082
Probable space group: C 2/C
;
_chemical_formula_sum "Si O2"
_cell_formula_units_Z 60
_cell_length_a 18.371667
_cell_length_b 14.475301
_cell_length_c 18.135038
_cell_angle_alpha 90.000000
_cell_angle_beta 146.356542
_cell_angle_gamma 90.000000
_cell_volume 2671.914452
_symmetry_space_group_name_H-M "C 2/C"
_symmetry_group_IT_number 15
_symmetry_cell_setting 'monoclinic'
loop_
_space_group_symop_operation_xyz
x,y,z
-x,y,1/2-z
-x,-y,-z
x,-y,1/2+z
1/2+x,1/2+y,z
1/2-x,1/2+y,1/2-z
1/2-x,1/2-y,-z
1/2+x,1/2-y,1/2+z
loop_
_atom_site_type_symbol
_atom_site_label
_atom_site_fract_x
_atom_site_fract_y
_atom_site_fract_z
Si Si1 0.332285 0.605083 0.348871
Si Si2 0.690830 0.835274 0.538809
Si Si3 0.942791 0.405147 0.923937
Si Si4 0.220428 0.357988 0.343701
Si Si5 0.705905 0.176776 0.663890
Si Si6 0.446999 0.554348 0.845547
Si Si7 0.389335 0.431525 0.609907
Si Si8 0.000000 0.655014 0.750000
O O1 0.179117 0.579483 0.233505
O O2 0.313800 0.715836 0.332363
O O3 0.448365 0.586219 0.504474
O O4 0.373882 0.539543 0.314470
O O5 0.616037 0.858246 0.551133
O O6 0.785591 0.750895 0.640823
O O7 0.766313 0.919600 0.561815
O O8 0.591597 0.800865 0.391093
O O9 0.000000 0.500000 0.000000
O O10 0.072224 0.349905 0.008952
O O11 0.217665 0.369461 0.255089
O O12 0.346933 0.392003 0.494600
O O13 0.097835 0.403108 0.281045
O O14 0.837642 0.133733 0.738898
O O15 0.537599 0.524702 0.853548
O O16 0.500000 0.379238 0.750000
#
# Coordination Sequence:
#
# PCOD9269082 Si02
#       8
#     8   8   8   8   8   8   8   4
#     4  11  23  42  67  96 133 174 225 281 338 400
#     4  11  24  35  58  88 126 177 208 263 332 408
#     4  12  24  39  61  93 132 168 216 278 331 395
#     4  11  23  35  60  93 134 169 212 257 339 420
#     4  12  24  41  69 100 135 174 220 286 339 402
#     4  11  25  43  67  99 131 181 230 270 340 406
#     4  11  25  39  62  89 132 177 219 264 317 410
#     4  10  20  34  48  84 126 162 202 244 310 398
#
# _framework density 22.455808999999999
#
# number of rings (size 3 to 8) (size 9 to 14) (size 15 to 20)
#    0.000    0.800    4.000    4.800    5.600    0.000 
#    0.000    0.000    0.000    0.800    0.000    0.000 
#    0.000    0.000    0.000    0.000    0.000    0.000 
#
# Total GULP energy -167083.320890 kJ/mol
# GULP energy per Si atom -5569.444030 kJ/mol
# Density = 2.240470 g / cm^3
# Si number density = 22.455809 Si / 1000 Ang^3
#
#
#
# Elastic Constant Matrix: (Units=GPa)
#
#
# Indices 1 2 3 4 5 6 
#
# 1 56.7581 10.1320 18.0989 0.0000 3.8619 0.0000
# 2 10.1320 97.5428 23.5433 0.0000 10.0602 0.0000
# 3 18.0989 23.5433 124.0247 0.0000 29.8422 0.0000
# 4 0.0000 0.0000 0.0000 29.0328 0.0001 14.2548
# 5 3.8619 10.0602 29.8422 0.0001 24.7940 0.0000
# 6 0.0000 0.0000 0.0000 14.2548 0.0000 18.3849
#
#
#
# Elastic Compliance Matrix: (Units=1/GPa)
#
#
# Indices 1 2 3 4 5 6 
#
# 1 0.018658 -0.001383 -0.002669 0.000000 0.000867 0.000000
# 2 -0.001383 0.010975 -0.001213 0.000000 -0.002777 0.000000
# 3 -0.002669 -0.001213 0.011915 0.000000 -0.013433 0.000000
# 4 0.000000 0.000000 0.000000 0.055616 0.000000 -0.043122
# 5 0.000867 -0.002777 -0.013433 0.000000 0.057492 0.000000
# 6 0.000000 0.000000 0.000000 -0.043122 0.000000 0.087827
#
#
# Mechanical properties :
#
#
# Convention : Reuss Voigt Hill
#
# Bulk Modulus (GPa) = 32.24076 42.43044 37.33560
# Shear Modulus (GPa) = 18.98597 29.54577 24.26587
#
# Velocity S-wave (km/s) = 2.91087 3.63123 3.29082
# Velocity P-wave (km/s) = 5.06815 6.04295 5.57689
#
# Compressibility (1/GPa) = 0.03101664
#
# Stress axis : x y z
#
# Youngs Moduli (GPa) = 53.59752 91.11722 83.92934
#
# Poissons Ratio (x) = 0.12604 0.22399
# Poissons Ratio (y) = 0.07414 0.10182
# Poissons Ratio (z) = 0.14304 0.11054
#
# Static dielectric constant tensor:
#      x y z
#    x 1.969600 0.000000 0.169050 
#    y 0.000000 1.927970 0.000000 
#    z 0.169050 0.000000 2.096040 
# 
# From -- ./inp_files/253061.got.cif
#   From: 2010.05.17/outbox.cif.g08.bks.cpg/sg15_127_cif.got.tgz:253061.got - 2010.06.03 18:47:42.
