data_PCOD9269704
_publ_section_title
;
Structure prediction by ZEFSAII (Michael W. Deem and Ramdas Pophale) SiO2 
 PCOD9269704
Probable space group: C 2/C
;
_chemical_formula_sum "Si O2"
_cell_formula_units_Z 64
_cell_length_a 11.194244
_cell_length_b 23.121716
_cell_length_c 13.482483
_cell_angle_alpha 90.000000
_cell_angle_beta 65.783219
_cell_angle_gamma 90.000000
_cell_volume 3182.581686
_symmetry_space_group_name_H-M "C 2/C"
_symmetry_group_IT_number 15
_symmetry_cell_setting 'monoclinic'
loop_
_space_group_symop_operation_xyz
x,y,z
-x,y,1/2-z
-x,-y,-z
x,-y,1/2+z
1/2+x,1/2+y,z
1/2-x,1/2+y,1/2-z
1/2-x,1/2-y,-z
1/2+x,1/2-y,1/2+z
loop_
_atom_site_type_symbol
_atom_site_label
_atom_site_fract_x
_atom_site_fract_y
_atom_site_fract_z
Si Si1 0.743329 0.899702 0.532265
Si Si2 0.376366 0.537920 0.721163
Si Si3 0.985114 0.318610 0.874000
Si Si4 0.133569 0.129268 0.952935
Si Si5 0.157466 0.500861 0.937543
Si Si6 0.043759 0.190809 0.621666
Si Si7 0.229461 0.366037 0.901323
Si Si8 0.892508 0.096794 0.174511
O O1 0.606756 0.869595 0.556009
O O2 0.728016 0.966362 0.505401
O O3 0.853245 0.859547 0.441871
O O4 0.772568 0.896738 0.638568
O O5 0.500000 0.557027 0.750000
O O6 0.360393 0.576055 0.627344
O O7 0.234346 0.535393 0.823766
O O8 0.409411 0.471232 0.687891
O O9 0.915512 0.256651 0.913585
O O10 0.000000 0.324520 0.750000
O O11 0.120483 0.326748 0.886311
O O12 0.084969 0.180804 0.900638
O O13 0.248350 0.145604 0.989641
O O14 0.017067 0.115844 0.069473
O O15 0.193197 0.434123 0.913129
O O16 0.000000 0.500000 0.000000
O O17 0.000000 0.187366 0.750000
O O18 0.354588 0.367339 0.784712
#
# Coordination Sequence:
#
# PCOD9269704 Si02
#       8
#     8   8   8   8   8   8   8   8
#     4  11  20  38  63  88 120 157 207 253 310 368
#     4  11  21  37  60  89 127 167 209 254 306 376
#     4  11  22  40  62  87 118 161 211 253 309 365
#     4  11  21  37  59  89 122 160 203 255 318 365
#     4  11  22  36  60  93 126 164 200 256 316 384
#     4  10  23  40  64  88 114 157 211 267 299 361
#     4  11  22  38  58  89 127 160 197 254 316 384
#     4  10  20  34  59  90 120 157 206 254 307 373
#
# _framework density 20.109459000000001
#
# number of rings (size 3 to 8) (size 9 to 14) (size 15 to 20)
#    0.000    1.250    2.500    6.000    0.000    0.500 
#    0.000    1.875    0.000    0.000    0.000    0.000 
#    0.000    0.000    0.000    0.000    0.000    0.000 
#
# Total GULP energy -178311.596945 kJ/mol
# GULP energy per Si atom -5572.237405 kJ/mol
# Density = 2.006369 g / cm^3
# Si number density = 20.109459 Si / 1000 Ang^3
#
#
#
# Elastic Constant Matrix: (Units=GPa)
#
#
# Indices 1 2 3 4 5 6 
#
# 1 100.5052 15.9073 53.8082 0.0000 12.4531 0.0000
# 2 15.9073 57.8237 12.4379 0.0000 -1.0393 0.0000
# 3 53.8082 12.4379 103.6887 0.0000 21.0033 0.0000
# 4 0.0000 0.0000 0.0000 42.8337 0.0000 11.1236
# 5 12.4531 -1.0393 21.0033 0.0000 35.3677 0.0000
# 6 0.0000 0.0000 0.0000 11.1236 0.0000 25.7894
#
#
#
# Elastic Compliance Matrix: (Units=1/GPa)
#
#
# Indices 1 2 3 4 5 6 
#
# 1 0.014115 -0.002431 -0.006834 0.000000 -0.000983 0.000000
# 2 -0.002431 0.018300 -0.001382 0.000000 0.002215 0.000000
# 3 -0.006834 -0.001382 0.014638 0.000000 -0.006327 0.000000
# 4 0.000000 0.000000 0.000000 0.026291 0.000000 -0.011340
# 5 -0.000983 0.002215 -0.006327 0.000000 0.032443 0.000000
# 6 0.000000 0.000000 0.000000 -0.011340 0.000000 0.043667
#
#
# Mechanical properties :
#
#
# Convention : Reuss Voigt Hill
#
# Bulk Modulus (GPa) = 38.82188 47.36938 43.09563
# Shear Modulus (GPa) = 27.88081 32.78910 30.33495
#
# Velocity S-wave (km/s) = 3.72755 4.04236 3.88814
# Velocity P-wave (km/s) = 6.15413 6.73755 6.45244
#
# Compressibility (1/GPa) = 0.02575867
#
# Stress axis : x y z
#
# Youngs Moduli (GPa) = 70.84599 54.64553 68.31393
#
# Poissons Ratio (x) = 0.13283 0.46687
# Poissons Ratio (y) = 0.17221 0.09443
# Poissons Ratio (z) = 0.48418 0.07554
#
# Static dielectric constant tensor:
#      x y z
#    x 1.799470 0.000000 0.028650 
#    y 0.000000 1.701610 0.000000 
#    z 0.028650 0.000000 1.752480 
# 
# From -- ./inp_files/91234.got.cif
#   From: 2010.05.17/outbox.cif.g08.bks.cpg/sg15_46_cif.got.tgz:91234.got - 2010.06.03 18:47:42.
