data_PCOD9269074
_publ_section_title
;
Structure prediction by ZEFSAII (Michael W. Deem and Ramdas Pophale) SiO2 
 PCOD9269074
Probable space group: C 2/C
;
_chemical_formula_sum "Si O2"
_cell_formula_units_Z 52
_cell_length_a 9.612558
_cell_length_b 9.885414
_cell_length_c 18.196789
_cell_angle_alpha 90.000000
_cell_angle_beta 88.250368
_cell_angle_gamma 90.000000
_cell_volume 1728.327634
_symmetry_space_group_name_H-M "C 2/C"
_symmetry_group_IT_number 15
_symmetry_cell_setting 'monoclinic'
loop_
_space_group_symop_operation_xyz
x,y,z
-x,y,1/2-z
-x,-y,-z
x,-y,1/2+z
1/2+x,1/2+y,z
1/2-x,1/2+y,1/2-z
1/2-x,1/2-y,-z
1/2+x,1/2-y,1/2+z
loop_
_atom_site_type_symbol
_atom_site_label
_atom_site_fract_x
_atom_site_fract_y
_atom_site_fract_z
Si Si1 0.526280 0.408316 0.171757
Si Si2 0.150230 0.361511 0.935176
Si Si3 0.209161 0.568026 0.281405
Si Si4 0.596038 0.841279 0.090292
Si Si5 0.500000 0.838353 0.250000
Si Si6 0.132542 0.095140 0.521407
Si Si7 0.763785 0.092218 0.129215
O O1 0.500000 0.338052 0.250000
O O2 0.642254 0.521620 0.189756
O O3 0.583847 0.335337 0.098081
O O4 0.387232 0.486842 0.149905
O O5 0.116590 0.379905 0.849896
O O6 0.260880 0.240144 0.923794
O O7 0.242496 0.493054 0.956926
O O8 0.046777 0.337332 0.005615
O O9 0.232259 0.658556 0.208657
O O10 0.134067 0.433060 0.255854
O O11 0.519825 0.784487 0.164854
O O12 0.637234 0.995506 0.106533
O O13 0.181266 0.164839 0.444960
O O14 0.000000 0.000000 0.500000
#
# Coordination Sequence:
#
# PCOD9269074 Si02
#       7
#     8   8   8   8   4   8   8
#     4   8  13  23  41  67  86 114 158 199 229 281
#     4   9  17  31  50  71  94 130 169 201 238 299
#     4   9  17  29  48  68  95 125 169 199 239 298
#     4   9  18  32  48  72 101 127 160 204 253 287
#     4  10  20  34  48  70 106 132 160 206 250 294
#     4   8  13  23  40  67  93 114 147 198 244 271
#     4   8  14  26  44  65  94 122 153 200 241 289
#
# _framework density 30.086886
#
# number of rings (size 3 to 8) (size 9 to 14) (size 15 to 20)
#    0.000    3.385    0.000    0.000    0.000    0.615 
#   13.846    0.000    8.462    0.000    0.000   26.923 
#    0.000    0.000    0.000    0.000    0.000    0.000 
#
# Total GULP energy -145394.228127 kJ/mol
# GULP energy per Si atom -5592.085697 kJ/mol
# Density = 3.001841 g / cm^3
# Si number density = 30.086886 Si / 1000 Ang^3
#
#
#
# Elastic Constant Matrix: (Units=GPa)
#
#
# Indices 1 2 3 4 5 6 
#
# 1 99.8907 43.5607 74.2118 0.0000 -42.8552 0.0000
# 2 43.5607 71.1968 61.5140 0.0000 -10.2168 0.0000
# 3 74.2118 61.5140 453.9499 0.0000 -68.9603 0.0000
# 4 0.0000 0.0000 0.0000 48.3977 0.0000 -12.9897
# 5 -42.8552 -10.2168 -68.9603 0.0000 63.6133 0.0000
# 6 0.0000 0.0000 0.0000 -12.9897 0.0000 44.5732
#
#
#
# Elastic Compliance Matrix: (Units=1/GPa)
#
#
# Indices 1 2 3 4 5 6 
#
# 1 0.019352 -0.010157 -0.000065 0.000000 0.011335 0.000000
# 2 -0.010157 0.021243 -0.002082 0.000000 -0.005688 0.000000
# 3 -0.000065 -0.002082 0.002919 0.000000 0.002786 0.000000
# 4 0.000000 0.000000 0.000000 0.022415 0.000000 0.006532
# 5 0.011335 -0.005688 0.002786 0.000000 0.025462 0.000000
# 6 0.000000 0.000000 0.000000 0.006532 0.000000 0.024339
#
#
# Mechanical properties :
#
#
# Convention : Reuss Voigt Hill
#
# Bulk Modulus (GPa) = 52.89829 109.29006 81.09418
# Shear Modulus (GPa) = 34.09705 61.03357 47.56531
#
# Velocity S-wave (km/s) = 3.37008 4.50886 3.98041
# Velocity P-wave (km/s) = 5.72392 7.96932 6.93806
#
# Compressibility (1/GPa) = 0.01890420
#
# Stress axis : x y z
#
# Youngs Moduli (GPa) = 51.67526 47.07493 342.59178
#
# Poissons Ratio (x) = 0.47814 0.02240
# Poissons Ratio (y) = 0.52486 0.71334
# Poissons Ratio (z) = 0.00338 0.09802
#
# Static dielectric constant tensor:
#      x y z
#    x 2.350990 0.000000 0.029890 
#    y 0.000000 2.289900 0.000000 
#    z 0.029890 0.000000 2.411940 
# 
# From -- ./inp_files/197302.got.cif
#   From: 2010.05.17/outbox.cif.g08.bks.cpg/sg15_99_cif.got.tgz:197302.got - 2010.06.03 18:47:42.
