data_PCOD9269859
_publ_section_title
;
Structure prediction by ZEFSAII (Michael W. Deem and Ramdas Pophale) SiO2 
 PCOD9269859
Probable space group: C 2/C
;
_chemical_formula_sum "Si O2"
_cell_formula_units_Z 64
_cell_length_a 24.552660
_cell_length_b 8.818160
_cell_length_c 15.003313
_cell_angle_alpha 90.000000
_cell_angle_beta 53.112678
_cell_angle_gamma 90.000000
_cell_volume 2598.092409
_symmetry_space_group_name_H-M "C 2/C"
_symmetry_group_IT_number 15
_symmetry_cell_setting 'monoclinic'
loop_
_space_group_symop_operation_xyz
x,y,z
-x,y,1/2-z
-x,-y,-z
x,-y,1/2+z
1/2+x,1/2+y,z
1/2-x,1/2+y,1/2-z
1/2-x,1/2-y,-z
1/2+x,1/2-y,1/2+z
loop_
_atom_site_type_symbol
_atom_site_label
_atom_site_fract_x
_atom_site_fract_y
_atom_site_fract_z
Si Si1 0.005276 0.547542 0.642513
Si Si2 0.863641 0.432877 0.760790
Si Si3 0.510119 0.599874 0.124161
Si Si4 0.864184 0.028896 0.923855
Si Si5 0.751231 0.823470 0.100504
Si Si6 0.137311 0.370316 0.525669
Si Si7 0.399241 0.611415 0.642739
Si Si8 0.274200 0.500612 0.330803
O O1 0.990955 0.725974 0.657901
O O2 0.078050 0.477744 0.543528
O O3 0.000000 0.492355 0.750000
O O4 0.939663 0.482153 0.659327
O O5 0.809868 0.570433 0.802308
O O6 0.854830 0.413436 0.877111
O O7 0.865166 0.267707 0.713291
O O8 0.563067 0.551719 0.149058
O O9 0.452788 0.475211 0.156156
O O10 0.557133 0.619430 0.989120
O O11 0.878412 0.192830 0.952057
O O12 0.820144 0.029410 0.875735
O O13 0.816339 0.927227 0.031889
O O14 0.755235 0.669076 0.150134
O O15 0.750000 0.750000 0.000000
O O16 0.208656 0.395342 0.405911
O O17 0.331675 0.511818 0.700647
#
# Coordination Sequence:
#
# PCOD9269859 Si02
#       8
#     8   8   8   8   8   8   8   8
#     4  10  24  37  66  97 127 162 211 269 316 377
#     4  11  20  39  63  96 125 168 207 255 323 383
#     4  11  26  44  59  92 129 169 219 269 318 386
#     4  11  21  36  65  89 126 163 205 267 312 367
#     4  10  20  34  62  98 129 157 205 261 319 372
#     4  11  20  38  62 102 128 152 214 268 315 375
#     4  11  25  43  64  88 130 174 214 261 328 388
#     4  11  21  38  67  93 127 166 206 264 320 383
#
# _framework density 24.633458999999998
#
# number of rings (size 3 to 8) (size 9 to 14) (size 15 to 20)
#    0.000    1.250    3.750    3.375    7.000    0.500 
#    0.000    6.250    0.000    0.000    0.000    0.000 
#    0.000    0.000    0.000    0.000    0.000    0.000 
#
# Total GULP energy -178578.815225 kJ/mol
# GULP energy per Si atom -5580.587976 kJ/mol
# Density = 2.457739 g / cm^3
# Si number density = 24.633459 Si / 1000 Ang^3
#
#
#
# Elastic Constant Matrix: (Units=GPa)
#
#
# Indices 1 2 3 4 5 6 
#
# 1 75.9636 5.2514 22.5011 0.0000 -7.7793 0.0000
# 2 5.2514 97.0332 -23.4330 0.0000 -1.9413 0.0000
# 3 22.5011 -23.4330 71.1612 0.0000 -8.3447 0.0000
# 4 0.0000 0.0000 0.0000 49.2206 0.0000 -20.4239
# 5 -7.7793 -1.9413 -8.3447 0.0000 45.3189 0.0000
# 6 0.0000 0.0000 0.0000 -20.4239 0.0000 30.5902
#
#
#
# Elastic Compliance Matrix: (Units=1/GPa)
#
#
# Indices 1 2 3 4 5 6 
#
# 1 0.015015 -0.002048 -0.005244 0.000000 0.001524 0.000000
# 2 -0.002048 0.011538 0.004562 0.000000 0.000983 0.000000
# 3 -0.005244 0.004562 0.017508 0.000000 0.002519 0.000000
# 4 0.000000 0.000000 0.000000 0.028102 0.000000 0.018763
# 5 0.001524 0.000983 0.002519 0.000000 0.022833 0.000000
# 6 0.000000 0.000000 0.000000 0.018763 0.000000 0.045217
#
#
# Mechanical properties :
#
#
# Convention : Reuss Voigt Hill
#
# Bulk Modulus (GPa) = 25.90520 28.08858 26.99689
# Shear Modulus (GPa) = 31.53750 41.01516 36.27633
#
# Velocity S-wave (km/s) = 3.58197 4.08489 3.84167
# Velocity P-wave (km/s) = 5.25799 5.80309 5.53725
#
# Compressibility (1/GPa) = 0.03860229
#
# Stress axis : x y z
#
# Youngs Moduli (GPa) = 66.59970 86.66973 57.11552
#
# Poissons Ratio (x) = 0.17754 0.29949
# Poissons Ratio (y) = 0.13642 -0.26058
# Poissons Ratio (z) = 0.34922 -0.39542
#
# Static dielectric constant tensor:
#      x y z
#    x 2.054540 0.000000 0.140640 
#    y 0.000000 1.979720 0.000000 
#    z 0.140640 0.000000 2.156020 
# 
# From -- ./inp_files/224587.got.cif
#   From: 2010.05.17/outbox.cif.g08.bks.cpg/sg15_113_cif.got.tgz:224587.got - 2010.06.03 18:47:42.
