data_PCOD9269075
_publ_section_title
;
Structure prediction by ZEFSAII (Michael W. Deem and Ramdas Pophale) SiO2 
 PCOD9269075
Probable space group: C 2/C
;
_chemical_formula_sum "Si O2"
_cell_formula_units_Z 48
_cell_length_a 24.646830
_cell_length_b 11.226171
_cell_length_c 24.907747
_cell_angle_alpha 90.000000
_cell_angle_beta 159.069106
_cell_angle_gamma 90.000000
_cell_volume 2462.006994
_symmetry_space_group_name_H-M "C 2/C"
_symmetry_group_IT_number 15
_symmetry_cell_setting 'monoclinic'
loop_
_space_group_symop_operation_xyz
x,y,z
-x,y,1/2-z
-x,-y,-z
x,-y,1/2+z
1/2+x,1/2+y,z
1/2-x,1/2+y,1/2-z
1/2-x,1/2-y,-z
1/2+x,1/2-y,1/2+z
loop_
_atom_site_type_symbol
_atom_site_label
_atom_site_fract_x
_atom_site_fract_y
_atom_site_fract_z
Si Si1 0.039957 0.848931 0.897825
Si Si2 0.386923 0.585396 0.799931
Si Si3 0.023025 0.338557 0.477666
Si Si4 0.270854 0.974933 0.753077
Si Si5 0.137528 0.763611 0.565875
Si Si6 0.852714 0.312685 0.140784
O O1 0.052252 0.753418 0.957576
O O2 0.937674 0.783393 0.757720
O O3 0.950624 0.966883 0.832401
O O4 0.215502 0.878847 0.044863
O O5 0.356306 0.556100 0.835314
O O6 0.234644 0.649431 0.638590
O O7 0.511894 0.688479 0.909934
O O8 0.903121 0.441500 0.352324
O O9 0.944862 0.274755 0.455540
O O10 0.167513 0.402075 0.637922
O O11 0.228244 0.880593 0.668759
O O12 0.000000 0.376899 0.250000
O O13 0.750000 0.250000 0.000000
#
# Coordination Sequence:
#
# PCOD9269075 Si02
#       6
#     8   8   8   8   8   8
#     4  11  21  35  62  88 111 142 196 226 285 360
#     4  11  23  34  53  78 113 167 201 233 260 315
#     4  10  21  32  51  83 116 159 195 234 261 323
#     4  10  20  34  48  72 123 165 197 229 266 299
#     4  11  21  36  48  75 127 165 200 225 265 300
#     4   9  21  41  60  88 116 130 165 245 319 355
#
# _framework density 19.496289000000001
#
# number of rings (size 3 to 8) (size 9 to 14) (size 15 to 20)
#    0.000    1.667    3.333    1.500    2.333    0.000 
#    0.000    0.000    0.000    0.000    0.000   15.167 
#    0.000    0.000    0.000    0.000    0.000    0.000 
#
# Total GULP energy -133761.963329 kJ/mol
# GULP energy per Si atom -5573.415139 kJ/mol
# Density = 1.945191 g / cm^3
# Si number density = 19.496289 Si / 1000 Ang^3
#
#
#
# Elastic Constant Matrix: (Units=GPa)
#
#
# Indices 1 2 3 4 5 6 
#
# 1 57.0893 16.7254 32.7800 0.0002 21.2142 -0.0001
# 2 16.7254 37.1297 16.4688 -0.0046 9.1750 -0.0013
# 3 32.7800 16.4688 80.4041 -0.0059 20.7483 -0.0007
# 4 0.0002 -0.0046 -0.0059 40.2408 -0.0017 8.4796
# 5 21.2142 9.1750 20.7483 -0.0017 29.8580 -0.0001
# 6 -0.0001 -0.0013 -0.0007 8.4796 -0.0001 6.0772
#
#
#
# Elastic Compliance Matrix: (Units=1/GPa)
#
#
# Indices 1 2 3 4 5 6 
#
# 1 0.028254 -0.006422 -0.006741 -0.000003 -0.013417 0.000002
# 2 -0.006422 0.031979 -0.003136 0.000003 -0.003085 0.000003
# 3 -0.006741 -0.003136 0.017477 0.000003 -0.006391 -0.000003
# 4 -0.000003 0.000003 0.000003 0.035200 0.000001 -0.049114
# 5 -0.013417 -0.003085 -0.006391 0.000001 0.048414 -0.000003
# 6 0.000002 0.000003 -0.000003 -0.049114 -0.000003 0.233077
#
#
# Mechanical properties :
#
#
# Convention : Reuss Voigt Hill
#
# Bulk Modulus (GPa) = 22.16714 34.06350 28.11532
# Shear Modulus (GPa) = 11.31130 22.47848 16.89489
#
# Velocity S-wave (km/s) = 2.41130 3.39921 2.94695
# Velocity P-wave (km/s) = 4.37574 5.73724 5.10211
#
# Compressibility (1/GPa) = 0.04511182
#
# Stress axis : x y z
#
# Youngs Moduli (GPa) = 35.39283 31.27097 57.21732
#
# Poissons Ratio (x) = 0.20082 0.38573
# Poissons Ratio (y) = 0.22729 0.17943
# Poissons Ratio (z) = 0.23860 0.09806
#
# Static dielectric constant tensor:
#      x y z
#    x 1.776200 -0.000010 0.089600 
#    y -0.000010 1.743220 0.000000 
#    z 0.089600 0.000000 1.827130 
# 
# From -- ./inp_files/60677.got.cif
#   From: 2010.05.17/outbox.cif.g08.bks.cpg/sg15_31_cif.got.tgz:60677.got - 2010.06.03 18:47:42.
