data_PCOD9269591
_publ_section_title
;
Structure prediction by ZEFSAII (Michael W. Deem and Ramdas Pophale) SiO2 
 PCOD9269591
Probable space group: C 2/C
;
_chemical_formula_sum "Si O2"
_cell_formula_units_Z 32
_cell_length_a 7.937745
_cell_length_b 12.151477
_cell_length_c 23.823923
_cell_angle_alpha 90.000000
_cell_angle_beta 36.936098
_cell_angle_gamma 90.000000
_cell_volume 1380.889694
_symmetry_space_group_name_H-M "C 2/C"
_symmetry_group_IT_number 15
_symmetry_cell_setting 'monoclinic'
loop_
_space_group_symop_operation_xyz
x,y,z
-x,y,1/2-z
-x,-y,-z
x,-y,1/2+z
1/2+x,1/2+y,z
1/2-x,1/2+y,1/2-z
1/2-x,1/2-y,-z
1/2+x,1/2-y,1/2+z
loop_
_atom_site_type_symbol
_atom_site_label
_atom_site_fract_x
_atom_site_fract_y
_atom_site_fract_z
Si Si1 0.779014 0.771091 0.351838
Si Si2 0.788065 0.111137 0.679281
Si Si3 0.684393 0.994449 0.316259
Si Si4 0.168570 0.147159 0.481931
O O1 0.593424 0.691706 0.439765
O O2 0.000000 0.717391 0.250000
O O3 0.981418 0.829099 0.343871
O O4 0.639479 0.872153 0.355265
O O5 0.500000 0.179446 0.750000
O O6 0.924524 0.088106 0.582614
O O7 0.693025 0.014547 0.746627
O O8 0.444262 0.073529 0.402021
O O9 0.000000 0.027537 0.250000
O O10 0.250000 0.250000 0.500000
#
# Coordination Sequence:
#
# PCOD9269591 Si02
#       4
#     8   8   8   8
#     4   8  18  37  57  82 118 152 191 241 292 350
#     4   9  19  35  53  79 113 148 191 237 287 347
#     4   9  20  38  57  81 118 155 188 242 302 344
#     4  10  20  34  58  85 111 151 201 241 288 356
#
# _framework density 23.173466000000001
#
# number of rings (size 3 to 8) (size 9 to 14) (size 15 to 20)
#    0.000    3.500    0.000    0.000    0.000   15.000 
#    0.000    5.000    0.000    0.000    0.000    0.000 
#    0.000    0.000    0.000    0.000    0.000    0.000 
#
# Total GULP energy -89152.023152 kJ/mol
# GULP energy per Si atom -5572.001447 kJ/mol
# Density = 2.312072 g / cm^3
# Si number density = 23.173466 Si / 1000 Ang^3
#
#
#
# Elastic Constant Matrix: (Units=GPa)
#
#
# Indices 1 2 3 4 5 6 
#
# 1 71.4681 37.5436 49.5818 0.0443 17.7061 0.0039
# 2 37.5436 92.1375 76.8680 0.0424 13.8176 0.0028
# 3 49.5818 76.8680 247.3307 0.2787 37.3785 0.0232
# 4 0.0443 0.0424 0.2787 352.1577 -0.0843 14.7611
# 5 17.7061 13.8176 37.3785 -0.0843 45.6223 -0.0053
# 6 0.0039 0.0028 0.0232 14.7611 -0.0053 21.3069
#
#
#
# Elastic Compliance Matrix: (Units=1/GPa)
#
#
# Indices 1 2 3 4 5 6 
#
# 1 0.019198 -0.006079 -0.001269 -0.000002 -0.004570 -0.000001
# 2 -0.006079 0.016603 -0.004038 0.000002 0.000639 0.000002
# 3 -0.001269 -0.004038 0.006041 -0.000005 -0.003234 -0.000003
# 4 -0.000002 0.000002 -0.000005 0.002925 0.000009 -0.002026
# 5 -0.004570 0.000639 -0.003234 0.000009 0.026149 0.000005
# 6 -0.000001 0.000002 -0.000003 -0.002026 0.000005 0.048337
#
#
# Mechanical properties :
#
#
# Convention : Reuss Voigt Hill
#
# Bulk Modulus (GPa) = 52.43450 82.10256 67.26853
# Shear Modulus (GPa) = 33.69685 100.28025 66.98855
#
# Velocity S-wave (km/s) = 3.81742 6.58541 5.38240
# Velocity P-wave (km/s) = 6.48894 9.66075 8.22911
#
# Compressibility (1/GPa) = 0.01907141
#
# Stress axis : x y z
#
# Youngs Moduli (GPa) = 52.08860 60.22852 165.52745
#
# Poissons Ratio (x) = 0.36613 0.20999
# Poissons Ratio (y) = 0.31664 0.66842
# Poissons Ratio (z) = 0.06608 0.24321
#
# Static dielectric constant tensor:
#      x y z
#    x 1.734160 0.000030 -0.011360 
#    y 0.000030 1.974310 0.000000 
#    z -0.011360 0.000000 1.966610 
# 
# From -- ./inp_files/132286.got.cif
#   From: 2010.05.17/outbox.cif.g08.bks.cpg/sg15_67_cif.got.tgz:132286.got - 2010.06.03 18:47:42.
