data_PCOD9269385
_publ_section_title
;
Structure prediction by ZEFSAII (Michael W. Deem and Ramdas Pophale) SiO2 
 PCOD9269385
Probable space group: C 2/C
;
_chemical_formula_sum "Si O2"
_cell_formula_units_Z 44
_cell_length_a 11.353463
_cell_length_b 13.908729
_cell_length_c 22.253420
_cell_angle_alpha 90.000000
_cell_angle_beta 151.513029
_cell_angle_gamma 90.000000
_cell_volume 1676.075282
_symmetry_space_group_name_H-M "C 2/C"
_symmetry_group_IT_number 15
_symmetry_cell_setting 'monoclinic'
loop_
_space_group_symop_operation_xyz
x,y,z
-x,y,1/2-z
-x,-y,-z
x,-y,1/2+z
1/2+x,1/2+y,z
1/2-x,1/2+y,1/2-z
1/2-x,1/2-y,-z
1/2+x,1/2-y,1/2+z
loop_
_atom_site_type_symbol
_atom_site_label
_atom_site_fract_x
_atom_site_fract_y
_atom_site_fract_z
Si Si1 0.543713 0.118366 0.677311
Si Si2 0.000000 0.058236 0.250000
Si Si3 0.223424 0.304196 0.717755
Si Si4 0.017875 0.191228 0.477887
Si Si5 0.279454 0.119558 0.878787
Si Si6 0.133038 0.408153 0.868722
O O1 0.755154 0.193260 0.792510
O O2 0.609948 0.100068 0.637563
O O3 0.299049 0.177013 0.585755
O O4 0.481821 0.013380 0.674306
O O5 0.866053 0.123374 0.238281
O O6 0.795039 0.985487 0.128569
O O7 0.378922 0.307923 0.850608
O O8 0.955177 0.344960 0.614672
O O9 0.952216 0.294318 0.478948
O O10 0.912831 0.106635 0.473262
O O11 0.000000 0.161292 0.750000
O O12 0.000000 0.368677 0.750000
#
# Coordination Sequence:
#
# PCOD9269385 Si02
#       6
#     8   4   8   8   8   8
#     4  11  20  35  55  83 110 134 177 228 267 313
#     4  10  20  34  56  78 106 138 186 226 250 308
#     4  10  20  35  56  79 106 143 184 214 263 314
#     4  10  20  35  57  81 107 141 176 220 267 318
#     4   9  17  33  55  76 103 145 181 211 252 317
#     4  10  20  35  57  81 105 142 180 216 263 320
#
# _framework density 26.251804
#
# number of rings (size 3 to 8) (size 9 to 14) (size 15 to 20)
#    0.545    1.455    1.818    5.455    1.273    0.000 
#    0.000    3.636    0.000    1.091    0.000    0.000 
#    0.000    0.000    0.000    0.000    0.000    0.000 
#
# Total GULP energy -122838.402463 kJ/mol
# GULP energy per Si atom -5583.563748 kJ/mol
# Density = 2.619205 g / cm^3
# Si number density = 26.251804 Si / 1000 Ang^3
#
#
#
# Elastic Constant Matrix: (Units=GPa)
#
#
# Indices 1 2 3 4 5 6 
#
# 1 138.3252 70.4032 42.8864 0.0000 49.9672 0.0000
# 2 70.4032 195.4215 28.1737 0.0000 11.7487 0.0000
# 3 42.8864 28.1737 66.5938 0.0002 21.5152 -0.0002
# 4 0.0000 0.0000 0.0002 29.9101 0.0000 17.6692
# 5 49.9672 11.7487 21.5152 0.0000 37.9468 0.0000
# 6 0.0000 0.0000 -0.0002 17.6692 0.0000 47.7272
#
#
#
# Elastic Compliance Matrix: (Units=1/GPa)
#
#
# Indices 1 2 3 4 5 6 
#
# 1 0.018038 -0.004840 -0.002913 0.000000 -0.020601 0.000000
# 2 -0.004840 0.006755 -0.001376 0.000000 0.005062 0.000000
# 3 -0.002913 -0.001376 0.019708 0.000000 -0.006913 0.000000
# 4 0.000000 0.000000 0.000000 0.042792 0.000000 -0.015842
# 5 -0.020601 0.005062 -0.006913 0.000000 0.055832 0.000000
# 6 0.000000 0.000000 0.000000 -0.015842 0.000000 0.026817
#
#
# Mechanical properties :
#
#
# Convention : Reuss Voigt Hill
#
# Bulk Modulus (GPa) = 38.10605 75.91858 57.01232
# Shear Modulus (GPa) = 25.38755 40.37530 32.88142
#
# Velocity S-wave (km/s) = 3.11316 3.92599 3.54296
# Velocity P-wave (km/s) = 5.24113 7.03799 6.20495
#
# Compressibility (1/GPa) = 0.02624255
#
# Stress axis : x y z
#
# Youngs Moduli (GPa) = 55.43995 148.04175 50.74140
#
# Poissons Ratio (x) = 0.71649 0.14779
# Poissons Ratio (y) = 0.26832 0.06984
# Poissons Ratio (z) = 0.16148 0.20376
#
# Static dielectric constant tensor:
#      x y z
#    x 2.044700 0.000000 -0.081320 
#    y 0.000000 2.125280 0.000000 
#    z -0.081320 0.000000 2.131500 
# 
# From -- ./inp_files/197143.got.cif
#   From: 2010.05.17/outbox.cif.g08.bks.cpg/sg15_99_cif.got.tgz:197143.got - 2010.06.03 18:47:42.
