data_PCOD9269250
_publ_section_title
;
Structure prediction by ZEFSAII (Michael W. Deem and Ramdas Pophale) SiO2 
 PCOD9269250
Probable space group: C 2/C
;
_chemical_formula_sum "Si O2"
_cell_formula_units_Z 60
_cell_length_a 8.634774
_cell_length_b 11.324718
_cell_length_c 31.370964
_cell_angle_alpha 90.000000
_cell_angle_beta 73.882184
_cell_angle_gamma 90.000000
_cell_volume 2947.072410
_symmetry_space_group_name_H-M "C 2/C"
_symmetry_group_IT_number 15
_symmetry_cell_setting 'monoclinic'
loop_
_space_group_symop_operation_xyz
x,y,z
-x,y,1/2-z
-x,-y,-z
x,-y,1/2+z
1/2+x,1/2+y,z
1/2-x,1/2+y,1/2-z
1/2-x,1/2-y,-z
1/2+x,1/2-y,1/2+z
loop_
_atom_site_type_symbol
_atom_site_label
_atom_site_fract_x
_atom_site_fract_y
_atom_site_fract_z
Si Si1 0.790088 0.528781 0.674293
Si Si2 0.641837 0.741633 0.050271
Si Si3 0.631213 0.671515 0.481248
Si Si4 0.537718 0.266565 0.813307
Si Si5 0.081574 0.963274 0.613546
Si Si6 0.274042 0.793685 0.718191
Si Si7 0.500000 0.378272 0.250000
Si Si8 0.856860 0.931670 0.065520
O O1 0.899281 0.642352 0.673588
O O2 0.720752 0.518102 0.632021
O O3 0.854705 0.405655 0.688499
O O4 0.631256 0.545930 0.715584
O O5 0.657615 0.611837 0.069077
O O6 0.709704 0.840278 0.076750
O O7 0.750000 0.750000 0.000000
O O8 0.459590 0.750134 0.047494
O O9 0.750000 0.750000 0.500000
O O10 0.697194 0.556616 0.451112
O O11 0.494956 0.621075 0.523780
O O12 0.507448 0.364499 0.851221
O O13 0.672426 0.314373 0.769714
O O14 0.367271 0.248649 0.802337
O O15 0.947691 0.047642 0.603140
O O16 0.409000 0.701392 0.722033
#
# Coordination Sequence:
#
# PCOD9269250 Si02
#       8
#     8   8   8   8   8   8   4   8
#     4  10  20  36  56  78 109 141 172 220 267 307
#     4   9  19  37  56  76 104 139 181 222 265 319
#     4   9  18  34  57  79  99 130 176 219 264 320
#     4   9  19  36  55  79 111 142 177 220 263 313
#     4  10  20  34  54  79 109 140 178 220 268 319
#     4   9  19  36  56  80 108 142 182 215 257 319
#     4  10  20  34  58  82 102 140 182 214 264 320
#     4   9  19  35  53  74 105 138 167 218 268 306
#
# _framework density 20.359189000000001
#
# number of rings (size 3 to 8) (size 9 to 14) (size 15 to 20)
#    0.000    2.667    0.000    2.400    0.000    6.933 
#    0.000    6.667    0.000    0.000    0.000    0.000 
#    0.000    0.000    0.000    0.000    0.000    0.000 
#
# Total GULP energy -167334.697715 kJ/mol
# GULP energy per Si atom -5577.823257 kJ/mol
# Density = 2.031285 g / cm^3
# Si number density = 20.359189 Si / 1000 Ang^3
#
#
#
# Elastic Constant Matrix: (Units=GPa)
#
#
# Indices 1 2 3 4 5 6 
#
# 1 50.1783 42.3341 15.3789 0.0000 24.6824 0.0000
# 2 42.3341 69.7224 15.7208 0.0000 23.6347 0.0000
# 3 15.3789 15.7208 61.2326 0.0000 27.1798 0.0000
# 4 0.0000 0.0000 0.0000 25.9366 0.0000 10.2985
# 5 24.6824 23.6347 27.1798 0.0000 32.2270 0.0000
# 6 0.0000 0.0000 0.0000 10.2985 0.0000 32.9750
#
#
#
# Elastic Compliance Matrix: (Units=1/GPa)
#
#
# Indices 1 2 3 4 5 6 
#
# 1 0.050646 -0.023052 0.004654 0.000000 -0.025809 0.000000
# 2 -0.023052 0.029751 -0.000001 0.000000 -0.004162 0.000000
# 3 0.004654 -0.000001 0.026764 0.000000 -0.026136 0.000000
# 4 0.000000 0.000000 0.000000 0.044013 0.000000 -0.013746
# 5 -0.025809 -0.004162 -0.026136 0.000000 0.075892 0.000000
# 6 0.000000 0.000000 0.000000 -0.013746 0.000000 0.034619
#
#
# Mechanical properties :
#
#
# Convention : Reuss Voigt Hill
#
# Bulk Modulus (GPa) = 14.21207 36.44455 25.32831
# Shear Modulus (GPa) = 15.53104 25.40770 20.46937
#
# Velocity S-wave (km/s) = 2.76497 3.53650 3.17426
# Velocity P-wave (km/s) = 4.14599 5.88349 5.08943
#
# Compressibility (1/GPa) = 0.07036275
#
# Stress axis : x y z
#
# Youngs Moduli (GPa) = 19.74492 33.61286 37.36407
#
# Poissons Ratio (x) = 0.77484 -0.17390
# Poissons Ratio (y) = 0.45516 0.00003
# Poissons Ratio (z) = -0.09190 0.00003
#
# Static dielectric constant tensor:
#      x y z
#    x 1.714170 0.000000 -0.004020 
#    y 0.000000 1.736080 0.000000 
#    z -0.004020 0.000000 1.595130 
# 
# From -- ./inp_files/307135.got.cif
#   From: 2010.05.17/outbox.cif.g08.bks.cpg/sg15_154_cif.got.tgz:307135.got - 2010.06.03 18:47:42.
