data_PCOD9269490
_publ_section_title
;
Structure prediction by ZEFSAII (Michael W. Deem and Ramdas Pophale) SiO2 
 PCOD9269490
Probable space group: C 2/C
;
_chemical_formula_sum "Si O2"
_cell_formula_units_Z 48
_cell_length_a 19.916605
_cell_length_b 14.917868
_cell_length_c 19.653776
_cell_angle_alpha 90.000000
_cell_angle_beta 151.344842
_cell_angle_gamma 90.000000
_cell_volume 2800.206553
_symmetry_space_group_name_H-M "C 2/C"
_symmetry_group_IT_number 15
_symmetry_cell_setting 'monoclinic'
loop_
_space_group_symop_operation_xyz
x,y,z
-x,y,1/2-z
-x,-y,-z
x,-y,1/2+z
1/2+x,1/2+y,z
1/2-x,1/2+y,1/2-z
1/2-x,1/2-y,-z
1/2+x,1/2-y,1/2+z
loop_
_atom_site_type_symbol
_atom_site_label
_atom_site_fract_x
_atom_site_fract_y
_atom_site_fract_z
Si Si1 0.482983 0.857594 0.511368
Si Si2 0.126424 0.367030 0.404892
Si Si3 0.145124 0.806743 0.000608
Si Si4 0.070862 0.062435 0.120211
Si Si5 0.660112 0.018806 0.063676
Si Si6 0.750629 0.262132 0.760883
O O1 0.566511 0.914956 0.528171
O O2 0.345703 0.813565 0.357052
O O3 0.596264 0.783101 0.633650
O O4 0.428282 0.927793 0.517933
O O5 0.073881 0.277149 0.398002
O O6 0.244404 0.341841 0.455763
O O7 0.180234 0.433381 0.510135
O O8 0.000000 0.407227 0.250000
O O9 0.218910 0.765372 0.133522
O O10 0.043674 0.886274 0.935080
O O11 0.188630 0.007813 0.266595
O O12 0.160585 0.147009 0.172362
O O13 0.000000 0.000000 0.000000
#
# Coordination Sequence:
#
# PCOD9269490 Si02
#       6
#     8   8   8   8   8   8
#     4  10  20  34  57  75 117 147 187 233 279 326
#     4  11  22  33  54  78 116 154 179 220 278 344
#     4  11  21  34  54  82 117 147 185 221 280 341
#     4  11  21  34  54  82 115 147 186 232 279 330
#     4  10  21  36  50  81 114 153 186 230 274 329
#     4  11  19  36  55  84 113 151 184 232 279 338
#
# _framework density 17.141591999999999
#
# number of rings (size 3 to 8) (size 9 to 14) (size 15 to 20)
#    0.000    1.333    5.000    3.000    2.333    2.667 
#    0.000    0.000    0.000    0.000    0.000    4.667 
#    0.000    0.000    0.000    0.000    0.000    0.000 
#
# Total GULP energy -133758.210005 kJ/mol
# GULP energy per Si atom -5573.258750 kJ/mol
# Density = 1.710258 g / cm^3
# Si number density = 17.141592 Si / 1000 Ang^3
#
#
#
# Elastic Constant Matrix: (Units=GPa)
#
#
# Indices 1 2 3 4 5 6 
#
# 1 65.0214 46.6551 37.4624 -0.0001 7.6258 0.0000
# 2 46.6551 58.8397 42.4202 -0.0002 5.6584 -0.0003
# 3 37.4624 42.4202 107.5325 -0.0001 7.1001 -0.0002
# 4 -0.0001 -0.0002 -0.0001 36.4548 -0.0001 4.8121
# 5 7.6258 5.6584 7.1001 -0.0001 15.2091 -0.0002
# 6 0.0000 -0.0003 -0.0002 4.8121 -0.0002 22.2167
#
#
#
# Elastic Compliance Matrix: (Units=1/GPa)
#
#
# Indices 1 2 3 4 5 6 
#
# 1 0.036733 -0.027297 -0.001530 0.000000 -0.007548 0.000000
# 2 -0.027297 0.044352 -0.008049 0.000000 0.000944 0.000000
# 3 -0.001530 -0.008049 0.013165 0.000000 -0.002384 0.000000
# 4 0.000000 0.000000 0.000000 0.028239 0.000000 -0.006116
# 5 -0.007548 0.000944 -0.002384 0.000000 0.070297 0.000001
# 6 0.000000 0.000000 0.000000 -0.006116 0.000001 0.046336
#
#
# Mechanical properties :
#
#
# Convention : Reuss Voigt Hill
#
# Bulk Modulus (GPa) = 48.78633 53.82991 51.30812
# Shear Modulus (GPa) = 15.63932 21.76651 18.70291
#
# Velocity S-wave (km/s) = 3.02381 3.56730 3.30674
# Velocity P-wave (km/s) = 6.38074 6.95980 6.67655
#
# Compressibility (1/GPa) = 0.02049755
#
# Stress axis : x y z
#
# Youngs Moduli (GPa) = 27.22321 22.54702 75.95801
#
# Poissons Ratio (x) = 0.61547 0.11625
# Poissons Ratio (y) = 0.74312 0.61135
# Poissons Ratio (z) = 0.04166 0.18147
#
# Static dielectric constant tensor:
#      x y z
#    x 1.556310 0.000000 0.023580 
#    y 0.000000 1.618730 0.000000 
#    z 0.023580 0.000000 1.611130 
# 
# From -- ./inp_files/48370.got.cif
#   From: 2010.05.17/outbox.cif.g08.bks.cpg/sg15_25_cif.got.tgz:48370.got - 2010.06.03 18:47:42.
