data_PCOD9269381
_publ_section_title
;
Structure prediction by ZEFSAII (Michael W. Deem and Ramdas Pophale) SiO2 
 PCOD9269381
Probable space group: C 2/C
;
_chemical_formula_sum "Si O2"
_cell_formula_units_Z 60
_cell_length_a 18.050643
_cell_length_b 29.517685
_cell_length_c 6.052147
_cell_angle_alpha 90.000000
_cell_angle_beta 88.520761
_cell_angle_gamma 90.000000
_cell_volume 3223.589137
_symmetry_space_group_name_H-M "C 2/C"
_symmetry_group_IT_number 15
_symmetry_cell_setting 'monoclinic'
loop_
_space_group_symop_operation_xyz
x,y,z
-x,y,1/2-z
-x,-y,-z
x,-y,1/2+z
1/2+x,1/2+y,z
1/2-x,1/2+y,1/2-z
1/2-x,1/2-y,-z
1/2+x,1/2-y,1/2+z
loop_
_atom_site_type_symbol
_atom_site_label
_atom_site_fract_x
_atom_site_fract_y
_atom_site_fract_z
Si Si1 0.765156 0.510206 0.030283
Si Si2 0.500000 0.411649 0.750000
Si Si3 0.583907 0.731809 0.694012
Si Si4 0.361091 0.437229 0.496145
Si Si5 0.737896 0.389227 0.661829
Si Si6 0.806122 0.302387 0.575066
Si Si7 0.813073 0.250295 0.181262
Si Si8 0.098571 0.869029 0.382172
O O1 0.797295 0.500642 0.778257
O O2 0.686182 0.482845 0.037714
O O3 0.757770 0.563869 0.044384
O O4 0.429962 0.440198 0.662482
O O5 0.530854 0.379937 0.551614
O O6 0.500000 0.744139 0.750000
O O7 0.634811 0.768459 0.818938
O O8 0.611412 0.735596 0.438689
O O9 0.593150 0.679616 0.766545
O O10 0.299886 0.402776 0.604129
O O11 0.393373 0.411944 0.281260
O O12 0.804021 0.353250 0.664178
O O13 0.672474 0.368969 0.520189
O O14 0.817588 0.297276 0.312152
O O15 0.724038 0.283737 0.642462
O O16 0.750000 0.250000 0.000000
#
# Coordination Sequence:
#
# PCOD9269381 Si02
#       8
#     8   4   8   8   8   8   8   8
#     4  10  20  38  56  82 110 145 186 242 305 346
#     4  10  22  34  52  74 102 150 198 234 284 340
#     4  11  23  35  53  79 114 153 193 237 287 347
#     4  10  20  35  54  75 107 144 187 240 288 348
#     4  10  20  34  56  76 101 141 185 237 290 344
#     4  10  20  35  54  80 109 143 191 238 288 347
#     4   9  18  34  53  78 105 138 186 233 282 334
#     4  11  20  35  52  74 104 145 194 238 283 337
#
# _framework density 18.612794000000001
#
# number of rings (size 3 to 8) (size 9 to 14) (size 15 to 20)
#    0.000    1.867    1.333    4.400    0.000    4.800 
#    0.000    6.000    0.000    0.000    0.000    0.000 
#    0.000    4.267    0.000    0.267    0.000    0.000 
#
# Total GULP energy -167048.831909 kJ/mol
# GULP energy per Si atom -5568.294397 kJ/mol
# Density = 1.857043 g / cm^3
# Si number density = 18.612794 Si / 1000 Ang^3
#
#
#
# Elastic Constant Matrix: (Units=GPa)
#
#
# Indices 1 2 3 4 5 6 
#
# 1 41.0469 15.8379 7.2796 0.0000 -13.1616 0.0000
# 2 15.8379 85.3789 12.3971 0.0000 -4.4042 0.0000
# 3 7.2796 12.3971 87.3985 0.0000 -18.1749 0.0000
# 4 0.0000 0.0000 0.0000 24.2082 0.0000 2.0797
# 5 -13.1616 -4.4042 -18.1749 0.0000 20.3272 0.0000
# 6 0.0000 0.0000 0.0000 2.0797 0.0000 21.7387
#
#
#
# Elastic Compliance Matrix: (Units=1/GPa)
#
#
# Indices 1 2 3 4 5 6 
#
# 1 0.033277 -0.005393 0.002741 0.000000 0.022828 0.000000
# 2 -0.005393 0.012862 -0.001869 0.000000 -0.002377 0.000000
# 3 0.002741 -0.001869 0.014450 0.000000 0.014290 0.000000
# 4 0.000000 0.000000 0.000000 0.041651 0.000000 -0.003985
# 5 0.022828 -0.002377 0.014290 0.000000 0.076238 0.000000
# 6 0.000000 0.000000 0.000000 -0.003985 0.000000 0.046382
#
#
# Mechanical properties :
#
#
# Convention : Reuss Voigt Hill
#
# Bulk Modulus (GPa) = 19.40049 31.65038 25.52543
# Shear Modulus (GPa) = 19.91348 25.14215 22.52781
#
# Velocity S-wave (km/s) = 3.27445 3.67931 3.48277
# Velocity P-wave (km/s) = 4.97412 5.92379 5.46961
#
# Compressibility (1/GPa) = 0.05154509
#
# Stress axis : x y z
#
# Youngs Moduli (GPa) = 30.05053 77.74965 69.20233
#
# Poissons Ratio (x) = 0.41933 -0.18965
# Poissons Ratio (y) = 0.16207 0.12937
# Poissons Ratio (z) = -0.08236 0.14535
#
# Static dielectric constant tensor:
#      x y z
#    x 1.650220 0.000000 0.027550 
#    y 0.000000 1.687320 0.000000 
#    z 0.027550 0.000000 1.780010 
# 
# From -- ./inp_files/12004.got.cif
#   From: 2010.05.17/outbox.cif.g08.bks.cpg/sg15_7_cif.got.tgz:12004.got - 2010.06.03 18:47:42.
