data_PCOD9269930
_publ_section_title
;
Structure prediction by ZEFSAII (Michael W. Deem and Ramdas Pophale) SiO2 
 PCOD9269930
Probable space group: C 2/C
;
_chemical_formula_sum "Si O2"
_cell_formula_units_Z 52
_cell_length_a 25.458105
_cell_length_b 18.677795
_cell_length_c 5.129300
_cell_angle_alpha 90.000000
_cell_angle_beta 85.876878
_cell_angle_gamma 90.000000
_cell_volume 2432.676173
_symmetry_space_group_name_H-M "C 2/C"
_symmetry_group_IT_number 15
_symmetry_cell_setting 'monoclinic'
loop_
_space_group_symop_operation_xyz
x,y,z
-x,y,1/2-z
-x,-y,-z
x,-y,1/2+z
1/2+x,1/2+y,z
1/2-x,1/2+y,1/2-z
1/2-x,1/2-y,-z
1/2+x,1/2-y,1/2+z
loop_
_atom_site_type_symbol
_atom_site_label
_atom_site_fract_x
_atom_site_fract_y
_atom_site_fract_z
Si Si1 0.090427 0.659003 0.090594
Si Si2 0.000000 0.449897 0.750000
Si Si3 0.699271 0.455841 0.210425
Si Si4 0.114627 0.726777 0.584782
Si Si5 0.680462 0.677179 0.426590
Si Si6 0.325845 0.045720 0.621286
Si Si7 0.716752 0.798865 0.816160
O O1 0.090888 0.723110 0.304140
O O2 0.144552 0.615464 0.005107
O O3 0.050379 0.601018 0.211689
O O4 0.077446 0.691160 0.811922
O O5 0.000000 0.500000 0.500000
O O6 0.686521 0.516566 0.001797
O O7 0.762733 0.444386 0.170891
O O8 0.667732 0.385093 0.133475
O O9 0.166736 0.678185 0.501162
O O10 0.139875 0.796241 0.719780
O O11 0.695834 0.747757 0.590640
O O12 0.736379 0.649984 0.286977
O O13 0.340562 0.014616 0.899312
O O14 0.750000 0.750000 0.000000
#
# Coordination Sequence:
#
# PCOD9269930 Si02
#       7
#     8   4   8   8   8   8   8
#     4  12  23  38  60  81 106 137 195 240 298 350
#     4  12  26  46  66  86 114 156 190 244 310 368
#     4  10  23  33  49  72 107 153 186 224 267 318
#     4  11  22  35  54  84 102 140 180 244 284 332
#     4  10  20  36  51  78 112 145 192 230 285 336
#     4  10  20  35  48  70 101 142 185 234 268 317
#     4   9  19  31  54  79 108 146 185 238 285 327
#
# _framework density 21.375636
#
# number of rings (size 3 to 8) (size 9 to 14) (size 15 to 20)
#    0.000    1.538    1.538    3.692    8.615    1.231 
#    0.000    0.000    0.000    0.000    0.000    0.000 
#    0.000    0.000    0.000   13.846    0.000    0.000 
#
# Total GULP energy -144973.595140 kJ/mol
# GULP energy per Si atom -5575.907505 kJ/mol
# Density = 2.132698 g / cm^3
# Si number density = 21.375636 Si / 1000 Ang^3
#
#
#
# Elastic Constant Matrix: (Units=GPa)
#
#
# Indices 1 2 3 4 5 6 
#
# 1 20.5331 7.6232 15.2374 0.0000 -5.1721 0.0000
# 2 7.6232 57.6598 6.4224 0.0000 -0.1490 0.0000
# 3 15.2374 6.4224 126.0452 0.0000 6.3226 0.0000
# 4 0.0000 0.0000 0.0000 34.4231 0.0000 6.8569
# 5 -5.1721 -0.1490 6.3226 0.0000 22.5245 0.0000
# 6 0.0000 0.0000 0.0000 6.8569 0.0000 28.1065
#
#
#
# Elastic Compliance Matrix: (Units=1/GPa)
#
#
# Indices 1 2 3 4 5 6 
#
# 1 0.061289 -0.007186 -0.007857 0.000000 0.016231 0.000000
# 2 -0.007186 0.018288 0.000014 0.000000 -0.001533 0.000000
# 3 -0.007857 0.000014 0.009101 0.000000 -0.004359 0.000000
# 4 0.000000 0.000000 0.000000 0.030534 0.000000 -0.007449
# 5 0.016231 -0.001533 -0.004359 0.000000 0.049337 0.000000
# 6 0.000000 0.000000 0.000000 -0.007449 0.000000 0.037396
#
#
# Mechanical properties :
#
#
# Convention : Reuss Voigt Hill
#
# Bulk Modulus (GPa) = 17.05921 29.20047 23.12984
# Shear Modulus (GPa) = 19.56617 28.67450 24.12034
#
# Velocity S-wave (km/s) = 3.02876 3.66656 3.36282
# Velocity P-wave (km/s) = 4.49768 5.62274 5.09138
#
# Compressibility (1/GPa) = 0.05861936
#
# Stress axis : x y z
#
# Youngs Moduli (GPa) = 16.31619 54.68169 109.87278
#
# Poissons Ratio (x) = 0.39294 0.86328
# Poissons Ratio (y) = 0.11725 -0.00151
# Poissons Ratio (z) = 0.12820 -0.00075
#
# Static dielectric constant tensor:
#      x y z
#    x 1.839880 0.000000 0.012290 
#    y 0.000000 1.834730 0.000000 
#    z 0.012290 0.000000 1.867150 
# 
# From -- ./inp_files/17054.got.cif
#   From: 2010.05.17/outbox.cif.g08.bks.cpg/sg15_9_cif.got.tgz:17054.got - 2010.06.03 18:47:42.
