data_PCOD9269868
_publ_section_title
;
Structure prediction by ZEFSAII (Michael W. Deem and Ramdas Pophale) SiO2 
 PCOD9269868
Probable space group: C 2/C
;
_chemical_formula_sum "Si O2"
_cell_formula_units_Z 48
_cell_length_a 17.226714
_cell_length_b 14.861710
_cell_length_c 9.278081
_cell_angle_alpha 90.000000
_cell_angle_beta 88.434537
_cell_angle_gamma 90.000000
_cell_volume 2374.473141
_symmetry_space_group_name_H-M "C 2/C"
_symmetry_group_IT_number 15
_symmetry_cell_setting 'monoclinic'
loop_
_space_group_symop_operation_xyz
x,y,z
-x,y,1/2-z
-x,-y,-z
x,-y,1/2+z
1/2+x,1/2+y,z
1/2-x,1/2+y,1/2-z
1/2-x,1/2-y,-z
1/2+x,1/2-y,1/2+z
loop_
_atom_site_type_symbol
_atom_site_label
_atom_site_fract_x
_atom_site_fract_y
_atom_site_fract_z
Si Si1 0.432733 0.056751 0.136484
Si Si2 0.835935 0.785552 0.482353
Si Si3 0.599569 0.562705 0.354955
Si Si4 0.589073 0.245172 0.306738
Si Si5 0.427120 0.610522 0.465266
Si Si6 0.047577 0.636084 0.891202
O O1 0.500000 0.042542 0.250000
O O2 0.382439 0.141525 0.189349
O O3 0.400726 0.956141 0.122469
O O4 0.479411 0.099412 0.999764
O O5 0.750000 0.750000 0.500000
O O6 0.838379 0.880416 0.562135
O O7 0.861326 0.795393 0.315694
O O8 0.898460 0.715406 0.550600
O O9 0.517814 0.603298 0.418936
O O10 0.609892 0.580931 0.184877
O O11 0.593491 0.460510 0.407957
O O12 0.500000 0.245554 0.250000
O O13 0.590497 0.293716 0.461341
O O14 0.000000 0.663105 0.750000
#
# Coordination Sequence:
#
# PCOD9269868 Si02
#       6
#     8   8   8   8   8   8
#     4   9  17  34  60  92 111 147 207 255 295 346
#     4  12  25  40  58  91 134 164 192 256 326 367
#     4  10  21  36  59  94 120 160 202 259 304 354
#     4  11  19  37  61  86 118 165 208 253 302 362
#     4  10  20  35  66  91 117 151 220 260 288 351
#     4  10  20  34  63  91 114 153 212 253 292 356
#
# _framework density 20.215011000000001
#
# number of rings (size 3 to 8) (size 9 to 14) (size 15 to 20)
#    0.000    1.667    5.000    1.000    7.000    0.000 
#    0.000    4.167    0.000    0.000    0.000    0.000 
#    0.000    0.000    0.000    0.000    0.000    0.000 
#
# Total GULP energy -133725.094049 kJ/mol
# GULP energy per Si atom -5571.878919 kJ/mol
# Density = 2.016900 g / cm^3
# Si number density = 20.215011 Si / 1000 Ang^3
#
#
#
# Elastic Constant Matrix: (Units=GPa)
#
#
# Indices 1 2 3 4 5 6 
#
# 1 37.2901 -0.2272 7.9488 0.0000 -4.6985 0.0000
# 2 -0.2272 105.2279 17.1317 0.0000 4.5740 0.0000
# 3 7.9488 17.1317 107.5519 0.0000 -6.1458 0.0000
# 4 0.0000 0.0000 0.0000 32.7036 0.0000 2.4014
# 5 -4.6985 4.5740 -6.1458 0.0000 8.8696 0.0000
# 6 0.0000 0.0000 0.0000 2.4014 0.0000 16.5400
#
#
#
# Elastic Compliance Matrix: (Units=1/GPa)
#
#
# Indices 1 2 3 4 5 6 
#
# 1 0.028926 -0.000373 -0.001241 0.000000 0.014655 0.000000
# 2 -0.000373 0.010118 -0.001972 0.000000 -0.006781 0.000000
# 3 -0.001241 -0.001972 0.010125 0.000000 0.007375 0.000000
# 4 0.000000 0.000000 0.000000 0.030907 0.000000 -0.004487
# 5 0.014655 -0.006781 0.007375 0.000000 0.129116 0.000000
# 6 0.000000 0.000000 0.000000 -0.004487 0.000000 0.061111
#
#
# Mechanical properties :
#
#
# Convention : Reuss Voigt Hill
#
# Bulk Modulus (GPa) = 23.81051 33.30852 28.55951
# Shear Modulus (GPa) = 17.15429 26.63707 21.89568
#
# Velocity S-wave (km/s) = 2.91622 3.63394 3.29468
# Velocity P-wave (km/s) = 4.81075 5.84125 5.35087
#
# Compressibility (1/GPa) = 0.04199826
#
# Stress axis : x y z
#
# Youngs Moduli (GPa) = 34.57155 98.83232 98.76495
#
# Poissons Ratio (x) = 0.03682 0.12257
# Poissons Ratio (y) = 0.01288 0.19473
# Poissons Ratio (z) = 0.04290 0.19486
#
# Static dielectric constant tensor:
#      x y z
#    x 1.711960 0.000000 0.058760 
#    y 0.000000 1.826330 0.000000 
#    z 0.058760 0.000000 1.616310 
# 
# From -- ./inp_files/47489.got.cif
#   From: 2010.05.17/outbox.cif.g08.bks.cpg/sg15_24_cif.got.tgz:47489.got - 2010.06.03 18:47:42.
