data_PCOD9269290
_publ_section_title
;
Structure prediction by ZEFSAII (Michael W. Deem and Ramdas Pophale) SiO2 
 PCOD9269290
Probable space group: C 2/C
;
_chemical_formula_sum "Si O2"
_cell_formula_units_Z 64
_cell_length_a 16.279444
_cell_length_b 19.244444
_cell_length_c 17.889760
_cell_angle_alpha 90.000000
_cell_angle_beta 36.492386
_cell_angle_gamma 90.000000
_cell_volume 3333.182111
_symmetry_space_group_name_H-M "C 2/C"
_symmetry_group_IT_number 15
_symmetry_cell_setting 'monoclinic'
loop_
_space_group_symop_operation_xyz
x,y,z
-x,y,1/2-z
-x,-y,-z
x,-y,1/2+z
1/2+x,1/2+y,z
1/2-x,1/2+y,1/2-z
1/2-x,1/2-y,-z
1/2+x,1/2-y,1/2+z
loop_
_atom_site_type_symbol
_atom_site_label
_atom_site_fract_x
_atom_site_fract_y
_atom_site_fract_z
Si Si1 0.598822 0.439182 0.958166
Si Si2 0.769287 0.300167 0.646329
Si Si3 0.133699 0.021087 0.602428
Si Si4 0.502260 0.694859 0.059371
Si Si5 0.855942 0.865885 0.901054
Si Si6 0.173854 0.641780 0.001266
Si Si7 0.149566 0.732570 0.167457
Si Si8 0.863464 0.384121 0.701858
O O1 0.546527 0.365793 0.961787
O O2 0.760324 0.439588 0.814511
O O3 0.500000 0.500000 0.000000
O O4 0.597315 0.448323 0.047892
O O5 0.631165 0.278349 0.794566
O O6 0.902901 0.250900 0.551858
O O7 0.735737 0.316866 0.584623
O O8 0.811070 0.371720 0.656667
O O9 0.225040 0.077875 0.575720
O O10 0.000000 0.012736 0.750000
O O11 0.199054 0.944288 0.549274
O O12 0.604075 0.662083 0.047093
O O13 0.000000 0.868775 0.750000
O O14 0.235456 0.707884 0.912188
O O15 0.173191 0.674721 0.085567
O O16 0.026914 0.609811 0.087110
O O17 0.151127 0.688985 0.241951
O O18 0.000000 0.762712 0.250000
#
# Coordination Sequence:
#
# PCOD9269290 Si02
#       8
#     8   8   8   8   8   8   8   8
#     4  11  22  40  63  89 117 158 209 247 299 366
#     4  10  22  37  62  89 122 154 202 249 315 358
#     4  11  22  37  62  89 116 160 204 245 300 370
#     4  10  21  39  65  90 118 158 198 263 304 363
#     4   9  19  39  61  84 116 156 202 250 307 360
#     4  10  20  34  54  86 119 157 192 241 297 361
#     4   9  18  33  55  83 121 154 195 241 297 360
#     4  10  22  36  60  83 122 161 193 249 304 357
#
# _framework density 19.200870999999999
#
# number of rings (size 3 to 8) (size 9 to 14) (size 15 to 20)
#    0.000    2.000    2.500    0.750    5.250    2.000 
#    0.000    1.875    2.750    0.000    0.000    0.000 
#    0.000    0.000    0.000    0.000    0.000    0.000 
#
# Total GULP energy -178226.678600 kJ/mol
# GULP energy per Si atom -5569.583706 kJ/mol
# Density = 1.915717 g / cm^3
# Si number density = 19.200871 Si / 1000 Ang^3
#
#
#
# Elastic Constant Matrix: (Units=GPa)
#
#
# Indices 1 2 3 4 5 6 
#
# 1 27.8254 -2.2024 6.5967 0.0000 -12.0448 0.0003
# 2 -2.2024 43.1790 30.0751 -0.0003 -13.8857 -0.0002
# 3 6.5967 30.0751 68.2526 0.0008 -16.7113 -0.0005
# 4 0.0000 -0.0003 0.0008 21.4705 -0.0004 -14.9733
# 5 -12.0448 -13.8857 -16.7113 -0.0004 35.0945 0.0004
# 6 0.0003 -0.0002 -0.0005 -14.9733 0.0004 61.3806
#
#
#
# Elastic Compliance Matrix: (Units=1/GPa)
#
#
# Indices 1 2 3 4 5 6 
#
# 1 0.045848 0.011726 -0.005218 0.000000 0.017890 0.000000
# 2 0.011726 0.038020 -0.014962 0.000001 0.011943 0.000000
# 3 -0.005218 -0.014962 0.022482 -0.000001 0.002995 0.000000
# 4 0.000000 0.000001 -0.000001 0.056123 0.000001 0.013691
# 5 0.017890 0.011943 0.002995 0.000001 0.040786 0.000000
# 6 0.000000 0.000000 0.000000 0.013691 0.000000 0.019632
#
#
# Mechanical properties :
#
#
# Convention : Reuss Voigt Hill
#
# Bulk Modulus (GPa) = 11.18052 23.13289 17.15670
# Shear Modulus (GPa) = 18.54513 30.57496 24.56004
#
# Velocity S-wave (km/s) = 3.11118 3.99478 3.58035
# Velocity P-wave (km/s) = 4.32914 5.77510 5.10359
#
# Compressibility (1/GPa) = 0.08944128
#
# Stress axis : x y z
#
# Youngs Moduli (GPa) = 21.81132 26.30205 44.47987
#
# Poissons Ratio (x) = -0.30842 0.23209
# Poissons Ratio (y) = -0.25576 0.66553
# Poissons Ratio (z) = 0.11381 0.39354
#
# Static dielectric constant tensor:
#      x y z
#    x 1.739940 0.000000 0.005760 
#    y 0.000000 1.654040 0.000000 
#    z 0.005760 0.000000 1.729940 
# 
# From -- ./inp_files/206444.got.cif
#   From: 2010.05.17/outbox.cif.g08.bks.cpg/sg15_104_cif.got.tgz:206444.got - 2010.06.03 18:47:42.
