data_PCOD9269089
_publ_section_title
;
Structure prediction by ZEFSAII (Michael W. Deem and Ramdas Pophale) SiO2 
 PCOD9269089
Probable space group: C 2/C
;
_chemical_formula_sum "Si O2"
_cell_formula_units_Z 60
_cell_length_a 22.127256
_cell_length_b 27.163569
_cell_length_c 9.366344
_cell_angle_alpha 90.000000
_cell_angle_beta 37.025042
_cell_angle_gamma 90.000000
_cell_volume 3389.996884
_symmetry_space_group_name_H-M "C 2/C"
_symmetry_group_IT_number 15
_symmetry_cell_setting 'monoclinic'
loop_
_space_group_symop_operation_xyz
x,y,z
-x,y,1/2-z
-x,-y,-z
x,-y,1/2+z
1/2+x,1/2+y,z
1/2-x,1/2+y,1/2-z
1/2-x,1/2-y,-z
1/2+x,1/2-y,1/2+z
loop_
_atom_site_type_symbol
_atom_site_label
_atom_site_fract_x
_atom_site_fract_y
_atom_site_fract_z
Si Si1 0.074784 0.933452 0.863170
Si Si2 0.049441 0.840743 0.316281
Si Si3 0.108478 0.320773 0.035292
Si Si4 0.888074 0.321394 0.021118
Si Si5 0.251898 0.141825 0.005944
Si Si6 0.269779 0.192378 0.462558
Si Si7 0.100972 0.766375 0.778381
Si Si8 0.000000 0.001521 0.750000
O O1 0.175834 0.902953 0.647978
O O2 0.071601 0.964475 0.016329
O O3 0.054244 0.967804 0.765845
O O4 0.987582 0.892369 0.048227
O O5 0.000000 0.837236 0.250000
O O6 0.000148 0.797302 0.504482
O O7 0.168670 0.834068 0.098621
O O8 0.102700 0.270118 0.139495
O O9 0.000000 0.344468 0.250000
O O10 0.196135 0.352202 0.940097
O O11 0.137458 0.313787 0.818695
O O12 0.807570 0.322437 0.046486
O O13 0.000000 0.329906 0.750000
O O14 0.843503 0.358739 0.221966
O O15 0.887498 0.268673 0.104537
O O16 0.187369 0.192237 0.104024
O O17 0.250000 0.250000 0.500000
#
# Coordination Sequence:
#
# PCOD9269089 Si02
#       8
#     8   8   8   8   8   8   8   4
#     4  10  22  40  64  88 117 134 176 222 299 361
#     4  11  21  35  55  81 116 151 188 229 278 339
#     4  11  21  33  48  74 112 157 201 231 265 308
#     4  11  21  34  50  75 114 157 200 236 265 303
#     4  10  21  37  55  78 113 153 190 235 280 337
#     4  12  21  30  50  76 107 152 200 233 265 312
#     4  10  20  34  50  70 114 163 196 238 275 314
#     4  10  22  42  66  90 114 134 162 232 304 364
#
# _framework density 17.699131999999999
#
# number of rings (size 3 to 8) (size 9 to 14) (size 15 to 20)
#    0.000    1.333    0.667    9.200    1.867    0.000 
#    2.400    0.000    0.000    0.000    0.000    2.800 
#    0.000    0.000    0.000    0.000    0.000    0.000 
#
# Total GULP energy -167462.688943 kJ/mol
# GULP energy per Si atom -5582.089631 kJ/mol
# Density = 1.765885 g / cm^3
# Si number density = 17.699132 Si / 1000 Ang^3
#
#
#
# Elastic Constant Matrix: (Units=GPa)
#
#
# Indices 1 2 3 4 5 6 
#
# 1 55.9946 24.0772 7.5687 0.0000 2.7491 0.0000
# 2 24.0772 77.2202 40.0158 0.0000 -0.3639 0.0000
# 3 7.5687 40.0158 104.3926 0.0000 -2.9431 0.0000
# 4 0.0000 0.0000 0.0000 17.8202 0.0000 -1.5385
# 5 2.7491 -0.3639 -2.9431 0.0000 37.1520 0.0000
# 6 0.0000 0.0000 0.0000 -1.5385 0.0000 12.5956
#
#
#
# Elastic Compliance Matrix: (Units=1/GPa)
#
#
# Indices 1 2 3 4 5 6 
#
# 1 0.020832 -0.007110 0.001172 0.000000 -0.001518 0.000000
# 2 -0.007110 0.018591 -0.006606 0.000000 0.000185 0.000000
# 3 0.001172 -0.006606 0.012049 0.000000 0.000803 0.000000
# 4 0.000000 0.000000 0.000000 0.056714 0.000000 0.006927
# 5 -0.001518 0.000185 0.000803 0.000000 0.027094 0.000000
# 6 0.000000 0.000000 0.000000 0.006927 0.000000 0.080239
#
#
# Mechanical properties :
#
#
# Convention : Reuss Voigt Hill
#
# Bulk Modulus (GPa) = 37.90003 42.32564 40.11283
# Shear Modulus (GPa) = 20.04804 24.57662 22.31233
#
# Velocity S-wave (km/s) = 3.36923 3.73040 3.55441
# Velocity P-wave (km/s) = 6.04943 6.52077 6.28952
#
# Compressibility (1/GPa) = 0.02638521
#
# Stress axis : x y z
#
# Youngs Moduli (GPa) = 48.00253 53.79012 82.99518
#
# Poissons Ratio (x) = 0.38245 -0.09729
# Poissons Ratio (y) = 0.34130 0.54822
# Poissons Ratio (z) = -0.05627 0.35531
#
# Static dielectric constant tensor:
#      x y z
#    x 1.563740 0.000000 0.193930 
#    y 0.000000 1.590950 0.000000 
#    z 0.193930 0.000000 0.926080 
# 
# From -- ./inp_files/59111.got.cif
#   From: 2010.05.17/outbox.cif.g08.bks.cpg/sg15_30_cif.got.tgz:59111.got - 2010.06.03 18:47:42.
