data_PCOD9269133
_publ_section_title
;
Structure prediction by ZEFSAII (Michael W. Deem and Ramdas Pophale) SiO2 
 PCOD9269133
Probable space group: C 2/C
;
_chemical_formula_sum "Si O2"
_cell_formula_units_Z 64
_cell_length_a 14.428869
_cell_length_b 13.169157
_cell_length_c 28.745665
_cell_angle_alpha 90.000000
_cell_angle_beta 41.155692
_cell_angle_gamma 90.000000
_cell_volume 3594.673115
_symmetry_space_group_name_H-M "C 2/C"
_symmetry_group_IT_number 15
_symmetry_cell_setting 'monoclinic'
loop_
_space_group_symop_operation_xyz
x,y,z
-x,y,1/2-z
-x,-y,-z
x,-y,1/2+z
1/2+x,1/2+y,z
1/2-x,1/2+y,1/2-z
1/2-x,1/2-y,-z
1/2+x,1/2-y,1/2+z
loop_
_atom_site_type_symbol
_atom_site_label
_atom_site_fract_x
_atom_site_fract_y
_atom_site_fract_z
Si Si1 0.441206 0.581204 0.823030
Si Si2 0.582467 0.413246 0.830634
Si Si3 0.703225 0.070119 0.173191
Si Si4 0.324370 0.163246 0.169366
Si Si5 0.801080 0.785661 0.930764
Si Si6 0.160295 0.668796 0.676970
Si Si7 0.156629 0.464339 0.930764
Si Si8 0.972796 0.320119 0.826809
O O1 0.500000 0.548823 0.750000
O O2 0.524458 0.518592 0.831145
O O3 0.277499 0.549962 0.888122
O O4 0.463143 0.701107 0.819516
O O5 0.647271 0.419848 0.857761
O O6 0.704609 0.375000 0.750000
O O7 0.455411 0.334255 0.876755
O O8 0.669968 0.125000 0.136688
O O9 0.593720 0.125000 0.250000
O O10 0.671691 0.951108 0.180484
O O11 0.267892 0.268592 0.168855
O O12 0.335676 0.084255 0.123245
O O13 0.470555 0.169848 0.142239
O O14 0.808135 0.700038 0.888122
O O15 0.701785 0.875000 0.948810
O O16 0.750000 0.750000 0.000000
O O17 0.000000 0.701177 0.750000
O O18 0.000000 0.500000 0.000000
#
# Coordination Sequence:
#
# PCOD9269133 Si02
#       8
#     8   8   8   8   8   8   8   8
#     4  11  19  36  59  86 119 154 199 248 298 352
#     4  10  20  35  60  85 116 155 200 244 295 354
#     4  10  20  34  51  88 124 146 193 248 293 352
#     4  10  20  35  60  85 116 155 200 244 295 354
#     4  10  23  40  60  89 123 156 205 248 309 366
#     4  11  19  36  59  86 119 154 199 248 298 352
#     4  10  23  40  60  89 123 156 205 248 309 366
#     4  10  20  34  51  88 124 146 193 248 293 352
#
# _framework density 17.804122
#
# number of rings (size 3 to 8) (size 9 to 14) (size 15 to 20)
#    0.000    1.750    5.000    0.750    0.000    2.000 
#    0.000    1.250    0.000    0.000    0.000    0.000 
#    0.000    0.000    0.000    0.000    0.000    0.000 
#
# Total GULP energy -178426.818051 kJ/mol
# GULP energy per Si atom -5575.838064 kJ/mol
# Density = 1.776360 g / cm^3
# Si number density = 17.804122 Si / 1000 Ang^3
#
#
#
# Elastic Constant Matrix: (Units=GPa)
#
#
# Indices 1 2 3 4 5 6 
#
# 1 175.1699 60.1560 40.2937 0.0000 -1.1239 0.0000
# 2 60.1560 123.6402 34.4930 0.0000 -0.3171 0.0000
# 3 40.2937 34.4930 83.5726 0.0000 -0.0082 0.0000
# 4 0.0000 0.0000 0.0000 9.7128 0.0000 0.1309
# 5 -1.1239 -0.3171 -0.0082 0.0000 21.9850 0.0000
# 6 0.0000 0.0000 0.0000 0.1309 0.0000 -0.8686
#
#
#
# Elastic Compliance Matrix: (Units=1/GPa)
#
#
# Indices 1 2 3 4 5 6 
#
# 1 0.007226 -0.002874 -0.002298 0.000000 0.000327 0.000000
# 2 -0.002874 0.010284 -0.002859 0.000000 0.000000 0.000000
# 3 -0.002298 -0.002859 0.014253 0.000000 -0.000153 0.000000
# 4 0.000000 0.000000 0.000000 0.102748 0.000000 0.015478
# 5 0.000327 0.000000 -0.000153 0.000000 0.045502 0.000000
# 6 0.000000 0.000000 0.000000 0.015478 0.000000 -1.148903
#
#
# Mechanical properties :
#
#
# Convention : Reuss Voigt Hill
#
# Bulk Modulus (GPa) = 63.68504 72.47422 68.07963
# Shear Modulus (GPa) = -5.27653 22.66184 8.69266
#
# Velocity S-wave (km/s) = -1.72339 3.57156 2.21201
# Velocity P-wave (km/s) = 5.64689 7.60282 6.69665
#
# Compressibility (1/GPa) = 0.01570228
#
# Stress axis : x y z
#
# Youngs Moduli (GPa) = 138.38138 97.23980 70.15852
#
# Poissons Ratio (x) = 0.27947 0.16122
# Poissons Ratio (y) = 0.39771 0.20057
# Poissons Ratio (z) = 0.31799 0.27799
#
# Static dielectric constant tensor:
#      x y z
#    x 1.648850 0.000000 -0.000500 
#    y 0.000000 1.597070 0.000000 
#    z -0.000500 0.000000 1.608380 
# 
# From -- ./inp_files/313588.got.cif
#   From: 2010.05.17/outbox.cif.g08.bks.cpg/sg15_157_cif.got.tgz:313588.got - 2010.06.03 18:47:42.
