data_PCOD9269634
_publ_section_title
;
Structure prediction by ZEFSAII (Michael W. Deem and Ramdas Pophale) SiO2 
 PCOD9269634
Probable space group: C 2/C
;
_chemical_formula_sum "Si O2"
_cell_formula_units_Z 64
_cell_length_a 12.076338
_cell_length_b 19.098878
_cell_length_c 19.460120
_cell_angle_alpha 90.000000
_cell_angle_beta 42.068726
_cell_angle_gamma 90.000000
_cell_volume 3007.304348
_symmetry_space_group_name_H-M "C 2/C"
_symmetry_group_IT_number 15
_symmetry_cell_setting 'monoclinic'
loop_
_space_group_symop_operation_xyz
x,y,z
-x,y,1/2-z
-x,-y,-z
x,-y,1/2+z
1/2+x,1/2+y,z
1/2-x,1/2+y,1/2-z
1/2-x,1/2-y,-z
1/2+x,1/2-y,1/2+z
loop_
_atom_site_type_symbol
_atom_site_label
_atom_site_fract_x
_atom_site_fract_y
_atom_site_fract_z
Si Si1 0.368052 0.855239 0.970581
Si Si2 0.682956 0.416731 0.690581
Si Si3 0.323565 0.326685 0.303386
Si Si4 0.773455 0.702075 0.234752
Si Si5 0.264476 0.010678 0.020958
Si Si6 0.883828 0.038150 0.689812
Si Si7 0.802705 0.373806 0.855987
Si Si8 0.692747 0.039060 0.645277
O O1 0.541098 0.819514 0.873171
O O2 0.262469 0.842489 0.949427
O O3 0.293263 0.829090 0.076318
O O4 0.377778 0.940640 0.969213
O O5 0.500000 0.434161 0.750000
O O6 0.679696 0.336604 0.716405
O O7 0.790647 0.442552 0.576677
O O8 0.713166 0.468056 0.741376
O O9 0.500000 0.298524 0.250000
O O10 0.267385 0.281294 0.263593
O O11 0.351331 0.404681 0.263166
O O12 0.720302 0.663494 0.329962
O O13 0.077981 0.979467 0.100307
O O14 0.283791 0.058772 0.944802
O O15 0.812930 0.065366 0.649961
O O16 0.768791 0.455851 0.873179
O O17 0.000000 0.367650 0.750000
O O18 0.500000 0.049860 0.750000
#
# Coordination Sequence:
#
# PCOD9269634 Si02
#       8
#     8   8   8   8   8   8   8   8
#     4  10  20  37  59  91 119 157 195 244 300 360
#     4  10  21  40  63  89 118 158 202 249 294 354
#     4  12  23  40  58  89 126 157 193 248 306 363
#     4  11  23  37  60  88 120 164 199 242 298 357
#     4  10  20  37  62  87 121 154 196 252 298 358
#     4  11  20  39  60  88 123 159 193 244 312 354
#     4   8  16  32  52  85 118 144 186 238 287 341
#     4  10  20  34  58  91 120 152 198 250 296 348
#
# _framework density 21.281517999999998
#
# number of rings (size 3 to 8) (size 9 to 14) (size 15 to 20)
#    0.000    1.750    3.750    2.625    0.000    3.500 
#    0.000    0.625    0.000    1.500    0.000    0.000 
#    0.000    0.000    0.000    0.000    0.000    0.000 
#
# Total GULP energy -178398.232753 kJ/mol
# GULP energy per Si atom -5574.944774 kJ/mol
# Density = 2.123308 g / cm^3
# Si number density = 21.281518 Si / 1000 Ang^3
#
#
#
# Elastic Constant Matrix: (Units=GPa)
#
#
# Indices 1 2 3 4 5 6 
#
# 1 52.3850 14.9899 30.3187 -0.0017 22.2991 0.0006
# 2 14.9899 50.3118 21.4040 -0.0021 11.4017 0.0013
# 3 30.3187 21.4040 125.4894 -0.0058 30.9993 0.0035
# 4 -0.0017 -0.0021 -0.0058 26.0845 0.0026 16.5446
# 5 22.2991 11.4017 30.9993 0.0026 28.0722 -0.0012
# 6 0.0006 0.0013 0.0035 16.5446 -0.0012 25.5526
#
#
#
# Elastic Compliance Matrix: (Units=1/GPa)
#
#
# Indices 1 2 3 4 5 6 
#
# 1 0.029700 -0.003566 -0.001509 0.000007 -0.020478 -0.000006
# 2 -0.003566 0.022735 -0.001973 0.000004 -0.004222 -0.000003
# 3 -0.001509 -0.001973 0.011243 0.000008 -0.010415 -0.000007
# 4 0.000007 0.000004 0.000008 0.065052 -0.000023 -0.042119
# 5 -0.020478 -0.004222 -0.010415 -0.000023 0.065105 0.000020
# 6 -0.000006 -0.000003 -0.000007 -0.042119 0.000020 0.066406
#
#
# Mechanical properties :
#
#
# Convention : Reuss Voigt Hill
#
# Bulk Modulus (GPa) = 20.16897 40.17903 30.17400
# Shear Modulus (GPa) = 17.19020 26.70677 21.94849
#
# Velocity S-wave (km/s) = 2.84518 3.54634 3.21493
# Velocity P-wave (km/s) = 4.50458 5.97407 5.29059
#
# Compressibility (1/GPa) = 0.04958112
#
# Stress axis : x y z
#
# Youngs Moduli (GPa) = 33.66997 43.98532 88.94679
#
# Poissons Ratio (x) = 0.15686 0.13421
# Poissons Ratio (y) = 0.12008 0.17550
# Poissons Ratio (z) = 0.05080 0.08679
#
# Static dielectric constant tensor:
#      x y z
#    x 1.820900 0.000000 0.018670 
#    y 0.000000 1.786800 0.000000 
#    z 0.018670 0.000000 1.814950 
# 
# From -- ./inp_files/200348.got.cif
#   From: 2010.05.17/outbox.cif.g08.bks.cpg/sg15_101_cif.got.tgz:200348.got - 2010.06.03 18:47:42.
