data_PCOD9269305
_publ_section_title
;
Structure prediction by ZEFSAII (Michael W. Deem and Ramdas Pophale) SiO2 
 PCOD9269305
Probable space group: C 2/C
;
_chemical_formula_sum "Si O2"
_cell_formula_units_Z 60
_cell_length_a 11.244782
_cell_length_b 9.166961
_cell_length_c 26.907403
_cell_angle_alpha 90.000000
_cell_angle_beta 84.771264
_cell_angle_gamma 90.000000
_cell_volume 2762.086393
_symmetry_space_group_name_H-M "C 2/C"
_symmetry_group_IT_number 15
_symmetry_cell_setting 'monoclinic'
loop_
_space_group_symop_operation_xyz
x,y,z
-x,y,1/2-z
-x,-y,-z
x,-y,1/2+z
1/2+x,1/2+y,z
1/2-x,1/2+y,1/2-z
1/2-x,1/2-y,-z
1/2+x,1/2-y,1/2+z
loop_
_atom_site_type_symbol
_atom_site_label
_atom_site_fract_x
_atom_site_fract_y
_atom_site_fract_z
Si Si1 0.500000 0.570465 0.750000
Si Si2 0.638132 0.518859 0.338064
Si Si3 0.265475 0.554215 0.897988
Si Si4 0.380064 0.314041 0.564268
Si Si5 0.874218 0.716582 0.321593
Si Si6 0.605363 0.185741 0.364545
Si Si7 0.066314 0.726400 0.476983
Si Si8 0.251365 0.473596 0.008123
O O1 0.447267 0.476846 0.706706
O O2 0.603571 0.680589 0.726789
O O3 0.581782 0.590640 0.389963
O O4 0.762183 0.607028 0.324583
O O5 0.651083 0.347062 0.348859
O O6 0.151619 0.655747 0.914728
O O7 0.351711 0.662420 0.865605
O O8 0.216825 0.422703 0.866490
O O9 0.305045 0.501569 0.950977
O O10 0.468106 0.299562 0.514908
O O11 0.263717 0.389450 0.543713
O O12 0.000935 0.642665 0.330105
O O13 0.542873 0.187843 0.421252
O O14 0.120153 0.586765 0.503388
O O15 0.173343 0.844428 0.470088
#
# Coordination Sequence:
#
# PCOD9269305 Si02
#       8
#     4   8   8   8   8   8   8   8
#     4  10  24  44  68  92 118 150 196 264 326 378
#     4  10  23  43  67  92 118 159 201 254 320 372
#     4  10  23  37  58  94 126 164 211 249 299 360
#     4  11  21  36  59  88 126 165 210 249 296 358
#     4  10  23  44  67  91 120 156 203 256 316 375
#     4  10  21  42  60  90 128 169 204 250 300 355
#     4  10  21  34  56  89 127 169 215 243 293 351
#     4  10  20  34  54  88 127 172 207 244 292 346
#
# _framework density 21.722711
#
# number of rings (size 3 to 8) (size 9 to 14) (size 15 to 20)
#    0.000    1.867    1.333    1.600    3.733    7.467 
#    0.000    4.000    0.000    1.600    0.000    0.000 
#    0.000    0.000    0.000    0.000    0.000    0.000 
#
# Total GULP energy -167512.170194 kJ/mol
# GULP energy per Si atom -5583.739006 kJ/mol
# Density = 2.167327 g / cm^3
# Si number density = 21.722711 Si / 1000 Ang^3
#
#
#
# Elastic Constant Matrix: (Units=GPa)
#
#
# Indices 1 2 3 4 5 6 
#
# 1 54.1312 24.0148 27.9292 0.0000 3.2427 0.0000
# 2 24.0148 82.3185 18.8400 0.0000 14.4717 0.0000
# 3 27.9292 18.8400 74.5262 0.0000 24.7196 0.0000
# 4 0.0000 0.0000 0.0000 18.0865 0.0000 -1.2788
# 5 3.2427 14.4717 24.7196 0.0000 31.0232 0.0000
# 6 0.0000 0.0000 0.0000 -1.2788 0.0000 24.0771
#
#
#
# Elastic Compliance Matrix: (Units=1/GPa)
#
#
# Indices 1 2 3 4 5 6 
#
# 1 0.026901 -0.006897 -0.011516 0.000000 0.009581 0.000000
# 2 -0.006897 0.015174 0.001165 0.000000 -0.007286 0.000000
# 3 -0.011516 0.001165 0.023406 0.000000 -0.017990 0.000000
# 4 0.000000 0.000000 0.000000 0.055498 0.000000 0.002948
# 5 0.009581 -0.007286 -0.017990 0.000000 0.048966 0.000000
# 6 0.000000 0.000000 0.000000 0.002948 0.000000 0.041690
#
#
# Mechanical properties :
#
#
# Convention : Reuss Voigt Hill
#
# Bulk Modulus (GPa) = 32.27161 39.17155 35.72158
# Shear Modulus (GPa) = 19.49633 23.98350 21.73992
#
# Velocity S-wave (km/s) = 2.99910 3.32637 3.16696
# Velocity P-wave (km/s) = 5.18471 5.72928 5.46378
#
# Compressibility (1/GPa) = 0.03098699
#
# Stress axis : x y z
#
# Youngs Moduli (GPa) = 37.17345 65.90193 42.72350
#
# Poissons Ratio (x) = 0.45450 0.49200
# Poissons Ratio (y) = 0.25637 -0.04978
# Poissons Ratio (z) = 0.42808 -0.07679
#
# Static dielectric constant tensor:
#      x y z
#    x 1.810790 0.000000 -0.012230 
#    y 0.000000 1.809070 0.000000 
#    z -0.012230 0.000000 1.814480 
# 
# From -- ./inp_files/291577.got.cif
#   From: 2010.05.17/outbox.cif.g08.bks.cpg/sg15_146_cif.got.tgz:291577.got - 2010.06.03 18:47:42.
