data_PCOD9269022
_publ_section_title
;
Structure prediction by ZEFSAII (Michael W. Deem and Ramdas Pophale) SiO2 
 PCOD9269022
Probable space group: C 2/C
;
_chemical_formula_sum "Si O2"
_cell_formula_units_Z 64
_cell_length_a 19.729480
_cell_length_b 20.234257
_cell_length_c 11.460232
_cell_angle_alpha 90.000000
_cell_angle_beta 40.946989
_cell_angle_gamma 90.000000
_cell_volume 2998.310171
_symmetry_space_group_name_H-M "C 2/C"
_symmetry_group_IT_number 15
_symmetry_cell_setting 'monoclinic'
loop_
_space_group_symop_operation_xyz
x,y,z
-x,y,1/2-z
-x,-y,-z
x,-y,1/2+z
1/2+x,1/2+y,z
1/2-x,1/2+y,1/2-z
1/2-x,1/2-y,-z
1/2+x,1/2-y,1/2+z
loop_
_atom_site_type_symbol
_atom_site_label
_atom_site_fract_x
_atom_site_fract_y
_atom_site_fract_z
Si Si1 0.069063 0.311618 0.362411
Si Si2 0.130854 0.232682 0.507537
Si Si3 0.376279 0.520938 0.927896
Si Si4 0.923716 0.111041 0.062215
Si Si5 0.761848 0.399869 0.341112
Si Si6 0.109845 0.812857 0.664299
Si Si7 0.151971 0.891798 0.258431
Si Si8 0.862994 0.266453 0.741211
O O1 0.120145 0.282910 0.414750
O O2 0.120118 0.383324 0.281030
O O3 0.100583 0.262963 0.216121
O O4 0.948067 0.299957 0.548049
O O5 0.065277 0.169215 0.550100
O O6 0.107466 0.268925 0.660077
O O7 0.248376 0.207079 0.368227
O O8 0.500000 0.507256 0.750000
O O9 0.343120 0.574015 0.873207
O O10 0.367055 0.552999 0.068385
O O11 0.301448 0.458461 0.015035
O O12 0.873707 0.145806 0.238076
O O13 0.037697 0.088226 0.952563
O O14 0.698881 0.333640 0.460586
O O15 0.741201 0.411319 0.231330
O O16 0.000000 0.830932 0.750000
O O17 0.147353 0.812390 0.263334
#
# Coordination Sequence:
#
# PCOD9269022 Si02
#       8
#     8   8   8   8   8   8   8   8
#     4  11  23  36  59  84 127 167 195 247 306 378
#     4  10  20  33  60  92 121 150 188 257 316 369
#     4  10  24  36  60  87 122 164 202 258 313 367
#     4  10  20  36  58  87 121 155 196 251 317 363
#     4  12  24  39  53  87 126 166 209 237 304 378
#     4  11  21  37  59  85 126 166 199 251 308 378
#     4  11  20  36  60  87 124 152 198 258 311 365
#     4  11  19  35  60  94 123 147 198 248 316 366
#
# _framework density 21.345357
#
# number of rings (size 3 to 8) (size 9 to 14) (size 15 to 20)
#    0.000    1.250    6.250    1.125    1.750    1.000 
#    0.000    0.000    0.000    0.750    0.000    0.000 
#    0.000    0.000    0.000    0.000    0.000    0.000 
#
# Total GULP energy -178668.657774 kJ/mol
# GULP energy per Si atom -5583.395555 kJ/mol
# Density = 2.129677 g / cm^3
# Si number density = 21.345357 Si / 1000 Ang^3
#
#
#
# Elastic Constant Matrix: (Units=GPa)
#
#
# Indices 1 2 3 4 5 6 
#
# 1 61.8654 21.4322 21.4936 0.0000 4.5400 0.0000
# 2 21.4322 69.9387 32.9996 0.0000 -7.3025 0.0000
# 3 21.4936 32.9996 56.7527 0.0000 -7.0141 0.0000
# 4 0.0000 0.0000 0.0000 22.9527 0.0000 -8.5656
# 5 4.5400 -7.3025 -7.0141 0.0000 34.6802 0.0000
# 6 0.0000 0.0000 0.0000 -8.5656 0.0000 25.6038
#
#
#
# Elastic Compliance Matrix: (Units=1/GPa)
#
#
# Indices 1 2 3 4 5 6 
#
# 1 0.019858 -0.003787 -0.005885 0.000000 -0.004587 0.000000
# 2 -0.003787 0.020547 -0.010171 0.000000 0.002765 0.000000
# 3 -0.005885 -0.010171 0.026250 0.000000 0.003938 0.000000
# 4 0.000000 0.000000 0.000000 0.049783 0.000000 0.016655
# 5 -0.004587 0.002765 0.003938 0.000000 0.030814 0.000000
# 6 0.000000 0.000000 0.000000 0.016655 0.000000 0.044628
#
#
# Mechanical properties :
#
#
# Convention : Reuss Voigt Hill
#
# Bulk Modulus (GPa) = 37.08252 37.82307 37.45279
# Shear Modulus (GPa) = 20.78521 24.15611 22.47066
#
# Velocity S-wave (km/s) = 3.12389 3.36769 3.24808
# Velocity P-wave (km/s) = 5.51561 5.73410 5.62592
#
# Compressibility (1/GPa) = 0.02696689
#
# Stress axis : x y z
#
# Youngs Moduli (GPa) = 50.35877 48.66992 38.09525
#
# Poissons Ratio (x) = 0.18433 0.22420
# Poissons Ratio (y) = 0.19072 0.38747
# Poissons Ratio (z) = 0.29638 0.49502
#
# Static dielectric constant tensor:
#      x y z
#    x 1.792050 0.000000 -0.011070 
#    y 0.000000 1.836280 0.000000 
#    z -0.011070 0.000000 1.837720 
# 
# From -- ./inp_files/114247.got.cif
#   From: 2010.05.17/outbox.cif.g08.bks.cpg/sg15_58_cif.got.tgz:114247.got - 2010.06.03 18:47:42.
