data_PCOD9269679
_publ_section_title
;
Structure prediction by ZEFSAII (Michael W. Deem and Ramdas Pophale) SiO2 
 PCOD9269679
Probable space group: C 2/C
;
_chemical_formula_sum "Si O2"
_cell_formula_units_Z 36
_cell_length_a 17.862280
_cell_length_b 12.825698
_cell_length_c 9.217618
_cell_angle_alpha 90.000000
_cell_angle_beta 139.067239
_cell_angle_gamma 90.000000
_cell_volume 1383.542581
_symmetry_space_group_name_H-M "C 2/C"
_symmetry_group_IT_number 15
_symmetry_cell_setting 'monoclinic'
loop_
_space_group_symop_operation_xyz
x,y,z
-x,y,1/2-z
-x,-y,-z
x,-y,1/2+z
1/2+x,1/2+y,z
1/2-x,1/2+y,1/2-z
1/2-x,1/2-y,-z
1/2+x,1/2-y,1/2+z
loop_
_atom_site_type_symbol
_atom_site_label
_atom_site_fract_x
_atom_site_fract_y
_atom_site_fract_z
Si Si1 0.652363 0.928405 0.626555
Si Si2 0.326486 0.111309 0.011843
Si Si3 0.332662 0.703978 0.932537
Si Si4 0.866265 0.150240 0.288783
Si Si5 0.500000 0.704066 0.750000
O O1 0.677814 0.934012 0.832786
O O2 0.604639 0.812889 0.518450
O O3 0.768978 0.926456 0.703559
O O4 0.601875 0.035097 0.491758
O O5 0.393592 0.220235 0.125864
O O6 0.204681 0.139564 0.761769
O O7 0.203657 0.739812 0.796166
O O8 0.387222 0.645091 0.148700
O O9 0.965499 0.145030 0.552295
#
# Coordination Sequence:
#
# PCOD9269679 Si02
#       5
#     8   8   8   8   4
#     4  10  20  34  59  82 113 155 197 221 276 356
#     4  11  21  35  59  89 112 151 195 236 282 339
#     4   8  17  35  57  75 111 155 194 220 274 350
#     4   8  17  36  57  76 111 154 186 227 284 333
#     4  10  22  34  58  86 124 138 184 248 300 312
#
# _framework density 26.020161999999999
#
# number of rings (size 3 to 8) (size 9 to 14) (size 15 to 20)
#    1.333    1.333    0.000    2.000    3.111    0.889 
#    0.000    0.000    0.000    5.333    0.000    0.000 
#    0.000    0.000    0.000    0.000    0.000    0.000 
#
# Total GULP energy -100360.946713 kJ/mol
# GULP energy per Si atom -5575.608151 kJ/mol
# Density = 2.596094 g / cm^3
# Si number density = 26.020162 Si / 1000 Ang^3
#
#
#
# Elastic Constant Matrix: (Units=GPa)
#
#
# Indices 1 2 3 4 5 6 
#
# 1 61.1372 -14.2194 25.0479 0.0000 -16.4727 0.0000
# 2 -14.2194 51.9043 18.5110 0.0000 -6.2078 0.0000
# 3 25.0479 18.5110 206.5402 0.0000 -43.9769 0.0000
# 4 0.0000 0.0000 0.0000 18.0101 0.0000 -18.1021
# 5 -16.4727 -6.2078 -43.9769 0.0000 38.2577 0.0000
# 6 0.0000 0.0000 0.0000 -18.1021 0.0000 18.1681
#
#
#
# Elastic Compliance Matrix: (Units=1/GPa)
#
#
# Indices 1 2 3 4 5 6 
#
# 1 0.020920 0.007245 -0.001348 0.000000 0.008634 0.000000
# 2 0.007245 0.022482 -0.001923 0.000000 0.004556 0.000000
# 3 -0.001348 -0.001923 0.006604 0.000000 0.006698 0.000000
# 4 0.000000 0.000000 0.000000-38.205606 0.000000-38.066748
# 5 0.008634 0.004556 0.006698 0.000000 0.038295 0.000000
# 6 0.000000 0.000000 0.000000-38.066748 0.000000-37.873354
#
#
# Mechanical properties :
#
#
# Convention : Reuss Voigt Hill
#
# Bulk Modulus (GPa) = 17.25568 42.02895 29.64232
# Shear Modulus (GPa) = -0.06581 34.23668 17.08544
#
# Velocity S-wave (km/s) = -0.15920 3.63130 2.56525
# Velocity P-wave (km/s) = 2.57143 5.81113 4.49341
#
# Compressibility (1/GPa) = 0.05795193
#
# Stress axis : x y z
#
# Youngs Moduli (GPa) = 47.80088 44.48050 151.42831
#
# Poissons Ratio (x) = -0.32224 0.20414
# Poissons Ratio (y) = -0.34629 0.29124
# Poissons Ratio (z) = 0.06444 0.08555
#
# Static dielectric constant tensor:
#      x y z
#    x 2.176070 0.000000 0.023200 
#    y 0.000000 2.084990 0.000000 
#    z 0.023200 0.000000 2.084770 
# 
# From -- ./inp_files/38315.got.cif
#   From: 2010.05.17/outbox.cif.g08.bks.cpg/sg15_20_cif.got.tgz:38315.got - 2010.06.03 18:47:42.
