data_PCOD9269983
_publ_section_title
;
Structure prediction by ZEFSAII (Michael W. Deem and Ramdas Pophale) SiO2 
 PCOD9269983
Probable space group: C 2/C
;
_chemical_formula_sum "Si O2"
_cell_formula_units_Z 64
_cell_length_a 12.851831
_cell_length_b 16.173012
_cell_length_c 21.039659
_cell_angle_alpha 90.000000
_cell_angle_beta 129.311141
_cell_angle_gamma 90.000000
_cell_volume 3383.582506
_symmetry_space_group_name_H-M "C 2/C"
_symmetry_group_IT_number 15
_symmetry_cell_setting 'monoclinic'
loop_
_space_group_symop_operation_xyz
x,y,z
-x,y,1/2-z
-x,-y,-z
x,-y,1/2+z
1/2+x,1/2+y,z
1/2-x,1/2+y,1/2-z
1/2-x,1/2-y,-z
1/2+x,1/2-y,1/2+z
loop_
_atom_site_type_symbol
_atom_site_label
_atom_site_fract_x
_atom_site_fract_y
_atom_site_fract_z
Si Si1 0.698410 0.942002 0.200796
Si Si2 0.730609 0.400021 0.469029
Si Si3 0.892940 0.698306 0.930144
Si Si4 0.694211 0.829354 0.516882
Si Si5 0.677574 0.545855 0.622295
Si Si6 0.938798 0.122250 0.469466
Si Si7 0.401574 0.024894 0.611118
Si Si8 0.357093 0.457872 0.659732
O O1 0.661658 0.859441 0.147548
O O2 0.802497 0.927786 0.297854
O O3 0.559925 0.973284 0.177124
O O4 0.753394 0.009994 0.173135
O O5 0.798404 0.328885 0.452550
O O6 0.636322 0.376356 0.491378
O O7 0.853268 0.449087 0.549097
O O8 0.650328 0.466486 0.394223
O O9 0.891210 0.795663 0.916049
O O10 0.053729 0.683422 0.001067
O O11 0.750000 0.750000 0.500000
O O12 0.648363 0.895094 0.446405
O O13 0.803965 0.875613 0.603630
O O14 0.594835 0.612112 0.548581
O O15 0.597546 0.459523 0.584285
O O16 0.819109 0.527042 0.643900
O O17 0.500000 0.448579 0.750000
#
# Coordination Sequence:
#
# PCOD9269983 Si02
#       8
#     8   8   8   8   8   8   8   8
#     4  10  20  35  56  80 107 138 177 226 271 316
#     4   9  18  34  57  80 104 140 180 221 267 323
#     4  10  20  35  55  80 109 139 177 225 273 317
#     4  10  20  35  53  77 108 141 180 222 265 322
#     4  10  20  35  56  80 109 146 181 217 264 325
#     4  10  20  35  56  80 109 145 181 215 265 328
#     4   9  18  34  55  76 104 143 182 215 262 321
#     4  10  20  35  57  81 105 138 180 225 274 326
#
# _framework density 18.914863
#
# number of rings (size 3 to 8) (size 9 to 14) (size 15 to 20)
#    0.000    2.250    0.000    3.000    0.000    6.000 
#    0.000    8.750    0.000   12.000    0.000    0.000 
#    0.000    0.000    0.000    0.000    0.000    0.000 
#
# Total GULP energy -178366.425241 kJ/mol
# GULP energy per Si atom -5573.950789 kJ/mol
# Density = 1.887181 g / cm^3
# Si number density = 18.914863 Si / 1000 Ang^3
#
#
#
# Elastic Constant Matrix: (Units=GPa)
#
#
# Indices 1 2 3 4 5 6 
#
# 1 46.8447 19.9072 40.3302 0.0000 17.8947 0.0000
# 2 19.9072 82.1890 34.9077 0.0000 4.6777 0.0000
# 3 40.3302 34.9077 106.8694 0.0000 6.2202 0.0000
# 4 0.0000 0.0000 0.0000 10.9028 0.0000 0.5237
# 5 17.8947 4.6777 6.2202 0.0000 21.2502 0.0000
# 6 0.0000 0.0000 0.0000 0.5237 0.0000 21.1630
#
#
#
# Elastic Compliance Matrix: (Units=1/GPa)
#
#
# Indices 1 2 3 4 5 6 
#
# 1 0.050683 -0.003427 -0.015837 0.000000 -0.037290 0.000000
# 2 -0.003427 0.014426 -0.003461 0.000000 0.000724 0.000000
# 3 -0.015837 -0.003461 0.015915 0.000000 0.009439 0.000000
# 4 0.000000 0.000000 0.000000 0.091829 0.000000 -0.002272
# 5 -0.037290 0.000724 0.009439 0.000000 0.075537 0.000000
# 6 0.000000 0.000000 0.000000 -0.002272 0.000000 0.047308
#
#
# Mechanical properties :
#
#
# Convention : Reuss Voigt Hill
#
# Bulk Modulus (GPa) = 28.11076 47.35479 37.73277
# Shear Modulus (GPa) = 14.16410 20.04708 17.10559
#
# Velocity S-wave (km/s) = 2.73945 3.25908 3.01050
# Velocity P-wave (km/s) = 4.99000 6.26516 5.66358
#
# Compressibility (1/GPa) = 0.03557357
#
# Stress axis : x y z
#
# Youngs Moduli (GPa) = 19.73062 69.31964 62.83538
#
# Poissons Ratio (x) = 0.23759 0.99510
# Poissons Ratio (y) = 0.06763 0.21746
# Poissons Ratio (z) = 0.31247 0.23990
#
# Static dielectric constant tensor:
#      x y z
#    x 1.702030 0.000000 -0.003190 
#    y 0.000000 1.651290 0.000000 
#    z -0.003190 0.000000 1.645130 
# 
# From -- ./inp_files/239831.got.cif
#   From: 2010.05.17/outbox.cif.g08.bks.cpg/sg15_120_cif.got.tgz:239831.got - 2010.06.03 18:47:42.
