data_PCOD9269605
_publ_section_title
;
Structure prediction by ZEFSAII (Michael W. Deem and Ramdas Pophale) SiO2 
 PCOD9269605
Probable space group: C 2/C
;
_chemical_formula_sum "Si O2"
_cell_formula_units_Z 60
_cell_length_a 7.642714
_cell_length_b 24.528046
_cell_length_c 14.859116
_cell_angle_alpha 90.000000
_cell_angle_beta 86.955634
_cell_angle_gamma 90.000000
_cell_volume 2781.571223
_symmetry_space_group_name_H-M "C 2/C"
_symmetry_group_IT_number 15
_symmetry_cell_setting 'monoclinic'
loop_
_space_group_symop_operation_xyz
x,y,z
-x,y,1/2-z
-x,-y,-z
x,-y,1/2+z
1/2+x,1/2+y,z
1/2-x,1/2+y,1/2-z
1/2-x,1/2-y,-z
1/2+x,1/2-y,1/2+z
loop_
_atom_site_type_symbol
_atom_site_label
_atom_site_fract_x
_atom_site_fract_y
_atom_site_fract_z
Si Si1 0.216013 0.843938 0.753338
Si Si2 0.500000 0.447293 0.250000
Si Si3 0.789077 0.534660 0.202904
Si Si4 0.823979 0.095886 0.927417
Si Si5 0.804271 0.200121 0.433522
Si Si6 0.527564 0.967631 0.090156
Si Si7 0.800923 0.198918 0.057181
Si Si8 0.348243 0.574036 0.487323
O O1 0.281601 0.906177 0.747096
O O2 0.276350 0.809531 0.663670
O O3 0.283339 0.819486 0.846105
O O4 0.000000 0.848109 0.750000
O O5 0.665192 0.489279 0.252505
O O6 0.558132 0.408547 0.165623
O O7 0.977574 0.510803 0.167305
O O8 0.697454 0.546126 0.106412
O O9 0.631501 0.075504 0.905720
O O10 0.949235 0.063068 0.993813
O O11 0.799854 0.150783 0.984061
O O12 0.750000 0.250000 0.500000
O O13 0.807431 0.139069 0.476606
O O14 0.006453 0.212279 0.413185
O O15 0.719033 0.943761 0.071135
O O16 0.500000 0.000000 0.000000
O O17 0.750000 0.250000 0.000000
#
# Coordination Sequence:
#
# PCOD9269605 Si02
#       8
#     8   4   8   8   8   8   8   8
#     4   9  17  36  62  89 117 155 211 249 299 385
#     4  10  20  34  58  86 124 156 196 258 298 368
#     4   9  17  33  58  87 119 156 198 253 294 360
#     4  10  22  39  59  86 117 165 201 250 310 364
#     4   9  19  36  64  88 116 161 204 253 313 364
#     4   9  19  34  58  87 122 154 195 252 298 356
#     4  10  22  40  61  89 117 161 205 261 316 359
#     4   9  19  37  60  85 118 161 206 240 305 374
#
# _framework density 21.570543000000001
#
# number of rings (size 3 to 8) (size 9 to 14) (size 15 to 20)
#    0.000    2.667    0.667    0.800    1.867    4.800 
#    4.800    2.667    2.933    0.000    0.000    0.000 
#    0.000    0.000    0.000    0.000    0.000    0.000 
#
# Total GULP energy -167014.587758 kJ/mol
# GULP energy per Si atom -5567.152925 kJ/mol
# Density = 2.152145 g / cm^3
# Si number density = 21.570543 Si / 1000 Ang^3
#
#
#
# Elastic Constant Matrix: (Units=GPa)
#
#
# Indices 1 2 3 4 5 6 
#
# 1 55.7572 16.9090 9.7077 0.0000 -13.0411 0.0000
# 2 16.9090 102.4050 77.2623 0.0000 4.7844 0.0000
# 3 9.7077 77.2623 167.1849 0.0000 1.9957 0.0000
# 4 0.0000 0.0000 0.0000 33.5056 0.0000 -2.1632
# 5 -13.0411 4.7844 1.9957 0.0000 22.8415 0.0000
# 6 0.0000 0.0000 0.0000 -2.1632 0.0000 30.5947
#
#
#
# Elastic Compliance Matrix: (Units=1/GPa)
#
#
# Indices 1 2 3 4 5 6 
#
# 1 0.022544 -0.005001 0.000837 0.000000 0.013846 0.000000
# 2 -0.005001 0.016250 -0.007152 0.000000 -0.005634 0.000000
# 3 0.000837 -0.007152 0.009224 0.000000 0.001170 0.000000
# 4 0.000000 0.000000 0.000000 0.029983 0.000000 0.002120
# 5 0.013846 -0.005634 0.001170 0.000000 0.052763 0.000000
# 6 0.000000 0.000000 0.000000 0.002120 0.000000 0.032835
#
#
# Mechanical properties :
#
#
# Convention : Reuss Voigt Hill
#
# Bulk Modulus (GPa) = 39.39150 59.23390 49.31270
# Shear Modulus (GPa) = 25.68139 32.15289 28.91714
#
# Velocity S-wave (km/s) = 3.45422 3.86501 3.66537
# Velocity P-wave (km/s) = 5.84895 6.88752 6.38937
#
# Compressibility (1/GPa) = 0.02538619
#
# Stress axis : x y z
#
# Youngs Moduli (GPa) = 44.35761 61.53753 108.41084
#
# Poissons Ratio (x) = 0.30772 -0.09070
# Poissons Ratio (y) = 0.22181 0.77538
# Poissons Ratio (z) = -0.03711 0.44013
#
# Static dielectric constant tensor:
#      x y z
#    x 1.877380 0.000000 0.018380 
#    y 0.000000 1.846790 0.000000 
#    z 0.018380 0.000000 1.889160 
# 
# From -- ./inp_files/138244.got.cif
#   From: 2010.05.17/outbox.cif.g08.bks.cpg/sg15_70_cif.got.tgz:138244.got - 2010.06.03 18:47:42.
