data_PCOD9269392
_publ_section_title
;
Structure prediction by ZEFSAII (Michael W. Deem and Ramdas Pophale) SiO2 
 PCOD9269392
Probable space group: C 2/C
;
_chemical_formula_sum "Si O2"
_cell_formula_units_Z 56
_cell_length_a 5.561434
_cell_length_b 22.863176
_cell_length_c 22.199835
_cell_angle_alpha 90.000000
_cell_angle_beta 68.786027
_cell_angle_gamma 90.000000
_cell_volume 2631.472096
_symmetry_space_group_name_H-M "C 2/C"
_symmetry_group_IT_number 15
_symmetry_cell_setting 'monoclinic'
loop_
_space_group_symop_operation_xyz
x,y,z
-x,y,1/2-z
-x,-y,-z
x,-y,1/2+z
1/2+x,1/2+y,z
1/2-x,1/2+y,1/2-z
1/2-x,1/2-y,-z
1/2+x,1/2-y,1/2+z
loop_
_atom_site_type_symbol
_atom_site_label
_atom_site_fract_x
_atom_site_fract_y
_atom_site_fract_z
Si Si1 0.204264 0.448749 0.497646
Si Si2 0.065807 0.816507 0.173834
Si Si3 0.524202 0.119707 0.582210
Si Si4 0.302945 0.435976 0.212531
Si Si5 0.235070 0.004624 0.895982
Si Si6 0.887052 0.281235 0.928963
Si Si7 0.663644 0.312949 0.533746
O O1 0.196786 0.448318 0.570793
O O2 0.474447 0.471776 0.449256
O O3 0.000000 0.500000 0.500000
O O4 0.141169 0.393108 0.463273
O O5 0.365445 0.835909 0.137789
O O6 0.021068 0.766282 0.128788
O O7 0.000000 0.802685 0.250000
O O8 0.907157 0.875855 0.172872
O O9 0.562353 0.057497 0.610712
O O10 0.780719 0.144045 0.527507
O O11 0.500000 0.442761 0.250000
O O12 0.316433 0.493453 0.169657
O O13 0.000000 0.426773 0.250000
O O14 0.636927 0.313480 0.923600
O O15 0.133690 0.318168 0.929487
O O16 0.750000 0.250000 0.000000
O O17 0.750000 0.250000 0.500000
#
# Coordination Sequence:
#
# PCOD9269392 Si02
#       7
#     8   8   8   8   8   8   8
#     4   9  20  34  53  82 113 152 188 244 290 348
#     4  11  22  36  56  85 122 159 191 234 299 366
#     4  11  20  35  57  82 122 154 194 246 299 355
#     4  11  24  37  55  86 121 165 189 227 292 370
#     4  10  20  34  56  79 122 149 194 233 290 353
#     4  10  21  37  52  77 116 148 202 236 277 341
#     4  10  21  33  56  79 111 151 198 238 285 336
#
# _framework density 21.280863
#
# number of rings (size 3 to 8) (size 9 to 14) (size 15 to 20)
#    0.000    1.714    4.286    1.714    8.000    2.286 
#    0.000    0.000    0.000    0.000    0.000    1.000 
#   12.857    0.000    0.000    0.000    0.000    0.000 
#
# Total GULP energy -155987.691113 kJ/mol
# GULP energy per Si atom -5570.988968 kJ/mol
# Density = 2.123243 g / cm^3
# Si number density = 21.280863 Si / 1000 Ang^3
#
#
#
# Elastic Constant Matrix: (Units=GPa)
#
#
# Indices 1 2 3 4 5 6 
#
# 1 128.7301 13.6719 38.4156 0.0000 3.1916 0.0000
# 2 13.6719 28.7033 31.9340 0.0000 9.6772 0.0000
# 3 38.4156 31.9340 119.2659 0.0000 12.1769 0.0000
# 4 0.0000 0.0000 0.0000 38.1187 0.0000 3.8321
# 5 3.1916 9.6772 12.1769 0.0000 25.0926 0.0000
# 6 0.0000 0.0000 0.0000 3.8321 0.0000 27.4976
#
#
#
# Elastic Compliance Matrix: (Units=1/GPa)
#
#
# Indices 1 2 3 4 5 6 
#
# 1 0.008648 -0.001681 -0.002408 0.000000 0.000717 0.000000
# 2 -0.001681 0.054597 -0.012572 0.000000 -0.014741 0.000000
# 3 -0.002408 -0.012572 0.012626 0.000000 -0.000972 0.000000
# 4 0.000000 0.000000 0.000000 0.026607 0.000000 -0.003708
# 5 0.000717 -0.014741 -0.000972 0.000000 0.045918 0.000000
# 6 0.000000 0.000000 0.000000 -0.003708 0.000000 0.036884
#
#
# Mechanical properties :
#
#
# Convention : Reuss Voigt Hill
#
# Bulk Modulus (GPa) = 23.50343 49.41579 36.45961
# Shear Modulus (GPa) = 21.47908 30.98695 26.23302
#
# Velocity S-wave (km/s) = 3.18042 3.82002 3.51480
# Velocity P-wave (km/s) = 4.95531 6.53666 5.80013
#
# Compressibility (1/GPa) = 0.04254698
#
# Stress axis : x y z
#
# Youngs Moduli (GPa) = 115.63752 18.31604 79.20248
#
# Poissons Ratio (x) = 0.03079 0.19076
# Poissons Ratio (y) = 0.19442 0.99573
# Poissons Ratio (z) = 0.27851 0.23027
#
# Static dielectric constant tensor:
#      x y z
#    x 1.950460 0.000000 0.100080 
#    y 0.000000 1.832850 0.000000 
#    z 0.100080 0.000000 1.875330 
# 
# From -- ./inp_files/228416.got.cif
#   From: 2010.05.17/outbox.cif.g08.bks.cpg/sg15_115_cif.got.tgz:228416.got - 2010.06.03 18:47:42.
