data_PCOD9269416
_publ_section_title
;
Structure prediction by ZEFSAII (Michael W. Deem and Ramdas Pophale) SiO2 
 PCOD9269416
Probable space group: C 2/C
;
_chemical_formula_sum "Si O2"
_cell_formula_units_Z 40
_cell_length_a 24.851916
_cell_length_b 14.619974
_cell_length_c 16.619945
_cell_angle_alpha 90.000000
_cell_angle_beta 14.942273
_cell_angle_gamma 90.000000
_cell_volume 1557.026426
_symmetry_space_group_name_H-M "C 2/C"
_symmetry_group_IT_number 15
_symmetry_cell_setting 'monoclinic'
loop_
_space_group_symop_operation_xyz
x,y,z
-x,y,1/2-z
-x,-y,-z
x,-y,1/2+z
1/2+x,1/2+y,z
1/2-x,1/2+y,1/2-z
1/2-x,1/2-y,-z
1/2+x,1/2-y,1/2+z
loop_
_atom_site_type_symbol
_atom_site_label
_atom_site_fract_x
_atom_site_fract_y
_atom_site_fract_z
Si Si1 0.213218 0.926040 0.618651
Si Si2 0.395306 0.754879 0.161465
Si Si3 0.287249 0.036988 0.665875
Si Si4 0.627315 0.244561 0.986141
Si Si5 0.743945 0.458602 0.399904
O O1 0.232347 0.817587 0.601425
O O2 0.302250 0.970330 0.409009
O O3 0.302482 0.969281 0.569976
O O4 0.962779 0.940020 0.974794
O O5 0.429620 0.718047 0.020130
O O6 0.276805 0.850844 0.333939
O O7 0.629563 0.766837 0.854438
O O8 0.396057 0.134272 0.490227
O O9 0.331457 0.997577 0.691436
O O10 0.500000 0.273698 0.250000
O O11 0.500000 0.482615 0.750000
#
# Coordination Sequence:
#
# PCOD9269416 Si02
#       5
#     8   8   8   8   8
#     4   9  16  31  54  79 109 143 178 221 272 328
#     4  10  20  34  56  83 110 142 189 230 271 334
#     4   8  17  32  51  78 107 142 183 217 268 334
#     4  10  20  37  55  75 108 148 186 231 278 322
#     4   9  17  32  55  82 115 146 175 225 279 323
#
# _framework density 25.689993000000001
#
# number of rings (size 3 to 8) (size 9 to 14) (size 15 to 20)
#    0.000    2.800    0.000    2.400    0.000    0.000 
#    0.000   12.000    0.000    4.800    0.000    0.000 
#    0.000    0.000    0.000    0.000    0.000    0.000 
#
# Total GULP energy -111860.933368 kJ/mol
# GULP energy per Si atom -5593.046668 kJ/mol
# Density = 2.563152 g / cm^3
# Si number density = 25.689993 Si / 1000 Ang^3
#
#
#
# Elastic Constant Matrix: (Units=GPa)
#
#
# Indices 1 2 3 4 5 6 
#
# 1 197.0021 20.7266 2.9294 -0.0020 28.4571 0.0007
# 2 20.7266 52.7289 15.5827 -0.0123 14.5941 0.0037
# 3 2.9294 15.5827 84.3448 -0.0109 27.0077 0.0059
# 4 -0.0020 -0.0123 -0.0109 16.5752 0.0046 11.9885
# 5 28.4571 14.5941 27.0077 0.0046 46.5511 -0.0022
# 6 0.0007 0.0037 0.0059 11.9885 -0.0022 22.1613
#
#
#
# Elastic Compliance Matrix: (Units=1/GPa)
#
#
# Indices 1 2 3 4 5 6 
#
# 1 0.005772 -0.001608 0.001308 0.000003 -0.003783 -0.000002
# 2 -0.001608 0.021538 -0.002550 0.000029 -0.004290 -0.000019
# 3 0.001308 -0.002550 0.015084 0.000023 -0.008752 -0.000017
# 4 0.000003 0.000029 0.000023 0.099110 -0.000037 -0.053615
# 5 -0.003783 -0.004290 -0.008752 -0.000037 0.030217 0.000026
# 6 -0.000002 -0.000019 -0.000017 -0.053615 0.000026 0.074128
#
#
# Mechanical properties :
#
#
# Convention : Reuss Voigt Hill
#
# Bulk Modulus (GPa) = 27.25199 45.83925 36.54562
# Shear Modulus (GPa) = 18.95514 36.71332 27.83423
#
# Velocity S-wave (km/s) = 2.71927 3.78443 3.29518
# Velocity P-wave (km/s) = 4.52662 6.08094 5.36042
#
# Compressibility (1/GPa) = 0.03669457
#
# Stress axis : x y z
#
# Youngs Moduli (GPa) = 173.23893 46.42962 66.29516
#
# Poissons Ratio (x) = 0.07468 -0.08672
# Poissons Ratio (y) = 0.27864 0.16903
# Poissons Ratio (z) = -0.22662 0.11838
#
# Static dielectric constant tensor:
#      x y z
#    x 2.049070 0.000000 0.009400 
#    y 0.000000 1.964020 0.000000 
#    z 0.009400 0.000000 2.024010 
# 
# From -- ./inp_files/29058.got.cif
#   From: 2010.05.17/outbox.cif.g08.bks.cpg/sg15_15_cif.got.tgz:29058.got - 2010.06.03 18:47:42.
