data_PCOD9269280
_publ_section_title
;
Structure prediction by ZEFSAII (Michael W. Deem and Ramdas Pophale) SiO2 
 PCOD9269280
Probable space group: C 2/C
;
_chemical_formula_sum "Si O2"
_cell_formula_units_Z 64
_cell_length_a 24.953989
_cell_length_b 28.007359
_cell_length_c 9.554737
_cell_angle_alpha 90.000000
_cell_angle_beta 148.974744
_cell_angle_gamma 90.000000
_cell_volume 3441.823986
_symmetry_space_group_name_H-M "C 2/C"
_symmetry_group_IT_number 15
_symmetry_cell_setting 'monoclinic'
loop_
_space_group_symop_operation_xyz
x,y,z
-x,y,1/2-z
-x,-y,-z
x,-y,1/2+z
1/2+x,1/2+y,z
1/2-x,1/2+y,1/2-z
1/2-x,1/2-y,-z
1/2+x,1/2-y,1/2+z
loop_
_atom_site_type_symbol
_atom_site_label
_atom_site_fract_x
_atom_site_fract_y
_atom_site_fract_z
Si Si1 0.389019 0.902744 0.772550
Si Si2 0.397415 0.251558 0.439313
Si Si3 0.877061 0.394038 0.152409
Si Si4 0.598612 0.650682 0.381435
Si Si5 0.471332 0.305689 0.346358
Si Si6 0.702642 0.914572 0.219427
Si Si7 0.881336 0.515038 0.462039
Si Si8 0.256037 0.836581 0.662274
O O1 0.376569 0.900435 0.580425
O O2 0.379598 0.956680 0.810594
O O3 0.298445 0.871914 0.638925
O O4 0.499954 0.884002 0.073585
O O5 0.371210 0.301687 0.460427
O O6 0.434817 0.262273 0.365115
O O7 0.302876 0.215355 0.235624
O O8 0.500000 0.232728 0.750000
O O9 0.839724 0.399658 0.225616
O O10 0.863218 0.443600 0.036099
O O11 0.809902 0.354585 0.924221
O O12 0.500000 0.631626 0.250000
O O13 0.689491 0.612357 0.569569
O O14 0.558152 0.668343 0.137699
O O15 0.500000 0.293982 0.250000
O O16 0.367244 0.337424 0.104948
O O17 0.699842 0.972242 0.212191
O O18 0.000000 0.496932 0.750000
#
# Coordination Sequence:
#
# PCOD9269280 Si02
#       8
#     8   8   8   8   8   8   8   8
#     4  10  20  34  54  84 115 143 175 215 278 342
#     4   9  19  38  58  77 108 144 176 216 277 334
#     4  10  21  34  54  87 115 138 175 226 276 327
#     4   9  21  39  55  77 109 147 185 223 269 317
#     4  10  20  36  56  79 105 143 191 229 258 303
#     4  12  20  33  56  80 107 144 185 224 264 318
#     4   9  19  35  55  79 113 148 173 211 280 345
#     4  11  20  37  60  78 109 151 181 213 273 333
#
# _framework density 18.594792000000002
#
# number of rings (size 3 to 8) (size 9 to 14) (size 15 to 20)
#    0.000    2.250    0.000    6.375    0.000    2.000 
#    0.000   10.625    0.000   15.750    0.000    0.000 
#    0.000    0.000    0.000    0.000    0.000    0.000 
#
# Total GULP energy -178540.131811 kJ/mol
# GULP energy per Si atom -5579.379119 kJ/mol
# Density = 1.855247 g / cm^3
# Si number density = 18.594792 Si / 1000 Ang^3
#
#
#
# Elastic Constant Matrix: (Units=GPa)
#
#
# Indices 1 2 3 4 5 6 
#
# 1 115.9223 32.2167 34.8953 0.0000 -29.7504 0.0000
# 2 32.2167 72.5665 39.2659 0.0000 6.8214 0.0000
# 3 34.8953 39.2659 70.4920 0.0000 -16.3245 0.0000
# 4 0.0000 0.0000 0.0000 24.2761 0.0000 10.3106
# 5 -29.7504 6.8214 -16.3245 0.0000 38.5433 0.0000
# 6 0.0000 0.0000 0.0000 10.3106 0.0000 28.3634
#
#
#
# Elastic Compliance Matrix: (Units=1/GPa)
#
#
# Indices 1 2 3 4 5 6 
#
# 1 0.013648 -0.007137 -0.000054 0.000000 0.011775 0.000000
# 2 -0.007137 0.026769 -0.015246 0.000000 -0.016704 0.000000
# 3 -0.000054 -0.015246 0.025857 0.000000 0.013608 0.000000
# 4 0.000000 0.000000 0.000000 0.048714 0.000000 -0.017708
# 5 0.011775 -0.016704 0.013608 0.000000 0.043753 0.000000
# 6 0.000000 0.000000 0.000000 -0.017708 0.000000 0.041694
#
#
# Mechanical properties :
#
#
# Convention : Reuss Voigt Hill
#
# Bulk Modulus (GPa) = 46.73030 52.41520 49.57275
# Shear Modulus (GPa) = 19.80653 28.41009 24.10831
#
# Velocity S-wave (km/s) = 3.26723 3.91302 3.60461
# Velocity P-wave (km/s) = 6.27841 6.97602 6.63639
#
# Compressibility (1/GPa) = 0.02139939
#
# Stress axis : x y z
#
# Youngs Moduli (GPa) = 73.27062 37.35663 38.67483
#
# Poissons Ratio (x) = 0.26661 0.00208
# Poissons Ratio (y) = 0.52293 0.58965
# Poissons Ratio (z) = 0.00395 0.56955
#
# Static dielectric constant tensor:
#      x y z
#    x 1.642610 0.000000 -0.029130 
#    y 0.000000 1.650330 0.000000 
#    z -0.029130 0.000000 1.671290 
# 
# From -- ./inp_files/64210.got.cif
#   From: 2010.05.17/outbox.cif.g08.bks.cpg/sg15_33_cif.got.tgz:64210.got - 2010.06.03 18:47:42.
