data_PCOD9269414
_publ_section_title
;
Structure prediction by ZEFSAII (Michael W. Deem and Ramdas Pophale) SiO2 
 PCOD9269414
Probable space group: C 2/C
;
_chemical_formula_sum "Si O2"
_cell_formula_units_Z 60
_cell_length_a 14.768244
_cell_length_b 23.439777
_cell_length_c 10.440436
_cell_angle_alpha 90.000000
_cell_angle_beta 52.160433
_cell_angle_gamma 90.000000
_cell_volume 2854.174144
_symmetry_space_group_name_H-M "C 2/C"
_symmetry_group_IT_number 15
_symmetry_cell_setting 'monoclinic'
loop_
_space_group_symop_operation_xyz
x,y,z
-x,y,1/2-z
-x,-y,-z
x,-y,1/2+z
1/2+x,1/2+y,z
1/2-x,1/2+y,1/2-z
1/2-x,1/2-y,-z
1/2+x,1/2-y,1/2+z
loop_
_atom_site_type_symbol
_atom_site_label
_atom_site_fract_x
_atom_site_fract_y
_atom_site_fract_z
Si Si1 0.500000 0.872996 0.250000
Si Si2 0.391141 0.557195 0.013500
Si Si3 0.786315 0.609094 0.786022
Si Si4 0.149517 0.709300 0.447520
Si Si5 0.225964 0.276369 0.352397
Si Si6 0.871663 0.168799 0.396546
Si Si7 0.654019 0.474343 0.229774
Si Si8 0.114775 0.818161 0.068080
O O1 0.602171 0.907182 0.229760
O O2 0.441174 0.834363 0.412787
O O3 0.341753 0.525733 0.928210
O O4 0.528458 0.550384 0.877658
O O5 0.367037 0.623882 0.023252
O O6 0.344895 0.531698 0.186402
O O7 0.803870 0.674240 0.721497
O O8 0.750354 0.567293 0.704192
O O9 0.677915 0.618463 0.972428
O O10 0.176040 0.732113 0.281962
O O11 0.122960 0.769562 0.538987
O O12 0.272904 0.682226 0.379250
O O13 0.116517 0.237949 0.479334
O O14 0.280164 0.308074 0.426264
O O15 0.000000 0.153513 0.250000
O O16 0.000000 0.823635 0.250000
#
# Coordination Sequence:
#
# PCOD9269414 Si02
#       8
#     4   8   8   8   8   8   8   8
#     4  10  20  34  56  82 128 164 216 250 304 378
#     4  10  20  40  65  92 123 163 204 272 326 393
#     4  10  20  37  57  88 122 172 207 261 318 379
#     4   9  18  31  46  76 114 166 202 244 299 363
#     4  10  22  33  57  85 122 168 211 253 315 381
#     4   9  17  29  46  75 116 152 204 248 300 369
#     4  10  20  40  64  90 125 160 210 264 334 379
#     4  11  21  38  57  89 124 163 208 258 321 392
#
# _framework density 21.021843000000001
#
# number of rings (size 3 to 8) (size 9 to 14) (size 15 to 20)
#    0.000    2.133    3.333    0.800    1.867    2.133 
#    9.600    0.000    0.000    0.800    6.933    0.000 
#    0.000    0.000    0.000    0.000    0.000    0.000 
#
# Total GULP energy -167317.274720 kJ/mol
# GULP energy per Si atom -5577.242491 kJ/mol
# Density = 2.097400 g / cm^3
# Si number density = 21.021843 Si / 1000 Ang^3
#
#
#
# Elastic Constant Matrix: (Units=GPa)
#
#
# Indices 1 2 3 4 5 6 
#
# 1 92.4102 23.6856 27.1056 0.0000 -10.1520 0.0000
# 2 23.6856 71.2149 18.3331 0.0000 -1.5067 0.0000
# 3 27.1056 18.3331 60.6092 0.0000 -13.7465 0.0000
# 4 0.0000 0.0000 0.0000 17.8902 0.0000 9.7568
# 5 -10.1520 -1.5067 -13.7465 0.0000 21.5332 0.0000
# 6 0.0000 0.0000 0.0000 9.7568 0.0000 26.4185
#
#
#
# Elastic Compliance Matrix: (Units=1/GPa)
#
#
# Indices 1 2 3 4 5 6 
#
# 1 0.013251 -0.003260 -0.004180 0.000000 0.003351 0.000000
# 2 -0.003260 0.016119 -0.004105 0.000000 -0.003030 0.000000
# 3 -0.004180 -0.004105 0.022331 0.000000 0.011998 0.000000
# 4 0.000000 0.000000 0.000000 0.069994 0.000000 -0.025850
# 5 0.003351 -0.003030 0.011998 0.000000 0.055467 0.000000
# 6 0.000000 0.000000 0.000000 -0.025850 0.000000 0.047399
#
#
# Mechanical properties :
#
#
# Convention : Reuss Voigt Hill
#
# Bulk Modulus (GPa) = 34.95112 40.27590 37.61351
# Shear Modulus (GPa) = 19.44092 23.50904 21.47498
#
# Velocity S-wave (km/s) = 3.04435 3.34775 3.19965
# Velocity P-wave (km/s) = 5.38698 5.84328 5.61976
#
# Compressibility (1/GPa) = 0.02861138
#
# Stress axis : x y z
#
# Youngs Moduli (GPa) = 75.46518 62.03880 44.78001
#
# Poissons Ratio (x) = 0.20226 0.18718
# Poissons Ratio (y) = 0.24604 0.18381
# Poissons Ratio (z) = 0.31545 0.25465
#
# Static dielectric constant tensor:
#      x y z
#    x 1.814010 0.000000 0.047430 
#    y 0.000000 1.774290 0.000000 
#    z 0.047430 0.000000 1.817560 
# 
# From -- ./inp_files/100658.got.cif
#   From: 2010.05.17/outbox.cif.g08.bks.cpg/sg15_51_cif.got.tgz:100658.got - 2010.06.03 18:47:42.
