data_PCOD9269181
_publ_section_title
;
Structure prediction by ZEFSAII (Michael W. Deem and Ramdas Pophale) SiO2 
 PCOD9269181
Probable space group: C 2/C
;
_chemical_formula_sum "Si O2"
_cell_formula_units_Z 56
_cell_length_a 21.059845
_cell_length_b 12.078665
_cell_length_c 9.826290
_cell_angle_alpha 90.000000
_cell_angle_beta 94.210633
_cell_angle_gamma 90.000000
_cell_volume 2492.814035
_symmetry_space_group_name_H-M "C 2/C"
_symmetry_group_IT_number 15
_symmetry_cell_setting 'monoclinic'
loop_
_space_group_symop_operation_xyz
x,y,z
-x,y,1/2-z
-x,-y,-z
x,-y,1/2+z
1/2+x,1/2+y,z
1/2-x,1/2+y,1/2-z
1/2-x,1/2-y,-z
1/2+x,1/2-y,1/2+z
loop_
_atom_site_type_symbol
_atom_site_label
_atom_site_fract_x
_atom_site_fract_y
_atom_site_fract_z
Si Si1 0.925627 0.196852 0.780515
Si Si2 0.353372 0.203250 0.510746
Si Si3 0.728924 0.614715 0.118256
Si Si4 0.453905 0.535566 0.369473
Si Si5 0.929535 0.285785 0.300643
Si Si6 0.352025 0.801578 0.522431
Si Si7 0.727119 0.417384 0.932417
O O1 0.886190 0.226784 0.640746
O O2 0.000000 0.204356 0.750000
O O3 0.911961 0.071844 0.830043
O O4 0.905443 0.277587 0.900746
O O5 0.384984 0.194324 0.663635
O O6 0.312177 0.315897 0.511595
O O7 0.301636 0.109364 0.470084
O O8 0.804365 0.623180 0.101942
O O9 0.716841 0.578961 0.269823
O O10 0.696192 0.732181 0.082153
O O11 0.705040 0.527391 0.004074
O O12 0.500000 0.544158 0.250000
O O13 0.500000 0.500000 0.500000
O O14 0.425683 0.659266 0.362691
O O15 0.903739 0.353507 0.427183
O O16 0.000000 0.303129 0.250000
#
# Coordination Sequence:
#
# PCOD9269181 Si02
#       7
#     8   8   8   8   8   8   8
#     4  11  22  38  63  93 134 173 203 256 315 387
#     4  11  24  41  65  95 129 166 216 258 317 384
#     4  11  26  44  66  93 124 167 218 272 316 365
#     4  10  20  34  52  88 132 166 201 234 295 375
#     4  11  22  38  61  95 134 169 204 253 315 387
#     4  11  24  41  65  95 129 166 215 254 318 388
#     4  11  26  44  66  93 124 167 218 272 318 361
#
# _framework density 22.464572
#
# number of rings (size 3 to 8) (size 9 to 14) (size 15 to 20)
#    0.000    1.143    2.857    4.286    8.000    0.000 
#    0.000    0.000    0.000    5.143    0.000    0.000 
#    0.000    0.000    0.000    0.000    0.000    0.000 
#
# Total GULP energy -156390.347505 kJ/mol
# GULP energy per Si atom -5585.369554 kJ/mol
# Density = 2.241344 g / cm^3
# Si number density = 22.464572 Si / 1000 Ang^3
#
#
#
# Elastic Constant Matrix: (Units=GPa)
#
#
# Indices 1 2 3 4 5 6 
#
# 1 87.5284 -1.4133 24.1251 0.0000 -18.0467 0.0000
# 2 -1.4133 6.4507 4.0414 0.0000 -5.6211 0.0000
# 3 24.1251 4.0414 146.7247 0.0000 -5.9504 0.0000
# 4 0.0000 0.0000 0.0000 19.0966 0.0000 2.8489
# 5 -18.0467 -5.6211 -5.9504 0.0000 49.7319 0.0000
# 6 0.0000 0.0000 0.0000 2.8489 0.0000 27.3538
#
#
#
# Elastic Compliance Matrix: (Units=1/GPa)
#
#
# Indices 1 2 3 4 5 6 
#
# 1 0.013344 0.009209 -0.002220 0.000000 0.005617 0.000000
# 2 0.009209 0.180644 -0.005553 0.000000 0.023095 0.000000
# 3 -0.002220 -0.005553 0.007311 0.000000 -0.000558 0.000000
# 4 0.000000 0.000000 0.000000 0.053192 0.000000 -0.005540
# 5 0.005617 0.023095 -0.000558 0.000000 0.024690 0.000000
# 6 0.000000 0.000000 0.000000 -0.005540 0.000000 0.037135
#
#
# Mechanical properties :
#
#
# Convention : Reuss Voigt Hill
#
# Bulk Modulus (GPa) = 4.89785 32.69002 18.79394
# Shear Modulus (GPa) = 13.10615 33.49984 23.30299
#
# Velocity S-wave (km/s) = 2.41802 3.86583 3.22424
# Velocity P-wave (km/s) = 3.15923 5.87449 4.71648
#
# Compressibility (1/GPa) = 0.20417102
#
# Stress axis : x y z
#
# Youngs Moduli (GPa) = 74.94218 5.53574 136.78402
#
# Poissons Ratio (x) = -0.05098 0.30364
# Poissons Ratio (y) = -0.69017 0.75961
# Poissons Ratio (z) = 0.16636 0.03074
#
# Static dielectric constant tensor:
#      x y z
#    x 1.873550 0.000000 -0.016910 
#    y 0.000000 1.911560 0.000000 
#    z -0.016910 0.000000 1.805130 
# 
# From -- ./inp_files/55620.got.cif
#   From: 2010.05.17/outbox.cif.g08.bks.cpg/sg15_28_cif.got.tgz:55620.got - 2010.06.03 18:47:42.
