data_PCOD9269377
_publ_section_title
;
Structure prediction by ZEFSAII (Michael W. Deem and Ramdas Pophale) SiO2 
 PCOD9269377
Probable space group: C 2/C
;
_chemical_formula_sum "Si O2"
_cell_formula_units_Z 48
_cell_length_a 5.809707
_cell_length_b 31.511238
_cell_length_c 12.751818
_cell_angle_alpha 90.000000
_cell_angle_beta 116.057199
_cell_angle_gamma 90.000000
_cell_volume 2097.201979
_symmetry_space_group_name_H-M "C 2/C"
_symmetry_group_IT_number 15
_symmetry_cell_setting 'monoclinic'
loop_
_space_group_symop_operation_xyz
x,y,z
-x,y,1/2-z
-x,-y,-z
x,-y,1/2+z
1/2+x,1/2+y,z
1/2-x,1/2+y,1/2-z
1/2-x,1/2-y,-z
1/2+x,1/2-y,1/2+z
loop_
_atom_site_type_symbol
_atom_site_label
_atom_site_fract_x
_atom_site_fract_y
_atom_site_fract_z
Si Si1 0.903357 0.722862 0.943574
Si Si2 0.583572 0.932621 0.542137
Si Si3 0.767517 0.917674 0.347443
Si Si4 0.093997 0.991433 0.399396
Si Si5 0.216424 0.141252 0.987780
Si Si6 0.021117 0.196871 0.370866
O O1 0.778952 0.677193 0.915334
O O2 0.893099 0.756046 0.846663
O O3 0.750000 0.750000 0.000000
O O4 0.190712 0.709473 0.036901
O O5 0.719747 0.920481 0.461815
O O6 0.337906 0.961041 0.463739
O O7 0.457317 0.889802 0.564355
O O8 0.790673 0.965990 0.631148
O O9 0.500000 0.902628 0.250000
O O10 0.853680 0.962688 0.313229
O O11 0.003519 0.886635 0.388522
O O12 0.000000 0.000000 0.500000
O O13 0.107321 0.165539 0.069217
O O14 0.000000 0.178869 0.250000
#
# Coordination Sequence:
#
# PCOD9269377 Si02
#       6
#     8   8   8   8   8   8
#     4   9  20  39  58  85 117 154 208 250 308 366
#     4   9  17  33  55  85 113 158 203 249 303 361
#     4  10  20  34  55  93 126 162 204 250 312 371
#     4   8  16  31  54  84 107 160 203 241 301 362
#     4  10  20  35  57  89 122 162 202 260 315 361
#     4  10  21  40  63  88 116 164 209 250 311 377
#
# _framework density 22.887637999999999
#
# number of rings (size 3 to 8) (size 9 to 14) (size 15 to 20)
#    0.000    2.667    0.000    1.000    0.000    5.333 
#    0.000   20.000    0.000    0.000  359.667    0.000 
#    0.000    0.000    0.000    0.000    0.000    0.000 
#
# Total GULP energy -133624.230929 kJ/mol
# GULP energy per Si atom -5567.676289 kJ/mol
# Density = 2.283554 g / cm^3
# Si number density = 22.887638 Si / 1000 Ang^3
#
#
#
# Elastic Constant Matrix: (Units=GPa)
#
#
# Indices 1 2 3 4 5 6 
#
# 1 102.6990 68.9583 14.0739 0.0000 12.2573 0.0000
# 2 68.9583 159.8383 31.5128 0.0000 15.1310 0.0000
# 3 14.0739 31.5128 52.6757 0.0000 3.6753 0.0000
# 4 0.0000 0.0000 0.0000 13.6817 0.0000 2.4149
# 5 12.2573 15.1310 3.6753 0.0000 23.9317 0.0000
# 6 0.0000 0.0000 0.0000 2.4149 0.0000 67.4378
#
#
#
# Elastic Compliance Matrix: (Units=1/GPa)
#
#
# Indices 1 2 3 4 5 6 
#
# 1 0.013988 -0.005680 -0.000091 0.000000 -0.003559 0.000000
# 2 -0.005680 0.009773 -0.004146 0.000000 -0.002633 0.000000
# 3 -0.000091 -0.004146 0.021533 0.000000 -0.000639 0.000000
# 4 0.000000 0.000000 0.000000 0.073555 0.000000 -0.002634
# 5 -0.003559 -0.002633 -0.000639 0.000000 0.045372 0.000000
# 6 0.000000 0.000000 0.000000 -0.002634 0.000000 0.014923
#
#
# Mechanical properties :
#
#
# Convention : Reuss Voigt Hill
#
# Bulk Modulus (GPa) = 39.27476 60.47810 49.87643
# Shear Modulus (GPa) = 24.10041 34.38810 29.24425
#
# Velocity S-wave (km/s) = 3.24850 3.88038 3.57841
# Velocity P-wave (km/s) = 5.59172 6.82332 6.23799
#
# Compressibility (1/GPa) = 0.02546164
#
# Stress axis : x y z
#
# Youngs Moduli (GPa) = 71.48777 102.31790 46.44021
#
# Poissons Ratio (x) = 0.58117 0.00423
# Poissons Ratio (y) = 0.40606 0.19252
# Poissons Ratio (z) = 0.00651 0.42417
#
# Static dielectric constant tensor:
#      x y z
#    x 1.875580 0.000000 -0.008030 
#    y 0.000000 1.968910 0.000000 
#    z -0.008030 0.000000 1.934060 
# 
# From -- ./inp_files/130922.got.cif
#   From: 2010.05.17/outbox.cif.g08.bks.cpg/sg15_66_cif.got.tgz:130922.got - 2010.06.03 18:47:42.
