data_PCOD9269837
_publ_section_title
;
Structure prediction by ZEFSAII (Michael W. Deem and Ramdas Pophale) SiO2 
 PCOD9269837
Probable space group: C 2/C
;
_chemical_formula_sum "Si O2"
_cell_formula_units_Z 56
_cell_length_a 9.058140
_cell_length_b 28.043979
_cell_length_c 14.658079
_cell_angle_alpha 90.000000
_cell_angle_beta 134.236793
_cell_angle_gamma 90.000000
_cell_volume 2667.775914
_symmetry_space_group_name_H-M "C 2/C"
_symmetry_group_IT_number 15
_symmetry_cell_setting 'monoclinic'
loop_
_space_group_symop_operation_xyz
x,y,z
-x,y,1/2-z
-x,-y,-z
x,-y,1/2+z
1/2+x,1/2+y,z
1/2-x,1/2+y,1/2-z
1/2-x,1/2-y,-z
1/2+x,1/2-y,1/2+z
loop_
_atom_site_type_symbol
_atom_site_label
_atom_site_fract_x
_atom_site_fract_y
_atom_site_fract_z
Si Si1 0.038852 0.775317 0.565886
Si Si2 0.000000 0.793337 0.750000
Si Si3 0.323621 0.444260 0.751410
Si Si4 0.052083 0.681647 0.077158
Si Si5 0.500000 0.198421 0.250000
Si Si6 0.791390 0.544225 0.720861
Si Si7 0.085206 0.115181 0.495349
Si Si8 0.531438 0.905748 0.474842
O O1 0.975233 0.765289 0.644048
O O2 0.286946 0.774000 0.671790
O O3 0.971505 0.735927 0.464679
O O4 0.954855 0.828445 0.507157
O O5 0.201485 0.825627 0.823260
O O6 0.500000 0.449196 0.750000
O O7 0.303296 0.492820 0.799786
O O8 0.122839 0.430059 0.605534
O O9 0.392737 0.405112 0.855253
O O10 0.975006 0.671340 0.144730
O O11 0.942617 0.645689 0.962684
O O12 0.641465 0.582385 0.606731
O O13 0.000000 0.539425 0.750000
O O14 0.867561 0.563285 0.851189
O O15 0.281460 0.106102 0.513897
#
# Coordination Sequence:
#
# PCOD9269837 Si02
#       8
#     8   4   8   8   4   8   8   8
#     4  11  22  40  61  91 124 162 207 254 307 375
#     4  10  20  34  62  90 114 156 212 246 292 368
#     4  10  20  39  64  82 120 166 205 251 300 371
#     4  11  22  40  61  91 124 162 207 254 307 375
#     4  10  24  40  58  80 126 172 208 250 306 360
#     4  10  22  40  58  93 126 156 197 263 319 357
#     4  10  21  38  64  92 125 157 202 258 311 357
#     4  10  21  38  64  92 125 157 202 258 311 357
#
# _framework density 20.991268999999999
#
# number of rings (size 3 to 8) (size 9 to 14) (size 15 to 20)
#    0.000    1.714    1.429    3.429    2.000    2.286 
#   10.286    0.000    0.000    0.000    0.000    0.000 
#    0.000    0.000    0.000    0.000    0.000    0.000 
#
# Total GULP energy -156251.422016 kJ/mol
# GULP energy per Si atom -5580.407929 kJ/mol
# Density = 2.094349 g / cm^3
# Si number density = 20.991269 Si / 1000 Ang^3
#
#
#
# Elastic Constant Matrix: (Units=GPa)
#
#
# Indices 1 2 3 4 5 6 
#
# 1 53.1798 2.8703 7.7975 0.0000 -11.9595 0.0000
# 2 2.8703 129.1855 42.1163 0.0000 -14.7230 0.0000
# 3 7.7975 42.1163 94.3064 0.0000 -15.1373 0.0000
# 4 0.0000 0.0000 0.0000 14.3302 0.0000 -3.2990
# 5 -11.9595 -14.7230 -15.1373 0.0000 26.2046 0.0000
# 6 0.0000 0.0000 0.0000 -3.2990 0.0000 12.0092
#
#
#
# Elastic Compliance Matrix: (Units=1/GPa)
#
#
# Indices 1 2 3 4 5 6 
#
# 1 0.021031 0.000820 -0.000541 0.000000 0.009747 0.000000
# 2 0.000820 0.009316 -0.003668 0.000000 0.003489 0.000000
# 3 -0.000541 -0.003668 0.013134 0.000000 0.005279 0.000000
# 4 0.000000 0.000000 0.000000 0.074494 0.000000 0.020464
# 5 0.009747 0.003489 0.005279 0.000000 0.047620 0.000000
# 6 0.000000 0.000000 0.000000 0.020464 0.000000 0.088891
#
#
# Mechanical properties :
#
#
# Convention : Reuss Voigt Hill
#
# Bulk Modulus (GPa) = 27.24552 42.47111 34.85832
# Shear Modulus (GPa) = 18.28168 25.43465 21.85817
#
# Velocity S-wave (km/s) = 2.95433 3.48469 3.23042
# Velocity P-wave (km/s) = 4.96438 6.03883 5.52777
#
# Compressibility (1/GPa) = 0.03670328
#
# Stress axis : x y z
#
# Youngs Moduli (GPa) = 47.54869 107.34042 76.13825
#
# Poissons Ratio (x) = -0.08799 0.04116
# Poissons Ratio (y) = -0.03898 0.27929
# Poissons Ratio (z) = 0.02570 0.39374
#
# Static dielectric constant tensor:
#      x y z
#    x 1.765100 0.000000 -0.009160 
#    y 0.000000 1.746200 0.000000 
#    z -0.009160 0.000000 1.786330 
# 
# From -- ./inp_files/124535.got.cif
#   From: 2010.05.17/outbox.cif.g08.bks.cpg/sg15_63_cif.got.tgz:124535.got - 2010.06.03 18:47:42.
