data_PCOD9269008
_publ_section_title
;
Structure prediction by ZEFSAII (Michael W. Deem and Ramdas Pophale) SiO2 
 PCOD9269008
Probable space group: C 2/C
;
_chemical_formula_sum "Si O2"
_cell_formula_units_Z 56
_cell_length_a 23.274852
_cell_length_b 16.549851
_cell_length_c 10.811645
_cell_angle_alpha 90.000000
_cell_angle_beta 42.199205
_cell_angle_gamma 90.000000
_cell_volume 2797.401529
_symmetry_space_group_name_H-M "C 2/C"
_symmetry_group_IT_number 15
_symmetry_cell_setting 'monoclinic'
loop_
_space_group_symop_operation_xyz
x,y,z
-x,y,1/2-z
-x,-y,-z
x,-y,1/2+z
1/2+x,1/2+y,z
1/2-x,1/2+y,1/2-z
1/2-x,1/2-y,-z
1/2+x,1/2-y,1/2+z
loop_
_atom_site_type_symbol
_atom_site_label
_atom_site_fract_x
_atom_site_fract_y
_atom_site_fract_z
Si Si1 0.554724 0.490172 0.037635
Si Si2 0.905240 0.609735 0.361925
Si Si3 0.830950 0.128970 0.265163
Si Si4 0.673200 0.047540 0.411393
Si Si5 0.020446 0.592770 0.504454
Si Si6 0.706150 0.435871 0.422528
Si Si7 0.857086 0.312285 0.184268
O O1 0.500000 0.490219 0.250000
O O2 0.500000 0.500000 0.000000
O O3 0.605183 0.406319 0.939120
O O4 0.632374 0.554339 0.936954
O O5 0.844016 0.532803 0.479416
O O6 0.918710 0.631844 0.198801
O O7 0.883347 0.678458 0.496995
O O8 0.000000 0.581226 0.250000
O O9 0.734401 0.111821 0.376541
O O10 0.840166 0.072779 0.371845
O O11 0.849260 0.222884 0.248522
O O12 0.582499 0.085705 0.521823
O O13 0.726656 0.009061 0.210233
O O14 0.000000 0.500000 0.500000
O O15 0.930496 0.639065 0.642388
O O16 0.766390 0.357455 0.329055
#
# Coordination Sequence:
#
# PCOD9269008 Si02
#       7
#     8   8   8   8   8   8   8
#     4  11  23  44  70  92 120 172 228 262 309 380
#     4   9  17  32  57  82 119 154 202 258 308 373
#     4  11  23  39  62  91 128 162 210 266 326 377
#     4  10  20  33  59  92 116 163 208 251 313 381
#     4  11  18  35  60  88 120 160 211 253 315 387
#     4  10  20  40  64  87 126 163 208 262 313 379
#     4  10  22  38  57  92 129 166 199 267 332 374
#
# _framework density 20.018578000000002
#
# number of rings (size 3 to 8) (size 9 to 14) (size 15 to 20)
#    0.000    1.714    5.714    1.286    0.000    1.714 
#    2.571    0.714    0.000    0.000    0.000    0.000 
#    0.000    0.000    0.000    0.000    0.000    0.000 
#
# Total GULP energy -155968.154186 kJ/mol
# GULP energy per Si atom -5570.291221 kJ/mol
# Density = 1.997301 g / cm^3
# Si number density = 20.018578 Si / 1000 Ang^3
#
#
#
# Elastic Constant Matrix: (Units=GPa)
#
#
# Indices 1 2 3 4 5 6 
#
# 1 123.6217 38.4123 29.2782 0.0000 -22.4513 0.0000
# 2 38.4123 83.5630 22.7443 0.0000 -18.4077 0.0000
# 3 29.2782 22.7443 101.6754 0.0000 -6.8461 0.0000
# 4 0.0000 0.0000 0.0000 18.2576 0.0000 -4.7222
# 5 -22.4513 -18.4077 -6.8461 0.0000 33.2570 0.0000
# 6 0.0000 0.0000 0.0000 -4.7222 0.0000 18.8207
#
#
#
# Elastic Compliance Matrix: (Units=1/GPa)
#
#
# Indices 1 2 3 4 5 6 
#
# 1 0.010429 -0.003187 -0.001962 0.000000 0.004873 0.000000
# 2 -0.003187 0.015302 -0.002109 0.000000 0.005884 0.000000
# 3 -0.001962 -0.002109 0.010855 0.000000 -0.000258 0.000000
# 4 0.000000 0.000000 0.000000 0.058573 0.000000 0.014696
# 5 0.004873 0.005884 -0.000258 0.000000 0.036562 0.000000
# 6 0.000000 0.000000 0.000000 0.014696 0.000000 0.056820
#
#
# Mechanical properties :
#
#
# Convention : Reuss Voigt Hill
#
# Bulk Modulus (GPa) = 45.31048 54.41441 49.86244
# Shear Modulus (GPa) = 23.76267 28.62875 26.19571
#
# Velocity S-wave (km/s) = 3.44907 3.78578 3.62134
# Velocity P-wave (km/s) = 6.20844 6.80812 6.51518
#
# Compressibility (1/GPa) = 0.02206995
#
# Stress axis : x y z
#
# Youngs Moduli (GPa) = 95.88630 65.35044 92.12572
#
# Poissons Ratio (x) = 0.20824 0.18077
# Poissons Ratio (y) = 0.30555 0.19431
# Poissons Ratio (z) = 0.18815 0.13784
#
# Static dielectric constant tensor:
#      x y z
#    x 1.775710 0.000000 0.062770 
#    y 0.000000 1.674720 0.000000 
#    z 0.062770 0.000000 1.840360 
# 
# From -- ./inp_files/105282.got.cif
#   From: 2010.05.17/outbox.cif.g08.bks.cpg/sg15_53_cif.got.tgz:105282.got - 2010.06.03 18:47:42.
