data_PCOD9269255
_publ_section_title
;
Structure prediction by ZEFSAII (Michael W. Deem and Ramdas Pophale) SiO2 
 PCOD9269255
Probable space group: C 2/C
;
_chemical_formula_sum "Si O2"
_cell_formula_units_Z 56
_cell_length_a 5.115350
_cell_length_b 25.650097
_cell_length_c 18.011742
_cell_angle_alpha 90.000000
_cell_angle_beta 90.418448
_cell_angle_gamma 90.000000
_cell_volume 2363.243658
_symmetry_space_group_name_H-M "C 2/C"
_symmetry_group_IT_number 15
_symmetry_cell_setting 'monoclinic'
loop_
_space_group_symop_operation_xyz
x,y,z
-x,y,1/2-z
-x,-y,-z
x,-y,1/2+z
1/2+x,1/2+y,z
1/2-x,1/2+y,1/2-z
1/2-x,1/2-y,-z
1/2+x,1/2-y,1/2+z
loop_
_atom_site_type_symbol
_atom_site_label
_atom_site_fract_x
_atom_site_fract_y
_atom_site_fract_z
Si Si1 0.419965 0.650883 0.173167
Si Si2 0.811134 0.549071 0.507232
Si Si3 0.152584 0.980016 0.158400
Si Si4 0.576889 0.805754 0.838363
Si Si5 0.177051 0.545538 0.161083
Si Si6 0.113245 0.812371 0.333759
Si Si7 0.627425 0.124684 0.870117
O O1 0.500000 0.680206 0.250000
O O2 0.706033 0.651687 0.137666
O O3 0.274843 0.598191 0.199773
O O4 0.203881 0.681535 0.126867
O O5 0.604461 0.530894 0.569270
O O6 0.745970 0.561570 0.423119
O O7 0.942288 0.596732 0.551953
O O8 0.000000 0.500000 0.500000
O O9 0.382461 0.023748 0.166581
O O10 0.871772 0.999136 0.184767
O O11 0.272146 0.924169 0.180404
O O12 0.500000 0.808712 0.750000
O O13 0.665243 0.747444 0.855423
O O14 0.377839 0.845279 0.339499
O O15 0.000000 0.812169 0.250000
O O16 0.878659 0.838450 0.379561
#
# Coordination Sequence:
#
# PCOD9269255 Si02
#       7
#     8   8   8   8   8   8   8
#     4  10  20  34  54  80 105 135 178 225 269 319
#     4   8  19  34  58  76 109 144 189 220 250 311
#     4   9  20  32  52  77 106 140 178 217 250 314
#     4   9  19  36  56  75 100 138 183 224 262 319
#     4  11  18  34  55  79 106 143 185 211 266 311
#     4  11  21  37  58  80 106 141 180 222 277 325
#     4  10  21  34  56  83 109 139 183 224 261 312
#
# _framework density 23.696242000000002
#
# number of rings (size 3 to 8) (size 9 to 14) (size 15 to 20)
#    0.857    1.429    0.000    3.429    0.000    3.429 
#    0.000    4.286    0.000    5.143    0.000    0.000 
#    0.000    0.000    0.000    0.000    0.000    0.000 
#
# Total GULP energy -156037.044440 kJ/mol
# GULP energy per Si atom -5572.751587 kJ/mol
# Density = 2.364231 g / cm^3
# Si number density = 23.696242 Si / 1000 Ang^3
#
#
#
# Elastic Constant Matrix: (Units=GPa)
#
#
# Indices 1 2 3 4 5 6 
#
# 1 162.2852 57.7801 4.1125 0.0000 17.3385 0.0000
# 2 57.7801 127.6346 2.5939 0.0000 11.9017 0.0000
# 3 4.1125 2.5939 41.0195 0.0000 2.9054 0.0000
# 4 0.0000 0.0000 0.0000 14.3200 0.0000 3.3698
# 5 17.3385 11.9017 2.9054 0.0000 19.3044 0.0000
# 6 0.0000 0.0000 0.0000 3.3698 0.0000 40.3801
#
#
#
# Elastic Compliance Matrix: (Units=1/GPa)
#
#
# Indices 1 2 3 4 5 6 
#
# 1 0.007798 -0.003051 -0.000228 0.000000 -0.005088 0.000000
# 2 -0.003051 0.009508 -0.000075 0.000000 -0.003110 0.000000
# 3 -0.000228 -0.000075 0.024651 0.000000 -0.003459 0.000000
# 4 0.000000 0.000000 0.000000 0.071231 0.000000 -0.005944
# 5 -0.005088 -0.003110 -0.003459 0.000000 0.058810 0.000000
# 6 0.000000 0.000000 0.000000 -0.005944 0.000000 0.025261
#
#
# Mechanical properties :
#
#
# Convention : Reuss Voigt Hill
#
# Bulk Modulus (GPa) = 28.37067 51.10138 39.73602
# Shear Modulus (GPa) = 23.17861 32.56441 27.87151
#
# Velocity S-wave (km/s) = 3.13094 3.71110 3.43330
# Velocity P-wave (km/s) = 5.00690 6.32258 5.70281
#
# Compressibility (1/GPa) = 0.03524766
#
# Stress axis : x y z
#
# Youngs Moduli (GPa) = 128.24392 105.17969 40.56588
#
# Poissons Ratio (x) = 0.32089 0.00927
# Poissons Ratio (y) = 0.39126 0.00304
# Poissons Ratio (z) = 0.02930 0.00789
#
# Static dielectric constant tensor:
#      x y z
#    x 2.032550 0.000000 -0.061270 
#    y 0.000000 1.951950 0.000000 
#    z -0.061270 0.000000 2.071530 
# 
# From -- ./inp_files/261582.got.cif
#   From: 2010.05.17/outbox.cif.g08.bks.cpg/sg15_131_cif.got.tgz:261582.got - 2010.06.03 18:47:42.
