data_PCOD9269975
_publ_section_title
;
Structure prediction by ZEFSAII (Michael W. Deem and Ramdas Pophale) SiO2 
 PCOD9269975
Probable space group: C 2/C
;
_chemical_formula_sum "Si O2"
_cell_formula_units_Z 56
_cell_length_a 16.865780
_cell_length_b 33.074090
_cell_length_c 5.305667
_cell_angle_alpha 90.000000
_cell_angle_beta 72.055191
_cell_angle_gamma 90.000000
_cell_volume 2815.634990
_symmetry_space_group_name_H-M "C 2/C"
_symmetry_group_IT_number 15
_symmetry_cell_setting 'monoclinic'
loop_
_space_group_symop_operation_xyz
x,y,z
-x,y,1/2-z
-x,-y,-z
x,-y,1/2+z
1/2+x,1/2+y,z
1/2-x,1/2+y,1/2-z
1/2-x,1/2-y,-z
1/2+x,1/2-y,1/2+z
loop_
_atom_site_type_symbol
_atom_site_label
_atom_site_fract_x
_atom_site_fract_y
_atom_site_fract_z
Si Si1 0.051742 0.648327 0.438320
Si Si2 0.094973 0.017570 0.915049
Si Si3 0.576990 0.318300 0.510115
Si Si4 0.164651 0.104494 0.841184
Si Si5 0.741061 0.126640 0.225362
Si Si6 0.787831 0.784413 0.744304
Si Si7 0.383382 0.237759 0.221792
O O1 0.141956 0.627109 0.372263
O O2 0.071050 0.695401 0.348801
O O3 0.000000 0.631940 0.250000
O O4 0.000000 0.646754 0.750000
O O5 0.105844 0.065420 0.920574
O O6 0.135358 0.002065 0.619786
O O7 0.000000 0.000000 0.000000
O O8 0.500000 0.331579 0.750000
O O9 0.607139 0.356821 0.328078
O O10 0.653609 0.304705 0.608368
O O11 0.558216 0.275589 0.399578
O O12 0.228951 0.101094 0.545740
O O13 0.210631 0.113169 0.065076
O O14 0.760956 0.173669 0.126895
O O15 0.696065 0.766891 0.890461
O O16 0.838279 0.752430 0.523330
#
# Coordination Sequence:
#
# PCOD9269975 Si02
#       7
#     8   8   8   8   8   8   8
#     4  11  24  38  59  88 122 160 207 267 320 364
#     4  10  22  40  63  90 127 162 201 238 297 358
#     4  11  23  33  51  79 113 148 211 263 304 339
#     4  11  22  41  62  89 118 167 205 245 295 371
#     4  10  21  41  62  85 120 160 211 257 308 366
#     4   9  20  36  51  72 107 159 207 258 313 358
#     4  10  20  35  53  72 109 160 209 260 309 360
#
# _framework density 19.888940000000002
#
# number of rings (size 3 to 8) (size 9 to 14) (size 15 to 20)
#    0.000    1.714    1.429    2.571    6.000    0.000 
#    2.571    0.000    0.000    0.000    0.000    0.000 
#    0.000   40.000    0.000    0.000    0.000    0.000 
#
# Total GULP energy -155986.008516 kJ/mol
# GULP energy per Si atom -5570.928876 kJ/mol
# Density = 1.984367 g / cm^3
# Si number density = 19.888940 Si / 1000 Ang^3
#
#
#
# Elastic Constant Matrix: (Units=GPa)
#
#
# Indices 1 2 3 4 5 6 
#
# 1 69.2664 31.2300 28.5821 0.0000 -8.7887 0.0000
# 2 31.2300 76.5615 21.9781 0.0000 -9.9777 0.0000
# 3 28.5821 21.9781 109.4374 0.0000 -4.6915 0.0000
# 4 0.0000 0.0000 0.0000 37.5605 0.0000 -10.2060
# 5 -8.7887 -9.9777 -4.6915 0.0000 34.4815 0.0000
# 6 0.0000 0.0000 0.0000 -10.2060 0.0000 27.9221
#
#
#
# Elastic Compliance Matrix: (Units=1/GPa)
#
#
# Indices 1 2 3 4 5 6 
#
# 1 0.019150 -0.006449 -0.003598 0.000000 0.002525 0.000000
# 2 -0.006449 0.016506 -0.001505 0.000000 0.002928 0.000000
# 3 -0.003598 -0.001505 0.010382 0.000000 0.000060 0.000000
# 4 0.000000 0.000000 0.000000 0.029560 0.000000 0.010804
# 5 0.002525 0.002928 0.000060 0.000000 0.030500 0.000000
# 6 0.000000 0.000000 0.000000 0.010804 0.000000 0.039763
#
#
# Mechanical properties :
#
#
# Convention : Reuss Voigt Hill
#
# Bulk Modulus (GPa) = 43.60496 46.53841 45.07168
# Shear Modulus (GPa) = 28.31105 31.55781 29.93443
#
# Velocity S-wave (km/s) = 3.77697 3.98766 3.88374
# Velocity P-wave (km/s) = 6.40253 6.68221 6.54386
#
# Compressibility (1/GPa) = 0.02293317
#
# Stress axis : x y z
#
# Youngs Moduli (GPa) = 52.21947 60.58513 96.31930
#
# Poissons Ratio (x) = 0.39074 0.34655
# Poissons Ratio (y) = 0.33679 0.14495
# Poissons Ratio (z) = 0.18788 0.09117
#
# Static dielectric constant tensor:
#      x y z
#    x 1.876760 0.000000 0.191310 
#    y 0.000000 1.729790 0.000000 
#    z 0.191310 0.000000 1.934310 
# 
# From -- ./inp_files/11959.got.cif
#   From: 2010.05.17/outbox.cif.g08.bks.cpg/sg15_6_cif.got.tgz:11959.got - 2010.06.03 18:47:42.
