data_PCOD9269893
_publ_section_title
;
Structure prediction by ZEFSAII (Michael W. Deem and Ramdas Pophale) SiO2 
 PCOD9269893
Probable space group: C 2/C
;
_chemical_formula_sum "Si O2"
_cell_formula_units_Z 48
_cell_length_a 9.468223
_cell_length_b 11.757997
_cell_length_c 27.360047
_cell_angle_alpha 90.000000
_cell_angle_beta 139.143856
_cell_angle_gamma 90.000000
_cell_volume 1992.526104
_symmetry_space_group_name_H-M "C 2/C"
_symmetry_group_IT_number 15
_symmetry_cell_setting 'monoclinic'
loop_
_space_group_symop_operation_xyz
x,y,z
-x,y,1/2-z
-x,-y,-z
x,-y,1/2+z
1/2+x,1/2+y,z
1/2-x,1/2+y,1/2-z
1/2-x,1/2-y,-z
1/2+x,1/2-y,1/2+z
loop_
_atom_site_type_symbol
_atom_site_label
_atom_site_fract_x
_atom_site_fract_y
_atom_site_fract_z
Si Si1 0.433634 0.542514 0.335418
Si Si2 0.274747 0.253059 0.170039
Si Si3 0.714621 0.855981 0.623157
Si Si4 0.735581 0.032243 0.501052
Si Si5 0.307285 0.177965 0.563920
Si Si6 0.482689 0.698900 0.625889
O O1 0.269692 0.627586 0.318695
O O2 0.550053 0.588205 0.317796
O O3 0.648252 0.541265 0.426441
O O4 0.379570 0.409927 0.319402
O O5 0.500000 0.295073 0.250000
O O6 0.307946 0.262470 0.120408
O O7 0.067285 0.323163 0.132128
O O8 0.516361 0.940973 0.559039
O O9 0.726987 0.748414 0.589172
O O10 0.636668 0.802043 0.653519
O O11 0.860726 0.149050 0.545887
O O12 0.767993 0.952471 0.462324
O O13 0.250000 0.250000 0.500000
#
# Coordination Sequence:
#
# PCOD9269893 Si02
#       6
#     8   8   8   8   8   8
#     4   9  22  39  60  87 125 160 196 249 302 360
#     4  11  23  43  63  87 125 169 204 252 314 370
#     4  11  20  35  60  95 123 157 201 252 309 361
#     4  10  20  34  64  94 126 153 199 256 311 359
#     4  11  20  37  65  90 124 163 204 251 313 362
#     4  10  23  38  61  93 124 158 205 257 305 366
#
# _framework density 24.090022000000001
#
# number of rings (size 3 to 8) (size 9 to 14) (size 15 to 20)
#    1.000    0.667    3.333    3.000    0.000    2.000 
#    0.000   10.000    0.000    0.000    0.000    0.000 
#    0.000    0.000    0.000    0.000    0.000    0.000 
#
# Total GULP energy -133720.548956 kJ/mol
# GULP energy per Si atom -5571.689540 kJ/mol
# Density = 2.403519 g / cm^3
# Si number density = 24.090022 Si / 1000 Ang^3
#
#
#
# Elastic Constant Matrix: (Units=GPa)
#
#
# Indices 1 2 3 4 5 6 
#
# 1 67.3857 19.1878 6.8927 0.0000 7.3658 0.0000
# 2 19.1878 46.0467 25.6976 0.0000 -2.7012 0.0000
# 3 6.8927 25.6976 67.6527 0.0000 14.6662 0.0000
# 4 0.0000 0.0000 0.0000 1.2274 0.0000 2.0449
# 5 7.3658 -2.7012 14.6662 0.0000 22.5631 0.0000
# 6 0.0000 0.0000 0.0000 2.0449 0.0000 24.8006
#
#
#
# Elastic Compliance Matrix: (Units=1/GPa)
#
#
# Indices 1 2 3 4 5 6 
#
# 1 0.018589 -0.010825 0.004440 0.000000 -0.010250 0.000000
# 2 -0.010825 0.036834 -0.017007 0.000000 0.018998 0.000000
# 3 0.004440 -0.017007 0.025078 0.000000 -0.019787 0.000000
# 4 0.000000 0.000000 0.000000 0.944439 0.000000 -0.077874
# 5 -0.010250 0.018998 -0.019787 0.000000 0.062802 0.000000
# 6 0.000000 0.000000 0.000000 -0.077874 0.000000 0.046743
#
#
# Mechanical properties :
#
#
# Convention : Reuss Voigt Hill
#
# Bulk Modulus (GPa) = 29.65849 31.62681 30.64265
# Shear Modulus (GPa) = 4.19285 18.33871 11.26578
#
# Velocity S-wave (km/s) = 1.32071 2.76208 2.16488
# Velocity P-wave (km/s) = 3.82935 4.83003 4.35851
#
# Compressibility (1/GPa) = 0.03371716
#
# Stress axis : x y z
#
# Youngs Moduli (GPa) = 53.79631 27.14919 39.87490
#
# Poissons Ratio (x) = 0.29390 -0.17705
# Poissons Ratio (y) = 0.58236 0.67814
# Poissons Ratio (z) = -0.23887 0.46172
#
# Static dielectric constant tensor:
#      x y z
#    x 1.916560 0.000000 -0.096280 
#    y 0.000000 1.962040 0.000000 
#    z -0.096280 0.000000 1.958570 
# 
# From -- ./inp_files/289133.got.cif
#   From: 2010.05.17/outbox.cif.g08.bks.cpg/sg15_145_cif.got.tgz:289133.got - 2010.06.03 18:47:42.
