data_PCOD9269716
_publ_section_title
;
Structure prediction by ZEFSAII (Michael W. Deem and Ramdas Pophale) SiO2 
 PCOD9269716
Probable space group: C 2/C
;
_chemical_formula_sum "Si O2"
_cell_formula_units_Z 52
_cell_length_a 11.424413
_cell_length_b 16.677196
_cell_length_c 13.486852
_cell_angle_alpha 90.000000
_cell_angle_beta 57.198762
_cell_angle_gamma 90.000000
_cell_volume 2159.899793
_symmetry_space_group_name_H-M "C 2/C"
_symmetry_group_IT_number 15
_symmetry_cell_setting 'monoclinic'
loop_
_space_group_symop_operation_xyz
x,y,z
-x,y,1/2-z
-x,-y,-z
x,-y,1/2+z
1/2+x,1/2+y,z
1/2-x,1/2+y,1/2-z
1/2-x,1/2-y,-z
1/2+x,1/2-y,1/2+z
loop_
_atom_site_type_symbol
_atom_site_label
_atom_site_fract_x
_atom_site_fract_y
_atom_site_fract_z
Si Si1 0.152802 0.654753 0.678515
Si Si2 0.842432 0.089141 0.130084
Si Si3 0.549440 0.719849 0.950085
Si Si4 0.949512 0.362110 0.664429
Si Si5 0.773816 0.046924 0.796730
Si Si6 0.161227 0.499596 0.546884
Si Si7 0.000000 0.160371 0.750000
O O1 0.287578 0.710072 0.601535
O O2 0.185181 0.601391 0.761986
O O3 0.150263 0.587869 0.594774
O O4 0.000000 0.694169 0.750000
O O5 0.715436 0.133099 0.244678
O O6 0.775227 0.048587 0.062329
O O7 0.872342 0.012065 0.186045
O O8 0.959532 0.155218 0.052665
O O9 0.508840 0.812956 0.953915
O O10 0.525683 0.697091 0.845905
O O11 0.000000 0.330170 0.750000
O O12 0.021821 0.448336 0.626814
O O13 0.863868 0.106506 0.821264
O O14 0.693446 0.997825 0.916533
#
# Coordination Sequence:
#
# PCOD9269716 Si02
#       7
#     8   8   8   8   8   8   4
#     4  10  23  39  59  93 129 171 222 271 327 391
#     4  10  22  38  62  99 130 168 219 275 327 393
#     4  11  22  39  65  93 137 170 210 274 329 401
#     4  10  22  39  64  97 134 172 220 266 340 402
#     4  10  21  36  65  92 131 165 218 272 331 383
#     4  10  20  39  65  96 132 169 217 283 327 386
#     4  10  20  34  60 100 118 162 208 266 334 384
#
# _framework density 24.075191
#
# number of rings (size 3 to 8) (size 9 to 14) (size 15 to 20)
#    0.000    1.846    2.308    2.308    2.154    9.231 
#    0.000    0.000    1.692    4.615    0.000    0.000 
#    0.000    0.000    0.000    0.000    0.000    0.000 
#
# Total GULP energy -145143.547408 kJ/mol
# GULP energy per Si atom -5582.444131 kJ/mol
# Density = 2.402040 g / cm^3
# Si number density = 24.075191 Si / 1000 Ang^3
#
#
#
# Elastic Constant Matrix: (Units=GPa)
#
#
# Indices 1 2 3 4 5 6 
#
# 1 88.2076 7.6263 8.1409 0.0000 -2.3236 0.0000
# 2 7.6263 30.1526 -3.1795 0.0000 2.7044 0.0000
# 3 8.1409 -3.1795 86.9076 0.0000 9.6956 0.0000
# 4 0.0000 0.0000 0.0000 97.5627 0.0000 -0.7400
# 5 -2.3236 2.7044 9.6956 0.0000 16.0049 0.0000
# 6 0.0000 0.0000 0.0000 -0.7400 0.0000 -2.1066
#
#
#
# Elastic Compliance Matrix: (Units=1/GPa)
#
#
# Indices 1 2 3 4 5 6 
#
# 1 0.011871 -0.003466 -0.001605 0.000000 0.003281 0.000000
# 2 -0.003466 0.035015 0.002490 0.000000 -0.007928 0.000000
# 3 -0.001605 0.002490 0.012678 0.000000 -0.008334 0.000000
# 4 0.000000 0.000000 0.000000 0.010223 0.000000 -0.003591
# 5 0.003281 -0.007928 -0.008334 0.000000 0.069345 0.000000
# 6 0.000000 0.000000 0.000000 -0.003591 0.000000 -0.473432
#
#
# Mechanical properties :
#
#
# Convention : Reuss Voigt Hill
#
# Bulk Modulus (GPa) = 18.38159 25.60479 21.99319
# Shear Modulus (GPa) = -16.07693 35.13753 9.53030
#
# Velocity S-wave (km/s) = -2.58695 3.82447 1.99177
# Velocity P-wave (km/s) = 1.12757 5.49186 3.80060
#
# Compressibility (1/GPa) = 0.05440227
#
# Stress axis : x y z
#
# Youngs Moduli (GPa) = 84.23814 28.55926 78.87910
#
# Poissons Ratio (x) = 0.09899 0.12659
# Poissons Ratio (y) = 0.29197 -0.19642
# Poissons Ratio (z) = 0.13519 -0.07112
#
# Static dielectric constant tensor:
#      x y z
#    x 1.952450 0.000000 -0.009370 
#    y 0.000000 2.075060 0.000000 
#    z -0.009370 0.000000 1.915510 
# 
# From -- ./inp_files/89486.got.cif
#   From: 2010.05.17/outbox.cif.g08.bks.cpg/sg15_45_cif.got.tgz:89486.got - 2010.06.03 18:47:42.
