data_PCOD9269326
_publ_section_title
;
Structure prediction by ZEFSAII (Michael W. Deem and Ramdas Pophale) SiO2 
 PCOD9269326
Probable space group: C 2/C
;
_chemical_formula_sum "Si O2"
_cell_formula_units_Z 48
_cell_length_a 25.413472
_cell_length_b 10.987950
_cell_length_c 7.604917
_cell_angle_alpha 90.000000
_cell_angle_beta 66.943934
_cell_angle_gamma 90.000000
_cell_volume 1953.982198
_symmetry_space_group_name_H-M "C 2/C"
_symmetry_group_IT_number 15
_symmetry_cell_setting 'monoclinic'
loop_
_space_group_symop_operation_xyz
x,y,z
-x,y,1/2-z
-x,-y,-z
x,-y,1/2+z
1/2+x,1/2+y,z
1/2-x,1/2+y,1/2-z
1/2-x,1/2-y,-z
1/2+x,1/2-y,1/2+z
loop_
_atom_site_type_symbol
_atom_site_label
_atom_site_fract_x
_atom_site_fract_y
_atom_site_fract_z
Si Si1 0.333923 0.170623 0.830814
Si Si2 0.821802 0.064222 0.882683
Si Si3 0.390236 0.369870 0.971234
Si Si4 0.041927 0.671319 0.458447
Si Si5 0.247600 0.149349 0.213654
Si Si6 0.075645 0.421737 0.545022
O O1 0.276912 0.218909 0.808456
O O2 0.369170 0.092750 0.648252
O O3 0.373740 0.283946 0.831022
O O4 0.309931 0.126975 0.050624
O O5 0.846114 0.142817 0.691849
O O6 0.789890 0.950036 0.840967
O O7 0.773660 0.128101 0.062198
O O8 0.876133 0.007116 0.921739
O O9 0.446450 0.305316 0.978906
O O10 0.059201 0.564572 0.572880
O O11 0.977456 0.644838 0.482327
O O12 0.078216 0.639509 0.233587
#
# Coordination Sequence:
#
# PCOD9269326 Si02
#       6
#     8   8   8   8   8   8
#     4  10  20  34  55  81 111 146 185 231 278 331
#     4   9  19  36  56  79 113 149 187 234 276 327
#     4  10  20  36  60  83 112 151 188 232 283 329
#     4  10  21  37  59  85 112 147 184 226 284 336
#     4   9  19  34  52  78 109 146 187 225 276 331
#     4  10  21  37  58  85 115 144 181 229 279 336
#
# _framework density 24.56522
#
# number of rings (size 3 to 8) (size 9 to 14) (size 15 to 20)
#    0.000    2.333    0.000    2.000    0.000    5.333 
#    0.000    3.333    0.000   34.000    0.000    0.000 
#    0.000    0.000    0.000    0.000    0.000    0.000 
#
# Total GULP energy -133896.459440 kJ/mol
# GULP energy per Si atom -5579.019143 kJ/mol
# Density = 2.450931 g / cm^3
# Si number density = 24.565220 Si / 1000 Ang^3
#
#
#
# Elastic Constant Matrix: (Units=GPa)
#
#
# Indices 1 2 3 4 5 6 
#
# 1 54.2984 26.0082 11.9187 0.0000 -0.6805 0.0000
# 2 26.0082 58.1140 32.3425 0.0000 -0.2279 0.0000
# 3 11.9187 32.3425 125.6664 0.0000 -6.5246 0.0000
# 4 0.0000 0.0000 0.0000 33.7756 0.0000 4.3840
# 5 -0.6805 -0.2279 -6.5246 0.0000 35.6745 0.0000
# 6 0.0000 0.0000 0.0000 4.3840 0.0000 38.0407
#
#
#
# Elastic Compliance Matrix: (Units=1/GPa)
#
#
# Indices 1 2 3 4 5 6 
#
# 1 0.023484 -0.010834 0.000586 0.000000 0.000486 0.000000
# 2 -0.010834 0.025107 -0.005489 0.000000 -0.001050 0.000000
# 3 0.000586 -0.005489 0.009403 0.000000 0.001696 0.000000
# 4 0.000000 0.000000 0.000000 0.030057 0.000000 -0.003464
# 5 0.000486 -0.001050 0.001696 0.000000 0.028344 0.000000
# 6 0.000000 0.000000 0.000000 -0.003464 0.000000 0.026687
#
#
# Mechanical properties :
#
#
# Convention : Reuss Voigt Hill
#
# Bulk Modulus (GPa) = 37.70745 42.06861 39.88803
# Shear Modulus (GPa) = 27.26380 32.68547 29.97464
#
# Velocity S-wave (km/s) = 3.33506 3.65164 3.49693
# Velocity P-wave (km/s) = 5.49667 5.91115 5.70768
#
# Compressibility (1/GPa) = 0.02651996
#
# Stress axis : x y z
#
# Youngs Moduli (GPa) = 42.58300 39.82992 106.35351
#
# Poissons Ratio (x) = 0.43152 -0.06236
# Poissons Ratio (y) = 0.46135 0.58373
# Poissons Ratio (z) = -0.02497 0.21861
#
# Static dielectric constant tensor:
#      x y z
#    x 2.009860 0.000000 0.015570 
#    y 0.000000 1.981460 0.000000 
#    z 0.015570 0.000000 1.986690 
# 
# From -- ./inp_files/60621.got.cif
#   From: 2010.05.17/outbox.cif.g08.bks.cpg/sg15_31_cif.got.tgz:60621.got - 2010.06.03 18:47:42.
