data_PCOD9269702
_publ_section_title
;
Structure prediction by ZEFSAII (Michael W. Deem and Ramdas Pophale) SiO2 
 PCOD9269702
Probable space group: C 2/C
;
_chemical_formula_sum "Si O2"
_cell_formula_units_Z 56
_cell_length_a 10.296509
_cell_length_b 18.058387
_cell_length_c 12.831099
_cell_angle_alpha 90.000000
_cell_angle_beta 70.647449
_cell_angle_gamma 90.000000
_cell_volume 2250.989804
_symmetry_space_group_name_H-M "C 2/C"
_symmetry_group_IT_number 15
_symmetry_cell_setting 'monoclinic'
loop_
_space_group_symop_operation_xyz
x,y,z
-x,y,1/2-z
-x,-y,-z
x,-y,1/2+z
1/2+x,1/2+y,z
1/2-x,1/2+y,1/2-z
1/2-x,1/2-y,-z
1/2+x,1/2-y,1/2+z
loop_
_atom_site_type_symbol
_atom_site_label
_atom_site_fract_x
_atom_site_fract_y
_atom_site_fract_z
Si Si1 0.173815 0.340140 0.910866
Si Si2 0.633929 0.857091 0.515062
Si Si3 0.415287 0.614930 0.582098
Si Si4 0.380393 0.286381 0.579153
Si Si5 0.154584 0.311680 0.162260
Si Si6 0.128181 0.919683 0.779377
Si Si7 0.173639 0.978015 0.000572
O O1 0.249499 0.408273 0.833949
O O2 0.020314 0.347003 0.905169
O O3 0.149421 0.337918 0.042175
O O4 0.368756 0.436574 0.996604
O O5 0.642113 0.800982 0.414164
O O6 0.742021 0.820127 0.566360
O O7 0.688248 0.941118 0.491379
O O8 0.488662 0.691260 0.526945
O O9 0.274946 0.634818 0.678014
O O10 0.329017 0.460283 0.624954
O O11 0.548925 0.569465 0.584816
O O12 0.410670 0.337078 0.669642
O O13 0.230451 0.231656 0.137731
O O14 0.000000 0.313533 0.250000
O O15 0.000000 0.950808 0.750000
#
# Coordination Sequence:
#
# PCOD9269702 Si02
#       7
#     8   8   8   8   8   8   8
#     4  11  22  36  61  88 120 154 204 262 310 373
#     4   9  18  34  55  91 120 155 200 252 306 371
#     4   9  17  39  62  88 118 171 202 254 314 379
#     4   9  18  34  63  87 124 157 202 256 316 369
#     4  11  24  38  61  89 122 162 205 258 325 378
#     4  10  20  34  59  90 115 155 205 253 301 373
#     4   9  20  36  68  87 124 167 212 250 316 385
#
# _framework density 24.877946000000001
#
# number of rings (size 3 to 8) (size 9 to 14) (size 15 to 20)
#    0.000    2.571    1.429    2.143    4.000    2.286 
#    2.571    0.714   12.571    0.000    0.000    0.000 
#    0.000    0.000    0.000    0.000    0.000    0.000 
#
# Total GULP energy -155894.706166 kJ/mol
# GULP energy per Si atom -5567.668077 kJ/mol
# Density = 2.482132 g / cm^3
# Si number density = 24.877946 Si / 1000 Ang^3
#
#
#
# Elastic Constant Matrix: (Units=GPa)
#
#
# Indices 1 2 3 4 5 6 
#
# 1 169.4378 50.7786 53.2458 0.0000 -44.4480 0.0000
# 2 50.7786 60.5558 32.2856 0.0000 -4.9742 0.0000
# 3 53.2458 32.2856 96.0958 0.0000 -31.9076 0.0000
# 4 0.0000 0.0000 0.0000 38.6038 0.0000 1.7190
# 5 -44.4480 -4.9742 -31.9076 0.0000 51.6222 0.0000
# 6 0.0000 0.0000 0.0000 1.7190 0.0000 44.4834
#
#
#
# Elastic Compliance Matrix: (Units=1/GPa)
#
#
# Indices 1 2 3 4 5 6 
#
# 1 0.010524 -0.007884 -0.000536 0.000000 0.007971 0.000000
# 2 -0.007884 0.026355 -0.007420 0.000000 -0.008835 0.000000
# 3 -0.000536 -0.007420 0.016112 0.000000 0.008783 0.000000
# 4 0.000000 0.000000 0.000000 0.025949 0.000000 -0.001003
# 5 0.007971 -0.008835 0.008783 0.000000 0.030811 0.000000
# 6 0.000000 0.000000 0.000000 -0.001003 0.000000 0.022519
#
#
# Mechanical properties :
#
#
# Convention : Reuss Voigt Hill
#
# Bulk Modulus (GPa) = 46.92253 66.52326 56.72290
# Shear Modulus (GPa) = 29.23054 39.59384 34.41219
#
# Velocity S-wave (km/s) = 3.43148 3.99372 3.72323
# Velocity P-wave (km/s) = 5.88236 6.93284 6.42909
#
# Compressibility (1/GPa) = 0.02131172
#
# Stress axis : x y z
#
# Youngs Moduli (GPa) = 95.02102 37.94327 62.06525
#
# Poissons Ratio (x) = 0.29916 0.03325
# Poissons Ratio (y) = 0.74919 0.46050
# Poissons Ratio (z) = 0.05091 0.28152
#
# Static dielectric constant tensor:
#      x y z
#    x 2.014200 0.000000 0.021950 
#    y 0.000000 2.110980 0.000000 
#    z 0.021950 0.000000 2.035540 
# 
# From -- ./inp_files/146684.got.cif
#   From: 2010.05.17/outbox.cif.g08.bks.cpg/sg15_74_cif.got.tgz:146684.got - 2010.06.03 18:47:42.
