data_PCOD9269072
_publ_section_title
;
Structure prediction by ZEFSAII (Michael W. Deem and Ramdas Pophale) SiO2 
 PCOD9269072
Probable space group: C 2/C
;
_chemical_formula_sum "Si O2"
_cell_formula_units_Z 56
_cell_length_a 25.050679
_cell_length_b 16.184671
_cell_length_c 8.242388
_cell_angle_alpha 90.000000
_cell_angle_beta 47.901371
_cell_angle_gamma 90.000000
_cell_volume 2479.565508
_symmetry_space_group_name_H-M "C 2/C"
_symmetry_group_IT_number 15
_symmetry_cell_setting 'monoclinic'
loop_
_space_group_symop_operation_xyz
x,y,z
-x,y,1/2-z
-x,-y,-z
x,-y,1/2+z
1/2+x,1/2+y,z
1/2-x,1/2+y,1/2-z
1/2-x,1/2-y,-z
1/2+x,1/2-y,1/2+z
loop_
_atom_site_type_symbol
_atom_site_label
_atom_site_fract_x
_atom_site_fract_y
_atom_site_fract_z
Si Si1 0.712909 0.849060 0.720642
Si Si2 0.145664 0.739653 0.051094
Si Si3 0.042116 0.073540 0.507374
Si Si4 0.750310 0.017097 0.556821
Si Si5 0.318935 0.810252 0.373147
Si Si6 0.147179 0.060265 0.893699
Si Si7 0.031725 0.200609 0.026762
O O1 0.795073 0.814479 0.573341
O O2 0.683452 0.821948 0.604580
O O3 0.711619 0.948009 0.745112
O O4 0.666032 0.806927 0.962497
O O5 0.071036 0.756686 0.296264
O O6 0.136835 0.712315 0.881251
O O7 0.000000 0.102610 0.750000
O O8 0.037592 0.149316 0.396025
O O9 0.108588 0.027718 0.451177
O O10 0.000000 0.000000 0.500000
O O11 0.701676 0.093625 0.609373
O O12 0.819417 0.061982 0.497434
O O13 0.784193 0.953464 0.358812
O O14 0.250000 0.750000 0.500000
O O15 0.092805 0.132227 0.954819
O O16 0.000000 0.245580 0.250000
#
# Coordination Sequence:
#
# PCOD9269072 Si02
#       7
#     8   8   8   8   8   8   8
#     4  10  21  39  59  85 119 158 206 255 316 363
#     4  10  22  40  58  82 123 158 205 264 304 359
#     4  10  20  34  47  75 114 158 211 247 276 343
#     4  12  20  34  58  89 119 162 205 240 315 377
#     4  10  23  37  55  89 124 158 207 253 311 373
#     4  11  20  31  55  82 122 160 201 248 283 369
#     4  11  22  39  55  82 118 168 208 245 303 360
#
# _framework density 22.584602
#
# number of rings (size 3 to 8) (size 9 to 14) (size 15 to 20)
#    0.000    1.429    2.857    5.143    4.000    0.000 
#    2.571    0.000    0.000    0.000    0.000    1.000 
#    0.000    0.000    0.000    0.000    0.000    0.000 
#
# Total GULP energy -155929.175611 kJ/mol
# GULP energy per Si atom -5568.899129 kJ/mol
# Density = 2.253320 g / cm^3
# Si number density = 22.584602 Si / 1000 Ang^3
#
#
#
# Elastic Constant Matrix: (Units=GPa)
#
#
# Indices 1 2 3 4 5 6 
#
# 1 31.4983 11.0041 6.3283 0.0000 7.1330 0.0000
# 2 11.0041 81.1951 24.3567 0.0000 0.6552 0.0000
# 3 6.3283 24.3567 150.0437 0.0000 29.3420 0.0000
# 4 0.0000 0.0000 0.0000 27.5334 0.0000 2.7760
# 5 7.1330 0.6552 29.3420 0.0000 33.8714 0.0000
# 6 0.0000 0.0000 0.0000 2.7760 0.0000 28.1884
#
#
#
# Elastic Compliance Matrix: (Units=1/GPa)
#
#
# Indices 1 2 3 4 5 6 
#
# 1 0.035133 -0.004968 0.000906 0.000000 -0.008088 0.000000
# 2 -0.004968 0.013750 -0.002619 0.000000 0.003049 0.000000
# 3 0.000906 -0.002619 0.008523 0.000000 -0.007523 0.000000
# 4 0.000000 0.000000 0.000000 0.036684 0.000000 -0.003613
# 5 -0.008088 0.003049 -0.007523 0.000000 0.037685 0.000000
# 6 0.000000 0.000000 0.000000 -0.003613 0.000000 0.035831
#
#
# Mechanical properties :
#
#
# Convention : Reuss Voigt Hill
#
# Bulk Modulus (GPa) = 22.70411 38.45726 30.58069
# Shear Modulus (GPa) = 25.55601 32.65517 29.10559
#
# Velocity S-wave (km/s) = 3.36753 3.80663 3.59379
# Velocity P-wave (km/s) = 5.01947 6.03205 5.54891
#
# Compressibility (1/GPa) = 0.04404488
#
# Stress axis : x y z
#
# Youngs Moduli (GPa) = 28.46342 72.72580 117.33168
#
# Poissons Ratio (x) = 0.36130 -0.10634
# Poissons Ratio (y) = 0.14141 0.30727
# Poissons Ratio (z) = -0.02580 0.19045
#
# Static dielectric constant tensor:
#      x y z
#    x 1.904100 0.000000 0.125760 
#    y 0.000000 1.749600 0.000000 
#    z 0.125760 0.000000 1.881180 
# 
# From -- ./inp_files/67119.got.cif
#   From: 2010.05.17/outbox.cif.g08.bks.cpg/sg15_34_cif.got.tgz:67119.got - 2010.06.03 18:47:42.
