data_PCOD9269652
_publ_section_title
;
Structure prediction by ZEFSAII (Michael W. Deem and Ramdas Pophale) SiO2 
 PCOD9269652
Probable space group: C 2/C
;
_chemical_formula_sum "Si O2"
_cell_formula_units_Z 64
_cell_length_a 18.056502
_cell_length_b 25.633494
_cell_length_c 14.183516
_cell_angle_alpha 90.000000
_cell_angle_beta 150.447706
_cell_angle_gamma 90.000000
_cell_volume 3237.904319
_symmetry_space_group_name_H-M "C 2/C"
_symmetry_group_IT_number 15
_symmetry_cell_setting 'monoclinic'
loop_
_space_group_symop_operation_xyz
x,y,z
-x,y,1/2-z
-x,-y,-z
x,-y,1/2+z
1/2+x,1/2+y,z
1/2-x,1/2+y,1/2-z
1/2-x,1/2-y,-z
1/2+x,1/2-y,1/2+z
loop_
_atom_site_type_symbol
_atom_site_label
_atom_site_fract_x
_atom_site_fract_y
_atom_site_fract_z
Si Si1 0.127467 0.102356 0.831595
Si Si2 0.651632 0.082591 0.860268
Si Si3 0.417025 0.545870 0.460140
Si Si4 0.302650 0.369664 0.701557
Si Si5 0.103367 0.764460 0.778851
Si Si6 0.648343 0.036438 0.289182
Si Si7 0.579439 0.126013 0.437393
Si Si8 0.978147 0.340705 0.421678
O O1 0.000000 0.133856 0.750000
O O2 0.023370 0.060204 0.664981
O O3 0.246326 0.073596 0.030746
O O4 0.241985 0.127870 0.884065
O O5 0.500000 0.094732 0.750000
O O6 0.641369 0.118658 0.756426
O O7 0.645383 0.021652 0.827611
O O8 0.777827 0.100859 0.073900
O O9 0.500000 0.500000 0.500000
O O10 0.406585 0.595794 0.382099
O O11 0.245467 0.533056 0.300794
O O12 0.366159 0.312593 0.754645
O O13 0.142646 0.362103 0.576517
O O14 0.044960 0.714260 0.656965
O O15 0.000000 0.781805 0.750000
O O16 0.250000 0.750000 0.000000
O O17 0.489929 0.067739 0.114441
O O18 0.500000 0.141569 0.250000
O O19 0.538752 0.159598 0.484383
#
# Coordination Sequence:
#
# PCOD9269652 Si02
#       8
#     8   8   8   8   8   8   8   8
#     4   9  20  37  55  82 123 162 214 261 322 379
#     4  10  20  34  58  92 130 165 213 265 320 388
#     4  11  23  36  56  90 133 171 210 271 326 388
#     4  11  23  42  63  94 137 172 213 272 335 391
#     4  12  23  43  70  97 130 170 219 274 335 390
#     4  10  20  37  59  87 126 177 218 265 314 397
#     4  10  21  39  66  89 121 173 220 262 326 387
#     4  11  22  40  66  96 127 168 223 275 326 392
#
# _framework density 19.76587
#
# number of rings (size 3 to 8) (size 9 to 14) (size 15 to 20)
#    0.000    1.500    3.750    2.250    1.750    3.500 
#    0.000    0.000    0.000    3.000    0.000    0.000 
#    0.000    0.000    0.000    0.000    0.000    0.000 
#
# Total GULP energy -178368.717578 kJ/mol
# GULP energy per Si atom -5574.022424 kJ/mol
# Density = 1.972088 g / cm^3
# Si number density = 19.765870 Si / 1000 Ang^3
#
#
#
# Elastic Constant Matrix: (Units=GPa)
#
#
# Indices 1 2 3 4 5 6 
#
# 1 116.5275 17.3778 26.0953 0.0000 4.5521 0.0000
# 2 17.3778 61.2800 8.0476 0.0000 -3.4002 0.0000
# 3 26.0953 8.0476 44.0464 0.0000 12.8664 0.0000
# 4 0.0000 0.0000 0.0000 20.9814 0.0000 -4.7743
# 5 4.5521 -3.4002 12.8664 0.0000 28.8026 0.0000
# 6 0.0000 0.0000 0.0000 -4.7743 0.0000 29.3056
#
#
#
# Elastic Compliance Matrix: (Units=1/GPa)
#
#
# Indices 1 2 3 4 5 6 
#
# 1 0.010176 -0.002071 -0.005876 0.000000 0.000772 0.000000
# 2 -0.002071 0.017519 -0.003075 0.000000 0.003769 0.000000
# 3 -0.005876 -0.003075 0.030570 0.000000 -0.013090 0.000000
# 4 0.000000 0.000000 0.000000 0.049496 0.000000 0.008064
# 5 0.000772 0.003769 -0.013090 0.000000 0.040890 0.000000
# 6 0.000000 0.000000 0.000000 0.008064 0.000000 0.035437
#
#
# Mechanical properties :
#
#
# Convention : Reuss Voigt Hill
#
# Bulk Modulus (GPa) = 27.60802 36.09948 31.85375
# Shear Modulus (GPa) = 22.91417 27.17346 25.04382
#
# Velocity S-wave (km/s) = 3.40851 3.71181 3.56339
# Velocity P-wave (km/s) = 5.43033 6.05584 5.75159
#
# Compressibility (1/GPa) = 0.03622136
#
# Stress axis : x y z
#
# Youngs Moduli (GPa) = 98.26766 57.08152 32.71160
#
# Poissons Ratio (x) = 0.11823 0.19221
# Poissons Ratio (y) = 0.20354 0.10058
# Poissons Ratio (z) = 0.57742 0.17551
#
# Static dielectric constant tensor:
#      x y z
#    x 1.779640 0.000000 -0.002520 
#    y 0.000000 1.656990 0.000000 
#    z -0.002520 0.000000 1.699700 
# 
# From -- ./inp_files/164247.got.cif
#   From: 2010.05.17/outbox.cif.g08.bks.cpg/sg15_83_cif.got.tgz:164247.got - 2010.06.03 18:47:42.
