data_PCOD9269499
_publ_section_title
;
Structure prediction by ZEFSAII (Michael W. Deem and Ramdas Pophale) SiO2 
 PCOD9269499
Probable space group: C 2/C
;
_chemical_formula_sum "Si O2"
_cell_formula_units_Z 56
_cell_length_a 19.947606
_cell_length_b 6.945656
_cell_length_c 22.702978
_cell_angle_alpha 90.000000
_cell_angle_beta 43.413679
_cell_angle_gamma 90.000000
_cell_volume 2161.765353
_symmetry_space_group_name_H-M "C 2/C"
_symmetry_group_IT_number 15
_symmetry_cell_setting 'monoclinic'
loop_
_space_group_symop_operation_xyz
x,y,z
-x,y,1/2-z
-x,-y,-z
x,-y,1/2+z
1/2+x,1/2+y,z
1/2-x,1/2+y,1/2-z
1/2-x,1/2-y,-z
1/2+x,1/2-y,1/2+z
loop_
_atom_site_type_symbol
_atom_site_label
_atom_site_fract_x
_atom_site_fract_y
_atom_site_fract_z
Si Si1 0.138227 0.391942 0.783032
Si Si2 0.781130 0.765580 0.394591
Si Si3 0.804519 0.213412 0.403700
Si Si4 0.512431 0.616008 0.146540
Si Si5 0.539999 0.836734 0.659906
Si Si6 0.645195 0.480440 0.457014
Si Si7 0.347371 0.491224 0.679674
O O1 0.179945 0.301077 0.694850
O O2 0.229436 0.495992 0.755021
O O3 0.028693 0.463683 0.838815
O O4 0.118915 0.209169 0.835592
O O5 0.844954 0.654553 0.403141
O O6 0.673689 0.681982 0.469219
O O7 0.790160 0.992432 0.393918
O O8 0.750000 0.250000 0.500000
O O9 0.919721 0.225834 0.348518
O O10 0.744849 0.349523 0.396456
O O11 0.519055 0.391662 0.163364
O O12 0.399026 0.633261 0.198315
O O13 0.568369 0.622807 0.047904
O O14 0.500000 0.880639 0.750000
O O15 0.620031 0.548344 0.407769
#
# Coordination Sequence:
#
# PCOD9269499 Si02
#       7
#     8   8   8   8   8   8   8
#     4   9  19  33  53  74 104 142 181 224 272 325
#     4   9  18  34  56  77 109 140 177 225 281 322
#     4   9  19  33  54  81 108 137 180 225 270 332
#     4   9  18  34  54  78 109 143 178 221 279 329
#     4   8  15  31  52  73 100 138 175 216 268 323
#     4  10  20  34  57  82 109 145 181 226 278 334
#     4  10  20  35  55  78 108 147 185 226 278 331
#
# _framework density 25.904754000000001
#
# number of rings (size 3 to 8) (size 9 to 14) (size 15 to 20)
#    0.000    2.857    0.000    0.429    2.000    5.143 
#    2.571    0.000    3.143    7.714    0.000    0.000 
#    0.000    0.000    0.000    0.000    0.000    0.000 
#
# Total GULP energy -156109.163186 kJ/mol
# GULP energy per Si atom -5575.327257 kJ/mol
# Density = 2.584579 g / cm^3
# Si number density = 25.904754 Si / 1000 Ang^3
#
#
#
# Elastic Constant Matrix: (Units=GPa)
#
#
# Indices 1 2 3 4 5 6 
#
# 1 149.8022 35.8652 3.1421 0.0000 -37.4855 -0.0003
# 2 35.8652 65.0777 8.7886 0.0006 -7.5762 0.0007
# 3 3.1421 8.7886 52.5787 0.0003 -2.6734 -0.0006
# 4 0.0000 0.0006 0.0003 33.2432 -0.0001 -7.5938
# 5 -37.4855 -7.5762 -2.6734 -0.0001 33.6976 -0.0004
# 6 -0.0003 0.0007 -0.0006 -7.5938 -0.0004 41.5076
#
#
#
# Elastic Compliance Matrix: (Units=1/GPa)
#
#
# Indices 1 2 3 4 5 6 
#
# 1 0.010416 -0.004598 0.000686 0.000000 0.010608 0.000000
# 2 -0.004598 0.018134 -0.002821 0.000000 -0.001262 0.000000
# 3 0.000686 -0.002821 0.019535 0.000000 0.001678 0.000000
# 4 0.000000 0.000000 0.000000 0.031393 0.000000 0.005743
# 5 0.010608 -0.001262 0.001678 0.000000 0.041326 0.000001
# 6 0.000000 0.000000 0.000000 0.005743 0.000001 0.025143
#
#
# Mechanical properties :
#
#
# Convention : Reuss Voigt Hill
#
# Bulk Modulus (GPa) = 28.88573 40.33892 34.61233
# Shear Modulus (GPa) = 29.24766 36.33385 32.79075
#
# Velocity S-wave (km/s) = 3.36377 3.74918 3.56170
# Velocity P-wave (km/s) = 5.12461 5.86069 5.50496
#
# Compressibility (1/GPa) = 0.03461917
#
# Stress axis : x y z
#
# Youngs Moduli (GPa) = 96.00202 55.14376 51.19031
#
# Poissons Ratio (x) = 0.25357 -0.03509
# Poissons Ratio (y) = 0.44144 0.14439
# Poissons Ratio (z) = -0.06581 0.15554
#
# Static dielectric constant tensor:
#      x y z
#    x 2.154500 0.000000 -0.082900 
#    y 0.000000 2.060960 0.000000 
#    z -0.082900 0.000000 2.117510 
# 
# From -- ./inp_files/213414.got.cif
#   From: 2010.05.17/outbox.cif.g08.bks.cpg/sg15_107_cif.got.tgz:213414.got - 2010.06.03 18:47:42.
