data_PCOD9269317
_publ_section_title
;
Structure prediction by ZEFSAII (Michael W. Deem and Ramdas Pophale) SiO2 
 PCOD9269317
Probable space group: C 2/C
;
_chemical_formula_sum "Si O2"
_cell_formula_units_Z 36
_cell_length_a 20.775201
_cell_length_b 21.235343
_cell_length_c 8.299210
_cell_angle_alpha 90.000000
_cell_angle_beta 149.094852
_cell_angle_gamma 90.000000
_cell_volume 1880.536629
_symmetry_space_group_name_H-M "C 2/C"
_symmetry_group_IT_number 15
_symmetry_cell_setting 'monoclinic'
loop_
_space_group_symop_operation_xyz
x,y,z
-x,y,1/2-z
-x,-y,-z
x,-y,1/2+z
1/2+x,1/2+y,z
1/2-x,1/2+y,1/2-z
1/2-x,1/2-y,-z
1/2+x,1/2-y,1/2+z
loop_
_atom_site_type_symbol
_atom_site_label
_atom_site_fract_x
_atom_site_fract_y
_atom_site_fract_z
Si Si1 0.000000 0.758636 0.750000
Si Si2 0.636065 0.068128 0.837694
Si Si3 0.848726 0.430977 0.742327
Si Si4 0.827355 0.813302 0.126764
Si Si5 0.264923 0.194088 0.407932
O O1 0.950010 0.802427 0.497524
O O2 0.892498 0.712638 0.586651
O O3 0.489929 0.077438 0.476613
O O4 0.686606 0.001432 0.886318
O O5 0.641383 0.068330 0.043052
O O6 0.714830 0.128746 0.956297
O O7 0.753409 0.374735 0.496243
O O8 0.750000 0.750000 0.000000
O O9 0.837264 0.813559 0.953646
O O10 0.250000 0.250000 0.500000
#
# Coordination Sequence:
#
# PCOD9269317 Si02
#       5
#     4   8   8   8   8
#     4  10  20  36  54  76 110 142 176 222 270 316
#     4   9  17  31  50  77 106 130 169 216 265 316
#     4   9  17  30  51  76 104 136 166 214 270 315
#     4   9  18  33  52  74 105 141 174 214 265 316
#     4  10  20  34  55  79 105 138 178 220 263 316
#
# _framework density 19.143471999999999
#
# number of rings (size 3 to 8) (size 9 to 14) (size 15 to 20)
#    0.000    2.667    0.000    4.000    0.000    4.444 
#    0.000    4.444    0.000   12.000    0.000    0.000 
#    0.000    0.000    0.000    0.000    0.000    0.000 
#
# Total GULP energy -100293.003878 kJ/mol
# GULP energy per Si atom -5571.833549 kJ/mol
# Density = 1.909990 g / cm^3
# Si number density = 19.143472 Si / 1000 Ang^3
#
#
#
# Elastic Constant Matrix: (Units=GPa)
#
#
# Indices 1 2 3 4 5 6 
#
# 1 27.1180 21.4038 5.9448 0.0000 -2.3539 0.0000
# 2 21.4038 180.4664 45.1380 0.0000 -16.4055 0.0000
# 3 5.9448 45.1380 87.9370 0.0000 -23.7368 0.0000
# 4 0.0000 0.0000 0.0000 36.0175 0.0000 2.5724
# 5 -2.3539 -16.4055 -23.7368 0.0000 13.6305 0.0000
# 6 0.0000 0.0000 0.0000 2.5724 0.0000 35.8468
#
#
#
# Elastic Compliance Matrix: (Units=1/GPa)
#
#
# Indices 1 2 3 4 5 6 
#
# 1 0.040707 -0.004710 0.000062 0.000000 0.001470 0.000000
# 2 -0.004710 0.007004 -0.002304 0.000000 0.003605 0.000000
# 3 0.000062 -0.002304 0.022275 0.000000 0.036029 0.000000
# 4 0.000000 0.000000 0.000000 0.027907 0.000000 -0.002003
# 5 0.001470 0.003605 0.036029 0.000000 0.140700 0.000000
# 6 0.000000 0.000000 0.000000 -0.002003 0.000000 0.028040
#
#
# Mechanical properties :
#
#
# Convention : Reuss Voigt Hill
#
# Bulk Modulus (GPa) = 17.83042 48.94384 33.38713
# Shear Modulus (GPa) = 16.70950 31.96797 24.33873
#
# Velocity S-wave (km/s) = 2.95762 4.09089 3.56952
# Velocity P-wave (km/s) = 4.58232 6.92360 5.87086
#
# Compressibility (1/GPa) = 0.05608394
#
# Stress axis : x y z
#
# Youngs Moduli (GPa) = 24.56566 142.78243 44.89261
#
# Poissons Ratio (x) = 0.67250 -0.00280
# Poissons Ratio (y) = 0.11570 0.10341
# Poissons Ratio (z) = -0.00153 0.32891
#
# Static dielectric constant tensor:
#      x y z
#    x 1.694360 0.000000 -0.014020 
#    y 0.000000 1.684910 0.000000 
#    z -0.014020 0.000000 1.725270 
# 
# From -- ./inp_files/28740.got.cif
#   From: 2010.05.17/outbox.cif.g08.bks.cpg/sg15_15_cif.got.tgz:28740.got - 2010.06.03 18:47:42.
