data_PCOD9269706
_publ_section_title
;
Structure prediction by ZEFSAII (Michael W. Deem and Ramdas Pophale) SiO2 
 PCOD9269706
Probable space group: C 2/C
;
_chemical_formula_sum "Si O2"
_cell_formula_units_Z 56
_cell_length_a 15.614965
_cell_length_b 18.975141
_cell_length_c 8.346418
_cell_angle_alpha 90.000000
_cell_angle_beta 106.394299
_cell_angle_gamma 90.000000
_cell_volume 2372.464074
_symmetry_space_group_name_H-M "C 2/C"
_symmetry_group_IT_number 15
_symmetry_cell_setting 'monoclinic'
loop_
_space_group_symop_operation_xyz
x,y,z
-x,y,1/2-z
-x,-y,-z
x,-y,1/2+z
1/2+x,1/2+y,z
1/2-x,1/2+y,1/2-z
1/2-x,1/2-y,-z
1/2+x,1/2-y,1/2+z
loop_
_atom_site_type_symbol
_atom_site_label
_atom_site_fract_x
_atom_site_fract_y
_atom_site_fract_z
Si Si1 0.460035 0.220458 0.956889
Si Si2 0.165443 0.935636 0.759750
Si Si3 0.304637 0.286178 0.670814
Si Si4 0.940753 0.950788 0.085030
Si Si5 0.344868 0.951925 0.668284
Si Si6 0.623701 0.795781 0.741739
Si Si7 0.431874 0.940592 0.400401
O O1 0.398229 0.255886 0.787579
O O2 0.407620 0.227292 0.098959
O O3 0.561258 0.238135 0.069675
O O4 0.464991 0.138351 0.909793
O O5 0.181986 0.867271 0.873587
O O6 0.121342 0.996780 0.842539
O O7 0.253116 0.959729 0.713009
O O8 0.108431 0.907010 0.576489
O O9 0.250000 0.250000 0.500000
O O10 0.228655 0.285135 0.769991
O O11 0.000000 0.912386 0.250000
O O12 0.000000 0.000000 0.000000
O O13 0.390420 0.881425 0.765812
O O14 0.349129 0.937824 0.482800
O O15 0.395237 0.025226 0.720661
O O16 0.500000 0.000000 0.500000
#
# Coordination Sequence:
#
# PCOD9269706 Si02
#       7
#     8   8   8   8   8   8   8
#     4  10  21  41  65  88 130 177 213 267 319 390
#     4  10  21  41  65  93 129 166 210 272 333 388
#     4  11  25  43  61  96 135 169 215 266 325 395
#     4   9  19  40  66  92 121 156 212 272 324 385
#     4  10  20  34  59  90 127 163 208 268 318 383
#     4   9  20  42  63  87 123 170 223 262 317 387
#     4  11  20  34  58  93 128 167 216 259 319 382
#
# _framework density 23.604151999999999
#
# number of rings (size 3 to 8) (size 9 to 14) (size 15 to 20)
#    0.000    2.000    1.429    1.714    0.000    4.000 
#   12.857    4.286    0.000    0.000    0.000    0.000 
#    0.000    0.000    0.000    0.000    0.000    0.000 
#
# Total GULP energy -156089.385584 kJ/mol
# GULP energy per Si atom -5574.620914 kJ/mol
# Density = 2.355043 g / cm^3
# Si number density = 23.604152 Si / 1000 Ang^3
#
#
#
# Elastic Constant Matrix: (Units=GPa)
#
#
# Indices 1 2 3 4 5 6 
#
# 1 87.8929 8.6759 9.0626 0.0000 -9.5666 0.0000
# 2 8.6759 49.5363 21.5224 0.0000 7.7151 0.0000
# 3 9.0626 21.5224 103.3419 0.0000 4.1995 0.0000
# 4 0.0000 0.0000 0.0000 13.8286 0.0000 0.4882
# 5 -9.5666 7.7151 4.1995 0.0000 44.1430 0.0000
# 6 0.0000 0.0000 0.0000 0.4882 0.0000 20.2827
#
#
#
# Elastic Compliance Matrix: (Units=1/GPa)
#
#
# Indices 1 2 3 4 5 6 
#
# 1 0.012008 -0.002275 -0.000704 0.000000 0.003067 0.000000
# 2 -0.002275 0.023164 -0.004457 0.000000 -0.004117 0.000000
# 3 -0.000704 -0.004457 0.010682 0.000000 -0.000390 0.000000
# 4 0.000000 0.000000 0.000000 0.072376 0.000000 -0.001742
# 5 0.003067 -0.004117 -0.000390 0.000000 0.024075 0.000000
# 6 0.000000 0.000000 0.000000 -0.001742 0.000000 0.049345
#
#
# Mechanical properties :
#
#
# Convention : Reuss Voigt Hill
#
# Bulk Modulus (GPa) = 32.27680 35.47697 33.87688
# Shear Modulus (GPa) = 23.05744 29.08489 26.07116
#
# Velocity S-wave (km/s) = 3.12883 3.51407 3.32703
# Velocity P-wave (km/s) = 5.17269 5.61494 5.39834
#
# Compressibility (1/GPa) = 0.03098201
#
# Stress axis : x y z
#
# Youngs Moduli (GPa) = 83.27462 43.17129 93.61126
#
# Poissons Ratio (x) = 0.09822 0.06589
# Poissons Ratio (y) = 0.18945 0.41725
# Poissons Ratio (z) = 0.05862 0.19243
#
# Static dielectric constant tensor:
#      x y z
#    x 1.990440 0.000000 0.104560 
#    y 0.000000 1.872610 0.000000 
#    z 0.104560 0.000000 2.070200 
# 
# From -- ./inp_files/49117.got.cif
#   From: 2010.05.17/outbox.cif.g08.bks.cpg/sg15_25_cif.got.tgz:49117.got - 2010.06.03 18:47:42.
