data_PCOD9269688
_publ_section_title
;
Structure prediction by ZEFSAII (Michael W. Deem and Ramdas Pophale) SiO2 
 PCOD9269688
Probable space group: C 2/C
;
_chemical_formula_sum "Si O2"
_cell_formula_units_Z 36
_cell_length_a 14.069247
_cell_length_b 7.588222
_cell_length_c 16.392506
_cell_angle_alpha 90.000000
_cell_angle_beta 126.595792
_cell_angle_gamma 90.000000
_cell_volume 1405.066040
_symmetry_space_group_name_H-M "C 2/C"
_symmetry_group_IT_number 15
_symmetry_cell_setting 'monoclinic'
loop_
_space_group_symop_operation_xyz
x,y,z
-x,y,1/2-z
-x,-y,-z
x,-y,1/2+z
1/2+x,1/2+y,z
1/2-x,1/2+y,1/2-z
1/2-x,1/2-y,-z
1/2+x,1/2-y,1/2+z
loop_
_atom_site_type_symbol
_atom_site_label
_atom_site_fract_x
_atom_site_fract_y
_atom_site_fract_z
Si Si1 0.649607 0.791519 0.693716
Si Si2 0.908787 0.525110 0.078294
Si Si3 0.849904 0.189205 0.425409
Si Si4 0.120488 0.829156 0.003767
Si Si5 0.000000 0.768158 0.250000
O O1 0.551890 0.948709 0.635469
O O2 0.763795 0.828582 0.805025
O O3 0.680373 0.729620 0.619636
O O4 0.570837 0.653170 0.709720
O O5 0.903739 0.639205 0.157979
O O6 0.844854 0.629495 0.972933
O O7 0.870300 0.323211 0.058885
O O8 0.982294 0.173982 0.457817
O O9 0.840656 0.029774 0.486819
#
# Coordination Sequence:
#
# PCOD9269688 Si02
#       5
#     8   8   8   8   4
#     4   9  19  34  58  78 110 148 173 223 276 317
#     4   9  20  40  53  79 116 142 174 230 268 315
#     4  10  20  34  59  85 105 136 191 223 266 325
#     4  10  21  35  58  85 108 136 188 232 262 318
#     4   8  20  36  56  76 112 154 174 210 282 326
#
# _framework density 25.621573000000001
#
# number of rings (size 3 to 8) (size 9 to 14) (size 15 to 20)
#    1.333    1.333    0.000    2.667    6.222    0.889 
#    0.000    2.222    0.000    0.000    0.000    0.000 
#    0.000    0.000    0.000    0.000    0.000    0.000 
#
# Total GULP energy -100394.351818 kJ/mol
# GULP energy per Si atom -5577.463990 kJ/mol
# Density = 2.556326 g / cm^3
# Si number density = 25.621573 Si / 1000 Ang^3
#
#
#
# Elastic Constant Matrix: (Units=GPa)
#
#
# Indices 1 2 3 4 5 6 
#
# 1 48.3672 1.3865 6.2044 0.0000 -13.9460 0.0000
# 2 1.3865 80.6966 37.8973 0.0000 10.2108 0.0000
# 3 6.2044 37.8973 172.0144 0.0000 8.8774 0.0000
# 4 0.0000 0.0000 0.0000 15.9366 0.0000 0.3606
# 5 -13.9460 10.2108 8.8774 0.0000 32.0528 0.0000
# 6 0.0000 0.0000 0.0000 0.3606 0.0000 27.7744
#
#
#
# Elastic Compliance Matrix: (Units=1/GPa)
#
#
# Indices 1 2 3 4 5 6 
#
# 1 0.024095 -0.001286 -0.001165 0.000000 0.011216 0.000000
# 2 -0.001286 0.014316 -0.002885 0.000000 -0.004321 0.000000
# 3 -0.001165 -0.002885 0.006564 0.000000 -0.001406 0.000000
# 4 0.000000 0.000000 0.000000 0.062767 0.000000 -0.000815
# 5 0.011216 -0.004321 -0.001406 0.000000 0.037844 0.000000
# 6 0.000000 0.000000 0.000000 -0.000815 0.000000 0.036015
#
#
# Mechanical properties :
#
#
# Convention : Reuss Voigt Hill
#
# Bulk Modulus (GPa) = 29.15132 43.56163 36.35648
# Shear Modulus (GPa) = 24.54512 32.19210 28.36861
#
# Velocity S-wave (km/s) = 3.09849 3.54848 3.33110
# Velocity P-wave (km/s) = 4.91968 5.81617 5.38661
#
# Compressibility (1/GPa) = 0.03430377
#
# Stress axis : x y z
#
# Youngs Moduli (GPa) = 41.50166 69.85377 152.35737
#
# Poissons Ratio (x) = 0.08985 0.17743
# Poissons Ratio (y) = 0.05338 0.43948
# Poissons Ratio (z) = 0.04833 0.20150
#
# Static dielectric constant tensor:
#      x y z
#    x 2.181930 0.000000 0.071740 
#    y 0.000000 2.088750 0.000000 
#    z 0.071740 0.000000 1.983030 
# 
# From -- ./inp_files/171145.got.cif
#   From: 2010.05.17/outbox.cif.g08.bks.cpg/sg15_86_cif.got.tgz:171145.got - 2010.06.03 18:47:42.
