data_PCOD9269258
_publ_section_title
;
Structure prediction by ZEFSAII (Michael W. Deem and Ramdas Pophale) SiO2 
 PCOD9269258
Probable space group: C 2/C
;
_chemical_formula_sum "Si O2"
_cell_formula_units_Z 48
_cell_length_a 11.994211
_cell_length_b 16.106160
_cell_length_c 15.569352
_cell_angle_alpha 90.000000
_cell_angle_beta 139.904951
_cell_angle_gamma 90.000000
_cell_volume 1937.130562
_symmetry_space_group_name_H-M "C 2/C"
_symmetry_group_IT_number 15
_symmetry_cell_setting 'monoclinic'
loop_
_space_group_symop_operation_xyz
x,y,z
-x,y,1/2-z
-x,-y,-z
x,-y,1/2+z
1/2+x,1/2+y,z
1/2-x,1/2+y,1/2-z
1/2-x,1/2-y,-z
1/2+x,1/2-y,1/2+z
loop_
_atom_site_type_symbol
_atom_site_label
_atom_site_fract_x
_atom_site_fract_y
_atom_site_fract_z
Si Si1 0.589760 0.528658 0.956772
Si Si2 0.694455 0.602515 0.397221
Si Si3 0.794761 0.554831 0.839112
Si Si4 0.089567 0.190433 0.895376
Si Si5 0.048901 0.691289 0.056264
Si Si6 0.136025 0.436721 0.753963
O O1 0.657546 0.438894 0.968169
O O2 0.399794 0.557574 0.813031
O O3 0.678772 0.600358 0.952125
O O4 0.667145 0.550446 0.095029
O O5 0.500000 0.618863 0.250000
O O6 0.775223 0.524756 0.390623
O O7 0.814818 0.679642 0.441540
O O8 0.881557 0.639070 0.923661
O O9 0.905352 0.519252 0.824473
O O10 0.000000 0.201645 0.750000
O O11 0.250000 0.250000 0.000000
O O12 0.984708 0.219521 0.919966
O O13 0.124051 0.639941 0.182332
O O14 0.000000 0.427116 0.750000
#
# Coordination Sequence:
#
# PCOD9269258 Si02
#       6
#     8   8   8   8   8   8
#     4  11  21  36  56  84 115 147 192 248 299 350
#     4   9  18  34  56  80 110 149 194 243 293 347
#     4  10  20  34  54  80 111 148 190 244 299 346
#     4  12  23  36  56  85 121 159 193 236 301 370
#     4  11  21  35  55  83 118 156 192 238 301 362
#     4  11  20  33  54  82 112 145 190 243 294 347
#
# _framework density 24.778918000000001
#
# number of rings (size 3 to 8) (size 9 to 14) (size 15 to 20)
#    0.000    1.333    0.000   10.500    0.000    0.000 
#    0.000    0.000    0.000    1.000    0.000   26.833 
#    0.000    0.000    0.000    0.333    0.000    0.000 
#
# Total GULP energy -133748.199465 kJ/mol
# GULP energy per Si atom -5572.841644 kJ/mol
# Density = 2.472252 g / cm^3
# Si number density = 24.778918 Si / 1000 Ang^3
#
#
#
# Elastic Constant Matrix: (Units=GPa)
#
#
# Indices 1 2 3 4 5 6 
#
# 1 75.3816 5.6624 -0.4910 -0.0001 0.6983 0.0002
# 2 5.6624 42.4498 -9.0008 0.0000 -12.3930 0.0002
# 3 -0.4910 -9.0008 139.7918 -0.0002 6.0377 0.0005
# 4 -0.0001 0.0000 -0.0002 37.4284 -0.0001 -22.0427
# 5 0.6983 -12.3930 6.0377 -0.0001 26.0660 0.0002
# 6 0.0002 0.0002 0.0005 -22.0427 0.0002 70.8275
#
#
#
# Elastic Compliance Matrix: (Units=1/GPa)
#
#
# Indices 1 2 3 4 5 6 
#
# 1 0.013445 -0.002210 -0.000034 0.000000 -0.001403 0.000000
# 2 -0.002210 0.027922 0.001226 0.000000 0.013051 0.000000
# 3 -0.000034 0.001226 0.007280 0.000000 -0.001102 0.000000
# 4 0.000000 0.000000 0.000000 0.032714 0.000000 0.010181
# 5 -0.001403 0.013051 -0.001102 0.000000 0.044862 0.000000
# 6 0.000000 0.000000 0.000000 0.010181 0.000000 0.017287
#
#
# Mechanical properties :
#
#
# Convention : Reuss Voigt Hill
#
# Bulk Modulus (GPa) = 21.45465 27.77382 24.61423
# Shear Modulus (GPa) = 31.03987 44.29455 37.66721
#
# Velocity S-wave (km/s) = 3.54315 4.23258 3.90312
# Velocity P-wave (km/s) = 5.04141 5.92615 5.50159
#
# Compressibility (1/GPa) = 0.04660995
#
# Stress axis : x y z
#
# Youngs Moduli (GPa) = 74.37907 35.81382 137.36368
#
# Poissons Ratio (x) = 0.07916 0.00474
# Poissons Ratio (y) = 0.16440 -0.16846
# Poissons Ratio (z) = 0.00257 -0.04392
#
# Static dielectric constant tensor:
#      x y z
#    x 2.811470 0.000000 -0.037300 
#    y 0.000000 2.081160 0.000000 
#    z -0.037300 0.000000 2.054330 
# 
# From -- ./inp_files/147434.got.cif
#   From: 2010.05.17/outbox.cif.g08.bks.cpg/sg15_74_cif.got.tgz:147434.got - 2010.06.03 18:47:42.
