data_PCOD9269395
_publ_section_title
;
Structure prediction by ZEFSAII (Michael W. Deem and Ramdas Pophale) SiO2 
 PCOD9269395
Probable space group: C 2/C
;
_chemical_formula_sum "Si O2"
_cell_formula_units_Z 64
_cell_length_a 11.782348
_cell_length_b 14.262010
_cell_length_c 21.288284
_cell_angle_alpha 90.000000
_cell_angle_beta 73.489747
_cell_angle_gamma 90.000000
_cell_volume 3429.787189
_symmetry_space_group_name_H-M "C 2/C"
_symmetry_group_IT_number 15
_symmetry_cell_setting 'monoclinic'
loop_
_space_group_symop_operation_xyz
x,y,z
-x,y,1/2-z
-x,-y,-z
x,-y,1/2+z
1/2+x,1/2+y,z
1/2-x,1/2+y,1/2-z
1/2-x,1/2-y,-z
1/2+x,1/2-y,1/2+z
loop_
_atom_site_type_symbol
_atom_site_label
_atom_site_fract_x
_atom_site_fract_y
_atom_site_fract_z
Si Si1 0.099213 0.410191 0.908598
Si Si2 0.918780 0.234664 0.668082
Si Si3 0.567414 0.509627 0.835998
Si Si4 0.322311 0.493709 0.314413
Si Si5 0.340549 0.237179 0.543670
Si Si6 0.322790 0.269244 0.314833
Si Si7 0.103507 0.067841 0.461738
Si Si8 0.643614 0.038686 0.012848
O O1 0.101430 0.301546 0.888144
O O2 0.199336 0.459782 0.851206
O O3 0.964980 0.448756 0.921707
O O4 0.130955 0.444568 0.974034
O O5 0.915921 0.122347 0.657757
O O6 0.831557 0.259825 0.740397
O O7 0.051072 0.254101 0.673237
O O8 0.630444 0.480173 0.761662
O O9 0.427761 0.488272 0.847865
O O10 0.618388 0.455338 0.886527
O O11 0.312889 0.381697 0.314587
O O12 0.250000 0.250000 0.500000
O O13 0.276842 0.258589 0.619775
O O14 0.430152 0.323330 0.521454
O O15 0.375477 0.128828 0.530848
O O16 0.227119 0.047476 0.477576
O O17 0.000000 0.000000 0.500000
#
# Coordination Sequence:
#
# PCOD9269395 Si02
#       8
#     8   8   8   8   8   8   8   8
#     4  11  20  36  61  82 118 153 192 232 290 352
#     4   9  19  31  59  86 112 145 185 248 282 338
#     4   9  20  37  58  89 117 144 196 237 291 337
#     4   9  18  36  62  84 114 153 184 241 287 347
#     4  10  20  34  56  80 115 144 187 243 278 328
#     4   9  17  35  55  85 110 142 198 235 285 326
#     4  11  23  35  60  87 114 147 197 245 278 337
#     4  10  23  38  56  86 115 158 194 233 296 346
#
# _framework density 18.660049999999998
#
# number of rings (size 3 to 8) (size 9 to 14) (size 15 to 20)
#    0.000    2.250    1.250    3.750    8.750    0.000 
#    0.000    0.625    5.500    0.000    0.000    1.750 
#    0.000    0.000    0.000    0.000    0.000    0.000 
#
# Total GULP energy -178244.206981 kJ/mol
# GULP energy per Si atom -5570.131468 kJ/mol
# Density = 1.861758 g / cm^3
# Si number density = 18.660050 Si / 1000 Ang^3
#
#
#
# Elastic Constant Matrix: (Units=GPa)
#
#
# Indices 1 2 3 4 5 6 
#
# 1 83.9670 42.7352 42.5387 0.0000 -12.6536 0.0000
# 2 42.7352 80.8659 45.6570 0.0000 7.6995 0.0000
# 3 42.5387 45.6570 78.4663 0.0000 -7.8444 0.0000
# 4 0.0000 0.0000 0.0000 29.3015 0.0000 -0.6627
# 5 -12.6536 7.6995 -7.8444 0.0000 35.2471 0.0000
# 6 0.0000 0.0000 0.0000 -0.6627 0.0000 26.5574
#
#
#
# Elastic Compliance Matrix: (Units=1/GPa)
#
#
# Indices 1 2 3 4 5 6 
#
# 1 0.019980 -0.008392 -0.005164 0.000000 0.007857 0.000000
# 2 -0.008392 0.023550 -0.010196 0.000000 -0.010426 0.000000
# 3 -0.005164 -0.010196 0.022003 0.000000 0.005271 0.000000
# 4 0.000000 0.000000 0.000000 0.034147 0.000000 0.000852
# 5 0.007857 -0.010426 0.005271 0.000000 0.034642 0.000000
# 6 0.000000 0.000000 0.000000 0.000852 0.000000 0.037676
#
#
# Mechanical properties :
#
#
# Convention : Reuss Voigt Hill
#
# Bulk Modulus (GPa) = 55.45938 56.12898 55.79418
# Shear Modulus (GPa) = 22.17172 25.71242 23.94207
#
# Velocity S-wave (km/s) = 3.45076 3.71609 3.58588
# Velocity P-wave (km/s) = 6.75740 6.96832 6.86367
#
# Compressibility (1/GPa) = 0.01803121
#
# Stress axis : x y z
#
# Youngs Moduli (GPa) = 50.04922 42.46203 45.44768
#
# Poissons Ratio (x) = 0.35633 0.23467
# Poissons Ratio (y) = 0.42000 0.46339
# Poissons Ratio (z) = 0.25843 0.43295
#
# Static dielectric constant tensor:
#      x y z
#    x 1.650170 0.000000 -0.036790 
#    y 0.000000 1.663940 0.000000 
#    z -0.036790 0.000000 1.734610 
# 
# From -- ./inp_files/238738.got.cif
#   From: 2010.05.17/outbox.cif.g08.bks.cpg/sg15_120_cif.got.tgz:238738.got - 2010.06.03 18:47:42.
