data_PCOD9269390
_publ_section_title
;
Structure prediction by ZEFSAII (Michael W. Deem and Ramdas Pophale) SiO2 
 PCOD9269390
Probable space group: C 2/C
;
_chemical_formula_sum "Si O2"
_cell_formula_units_Z 56
_cell_length_a 22.629661
_cell_length_b 19.906047
_cell_length_c 9.158175
_cell_angle_alpha 90.000000
_cell_angle_beta 122.555782
_cell_angle_gamma 90.000000
_cell_volume 3477.215024
_symmetry_space_group_name_H-M "C 2/C"
_symmetry_group_IT_number 15
_symmetry_cell_setting 'monoclinic'
loop_
_space_group_symop_operation_xyz
x,y,z
-x,y,1/2-z
-x,-y,-z
x,-y,1/2+z
1/2+x,1/2+y,z
1/2-x,1/2+y,1/2-z
1/2-x,1/2-y,-z
1/2+x,1/2-y,1/2+z
loop_
_atom_site_type_symbol
_atom_site_label
_atom_site_fract_x
_atom_site_fract_y
_atom_site_fract_z
Si Si1 0.147130 0.229478 0.607244
Si Si2 0.222207 0.639028 0.703009
Si Si3 0.658759 0.141989 0.294623
Si Si4 0.074718 0.550337 0.786725
Si Si5 0.341152 0.999192 0.347955
Si Si6 0.892567 0.301675 0.234386
Si Si7 0.024239 0.277513 0.618289
O O1 0.200191 0.168394 0.687621
O O2 0.183983 0.296312 0.725910
O O3 0.124919 0.247621 0.412926
O O4 0.077918 0.224454 0.616446
O O5 0.189718 0.647669 0.497871
O O6 0.214922 0.560350 0.733288
O O7 0.173833 0.679924 0.753150
O O8 0.574195 0.155609 0.188249
O O9 0.675901 0.070605 0.246476
O O10 0.090056 0.530878 0.641423
O O11 0.085584 0.629803 0.819362
O O12 0.000000 0.531343 0.750000
O O13 0.135714 0.513655 0.957085
O O14 0.957510 0.284727 0.425580
O O15 0.000000 0.262643 0.750000
#
# Coordination Sequence:
#
# PCOD9269390 Si02
#       7
#     8   8   8   8   8   8   8
#     4  10  21  34  56  75 107 142 183 225 265 307
#     4  11  22  35  50  76 112 146 183 219 262 314
#     4  10  20  35  52  71 109 145 176 219 263 312
#     4  11  20  31  45  72 100 144 180 210 251 306
#     4  11  21  33  47  69 106 146 178 218 251 309
#     4  11  19  35  52  76 106 140 180 221 259 314
#     4  10  20  34  56  79 107 143 181 217 263 321
#
# _framework density 16.104842000000001
#
# number of rings (size 3 to 8) (size 9 to 14) (size 15 to 20)
#    0.857    0.571    4.286    3.429    0.000    1.714 
#    0.000    0.000    0.000    0.000    0.000    0.000 
#    0.000   16.000    0.000    0.000    0.000    0.000 
#
# Total GULP energy -156025.528739 kJ/mol
# GULP energy per Si atom -5572.340312 kJ/mol
# Density = 1.606819 g / cm^3
# Si number density = 16.104842 Si / 1000 Ang^3
#
#
#
# Elastic Constant Matrix: (Units=GPa)
#
#
# Indices 1 2 3 4 5 6 
#
# 1 80.3584 43.0894 35.9191 0.0000 1.2218 0.0000
# 2 43.0894 54.0163 26.5223 0.0000 3.1543 0.0000
# 3 35.9191 26.5223 95.9931 0.0000 -11.0922 0.0000
# 4 0.0000 0.0000 0.0000 3.3095 0.0000 2.0490
# 5 1.2218 3.1543 -11.0922 0.0000 17.1712 0.0000
# 6 0.0000 0.0000 0.0000 2.0490 0.0000 19.3554
#
#
#
# Elastic Compliance Matrix: (Units=1/GPa)
#
#
# Indices 1 2 3 4 5 6 
#
# 1 0.023095 -0.016211 -0.004332 0.000000 -0.001464 0.000000
# 2 -0.016211 0.033975 -0.004225 0.000000 -0.007817 0.000000
# 3 -0.004332 -0.004225 0.014406 0.000000 0.010390 0.000000
# 4 0.000000 0.000000 0.000000 0.323354 0.000000 -0.034230
# 5 -0.001464 -0.007817 0.010390 0.000000 0.066489 0.000000
# 6 0.000000 0.000000 0.000000 -0.034230 0.000000 0.055289
#
#
# Mechanical properties :
#
#
# Convention : Reuss Voigt Hill
#
# Bulk Modulus (GPa) = 45.57501 49.04773 47.31137
# Shear Modulus (GPa) = 8.71905 16.28969 12.50437
#
# Velocity S-wave (km/s) = 2.32931 3.18382 2.78948
# Velocity P-wave (km/s) = 5.96612 6.63604 6.30998
#
# Compressibility (1/GPa) = 0.02194185
#
# Stress axis : x y z
#
# Youngs Moduli (GPa) = 43.29865 29.43321 69.41432
#
# Poissons Ratio (x) = 0.47714 0.30071
# Poissons Ratio (y) = 0.70191 0.29324
# Poissons Ratio (z) = 0.18757 0.12434
#
# Static dielectric constant tensor:
#      x y z
#    x 1.544340 0.000000 -0.025020 
#    y 0.000000 1.540930 0.000000 
#    z -0.025020 0.000000 1.548860 
# 
# From -- ./inp_files/62557.got.cif
#   From: 2010.05.17/outbox.cif.g08.bks.cpg/sg15_32_cif.got.tgz:62557.got - 2010.06.03 18:47:42.
