data_PCOD9269218
_publ_section_title
;
Structure prediction by ZEFSAII (Michael W. Deem and Ramdas Pophale) SiO2 
 PCOD9269218
Probable space group: C 2/C
;
_chemical_formula_sum "Si O2"
_cell_formula_units_Z 64
_cell_length_a 22.064892
_cell_length_b 18.401211
_cell_length_c 20.664278
_cell_angle_alpha 90.000000
_cell_angle_beta 153.793084
_cell_angle_gamma 90.000000
_cell_volume 3705.198098
_symmetry_space_group_name_H-M "C 2/C"
_symmetry_group_IT_number 15
_symmetry_cell_setting 'monoclinic'
loop_
_space_group_symop_operation_xyz
x,y,z
-x,y,1/2-z
-x,-y,-z
x,-y,1/2+z
1/2+x,1/2+y,z
1/2-x,1/2+y,1/2-z
1/2-x,1/2-y,-z
1/2+x,1/2-y,1/2+z
loop_
_atom_site_type_symbol
_atom_site_label
_atom_site_fract_x
_atom_site_fract_y
_atom_site_fract_z
Si Si1 0.437729 0.822480 0.969996
Si Si2 0.485011 0.881391 0.869405
Si Si3 0.310608 0.661962 0.424423
Si Si4 0.083127 0.024804 0.143519
Si Si5 0.721888 0.200516 0.536199
Si Si6 0.406078 0.978883 0.970110
Si Si7 0.884254 0.817269 0.850530
Si Si8 0.538834 0.415079 0.218205
O O1 0.483475 0.845296 0.940315
O O2 0.444834 0.895220 0.020501
O O3 0.276723 0.803037 0.815543
O O4 0.527905 0.754316 0.076587
O O5 0.323938 0.887922 0.700033
O O6 0.568617 0.830985 0.899647
O O7 0.559374 0.959405 0.944736
O O8 0.257232 0.743458 0.384685
O O9 0.385109 0.659575 0.427063
O O10 0.419327 0.640452 0.582547
O O11 0.248490 0.017752 0.295783
O O12 0.062159 0.110942 0.134470
O O13 0.046721 0.974280 0.169291
O O14 0.000000 0.000000 0.000000
O O15 0.750000 0.250000 0.500000
O O16 0.825302 0.133508 0.642841
O O17 0.500000 0.000000 0.000000
O O18 0.500000 0.448226 0.250000
#
# Coordination Sequence:
#
# PCOD9269218 Si02
#       8
#     8   8   8   8   8   8   8   8
#     4   9  19  32  51  78 114 142 182 234 301 347
#     4  10  20  35  53  76 118 158 193 242 284 346
#     4  11  22  34  52  81 115 152 203 238 283 348
#     4  11  22  37  60  83 114 154 201 248 300 351
#     4  12  23  37  55  77 115 169 202 228 284 345
#     4   9  19  35  52  82 116 153 187 241 305 347
#     4  10  20  34  53  83 109 145 184 245 292 349
#     4  12  25  41  55  81 121 162 201 247 285 353
#
# _framework density 17.273031
#
# number of rings (size 3 to 8) (size 9 to 14) (size 15 to 20)
#    0.000    1.500    5.000    1.500    1.750    2.000 
#    0.000    0.000    0.000    0.000    0.000    3.500 
#    3.750    0.000    0.000    0.000    0.000    0.000 
#
# Total GULP energy -178383.427859 kJ/mol
# GULP energy per Si atom -5574.482121 kJ/mol
# Density = 1.723372 g / cm^3
# Si number density = 17.273031 Si / 1000 Ang^3
#
#
#
# Elastic Constant Matrix: (Units=GPa)
#
#
# Indices 1 2 3 4 5 6 
#
# 1 70.4561 43.6137 15.8232 0.0020 1.2344 0.0006
# 2 43.6137 123.1122 40.5545 0.0048 13.6527 0.0029
# 3 15.8232 40.5545 49.6004 0.0045 13.4554 0.0024
# 4 0.0020 0.0048 0.0045 30.6956 0.0020 0.5279
# 5 1.2344 13.6527 13.4554 0.0020 14.6030 0.0009
# 6 0.0006 0.0029 0.0024 0.5279 0.0009 32.6018
#
#
#
# Elastic Compliance Matrix: (Units=1/GPa)
#
#
# Indices 1 2 3 4 5 6 
#
# 1 0.018690 -0.006575 -0.002434 0.000000 0.006810 0.000000
# 2 -0.006575 0.013509 -0.007563 0.000000 -0.005106 0.000000
# 3 -0.002434 -0.007563 0.033528 -0.000002 -0.023617 -0.000001
# 4 0.000000 0.000000 -0.000002 0.032587 -0.000002 -0.000528
# 5 0.006810 -0.005106 -0.023617 -0.000002 0.094438 0.000000
# 6 0.000000 0.000000 -0.000001 -0.000528 0.000000 0.030682
#
#
# Mechanical properties :
#
#
# Convention : Reuss Voigt Hill
#
# Bulk Modulus (GPa) = 30.69001 49.23903 39.96452
# Shear Modulus (GPa) = 18.69579 25.12523 21.91051
#
# Velocity S-wave (km/s) = 3.29351 3.81805 3.56544
# Velocity P-wave (km/s) = 5.68059 6.92855 6.33537
#
# Compressibility (1/GPa) = 0.03258390
#
# Stress axis : x y z
#
# Youngs Moduli (GPa) = 53.50341 74.02287 29.82564
#
# Poissons Ratio (x) = 0.48667 0.07261
# Poissons Ratio (y) = 0.35176 0.22558
# Poissons Ratio (z) = 0.13024 0.55985
#
# Static dielectric constant tensor:
#      x y z
#    x 1.604830 0.000000 0.003250 
#    y 0.000000 1.631030 0.000000 
#    z 0.003250 0.000000 1.589030 
# 
# From -- ./inp_files/253240.got.cif
#   From: 2010.05.17/outbox.cif.g08.bks.cpg/sg15_127_cif.got.tgz:253240.got - 2010.06.03 18:47:42.
