data_PCOD9269428
_publ_section_title
;
Structure prediction by ZEFSAII (Michael W. Deem and Ramdas Pophale) SiO2 
 PCOD9269428
Probable space group: C 2/C
;
_chemical_formula_sum "Si O2"
_cell_formula_units_Z 56
_cell_length_a 25.331946
_cell_length_b 8.405758
_cell_length_c 21.706220
_cell_angle_alpha 90.000000
_cell_angle_beta 31.032922
_cell_angle_gamma 90.000000
_cell_volume 2382.780373
_symmetry_space_group_name_H-M "C 2/C"
_symmetry_group_IT_number 15
_symmetry_cell_setting 'monoclinic'
loop_
_space_group_symop_operation_xyz
x,y,z
-x,y,1/2-z
-x,-y,-z
x,-y,1/2+z
1/2+x,1/2+y,z
1/2-x,1/2+y,1/2-z
1/2-x,1/2-y,-z
1/2+x,1/2-y,1/2+z
loop_
_atom_site_type_symbol
_atom_site_label
_atom_site_fract_x
_atom_site_fract_y
_atom_site_fract_z
Si Si1 0.030585 0.500781 0.789719
Si Si2 0.980600 0.250000 0.019400
Si Si3 0.530585 0.500781 0.649112
Si Si4 0.118639 0.704511 0.496310
Si Si5 0.881361 0.204511 0.733589
Si Si6 0.821092 0.847154 0.584824
Si Si7 0.678908 0.847155 0.227009
O O1 0.087410 0.333607 0.745438
O O2 0.110353 0.633971 0.734485
O O3 0.000000 0.515438 0.750000
O O4 0.931522 0.538512 0.931926
O O5 0.897680 0.142728 0.066136
O O6 0.897680 0.357272 0.138504
O O7 0.058297 0.224056 0.997813
O O8 0.058298 0.275944 0.885592
O O9 0.500000 0.515437 0.750000
O O10 0.587410 0.333608 0.579742
O O11 0.431523 0.538512 0.705029
O O12 0.610354 0.633972 0.544808
O O13 0.238676 0.706092 0.360877
O O14 0.761324 0.206091 0.838229
O O15 0.750000 0.999999 0.659662
#
# Coordination Sequence:
#
# PCOD9269428 Si02
#       7
#     8   8   8   8   8   8   8
#     4  10  21  38  57  80 110 145 184 224 271 323
#     4  10  20  34  56  84 110 142 184 224 272 326
#     4  10  21  38  57  80 110 145 184 224 271 323
#     4  10  21  37  58  82 111 145 181 226 273 323
#     4  10  21  37  58  82 111 145 181 226 273 323
#     4   9  20  35  54  81 111 144 179 224 276 323
#     4   9  20  35  54  81 111 144 179 224 276 323
#
# _framework density 23.501956
#
# number of rings (size 3 to 8) (size 9 to 14) (size 15 to 20)
#    0.000    2.286    0.000    1.714    0.000   13.714 
#    0.000   12.857    0.000    0.000    0.000    0.000 
#    0.000    0.000    0.000    0.000    0.000    0.000 
#
# Total GULP energy -156006.330895 kJ/mol
# GULP energy per Si atom -5571.654675 kJ/mol
# Density = 2.344846 g / cm^3
# Si number density = 23.501956 Si / 1000 Ang^3
#
#
#
# Elastic Constant Matrix: (Units=GPa)
#
#
# Indices 1 2 3 4 5 6 
#
# 1 130.4732 -2.1936 49.3746 0.0025 14.4303 -0.0015
# 2 -2.1936 30.6371 -2.1747 0.0171 -0.0204 -0.0096
# 3 49.3746 -2.1747 117.6515 0.0081 -3.7625 -0.0058
# 4 0.0025 0.0171 0.0081 36.3964 -0.0026 -13.1626
# 5 14.4303 -0.0204 -3.7625 -0.0026 47.0165 0.0017
# 6 -0.0015 -0.0096 -0.0058 -13.1626 0.0017 20.5763
#
#
#
# Elastic Compliance Matrix: (Units=1/GPa)
#
#
# Indices 1 2 3 4 5 6 
#
# 1 0.009594 0.000392 -0.004124 0.000000 -0.003274 0.000000
# 2 0.000392 0.032699 0.000438 -0.000013 -0.000071 0.000007
# 3 -0.004124 0.000438 0.010305 -0.000001 0.002090 0.000002
# 4 0.000000 -0.000013 -0.000001 0.035745 0.000001 0.022866
# 5 -0.003274 -0.000071 0.002090 0.000001 0.022441 -0.000001
# 6 0.000000 0.000007 0.000002 0.022866 -0.000001 0.063227
#
#
# Mechanical properties :
#
#
# Convention : Reuss Voigt Hill
#
# Bulk Modulus (GPa) = 21.73433 40.97495 31.35464
# Shear Modulus (GPa) = 25.51866 36.38154 30.95010
#
# Velocity S-wave (km/s) = 3.29874 3.93876 3.63287
# Velocity P-wave (km/s) = 4.87615 6.17719 5.56482
#
# Compressibility (1/GPa) = 0.04601015
#
# Stress axis : x y z
#
# Youngs Moduli (GPa) = 104.23587 30.58171 97.03870
#
# Poissons Ratio (x) = -0.01199 0.40015
# Poissons Ratio (y) = -0.04086 -0.04247
# Poissons Ratio (z) = 0.42983 -0.01338
#
# Static dielectric constant tensor:
#      x y z
#    x 1.867020 0.000000 -0.036180 
#    y 0.000000 2.025680 0.000000 
#    z -0.036180 0.000000 1.910500 
# 
# From -- ./inp_files/255432.got.cif
#   From: 2010.05.17/outbox.cif.g08.bks.cpg/sg15_128_cif.got.tgz:255432.got - 2010.06.03 18:47:42.
