data_PCOD9269656
_publ_section_title
;
Structure prediction by ZEFSAII (Michael W. Deem and Ramdas Pophale) SiO2 
 PCOD9269656
Probable space group: C 2/C
;
_chemical_formula_sum "Si O2"
_cell_formula_units_Z 60
_cell_length_a 17.547674
_cell_length_b 12.501453
_cell_length_c 27.965816
_cell_angle_alpha 90.000000
_cell_angle_beta 150.517601
_cell_angle_gamma 90.000000
_cell_volume 3019.329275
_symmetry_space_group_name_H-M "C 2/C"
_symmetry_group_IT_number 15
_symmetry_cell_setting 'monoclinic'
loop_
_space_group_symop_operation_xyz
x,y,z
-x,y,1/2-z
-x,-y,-z
x,-y,1/2+z
1/2+x,1/2+y,z
1/2-x,1/2+y,1/2-z
1/2-x,1/2-y,-z
1/2+x,1/2-y,1/2+z
loop_
_atom_site_type_symbol
_atom_site_label
_atom_site_fract_x
_atom_site_fract_y
_atom_site_fract_z
Si Si1 0.384232 0.610310 0.613918
Si Si2 0.721625 0.515740 0.659820
Si Si3 0.831356 0.349197 0.586095
Si Si4 0.714861 0.520318 0.765333
Si Si5 0.829185 0.074291 0.158604
Si Si6 0.500481 0.112244 0.529458
Si Si7 0.436028 0.668378 0.488224
Si Si8 0.000000 0.507529 0.750000
O O1 0.225973 0.607178 0.496226
O O2 0.418753 0.736444 0.637080
O O3 0.537966 0.562881 0.672855
O O4 0.353143 0.541609 0.645118
O O5 0.750333 0.486778 0.730684
O O6 0.590780 0.605625 0.585605
O O7 0.657402 0.408662 0.599275
O O8 0.863946 0.560899 0.706116
O O9 0.669208 0.323288 0.522921
O O10 0.919752 0.434857 0.665723
O O11 0.712791 0.436130 0.808185
O O12 0.855255 0.600515 0.855666
O O13 0.000000 0.126190 0.250000
O O14 0.677997 0.123735 0.050622
O O15 0.534733 0.215250 0.516445
O O16 0.500000 0.000000 0.500000
#
# Coordination Sequence:
#
# PCOD9269656 Si02
#       8
#     8   8   8   8   8   8   8   4
#     4  10  20  34  59  89 127 156 195 257 313 367
#     4  10  22  42  62  88 122 164 211 252 310 365
#     4  10  20  34  58  94 119 156 200 255 322 356
#     4  10  20  37  60  89 119 162 203 250 306 363
#     4   9  20  37  59  83 123 162 194 249 299 367
#     4  10  21  38  61  91 124 158 202 250 304 367
#     4  10  21  42  63  88 128 164 202 259 311 366
#     4  10  24  36  62  86 116 160 204 268 292 374
#
# _framework density 19.871962
#
# number of rings (size 3 to 8) (size 9 to 14) (size 15 to 20)
#    0.000    2.133    1.333    1.600    8.400    0.000 
#    8.400    0.000    0.000    4.000    0.000    0.000 
#    0.000    0.000    0.000    0.000    0.000    0.000 
#
# Total GULP energy -167021.823181 kJ/mol
# GULP energy per Si atom -5567.394106 kJ/mol
# Density = 1.982673 g / cm^3
# Si number density = 19.871962 Si / 1000 Ang^3
#
#
#
# Elastic Constant Matrix: (Units=GPa)
#
#
# Indices 1 2 3 4 5 6 
#
# 1 73.3469 -4.3408 12.1028 0.0000 -3.4111 -0.0002
# 2 -4.3408 37.7436 -3.0925 0.0003 -5.0455 0.0003
# 3 12.1028 -3.0925 62.3462 0.0009 1.0650 0.0001
# 4 0.0000 0.0003 0.0009 30.5931 0.0001 39.7185
# 5 -3.4111 -5.0455 1.0650 0.0001 44.4498 0.0000
# 6 -0.0002 0.0003 0.0001 39.7185 0.0000 85.0876
#
#
#
# Elastic Compliance Matrix: (Units=1/GPa)
#
#
# Indices 1 2 3 4 5 6 
#
# 1 0.014237 0.001594 -0.002708 0.000000 0.001338 0.000000
# 2 0.001594 0.027184 0.000984 -0.000001 0.003184 0.000000
# 3 -0.002708 0.000984 0.016622 -0.000001 -0.000494 0.000001
# 4 0.000000 -0.000001 -0.000001 0.082969 0.000000 -0.038730
# 5 0.001338 0.003184 -0.000494 0.000000 0.022973 0.000000
# 6 0.000000 0.000000 0.000001 -0.038730 0.000000 0.029831
#
#
# Mechanical properties :
#
#
# Convention : Reuss Voigt Hill
#
# Bulk Modulus (GPa) = 17.30503 20.30842 18.80672
# Shear Modulus (GPa) = 23.43704 43.27724 33.35714
#
# Velocity S-wave (km/s) = 3.43797 4.67176 4.10152
# Velocity P-wave (km/s) = 4.94840 6.27234 5.64929
#
# Compressibility (1/GPa) = 0.05778666
#
# Stress axis : x y z
#
# Youngs Moduli (GPa) = 70.23850 36.78593 60.15997
#
# Poissons Ratio (x) = -0.05865 0.16289
# Poissons Ratio (y) = -0.11199 -0.05923
# Poissons Ratio (z) = 0.19017 -0.03621
#
# Static dielectric constant tensor:
#      x y z
#    x 1.737130 0.000000 0.001760 
#    y 0.000000 1.689450 0.000000 
#    z 0.001760 0.000000 1.775300 
# 
# From -- ./inp_files/298959.got.cif
#   From: 2010.05.17/outbox.cif.g08.bks.cpg/sg15_150_cif.got.tgz:298959.got - 2010.06.03 18:47:42.
