data_PCOD9269264
_publ_section_title
;
Structure prediction by ZEFSAII (Michael W. Deem and Ramdas Pophale) SiO2 
 PCOD9269264
Probable space group: C 2/C
;
_chemical_formula_sum "Si O2"
_cell_formula_units_Z 44
_cell_length_a 11.010026
_cell_length_b 22.294451
_cell_length_c 9.065935
_cell_angle_alpha 90.000000
_cell_angle_beta 65.752839
_cell_angle_gamma 90.000000
_cell_volume 2029.032155
_symmetry_space_group_name_H-M "C 2/C"
_symmetry_group_IT_number 15
_symmetry_cell_setting 'monoclinic'
loop_
_space_group_symop_operation_xyz
x,y,z
-x,y,1/2-z
-x,-y,-z
x,-y,1/2+z
1/2+x,1/2+y,z
1/2-x,1/2+y,1/2-z
1/2-x,1/2-y,-z
1/2+x,1/2-y,1/2+z
loop_
_atom_site_type_symbol
_atom_site_label
_atom_site_fract_x
_atom_site_fract_y
_atom_site_fract_z
Si Si1 0.854826 0.287328 0.353332
Si Si2 0.789387 0.895778 0.635762
Si Si3 0.721899 0.123211 0.848079
Si Si4 0.296161 0.533636 0.563699
Si Si5 0.000000 0.100065 0.250000
Si Si6 0.581378 0.906290 0.989873
O O1 0.750000 0.250000 0.500000
O O2 0.794083 0.314935 0.233733
O O3 0.885666 0.346733 0.433604
O O4 0.000000 0.259253 0.250000
O O5 0.779024 0.866784 0.481356
O O6 0.653174 0.898803 0.797293
O O7 0.902034 0.867290 0.684409
O O8 0.823721 0.965538 0.589706
O O9 0.799501 0.076000 0.706050
O O10 0.576628 0.092340 0.940278
O O11 0.400846 0.559932 0.396163
O O12 0.153704 0.542030 0.550297
#
# Coordination Sequence:
#
# PCOD9269264 Si02
#       6
#     8   8   8   8   4   8
#     4   9  19  40  64  85 117 152 189 243 310 365
#     4  11  21  34  55  83 118 161 195 236 284 349
#     4  10  20  35  58  87 116 149 196 242 292 344
#     4  10  20  34  54  80 120 162 198 231 284 346
#     4  10  22  36  48  72 118 170 204 232 282 326
#     4   9  20  36  55  88 118 147 189 240 295 345
#
# _framework density 21.685217000000002
#
# number of rings (size 3 to 8) (size 9 to 14) (size 15 to 20)
#    0.000    2.182    0.000    4.909    0.000    5.091 
#   14.727    0.909    0.000    0.000    0.000    0.000 
#    0.000    0.000    0.000    0.000    0.000    0.000 
#
# Total GULP energy -122960.090308 kJ/mol
# GULP energy per Si atom -5589.095014 kJ/mol
# Density = 2.163586 g / cm^3
# Si number density = 21.685217 Si / 1000 Ang^3
#
#
#
# Elastic Constant Matrix: (Units=GPa)
#
#
# Indices 1 2 3 4 5 6 
#
# 1 104.2935 31.6744 64.3024 0.0000 16.6673 0.0000
# 2 31.6744 46.9408 21.6247 0.0000 13.4122 0.0000
# 3 64.3024 21.6247 167.4075 0.0000 28.6782 0.0000
# 4 0.0000 0.0000 0.0000 27.8631 0.0000 -1.6379
# 5 16.6673 13.4122 28.6782 0.0000 32.6635 0.0000
# 6 0.0000 0.0000 0.0000 -1.6379 0.0000 12.1206
#
#
#
# Elastic Compliance Matrix: (Units=1/GPa)
#
#
# Indices 1 2 3 4 5 6 
#
# 1 0.014878 -0.007810 -0.004655 0.000000 -0.000298 0.000000
# 2 -0.007810 0.028638 0.000744 0.000000 -0.008428 0.000000
# 3 -0.004655 0.000744 0.008605 0.000000 -0.005485 0.000000
# 4 0.000000 0.000000 0.000000 0.036177 0.000000 0.004889
# 5 -0.000298 -0.008428 -0.005485 0.000000 0.039044 0.000000
# 6 0.000000 0.000000 0.000000 0.004889 0.000000 0.083165
#
#
# Mechanical properties :
#
#
# Convention : Reuss Voigt Hill
#
# Bulk Modulus (GPa) = 34.86685 61.53832 48.20258
# Shear Modulus (GPa) = 20.53327 27.93213 24.23270
#
# Velocity S-wave (km/s) = 3.08048 3.59287 3.34649
# Velocity P-wave (km/s) = 5.36339 6.75657 6.09988
#
# Compressibility (1/GPa) = 0.02868054
#
# Stress axis : x y z
#
# Youngs Moduli (GPa) = 67.21487 34.91828 116.21212
#
# Poissons Ratio (x) = 0.27270 0.54094
# Poissons Ratio (y) = 0.52492 -0.08647
# Poissons Ratio (z) = 0.31287 -0.02598
#
# Static dielectric constant tensor:
#      x y z
#    x 1.867200 0.000000 0.011510 
#    y 0.000000 1.770720 0.000000 
#    z 0.011510 0.000000 1.810230 
# 
# From -- ./inp_files/32458.got.cif
#   From: 2010.05.17/outbox.cif.g08.bks.cpg/sg15_17_cif.got.tgz:32458.got - 2010.06.03 18:47:42.
