data_PCOD9269104
_publ_section_title
;
Structure prediction by ZEFSAII (Michael W. Deem and Ramdas Pophale) SiO2 
 PCOD9269104
Probable space group: C 2/C
;
_chemical_formula_sum "Si O2"
_cell_formula_units_Z 44
_cell_length_a 14.515205
_cell_length_b 22.031321
_cell_length_c 18.094169
_cell_angle_alpha 90.000000
_cell_angle_beta 159.176962
_cell_angle_gamma 90.000000
_cell_volume 2056.936890
_symmetry_space_group_name_H-M "C 2/C"
_symmetry_group_IT_number 15
_symmetry_cell_setting 'monoclinic'
loop_
_space_group_symop_operation_xyz
x,y,z
-x,y,1/2-z
-x,-y,-z
x,-y,1/2+z
1/2+x,1/2+y,z
1/2-x,1/2+y,1/2-z
1/2-x,1/2-y,-z
1/2+x,1/2-y,1/2+z
loop_
_atom_site_type_symbol
_atom_site_label
_atom_site_fract_x
_atom_site_fract_y
_atom_site_fract_z
Si Si1 0.926499 0.208772 0.279281
Si Si2 0.000000 0.995087 0.750000
Si Si3 0.273954 0.502422 0.934364
Si Si4 0.433603 0.905850 0.009102
Si Si5 0.826515 0.833059 0.397988
Si Si6 0.756727 0.080619 0.281732
O O1 0.719058 0.156206 0.117470
O O2 0.803048 0.269083 0.223092
O O3 0.000000 0.220845 0.250000
O O4 0.156798 0.178774 0.500584
O O5 0.238953 0.951905 0.903547
O O6 0.894441 0.028107 0.598173
O O7 0.211231 0.456186 0.821831
O O8 0.000000 0.532625 0.750000
O O9 0.498834 0.547585 0.075717
O O10 0.468915 0.925075 0.949327
O O11 0.669789 0.886095 0.238093
O O12 0.127283 0.853031 0.611036
#
# Coordination Sequence:
#
# PCOD9269104 Si02
#       6
#     8   4   8   8   8   8
#     4  11  21  31  46  79 113 151 192 214 266 340
#     4  10  20  34  56  84 108 144 196 220 280 346
#     4  10  20  38  59  81 111 149 185 240 285 329
#     4  10  20  34  50  79 115 151 186 223 269 335
#     4  11  21  32  51  72 113 154 181 227 267 320
#     4   9  22  37  53  84 115 144 196 228 278 341
#
# _framework density 21.391031999999999
#
# number of rings (size 3 to 8) (size 9 to 14) (size 15 to 20)
#    0.000    1.818    2.727    1.636    0.000    2.182 
#    0.000    5.455    0.000    0.000    0.000    5.091 
#    0.000    0.182    0.000    0.000    0.000    0.000 
#
# Total GULP energy -122508.591203 kJ/mol
# GULP energy per Si atom -5568.572327 kJ/mol
# Density = 2.134235 g / cm^3
# Si number density = 21.391032 Si / 1000 Ang^3
#
#
#
# Elastic Constant Matrix: (Units=GPa)
#
#
# Indices 1 2 3 4 5 6 
#
# 1 78.3198 29.3867 47.8565 -0.0116 -37.0992 0.0269
# 2 29.3867 59.6505 15.2396 -0.0932 -12.6471 -0.0194
# 3 47.8565 15.2396 129.5016 -0.3686 -46.3876 0.0006
# 4 -0.0116 -0.0932 -0.3686 38.0256 -0.0482 -8.7693
# 5 -37.0992 -12.6471 -46.3876 -0.0482 44.6221 0.0085
# 6 0.0269 -0.0194 0.0006 -8.7693 0.0085 11.1420
#
#
#
# Elastic Compliance Matrix: (Units=1/GPa)
#
#
# Indices 1 2 3 4 5 6 
#
# 1 0.024866 -0.008272 -0.002629 -0.000047 0.015596 -0.000123
# 2 -0.008272 0.020605 0.000415 0.000078 -0.000605 0.000118
# 3 -0.002629 0.000415 0.012594 0.000166 0.011024 0.000129
# 4 -0.000047 0.000078 0.000166 0.032132 0.000186 0.025290
# 5 0.015596 -0.000605 0.011024 0.000186 0.046666 0.000071
# 6 -0.000123 0.000118 0.000129 0.025290 0.000071 0.109655
#
#
# Mechanical properties :
#
#
# Convention : Reuss Voigt Hill
#
# Bulk Modulus (GPa) = 26.95876 50.27084 38.61480
# Shear Modulus (GPa) = 17.86635 30.42387 24.14511
#
# Velocity S-wave (km/s) = 2.89316 3.77539 3.36333
# Velocity P-wave (km/s) = 4.87757 6.52355 5.75966
#
# Compressibility (1/GPa) = 0.03709369
#
# Stress axis : x y z
#
# Youngs Moduli (GPa) = 40.21498 48.53146 79.40296
#
# Poissons Ratio (x) = 0.40145 0.20877
# Poissons Ratio (y) = 0.33266 -0.03299
# Poissons Ratio (z) = 0.10574 -0.02016
#
# Static dielectric constant tensor:
#      x y z
#    x 1.860670 0.000060 -0.047160 
#    y 0.000060 1.866880 0.000020 
#    z -0.047160 0.000020 1.886870 
# 
# From -- ./inp_files/164433.got.cif
#   From: 2010.05.17/outbox.cif.g08.bks.cpg/sg15_83_cif.got.tgz:164433.got - 2010.06.03 18:47:42.
