data_PCOD9269316
_publ_section_title
;
Structure prediction by ZEFSAII (Michael W. Deem and Ramdas Pophale) SiO2 
 PCOD9269316
Probable space group: C 2/C
;
_chemical_formula_sum "Si O2"
_cell_formula_units_Z 52
_cell_length_a 20.804720
_cell_length_b 25.109393
_cell_length_c 5.354145
_cell_angle_alpha 90.000000
_cell_angle_beta 58.331736
_cell_angle_gamma 90.000000
_cell_volume 2380.509108
_symmetry_space_group_name_H-M "C 2/C"
_symmetry_group_IT_number 15
_symmetry_cell_setting 'monoclinic'
loop_
_space_group_symop_operation_xyz
x,y,z
-x,y,1/2-z
-x,-y,-z
x,-y,1/2+z
1/2+x,1/2+y,z
1/2-x,1/2+y,1/2-z
1/2-x,1/2-y,-z
1/2+x,1/2-y,1/2+z
loop_
_atom_site_type_symbol
_atom_site_label
_atom_site_fract_x
_atom_site_fract_y
_atom_site_fract_z
Si Si1 0.500000 0.568909 0.750000
Si Si2 0.662787 0.471091 0.032176
Si Si3 0.079981 0.275720 0.337546
Si Si4 0.080439 0.839559 0.810948
Si Si5 0.974203 0.617833 0.052242
Si Si6 0.159173 0.308856 0.676739
Si Si7 0.177017 0.148230 0.612392
O O1 0.428612 0.536379 0.795346
O O2 0.529336 0.609477 0.475915
O O3 0.683542 0.511948 0.209179
O O4 0.695253 0.414290 0.046365
O O5 0.041035 0.218145 0.407275
O O6 0.129882 0.281030 0.484969
O O7 0.022460 0.325693 0.453662
O O8 0.131527 0.280579 0.986195
O O9 0.122562 0.845257 0.461931
O O10 0.138218 0.838594 0.927131
O O11 0.887487 0.635283 0.227233
O O12 0.000000 0.589778 0.250000
O O13 0.000000 0.589475 0.750000
O O14 0.247654 0.318340 0.498932
#
# Coordination Sequence:
#
# PCOD9269316 Si02
#       7
#     4   8   8   8   8   8   8
#     4  10  24  40  60  88 110 146 190 248 278 322
#     4  11  23  42  64  82 107 140 187 240 304 351
#     4  10  20  34  55  78 109 160 189 222 258 318
#     4  11  24  37  54  79 117 147 191 227 273 320
#     4   8  16  30  48  74  98 137 191 215 249 299
#     4  10  20  35  54  75 114 144 191 229 266 322
#     4  11  24  40  54  84 109 142 182 238 286 340
#
# _framework density 21.844066999999999
#
# number of rings (size 3 to 8) (size 9 to 14) (size 15 to 20)
#    0.000    1.846    0.000    4.154    3.231    8.615 
#    8.308    0.000    0.000    0.000    0.000    0.000 
#    0.000   33.231    0.000    0.000    0.000    0.000 
#
# Total GULP energy -145342.406725 kJ/mol
# GULP energy per Si atom -5590.092566 kJ/mol
# Density = 2.179435 g / cm^3
# Si number density = 21.844067 Si / 1000 Ang^3
#
#
#
# Elastic Constant Matrix: (Units=GPa)
#
#
# Indices 1 2 3 4 5 6 
#
# 1 90.1695 8.4151 50.7262 0.0000 31.1274 0.0000
# 2 8.4151 30.9699 8.1321 0.0000 5.9475 0.0000
# 3 50.7262 8.1321 125.2618 0.0000 38.8187 0.0000
# 4 0.0000 0.0000 0.0000 19.6886 0.0000 0.5289
# 5 31.1274 5.9475 38.8187 0.0000 42.2768 0.0000
# 6 0.0000 0.0000 0.0000 0.5289 0.0000 14.5629
#
#
#
# Elastic Compliance Matrix: (Units=1/GPa)
#
#
# Indices 1 2 3 4 5 6 
#
# 1 0.016287 -0.001830 -0.003970 0.000000 -0.008089 0.000000
# 2 -0.001830 0.033479 -0.000546 0.000000 -0.002862 0.000000
# 3 -0.003970 -0.000546 0.012156 0.000000 -0.008162 0.000000
# 4 0.000000 0.000000 0.000000 0.050840 0.000000 -0.001846
# 5 -0.008089 -0.002862 -0.008162 0.000000 0.037506 0.000000
# 6 0.000000 0.000000 0.000000 -0.001846 0.000000 0.068735
#
#
# Mechanical properties :
#
#
# Convention : Reuss Voigt Hill
#
# Bulk Modulus (GPa) = 20.31234 42.32755 31.31994
# Shear Modulus (GPa) = 20.15287 27.24752 23.70019
#
# Velocity S-wave (km/s) = 3.04069 3.53564 3.29746
# Velocity P-wave (km/s) = 4.65260 6.00723 5.37278
#
# Compressibility (1/GPa) = 0.04923117
#
# Stress axis : x y z
#
# Youngs Moduli (GPa) = 61.39990 29.86913 82.26608
#
# Poissons Ratio (x) = 0.05465 0.32659
# Poissons Ratio (y) = 0.11233 0.04490
# Poissons Ratio (z) = 0.24375 0.01630
#
# Static dielectric constant tensor:
#      x y z
#    x 1.813350 0.000000 0.025800 
#    y 0.000000 1.798540 0.000000 
#    z 0.025800 0.000000 1.826670 
# 
# From -- ./inp_files/16207.got.cif
#   From: 2010.05.17/outbox.cif.g08.bks.cpg/sg15_9_cif.got.tgz:16207.got - 2010.06.03 18:47:42.
