data_PCOD9269023
_publ_section_title
;
Structure prediction by ZEFSAII (Michael W. Deem and Ramdas Pophale) SiO2 
 PCOD9269023
Probable space group: C 2/C
;
_chemical_formula_sum "Si O2"
_cell_formula_units_Z 48
_cell_length_a 9.116939
_cell_length_b 16.334573
_cell_length_c 16.031390
_cell_angle_alpha 90.000000
_cell_angle_beta 95.101593
_cell_angle_gamma 90.000000
_cell_volume 2377.958006
_symmetry_space_group_name_H-M "C 2/C"
_symmetry_group_IT_number 15
_symmetry_cell_setting 'monoclinic'
loop_
_space_group_symop_operation_xyz
x,y,z
-x,y,1/2-z
-x,-y,-z
x,-y,1/2+z
1/2+x,1/2+y,z
1/2-x,1/2+y,1/2-z
1/2-x,1/2-y,-z
1/2+x,1/2-y,1/2+z
loop_
_atom_site_type_symbol
_atom_site_label
_atom_site_fract_x
_atom_site_fract_y
_atom_site_fract_z
Si Si1 0.967039 0.953090 0.083527
Si Si2 0.000000 0.233713 0.750000
Si Si3 0.153349 0.496451 0.603282
Si Si4 0.404095 0.739532 0.559654
Si Si5 0.268326 0.386689 0.319598
Si Si6 0.500000 0.005610 0.750000
Si Si7 0.571819 0.132331 0.962027
O O1 0.825404 0.987671 0.124626
O O2 0.935635 0.857418 0.063802
O O3 0.114217 0.953785 0.144720
O O4 0.000000 0.000000 0.000000
O O5 0.931962 0.269050 0.658258
O O6 0.861865 0.178564 0.773436
O O7 0.052525 0.457716 0.671234
O O8 0.144102 0.436207 0.524550
O O9 0.071373 0.582741 0.579724
O O10 0.250000 0.750000 0.500000
O O11 0.520662 0.789786 0.510691
O O12 0.186015 0.347374 0.394876
O O13 0.138824 0.435219 0.268724
#
# Coordination Sequence:
#
# PCOD9269023 Si02
#       7
#     8   4   8   8   8   4   8
#     4  11  21  39  62  93 122 164 212 265 321 384
#     4  10  24  39  60  98 127 168 212 272 329 386
#     4  10  20  37  60  92 125 164 213 261 318 391
#     4  11  23  41  67  93 129 172 214 267 326 383
#     4  10  21  37  62  91 129 166 218 264 321 395
#     4  10  20  33  60  92 121 170 212 268 313 386
#     4  10  21  38  63  92 122 171 218 253 320 391
#
# _framework density 20.185385
#
# number of rings (size 3 to 8) (size 9 to 14) (size 15 to 20)
#    0.000    1.667    3.333    2.000    2.333    3.333 
#    0.000    0.000    0.000    0.000    0.000    0.000 
#    0.000    0.000    0.000    0.000    0.000    0.000 
#
# Total GULP energy -133716.871837 kJ/mol
# GULP energy per Si atom -5571.536327 kJ/mol
# Density = 2.013944 g / cm^3
# Si number density = 20.185385 Si / 1000 Ang^3
#
#
#
# Elastic Constant Matrix: (Units=GPa)
#
#
# Indices 1 2 3 4 5 6 
#
# 1 147.3244 21.7727 47.2689 0.0000 1.5588 0.0000
# 2 21.7727 47.7663 21.1415 0.0000 -6.3133 0.0000
# 3 47.2689 21.1415 113.4681 0.0000 -14.1917 0.0000
# 4 0.0000 0.0000 0.0000 5.9926 0.0000 -18.7811
# 5 1.5588 -6.3133 -14.1917 0.0000 60.1775 0.0000
# 6 0.0000 0.0000 0.0000 -18.7811 0.0000 14.0625
#
#
#
# Elastic Compliance Matrix: (Units=1/GPa)
#
#
# Indices 1 2 3 4 5 6 
#
# 1 0.008161 -0.002515 -0.003081 0.000000 -0.001202 0.000000
# 2 -0.002515 0.023713 -0.003144 0.000000 0.001811 0.000000
# 3 -0.003081 -0.003144 0.010975 0.000000 0.002338 0.000000
# 4 0.000000 0.000000 0.000000 -0.052382 0.000000 -0.069959
# 5 -0.001202 0.001811 0.002338 0.000000 0.017390 0.000000
# 6 0.000000 0.000000 0.000000 -0.069959 0.000000 -0.022322
#
#
# Mechanical properties :
#
#
# Convention : Reuss Voigt Hill
#
# Bulk Modulus (GPa) = 39.42000 54.32502 46.87251
# Shear Modulus (GPa) = 435.89774 30.60491 233.25132
#
# Velocity S-wave (km/s) = 14.71108 3.89805 10.76129
# Velocity P-wave (km/s) = 17.55352 6.87250 13.32962
#
# Compressibility (1/GPa) = 0.02536784
#
# Stress axis : x y z
#
# Youngs Moduli (GPa) = 122.53724 42.17184 91.11668
#
# Poissons Ratio (x) = 0.10606 0.28077
# Poissons Ratio (y) = 0.30816 0.28647
# Poissons Ratio (z) = 0.37759 0.13259
#
# Static dielectric constant tensor:
#      x y z
#    x 1.551330 0.000000 0.421050 
#    y 0.000000 1.693420 0.000000 
#    z 0.421050 0.000000 0.951430 
# 
# From -- ./inp_files/134898.got.cif
#   From: 2010.05.17/outbox.cif.g08.bks.cpg/sg15_68_cif.got.tgz:134898.got - 2010.06.03 18:47:42.
