data_PCOD9269119
_publ_section_title
;
Structure prediction by ZEFSAII (Michael W. Deem and Ramdas Pophale) SiO2 
 PCOD9269119
Probable space group: C 2/C
;
_chemical_formula_sum "Si O2"
_cell_formula_units_Z 60
_cell_length_a 24.369223
_cell_length_b 27.081004
_cell_length_c 5.316424
_cell_angle_alpha 90.000000
_cell_angle_beta 61.682568
_cell_angle_gamma 90.000000
_cell_volume 3088.681107
_symmetry_space_group_name_H-M "C 2/C"
_symmetry_group_IT_number 15
_symmetry_cell_setting 'monoclinic'
loop_
_space_group_symop_operation_xyz
x,y,z
-x,y,1/2-z
-x,-y,-z
x,-y,1/2+z
1/2+x,1/2+y,z
1/2-x,1/2+y,1/2-z
1/2-x,1/2-y,-z
1/2+x,1/2-y,1/2+z
loop_
_atom_site_type_symbol
_atom_site_label
_atom_site_fract_x
_atom_site_fract_y
_atom_site_fract_z
Si Si1 0.500000 0.134938 0.750000
Si Si2 0.290792 0.849344 0.626304
Si Si3 0.099348 0.611657 0.874453
Si Si4 0.648155 0.028883 0.090337
Si Si5 0.209463 0.859905 0.305649
Si Si6 0.435141 0.207835 0.270795
Si Si7 0.821370 0.753214 0.243190
Si Si8 0.299093 0.530173 0.741432
O O1 0.535668 0.101368 0.871348
O O2 0.545115 0.172861 0.505634
O O3 0.344047 0.888655 0.445642
O O4 0.242573 0.856819 0.504054
O O5 0.318262 0.793760 0.564511
O O6 0.259120 0.857347 0.965910
O O7 0.115839 0.579154 0.076511
O O8 0.091303 0.667884 0.978961
O O9 0.631046 0.007673 0.397337
O O10 0.723327 0.034197 0.910293
O O11 0.170957 0.808961 0.370629
O O12 0.177891 0.913444 0.342311
O O13 0.500000 0.228607 0.250000
O O14 0.378448 0.242513 0.309044
O O15 0.750000 0.750000 0.500000
O O16 0.316563 0.496293 0.464592
#
# Coordination Sequence:
#
# PCOD9269119 Si02
#       8
#     4   8   8   8   8   8   8   8
#     4  10  22  36  58  76 100 152 188 230 276 344
#     4  11  21  34  57  80 117 142 182 233 284 338
#     4  11  21  36  58  72 106 139 200 228 286 331
#     4  10  23  34  54  76  99 138 186 245 290 326
#     4  11  22  35  54  86 113 148 179 234 283 339
#     4  10  22  40  58  81 113 155 189 227 278 352
#     4  10  21  36  58  89 117 145 187 232 290 333
#     4  10  20  34  51  75 109 148 186 220 278 339
#
# _framework density 19.425767
#
# number of rings (size 3 to 8) (size 9 to 14) (size 15 to 20)
#    0.000    1.600    2.667    2.800    5.600    1.067 
#    0.000    0.667    0.000    0.000    0.000    0.000 
#    0.000    1.067    0.000    0.000    0.000    0.000 
#
# Total GULP energy -167397.766588 kJ/mol
# GULP energy per Si atom -5579.925553 kJ/mol
# Density = 1.938155 g / cm^3
# Si number density = 19.425767 Si / 1000 Ang^3
#
#
#
# Elastic Constant Matrix: (Units=GPa)
#
#
# Indices 1 2 3 4 5 6 
#
# 1 62.5653 13.3551 8.1494 0.0000 1.2785 0.0000
# 2 13.3551 103.8760 12.2776 0.0000 8.9284 0.0000
# 3 8.1494 12.2776 59.7010 0.0000 8.9799 0.0000
# 4 0.0000 0.0000 0.0000 21.1710 0.0000 10.3711
# 5 1.2785 8.9284 8.9799 0.0000 16.8332 0.0000
# 6 0.0000 0.0000 0.0000 10.3711 0.0000 25.4239
#
#
#
# Elastic Compliance Matrix: (Units=1/GPa)
#
#
# Indices 1 2 3 4 5 6 
#
# 1 0.016648 -0.001978 -0.001993 0.000000 0.000848 0.000000
# 2 -0.001978 0.010427 -0.001158 0.000000 -0.004763 0.000000
# 3 -0.001993 -0.001158 0.018641 0.000000 -0.009179 0.000000
# 4 0.000000 0.000000 0.000000 0.059031 0.000000 -0.024080
# 5 0.000848 -0.004763 -0.009179 0.000000 0.066765 0.000000
# 6 0.000000 0.000000 0.000000 -0.024080 0.000000 0.049156
#
#
# Mechanical properties :
#
#
# Convention : Reuss Voigt Hill
#
# Bulk Modulus (GPa) = 28.20232 32.63404 30.41818
# Shear Modulus (GPa) = 20.59777 25.50963 23.05370
#
# Velocity S-wave (km/s) = 3.25981 3.62772 3.44867
# Velocity P-wave (km/s) = 5.35891 5.86370 5.61698
#
# Compressibility (1/GPa) = 0.03545808
#
# Stress axis : x y z
#
# Youngs Moduli (GPa) = 60.06813 95.90143 53.64529
#
# Poissons Ratio (x) = 0.18966 0.10693
# Poissons Ratio (y) = 0.11879 0.06212
# Poissons Ratio (z) = 0.11973 0.11106
#
# Static dielectric constant tensor:
#      x y z
#    x 1.702220 0.000000 0.007540 
#    y 0.000000 1.736920 0.000000 
#    z 0.007540 0.000000 1.739010 
# 
# From -- ./inp_files/16357.got.cif
#   From: 2010.05.17/outbox.cif.g08.bks.cpg/sg15_9_cif.got.tgz:16357.got - 2010.06.03 18:47:42.
