data_PCOD9269577
_publ_section_title
;
Structure prediction by ZEFSAII (Michael W. Deem and Ramdas Pophale) SiO2 
 PCOD9269577
Probable space group: C 2/C
;
_chemical_formula_sum "Si O2"
_cell_formula_units_Z 60
_cell_length_a 34.008053
_cell_length_b 11.088066
_cell_length_c 8.882899
_cell_angle_alpha 90.000000
_cell_angle_beta 96.728138
_cell_angle_gamma 90.000000
_cell_volume 3326.527085
_symmetry_space_group_name_H-M "C 2/C"
_symmetry_group_IT_number 15
_symmetry_cell_setting 'monoclinic'
loop_
_space_group_symop_operation_xyz
x,y,z
-x,y,1/2-z
-x,-y,-z
x,-y,1/2+z
1/2+x,1/2+y,z
1/2-x,1/2+y,1/2-z
1/2-x,1/2-y,-z
1/2+x,1/2-y,1/2+z
loop_
_atom_site_type_symbol
_atom_site_label
_atom_site_fract_x
_atom_site_fract_y
_atom_site_fract_z
Si Si1 0.306230 0.449724 0.131714
Si Si2 0.324136 0.078511 0.118321
Si Si3 0.237345 0.864997 0.684537
Si Si4 0.821736 0.331933 0.275959
Si Si5 0.369649 0.273920 0.296923
Si Si6 0.127031 0.853872 0.868408
Si Si7 0.936902 0.056331 0.714254
Si Si8 0.000000 0.000000 0.000000
O O1 0.274078 0.524580 0.211377
O O2 0.331294 0.357000 0.242930
O O3 0.338383 0.547473 0.090178
O O4 0.286526 0.385518 0.981203
O O5 0.283107 0.130743 0.166496
O O6 0.359099 0.143994 0.225700
O O7 0.323011 0.936933 0.153163
O O8 0.326608 0.110949 0.943514
O O9 0.219538 0.742428 0.745345
O O10 0.855851 0.234557 0.252012
O O11 0.378316 0.282342 0.478112
O O12 0.405720 0.337187 0.225920
O O13 0.088643 0.931589 0.807313
O O14 0.963631 0.064309 0.579278
O O15 0.967186 0.049269 0.864895
#
# Coordination Sequence:
#
# PCOD9269577 Si02
#       8
#     8   8   8   8   8   8   8   4
#     4  10  20  34  58  82 112 156 199 257 314 349
#     4  12  25  38  58  78 117 160 217 258 311 344
#     4  11  22  38  57  81 115 152 212 273 309 355
#     4  11  25  40  56  83 112 162 212 259 302 355
#     4  11  21  36  57  84 121 161 195 245 299 364
#     4  10  21  37  59  85 122 157 199 238 307 362
#     4  10  21  36  62  99 130 152 185 231 302 376
#     4  10  20  36  62 100 132 150 176 230 302 376
#
# _framework density 18.036828
#
# number of rings (size 3 to 8) (size 9 to 14) (size 15 to 20)
#    0.000    1.333    4.000    2.000    3.733    0.000 
#    0.000    3.333    0.000    0.000    0.000    5.600 
#    0.000    0.000    0.000    0.000    0.000    0.000 
#
# Total GULP energy -167038.538662 kJ/mol
# GULP energy per Si atom -5567.951289 kJ/mol
# Density = 1.799578 g / cm^3
# Si number density = 18.036828 Si / 1000 Ang^3
#
#
#
# Elastic Constant Matrix: (Units=GPa)
#
#
# Indices 1 2 3 4 5 6 
#
# 1 102.4011 31.2060 19.7684 0.0000 -1.8355 0.0000
# 2 31.2060 75.0959 10.1102 0.0000 5.6430 0.0000
# 3 19.7684 10.1102 21.3412 0.0000 -2.2597 0.0000
# 4 0.0000 0.0000 0.0000 24.3489 0.0000 -6.4115
# 5 -1.8355 5.6430 -2.2597 0.0000 22.7103 0.0000
# 6 0.0000 0.0000 0.0000 -6.4115 0.0000 11.1463
#
#
#
# Elastic Compliance Matrix: (Units=1/GPa)
#
#
# Indices 1 2 3 4 5 6 
#
# 1 0.012962 -0.004130 -0.009935 0.000000 0.001085 0.000000
# 2 -0.004130 0.015957 -0.004234 0.000000 -0.004720 0.000000
# 3 -0.009935 -0.004234 0.058711 0.000000 0.006091 0.000000
# 4 0.000000 0.000000 0.000000 0.048401 0.000000 0.027841
# 5 0.001085 -0.004720 0.006091 0.000000 0.045899 0.000000
# 6 0.000000 0.000000 0.000000 0.027841 0.000000 0.105730
#
#
# Mechanical properties :
#
#
# Convention : Reuss Voigt Hill
#
# Bulk Modulus (GPa) = 19.59532 35.66749 27.63140
# Shear Modulus (GPa) = 14.65127 20.82467 17.73797
#
# Velocity S-wave (km/s) = 2.85317 3.40157 3.13937
# Velocity P-wave (km/s) = 4.66281 5.93678 5.33794
#
# Compressibility (1/GPa) = 0.05103260
#
# Stress axis : x y z
#
# Youngs Moduli (GPa) = 77.15150 62.66750 17.03261
#
# Poissons Ratio (x) = 0.25883 0.16921
# Poissons Ratio (y) = 0.31865 0.07211
# Poissons Ratio (z) = 0.76648 0.26531
#
# Static dielectric constant tensor:
#      x y z
#    x 1.530390 0.000000 -0.025450 
#    y 0.000000 1.642680 0.000000 
#    z -0.025450 0.000000 1.626080 
# 
# From -- ./inp_files/69420.got.cif
#   From: 2010.05.17/outbox.cif.g08.bks.cpg/sg15_35_cif.got.tgz:69420.got - 2010.06.03 18:47:42.
