data_PCOD9269609
_publ_section_title
;
Structure prediction by ZEFSAII (Michael W. Deem and Ramdas Pophale) SiO2 
 PCOD9269609
Probable space group: C 2/C
;
_chemical_formula_sum "Si O2"
_cell_formula_units_Z 60
_cell_length_a 17.460076
_cell_length_b 17.607130
_cell_length_c 16.812253
_cell_angle_alpha 90.000000
_cell_angle_beta 145.975495
_cell_angle_gamma 90.000000
_cell_volume 2891.994879
_symmetry_space_group_name_H-M "C 2/C"
_symmetry_group_IT_number 15
_symmetry_cell_setting 'monoclinic'
loop_
_space_group_symop_operation_xyz
x,y,z
-x,y,1/2-z
-x,-y,-z
x,-y,1/2+z
1/2+x,1/2+y,z
1/2-x,1/2+y,1/2-z
1/2-x,1/2-y,-z
1/2+x,1/2-y,1/2+z
loop_
_atom_site_type_symbol
_atom_site_label
_atom_site_fract_x
_atom_site_fract_y
_atom_site_fract_z
Si Si1 0.000000 0.728670 0.250000
Si Si2 0.619156 0.821901 0.571882
Si Si3 0.152511 0.976774 0.404542
Si Si4 0.584228 0.066284 0.894903
Si Si5 0.881373 0.949829 0.938686
Si Si6 0.263840 0.174592 0.924321
Si Si7 0.922140 0.459491 0.861123
Si Si8 0.626267 0.277693 0.623549
O O1 0.119608 0.780504 0.314627
O O2 0.104035 0.685907 0.401800
O O3 0.599472 0.878493 0.482339
O O4 0.580895 0.870602 0.618883
O O5 0.518005 0.753187 0.474429
O O6 0.770069 0.791579 0.715527
O O7 0.135715 0.951156 0.481106
O O8 0.212845 0.911466 0.397194
O O9 0.000000 0.000175 0.250000
O O10 0.265035 0.041840 0.499964
O O11 0.500000 0.100962 0.750000
O O12 0.497529 0.991633 0.848510
O O13 0.737351 0.979958 0.779629
O O14 0.894362 0.860463 0.932012
O O15 0.000000 0.000000 0.000000
O O16 0.312234 0.213939 0.883755
O O17 0.000000 0.500000 0.000000
#
# Coordination Sequence:
#
# PCOD9269609 Si02
#       8
#     4   8   8   8   8   8   8   8
#     4  10  20  34  58  86 144 176 218 262 328 402
#     4  10  24  43  68 100 133 179 229 271 338 406
#     4  12  27  40  66 103 138 179 225 286 347 402
#     4  11  23  46  71  97 135 178 235 282 335 400
#     4  11  25  43  67 100 138 183 223 277 345 407
#     4  11  22  39  60  98 139 183 223 267 335 411
#     4   9  20  41  69  99 129 180 227 278 329 403
#     4  11  24  42  67  94 139 179 223 278 332 401
#
# _framework density 20.746924
#
# number of rings (size 3 to 8) (size 9 to 14) (size 15 to 20)
#    0.000    1.333    2.000    3.200    8.400    4.267 
#    0.000    0.667    0.000    0.000    0.000    0.000 
#    0.000    0.000    0.000    0.000    0.000    0.000 
#
# Total GULP energy -167269.549808 kJ/mol
# GULP energy per Si atom -5575.651660 kJ/mol
# Density = 2.069970 g / cm^3
# Si number density = 20.746924 Si / 1000 Ang^3
#
#
#
# Elastic Constant Matrix: (Units=GPa)
#
#
# Indices 1 2 3 4 5 6 
#
# 1 69.0968 33.3833 41.0271 -0.0002 6.1868 -0.0001
# 2 33.3833 28.3823 23.4090 -0.0005 -2.0058 -0.0003
# 3 41.0271 23.4090 142.9151 -0.0009 7.8867 -0.0005
# 4 -0.0002 -0.0005 -0.0009 24.3971 -0.0005 4.7860
# 5 6.1868 -2.0058 7.8867 -0.0005 29.2093 -0.0003
# 6 -0.0001 -0.0003 -0.0005 4.7860 -0.0003 16.6708
#
#
#
# Elastic Compliance Matrix: (Units=1/GPa)
#
#
# Indices 1 2 3 4 5 6 
#
# 1 0.037921 -0.042538 -0.003364 -0.000001 -0.010045 -0.000001
# 2 -0.042538 0.089091 -0.003265 0.000001 0.016009 0.000001
# 3 -0.003364 -0.003265 0.008599 0.000000 -0.001833 0.000000
# 4 -0.000001 0.000001 0.000000 0.043435 0.000001 -0.012470
# 5 -0.010045 0.016009 -0.001833 0.000001 0.037958 0.000001
# 6 -0.000001 0.000001 0.000000 -0.012470 0.000001 0.063565
#
#
# Mechanical properties :
#
#
# Convention : Reuss Voigt Hill
#
# Bulk Modulus (GPa) = 26.82640 48.44810 37.63725
# Shear Modulus (GPa) = 12.77702 23.56044 18.16873
#
# Velocity S-wave (km/s) = 2.48433 3.37354 2.96249
# Velocity P-wave (km/s) = 4.60299 6.21104 5.46647
#
# Compressibility (1/GPa) = 0.03727672
#
# Stress axis : x y z
#
# Youngs Moduli (GPa) = 26.37050 11.22451 116.29451
#
# Poissons Ratio (x) = 0.47747 0.39124
# Poissons Ratio (y) = 1.12175 0.37966
# Poissons Ratio (z) = 0.08872 0.03664
#
# Static dielectric constant tensor:
#      x y z
#    x 1.794290 0.000000 -0.010400 
#    y 0.000000 1.711480 0.000000 
#    z -0.010400 0.000000 1.708630 
# 
# From -- ./inp_files/211769.got.cif
#   From: 2010.05.17/outbox.cif.g08.bks.cpg/sg15_106_cif.got.tgz:211769.got - 2010.06.03 18:47:42.
