data_PCOD9269344
_publ_section_title
;
Structure prediction by ZEFSAII (Michael W. Deem and Ramdas Pophale) SiO2 
 PCOD9269344
Probable space group: C 2/C
;
_chemical_formula_sum "Si O2"
_cell_formula_units_Z 48
_cell_length_a 10.168581
_cell_length_b 10.507099
_cell_length_c 17.846042
_cell_angle_alpha 90.000000
_cell_angle_beta 72.600032
_cell_angle_gamma 90.000000
_cell_volume 1819.461752
_symmetry_space_group_name_H-M "C 2/C"
_symmetry_group_IT_number 15
_symmetry_cell_setting 'monoclinic'
loop_
_space_group_symop_operation_xyz
x,y,z
-x,y,1/2-z
-x,-y,-z
x,-y,1/2+z
1/2+x,1/2+y,z
1/2-x,1/2+y,1/2-z
1/2-x,1/2-y,-z
1/2+x,1/2-y,1/2+z
loop_
_atom_site_type_symbol
_atom_site_label
_atom_site_fract_x
_atom_site_fract_y
_atom_site_fract_z
Si Si1 0.216993 0.134691 0.910665
Si Si2 0.555822 0.786673 0.585142
Si Si3 0.000000 0.112056 0.250000
Si Si4 0.712304 0.177376 0.753709
Si Si5 0.176601 0.611251 0.919312
Si Si6 0.151111 0.104699 0.082685
Si Si7 0.500000 0.206532 0.250000
O O1 0.278267 0.085985 0.820641
O O2 0.325143 0.243490 0.920498
O O3 0.076776 0.202354 0.909019
O O4 0.165379 0.059608 0.993213
O O5 0.688146 0.696542 0.580999
O O6 0.580667 0.865314 0.506041
O O7 0.530458 0.862262 0.666714
O O8 0.136731 0.196360 0.237582
O O9 0.029929 0.059643 0.160309
O O10 0.631711 0.146050 0.843406
O O11 0.867105 0.205943 0.754922
O O12 0.218247 0.465535 0.905139
#
# Coordination Sequence:
#
# PCOD9269344 Si02
#       7
#     8   8   4   8   8   8   4
#     4   9  19  37  54  74 109 147 182 225 271 321
#     4   9  18  34  54  76 109 145 182 227 273 321
#     4  10  20  35  58  83 110 146 184 229 278 323
#     4   9  18  35  57  79 109 146 183 226 275 323
#     4  10  20  34  55  83 110 142 183 227 274 327
#     4  10  21  35  55  81 109 143 184 226 272 325
#     4   8  16  33  56  77 106 150 184 217 272 327
#
# _framework density 26.381426999999999
#
# number of rings (size 3 to 8) (size 9 to 14) (size 15 to 20)
#    0.000    2.667    0.000    1.000    0.000    5.333 
#    0.000   11.667    0.000    8.000    0.000    0.000 
#    0.000    0.000    0.000    0.000    0.000    0.000 
#
# Total GULP energy -133741.152814 kJ/mol
# GULP energy per Si atom -5572.548034 kJ/mol
# Density = 2.632138 g / cm^3
# Si number density = 26.381427 Si / 1000 Ang^3
#
#
#
# Elastic Constant Matrix: (Units=GPa)
#
#
# Indices 1 2 3 4 5 6 
#
# 1 70.7930 11.5136 13.4350 0.0000 -7.0211 0.0000
# 2 11.5136 40.5864 28.4750 0.0000 -0.7016 0.0000
# 3 13.4350 28.4750 345.5421 0.0000 -2.0592 0.0000
# 4 0.0000 0.0000 0.0000 -19.0721 0.0000 12.8083
# 5 -7.0211 -0.7016 -2.0592 0.0000 37.2614 0.0000
# 6 0.0000 0.0000 0.0000 12.8083 0.0000 24.3626
#
#
#
# Elastic Compliance Matrix: (Units=1/GPa)
#
#
# Indices 1 2 3 4 5 6 
#
# 1 0.015106 -0.004073 -0.000235 0.000000 0.002757 0.000000
# 2 -0.004073 0.027254 -0.002090 0.000000 -0.000370 0.000000
# 3 -0.000235 -0.002090 0.003076 0.000000 0.000086 0.000000
# 4 0.000000 0.000000 0.000000 -0.038751 0.000000 0.020373
# 5 0.002757 -0.000370 0.000086 0.000000 0.027355 0.000000
# 6 0.000000 0.000000 0.000000 0.020373 0.000000 0.030336
#
#
# Mechanical properties :
#
#
# Convention : Reuss Voigt Hill
#
# Bulk Modulus (GPa) = 30.63672 62.64096 46.63884
# Shear Modulus (GPa) = 56.78522 35.41024 46.09773
#
# Velocity S-wave (km/s) = 4.64450 3.66764 4.18467
# Velocity P-wave (km/s) = 6.35611 6.45998 6.40825
#
# Compressibility (1/GPa) = 0.03264057
#
# Stress axis : x y z
#
# Youngs Moduli (GPa) = 66.19835 36.69200 325.11064
#
# Poissons Ratio (x) = 0.14943 0.07650
# Poissons Ratio (y) = 0.26960 0.67940
# Poissons Ratio (z) = 0.01558 0.07668
#
# Static dielectric constant tensor:
#      x y z
#    x 2.041630 0.000000 -0.014140 
#    y 0.000000 2.078270 0.000000 
#    z -0.014140 0.000000 2.236260 
# 
# From -- ./inp_files/196067.got.cif
#   From: 2010.05.17/outbox.cif.g08.bks.cpg/sg15_99_cif.got.tgz:196067.got - 2010.06.03 18:47:42.
