data_PCOD9269201
_publ_section_title
;
Structure prediction by ZEFSAII (Michael W. Deem and Ramdas Pophale) SiO2 
 PCOD9269201
Probable space group: C 2/C
;
_chemical_formula_sum "Si O2"
_cell_formula_units_Z 64
_cell_length_a 14.411361
_cell_length_b 8.077262
_cell_length_c 29.065907
_cell_angle_alpha 90.000000
_cell_angle_beta 74.787859
_cell_angle_gamma 90.000000
_cell_volume 3264.846520
_symmetry_space_group_name_H-M "C 2/C"
_symmetry_group_IT_number 15
_symmetry_cell_setting 'monoclinic'
loop_
_space_group_symop_operation_xyz
x,y,z
-x,y,1/2-z
-x,-y,-z
x,-y,1/2+z
1/2+x,1/2+y,z
1/2-x,1/2+y,1/2-z
1/2-x,1/2-y,-z
1/2+x,1/2-y,1/2+z
loop_
_atom_site_type_symbol
_atom_site_label
_atom_site_fract_x
_atom_site_fract_y
_atom_site_fract_z
Si Si1 0.986652 0.718574 0.631250
Si Si2 0.652219 0.436791 0.791552
Si Si3 0.485243 0.486209 0.947533
Si Si4 0.800744 0.471580 0.118336
Si Si5 0.880327 0.190493 0.631230
Si Si6 0.826504 0.195957 0.789058
Si Si7 0.198267 0.201053 0.553634
Si Si8 0.571448 0.121055 0.145160
O O1 0.896473 0.619224 0.622438
O O2 0.026179 0.820387 0.582103
O O3 0.052558 0.575153 0.644091
O O4 0.941330 0.840718 0.675972
O O5 0.677005 0.570443 0.827677
O O6 0.741485 0.307584 0.776437
O O7 0.633596 0.557087 0.750827
O O8 0.577329 0.575146 0.913602
O O9 0.392601 0.592752 0.948078
O O10 0.500000 0.500000 0.000000
O O11 0.816100 0.665089 0.119661
O O12 0.720708 0.411476 0.164187
O O13 0.773054 0.407944 0.072343
O O14 0.973061 0.278131 0.644303
O O15 0.897325 0.316883 0.808181
O O16 0.250000 0.250000 0.500000
O O17 0.153024 0.332904 0.596159
#
# Coordination Sequence:
#
# PCOD9269201 Si02
#       8
#     8   8   8   8   8   8   8   8
#     4   9  19  37  58  80 108 145 185 226 275 331
#     4  10  20  35  56  81 111 142 178 224 277 335
#     4  10  20  34  53  79 111 143 182 228 273 328
#     4   9  18  35  57  77 106 143 179 221 272 327
#     4   9  19  36  55  76 106 146 182 220 275 330
#     4  10  20  35  56  82 110 140 178 228 278 329
#     4  10  20  34  54  81 110 144 183 225 278 330
#     4   9  20  38  57  77 108 147 187 231 274 331
#
# _framework density 19.60276
#
# number of rings (size 3 to 8) (size 9 to 14) (size 15 to 20)
#    0.000    2.500    0.000    1.500    0.000    3.500 
#    0.000    8.750    0.000    3.000    0.000    0.000 
#    0.000    0.000    0.000    0.000    0.000    0.000 
#
# Total GULP energy -178324.385290 kJ/mol
# GULP energy per Si atom -5572.637040 kJ/mol
# Density = 1.955814 g / cm^3
# Si number density = 19.602760 Si / 1000 Ang^3
#
#
#
# Elastic Constant Matrix: (Units=GPa)
#
#
# Indices 1 2 3 4 5 6 
#
# 1 29.2492 14.8398 21.9407 0.0000 8.8483 0.0000
# 2 14.8398 95.9198 42.8480 0.0000 10.4365 0.0000
# 3 21.9407 42.8480 103.4925 0.0000 20.2326 0.0000
# 4 0.0000 0.0000 0.0000 20.7676 0.0000 8.6333
# 5 8.8483 10.4365 20.2326 0.0000 18.2812 0.0000
# 6 0.0000 0.0000 0.0000 8.6333 0.0000 17.3477
#
#
#
# Elastic Compliance Matrix: (Units=1/GPa)
#
#
# Indices 1 2 3 4 5 6 
#
# 1 0.043835 -0.002871 -0.005458 0.000000 -0.013537 0.000000
# 2 -0.002871 0.013028 -0.004598 0.000000 -0.000960 0.000000
# 3 -0.005458 -0.004598 0.014922 0.000000 -0.011249 0.000000
# 4 0.000000 0.000000 0.000000 0.060712 0.000000 -0.030215
# 5 -0.013537 -0.000960 -0.011249 0.000000 0.074250 0.000000
# 6 0.000000 0.000000 0.000000 -0.030215 0.000000 0.072681
#
#
# Mechanical properties :
#
#
# Convention : Reuss Voigt Hill
#
# Bulk Modulus (GPa) = 21.77132 43.10206 32.43669
# Shear Modulus (GPa) = 15.59617 21.21484 18.40550
#
# Velocity S-wave (km/s) = 2.82372 3.29331 3.06751
# Velocity P-wave (km/s) = 4.66493 6.04125 5.39714
#
# Compressibility (1/GPa) = 0.04593198
#
# Stress axis : x y z
#
# Youngs Moduli (GPa) = 22.81296 76.75984 67.01425
#
# Poissons Ratio (x) = 0.22035 0.36577
# Poissons Ratio (y) = 0.06549 0.30810
# Poissons Ratio (z) = 0.12452 0.35290
#
# Static dielectric constant tensor:
#      x y z
#    x 1.717920 0.000000 -0.021890 
#    y 0.000000 1.701960 0.000000 
#    z -0.021890 0.000000 1.689750 
# 
# From -- ./inp_files/295133.got.cif
#   From: 2010.05.17/outbox.cif.g08.bks.cpg/sg15_148_cif.got.tgz:295133.got - 2010.06.03 18:47:42.
