data_PCOD9269203
_publ_section_title
;
Structure prediction by ZEFSAII (Michael W. Deem and Ramdas Pophale) SiO2 
 PCOD9269203
Probable space group: C 2/C
;
_chemical_formula_sum "Si O2"
_cell_formula_units_Z 48
_cell_length_a 12.502667
_cell_length_b 19.988610
_cell_length_c 18.561500
_cell_angle_alpha 90.000000
_cell_angle_beta 153.254513
_cell_angle_gamma 90.000000
_cell_volume 2087.555176
_symmetry_space_group_name_H-M "C 2/C"
_symmetry_group_IT_number 15
_symmetry_cell_setting 'monoclinic'
loop_
_space_group_symop_operation_xyz
x,y,z
-x,y,1/2-z
-x,-y,-z
x,-y,1/2+z
1/2+x,1/2+y,z
1/2-x,1/2+y,1/2-z
1/2-x,1/2-y,-z
1/2+x,1/2-y,1/2+z
loop_
_atom_site_type_symbol
_atom_site_label
_atom_site_fract_x
_atom_site_fract_y
_atom_site_fract_z
Si Si1 0.589882 0.370778 0.940087
Si Si2 0.797423 0.680131 0.069259
Si Si3 0.056871 0.362080 0.593072
Si Si4 0.492602 0.887693 0.396644
Si Si5 0.280397 0.983017 0.157751
Si Si6 0.858936 0.206088 0.892705
O O1 0.315932 0.390311 0.767850
O O2 0.742629 0.422328 0.079153
O O3 0.610167 0.305545 0.003515
O O4 0.727657 0.373742 0.947850
O O5 0.000000 0.690993 0.250000
O O6 0.886416 0.632327 0.059351
O O7 0.750000 0.750000 0.000000
O O8 0.565170 0.663858 0.975634
O O9 0.108169 0.283209 0.607627
O O10 0.945027 0.388750 0.452590
O O11 0.386386 0.954018 0.295698
O O12 0.373905 0.826040 0.281750
O O13 0.500000 0.023699 0.250000
O O14 0.000000 0.000000 0.000000
#
# Coordination Sequence:
#
# PCOD9269203 Si02
#       6
#     8   8   8   8   8   8
#     4  10  20  37  56  86 117 151 194 241 294 349
#     4  10  21  34  51  73 113 167 208 240 282 324
#     4  11  21  33  55  84 122 162 195 237 287 346
#     4  10  22  35  56  87 119 151 194 245 294 345
#     4   9  20  43  67  86 114 150 196 250 314 372
#     4  10  20  34  53  79 122 164 204 230 276 347
#
# _framework density 22.993403000000001
#
# number of rings (size 3 to 8) (size 9 to 14) (size 15 to 20)
#    0.000    2.000    1.667    3.000    7.000    4.000 
#    6.000    0.833    0.000    0.000    0.000    0.000 
#    0.000    0.000    0.000    0.000    0.000    0.000 
#
# Total GULP energy -133852.906304 kJ/mol
# GULP energy per Si atom -5577.204429 kJ/mol
# Density = 2.294107 g / cm^3
# Si number density = 22.993403 Si / 1000 Ang^3
#
#
#
# Elastic Constant Matrix: (Units=GPa)
#
#
# Indices 1 2 3 4 5 6 
#
# 1 141.4224 18.4929 55.0671 -0.0163 2.1170 0.0230
# 2 18.4929 24.7718 15.0307 0.0027 -1.2235 0.0062
# 3 55.0671 15.0307 105.7690 0.0001 -0.0178 0.0403
# 4 -0.0163 0.0027 0.0001 -2.5742 -0.0039 29.1620
# 5 2.1170 -1.2235 -0.0178 -0.0039 58.9217 0.0176
# 6 0.0230 0.0062 0.0403 29.1620 0.0176 -11.7765
#
#
#
# Elastic Compliance Matrix: (Units=1/GPa)
#
#
# Indices 1 2 3 4 5 6 
#
# 1 0.009294 -0.004403 -0.004213 0.000002 -0.000427 0.000006
# 2 -0.004403 0.046313 -0.004289 -0.000004 0.001119 -0.000007
# 3 -0.004213 -0.004289 0.012258 -0.000014 0.000066 -0.000003
# 4 0.000002 -0.000004 -0.000014 0.014360 -0.000010 0.035559
# 5 -0.000427 0.001119 0.000066 -0.000010 0.017010 0.000001
# 6 0.000006 -0.000007 -0.000003 0.035559 0.000001 0.003139
#
#
# Mechanical properties :
#
#
# Convention : Reuss Voigt Hill
#
# Bulk Modulus (GPa) = 23.77867 49.90495 36.84181
# Shear Modulus (GPa) = 35.16159 21.13904 28.15031
#
# Velocity S-wave (km/s) = 3.91475 3.03537 3.50276
# Velocity P-wave (km/s) = 5.54956 5.83402 5.69357
#
# Compressibility (1/GPa) = 0.04205450
#
# Stress axis : x y z
#
# Youngs Moduli (GPa) = 107.60140 21.59224 81.58256
#
# Poissons Ratio (x) = 0.09506 0.34370
# Poissons Ratio (y) = 0.47374 0.34992
# Poissons Ratio (z) = 0.45332 0.09261
#
# Static dielectric constant tensor:
#      x y z
#    x 1.976550 0.000010 0.094610 
#    y 0.000010 1.937100 -0.000020 
#    z 0.094610 -0.000020 1.909260 
# 
# From -- ./inp_files/90989.got.cif
#   From: 2010.05.17/outbox.cif.g08.bks.cpg/sg15_46_cif.got.tgz:90989.got - 2010.06.03 18:47:42.
