data_PCOD9269924
_publ_section_title
;
Structure prediction by ZEFSAII (Michael W. Deem and Ramdas Pophale) SiO2 
 PCOD9269924
Probable space group: C 2/C
;
_chemical_formula_sum "Si O2"
_cell_formula_units_Z 44
_cell_length_a 9.331184
_cell_length_b 18.901242
_cell_length_c 13.371279
_cell_angle_alpha 90.000000
_cell_angle_beta 109.615156
_cell_angle_gamma 90.000000
_cell_volume 2221.449844
_symmetry_space_group_name_H-M "C 2/C"
_symmetry_group_IT_number 15
_symmetry_cell_setting 'monoclinic'
loop_
_space_group_symop_operation_xyz
x,y,z
-x,y,1/2-z
-x,-y,-z
x,-y,1/2+z
1/2+x,1/2+y,z
1/2-x,1/2+y,1/2-z
1/2-x,1/2-y,-z
1/2+x,1/2-y,1/2+z
loop_
_atom_site_type_symbol
_atom_site_label
_atom_site_fract_x
_atom_site_fract_y
_atom_site_fract_z
Si Si1 0.007625 0.581429 0.528620
Si Si2 0.070035 0.816423 0.658746
Si Si3 0.000000 0.786340 0.250000
Si Si4 0.841186 0.689769 0.082524
Si Si5 0.815799 0.340565 0.275703
Si Si6 0.273359 0.668290 0.976141
O O1 0.109490 0.625380 0.474203
O O2 0.088684 0.596269 0.654471
O O3 0.000000 0.500000 0.500000
O O4 0.841842 0.617815 0.491242
O O5 0.236226 0.834525 0.651866
O O6 0.090010 0.731013 0.675624
O O7 0.000000 0.839807 0.750000
O O8 0.948438 0.842204 0.548059
O O9 0.989627 0.732530 0.154724
O O10 0.848616 0.831668 0.211930
O O11 0.750000 0.750000 0.000000
O O12 0.772485 0.342883 0.149590
O O13 0.250000 0.750000 0.000000
#
# Coordination Sequence:
#
# PCOD9269924 Si02
#       6
#     8   8   4   8   8   8
#     4  12  26  44  64  97 141 180 222 277 353 414
#     4  11  21  36  65 101 130 161 228 287 333 387
#     4  10  20  34  70 100 124 166 234 282 328 382
#     4  11  21  40  64 100 129 172 228 283 326 406
#     4  11  21  38  66 100 135 174 225 280 345 402
#     4  12  21  39  70  99 131 175 230 284 334 396
#
# _framework density 19.806884
#
# number of rings (size 3 to 8) (size 9 to 14) (size 15 to 20)
#    0.000    0.727    7.273    2.727    2.545    0.000 
#    3.273    0.909    2.000    0.000    0.000    0.000 
#    0.000    0.000    0.000    0.000    0.000    0.000 
#
# Total GULP energy -122710.352978 kJ/mol
# GULP energy per Si atom -5577.743317 kJ/mol
# Density = 1.976180 g / cm^3
# Si number density = 19.806884 Si / 1000 Ang^3
#
#
#
# Elastic Constant Matrix: (Units=GPa)
#
#
# Indices 1 2 3 4 5 6 
#
# 1 106.2763 33.5830 19.2334 0.0000 5.4501 0.0000
# 2 33.5830 108.8193 38.1941 0.0000 1.7556 0.0000
# 3 19.2334 38.1941 114.1977 0.0000 9.8841 0.0000
# 4 0.0000 0.0000 0.0000 21.0510 0.0000 0.5610
# 5 5.4501 1.7556 9.8841 0.0000 43.9732 0.0000
# 6 0.0000 0.0000 0.0000 0.5610 0.0000 20.9878
#
#
#
# Elastic Compliance Matrix: (Units=1/GPa)
#
#
# Indices 1 2 3 4 5 6 
#
# 1 0.010532 -0.002994 -0.000683 0.000000 -0.001032 0.000000
# 2 -0.002994 0.011269 -0.003323 0.000000 0.000668 0.000000
# 3 -0.000683 -0.003323 0.010162 0.000000 -0.002067 0.000000
# 4 0.000000 0.000000 0.000000 0.047537 0.000000 -0.001271
# 5 -0.001032 0.000668 -0.002067 0.000000 0.023307 0.000000
# 6 0.000000 0.000000 0.000000 -0.001271 0.000000 0.047681
#
#
# Mechanical properties :
#
#
# Convention : Reuss Voigt Hill
#
# Bulk Modulus (GPa) = 55.66774 56.81270 56.24022
# Shear Modulus (GPa) = 29.32980 33.08793 31.20886
#
# Velocity S-wave (km/s) = 3.85228 4.09164 3.97376
# Velocity P-wave (km/s) = 6.92481 7.14616 7.03636
#
# Compressibility (1/GPa) = 0.01796373
#
# Stress axis : x y z
#
# Youngs Moduli (GPa) = 94.94804 88.73985 98.40654
#
# Poissons Ratio (x) = 0.26568 0.06723
# Poissons Ratio (y) = 0.28427 0.32696
# Poissons Ratio (z) = 0.06486 0.29484
#
# Static dielectric constant tensor:
#      x y z
#    x 1.799890 0.000000 -0.038050 
#    y 0.000000 1.647290 0.000000 
#    z -0.038050 0.000000 1.791660 
# 
# From -- ./inp_files/134943.got.cif
#   From: 2010.05.17/outbox.cif.g08.bks.cpg/sg15_68_cif.got.tgz:134943.got - 2010.06.03 18:47:42.
