data_PCOD9269032
_publ_section_title
;
Structure prediction by ZEFSAII (Michael W. Deem and Ramdas Pophale) SiO2 
 PCOD9269032
Probable space group: C 2/C
;
_chemical_formula_sum "Si O2"
_cell_formula_units_Z 64
_cell_length_a 12.348814
_cell_length_b 20.620197
_cell_length_c 27.064359
_cell_angle_alpha 90.000000
_cell_angle_beta 151.265255
_cell_angle_gamma 90.000000
_cell_volume 3313.140908
_symmetry_space_group_name_H-M "C 2/C"
_symmetry_group_IT_number 15
_symmetry_cell_setting 'monoclinic'
loop_
_space_group_symop_operation_xyz
x,y,z
-x,y,1/2-z
-x,-y,-z
x,-y,1/2+z
1/2+x,1/2+y,z
1/2-x,1/2+y,1/2-z
1/2-x,1/2-y,-z
1/2+x,1/2-y,1/2+z
loop_
_atom_site_type_symbol
_atom_site_label
_atom_site_fract_x
_atom_site_fract_y
_atom_site_fract_z
Si Si1 0.778583 0.967146 0.751915
Si Si2 0.510836 0.922713 0.015460
Si Si3 0.924485 0.089786 0.612820
Si Si4 0.714129 0.345878 0.299615
Si Si5 0.996438 0.780449 0.595608
Si Si6 0.238311 0.530725 0.440991
Si Si7 0.919608 0.915846 0.915948
Si Si8 0.525560 0.646653 0.312288
O O1 0.515830 0.981407 0.643800
O O2 0.820703 0.939655 0.824075
O O3 0.847661 0.912245 0.741050
O O4 0.956935 0.025035 0.817818
O O5 0.688977 0.897010 0.046022
O O6 0.620891 0.901413 0.112066
O O7 0.270159 0.886833 0.917413
O O8 0.500000 0.000000 0.000000
O O9 0.869705 0.073769 0.534373
O O10 0.111854 0.141674 0.704172
O O11 0.500000 0.346729 0.250000
O O12 0.836532 0.277342 0.350894
O O13 0.018056 0.840866 0.566700
O O14 0.750000 0.750000 0.500000
O O15 0.034661 0.809433 0.665366
O O16 0.364247 0.461705 0.487850
O O17 0.255424 0.567715 0.395655
O O18 0.500000 0.681710 0.250000
#
# Coordination Sequence:
#
# PCOD9269032 Si02
#       8
#     8   8   8   8   8   8   8   8
#     4  10  20  33  61  90 123 161 194 249 315 366
#     4  11  21  37  61  88 131 158 197 258 309 370
#     4  10  22  34  57  94 123 159 197 251 313 353
#     4  10  24  41  61  89 120 166 211 245 305 373
#     4  11  23  44  64  84 123 173 211 244 300 377
#     4  10  20  39  60  94 126 147 207 262 305 363
#     4   9  22  39  62  88 119 165 204 248 312 365
#     4  11  23  37  60  95 121 161 202 252 310 359
#
# _framework density 19.317017
#
# number of rings (size 3 to 8) (size 9 to 14) (size 15 to 20)
#    0.000    1.750    2.500    1.125    5.250    2.000 
#    2.250    0.000    0.000    6.000    0.000    0.000 
#    0.000    0.000    0.000    0.000    0.000    0.000 
#
# Total GULP energy -178511.415398 kJ/mol
# GULP energy per Si atom -5578.481731 kJ/mol
# Density = 1.927305 g / cm^3
# Si number density = 19.317017 Si / 1000 Ang^3
#
#
#
# Elastic Constant Matrix: (Units=GPa)
#
#
# Indices 1 2 3 4 5 6 
#
# 1 57.8735 18.9083 14.6241 -0.0004 0.4755 0.0003
# 2 18.9083 91.4962 23.6652 -0.0003 4.3977 0.0001
# 3 14.6241 23.6652 64.8330 0.0028 17.3725 0.0000
# 4 -0.0004 -0.0003 0.0028 21.3189 0.0001 0.3829
# 5 0.4755 4.3977 17.3725 0.0001 34.2132 0.0003
# 6 0.0003 0.0001 0.0000 0.3829 0.0003 28.8709
#
#
#
# Elastic Compliance Matrix: (Units=1/GPa)
#
#
# Indices 1 2 3 4 5 6 
#
# 1 0.019223 -0.003101 -0.003750 0.000001 0.002035 0.000000
# 2 -0.003101 0.012588 -0.004020 0.000001 0.000467 0.000000
# 3 -0.003750 -0.004020 0.020355 -0.000003 -0.009767 0.000000
# 4 0.000001 0.000001 -0.000003 0.046918 0.000001 -0.000622
# 5 0.002035 0.000467 -0.009767 0.000001 0.034099 0.000000
# 6 0.000000 0.000000 0.000000 -0.000622 0.000000 0.034645
#
#
# Mechanical properties :
#
#
# Convention : Reuss Voigt Hill
#
# Bulk Modulus (GPa) = 32.86881 36.51088 34.68984
# Shear Modulus (GPa) = 25.03633 27.34761 26.19197
#
# Velocity S-wave (km/s) = 3.60401 3.76670 3.68625
# Velocity P-wave (km/s) = 5.86267 6.15299 6.00958
#
# Compressibility (1/GPa) = 0.03042398
#
# Stress axis : x y z
#
# Youngs Moduli (GPa) = 52.02146 79.44341 49.12906
#
# Poissons Ratio (x) = 0.24632 0.18422
# Poissons Ratio (y) = 0.16129 0.19752
# Poissons Ratio (z) = 0.19506 0.31939
#
# Static dielectric constant tensor:
#      x y z
#    x 1.752770 0.000000 -0.005620 
#    y 0.000000 1.686030 0.000000 
#    z -0.005620 0.000000 1.692230 
# 
# From -- ./inp_files/124250.got.cif
#   From: 2010.05.17/outbox.cif.g08.bks.cpg/sg15_63_cif.got.tgz:124250.got - 2010.06.03 18:47:42.
