data_PCOD9269310
_publ_section_title
;
Structure prediction by ZEFSAII (Michael W. Deem and Ramdas Pophale) SiO2 
 PCOD9269310
Probable space group: C 2/C
;
_chemical_formula_sum "Si O2"
_cell_formula_units_Z 52
_cell_length_a 24.478519
_cell_length_b 19.430027
_cell_length_c 14.673026
_cell_angle_alpha 90.000000
_cell_angle_beta 154.103021
_cell_angle_gamma 90.000000
_cell_volume 3048.003604
_symmetry_space_group_name_H-M "C 2/C"
_symmetry_group_IT_number 15
_symmetry_cell_setting 'monoclinic'
loop_
_space_group_symop_operation_xyz
x,y,z
-x,y,1/2-z
-x,-y,-z
x,-y,1/2+z
1/2+x,1/2+y,z
1/2-x,1/2+y,1/2-z
1/2-x,1/2-y,-z
1/2+x,1/2-y,1/2+z
loop_
_atom_site_type_symbol
_atom_site_label
_atom_site_fract_x
_atom_site_fract_y
_atom_site_fract_z
Si Si1 0.154348 0.689454 0.330466
Si Si2 0.151104 0.578993 0.471086
Si Si3 0.151853 0.577992 0.974123
Si Si4 0.132331 0.310460 0.091154
Si Si5 0.748516 0.173028 0.955852
Si Si6 0.000000 0.785714 0.750000
Si Si7 0.668209 0.194141 0.136584
O O1 0.250000 0.750000 0.500000
O O2 0.189038 0.619811 0.436652
O O3 0.146092 0.682927 0.209569
O O4 0.011917 0.703727 0.147398
O O5 0.196638 0.500781 0.542928
O O6 0.184373 0.628423 0.605461
O O7 0.000000 0.574289 0.250000
O O8 0.205353 0.618976 0.967020
O O9 0.000000 0.578357 0.750000
O O10 0.190337 0.622666 0.118916
O O11 0.154324 0.330008 0.229318
O O12 0.211995 0.242729 0.193227
O O13 0.750000 0.250000 0.000000
O O14 0.888679 0.168619 0.125104
O O15 0.939583 0.736025 0.581410
#
# Coordination Sequence:
#
# PCOD9269310 Si02
#       7
#     8   8   8   8   8   4   8
#     4  11  21  35  58  81 111 148 191 229 279 332
#     4   9  21  37  52  81 118 145 184 235 282 333
#     4  11  20  35  57  86 118 144 183 236 294 332
#     4  10  20  35  55  84 109 147 186 234 278 325
#     4  11  19  33  58  85 114 145 188 237 278 341
#     4  10  20  34  54  90 114 142 196 234 284 318
#     4  11  20  33  59  83 114 143 188 233 274 344
#
# _framework density 17.060347
#
# number of rings (size 3 to 8) (size 9 to 14) (size 15 to 20)
#    0.000    1.538    5.385    1.846    0.000    1.231 
#    0.000    4.615    0.000   10.154    0.000    0.000 
#    0.000    0.000    0.000    0.000    0.000    0.000 
#
# Total GULP energy -144965.058069 kJ/mol
# GULP energy per Si atom -5575.579157 kJ/mol
# Density = 1.702152 g / cm^3
# Si number density = 17.060347 Si / 1000 Ang^3
#
#
#
# Elastic Constant Matrix: (Units=GPa)
#
#
# Indices 1 2 3 4 5 6 
#
# 1 124.7894 64.8582 41.3334 0.0000 -18.0553 0.0000
# 2 64.8582 155.4266 50.8288 0.0000 -8.8931 0.0000
# 3 41.3334 50.8288 72.6381 0.0000 -1.2004 0.0000
# 4 0.0000 0.0000 0.0000 20.5704 0.0000 2.6374
# 5 -18.0553 -8.8931 -1.2004 0.0000 34.9669 0.0000
# 6 0.0000 0.0000 0.0000 2.6374 0.0000 24.9424
#
#
#
# Elastic Compliance Matrix: (Units=1/GPa)
#
#
# Indices 1 2 3 4 5 6 
#
# 1 0.011906 -0.003222 -0.004435 0.000000 0.005176 0.000000
# 2 -0.003222 0.009346 -0.004698 0.000000 0.000552 0.000000
# 3 -0.004435 -0.004698 0.019531 0.000000 -0.002814 0.000000
# 4 0.000000 0.000000 0.000000 0.049282 0.000000 -0.005211
# 5 0.005176 0.000552 -0.002814 0.000000 0.031315 0.000000
# 6 0.000000 0.000000 0.000000 -0.005211 0.000000 0.040643
#
#
# Mechanical properties :
#
#
# Convention : Reuss Voigt Hill
#
# Bulk Modulus (GPa) = 62.20951 74.09945 68.15448
# Shear Modulus (GPa) = 26.02953 29.15152 27.59052
#
# Velocity S-wave (km/s) = 3.91030 4.13816 4.02584
# Velocity P-wave (km/s) = 7.54525 8.14620 7.85148
#
# Compressibility (1/GPa) = 0.01607471
#
# Stress axis : x y z
#
# Youngs Moduli (GPa) = 83.99277 106.99605 51.20040
#
# Poissons Ratio (x) = 0.34471 0.22707
# Poissons Ratio (y) = 0.27060 0.24052
# Poissons Ratio (z) = 0.37249 0.50263
#
# Static dielectric constant tensor:
#      x y z
#    x 1.858580 0.000000 -0.058310 
#    y 0.000000 1.555880 0.000000 
#    z -0.058310 0.000000 1.608090 
# 
# From -- ./inp_files/147827.got.cif
#   From: 2010.05.17/outbox.cif.g08.bks.cpg/sg15_74_cif.got.tgz:147827.got - 2010.06.03 18:47:42.
