data_PCOD9269754
_publ_section_title
;
Structure prediction by ZEFSAII (Michael W. Deem and Ramdas Pophale) SiO2 
 PCOD9269754
Probable space group: C 2/C
;
_chemical_formula_sum "Si O2"
_cell_formula_units_Z 64
_cell_length_a 18.642035
_cell_length_b 9.777276
_cell_length_c 21.918247
_cell_angle_alpha 90.000000
_cell_angle_beta 58.451560
_cell_angle_gamma 90.000000
_cell_volume 3404.533269
_symmetry_space_group_name_H-M "C 2/C"
_symmetry_group_IT_number 15
_symmetry_cell_setting 'monoclinic'
loop_
_space_group_symop_operation_xyz
x,y,z
-x,y,1/2-z
-x,-y,-z
x,-y,1/2+z
1/2+x,1/2+y,z
1/2-x,1/2+y,1/2-z
1/2-x,1/2-y,-z
1/2+x,1/2-y,1/2+z
loop_
_atom_site_type_symbol
_atom_site_label
_atom_site_fract_x
_atom_site_fract_y
_atom_site_fract_z
Si Si1 0.352090 0.607590 0.571621
Si Si2 0.549388 0.655756 0.847050
Si Si3 0.222672 0.923803 0.211926
Si Si4 0.748842 0.614857 0.317507
Si Si5 0.935348 0.428111 0.724095
Si Si6 0.792664 0.839254 0.863928
Si Si7 0.940229 0.734328 0.716625
Si Si8 0.929712 0.916727 0.904704
O O1 0.412311 0.639311 0.602354
O O2 0.309243 0.462591 0.608318
O O3 0.280105 0.725542 0.597206
O O4 0.401260 0.597052 0.486703
O O5 0.622665 0.602592 0.768042
O O6 0.541231 0.814283 0.835206
O O7 0.464487 0.569278 0.876286
O O8 0.266106 0.774673 0.190119
O O9 0.247022 0.019493 0.258044
O O10 0.239907 0.013603 0.144438
O O11 0.845551 0.605246 0.293864
O O12 0.933302 0.579607 0.698000
O O13 0.000000 0.424938 0.750000
O O14 0.852348 0.787569 0.781962
O O15 0.853814 0.865272 0.894661
O O16 0.000000 0.736461 0.750000
O O17 0.987182 0.827000 0.646758
#
# Coordination Sequence:
#
# PCOD9269754 Si02
#       8
#     8   8   8   8   8   8   8   8
#     4  11  23  42  57  86 127 167 197 249 312 371
#     4  10  22  37  60  86 121 156 200 250 309 361
#     4  10  20  35  60  91 114 153 199 255 297 363
#     4  10  21  36  59  88 121 153 198 249 311 362
#     4  10  20  34  60  89 115 145 199 258 299 349
#     4  11  20  38  62  89 119 159 210 255 298 365
#     4   9  19  35  57  88 114 149 198 253 301 351
#     4  11  23  38  61  88 122 163 206 248 307 371
#
# _framework density 18.798466000000001
#
# number of rings (size 3 to 8) (size 9 to 14) (size 15 to 20)
#    0.000    1.750    2.500    3.000    3.500    0.000 
#    0.000    2.500    0.000    0.000    0.000    0.000 
#    0.000    0.000    0.000    0.000    0.000    0.000 
#
# Total GULP energy -178532.284158 kJ/mol
# GULP energy per Si atom -5579.133880 kJ/mol
# Density = 1.875568 g / cm^3
# Si number density = 18.798466 Si / 1000 Ang^3
#
#
#
# Elastic Constant Matrix: (Units=GPa)
#
#
# Indices 1 2 3 4 5 6 
#
# 1 44.6159 17.6079 0.7554 0.0000 -4.3064 0.0000
# 2 17.6079 153.8214 50.4098 0.0000 -1.3951 0.0000
# 3 0.7554 50.4098 102.3142 0.0000 -5.4304 0.0000
# 4 0.0000 0.0000 0.0000 16.7169 0.0000 -0.4311
# 5 -4.3064 -1.3951 -5.4304 0.0000 12.2217 0.0000
# 6 0.0000 0.0000 0.0000 -0.4311 0.0000 31.2157
#
#
#
# Elastic Compliance Matrix: (Units=1/GPa)
#
#
# Indices 1 2 3 4 5 6 
#
# 1 0.024597 -0.003378 0.001969 0.000000 0.009156 0.000000
# 2 -0.003378 0.008225 -0.004138 0.000000 -0.002090 0.000000
# 3 0.001969 -0.004138 0.012095 0.000000 0.005595 0.000000
# 4 0.000000 0.000000 0.000000 0.059841 0.000000 0.000826
# 5 0.009156 -0.002090 0.005595 0.000000 0.087296 0.000000
# 6 0.000000 0.000000 0.000000 0.000826 0.000000 0.032047
#
#
# Mechanical properties :
#
#
# Convention : Reuss Voigt Hill
#
# Bulk Modulus (GPa) = 29.56654 48.69976 39.13315
# Shear Modulus (GPa) = 20.28648 27.49608 23.89128
#
# Velocity S-wave (km/s) = 3.28862 3.82864 3.56886
# Velocity P-wave (km/s) = 5.49384 6.74590 6.15181
#
# Compressibility (1/GPa) = 0.03382202
#
# Stress axis : x y z
#
# Youngs Moduli (GPa) = 40.65546 121.58126 82.67717
#
# Poissons Ratio (x) = 0.41066 -0.16275
# Poissons Ratio (y) = 0.13732 0.34215
# Poissons Ratio (z) = -0.08003 0.50315
#
# Static dielectric constant tensor:
#      x y z
#    x 1.696250 0.000000 -0.007030 
#    y 0.000000 1.695420 0.000000 
#    z -0.007030 0.000000 1.608440 
# 
# From -- ./inp_files/279361.got.cif
#   From: 2010.05.17/outbox.cif.g08.bks.cpg/sg15_140_cif.got.tgz:279361.got - 2010.06.03 18:47:42.
