data_PCOD9269511
_publ_section_title
;
Structure prediction by ZEFSAII (Michael W. Deem and Ramdas Pophale) SiO2 
 PCOD9269511
Probable space group: C 2/C
;
_chemical_formula_sum "Si O2"
_cell_formula_units_Z 40
_cell_length_a 14.702233
_cell_length_b 10.325139
_cell_length_c 14.282449
_cell_angle_alpha 90.000000
_cell_angle_beta 124.723586
_cell_angle_gamma 90.000000
_cell_volume 1781.992848
_symmetry_space_group_name_H-M "C 2/C"
_symmetry_group_IT_number 15
_symmetry_cell_setting 'monoclinic'
loop_
_space_group_symop_operation_xyz
x,y,z
-x,y,1/2-z
-x,-y,-z
x,-y,1/2+z
1/2+x,1/2+y,z
1/2-x,1/2+y,1/2-z
1/2-x,1/2-y,-z
1/2+x,1/2-y,1/2+z
loop_
_atom_site_type_symbol
_atom_site_label
_atom_site_fract_x
_atom_site_fract_y
_atom_site_fract_z
Si Si1 0.377712 0.958562 0.202353
Si Si2 0.980312 0.963142 0.381732
Si Si3 0.243351 0.337440 0.207125
Si Si4 0.717895 0.570444 0.960725
Si Si5 0.646608 0.331857 0.797036
O O1 0.500000 0.006829 0.250000
O O2 0.340495 0.936955 0.288465
O O3 0.373402 0.806928 0.166875
O O4 0.289816 0.042412 0.093778
O O5 0.780175 0.206514 0.250956
O O6 0.090791 0.896042 0.408588
O O7 0.868566 0.882237 0.301837
O O8 0.000000 0.000000 0.500000
O O9 0.230230 0.337353 0.087989
O O10 0.457349 0.595937 0.311649
O O11 0.706608 0.432627 0.899358
#
# Coordination Sequence:
#
# PCOD9269511 Si02
#       5
#     8   8   8   8   8
#     4  10  20  34  57  84 121 152 203 245 299 348
#     4  11  19  37  65  89 115 158 203 249 296 356
#     4   9  21  35  55  92 120 149 199 251 297 350
#     4  11  20  37  65  85 118 160 201 252 299 346
#     4   9  20  35  57  92 114 148 200 248 288 361
#
# _framework density 22.446778999999999
#
# number of rings (size 3 to 8) (size 9 to 14) (size 15 to 20)
#    1.200    0.800    2.000    4.200    0.000    2.400 
#    0.000    1.000    0.000    0.000    0.000    0.000 
#    0.000    0.000    0.000    0.000    0.000    0.000 
#
# Total GULP energy -111571.891053 kJ/mol
# GULP energy per Si atom -5578.594553 kJ/mol
# Density = 2.239569 g / cm^3
# Si number density = 22.446779 Si / 1000 Ang^3
#
#
#
# Elastic Constant Matrix: (Units=GPa)
#
#
# Indices 1 2 3 4 5 6 
#
# 1 150.1618 7.1600 25.6734 0.0000 0.7892 0.0000
# 2 7.1600 47.6238 10.7501 0.0000 8.9344 0.0000
# 3 25.6734 10.7501 63.2054 0.0000 -4.0396 0.0000
# 4 0.0000 0.0000 0.0000 22.8209 0.0000 -7.3587
# 5 0.7892 8.9344 -4.0396 0.0000 42.0202 0.0000
# 6 0.0000 0.0000 0.0000 -7.3587 0.0000 37.9586
#
#
#
# Elastic Compliance Matrix: (Units=1/GPa)
#
#
# Indices 1 2 3 4 5 6 
#
# 1 0.007170 -0.000367 -0.002871 0.000000 -0.000333 0.000000
# 2 -0.000367 0.022966 -0.004094 0.000000 -0.005270 0.000000
# 3 -0.002871 -0.004094 0.017853 0.000000 0.002641 0.000000
# 4 0.000000 0.000000 0.000000 0.046741 0.000000 0.009061
# 5 -0.000333 -0.005270 0.002641 0.000000 0.025179 0.000000
# 6 0.000000 0.000000 0.000000 0.009061 0.000000 0.028101
#
#
# Mechanical properties :
#
#
# Convention : Reuss Voigt Hill
#
# Bulk Modulus (GPa) = 30.00847 38.68423 34.34635
# Shear Modulus (GPa) = 28.77179 35.05377 31.91278
#
# Velocity S-wave (km/s) = 3.58408 3.95605 3.77465
# Velocity P-wave (km/s) = 5.52496 6.17562 5.85933
#
# Compressibility (1/GPa) = 0.03332392
#
# Stress axis : x y z
#
# Youngs Moduli (GPa) = 139.47768 43.54293 56.01418
#
# Poissons Ratio (x) = 0.01600 0.16082
# Poissons Ratio (y) = 0.05125 0.22930
# Poissons Ratio (z) = 0.40044 0.17825
#
# Static dielectric constant tensor:
#      x y z
#    x 2.004480 0.000000 -0.053370 
#    y 0.000000 1.900940 0.000000 
#    z -0.053370 0.000000 1.781850 
# 
# From -- ./inp_files/143121.got.cif
#   From: 2010.05.17/outbox.cif.g08.bks.cpg/sg15_72_cif.got.tgz:143121.got - 2010.06.03 18:47:42.
