data_PCOD9269020
_publ_section_title
;
Structure prediction by ZEFSAII (Michael W. Deem and Ramdas Pophale) SiO2 
 PCOD9269020
Probable space group: C 2/C
;
_chemical_formula_sum "Si O2"
_cell_formula_units_Z 60
_cell_length_a 11.087575
_cell_length_b 14.916126
_cell_length_c 18.430052
_cell_angle_alpha 90.000000
_cell_angle_beta 59.420266
_cell_angle_gamma 90.000000
_cell_volume 2624.115782
_symmetry_space_group_name_H-M "C 2/C"
_symmetry_group_IT_number 15
_symmetry_cell_setting 'monoclinic'
loop_
_space_group_symop_operation_xyz
x,y,z
-x,y,1/2-z
-x,-y,-z
x,-y,1/2+z
1/2+x,1/2+y,z
1/2-x,1/2+y,1/2-z
1/2-x,1/2-y,-z
1/2+x,1/2-y,1/2+z
loop_
_atom_site_type_symbol
_atom_site_label
_atom_site_fract_x
_atom_site_fract_y
_atom_site_fract_z
Si Si1 0.488983 0.562433 0.933969
Si Si2 0.815629 0.558555 0.468014
Si Si3 0.346143 0.356583 0.312574
Si Si4 0.434194 0.057560 0.646906
Si Si5 0.549909 0.240980 0.082442
Si Si6 0.500000 0.197864 0.750000
Si Si7 0.758811 0.289842 0.723006
Si Si8 0.249473 0.041188 0.316266
O O1 0.482773 0.668540 0.952703
O O2 0.627734 0.533588 0.848980
O O3 0.500000 0.500000 0.000000
O O4 0.335558 0.538584 0.949790
O O5 0.852737 0.661375 0.474860
O O6 0.789564 0.556201 0.387813
O O7 0.942006 0.488463 0.436805
O O8 0.500000 0.400819 0.250000
O O9 0.203366 0.415465 0.357706
O O10 0.385061 0.285146 0.364394
O O11 0.307000 0.293351 0.257060
O O12 0.492914 0.139194 0.678395
O O13 0.376469 0.992167 0.727750
O O14 0.404014 0.188761 0.139379
O O15 0.638223 0.257802 0.706942
O O16 0.703681 0.366839 0.792860
#
# Coordination Sequence:
#
# PCOD9269020 Si02
#       8
#     8   8   8   8   8   4   8   8
#     4  10  24  38  60  88 123 161 198 248 304 361
#     4  11  21  36  62  89 116 158 205 248 296 357
#     4   9  19  33  57  88 120 153 197 252 309 343
#     4  11  20  35  62  90 119 158 198 252 297 356
#     4  11  20  39  60  87 118 156 207 248 298 355
#     4  10  20  34  54  90 124 146 196 244 298 352
#     4  10  20  33  60  91 117 155 195 256 301 348
#     4  11  19  38  57  88 120 155 202 247 300 354
#
# _framework density 22.864844999999999
#
# number of rings (size 3 to 8) (size 9 to 14) (size 15 to 20)
#    0.000    1.600    4.000    2.800    1.867    0.000 
#    3.600    0.667    0.000    6.400    0.000    0.000 
#    0.000    0.000    0.000    0.000    0.000    0.000 
#
# Total GULP energy -167386.169619 kJ/mol
# GULP energy per Si atom -5579.538987 kJ/mol
# Density = 2.281280 g / cm^3
# Si number density = 22.864845 Si / 1000 Ang^3
#
#
#
# Elastic Constant Matrix: (Units=GPa)
#
#
# Indices 1 2 3 4 5 6 
#
# 1 138.8172 49.3488 21.9242 0.0000 -17.4557 0.0000
# 2 49.3488 87.4206 17.5403 0.0000 -18.2973 0.0000
# 3 21.9242 17.5403 58.0845 0.0000 -35.3884 0.0000
# 4 0.0000 0.0000 0.0000 33.3243 0.0000 -11.1109
# 5 -17.4557 -18.2973 -35.3884 0.0000 48.6643 0.0000
# 6 0.0000 0.0000 0.0000 -11.1109 0.0000 33.3856
#
#
#
# Elastic Compliance Matrix: (Units=1/GPa)
#
#
# Indices 1 2 3 4 5 6 
#
# 1 0.009233 -0.004799 -0.002006 0.000000 0.000048 0.000000
# 2 -0.004799 0.014997 -0.000594 0.000000 0.003485 0.000000
# 3 -0.002006 -0.000594 0.031562 0.000000 0.022009 0.000000
# 4 0.000000 0.000000 0.000000 0.033754 0.000000 0.011233
# 5 0.000048 0.003485 0.022009 0.000000 0.037881 0.000000
# 6 0.000000 0.000000 0.000000 0.011233 0.000000 0.033692
#
#
# Mechanical properties :
#
#
# Convention : Reuss Voigt Hill
#
# Bulk Modulus (GPa) = 24.39439 51.32766 37.86103
# Shear Modulus (GPa) = 26.37408 36.10877 31.24142
#
# Velocity S-wave (km/s) = 3.39997 3.97826 3.70043
# Velocity P-wave (km/s) = 5.10932 6.60296 5.90357
#
# Compressibility (1/GPa) = 0.04099302
#
# Stress axis : x y z
#
# Youngs Moduli (GPa) = 108.31008 66.68122 31.68397
#
# Poissons Ratio (x) = 0.32002 0.06356
# Poissons Ratio (y) = 0.51980 0.01881
# Poissons Ratio (z) = 0.21729 0.03959
#
# Static dielectric constant tensor:
#      x y z
#    x 1.887760 0.000000 -0.006480 
#    y 0.000000 1.861690 0.000000 
#    z -0.006480 0.000000 2.044000 
# 
# From -- ./inp_files/292697.got.cif
#   From: 2010.05.17/outbox.cif.g08.bks.cpg/sg15_147_cif.got.tgz:292697.got - 2010.06.03 18:47:42.
