data_PCOD9269621
_publ_section_title
;
Structure prediction by ZEFSAII (Michael W. Deem and Ramdas Pophale) SiO2 
 PCOD9269621
Probable space group: C 2/C
;
_chemical_formula_sum "Si O2"
_cell_formula_units_Z 64
_cell_length_a 20.182896
_cell_length_b 21.941240
_cell_length_c 11.753151
_cell_angle_alpha 90.000000
_cell_angle_beta 140.547492
_cell_angle_gamma 90.000000
_cell_volume 3307.291144
_symmetry_space_group_name_H-M "C 2/C"
_symmetry_group_IT_number 15
_symmetry_cell_setting 'monoclinic'
loop_
_space_group_symop_operation_xyz
x,y,z
-x,y,1/2-z
-x,-y,-z
x,-y,1/2+z
1/2+x,1/2+y,z
1/2-x,1/2+y,1/2-z
1/2-x,1/2-y,-z
1/2+x,1/2-y,1/2+z
loop_
_atom_site_type_symbol
_atom_site_label
_atom_site_fract_x
_atom_site_fract_y
_atom_site_fract_z
Si Si1 0.328484 0.666293 0.064501
Si Si2 0.274122 0.659673 0.733899
Si Si3 0.881647 0.936665 0.244804
Si Si4 0.360272 0.216595 0.309745
Si Si5 0.669609 0.638752 0.045059
Si Si6 0.438110 0.230853 0.051679
Si Si7 0.619761 0.801513 0.399876
Si Si8 0.399391 0.425462 0.833937
O O1 0.324679 0.654971 0.925515
O O2 0.209300 0.661689 0.952991
O O3 0.372577 0.734079 0.144366
O O4 0.397982 0.621151 0.228637
O O5 0.290032 0.596630 0.692230
O O6 0.331222 0.713951 0.740055
O O7 0.159191 0.686438 0.591022
O O8 0.989928 0.924163 0.454508
O O9 0.872561 0.009234 0.243954
O O10 0.878298 0.904121 0.117068
O O11 0.279916 0.168033 0.150651
O O12 0.480468 0.213787 0.438116
O O13 0.343286 0.208134 0.421451
O O14 0.678690 0.597710 0.170593
O O15 0.602391 0.698988 0.992446
O O16 0.500000 0.219382 0.250000
O O17 0.500000 0.822942 0.250000
#
# Coordination Sequence:
#
# PCOD9269621 Si02
#       8
#     8   8   8   8   8   8   8   8
#     4  10  22  37  56  87 119 154 192 243 292 348
#     4  10  22  37  58  90 122 149 197 243 293 357
#     4  11  25  40  60  86 115 163 202 241 293 349
#     4  10  20  35  61  90 119 155 187 241 311 351
#     4  11  22  41  60  88 126 153 199 248 294 357
#     4  11  21  35  62  92 123 155 191 239 305 360
#     4  10  20  34  58  88 119 152 188 236 300 356
#     4  11  24  40  61  83 118 158 204 242 290 347
#
# _framework density 19.351184
#
# number of rings (size 3 to 8) (size 9 to 14) (size 15 to 20)
#    0.000    1.500    1.250    4.125    8.750    2.000 
#    0.000    0.000    0.000    3.000    0.000    0.000 
#    0.000    0.000    0.000    0.000    0.000    0.000 
#
# Total GULP energy -178652.632752 kJ/mol
# GULP energy per Si atom -5582.894773 kJ/mol
# Density = 1.930714 g / cm^3
# Si number density = 19.351184 Si / 1000 Ang^3
#
#
#
# Elastic Constant Matrix: (Units=GPa)
#
#
# Indices 1 2 3 4 5 6 
#
# 1 71.0603 29.2321 6.6311 0.0000 9.0504 0.0000
# 2 29.2321 99.4574 44.9274 0.0000 -10.8554 0.0000
# 3 6.6311 44.9274 64.0487 0.0000 -12.4729 0.0000
# 4 0.0000 0.0000 0.0000 24.6815 0.0000 0.2412
# 5 9.0504 -10.8554 -12.4729 0.0000 37.0626 0.0000
# 6 0.0000 0.0000 0.0000 0.2412 0.0000 11.9527
#
#
#
# Elastic Compliance Matrix: (Units=1/GPa)
#
#
# Indices 1 2 3 4 5 6 
#
# 1 0.017267 -0.006419 0.001635 0.000000 -0.005546 0.000000
# 2 -0.006419 0.017132 -0.010777 0.000000 0.002959 0.000000
# 3 0.001635 -0.010777 0.023876 0.000000 0.004479 0.000000
# 4 0.000000 0.000000 0.000000 0.040524 0.000000 -0.000818
# 5 -0.005546 0.002959 0.004479 0.000000 0.030710 0.000000
# 6 0.000000 0.000000 0.000000 -0.000818 0.000000 0.083679
#
#
# Mechanical properties :
#
#
# Convention : Reuss Voigt Hill
#
# Bulk Modulus (GPa) = 36.82831 44.01641 40.42236
# Shear Modulus (GPa) = 19.73469 24.99107 22.36288
#
# Velocity S-wave (km/s) = 3.19692 3.59757 3.40315
# Velocity P-wave (km/s) = 5.71839 6.32868 6.03126
#
# Compressibility (1/GPa) = 0.02715302
#
# Stress axis : x y z
#
# Youngs Moduli (GPa) = 57.91419 58.36954 41.88371
#
# Poissons Ratio (x) = 0.37467 -0.06847
# Poissons Ratio (y) = 0.37174 0.45137
# Poissons Ratio (z) = -0.09468 0.62904
#
# Static dielectric constant tensor:
#      x y z
#    x 1.757930 0.000000 0.003330 
#    y 0.000000 1.653080 0.000000 
#    z 0.003330 0.000000 1.705900 
# 
# From -- ./inp_files/114268.got.cif
#   From: 2010.05.17/outbox.cif.g08.bks.cpg/sg15_58_cif.got.tgz:114268.got - 2010.06.03 18:47:42.
