data_PCOD9269407
_publ_section_title
;
Structure prediction by ZEFSAII (Michael W. Deem and Ramdas Pophale) SiO2 
 PCOD9269407
Probable space group: C 2/C
;
_chemical_formula_sum "Si O2"
_cell_formula_units_Z 40
_cell_length_a 10.025089
_cell_length_b 9.264576
_cell_length_c 18.112394
_cell_angle_alpha 90.000000
_cell_angle_beta 94.193547
_cell_angle_gamma 90.000000
_cell_volume 1677.742687
_symmetry_space_group_name_H-M "C 2/C"
_symmetry_group_IT_number 15
_symmetry_cell_setting 'monoclinic'
loop_
_space_group_symop_operation_xyz
x,y,z
-x,y,1/2-z
-x,-y,-z
x,-y,1/2+z
1/2+x,1/2+y,z
1/2-x,1/2+y,1/2-z
1/2-x,1/2-y,-z
1/2+x,1/2-y,1/2+z
loop_
_atom_site_type_symbol
_atom_site_label
_atom_site_fract_x
_atom_site_fract_y
_atom_site_fract_z
Si Si1 0.737358 0.320034 0.407374
Si Si2 0.841812 0.086140 0.753785
Si Si3 0.974235 0.333223 0.512215
Si Si4 0.629481 0.276650 0.797184
Si Si5 0.110376 0.904380 0.960239
O O1 0.730656 0.359374 0.322835
O O2 0.879246 0.270261 0.442795
O O3 0.615883 0.211425 0.421433
O O4 0.718453 0.469986 0.451867
O O5 0.754487 0.167997 0.811416
O O6 0.000000 0.119192 0.750000
O O7 0.830548 0.913629 0.752794
O O8 0.000000 0.500000 0.500000
O O9 0.108459 0.239347 0.510492
O O10 0.500000 0.210745 0.750000
O O11 0.593778 0.348120 0.874718
O O12 0.000000 0.000000 0.000000
#
# Coordination Sequence:
#
# PCOD9269407 Si02
#       5
#     8   8   8   8   8
#     4   9  20  37  53  77 115 148 183 238 294 348
#     4  10  22  38  58  85 117 153 197 247 300 358
#     4  10  20  34  56  82 108 146 192 237 286 345
#     4  10  21  38  61  86 117 158 199 246 302 359
#     4   9  19  37  57  81 117 153 190 242 300 350
#
# _framework density 23.841557999999999
#
# number of rings (size 3 to 8) (size 9 to 14) (size 15 to 20)
#    0.000    2.400    0.000    1.200    0.000    6.400 
#    0.000    8.000    0.000    0.000    0.000    0.000 
#    0.000    0.000    0.000    0.000    0.000    0.000 
#
# Total GULP energy -111408.866388 kJ/mol
# GULP energy per Si atom -5570.443319 kJ/mol
# Density = 2.378729 g / cm^3
# Si number density = 23.841558 Si / 1000 Ang^3
#
#
#
# Elastic Constant Matrix: (Units=GPa)
#
#
# Indices 1 2 3 4 5 6 
#
# 1 104.1625 32.7619 11.9346 0.0000 -28.7001 0.0000
# 2 32.7619 145.7184 13.4770 0.0000 -38.6220 0.0000
# 3 11.9346 13.4770 34.2546 0.0000 -7.3721 0.0000
# 4 0.0000 0.0000 0.0000 16.6788 0.0000 -6.1181
# 5 -28.7001 -38.6220 -7.3721 0.0000 29.5940 0.0000
# 6 0.0000 0.0000 0.0000 -6.1181 0.0000 32.9944
#
#
#
# Elastic Compliance Matrix: (Units=1/GPa)
#
#
# Indices 1 2 3 4 5 6 
#
# 1 0.013275 0.000736 -0.002047 0.000000 0.013325 0.000000
# 2 0.000736 0.010583 -0.001368 0.000000 0.014185 0.000000
# 3 -0.002047 -0.001368 0.031312 0.000000 0.004030 0.000000
# 4 0.000000 0.000000 0.000000 0.064332 0.000000 0.011929
# 5 0.013325 0.014185 0.004030 0.000000 0.066230 0.000000
# 6 0.000000 0.000000 0.000000 0.011929 0.000000 0.032520
#
#
# Mechanical properties :
#
#
# Convention : Reuss Voigt Hill
#
# Bulk Modulus (GPa) = 20.07491 44.49805 32.28648
# Shear Modulus (GPa) = 20.81494 30.91760 25.86627
#
# Velocity S-wave (km/s) = 2.95795 3.60501 3.29739
# Velocity P-wave (km/s) = 4.48379 6.00273 5.29798
#
# Compressibility (1/GPa) = 0.04981341
#
# Stress axis : x y z
#
# Youngs Moduli (GPa) = 75.33094 94.48953 31.93692
#
# Poissons Ratio (x) = -0.06959 0.06538
# Poissons Ratio (y) = -0.05548 0.04367
# Poissons Ratio (z) = 0.15421 0.12922
#
# Static dielectric constant tensor:
#      x y z
#    x 1.949620 0.000000 -0.054030 
#    y 0.000000 1.943200 0.000000 
#    z -0.054030 0.000000 1.936430 
# 
# From -- ./inp_files/235763.got.cif
#   From: 2010.05.17/outbox.cif.g08.bks.cpg/sg15_118_cif.got.tgz:235763.got - 2010.06.03 18:47:42.
