data_PCOD9269342
_publ_section_title
;
Structure prediction by ZEFSAII (Michael W. Deem and Ramdas Pophale) SiO2 
 PCOD9269342
Probable space group: C 2/C
;
_chemical_formula_sum "Si O2"
_cell_formula_units_Z 64
_cell_length_a 17.730493
_cell_length_b 11.174728
_cell_length_c 14.559730
_cell_angle_alpha 90.000000
_cell_angle_beta 120.293157
_cell_angle_gamma 90.000000
_cell_volume 2490.870824
_symmetry_space_group_name_H-M "C 2/C"
_symmetry_group_IT_number 15
_symmetry_cell_setting 'monoclinic'
loop_
_space_group_symop_operation_xyz
x,y,z
-x,y,1/2-z
-x,-y,-z
x,-y,1/2+z
1/2+x,1/2+y,z
1/2-x,1/2+y,1/2-z
1/2-x,1/2-y,-z
1/2+x,1/2-y,1/2+z
loop_
_atom_site_type_symbol
_atom_site_label
_atom_site_fract_x
_atom_site_fract_y
_atom_site_fract_z
Si Si1 0.212951 0.123321 0.365322
Si Si2 0.570400 0.279614 0.030680
Si Si3 0.313268 0.112590 0.620481
Si Si4 0.464076 0.370444 0.127081
Si Si5 0.129796 0.511467 0.094459
Si Si6 0.328686 0.534542 0.423847
Si Si7 0.440437 0.615927 0.331003
Si Si8 0.522076 0.995405 0.856200
O O1 0.254192 0.121008 0.491699
O O2 0.205824 0.265822 0.335635
O O3 0.265013 0.015985 0.344671
O O4 0.108741 0.100929 0.295200
O O5 0.506325 0.282530 0.903274
O O6 0.509312 0.283139 0.082417
O O7 0.619144 0.154906 0.069332
O O8 0.629556 0.399502 0.061466
O O9 0.273700 0.992285 0.639941
O O10 0.413205 0.093581 0.652704
O O11 0.500000 0.347351 0.250000
O O12 0.506694 0.495688 0.122594
O O13 0.363908 0.395296 0.035908
O O14 0.067467 0.478082 0.141636
O O15 0.086573 0.451012 0.977796
O O16 0.363782 0.611447 0.360169
O O17 0.500000 0.921288 0.750000
#
# Coordination Sequence:
#
# PCOD9269342 Si02
#       8
#     8   8   8   8   8   8   8   8
#     4  10  20  34  55  83 108 147 191 241 286 345
#     4   9  18  34  55  80 108 147 187 233 296 356
#     4  10  20  35  54  81 110 140 198 239 285 346
#     4   9  17  31  53  82 110 139 179 230 303 349
#     4  10  21  41  57  78 121 152 196 245 299 348
#     4   9  17  33  54  79 112 140 179 240 285 347
#     4   9  19  31  53  83 107 142 182 233 299 341
#     4  10  24  39  57  83 112 160 198 240 296 360
#
# _framework density 25.693826000000001
#
# number of rings (size 3 to 8) (size 9 to 14) (size 15 to 20)
#    0.000    2.500    1.250    2.250    3.500    0.500 
#    0.000    0.000    2.750    1.500    0.000    0.000 
#    0.000    0.000    0.000    0.000    0.000    0.000 
#
# Total GULP energy -178204.675612 kJ/mol
# GULP energy per Si atom -5568.896113 kJ/mol
# Density = 2.563535 g / cm^3
# Si number density = 25.693826 Si / 1000 Ang^3
#
#
#
# Elastic Constant Matrix: (Units=GPa)
#
#
# Indices 1 2 3 4 5 6 
#
# 1 116.8582 9.8006 23.5132 0.0000 -17.0938 0.0000
# 2 9.8006 48.0529 -5.2103 0.0000 -8.3877 0.0000
# 3 23.5132 -5.2103 106.1258 0.0000 -14.9863 0.0000
# 4 0.0000 0.0000 0.0000 5.4921 0.0000 -2.0299
# 5 -17.0938 -8.3877 -14.9863 0.0000 50.2416 0.0000
# 6 0.0000 0.0000 0.0000 -2.0299 0.0000 39.2402
#
#
#
# Elastic Compliance Matrix: (Units=1/GPa)
#
#
# Indices 1 2 3 4 5 6 
#
# 1 0.009417 -0.001706 -0.001835 0.000000 0.002372 0.000000
# 2 -0.001706 0.022016 0.001979 0.000000 0.003686 0.000000
# 3 -0.001835 0.001979 0.010320 0.000000 0.002784 0.000000
# 4 0.000000 0.000000 0.000000 0.185628 0.000000 0.009603
# 5 0.002372 0.003686 0.002784 0.000000 0.022157 0.000000
# 6 0.000000 0.000000 0.000000 0.009603 0.000000 0.025981
#
#
# Mechanical properties :
#
#
# Convention : Reuss Voigt Hill
#
# Bulk Modulus (GPa) = 25.88692 36.36044 31.12368
# Shear Modulus (GPa) = 17.15166 35.19033 26.17099
#
# Velocity S-wave (km/s) = 2.58648 3.70483 3.19497
# Velocity P-wave (km/s) = 4.36083 5.69940 5.07445
#
# Compressibility (1/GPa) = 0.03862955
#
# Stress axis : x y z
#
# Youngs Moduli (GPa) = 106.19534 45.42110 96.90183
#
# Poissons Ratio (x) = 0.07747 0.17783
# Poissons Ratio (y) = 0.18112 -0.19179
# Poissons Ratio (z) = 0.19489 -0.08990
#
# Static dielectric constant tensor:
#      x y z
#    x 2.143320 0.000000 0.033840 
#    y 0.000000 2.089230 0.000000 
#    z 0.033840 0.000000 2.124610 
# 
# From -- ./inp_files/162286.got.cif
#   From: 2010.05.17/outbox.cif.g08.bks.cpg/sg15_82_cif.got.tgz:162286.got - 2010.06.03 18:47:42.
