data_PCOD9269307
_publ_section_title
;
Structure prediction by ZEFSAII (Michael W. Deem and Ramdas Pophale) SiO2 
 PCOD9269307
Probable space group: C 2/C
;
_chemical_formula_sum "Si O2"
_cell_formula_units_Z 56
_cell_length_a 19.722383
_cell_length_b 9.589651
_cell_length_c 13.277204
_cell_angle_alpha 90.000000
_cell_angle_beta 78.478482
_cell_angle_gamma 90.000000
_cell_volume 2460.527988
_symmetry_space_group_name_H-M "C 2/C"
_symmetry_group_IT_number 15
_symmetry_cell_setting 'monoclinic'
loop_
_space_group_symop_operation_xyz
x,y,z
-x,y,1/2-z
-x,-y,-z
x,-y,1/2+z
1/2+x,1/2+y,z
1/2-x,1/2+y,1/2-z
1/2-x,1/2-y,-z
1/2+x,1/2-y,1/2+z
loop_
_atom_site_type_symbol
_atom_site_label
_atom_site_fract_x
_atom_site_fract_y
_atom_site_fract_z
Si Si1 0.642081 0.829623 0.997961
Si Si2 0.248739 0.060388 0.717516
Si Si3 0.102441 0.054973 0.954829
Si Si4 0.179387 0.173684 0.552053
Si Si5 0.720614 0.282697 0.641521
Si Si6 0.605116 0.883237 0.443524
Si Si7 0.979541 0.849058 0.640154
O O1 0.723393 0.854569 0.950145
O O2 0.595649 0.964069 0.995252
O O3 0.621937 0.712615 0.923638
O O4 0.649714 0.754776 0.104561
O O5 0.191729 0.132968 0.663279
O O6 0.255154 0.136220 0.821139
O O7 0.325038 0.091074 0.644773
O O8 0.225793 0.898747 0.727502
O O9 0.040816 0.087460 0.052993
O O10 0.159889 0.965863 0.997131
O O11 0.079948 0.961818 0.867584
O O12 0.250000 0.250000 0.500000
O O13 0.121260 0.281463 0.532797
O O14 0.548802 0.799445 0.394338
O O15 0.000000 0.841835 0.750000
#
# Coordination Sequence:
#
# PCOD9269307 Si02
#       7
#     8   8   8   8   8   8   8
#     4  10  21  39  56  83 125 158 188 250 317 372
#     4  10  20  34  54  89 118 156 200 242 305 375
#     4  10  21  40  63  85 119 165 204 251 315 358
#     4   9  18  34  56  85 119 154 194 241 301 374
#     4  10  22  33  55  87 124 155 194 240 308 382
#     4   9  21  37  57  85 118 155 200 249 309 366
#     4  10  23  41  63  88 115 159 219 260 295 363
#
# _framework density 22.759342
#
# number of rings (size 3 to 8) (size 9 to 14) (size 15 to 20)
#    0.000    2.286    1.429    0.000    6.000    4.000 
#    0.000    0.714    0.000    0.000    0.000    0.000 
#    0.000    0.000    0.000    0.000    0.000    0.000 
#
# Total GULP energy -155970.451674 kJ/mol
# GULP energy per Si atom -5570.373274 kJ/mol
# Density = 2.270754 g / cm^3
# Si number density = 22.759342 Si / 1000 Ang^3
#
#
#
# Elastic Constant Matrix: (Units=GPa)
#
#
# Indices 1 2 3 4 5 6 
#
# 1 69.9250 46.4300 53.5730 0.0000 23.3040 0.0000
# 2 46.4300 189.2405 38.4609 0.0000 35.9402 0.0000
# 3 53.5730 38.4609 67.6406 0.0000 30.7579 0.0000
# 4 0.0000 0.0000 0.0000 30.6099 0.0000 12.8250
# 5 23.3040 35.9402 30.7579 0.0000 49.2368 0.0000
# 6 0.0000 0.0000 0.0000 12.8250 0.0000 40.1078
#
#
#
# Elastic Compliance Matrix: (Units=1/GPa)
#
#
# Indices 1 2 3 4 5 6 
#
# 1 0.038863 -0.004071 -0.029965 0.000000 0.003296 0.000000
# 2 -0.004071 0.006767 0.001043 0.000000 -0.003664 0.000000
# 3 -0.029965 0.001043 0.044446 0.000000 -0.014344 0.000000
# 4 0.000000 0.000000 0.000000 0.037723 0.000000 -0.012063
# 5 0.003296 -0.003664 -0.014344 0.000000 0.030385 0.000000
# 6 0.000000 0.000000 0.000000 -0.012063 0.000000 0.028790
#
#
# Mechanical properties :
#
#
# Convention : Reuss Voigt Hill
#
# Bulk Modulus (GPa) = 41.50954 67.08155 54.29554
# Shear Modulus (GPa) = 19.15777 36.54705 27.85241
#
# Velocity S-wave (km/s) = 2.90445 4.01160 3.50205
# Velocity P-wave (km/s) = 5.43377 7.14111 6.34513
#
# Compressibility (1/GPa) = 0.02409085
#
# Stress axis : x y z
#
# Youngs Moduli (GPa) = 25.73144 147.77433 22.49899
#
# Poissons Ratio (x) = 0.60160 0.67417
# Poissons Ratio (y) = 0.10476 -0.02346
# Poissons Ratio (z) = 0.77103 -0.15410
#
# Static dielectric constant tensor:
#      x y z
#    x 2.000600 0.000000 -0.080500 
#    y 0.000000 1.897880 0.000000 
#    z -0.080500 0.000000 1.931890 
# 
# From -- ./inp_files/166685.got.cif
#   From: 2010.05.17/outbox.cif.g08.bks.cpg/sg15_84_cif.got.tgz:166685.got - 2010.06.03 18:47:42.
