data_PCOD9269587
_publ_section_title
;
Structure prediction by ZEFSAII (Michael W. Deem and Ramdas Pophale) SiO2 
 PCOD9269587
Probable space group: C 2/C
;
_chemical_formula_sum "Si O2"
_cell_formula_units_Z 56
_cell_length_a 6.863121
_cell_length_b 16.774582
_cell_length_c 18.487012
_cell_angle_alpha 90.000000
_cell_angle_beta 106.615975
_cell_angle_gamma 90.000000
_cell_volume 2039.462330
_symmetry_space_group_name_H-M "C 2/C"
_symmetry_group_IT_number 15
_symmetry_cell_setting 'monoclinic'
loop_
_space_group_symop_operation_xyz
x,y,z
-x,y,1/2-z
-x,-y,-z
x,-y,1/2+z
1/2+x,1/2+y,z
1/2-x,1/2+y,1/2-z
1/2-x,1/2-y,-z
1/2+x,1/2-y,1/2+z
loop_
_atom_site_type_symbol
_atom_site_label
_atom_site_fract_x
_atom_site_fract_y
_atom_site_fract_z
Si Si1 0.988324 0.478423 0.583356
Si Si2 0.447750 0.854498 0.388023
Si Si3 0.595685 0.578285 0.109876
Si Si4 0.974527 0.776734 0.993742
Si Si5 0.721836 0.709478 0.737084
Si Si6 0.706825 0.112953 0.222242
Si Si7 0.515446 0.600827 0.617953
O O1 0.803619 0.421191 0.583780
O O2 0.000000 0.500000 0.500000
O O3 0.940090 0.563518 0.614207
O O4 0.175012 0.439908 0.647202
O O5 0.543171 0.805336 0.464159
O O6 0.403784 0.801621 0.313419
O O7 0.217716 0.882211 0.383990
O O8 0.502264 0.658342 0.068054
O O9 0.633843 0.586678 0.199455
O O10 0.514069 0.488947 0.088669
O O11 0.750000 0.750000 0.000000
O O12 0.064569 0.825931 0.069396
O O13 0.500000 0.723021 0.750000
O O14 0.743521 0.795875 0.702776
O O15 0.675766 0.622948 0.697389
O O16 0.500000 0.106180 0.250000
#
# Coordination Sequence:
#
# PCOD9269587 Si02
#       7
#     8   8   8   8   8   8   8
#     4  11  23  35  59  88 123 150 192 243 298 347
#     4  10  20  37  56  86 114 148 192 242 290 342
#     4  11  21  40  59  88 117 156 195 240 297 350
#     4  10  20  34  58  84 112 148 194 237 281 345
#     4   9  17  33  59  86 109 149 202 243 280 344
#     4   9  19  34  59  86 113 152 202 241 283 351
#     4  10  21  33  62  84 113 146 197 242 288 342
#
# _framework density 27.458220000000001
#
# number of rings (size 3 to 8) (size 9 to 14) (size 15 to 20)
#    0.000    2.000    1.429    3.000    8.000    0.000 
#    0.000    0.714    3.143    1.714    0.000    0.000 
#    0.000    0.000    0.000    0.000    0.000    0.000 
#
# Total GULP energy -156516.755247 kJ/mol
# GULP energy per Si atom -5589.884116 kJ/mol
# Density = 2.739572 g / cm^3
# Si number density = 27.458220 Si / 1000 Ang^3
#
#
#
# Elastic Constant Matrix: (Units=GPa)
#
#
# Indices 1 2 3 4 5 6 
#
# 1 81.9431 9.4295 15.2408 0.0000 -13.7099 0.0000
# 2 9.4295 166.5121 34.8029 0.0000 1.5076 0.0000
# 3 15.2408 34.8029 121.8305 0.0000 -9.3517 0.0000
# 4 0.0000 0.0000 0.0000 51.9647 0.0000 -14.8475
# 5 -13.7099 1.5076 -9.3517 0.0000 31.6583 0.0000
# 6 0.0000 0.0000 0.0000 -14.8475 0.0000 38.3721
#
#
#
# Elastic Compliance Matrix: (Units=1/GPa)
#
#
# Indices 1 2 3 4 5 6 
#
# 1 0.013394 -0.000581 -0.001087 0.000000 0.005507 0.000000
# 2 -0.000581 0.006435 -0.001850 0.000000 -0.001105 0.000000
# 3 -0.001087 -0.001850 0.009048 0.000000 0.002290 0.000000
# 4 0.000000 0.000000 0.000000 0.021636 0.000000 0.008372
# 5 0.005507 -0.001105 0.002290 0.000000 0.034701 0.000000
# 6 0.000000 0.000000 0.000000 0.008372 0.000000 0.029300
#
#
# Mechanical properties :
#
#
# Convention : Reuss Voigt Hill
#
# Bulk Modulus (GPa) = 45.78580 54.35913 50.07246
# Shear Modulus (GPa) = 38.81024 45.11984 41.96504
#
# Velocity S-wave (km/s) = 3.76364 4.05806 3.91362
# Velocity P-wave (km/s) = 5.96637 6.46507 6.22072
#
# Compressibility (1/GPa) = 0.02184083
#
# Stress axis : x y z
#
# Youngs Moduli (GPa) = 74.66037 155.39428 110.51556
#
# Poissons Ratio (x) = 0.09031 0.12011
# Poissons Ratio (y) = 0.04339 0.20450
# Poissons Ratio (z) = 0.08114 0.28755
#
# Static dielectric constant tensor:
#      x y z
#    x 2.406270 0.000000 -0.077500 
#    y 0.000000 2.009380 0.000000 
#    z -0.077500 0.000000 2.198050 
# 
# From -- ./inp_files/191067.got.cif
#   From: 2010.05.17/outbox.cif.g08.bks.cpg/sg15_96_cif.got.tgz:191067.got - 2010.06.03 18:47:42.
