data_PCOD9269239
_publ_section_title
;
Structure prediction by ZEFSAII (Michael W. Deem and Ramdas Pophale) SiO2 
 PCOD9269239
Probable space group: C 2/C
;
_chemical_formula_sum "Si O2"
_cell_formula_units_Z 56
_cell_length_a 17.522558
_cell_length_b 23.223194
_cell_length_c 13.366198
_cell_angle_alpha 90.000000
_cell_angle_beta 148.029361
_cell_angle_gamma 90.000000
_cell_volume 2879.921783
_symmetry_space_group_name_H-M "C 2/C"
_symmetry_group_IT_number 15
_symmetry_cell_setting 'monoclinic'
loop_
_space_group_symop_operation_xyz
x,y,z
-x,y,1/2-z
-x,-y,-z
x,-y,1/2+z
1/2+x,1/2+y,z
1/2-x,1/2+y,1/2-z
1/2-x,1/2-y,-z
1/2+x,1/2-y,1/2+z
loop_
_atom_site_type_symbol
_atom_site_label
_atom_site_fract_x
_atom_site_fract_y
_atom_site_fract_z
Si Si1 0.702327 0.993390 0.534009
Si Si2 0.730225 0.560118 0.600921
Si Si3 0.834830 0.187199 0.984755
Si Si4 0.250191 0.889028 0.761540
Si Si5 0.514803 0.455657 0.383085
Si Si6 0.024329 0.561819 0.474776
Si Si7 0.372671 0.718971 0.259935
O O1 0.696326 0.970122 0.413857
O O2 0.704698 0.935313 0.603153
O O3 0.585805 0.040897 0.437170
O O4 0.854138 0.024176 0.727925
O O5 0.652426 0.619073 0.488729
O O6 0.615469 0.512279 0.505219
O O7 0.842261 0.581620 0.808775
O O8 0.685761 0.217031 0.784988
O O9 0.853083 0.207970 0.119406
O O10 0.956740 0.209125 0.043583
O O11 0.100525 0.909160 0.543494
O O12 0.218962 0.827806 0.778823
O O13 0.382848 0.898732 0.830265
O O14 0.500000 0.438298 0.250000
O O15 0.000000 0.500000 0.500000
#
# Coordination Sequence:
#
# PCOD9269239 Si02
#       7
#     8   8   8   8   8   8   8
#     4  10  20  34  54  77 112 154 188 234 284 348
#     4  11  20  35  57  79 119 157 193 230 295 348
#     4  10  22  37  53  82 111 153 199 227 284 345
#     4  11  20  37  53  78 113 150 189 242 287 341
#     4  10  21  34  55  82 110 148 194 236 290 352
#     4  10  22  34  49  82 114 150 195 229 281 357
#     4  10  22  38  56  77 114 152 194 241 276 338
#
# _framework density 19.444973000000001
#
# number of rings (size 3 to 8) (size 9 to 14) (size 15 to 20)
#    0.000    1.714    4.286    1.286    8.000    2.286 
#    0.000    0.000    0.000    0.000    0.000    1.000 
#    4.286    0.000    0.000    0.000    0.000    0.000 
#
# Total GULP energy -155907.135848 kJ/mol
# GULP energy per Si atom -5568.111995 kJ/mol
# Density = 1.940071 g / cm^3
# Si number density = 19.444973 Si / 1000 Ang^3
#
#
#
# Elastic Constant Matrix: (Units=GPa)
#
#
# Indices 1 2 3 4 5 6 
#
# 1 86.4029 36.0095 23.2585 0.0000 9.6318 0.0000
# 2 36.0095 58.9145 16.4201 0.0000 9.3533 0.0000
# 3 23.2585 16.4201 57.7867 0.0000 -3.0377 0.0000
# 4 0.0000 0.0000 0.0000 9.9580 0.0000 -17.0403
# 5 9.6318 9.3533 -3.0377 0.0000 25.5275 0.0000
# 6 0.0000 0.0000 0.0000 -17.0403 0.0000 -13.6183
#
#
#
# Elastic Compliance Matrix: (Units=1/GPa)
#
#
# Indices 1 2 3 4 5 6 
#
# 1 0.016694 -0.008334 -0.004550 0.000000 -0.003787 0.000000
# 2 -0.008334 0.024107 -0.003818 0.000000 -0.006143 0.000000
# 3 -0.004550 -0.003818 0.020514 0.000000 0.005557 0.000000
# 4 0.000000 0.000000 0.000000 0.031969 0.000000 -0.040002
# 5 -0.003787 -0.006143 0.005557 0.000000 0.043514 0.000000
# 6 0.000000 0.000000 0.000000 -0.040002 0.000000 -0.023377
#
#
# Mechanical properties :
#
#
# Convention : Reuss Voigt Hill
#
# Bulk Modulus (GPa) = 35.83061 39.38668 37.60865
# Shear Modulus (GPa) = 32.02452 12.86784 22.44618
#
# Velocity S-wave (km/s) = 4.06264 2.57525 3.40125
# Velocity P-wave (km/s) = 6.36187 5.39833 5.89981
#
# Compressibility (1/GPa) = 0.02790910
#
# Stress axis : x y z
#
# Youngs Moduli (GPa) = 59.90155 41.48121 48.74838
#
# Poissons Ratio (x) = 0.34572 0.22181
# Poissons Ratio (y) = 0.49924 0.18615
# Poissons Ratio (z) = 0.27255 0.15840
#
# Static dielectric constant tensor:
#      x y z
#    x 1.773620 0.000000 0.035340 
#    y 0.000000 1.698810 0.000000 
#    z 0.035340 0.000000 1.399580 
# 
# From -- ./inp_files/163823.got.cif
#   From: 2010.05.17/outbox.cif.g08.bks.cpg/sg15_82_cif.got.tgz:163823.got - 2010.06.03 18:47:42.
