data_PCOD9269297
_publ_section_title
;
Structure prediction by ZEFSAII (Michael W. Deem and Ramdas Pophale) SiO2 
 PCOD9269297
Probable space group: C 2/C
;
_chemical_formula_sum "Si O2"
_cell_formula_units_Z 48
_cell_length_a 10.722197
_cell_length_b 14.376798
_cell_length_c 14.554223
_cell_angle_alpha 90.000000
_cell_angle_beta 103.454632
_cell_angle_gamma 90.000000
_cell_volume 2181.970672
_symmetry_space_group_name_H-M "C 2/C"
_symmetry_group_IT_number 15
_symmetry_cell_setting 'monoclinic'
loop_
_space_group_symop_operation_xyz
x,y,z
-x,y,1/2-z
-x,-y,-z
x,-y,1/2+z
1/2+x,1/2+y,z
1/2-x,1/2+y,1/2-z
1/2-x,1/2-y,-z
1/2+x,1/2-y,1/2+z
loop_
_atom_site_type_symbol
_atom_site_label
_atom_site_fract_x
_atom_site_fract_y
_atom_site_fract_z
Si Si1 0.000000 0.237172 0.750000
Si Si2 0.418626 0.081015 0.319164
Si Si3 0.224755 0.081965 0.131780
Si Si4 0.956407 0.054898 0.143983
Si Si5 0.684868 0.023954 0.536231
Si Si6 0.500000 0.738995 0.250000
Si Si7 0.782285 0.703744 0.844544
O O1 0.031543 0.312501 0.674284
O O2 0.133845 0.186519 0.790592
O O3 0.500000 0.034374 0.250000
O O4 0.407312 0.040224 0.418004
O O5 0.279148 0.077423 0.245187
O O6 0.218031 0.192578 0.113227
O O7 0.082192 0.042760 0.103535
O O8 0.316021 0.033459 0.073435
O O9 0.945985 0.166032 0.164352
O O10 0.000000 0.014325 0.250000
O O11 0.827574 0.013594 0.083222
O O12 0.674302 0.125903 0.577788
O O13 0.616994 0.793528 0.222995
#
# Coordination Sequence:
#
# PCOD9269297 Si02
#       7
#     4   8   8   8   8   4   8
#     4   8  18  36  56  72 118 150 184 212 286 336
#     4   9  20  37  54  74 111 149 185 215 280 325
#     4  10  20  38  54  84 111 147 182 225 280 340
#     4   9  17  35  57  75 107 144 183 219 271 327
#     4  12  21  31  62  86 110 136 191 240 268 318
#     4   8  18  36  58  70 116 154 184 212 284 340
#     4  10  20  34  54  87 111 145 183 232 280 331
#
# _framework density 21.998460999999999
#
# number of rings (size 3 to 8) (size 9 to 14) (size 15 to 20)
#    1.000    1.333    1.667    2.000    2.333    0.667 
#    0.000    0.000    0.000    0.000    0.000   10.500 
#    0.000    0.000    0.000    0.000    0.000    0.000 
#
# Total GULP energy -133708.904486 kJ/mol
# GULP energy per Si atom -5571.204354 kJ/mol
# Density = 2.194839 g / cm^3
# Si number density = 21.998461 Si / 1000 Ang^3
#
#
#
# Elastic Constant Matrix: (Units=GPa)
#
#
# Indices 1 2 3 4 5 6 
#
# 1 117.4113 1.5574 24.7794 0.0000 -23.5349 0.0000
# 2 1.5574 20.9329 9.2313 0.0000 2.9432 0.0000
# 3 24.7794 9.2313 76.0884 0.0000 -11.8421 0.0000
# 4 0.0000 0.0000 0.0000 17.3877 0.0000 4.6365
# 5 -23.5349 2.9432 -11.8421 0.0000 33.3680 0.0000
# 6 0.0000 0.0000 0.0000 4.6365 0.0000 7.5445
#
#
#
# Elastic Compliance Matrix: (Units=1/GPa)
#
#
# Indices 1 2 3 4 5 6 
#
# 1 0.010312 -0.000690 -0.002258 0.000000 0.006533 0.000000
# 2 -0.000690 0.052118 -0.007292 0.000000 -0.007672 0.000000
# 3 -0.002258 -0.007292 0.015469 0.000000 0.004541 0.000000
# 4 0.000000 0.000000 0.000000 0.068784 0.000000 -0.042272
# 5 0.006533 -0.007672 0.004541 0.000000 0.036865 0.000000
# 6 0.000000 0.000000 0.000000 -0.042272 0.000000 0.158526
#
#
# Mechanical properties :
#
#
# Convention : Reuss Voigt Hill
#
# Bulk Modulus (GPa) = 17.41592 31.72984 24.57288
# Shear Modulus (GPa) = 13.09948 23.58434 18.34191
#
# Velocity S-wave (km/s) = 2.44288 3.27783 2.89066
# Velocity P-wave (km/s) = 3.98634 5.36475 4.72607
#
# Compressibility (1/GPa) = 0.05741874
#
# Stress axis : x y z
#
# Youngs Moduli (GPa) = 96.97210 19.18735 64.64398
#
# Poissons Ratio (x) = 0.01324 0.14596
# Poissons Ratio (y) = 0.06692 0.47141
# Poissons Ratio (z) = 0.21895 0.13992
#
# Static dielectric constant tensor:
#      x y z
#    x 1.889680 0.000000 -0.002650 
#    y 0.000000 1.810220 0.000000 
#    z -0.002650 0.000000 1.814240 
# 
# From -- ./inp_files/143698.got.cif
#   From: 2010.05.17/outbox.cif.g08.bks.cpg/sg15_72_cif.got.tgz:143698.got - 2010.06.03 18:47:42.
