data_PCOD9269163
_publ_section_title
;
Structure prediction by ZEFSAII (Michael W. Deem and Ramdas Pophale) SiO2 
 PCOD9269163
Probable space group: C 2/C
;
_chemical_formula_sum "Si O2"
_cell_formula_units_Z 60
_cell_length_a 19.797437
_cell_length_b 12.650197
_cell_length_c 23.339616
_cell_angle_alpha 90.000000
_cell_angle_beta 28.931096
_cell_angle_gamma 90.000000
_cell_volume 2827.662888
_symmetry_space_group_name_H-M "C 2/C"
_symmetry_group_IT_number 15
_symmetry_cell_setting 'monoclinic'
loop_
_space_group_symop_operation_xyz
x,y,z
-x,y,1/2-z
-x,-y,-z
x,-y,1/2+z
1/2+x,1/2+y,z
1/2-x,1/2+y,1/2-z
1/2-x,1/2-y,-z
1/2+x,1/2-y,1/2+z
loop_
_atom_site_type_symbol
_atom_site_label
_atom_site_fract_x
_atom_site_fract_y
_atom_site_fract_z
Si Si1 0.574087 0.007930 0.821832
Si Si2 0.000000 0.478522 0.250000
Si Si3 0.730541 0.226200 0.711850
Si Si4 0.349260 0.393229 0.646479
Si Si5 0.479227 0.518588 0.697785
Si Si6 0.262679 0.373790 0.999907
Si Si7 0.309966 0.920363 0.575618
Si Si8 0.483241 0.613743 0.584190
O O1 0.523427 0.968944 0.795994
O O2 0.646416 0.122318 0.755515
O O3 0.690434 0.931621 0.761490
O O4 0.461979 0.028491 0.955960
O O5 0.857304 0.413069 0.368078
O O6 0.631603 0.297986 0.824315
O O7 0.793284 0.304826 0.616960
O O8 0.855241 0.185340 0.659489
O O9 0.439910 0.493192 0.599796
O O10 0.391342 0.360644 0.551329
O O11 0.500000 0.540316 0.750000
O O12 0.583547 0.421502 0.604120
O O13 0.317443 0.489897 0.805409
O O14 0.516679 0.612222 0.626291
O O15 0.250000 0.250000 0.000000
O O16 0.225966 0.415172 0.964508
#
# Coordination Sequence:
#
# PCOD9269163 Si02
#       8
#     8   4   8   8   8   8   8   8
#     4  10  22  36  56  85 113 155 189 233 290 338
#     4  10  20  34  52  80 112 144 186 228 276 342
#     4  11  21  37  56  87 117 148 193 239 289 344
#     4  10  21  38  59  84 117 151 194 241 283 347
#     4  10  21  38  58  82 114 154 190 236 290 347
#     4  10  21  30  53  82 115 150 181 229 285 346
#     4  10  21  34  53  84 117 148 187 236 287 341
#     4  10  21  38  61  84 114 159 193 234 295 343
#
# _framework density 21.218937
#
# number of rings (size 3 to 8) (size 9 to 14) (size 15 to 20)
#    0.000    1.867    1.333    2.400    6.533    2.667 
#    2.400    0.000    1.467    0.800    0.000    0.000 
#    0.000    0.000    0.000    0.000    0.000    0.000 
#
# Total GULP energy -167195.812582 kJ/mol
# GULP energy per Si atom -5573.193753 kJ/mol
# Density = 2.117064 g / cm^3
# Si number density = 21.218937 Si / 1000 Ang^3
#
#
#
# Elastic Constant Matrix: (Units=GPa)
#
#
# Indices 1 2 3 4 5 6 
#
# 1 83.8580 12.8145 27.1348 0.0002 14.7269 -0.0001
# 2 12.8145 18.3407 -3.5404 0.0000 8.9382 -0.0003
# 3 27.1348 -3.5404 116.5594 0.0000 17.9252 -0.0004
# 4 0.0002 0.0000 0.0000 -0.2073 -0.0001 14.6246
# 5 14.7269 8.9382 17.9252 -0.0001 32.7655 0.0001
# 6 -0.0001 -0.0003 -0.0004 14.6246 0.0001 4.4699
#
#
#
# Elastic Compliance Matrix: (Units=1/GPa)
#
#
# Indices 1 2 3 4 5 6 
#
# 1 0.014956 -0.010114 -0.003472 0.000000 -0.002064 0.000000
# 2 -0.010114 0.072471 0.007531 0.000001 -0.019343 0.000000
# 3 -0.003472 0.007531 0.010583 0.000000 -0.006283 0.000000
# 4 0.000000 0.000001 0.000000 -0.020809 -0.000001 0.068083
# 5 -0.002064 -0.019343 -0.006283 -0.000001 0.040162 0.000000
# 6 0.000000 0.000000 0.000000 0.068083 0.000000 0.000965
#
#
# Mechanical properties :
#
#
# Convention : Reuss Voigt Hill
#
# Bulk Modulus (GPa) = 11.64156 32.39730 22.01943
# Shear Modulus (GPa) = 31.43261 19.56224 25.49743
#
# Velocity S-wave (km/s) = 3.85300 3.03961 3.47022
# Velocity P-wave (km/s) = 5.02916 5.25550 5.14358
#
# Compressibility (1/GPa) = 0.08589914
#
# Stress axis : x y z
#
# Youngs Moduli (GPa) = 66.86159 13.79871 94.49540
#
# Poissons Ratio (x) = 0.13956 0.32805
# Poissons Ratio (y) = 0.67624 -0.71160
# Poissons Ratio (z) = 0.23211 -0.10391
#
# Static dielectric constant tensor:
#      x y z
#    x 1.833270 0.000000 0.002380 
#    y 0.000000 1.768070 0.000000 
#    z 0.002380 0.000000 1.897510 
# 
# From -- ./inp_files/280080.got.cif
#   From: 2010.05.17/outbox.cif.g08.bks.cpg/sg15_141_cif.got.tgz:280080.got - 2010.06.03 18:47:42.
