data_PCOD9269374
_publ_section_title
;
Structure prediction by ZEFSAII (Michael W. Deem and Ramdas Pophale) SiO2 
 PCOD9269374
Probable space group: C 2/C
;
_chemical_formula_sum "Si O2"
_cell_formula_units_Z 64
_cell_length_a 17.211613
_cell_length_b 15.965190
_cell_length_c 15.645916
_cell_angle_alpha 90.000000
_cell_angle_beta 44.774581
_cell_angle_gamma 90.000000
_cell_volume 3028.072533
_symmetry_space_group_name_H-M "C 2/C"
_symmetry_group_IT_number 15
_symmetry_cell_setting 'monoclinic'
loop_
_space_group_symop_operation_xyz
x,y,z
-x,y,1/2-z
-x,-y,-z
x,-y,1/2+z
1/2+x,1/2+y,z
1/2-x,1/2+y,1/2-z
1/2-x,1/2-y,-z
1/2+x,1/2-y,1/2+z
loop_
_atom_site_type_symbol
_atom_site_label
_atom_site_fract_x
_atom_site_fract_y
_atom_site_fract_z
Si Si1 0.817431 0.047446 0.116335
Si Si2 0.808701 0.554519 0.128312
Si Si3 0.686095 0.755661 0.915906
Si Si4 0.238498 0.151254 0.506959
Si Si5 0.095127 0.955579 0.235595
Si Si6 0.403870 0.009892 0.395159
Si Si7 0.368835 0.835500 0.361290
Si Si8 0.454398 0.393141 0.034729
O O1 0.712194 0.026617 0.257773
O O2 0.787459 0.109268 0.063941
O O3 0.877849 0.960572 0.045092
O O4 0.917783 0.094524 0.088548
O O5 0.804826 0.654614 0.135085
O O6 0.698890 0.517011 0.168377
O O7 0.909867 0.524092 0.989038
O O8 0.800324 0.704608 0.837518
O O9 0.595704 0.696944 0.943020
O O10 0.651345 0.779154 0.039433
O O11 0.250000 0.250000 0.500000
O O12 0.142220 0.122600 0.645618
O O13 0.346925 0.099701 0.449308
O O14 0.056514 0.920827 0.357427
O O15 0.000000 0.993577 0.250000
O O16 0.500000 0.020024 0.250000
O O17 0.334637 0.931818 0.407756
O O18 0.500000 0.838040 0.250000
#
# Coordination Sequence:
#
# PCOD9269374 Si02
#       8
#     8   8   8   8   8   8   8   8
#     4  10  21  39  57  89 121 163 209 257 330 376
#     4   9  21  36  59  88 120 159 204 261 315 380
#     4  10  20  34  55  91 120 156 202 260 314 373
#     4  11  23  37  62  90 121 164 214 270 312 380
#     4  10  20  40  59  87 122 165 216 260 322 389
#     4   9  19  41  61  81 120 165 206 253 313 384
#     4   9  19  35  56  85 119 160 203 251 316 382
#     4  10  21  37  62  86 125 167 200 267 328 382
#
# _framework density 21.135556000000001
#
# number of rings (size 3 to 8) (size 9 to 14) (size 15 to 20)
#    0.000    2.250    1.250    0.750    3.500    2.000 
#    0.000    0.625    0.000    3.000    0.000    0.000 
#    0.000    0.000    0.000    0.000    0.000    0.000 
#
# Total GULP energy -178271.070677 kJ/mol
# GULP energy per Si atom -5570.970959 kJ/mol
# Density = 2.108745 g / cm^3
# Si number density = 21.135556 Si / 1000 Ang^3
#
#
#
# Elastic Constant Matrix: (Units=GPa)
#
#
# Indices 1 2 3 4 5 6 
#
# 1 26.3217 10.7865 3.0006 0.0000 9.5590 0.0000
# 2 10.7865 129.3421 15.1219 0.0000 4.8477 0.0000
# 3 3.0006 15.1219 121.6459 0.0000 2.9898 0.0000
# 4 0.0000 0.0000 0.0000 15.6449 0.0000 -1.2508
# 5 9.5590 4.8477 2.9898 0.0000 20.7977 0.0000
# 6 0.0000 0.0000 0.0000 -1.2508 0.0000 20.1011
#
#
#
# Elastic Compliance Matrix: (Units=1/GPa)
#
#
# Indices 1 2 3 4 5 6 
#
# 1 0.046831 -0.003097 -0.000260 0.000000 -0.020765 0.000000
# 2 -0.003097 0.008110 -0.000924 0.000000 -0.000334 0.000000
# 3 -0.000260 -0.000924 0.008363 0.000000 -0.000868 0.000000
# 4 0.000000 0.000000 0.000000 0.064238 0.000000 0.003997
# 5 -0.020765 -0.000334 -0.000868 0.000000 0.057829 0.000000
# 6 0.000000 0.000000 0.000000 0.003997 0.000000 0.049997
#
#
# Mechanical properties :
#
#
# Convention : Reuss Voigt Hill
#
# Bulk Modulus (GPa) = 18.26683 37.23643 27.75163
# Shear Modulus (GPa) = 19.07105 27.86879 23.46992
#
# Velocity S-wave (km/s) = 3.00712 3.63516 3.33595
# Velocity P-wave (km/s) = 4.55176 5.93930 5.29121
#
# Compressibility (1/GPa) = 0.05474402
#
# Stress axis : x y z
#
# Youngs Moduli (GPa) = 21.35326 123.30149 119.57258
#
# Poissons Ratio (x) = 0.38185 0.03107
# Poissons Ratio (y) = 0.06613 0.11043
# Poissons Ratio (z) = 0.00555 0.11388
#
# Static dielectric constant tensor:
#      x y z
#    x 1.840650 0.000000 -0.002070 
#    y 0.000000 1.736650 0.000000 
#    z -0.002070 0.000000 1.840100 
# 
# From -- ./inp_files/162520.got.cif
#   From: 2010.05.17/outbox.cif.g08.bks.cpg/sg15_82_cif.got.tgz:162520.got - 2010.06.03 18:47:42.
