data_PCOD9269016
_publ_section_title
;
Structure prediction by ZEFSAII (Michael W. Deem and Ramdas Pophale) SiO2 
 PCOD9269016
Probable space group: C 2/C
;
_chemical_formula_sum "Si O2"
_cell_formula_units_Z 56
_cell_length_a 9.745078
_cell_length_b 15.327666
_cell_length_c 23.244702
_cell_angle_alpha 90.000000
_cell_angle_beta 43.945183
_cell_angle_gamma 90.000000
_cell_volume 2409.494410
_symmetry_space_group_name_H-M "C 2/C"
_symmetry_group_IT_number 15
_symmetry_cell_setting 'monoclinic'
loop_
_space_group_symop_operation_xyz
x,y,z
-x,y,1/2-z
-x,-y,-z
x,-y,1/2+z
1/2+x,1/2+y,z
1/2-x,1/2+y,1/2-z
1/2-x,1/2-y,-z
1/2+x,1/2-y,1/2+z
loop_
_atom_site_type_symbol
_atom_site_label
_atom_site_fract_x
_atom_site_fract_y
_atom_site_fract_z
Si Si1 0.063624 0.163484 0.892058
Si Si2 0.383621 0.914451 0.228476
Si Si3 0.438686 0.443681 0.704364
Si Si4 0.225209 0.448308 0.462893
Si Si5 0.046805 0.309199 0.990961
Si Si6 0.008984 0.811811 0.597333
Si Si7 0.272379 0.565838 0.554814
O O1 0.246843 0.164116 0.792731
O O2 0.120723 0.078140 0.915378
O O3 0.860043 0.138873 0.924277
O O4 0.032622 0.248644 0.939235
O O5 0.500000 0.950026 0.250000
O O6 0.560718 0.889992 0.132380
O O7 0.236680 0.985646 0.246174
O O8 0.500000 0.419614 0.750000
O O9 0.633884 0.488211 0.616765
O O10 0.380028 0.360169 0.683718
O O11 0.023594 0.408031 0.498027
O O12 0.211078 0.484756 0.532692
O O13 0.277918 0.297749 0.937124
O O14 0.936969 0.267056 0.079387
O O15 0.070627 0.882985 0.530876
#
# Coordination Sequence:
#
# PCOD9269016 Si02
#       7
#     8   8   8   8   8   8   8
#     4   9  18  36  53  86 117 156 188 237 294 355
#     4   9  19  35  58  85 113 149 192 240 293 345
#     4  10  22  37  60  86 117 147 200 255 296 341
#     4  10  20  33  60  88 112 148 196 252 292 342
#     4  10  20  35  57  81 116 153 198 228 298 364
#     4   9  21  38  55  82 113 156 195 239 291 350
#     4   9  18  33  61  83 112 149 199 242 284 352
#
# _framework density 23.241389999999999
#
# number of rings (size 3 to 8) (size 9 to 14) (size 15 to 20)
#    0.000    2.571    0.000    0.857    4.000    4.571 
#    0.000    5.000    0.000    0.000    0.000    0.000 
#    0.000    0.000    0.000    0.000    0.000    0.000 
#
# Total GULP energy -155995.149655 kJ/mol
# GULP energy per Si atom -5571.255345 kJ/mol
# Density = 2.318849 g / cm^3
# Si number density = 23.241390 Si / 1000 Ang^3
#
#
#
# Elastic Constant Matrix: (Units=GPa)
#
#
# Indices 1 2 3 4 5 6 
#
# 1 34.1255 10.5528 18.1058 0.0001 -5.0716 -0.0002
# 2 10.5528 84.4540 17.1319 -0.0002 14.5950 0.0000
# 3 18.1058 17.1319 70.9059 -0.0006 4.5485 0.0000
# 4 0.0001 -0.0002 -0.0006 18.5752 0.0001 1.0892
# 5 -5.0716 14.5950 4.5485 0.0001 23.9488 0.0002
# 6 -0.0002 0.0000 0.0000 1.0892 0.0002 34.8536
#
#
#
# Elastic Compliance Matrix: (Units=1/GPa)
#
#
# Indices 1 2 3 4 5 6 
#
# 1 0.037658 -0.005048 -0.009217 -0.000001 0.012802 0.000000
# 2 -0.005048 0.014448 -0.001588 0.000000 -0.009572 0.000000
# 3 -0.009217 -0.001588 0.017112 0.000001 -0.004234 0.000000
# 4 -0.000001 0.000000 0.000001 0.053934 -0.000001 -0.001685
# 5 0.012802 -0.009572 -0.004234 -0.000001 0.051105 0.000000
# 6 0.000000 0.000000 0.000000 -0.001685 0.000000 0.028744
#
#
# Mechanical properties :
#
#
# Convention : Reuss Voigt Hill
#
# Bulk Modulus (GPa) = 26.65865 31.22960 28.94412
# Shear Modulus (GPa) = 20.22573 25.05521 22.64047
#
# Velocity S-wave (km/s) = 2.95319 3.28692 3.12451
# Velocity P-wave (km/s) = 4.80871 5.27933 5.04951
#
# Compressibility (1/GPa) = 0.03751128
#
# Stress axis : x y z
#
# Youngs Moduli (GPa) = 26.55513 69.21443 58.43824
#
# Poissons Ratio (x) = 0.34939 0.53865
# Poissons Ratio (y) = 0.13405 0.09279
# Poissons Ratio (z) = 0.24477 0.10990
#
# Static dielectric constant tensor:
#      x y z
#    x 1.932000 0.000000 0.018280 
#    y 0.000000 1.964220 0.000000 
#    z 0.018280 0.000000 1.926400 
# 
# From -- ./inp_files/265476.got.cif
#   From: 2010.05.17/outbox.cif.g08.bks.cpg/sg15_133_cif.got.tgz:265476.got - 2010.06.03 18:47:42.
