data_PCOD9269059
_publ_section_title
;
Structure prediction by ZEFSAII (Michael W. Deem and Ramdas Pophale) SiO2 
 PCOD9269059
Probable space group: C 2/C
;
_chemical_formula_sum "Si O2"
_cell_formula_units_Z 48
_cell_length_a 5.922298
_cell_length_b 20.013979
_cell_length_c 20.792484
_cell_angle_alpha 90.000000
_cell_angle_beta 120.052372
_cell_angle_gamma 90.000000
_cell_volume 2133.198500
_symmetry_space_group_name_H-M "C 2/C"
_symmetry_group_IT_number 15
_symmetry_cell_setting 'monoclinic'
loop_
_space_group_symop_operation_xyz
x,y,z
-x,y,1/2-z
-x,-y,-z
x,-y,1/2+z
1/2+x,1/2+y,z
1/2-x,1/2+y,1/2-z
1/2-x,1/2-y,-z
1/2+x,1/2-y,1/2+z
loop_
_atom_site_type_symbol
_atom_site_label
_atom_site_fract_x
_atom_site_fract_y
_atom_site_fract_z
Si Si1 0.684200 0.618677 0.711781
Si Si2 0.606115 0.253872 0.377704
Si Si3 0.548752 0.175420 0.014375
Si Si4 0.609194 0.633788 0.117778
Si Si5 0.649943 0.040648 0.454970
Si Si6 0.608316 0.494395 0.885181
O O1 0.500000 0.613219 0.750000
O O2 0.599672 0.691413 0.673556
O O3 0.579811 0.554970 0.657051
O O4 0.000000 0.615852 0.750000
O O5 0.503731 0.218196 0.428300
O O6 0.694093 0.194589 0.341996
O O7 0.869199 0.294249 0.433604
O O8 0.448906 0.101076 0.013632
O O9 0.856706 0.167639 0.047995
O O10 0.745842 0.582351 0.089338
O O11 0.495417 0.579077 0.151182
O O12 0.829374 0.999092 0.529107
O O13 0.397853 0.998962 0.396796
#
# Coordination Sequence:
#
# PCOD9269059 Si02
#       6
#     8   8   8   8   8   8
#     4  12  30  49  72  94 138 195 239 276 331 420
#     4  10  21  40  63  97 136 171 232 279 348 410
#     4   9  18  35  63 102 134 166 212 292 360 406
#     4  10  20  33  67 100 130 173 208 286 366 414
#     4   9  18  35  63 102 134 166 212 292 360 406
#     4  10  21  40  63  97 136 171 232 279 348 410
#
# _framework density 22.501424
#
# number of rings (size 3 to 8) (size 9 to 14) (size 15 to 20)
#    0.000    2.000    1.667    1.000    4.667    1.333 
#    0.000    0.833    0.000    0.000    0.000    0.000 
#    0.000    0.000    0.000    0.000    0.000    0.000 
#
# Total GULP energy -133635.071020 kJ/mol
# GULP energy per Si atom -5568.127959 kJ/mol
# Density = 2.245021 g / cm^3
# Si number density = 22.501424 Si / 1000 Ang^3
#
#
#
# Elastic Constant Matrix: (Units=GPa)
#
#
# Indices 1 2 3 4 5 6 
#
# 1 73.6015 23.2353 34.7371 0.0000 28.6122 0.0000
# 2 23.2353 123.3802 47.4519 0.0000 42.6295 0.0000
# 3 34.7371 47.4519 58.0796 0.0000 33.5992 0.0000
# 4 0.0000 0.0000 0.0000 28.0749 0.0000 20.0968
# 5 28.6122 42.6295 33.5992 0.0000 30.8390 0.0000
# 6 0.0000 0.0000 0.0000 20.0968 0.0000 55.1563
#
#
#
# Elastic Compliance Matrix: (Units=1/GPa)
#
#
# Indices 1 2 3 4 5 6 
#
# 1 0.023671 0.006058 -0.004213 0.000000 -0.025746 0.000000
# 2 0.006058 0.017077 -0.001806 0.000000 -0.027259 0.000000
# 3 -0.004213 -0.001806 0.047354 0.000000 -0.045186 0.000000
# 4 0.000000 0.000000 0.000000 0.048187 0.000000 -0.017558
# 5 -0.025746 -0.027259 -0.045186 0.000000 0.143225 0.000000
# 6 0.000000 0.000000 0.000000 -0.017558 0.000000 0.024528
#
#
# Mechanical properties :
#
#
# Convention : Reuss Voigt Hill
#
# Bulk Modulus (GPa) = 11.34044 51.76778 31.55411
# Shear Modulus (GPa) = 14.99891 32.78984 23.89437
#
# Velocity S-wave (km/s) = 2.58461 3.82151 3.26222
# Velocity P-wave (km/s) = 3.73601 6.52138 5.31442
#
# Compressibility (1/GPa) = 0.08818000
#
# Stress axis : x y z
#
# Youngs Moduli (GPa) = 42.24528 58.55772 21.11764
#
# Poissons Ratio (x) = -0.35475 0.08897
# Poissons Ratio (y) = -0.25593 0.03814
# Poissons Ratio (z) = 0.17798 0.10577
#
# Static dielectric constant tensor:
#      x y z
#    x 2.045720 0.000000 0.010460 
#    y 0.000000 1.860490 0.000000 
#    z 0.010460 0.000000 1.848660 
# 
# From -- ./inp_files/227335.got.cif
#   From: 2010.05.17/outbox.cif.g08.bks.cpg/sg15_114_cif.got.tgz:227335.got - 2010.06.03 18:47:42.
