data_PCOD9269373
_publ_section_title
;
Structure prediction by ZEFSAII (Michael W. Deem and Ramdas Pophale) SiO2 
 PCOD9269373
Probable space group: C 2/C
;
_chemical_formula_sum "Si O2"
_cell_formula_units_Z 56
_cell_length_a 22.197041
_cell_length_b 5.601522
_cell_length_c 24.521761
_cell_angle_alpha 90.000000
_cell_angle_beta 116.018585
_cell_angle_gamma 90.000000
_cell_volume 2739.960086
_symmetry_space_group_name_H-M "C 2/C"
_symmetry_group_IT_number 15
_symmetry_cell_setting 'monoclinic'
loop_
_space_group_symop_operation_xyz
x,y,z
-x,y,1/2-z
-x,-y,-z
x,-y,1/2+z
1/2+x,1/2+y,z
1/2-x,1/2+y,1/2-z
1/2-x,1/2-y,-z
1/2+x,1/2-y,1/2+z
loop_
_atom_site_type_symbol
_atom_site_label
_atom_site_fract_x
_atom_site_fract_y
_atom_site_fract_z
Si Si1 0.072438 0.132127 0.918518
Si Si2 0.421883 0.746770 0.997924
Si Si3 0.684821 0.425901 0.904395
Si Si4 0.189380 0.490427 0.477292
Si Si5 0.338819 0.098215 0.782294
Si Si6 0.039088 0.564178 0.100195
Si Si7 0.696781 0.404685 0.286589
O O1 0.131881 0.320838 0.943930
O O2 0.002031 0.251359 0.878320
O O3 0.066589 0.020907 0.976674
O O4 0.106359 0.946108 0.890885
O O5 0.350225 0.821007 0.994598
O O6 0.481540 0.897365 0.050650
O O7 0.425806 0.797175 0.935803
O O8 0.694319 0.539996 0.849662
O O9 0.701176 0.150467 0.925356
O O10 0.740612 0.547223 0.966002
O O11 0.405669 0.074928 0.844342
O O12 0.332566 0.855865 0.742551
O O13 0.273099 0.092965 0.794784
O O14 0.337260 0.357175 0.752811
#
# Coordination Sequence:
#
# PCOD9269373 Si02
#       7
#     8   8   8   8   8   8   8
#     4  10  20  34  55  90 120 156 196 244 300 380
#     4   9  19  35  56  89 118 152 197 245 311 364
#     4  10  20  36  60  82 123 156 196 252 304 363
#     4   9  19  35  56  89 118 152 197 245 311 364
#     4  10  23  43  64  90 117 156 208 258 304 356
#     4  10  20  36  60  82 123 156 196 252 304 363
#     4  10  23  43  64  90 117 156 208 258 304 356
#
# _framework density 20.438255000000002
#
# number of rings (size 3 to 8) (size 9 to 14) (size 15 to 20)
#    0.000    2.286    0.000    1.714    4.000    0.000 
#    7.714    0.714    0.000    0.000    0.000    0.000 
#    0.000    0.000    0.000    0.000    0.000    0.000 
#
# Total GULP energy -155936.228595 kJ/mol
# GULP energy per Si atom -5569.151021 kJ/mol
# Density = 2.039174 g / cm^3
# Si number density = 20.438255 Si / 1000 Ang^3
#
#
#
# Elastic Constant Matrix: (Units=GPa)
#
#
# Indices 1 2 3 4 5 6 
#
# 1 37.1609 4.5497 1.6937 -0.0007 8.8192 0.0006
# 2 4.5497 48.1703 -1.3767 -0.0019 -1.6121 0.0018
# 3 1.6937 -1.3767 31.1749 -0.0007 3.8173 0.0007
# 4 -0.0007 -0.0019 -0.0007 12.7702 0.0001 0.1471
# 5 8.8192 -1.6121 3.8173 0.0001 30.2834 0.0000
# 6 0.0006 0.0018 0.0007 0.1471 0.0000 30.0291
#
#
#
# Elastic Compliance Matrix: (Units=1/GPa)
#
#
# Indices 1 2 3 4 5 6 
#
# 1 0.029366 -0.003082 -0.000675 0.000001 -0.008631 0.000000
# 2 -0.003082 0.021140 0.000867 0.000003 0.001914 -0.000001
# 3 -0.000675 0.000867 0.032626 0.000002 -0.003870 -0.000001
# 4 0.000001 0.000003 0.000002 0.078312 -0.000001 -0.000384
# 5 -0.008631 0.001914 -0.003870 -0.000001 0.036125 0.000000
# 6 0.000000 -0.000001 -0.000001 -0.000384 0.000000 0.033303
#
#
# Mechanical properties :
#
#
# Convention : Reuss Voigt Hill
#
# Bulk Modulus (GPa) = 12.92788 14.02663 13.47726
# Shear Modulus (GPa) = 19.05233 22.05917 20.55575
#
# Velocity S-wave (km/s) = 3.05649 3.28885 3.17479
# Velocity P-wave (km/s) = 4.33535 4.61518 4.47745
#
# Compressibility (1/GPa) = 0.07735218
#
# Stress axis : x y z
#
# Youngs Moduli (GPa) = 34.05244 47.30469 30.65047
#
# Poissons Ratio (x) = 0.14579 0.02068
# Poissons Ratio (y) = 0.10494 -0.02656
# Poissons Ratio (z) = 0.02297 -0.04100
#
# Static dielectric constant tensor:
#      x y z
#    x 1.737790 0.000000 -0.023490 
#    y 0.000000 1.936090 0.000000 
#    z -0.023490 0.000000 1.695890 
# 
# From -- ./inp_files/281032.got.cif
#   From: 2010.05.17/outbox.cif.g08.bks.cpg/sg15_141_cif.got.tgz:281032.got - 2010.06.03 18:47:42.
