data_PCOD9269637
_publ_section_title
;
Structure prediction by ZEFSAII (Michael W. Deem and Ramdas Pophale) SiO2 
 PCOD9269637
Probable space group: C 2/C
;
_chemical_formula_sum "Si O2"
_cell_formula_units_Z 48
_cell_length_a 23.515437
_cell_length_b 21.595981
_cell_length_c 13.028886
_cell_angle_alpha 90.000000
_cell_angle_beta 156.745124
_cell_angle_gamma 90.000000
_cell_volume 2612.369891
_symmetry_space_group_name_H-M "C 2/C"
_symmetry_group_IT_number 15
_symmetry_cell_setting 'monoclinic'
loop_
_space_group_symop_operation_xyz
x,y,z
-x,y,1/2-z
-x,-y,-z
x,-y,1/2+z
1/2+x,1/2+y,z
1/2-x,1/2+y,1/2-z
1/2-x,1/2-y,-z
1/2+x,1/2-y,1/2+z
loop_
_atom_site_type_symbol
_atom_site_label
_atom_site_fract_x
_atom_site_fract_y
_atom_site_fract_z
Si Si1 0.246283 0.662161 0.703173
Si Si2 0.500000 0.740576 0.750000
Si Si3 0.423670 0.037604 0.023801
Si Si4 0.702810 0.035401 0.362702
Si Si5 0.923169 0.139792 0.789462
Si Si6 0.097170 0.944585 0.705684
Si Si7 0.500000 0.374997 0.750000
O O1 0.128788 0.715610 0.502387
O O2 0.166020 0.596641 0.587183
O O3 0.331794 0.659492 0.737778
O O4 0.363737 0.665411 0.988591
O O5 0.449673 0.696151 0.758200
O O6 0.500000 0.009763 0.250000
O O7 0.551635 0.058303 0.158757
O O8 0.324750 0.990744 0.796285
O O9 0.826199 0.086906 0.573994
O O10 0.753604 0.977239 0.517554
O O11 0.070614 0.109260 0.078337
O O12 0.038468 0.917781 0.716255
O O13 0.000000 0.000000 0.500000
#
# Coordination Sequence:
#
# PCOD9269637 Si02
#       7
#     8   4   8   8   8   8   4
#     4  11  21  41  63  84 118 170 207 240 306 366
#     4  12  24  39  64  88 121 158 214 268 282 350
#     4  11  20  34  59  87 118 160 199 238 298 366
#     4  10  20  34  58  91 122 149 194 252 302 363
#     4  10  22  39  60  92 116 155 208 247 312 360
#     4   9  19  33  57  89 118 151 191 246 307 367
#     4  10  20  37  60  82 117 164 206 238 298 376
#
# _framework density 18.374120999999999
#
# number of rings (size 3 to 8) (size 9 to 14) (size 15 to 20)
#    0.000    1.667    4.167    0.500    0.000    4.000 
#    0.000    3.333    9.167    0.000    0.000    0.000 
#    0.000    0.000    0.000    0.000    0.000    0.000 
#
# Total GULP energy -133885.144350 kJ/mol
# GULP energy per Si atom -5578.547681 kJ/mol
# Density = 1.833230 g / cm^3
# Si number density = 18.374121 Si / 1000 Ang^3
#
#
#
# Elastic Constant Matrix: (Units=GPa)
#
#
# Indices 1 2 3 4 5 6 
#
# 1 90.0850 53.4154 42.4563 0.0000 -13.5183 0.0000
# 2 53.4154 81.3641 57.1457 0.0000 -10.3425 0.0000
# 3 42.4563 57.1457 137.5485 0.0000 -24.3328 0.0000
# 4 0.0000 0.0000 0.0000 23.7838 0.0000 -4.6871
# 5 -13.5183 -10.3425 -24.3328 0.0000 33.8421 0.0000
# 6 0.0000 0.0000 0.0000 -4.6871 0.0000 27.2745
#
#
#
# Elastic Compliance Matrix: (Units=1/GPa)
#
#
# Indices 1 2 3 4 5 6 
#
# 1 0.018655 -0.011568 -0.000297 0.000000 0.003703 0.000000
# 2 -0.011568 0.024528 -0.007002 0.000000 -0.002159 0.000000
# 3 -0.000297 -0.007002 0.011310 0.000000 0.005873 0.000000
# 4 0.000000 0.000000 0.000000 0.043519 0.000000 0.007479
# 5 0.003703 -0.002159 0.005873 0.000000 0.034591 0.000000
# 6 0.000000 0.000000 0.000000 0.007479 0.000000 0.037950
#
#
# Mechanical properties :
#
#
# Convention : Reuss Voigt Hill
#
# Bulk Modulus (GPa) = 59.66710 68.33694 64.00202
# Shear Modulus (GPa) = 23.37832 27.37875 25.37853
#
# Velocity S-wave (km/s) = 3.57087 3.86433 3.72050
# Velocity P-wave (km/s) = 7.03885 7.56197 7.30510
#
# Compressibility (1/GPa) = 0.01675966
#
# Stress axis : x y z
#
# Youngs Moduli (GPa) = 53.60356 40.77000 88.41859
#
# Poissons Ratio (x) = 0.47162 0.02628
# Poissons Ratio (y) = 0.62008 0.61908
# Poissons Ratio (z) = 0.01593 0.28546
#
# Static dielectric constant tensor:
#      x y z
#    x 1.656620 0.000000 0.011070 
#    y 0.000000 1.616230 0.000000 
#    z 0.011070 0.000000 1.682690 
# 
# From -- ./inp_files/88380.got.cif
#   From: 2010.05.17/outbox.cif.g08.bks.cpg/sg15_45_cif.got.tgz:88380.got - 2010.06.03 18:47:42.
