data_PCOD9269136
_publ_section_title
;
Structure prediction by ZEFSAII (Michael W. Deem and Ramdas Pophale) SiO2 
 PCOD9269136
Probable space group: C 2/C
;
_chemical_formula_sum "Si O2"
_cell_formula_units_Z 56
_cell_length_a 6.130884
_cell_length_b 27.912562
_cell_length_c 19.313273
_cell_angle_alpha 90.000000
_cell_angle_beta 115.470641
_cell_angle_gamma 90.000000
_cell_volume 2983.822625
_symmetry_space_group_name_H-M "C 2/C"
_symmetry_group_IT_number 15
_symmetry_cell_setting 'monoclinic'
loop_
_space_group_symop_operation_xyz
x,y,z
-x,y,1/2-z
-x,-y,-z
x,-y,1/2+z
1/2+x,1/2+y,z
1/2-x,1/2+y,1/2-z
1/2-x,1/2-y,-z
1/2+x,1/2-y,1/2+z
loop_
_atom_site_type_symbol
_atom_site_label
_atom_site_fract_x
_atom_site_fract_y
_atom_site_fract_z
Si Si1 0.500000 0.396582 0.250000
Si Si2 0.500000 0.768891 0.250000
Si Si3 0.869550 0.935009 0.461102
Si Si4 0.592923 0.972553 0.189148
Si Si5 0.503384 0.310949 0.345131
Si Si6 0.730461 0.503773 0.933282
Si Si7 0.150928 0.823285 0.022974
Si Si8 0.942650 0.246956 0.389632
O O1 0.271902 0.429741 0.236552
O O2 0.580260 0.360975 0.322349
O O3 0.522661 0.738722 0.322172
O O4 0.735194 0.801979 0.279534
O O5 0.640223 0.953582 0.385087
O O6 0.821900 0.880055 0.473951
O O7 0.097997 0.947996 0.442878
O O8 0.903396 0.963029 0.539039
O O9 0.500000 0.995076 0.250000
O O10 0.744819 0.998861 0.147073
O O11 0.486192 0.313414 0.424429
O O12 0.671953 0.266212 0.351386
O O13 0.000000 0.500000 0.000000
O O14 0.996080 0.799370 0.941513
O O15 0.398043 0.792115 0.060406
#
# Coordination Sequence:
#
# PCOD9269136 Si02
#       8
#     4   4   8   8   8   8   8   8
#     4  12  22  30  54  85 118 148 175 224 288 346
#     4  10  20  34  52  71 104 150 183 224 276 330
#     4  10  20  37  58  81 114 148 191 231 281 342
#     4  11  21  32  53  85 118 146 178 227 288 346
#     4  11  20  33  51  77 115 147 182 225 281 332
#     4   9  20  38  56  78 109 150 183 231 286 334
#     4  10  21  33  56  83 110 146 193 228 276 335
#     4  10  20  36  52  80 115 149 182 232 275 333
#
# _framework density 18.767871
#
# number of rings (size 3 to 8) (size 9 to 14) (size 15 to 20)
#    0.000    1.714    1.429    3.857    3.000    1.143 
#    0.000    0.000    0.000    6.000    0.000    4.000 
#    0.000    0.000    0.000    0.000    0.000    0.000 
#
# Total GULP energy -155959.991057 kJ/mol
# GULP energy per Si atom -5569.999681 kJ/mol
# Density = 1.872515 g / cm^3
# Si number density = 18.767871 Si / 1000 Ang^3
#
#
#
# Elastic Constant Matrix: (Units=GPa)
#
#
# Indices 1 2 3 4 5 6 
#
# 1 74.5292 15.0340 23.5952 0.0000 -7.0266 0.0000
# 2 15.0340 56.7841 37.6723 0.0000 -12.7244 0.0000
# 3 23.5952 37.6723 92.0582 0.0000 -25.7346 0.0000
# 4 0.0000 0.0000 0.0000 25.1445 0.0000 -2.6573
# 5 -7.0266 -12.7244 -25.7346 0.0000 46.0463 0.0000
# 6 0.0000 0.0000 0.0000 -2.6573 0.0000 21.4581
#
#
#
# Elastic Compliance Matrix: (Units=1/GPa)
#
#
# Indices 1 2 3 4 5 6 
#
# 1 0.014753 -0.001915 -0.002982 0.000000 0.000055 0.000000
# 2 -0.001915 0.024495 -0.009152 0.000000 0.001362 0.000000
# 3 -0.002982 -0.009152 0.017230 0.000000 0.006645 0.000000
# 4 0.000000 0.000000 0.000000 0.040297 0.000000 0.004990
# 5 0.000055 0.001362 0.006645 0.000000 0.025816 0.000000
# 6 0.000000 0.000000 0.000000 0.004990 0.000000 0.047220
#
#
# Mechanical properties :
#
#
# Convention : Reuss Voigt Hill
#
# Bulk Modulus (GPa) = 35.23761 41.77492 38.50627
# Shear Modulus (GPa) = 24.11144 28.33446 26.22295
#
# Velocity S-wave (km/s) = 3.58819 3.88974 3.74200
# Velocity P-wave (km/s) = 5.99859 6.51771 6.26353
#
# Compressibility (1/GPa) = 0.02837877
#
# Stress axis : x y z
#
# Youngs Moduli (GPa) = 67.78178 40.82537 58.03811
#
# Poissons Ratio (x) = 0.07819 0.17308
# Poissons Ratio (y) = 0.12981 0.53118
# Poissons Ratio (z) = 0.20213 0.37364
#
# Static dielectric constant tensor:
#      x y z
#    x 1.723530 0.000000 -0.025310 
#    y 0.000000 1.643820 0.000000 
#    z -0.025310 0.000000 1.679300 
# 
# From -- ./inp_files/186827.got.cif
#   From: 2010.05.17/outbox.cif.g08.bks.cpg/sg15_94_cif.got.tgz:186827.got - 2010.06.03 18:47:42.
