data_PCOD9269878
_publ_section_title
;
Structure prediction by ZEFSAII (Michael W. Deem and Ramdas Pophale) SiO2 
 PCOD9269878
Probable space group: C 2/C
;
_chemical_formula_sum "Si O2"
_cell_formula_units_Z 56
_cell_length_a 13.361159
_cell_length_b 14.190460
_cell_length_c 17.582709
_cell_angle_alpha 90.000000
_cell_angle_beta 132.641069
_cell_angle_gamma 90.000000
_cell_volume 2452.308112
_symmetry_space_group_name_H-M "C 2/C"
_symmetry_group_IT_number 15
_symmetry_cell_setting 'monoclinic'
loop_
_space_group_symop_operation_xyz
x,y,z
-x,y,1/2-z
-x,-y,-z
x,-y,1/2+z
1/2+x,1/2+y,z
1/2-x,1/2+y,1/2-z
1/2-x,1/2-y,-z
1/2+x,1/2-y,1/2+z
loop_
_atom_site_type_symbol
_atom_site_label
_atom_site_fract_x
_atom_site_fract_y
_atom_site_fract_z
Si Si1 0.757324 0.790763 0.181228
Si Si2 0.000000 0.909763 0.250000
Si Si3 0.859332 0.752850 0.386194
Si Si4 0.445350 0.085232 0.021220
Si Si5 0.108131 0.117630 0.066936
Si Si6 0.750000 0.250000 0.000000
Si Si7 0.300712 0.497435 0.520810
Si Si8 0.968761 0.158651 0.146661
O O1 0.749522 0.781132 0.266905
O O2 0.648387 0.854937 0.083857
O O3 0.734953 0.689466 0.131148
O O4 0.899669 0.841067 0.242214
O O5 0.092095 0.966308 0.358888
O O6 0.779580 0.740501 0.422251
O O7 0.934458 0.657404 0.395326
O O8 0.979395 0.829382 0.462095
O O9 0.343697 0.042829 0.032838
O O10 0.500000 0.000000 0.000000
O O11 0.068388 0.111212 0.136040
O O12 0.147340 0.029250 0.035246
O O13 0.576423 0.236859 0.894744
O O14 0.317135 0.384059 0.539345
O O15 0.000000 0.141602 0.250000
#
# Coordination Sequence:
#
# PCOD9269878 Si02
#       8
#     8   4   8   8   8   4   8   8
#     4  10  21  37  63  89 123 162 198 253 304 370
#     4  10  20  34  64  88 118 154 202 240 312 368
#     4  10  20  39  60  87 123 158 208 246 304 372
#     4  10  23  39  61  90 124 161 203 253 313 367
#     4  10  22  36  60  92 120 156 205 255 297 361
#     4  10  22  38  60  86 114 166 204 254 296 360
#     4  11  21  39  61  91 122 160 200 259 307 356
#     4  11  22  39  63  85 121 161 208 247 303 369
#
# _framework density 22.835629000000001
#
# number of rings (size 3 to 8) (size 9 to 14) (size 15 to 20)
#    0.000    1.714    2.143    2.143    2.000    1.714 
#    0.000    0.000    0.000    3.429    0.000    0.000 
#    0.000    0.000    0.000    0.000    0.000    0.000 
#
# Total GULP energy -155903.657210 kJ/mol
# GULP energy per Si atom -5567.987758 kJ/mol
# Density = 2.278365 g / cm^3
# Si number density = 22.835629 Si / 1000 Ang^3
#
#
#
# Elastic Constant Matrix: (Units=GPa)
#
#
# Indices 1 2 3 4 5 6 
#
# 1 119.7146 22.8030 27.3227 0.0000 -10.7930 0.0000
# 2 22.8030 61.0121 6.4626 0.0000 -3.0503 0.0000
# 3 27.3227 6.4626 57.4371 0.0000 -17.7215 0.0000
# 4 0.0000 0.0000 0.0000 14.0191 0.0000 -4.2148
# 5 -10.7930 -3.0503 -17.7215 0.0000 35.1097 0.0000
# 6 0.0000 0.0000 0.0000 -4.2148 0.0000 34.8807
#
#
#
# Elastic Compliance Matrix: (Units=1/GPa)
#
#
# Indices 1 2 3 4 5 6 
#
# 1 0.009988 -0.003257 -0.004175 0.000000 0.000680 0.000000
# 2 -0.003257 0.017660 -0.000324 0.000000 0.000370 0.000000
# 3 -0.004175 -0.000324 0.022538 0.000000 0.010064 0.000000
# 4 0.000000 0.000000 0.000000 0.074020 0.000000 0.008944
# 5 0.000680 0.000370 0.010064 0.000000 0.033803 0.000000
# 6 0.000000 0.000000 0.000000 0.008944 0.000000 0.029750
#
#
# Mechanical properties :
#
#
# Convention : Reuss Voigt Hill
#
# Bulk Modulus (GPa) = 28.83901 39.03782 33.93842
# Shear Modulus (GPa) = 23.27441 28.90696 26.09068
#
# Velocity S-wave (km/s) = 3.19598 3.56177 3.38382
# Velocity P-wave (km/s) = 5.12595 5.83500 5.49193
#
# Compressibility (1/GPa) = 0.03467526
#
# Stress axis : x y z
#
# Youngs Moduli (GPa) = 100.12357 56.62480 44.36950
#
# Poissons Ratio (x) = 0.18441 0.18524
# Poissons Ratio (y) = 0.32606 0.01437
# Poissons Ratio (z) = 0.41800 0.01834
#
# Static dielectric constant tensor:
#      x y z
#    x 1.984080 0.000000 0.188180 
#    y 0.000000 2.834950 0.000000 
#    z 0.188180 0.000000 2.014510 
# 
# From -- ./inp_files/97077.got.cif
#   From: 2010.05.17/outbox.cif.g08.bks.cpg/sg15_49_cif.got.tgz:97077.got - 2010.06.03 18:47:42.
