data_PCOD9269707
_publ_section_title
;
Structure prediction by ZEFSAII (Michael W. Deem and Ramdas Pophale) SiO2 
 PCOD9269707
Probable space group: C 2/C
;
_chemical_formula_sum "Si O2"
_cell_formula_units_Z 60
_cell_length_a 25.657491
_cell_length_b 18.826549
_cell_length_c 13.223396
_cell_angle_alpha 90.000000
_cell_angle_beta 27.548570
_cell_angle_gamma 90.000000
_cell_volume 2954.200685
_symmetry_space_group_name_H-M "C 2/C"
_symmetry_group_IT_number 15
_symmetry_cell_setting 'monoclinic'
loop_
_space_group_symop_operation_xyz
x,y,z
-x,y,1/2-z
-x,-y,-z
x,-y,1/2+z
1/2+x,1/2+y,z
1/2-x,1/2+y,1/2-z
1/2-x,1/2-y,-z
1/2+x,1/2-y,1/2+z
loop_
_atom_site_type_symbol
_atom_site_label
_atom_site_fract_x
_atom_site_fract_y
_atom_site_fract_z
Si Si1 0.258166 0.095112 0.535255
Si Si2 0.404692 0.740501 0.497434
Si Si3 0.931254 0.595481 0.970997
Si Si4 0.497196 0.868903 0.574168
Si Si5 0.793275 0.018080 0.067933
Si Si6 0.743577 0.120873 0.735178
Si Si7 0.500000 0.385332 0.250000
Si Si8 0.580256 0.707066 0.800670
O O1 0.391858 0.086909 0.295510
O O2 0.204511 0.038831 0.553223
O O3 0.232464 0.088940 0.695892
O O4 0.205849 0.170887 0.585614
O O5 0.381349 0.824373 0.547732
O O6 0.294709 0.698974 0.650324
O O7 0.445471 0.706869 0.534118
O O8 0.500000 0.732076 0.250000
O O9 0.000000 0.578598 0.750000
O O10 0.009739 0.606139 0.935664
O O11 0.827979 0.543349 0.177030
O O12 0.612623 0.876666 0.434148
O O13 0.449762 0.788844 0.669622
O O14 0.804478 0.934175 0.057587
O O15 0.891501 0.064175 0.949259
O O16 0.482216 0.337869 0.179393
#
# Coordination Sequence:
#
# PCOD9269707 Si02
#       8
#     8   8   8   8   8   8   4   8
#     4   9  20  39  56  82 124 151 187 243 302 333
#     4   9  20  41  58  82 120 157 189 243 297 340
#     4   9  20  40  61  81 121 157 186 238 302 341
#     4  10  20  34  59  91 115 148 197 241 286 353
#     4  10  23  40  57  85 119 159 194 238 292 351
#     4  11  23  35  59  90 113 155 198 237 288 344
#     4  10  22  38  60  86 114 152 208 240 286 356
#     4   9  19  36  60  88 112 152 194 246 297 337
#
# _framework density 20.310061999999999
#
# number of rings (size 3 to 8) (size 9 to 14) (size 15 to 20)
#    0.000    2.400    0.000    0.800    4.667    6.400 
#    4.800    4.000    0.000    0.000    0.000    0.000 
#    0.000    0.000    0.000    0.000    0.000    0.000 
#
# Total GULP energy -167123.062221 kJ/mol
# GULP energy per Si atom -5570.768741 kJ/mol
# Density = 2.026384 g / cm^3
# Si number density = 20.310062 Si / 1000 Ang^3
#
#
#
# Elastic Constant Matrix: (Units=GPa)
#
#
# Indices 1 2 3 4 5 6 
#
# 1 76.3278 23.5180 10.0425 0.0000 -18.8069 0.0000
# 2 23.5180 36.8181 -2.8374 0.0000 0.2729 0.0000
# 3 10.0425 -2.8374 23.6911 0.0000 -3.1596 0.0000
# 4 0.0000 0.0000 0.0000 13.9577 0.0000 10.9088
# 5 -18.8069 0.2729 -3.1596 0.0000 23.5187 0.0000
# 6 0.0000 0.0000 0.0000 10.9088 0.0000 3.4457
#
#
#
# Elastic Compliance Matrix: (Units=1/GPa)
#
#
# Indices 1 2 3 4 5 6 
#
# 1 0.023688 -0.016001 -0.009578 0.000000 0.017841 0.000000
# 2 -0.016001 0.038223 0.009770 0.000000 -0.011926 0.000000
# 3 -0.009578 0.009770 0.047250 0.000000 -0.001425 0.000000
# 4 0.000000 0.000000 0.000000 -0.048594 0.000000 0.153844
# 5 0.017841 -0.011926 -0.001425 0.000000 0.056733 0.000000
# 6 0.000000 0.000000 0.000000 0.153844 0.000000 -0.196842
#
#
# Mechanical properties :
#
#
# Convention : Reuss Voigt Hill
#
# Bulk Modulus (GPa) = 12.89623 22.03148 17.46385
# Shear Modulus (GPa) = -226.48805 15.25869 -105.61468
#
# Velocity S-wave (km/s) = -10.57153 2.74394 -7.21901
# Velocity P-wave (km/s) = 11.94346 4.57275 7.80180
#
# Compressibility (1/GPa) = 0.07754207
#
# Stress axis : x y z
#
# Youngs Moduli (GPa) = 42.21581 26.16234 21.16399
#
# Poissons Ratio (x) = 0.41863 0.20271
# Poissons Ratio (y) = 0.67551 -0.20677
# Poissons Ratio (z) = 0.40435 -0.25561
#
# Static dielectric constant tensor:
#      x y z
#    x 1.732200 0.000000 0.015560 
#    y 0.000000 1.770460 0.000000 
#    z 0.015560 0.000000 1.710470 
# 
# From -- ./inp_files/119948.got.cif
#   From: 2010.05.17/outbox.cif.g08.bks.cpg/sg15_60_cif.got.tgz:119948.got - 2010.06.03 18:47:42.
