data_PCOD9269319
_publ_section_title
;
Structure prediction by ZEFSAII (Michael W. Deem and Ramdas Pophale) SiO2 
 PCOD9269319
Probable space group: C 2/C
;
_chemical_formula_sum "Si O2"
_cell_formula_units_Z 56
_cell_length_a 20.444274
_cell_length_b 18.679484
_cell_length_c 8.973202
_cell_angle_alpha 90.000000
_cell_angle_beta 116.586384
_cell_angle_gamma 90.000000
_cell_volume 3064.418802
_symmetry_space_group_name_H-M "C 2/C"
_symmetry_group_IT_number 15
_symmetry_cell_setting 'monoclinic'
loop_
_space_group_symop_operation_xyz
x,y,z
-x,y,1/2-z
-x,-y,-z
x,-y,1/2+z
1/2+x,1/2+y,z
1/2-x,1/2+y,1/2-z
1/2-x,1/2-y,-z
1/2+x,1/2-y,1/2+z
loop_
_atom_site_type_symbol
_atom_site_label
_atom_site_fract_x
_atom_site_fract_y
_atom_site_fract_z
Si Si1 0.801530 0.589540 0.301800
Si Si2 0.877878 0.476881 0.599282
Si Si3 0.427266 0.192793 0.453909
Si Si4 0.425961 0.457273 0.267137
Si Si5 0.991468 0.846414 0.569151
Si Si6 0.500000 0.867390 0.750000
Si Si7 0.500000 0.916541 0.250000
Si Si8 0.631717 0.591472 0.099876
O O1 0.831386 0.524726 0.437150
O O2 0.825818 0.562896 0.162672
O O3 0.845154 0.662822 0.381415
O O4 0.715794 0.602986 0.224955
O O5 0.938559 0.418332 0.609295
O O6 0.932647 0.534042 0.732654
O O7 0.448773 0.271375 0.526828
O O8 0.455362 0.181885 0.315932
O O9 0.472041 0.134255 0.592511
O O10 0.500000 0.473164 0.250000
O O11 0.447006 0.400013 0.416136
O O12 0.395543 0.525052 0.325495
O O13 0.374598 0.427828 0.082274
O O14 0.000000 0.868569 0.750000
O O15 0.073174 0.846424 0.580566
#
# Coordination Sequence:
#
# PCOD9269319 Si02
#       8
#     8   8   8   8   8   4   4   8
#     4  10  20  34  55  85 116 143 176 227 278 325
#     4   9  17  31  54  81 114 141 185 226 272 312
#     4  10  20  34  55  79 113 147 189 218 269 322
#     4  10  21  37  61  87 105 138 186 227 269 325
#     4  11  22  38  59  78 108 147 189 227 264 324
#     4   9  18  30  54  82 107 148 190 224 261 322
#     4   9  16  32  54  80 105 152 186 226 255 324
#     4  11  21  37  60  84 112 140 180 228 280 318
#
# _framework density 18.274263999999999
#
# number of rings (size 3 to 8) (size 9 to 14) (size 15 to 20)
#    0.000    2.000    0.714    4.714    3.000    3.429 
#    0.000    1.429    6.286    0.000    0.000    0.000 
#    0.000    0.000    0.000    0.000    0.000    0.000 
#
# Total GULP energy -155991.495295 kJ/mol
# GULP energy per Si atom -5571.124832 kJ/mol
# Density = 1.823267 g / cm^3
# Si number density = 18.274264 Si / 1000 Ang^3
#
#
#
# Elastic Constant Matrix: (Units=GPa)
#
#
# Indices 1 2 3 4 5 6 
#
# 1 77.6232 26.2060 31.0573 0.0000 19.4422 0.0000
# 2 26.2060 70.9976 17.4800 0.0000 2.1100 0.0000
# 3 31.0573 17.4800 91.3580 0.0000 3.6841 0.0000
# 4 0.0000 0.0000 0.0000 9.5609 0.0000 -2.1080
# 5 19.4422 2.1100 3.6841 0.0000 34.1454 0.0000
# 6 0.0000 0.0000 0.0000 -2.1080 0.0000 14.9065
#
#
#
# Elastic Compliance Matrix: (Units=1/GPa)
#
#
# Indices 1 2 3 4 5 6 
#
# 1 0.019342 -0.005583 -0.005099 0.000000 -0.010118 0.000000
# 2 -0.005583 0.016406 -0.001334 0.000000 0.002309 0.000000
# 3 -0.005099 -0.001334 0.012870 0.000000 0.001597 0.000000
# 4 0.000000 0.000000 0.000000 0.107959 0.000000 0.015267
# 5 -0.010118 0.002309 0.001597 0.000000 0.034733 0.000000
# 6 0.000000 0.000000 0.000000 0.015267 0.000000 0.069244
#
#
# Mechanical properties :
#
#
# Convention : Reuss Voigt Hill
#
# Bulk Modulus (GPa) = 40.67494 43.27396 41.97445
# Shear Modulus (GPa) = 17.07759 22.73825 19.90792
#
# Velocity S-wave (km/s) = 3.06030 3.53126 3.30418
# Velocity P-wave (km/s) = 5.89861 6.35280 6.12991
#
# Compressibility (1/GPa) = 0.02458516
#
# Stress axis : x y z
#
# Youngs Moduli (GPa) = 51.70066 60.95456 77.69867
#
# Poissons Ratio (x) = 0.34033 0.39619
# Poissons Ratio (y) = 0.28866 0.10366
# Poissons Ratio (z) = 0.26363 0.08132
#
# Static dielectric constant tensor:
#      x y z
#    x 1.642900 0.000000 -0.062870 
#    y 0.000000 1.634210 0.000000 
#    z -0.062870 0.000000 1.922100 
# 
# From -- ./inp_files/56532.got.cif
#   From: 2010.05.17/outbox.cif.g08.bks.cpg/sg15_29_cif.got.tgz:56532.got - 2010.06.03 18:47:42.
