data_PCOD9269544
_publ_section_title
;
Structure prediction by ZEFSAII (Michael W. Deem and Ramdas Pophale) SiO2 
 PCOD9269544
Probable space group: C 2/C
;
_chemical_formula_sum "Si O2"
_cell_formula_units_Z 52
_cell_length_a 19.454090
_cell_length_b 8.892789
_cell_length_c 17.699315
_cell_angle_alpha 90.000000
_cell_angle_beta 44.668673
_cell_angle_gamma 90.000000
_cell_volume 2152.605150
_symmetry_space_group_name_H-M "C 2/C"
_symmetry_group_IT_number 15
_symmetry_cell_setting 'monoclinic'
loop_
_space_group_symop_operation_xyz
x,y,z
-x,y,1/2-z
-x,-y,-z
x,-y,1/2+z
1/2+x,1/2+y,z
1/2-x,1/2+y,1/2-z
1/2-x,1/2-y,-z
1/2+x,1/2-y,1/2+z
loop_
_atom_site_type_symbol
_atom_site_label
_atom_site_fract_x
_atom_site_fract_y
_atom_site_fract_z
Si Si1 0.476848 0.642307 0.404075
Si Si2 0.000000 0.952931 0.250000
Si Si3 0.423041 0.831696 0.646006
Si Si4 0.608595 0.663580 0.531038
Si Si5 0.731007 0.353593 0.155064
Si Si6 0.308288 0.173324 0.074473
Si Si7 0.850201 0.652376 0.716915
O O1 0.530935 0.569166 0.290453
O O2 0.424501 0.495055 0.481109
O O3 0.387058 0.754427 0.456164
O O4 0.564723 0.731546 0.372905
O O5 0.083355 0.862185 0.139452
O O6 0.536826 0.794475 0.558200
O O7 0.375587 0.702186 0.735596
O O8 0.373870 0.830400 0.601270
O O9 0.399601 0.994493 0.697337
O O10 0.716463 0.716343 0.428882
O O11 0.761265 0.511489 0.093570
O O12 0.782435 0.368167 0.197064
O O13 0.218965 0.283524 0.163755
#
# Coordination Sequence:
#
# PCOD9269544 Si02
#       7
#     8   4   8   8   8   8   8
#     4  10  20  38  58  74 117 147 191 234 273 314
#     4   8  24  40  56  76 108 150 214 230 252 328
#     4  10  20  34  57  90 118 142 178 226 289 351
#     4  10  20  38  58  74 117 147 191 234 273 314
#     4  10  20  34  57  90 118 142 178 226 289 351
#     4  10  20  34  57  90 118 142 178 226 289 351
#     4  10  20  34  57  90 118 142 178 226 289 351
#
# _framework density 24.156773999999999
#
# number of rings (size 3 to 8) (size 9 to 14) (size 15 to 20)
#    0.923    1.231    0.000    3.692    0.000    7.385 
#    0.000    4.615    0.000    0.000    0.000    0.000 
#    0.000    0.000    0.000    0.000    0.000    0.000 
#
# Total GULP energy -145074.732032 kJ/mol
# GULP energy per Si atom -5579.797386 kJ/mol
# Density = 2.410179 g / cm^3
# Si number density = 24.156774 Si / 1000 Ang^3
#
#
#
# Elastic Constant Matrix: (Units=GPa)
#
#
# Indices 1 2 3 4 5 6 
#
# 1 16.7635 12.3153 10.5038 0.0000 1.8477 0.0000
# 2 12.3153 80.6618 -7.2829 0.0000 -1.8736 0.0000
# 3 10.5038 -7.2829 79.0396 0.0000 -11.1695 0.0000
# 4 0.0000 0.0000 0.0000 40.9711 0.0000 -4.9778
# 5 1.8477 -1.8736 -11.1695 0.0000 27.1789 0.0000
# 6 0.0000 0.0000 0.0000 -4.9778 0.0000 16.2751
#
#
#
# Elastic Compliance Matrix: (Units=1/GPa)
#
#
# Indices 1 2 3 4 5 6 
#
# 1 0.079420 -0.013620 -0.013488 0.000000 -0.011881 0.000000
# 2 -0.013620 0.014889 0.003671 0.000000 0.003461 0.000000
# 3 -0.013488 0.003671 0.015870 0.000000 0.007692 0.000000
# 4 0.000000 0.000000 0.000000 0.025349 0.000000 0.007753
# 5 -0.011881 0.003461 0.007692 0.000000 0.041001 0.000000
# 6 0.000000 0.000000 0.000000 0.007753 0.000000 0.063815
#
#
# Mechanical properties :
#
#
# Convention : Reuss Voigt Hill
#
# Bulk Modulus (GPa) = 15.79662 23.05969 19.42816
# Shear Modulus (GPa) = 16.21694 27.61359 21.91526
#
# Velocity S-wave (km/s) = 2.59380 3.38464 3.01526
# Velocity P-wave (km/s) = 3.94002 4.98407 4.49248
#
# Compressibility (1/GPa) = 0.06330467
#
# Stress axis : x y z
#
# Youngs Moduli (GPa) = 12.59121 67.16509 63.01357
#
# Poissons Ratio (x) = 0.91476 0.84995
# Poissons Ratio (y) = 0.17149 -0.23132
# Poissons Ratio (z) = 0.16983 -0.24656
#
# Static dielectric constant tensor:
#      x y z
#    x 2.005440 0.000000 0.021800 
#    y 0.000000 1.921300 0.000000 
#    z 0.021800 0.000000 1.914920 
# 
# From -- ./inp_files/180484.got.cif
#   From: 2010.05.17/outbox.cif.g08.bks.cpg/sg15_91_cif.got.tgz:180484.got - 2010.06.03 18:47:42.
