data_PCOD9269065
_publ_section_title
;
Structure prediction by ZEFSAII (Michael W. Deem and Ramdas Pophale) SiO2 
 PCOD9269065
Probable space group: C 2/C
;
_chemical_formula_sum "Si O2"
_cell_formula_units_Z 60
_cell_length_a 21.908027
_cell_length_b 32.037294
_cell_length_c 5.451606
_cell_angle_alpha 90.000000
_cell_angle_beta 75.635420
_cell_angle_gamma 90.000000
_cell_volume 3706.716018
_symmetry_space_group_name_H-M "C 2/C"
_symmetry_group_IT_number 15
_symmetry_cell_setting 'monoclinic'
loop_
_space_group_symop_operation_xyz
x,y,z
-x,y,1/2-z
-x,-y,-z
x,-y,1/2+z
1/2+x,1/2+y,z
1/2-x,1/2+y,1/2-z
1/2-x,1/2-y,-z
1/2+x,1/2-y,1/2+z
loop_
_atom_site_type_symbol
_atom_site_label
_atom_site_fract_x
_atom_site_fract_y
_atom_site_fract_z
Si Si1 0.264740 0.516538 0.610467
Si Si2 0.074392 0.111195 0.205355
Si Si3 0.233400 0.196142 0.769728
Si Si4 0.370060 0.448713 0.514850
Si Si5 0.171756 0.231618 0.331372
Si Si6 0.958977 0.805886 0.538954
Si Si7 0.000000 0.025836 0.750000
Si Si8 0.806544 0.106430 0.715351
O O1 0.233642 0.500288 0.893085
O O2 0.331826 0.491333 0.556234
O O3 0.277504 0.565959 0.604513
O O4 0.102532 0.067279 0.259859
O O5 0.074877 0.148764 0.402516
O O6 0.000000 0.104965 0.250000
O O7 0.125123 0.123078 0.948696
O O8 0.196457 0.210764 0.560296
O O9 0.298288 0.222193 0.704839
O O10 0.237845 0.146300 0.750300
O O11 0.198020 0.208968 0.058478
O O12 0.434368 0.449583 0.296250
O O13 0.322379 0.413964 0.461634
O O14 0.096597 0.227767 0.406653
O O15 0.000000 0.802521 0.750000
O O16 0.000000 0.804610 0.250000
O O17 0.000000 0.000000 0.500000
#
# Coordination Sequence:
#
# PCOD9269065 Si02
#       8
#     8   8   8   8   8   8   4   8
#     4  10  20  34  46  61  83 119 155 200 238 287
#     4  11  23  31  45  65  87 121 162 208 244 287
#     4  10  21  34  58  74  97 126 156 215 243 303
#     4  11  23  34  45  59  89 121 159 209 246 289
#     4  10  20  38  53  78  99 122 161 195 261 304
#     4  11  23  35  52  73 100 128 156 202 253 304
#     4  12  26  36  46  58  80 120 168 208 254 284
#     4  11  21  35  49  67  89 119 166 202 255 287
#
# _framework density 16.186836
#
# number of rings (size 3 to 8) (size 9 to 14) (size 15 to 20)
#    0.000    1.333    2.667    4.000    9.333    0.000 
#    0.000    0.000    0.000    0.000    0.000    0.000 
#    0.000    0.000    0.000    0.000    0.000   16.000 
#
# Total GULP energy -167127.860482 kJ/mol
# GULP energy per Si atom -5570.928683 kJ/mol
# Density = 1.614999 g / cm^3
# Si number density = 16.186836 Si / 1000 Ang^3
#
#
#
# Elastic Constant Matrix: (Units=GPa)
#
#
# Indices 1 2 3 4 5 6 
#
# 1 36.8528 37.4840 22.5545 0.0000 1.9802 0.0000
# 2 37.4840 123.2841 27.2983 0.0000 0.8210 0.0000
# 3 22.5545 27.2983 103.1821 0.0000 11.1683 0.0000
# 4 0.0000 0.0000 0.0000 18.3825 0.0000 -0.0412
# 5 1.9802 0.8210 11.1683 0.0000 14.9160 0.0000
# 6 0.0000 0.0000 0.0000 -0.0412 0.0000 30.3744
#
#
#
# Elastic Compliance Matrix: (Units=1/GPa)
#
#
# Indices 1 2 3 4 5 6 
#
# 1 0.042802 -0.011630 -0.006239 0.000000 -0.000371 0.000000
# 2 -0.011630 0.011801 -0.000736 0.000000 0.001446 0.000000
# 3 -0.006239 -0.000736 0.012140 0.000000 -0.008221 0.000000
# 4 0.000000 0.000000 0.000000 0.054400 0.000000 0.000074
# 5 -0.000371 0.001446 -0.008221 0.000000 0.073167 0.000000
# 6 0.000000 0.000000 0.000000 0.000074 0.000000 0.032923
#
#
# Mechanical properties :
#
#
# Convention : Reuss Voigt Hill
#
# Bulk Modulus (GPa) = 33.86116 48.66587 41.26351
# Shear Modulus (GPa) = 18.22901 24.46672 21.34786
#
# Velocity S-wave (km/s) = 3.35948 3.89204 3.63552
# Velocity P-wave (km/s) = 6.00104 7.09420 6.57039
#
# Compressibility (1/GPa) = 0.02953236
#
# Stress axis : x y z
#
# Youngs Moduli (GPa) = 23.36314 84.74005 82.37175
#
# Poissons Ratio (x) = 0.98552 0.51393
# Poissons Ratio (y) = 0.27171 0.06066
# Poissons Ratio (z) = 0.14577 0.06240
#
# Static dielectric constant tensor:
#      x y z
#    x 1.577210 0.000000 0.013810 
#    y 0.000000 1.586750 0.000000 
#    z 0.013810 0.000000 1.688780 
# 
# From -- ./inp_files/16512.got.cif
#   From: 2010.05.17/outbox.cif.g08.bks.cpg/sg15_9_cif.got.tgz:16512.got - 2010.06.03 18:47:42.
