data_PCOD9269038
_publ_section_title
;
Structure prediction by ZEFSAII (Michael W. Deem and Ramdas Pophale) SiO2 
 PCOD9269038
Probable space group: C 2/C
;
_chemical_formula_sum "Si O2"
_cell_formula_units_Z 48
_cell_length_a 11.700091
_cell_length_b 15.232358
_cell_length_c 11.339118
_cell_angle_alpha 90.000000
_cell_angle_beta 104.320311
_cell_angle_gamma 90.000000
_cell_volume 1958.065469
_symmetry_space_group_name_H-M "C 2/C"
_symmetry_group_IT_number 15
_symmetry_cell_setting 'monoclinic'
loop_
_space_group_symop_operation_xyz
x,y,z
-x,y,1/2-z
-x,-y,-z
x,-y,1/2+z
1/2+x,1/2+y,z
1/2-x,1/2+y,1/2-z
1/2-x,1/2-y,-z
1/2+x,1/2-y,1/2+z
loop_
_atom_site_type_symbol
_atom_site_label
_atom_site_fract_x
_atom_site_fract_y
_atom_site_fract_z
Si Si1 0.818931 0.812090 0.867863
Si Si2 0.451417 0.898804 0.981830
Si Si3 0.318206 0.556060 0.073457
Si Si4 0.500000 0.092056 0.750000
Si Si5 0.759102 0.010558 0.794507
Si Si6 0.426521 0.741854 0.623220
Si Si7 0.500000 0.671645 0.250000
O O1 0.775595 0.907819 0.823504
O O2 0.705320 0.756247 0.865150
O O3 0.891791 0.776946 0.776766
O O4 0.906245 0.813749 0.001109
O O5 0.478395 0.863168 0.118933
O O6 0.310296 0.899815 0.934186
O O7 0.515236 0.835109 0.904504
O O8 0.500000 0.000000 0.000000
O O9 0.309125 0.477795 0.172580
O O10 0.434297 0.608928 0.139747
O O11 0.317350 0.546719 0.930851
O O12 0.621373 0.036548 0.763218
O O13 0.500000 0.705186 0.750000
#
# Coordination Sequence:
#
# PCOD9269038 Si02
#       7
#     8   8   8   4   8   8   4
#     4  10  24  40  64  86 126 177 210 249 315 398
#     4  11  21  36  66 100 121 158 205 276 321 374
#     4  10  21  36  62  95 126 170 209 270 333 365
#     4  10  20  33  62 104 125 152 208 278 336 352
#     4  10  20  37  59  99 125 165 212 264 323 385
#     4  11  23  43  63  93 126 165 211 264 319 375
#     4  10  22  45  58  86 127 176 208 260 322 376
#
# _framework density 24.513991999999998
#
# number of rings (size 3 to 8) (size 9 to 14) (size 15 to 20)
#    0.000    1.667    1.667    4.000    2.333    3.333 
#    4.500    5.000    0.000    0.000    0.000    0.000 
#    0.000    0.000    0.000    0.000    0.000    0.000 
#
# Total GULP energy -133898.179617 kJ/mol
# GULP energy per Si atom -5579.090817 kJ/mol
# Density = 2.445820 g / cm^3
# Si number density = 24.513992 Si / 1000 Ang^3
#
#
#
# Elastic Constant Matrix: (Units=GPa)
#
#
# Indices 1 2 3 4 5 6 
#
# 1 110.9132 5.4570 36.5972 0.0000 -7.1290 0.0000
# 2 5.4570 20.7678 0.6238 0.0000 15.2862 0.0000
# 3 36.5972 0.6238 202.1136 0.0000 25.8664 0.0000
# 4 0.0000 0.0000 0.0000 16.7062 0.0000 3.0570
# 5 -7.1290 15.2862 25.8664 0.0000 52.0255 0.0000
# 6 0.0000 0.0000 0.0000 3.0570 0.0000 11.3811
#
#
#
# Elastic Compliance Matrix: (Units=1/GPa)
#
#
# Indices 1 2 3 4 5 6 
#
# 1 0.010381 -0.005853 -0.002418 0.000000 0.004344 0.000000
# 2 -0.005853 0.065725 0.003664 0.000000 -0.021935 0.000000
# 3 -0.002418 0.003664 0.005932 0.000000 -0.004357 0.000000
# 4 0.000000 0.000000 0.000000 0.062952 0.000000 -0.016909
# 5 0.004344 -0.021935 -0.004357 0.000000 0.028428 0.000000
# 6 0.000000 0.000000 0.000000 -0.016909 0.000000 0.092407
#
#
# Mechanical properties :
#
#
# Convention : Reuss Voigt Hill
#
# Bulk Modulus (GPa) = 13.73150 46.57229 30.15189
# Shear Modulus (GPa) = 16.70499 35.43033 26.06766
#
# Velocity S-wave (km/s) = 2.61329 3.80585 3.26449
# Velocity P-wave (km/s) = 3.83658 6.19291 5.15129
#
# Compressibility (1/GPa) = 0.07282527
#
# Stress axis : x y z
#
# Youngs Moduli (GPa) = 96.33029 15.21498 168.58341
#
# Poissons Ratio (x) = 0.08905 0.40757
# Poissons Ratio (y) = 0.56379 -0.61771
# Poissons Ratio (z) = 0.23289 -0.05575
#
# Static dielectric constant tensor:
#      x y z
#    x 1.943730 0.000000 -0.090630 
#    y 0.000000 2.040700 0.000000 
#    z -0.090630 0.000000 2.036470 
# 
# From -- ./inp_files/87906.got.cif
#   From: 2010.05.17/outbox.cif.g08.bks.cpg/sg15_44_cif.got.tgz:87906.got - 2010.06.03 18:47:42.
