data_PCOD9269398
_publ_section_title
;
Structure prediction by ZEFSAII (Michael W. Deem and Ramdas Pophale) SiO2 
 PCOD9269398
Probable space group: C 2/C
;
_chemical_formula_sum "Si O2"
_cell_formula_units_Z 48
_cell_length_a 12.749710
_cell_length_b 22.873823
_cell_length_c 18.798984
_cell_angle_alpha 90.000000
_cell_angle_beta 151.419547
_cell_angle_gamma 90.000000
_cell_volume 2622.754373
_symmetry_space_group_name_H-M "C 2/C"
_symmetry_group_IT_number 15
_symmetry_cell_setting 'monoclinic'
loop_
_space_group_symop_operation_xyz
x,y,z
-x,y,1/2-z
-x,-y,-z
x,-y,1/2+z
1/2+x,1/2+y,z
1/2-x,1/2+y,1/2-z
1/2-x,1/2-y,-z
1/2+x,1/2-y,1/2+z
loop_
_atom_site_type_symbol
_atom_site_label
_atom_site_fract_x
_atom_site_fract_y
_atom_site_fract_z
Si Si1 0.704970 0.300199 0.316801
Si Si2 0.874959 0.418168 0.373953
Si Si3 0.080553 0.425121 0.927543
Si Si4 0.330681 0.459039 0.583740
Si Si5 0.626951 0.478155 0.644451
Si Si6 0.941935 0.706970 0.090085
O O1 0.500000 0.313479 0.250000
O O2 0.749768 0.356201 0.294467
O O3 0.922843 0.293587 0.493911
O O4 0.650693 0.239299 0.246467
O O5 0.722526 0.468808 0.250274
O O6 0.918506 0.426622 0.484741
O O7 0.110912 0.424900 0.475951
O O8 0.846900 0.443444 0.757557
O O9 0.114466 0.359092 0.922083
O O10 0.252478 0.475879 0.013653
O O11 0.500000 0.461793 0.750000
O O12 0.468407 0.438115 0.598147
O O13 0.500000 0.500000 0.500000
O O14 0.750000 0.750000 0.000000
#
# Coordination Sequence:
#
# PCOD9269398 Si02
#       6
#     8   8   8   8   8   8
#     4   9  19  34  54  81 113 141 184 231 277 333
#     4  10  20  34  56  81 105 151 190 218 273 339
#     4  10  20  35  54  83 109 145 193 217 271 352
#     4  11  19  35  60  78 110 149 189 224 271 342
#     4  11  23  35  52  85 114 145 178 237 290 321
#     4   9  19  32  50  77 110 142 176 226 280 318
#
# _framework density 18.301371
#
# number of rings (size 3 to 8) (size 9 to 14) (size 15 to 20)
#    0.000    2.000    3.333    1.000    7.000    4.000 
#    6.000    0.000    0.000    1.000    0.000    0.000 
#    0.000    0.000    0.000    0.000    0.000    0.000 
#
# Total GULP energy -133625.090072 kJ/mol
# GULP energy per Si atom -5567.712086 kJ/mol
# Density = 1.825972 g / cm^3
# Si number density = 18.301371 Si / 1000 Ang^3
#
#
#
# Elastic Constant Matrix: (Units=GPa)
#
#
# Indices 1 2 3 4 5 6 
#
# 1 39.1385 3.9745 21.9223 0.0152 14.6757 -0.0016
# 2 3.9745 96.2903 16.9800 0.0030 0.3126 0.0023
# 3 21.9223 16.9800 81.8256 -0.0465 6.4679 0.0117
# 4 0.0152 0.0030 -0.0465 19.5860 0.0051 -3.6824
# 5 14.6757 0.3126 6.4679 0.0051 24.3156 0.0035
# 6 -0.0016 0.0023 0.0117 -3.6824 0.0035 19.8302
#
#
#
# Elastic Compliance Matrix: (Units=1/GPa)
#
#
# Indices 1 2 3 4 5 6 
#
# 1 0.038127 0.000006 -0.008578 -0.000044 -0.020730 0.000004
# 2 0.000006 0.010785 -0.002276 -0.000007 0.000463 -0.000001
# 3 -0.008578 -0.002276 0.014893 0.000042 0.001245 -0.000002
# 4 -0.000044 -0.000007 0.000042 0.052904 0.000003 0.009824
# 5 -0.020730 0.000463 0.001245 0.000003 0.053300 -0.000011
# 6 0.000004 -0.000001 -0.000002 0.009824 -0.000011 0.052252
#
#
# Mechanical properties :
#
#
# Convention : Reuss Voigt Hill
#
# Bulk Modulus (GPa) = 23.74736 33.66756 28.70746
# Shear Modulus (GPa) = 19.38026 24.37153 21.87590
#
# Velocity S-wave (km/s) = 3.25768 3.65318 3.46108
# Velocity P-wave (km/s) = 5.21094 6.01917 5.62958
#
# Compressibility (1/GPa) = 0.04210995
#
# Stress axis : x y z
#
# Youngs Moduli (GPa) = 26.22791 92.72213 67.14489
#
# Poissons Ratio (x) = -0.00057 0.57594
# Poissons Ratio (y) = -0.00016 0.15284
# Poissons Ratio (z) = 0.22497 0.21106
#
# Static dielectric constant tensor:
#      x y z
#    x 1.705840 0.000060 0.003120 
#    y 0.000060 1.715670 0.000020 
#    z 0.003120 0.000020 1.694470 
# 
# From -- ./inp_files/200978.got.cif
#   From: 2010.05.17/outbox.cif.g08.bks.cpg/sg15_101_cif.got.tgz:200978.got - 2010.06.03 18:47:42.
