data_PCOD9269500
_publ_section_title
;
Structure prediction by ZEFSAII (Michael W. Deem and Ramdas Pophale) SiO2 
 PCOD9269500
Probable space group: C 2/C
;
_chemical_formula_sum "Si O2"
_cell_formula_units_Z 40
_cell_length_a 18.918216
_cell_length_b 7.671097
_cell_length_c 13.463127
_cell_angle_alpha 90.000000
_cell_angle_beta 45.987469
_cell_angle_gamma 90.000000
_cell_volume 1405.160530
_symmetry_space_group_name_H-M "C 2/C"
_symmetry_group_IT_number 15
_symmetry_cell_setting 'monoclinic'
loop_
_space_group_symop_operation_xyz
x,y,z
-x,y,1/2-z
-x,-y,-z
x,-y,1/2+z
1/2+x,1/2+y,z
1/2-x,1/2+y,1/2-z
1/2-x,1/2-y,-z
1/2+x,1/2-y,1/2+z
loop_
_atom_site_type_symbol
_atom_site_label
_atom_site_fract_x
_atom_site_fract_y
_atom_site_fract_z
Si Si1 0.391336 0.195141 0.174374
Si Si2 0.593017 0.507452 0.495948
Si Si3 0.722729 0.020078 0.570916
Si Si4 0.926215 0.486286 0.956422
Si Si5 0.086522 0.211995 0.308547
O O1 0.378361 0.347876 0.108301
O O2 0.311364 0.149510 0.332345
O O3 0.496964 0.173152 0.126465
O O4 0.391449 0.025560 0.101617
O O5 0.661855 0.489418 0.524098
O O6 0.614273 0.665433 0.396848
O O7 0.481452 0.462470 0.639353
O O8 0.666584 0.993843 0.523301
O O9 0.678853 0.201903 0.661136
O O10 0.001230 0.647599 0.864098
#
# Coordination Sequence:
#
# PCOD9269500 Si02
#       5
#     8   8   8   8   8
#     4   9  18  34  56  80 110 148 186 229 280 331
#     4  10  20  34  57  82 111 146 186 233 282 326
#     4  11  20  36  60  83 110 153 193 226 274 338
#     4   9  19  36  58  79 109 150 191 227 273 338
#     4   9  19  35  54  80 113 145 181 230 282 328
#
# _framework density 28.466498999999999
#
# number of rings (size 3 to 8) (size 9 to 14) (size 15 to 20)
#    0.000    2.400    0.000    4.800    0.000    3.200 
#    0.000    6.000    0.000   45.600    0.000    0.000 
#    0.000    0.000    0.000    0.000    0.000    0.000 
#
# Total GULP energy -111505.429983 kJ/mol
# GULP energy per Si atom -5575.271499 kJ/mol
# Density = 2.840171 g / cm^3
# Si number density = 28.466499 Si / 1000 Ang^3
#
#
#
# Elastic Constant Matrix: (Units=GPa)
#
#
# Indices 1 2 3 4 5 6 
#
# 1 244.3453 -8.1334 40.2914 -0.0006 -5.3224 0.0006
# 2 -8.1334 110.9081 -10.8241 -0.0018 10.6083 0.0021
# 3 40.2914 -10.8241 66.0492 -0.0002 4.8836 0.0004
# 4 -0.0006 -0.0018 -0.0002 23.7243 0.0002 10.9825
# 5 -5.3224 10.6083 4.8836 0.0002 34.3554 -0.0003
# 6 0.0006 0.0021 0.0004 10.9825 -0.0003 18.0003
#
#
#
# Elastic Compliance Matrix: (Units=1/GPa)
#
#
# Indices 1 2 3 4 5 6 
#
# 1 0.004593 -0.000055 -0.002895 0.000000 0.001140 0.000000
# 2 -0.000055 0.009497 0.001826 0.000002 -0.003201 -0.000002
# 3 -0.002895 0.001826 0.017464 0.000001 -0.003495 -0.000001
# 4 0.000000 0.000002 0.000001 0.058742 -0.000001 -0.035840
# 5 0.001140 -0.003201 -0.003495 -0.000001 0.030769 0.000002
# 6 0.000000 -0.000002 -0.000001 -0.035840 0.000002 0.077422
#
#
# Mechanical properties :
#
#
# Convention : Reuss Voigt Hill
#
# Bulk Modulus (GPa) = 34.12166 51.55227 42.83696
# Shear Modulus (GPa) = 23.75265 41.88058 32.81661
#
# Velocity S-wave (km/s) = 2.89174 3.83981 3.39900
# Velocity P-wave (km/s) = 4.81271 6.14882 5.52133
#
# Compressibility (1/GPa) = 0.02930689
#
# Stress axis : x y z
#
# Youngs Moduli (GPa) = 217.72451 105.29824 57.26071
#
# Poissons Ratio (x) = 0.00577 0.16577
# Poissons Ratio (y) = 0.01192 -0.10458
# Poissons Ratio (z) = 0.63033 -0.19231
#
# Static dielectric constant tensor:
#      x y z
#    x 2.225960 0.000000 -0.010740 
#    y 0.000000 2.596530 0.000000 
#    z -0.010740 0.000000 2.294540 
# 
# From -- ./inp_files/159114.got.cif
#   From: 2010.05.17/outbox.cif.g08.bks.cpg/sg15_80_cif.got.tgz:159114.got - 2010.06.03 18:47:42.
