data_PCOD9269147
_publ_section_title
;
Structure prediction by ZEFSAII (Michael W. Deem and Ramdas Pophale) SiO2 
 PCOD9269147
Probable space group: C 2/C
;
_chemical_formula_sum "Si O2"
_cell_formula_units_Z 48
_cell_length_a 10.540436
_cell_length_b 8.216840
_cell_length_c 22.782797
_cell_angle_alpha 90.000000
_cell_angle_beta 105.982285
_cell_angle_gamma 90.000000
_cell_volume 1896.926766
_symmetry_space_group_name_H-M "C 2/C"
_symmetry_group_IT_number 15
_symmetry_cell_setting 'monoclinic'
loop_
_space_group_symop_operation_xyz
x,y,z
-x,y,1/2-z
-x,-y,-z
x,-y,1/2+z
1/2+x,1/2+y,z
1/2-x,1/2+y,1/2-z
1/2-x,1/2-y,-z
1/2+x,1/2-y,1/2+z
loop_
_atom_site_type_symbol
_atom_site_label
_atom_site_fract_x
_atom_site_fract_y
_atom_site_fract_z
Si Si1 0.945896 0.210253 0.839300
Si Si2 0.894126 0.901374 0.899270
Si Si3 0.315832 0.127723 0.556580
Si Si4 0.804763 0.801701 0.200893
Si Si5 0.265453 0.598453 0.125486
Si Si6 0.639691 0.142617 0.518029
O O1 0.837843 0.203273 0.773420
O O2 0.875513 0.320616 0.877703
O O3 0.075683 0.271752 0.823083
O O4 0.975728 0.038835 0.875036
O O5 0.821510 0.792049 0.840371
O O6 0.945772 0.774460 0.955631
O O7 0.790465 0.013436 0.922980
O O8 0.250000 0.250000 0.500000
O O9 0.357161 0.256667 0.612410
O O10 0.406170 0.994185 0.534699
O O11 0.807875 0.993455 0.186407
O O12 0.227505 0.462090 0.073833
O O13 0.750000 0.250000 0.500000
#
# Coordination Sequence:
#
# PCOD9269147 Si02
#       6
#     8   8   8   8   8   8
#     4  10  20  34  52  75 103 134 170 210 250 296
#     4   9  17  31  53  74 101 135 166 204 251 301
#     4   8  14  27  51  75  97 132 165 200 254 297
#     4  10  20  34  52  75 103 134 170 210 250 296
#     4   9  17  31  53  74 101 135 166 204 251 301
#     4   8  14  27  51  75  97 132 165 200 254 297
#
# _framework density 25.304086999999999
#
# number of rings (size 3 to 8) (size 9 to 14) (size 15 to 20)
#    0.000    3.000    0.000    1.000    0.000    0.000 
#    0.000    6.667    0.000  144.000    0.000    0.000 
#    0.000    0.000    0.000    0.000    0.000    0.000 
#
# Total GULP energy -133918.607347 kJ/mol
# GULP energy per Si atom -5579.941973 kJ/mol
# Density = 2.524649 g / cm^3
# Si number density = 25.304087 Si / 1000 Ang^3
#
#
#
# Elastic Constant Matrix: (Units=GPa)
#
#
# Indices 1 2 3 4 5 6 
#
# 1 54.6314 27.2732 27.5281 0.0000 -2.2222 0.0000
# 2 27.2732 139.8446 67.6544 0.0000 -9.0685 0.0000
# 3 27.5281 67.6544 89.7093 0.0000 -2.0022 0.0000
# 4 0.0000 0.0000 0.0000 52.1863 0.0000 1.2188
# 5 -2.2222 -9.0685 -2.0022 0.0000 28.5506 0.0000
# 6 0.0000 0.0000 0.0000 1.2188 0.0000 38.5504
#
#
#
# Elastic Compliance Matrix: (Units=1/GPa)
#
#
# Indices 1 2 3 4 5 6 
#
# 1 0.021898 -0.001535 -0.005543 0.000000 0.000828 0.000000
# 2 -0.001535 0.011626 -0.008230 0.000000 0.002996 0.000000
# 3 -0.005543 -0.008230 0.019016 0.000000 -0.001712 0.000000
# 4 0.000000 0.000000 0.000000 0.019176 0.000000 -0.000606
# 5 0.000828 0.002996 -0.001712 0.000000 0.035922 0.000000
# 6 0.000000 0.000000 0.000000 -0.000606 0.000000 0.025959
#
#
# Mechanical properties :
#
#
# Convention : Reuss Voigt Hill
#
# Bulk Modulus (GPa) = 45.61286 58.78851 52.20069
# Shear Modulus (GPa) = 29.15089 34.63943 31.89516
#
# Velocity S-wave (km/s) = 3.39783 3.70391 3.55417
# Velocity P-wave (km/s) = 5.78435 6.44789 6.12511
#
# Compressibility (1/GPa) = 0.02192364
#
# Stress axis : x y z
#
# Youngs Moduli (GPa) = 45.66681 86.01499 52.58622
#
# Poissons Ratio (x) = 0.13205 0.29150
# Poissons Ratio (y) = 0.07011 0.43277
# Poissons Ratio (z) = 0.25314 0.70788
#
# Static dielectric constant tensor:
#      x y z
#    x 2.076590 0.000000 -0.065140 
#    y 0.000000 2.014570 0.000000 
#    z -0.065140 0.000000 2.023920 
# 
# From -- ./inp_files/64851.got.cif
#   From: 2010.05.17/outbox.cif.g08.bks.cpg/sg15_33_cif.got.tgz:64851.got - 2010.06.03 18:47:42.
