data_PCOD9269870
_publ_section_title
;
Structure prediction by ZEFSAII (Michael W. Deem and Ramdas Pophale) SiO2 
 PCOD9269870
Probable space group: C 2/C
;
_chemical_formula_sum "Si O2"
_cell_formula_units_Z 56
_cell_length_a 7.504764
_cell_length_b 17.949688
_cell_length_c 26.738576
_cell_angle_alpha 90.000000
_cell_angle_beta 47.934235
_cell_angle_gamma 90.000000
_cell_volume 2673.968677
_symmetry_space_group_name_H-M "C 2/C"
_symmetry_group_IT_number 15
_symmetry_cell_setting 'monoclinic'
loop_
_space_group_symop_operation_xyz
x,y,z
-x,y,1/2-z
-x,-y,-z
x,-y,1/2+z
1/2+x,1/2+y,z
1/2-x,1/2+y,1/2-z
1/2-x,1/2-y,-z
1/2+x,1/2-y,1/2+z
loop_
_atom_site_type_symbol
_atom_site_label
_atom_site_fract_x
_atom_site_fract_y
_atom_site_fract_z
Si Si1 0.716169 0.904202 0.245380
Si Si2 0.472182 0.146685 0.375635
Si Si3 0.124397 0.818429 0.108640
Si Si4 0.280716 0.226718 0.682673
Si Si5 0.001157 0.585283 0.019454
Si Si6 0.769644 0.564046 0.256210
Si Si7 0.016577 0.872980 0.888175
O O1 0.500000 0.920416 0.250000
O O2 0.643445 0.839837 0.296761
O O3 0.925157 0.870158 0.172057
O O4 0.756992 0.983164 0.263844
O O5 0.472162 0.235657 0.387981
O O6 0.499042 0.097977 0.420523
O O7 0.680468 0.123891 0.296808
O O8 0.219956 0.128695 0.393388
O O9 0.295506 0.799316 0.123036
O O10 0.270902 0.866404 0.041586
O O11 0.434077 0.300474 0.655239
O O12 0.000000 0.242465 0.750000
O O13 0.755430 0.620982 0.043883
O O14 0.000000 0.500000 0.000000
O O15 0.562152 0.564895 0.337204
O O16 0.000000 0.573769 0.250000
#
# Coordination Sequence:
#
# PCOD9269870 Si02
#       7
#     8   8   8   8   8   8   8
#     4  10  20  34  63  95 120 154 203 265 321 373
#     4  10  23  43  67  87 128 171 205 265 318 372
#     4  10  22  43  59  88 131 163 210 264 313 381
#     4   9  19  37  62  87 120 158 201 265 316 368
#     4  12  27  41  61  95 127 169 217 258 311 382
#     4   9  18  37  62  91 123 156 204 261 322 372
#     4  10  21  42  64  89 123 164 211 253 316 384
#
# _framework density 20.942654000000001
#
# number of rings (size 3 to 8) (size 9 to 14) (size 15 to 20)
#    0.000    2.000    0.000    4.286    4.000    3.429 
#    5.143    0.000    0.000    0.000    0.000    0.000 
#    0.000    0.000    0.000    0.000    0.000    0.000 
#
# Total GULP energy -156000.706075 kJ/mol
# GULP energy per Si atom -5571.453788 kJ/mol
# Density = 2.089499 g / cm^3
# Si number density = 20.942654 Si / 1000 Ang^3
#
#
#
# Elastic Constant Matrix: (Units=GPa)
#
#
# Indices 1 2 3 4 5 6 
#
# 1 44.9921 15.0472 8.9495 -0.0008 6.4964 0.0006
# 2 15.0472 114.5074 21.2727 -0.0015 6.8248 0.0020
# 3 8.9495 21.2727 57.4738 0.0002 17.4576 0.0022
# 4 -0.0008 -0.0015 0.0002 31.1442 0.0016 2.6553
# 5 6.4964 6.8248 17.4576 0.0016 22.9741 -0.0012
# 6 0.0006 0.0020 0.0022 2.6553 -0.0012 -2.8503
#
#
#
# Elastic Compliance Matrix: (Units=1/GPa)
#
#
# Indices 1 2 3 4 5 6 
#
# 1 0.024087 -0.002633 -0.001228 0.000000 -0.005095 0.000005
# 2 -0.002633 0.009666 -0.003278 0.000000 0.000364 0.000004
# 3 -0.001228 -0.003278 0.023925 -0.000001 -0.016859 0.000021
# 4 0.000000 0.000000 -0.000001 0.029746 0.000000 0.027712
# 5 -0.005095 0.000364 -0.016859 0.000000 0.057670 -0.000037
# 6 0.000005 0.000004 0.000021 0.027712 -0.000037 -0.325028
#
#
# Mechanical properties :
#
#
# Convention : Reuss Voigt Hill
#
# Bulk Modulus (GPa) = 23.04256 34.16800 28.60528
# Shear Modulus (GPa) = -33.07146 21.70055 -5.68546
#
# Velocity S-wave (km/s) = -3.97816 3.22248 -1.64944
# Velocity P-wave (km/s) = 3.17402 5.49512 3.17190
#
# Compressibility (1/GPa) = 0.04339795
#
# Stress axis : x y z
#
# Youngs Moduli (GPa) = 41.51641 103.45070 41.79768
#
# Poissons Ratio (x) = 0.27242 0.05134
# Poissons Ratio (y) = 0.10933 0.13703
# Poissons Ratio (z) = 0.05100 0.33916
#
# Static dielectric constant tensor:
#      x y z
#    x 1.764330 0.000000 -0.026740 
#    y 0.000000 1.913940 0.000000 
#    z -0.026740 0.000000 1.813760 
# 
# From -- ./inp_files/289675.got.cif
#   From: 2010.05.17/outbox.cif.g08.bks.cpg/sg15_145_cif.got.tgz:289675.got - 2010.06.03 18:47:42.
