data_PCOD9269025
_publ_section_title
;
Structure prediction by ZEFSAII (Michael W. Deem and Ramdas Pophale) SiO2 
 PCOD9269025
Probable space group: C 2/C
;
_chemical_formula_sum "Si O2"
_cell_formula_units_Z 52
_cell_length_a 7.375832
_cell_length_b 32.711135
_cell_length_c 16.245912
_cell_angle_alpha 90.000000
_cell_angle_beta 144.921798
_cell_angle_gamma 90.000000
_cell_volume 2252.616960
_symmetry_space_group_name_H-M "C 2/C"
_symmetry_group_IT_number 15
_symmetry_cell_setting 'monoclinic'
loop_
_space_group_symop_operation_xyz
x,y,z
-x,y,1/2-z
-x,-y,-z
x,-y,1/2+z
1/2+x,1/2+y,z
1/2-x,1/2+y,1/2-z
1/2-x,1/2-y,-z
1/2+x,1/2-y,1/2+z
loop_
_atom_site_type_symbol
_atom_site_label
_atom_site_fract_x
_atom_site_fract_y
_atom_site_fract_z
Si Si1 0.149147 0.212907 0.713729
Si Si2 0.166150 0.335531 0.486533
Si Si3 0.770244 0.638302 0.976374
Si Si4 0.000000 0.780630 0.750000
Si Si5 0.231723 0.109573 0.218255
Si Si6 0.647551 0.474609 0.654056
Si Si7 0.367321 0.439193 0.382112
O O1 0.229566 0.253143 0.692917
O O2 0.000000 0.220927 0.750000
O O3 0.921284 0.180348 0.584367
O O4 0.489488 0.191031 0.853334
O O5 0.325104 0.305465 0.612607
O O6 0.441764 0.367038 0.569305
O O7 0.883847 0.361053 0.424317
O O8 0.568476 0.599267 0.927596
O O9 0.099243 0.635378 0.148297
O O10 0.500000 0.104956 0.250000
O O11 0.151793 0.063640 0.217232
O O12 0.455561 0.456067 0.505686
O O13 0.553547 0.520345 0.643535
O O14 0.000000 0.481063 0.750000
O O15 0.000000 0.428233 0.250000
#
# Coordination Sequence:
#
# PCOD9269025 Si02
#       7
#     8   8   8   4   8   8   8
#     4  10  27  44  67  99 133 164 218 276 329 393
#     4  11  25  47  61  96 130 168 212 274 322 401
#     4  11  22  42  62  92 130 172 208 269 334 382
#     4  12  24  46  74  92 128 176 218 268 340 390
#     4  11  21  38  67  93 127 170 222 260 324 391
#     4   9  18  35  56  95 130 164 219 270 307 378
#     4  10  20  33  60  94 130 167 218 268 317 379
#
# _framework density 23.084261000000001
#
# number of rings (size 3 to 8) (size 9 to 14) (size 15 to 20)
#    0.000    1.538    4.615    0.462    5.385    3.077 
#    0.000    0.769    0.000    3.692    0.000    0.000 
#    0.000    0.000    0.000    0.000    0.000    0.000 
#
# Total GULP energy -145231.580701 kJ/mol
# GULP energy per Si atom -5585.830027 kJ/mol
# Density = 2.303172 g / cm^3
# Si number density = 23.084261 Si / 1000 Ang^3
#
#
#
# Elastic Constant Matrix: (Units=GPa)
#
#
# Indices 1 2 3 4 5 6 
#
# 1 53.3042 40.9107 0.5860 0.0000 13.7547 0.0000
# 2 40.9107 128.7145 24.2572 0.0000 12.9199 0.0000
# 3 0.5860 24.2572 103.7128 0.0000 17.0288 0.0000
# 4 0.0000 0.0000 0.0000 22.7766 0.0000 -27.1057
# 5 13.7547 12.9199 17.0288 0.0000 30.0567 0.0000
# 6 0.0000 0.0000 0.0000 -27.1057 0.0000 -63.8445
#
#
#
# Elastic Compliance Matrix: (Units=1/GPa)
#
#
# Indices 1 2 3 4 5 6 
#
# 1 0.028177 -0.008515 0.003692 0.000000 -0.011326 0.000000
# 2 -0.008515 0.010899 -0.002615 0.000000 0.000693 0.000000
# 3 0.003692 -0.002615 0.011385 0.000000 -0.007016 0.000000
# 4 0.000000 0.000000 0.000000 0.029168 0.000000 -0.012383
# 5 -0.011326 0.000693 -0.007016 0.000000 0.042130 0.000000
# 6 0.000000 0.000000 0.000000 -0.012383 0.000000 -0.010406
#
#
# Mechanical properties :
#
#
# Convention : Reuss Voigt Hill
#
# Bulk Modulus (GPa) = 28.10135 46.35991 37.23063
# Shear Modulus (GPa) = 36.20822 12.46291 24.33557
#
# Velocity S-wave (km/s) = 3.96476 2.32607 3.25038
# Velocity P-wave (km/s) = 5.75837 5.22883 5.49998
#
# Compressibility (1/GPa) = 0.03558548
#
# Stress axis : x y z
#
# Youngs Moduli (GPa) = 35.48948 91.75426 87.83773
#
# Poissons Ratio (x) = 0.78127 -0.32430
# Poissons Ratio (y) = 0.30219 0.22968
# Poissons Ratio (z) = -0.13103 0.23992
#
# Static dielectric constant tensor:
#      x y z
#    x 1.924690 0.000000 -0.065000 
#    y 0.000000 1.939450 0.000000 
#    z -0.065000 0.000000 1.975970 
# 
# From -- ./inp_files/234899.got.cif
#   From: 2010.05.17/outbox.cif.g08.bks.cpg/sg15_118_cif.got.tgz:234899.got - 2010.06.03 18:47:42.
