data_PCOD9269937
_publ_section_title
;
Structure prediction by ZEFSAII (Michael W. Deem and Ramdas Pophale) SiO2 
 PCOD9269937
Probable space group: C 2/C
;
_chemical_formula_sum "Si O2"
_cell_formula_units_Z 36
_cell_length_a 17.790675
_cell_length_b 22.361632
_cell_length_c 5.597909
_cell_angle_alpha 90.000000
_cell_angle_beta 87.870421
_cell_angle_gamma 90.000000
_cell_volume 2225.469796
_symmetry_space_group_name_H-M "C 2/C"
_symmetry_group_IT_number 15
_symmetry_cell_setting 'monoclinic'
loop_
_space_group_symop_operation_xyz
x,y,z
-x,y,1/2-z
-x,-y,-z
x,-y,1/2+z
1/2+x,1/2+y,z
1/2-x,1/2+y,1/2-z
1/2-x,1/2-y,-z
1/2+x,1/2-y,1/2+z
loop_
_atom_site_type_symbol
_atom_site_label
_atom_site_fract_x
_atom_site_fract_y
_atom_site_fract_z
Si Si1 0.207324 0.842045 0.428021
Si Si2 0.000000 0.903613 0.750000
Si Si3 0.073534 0.808216 0.088157
Si Si4 0.145016 0.965016 0.568599
Si Si5 0.685164 0.762757 0.314785
O O1 0.140965 0.834670 0.240801
O O2 0.197785 0.906639 0.543907
O O3 0.288333 0.824757 0.306638
O O4 0.190967 0.789791 0.619526
O O5 0.950610 0.859990 0.591310
O O6 0.941626 0.942262 0.910136
O O7 0.000000 0.794166 0.250000
O O8 0.106293 0.749682 0.952158
O O9 0.156526 0.001746 0.321279
O O10 0.750000 0.750000 0.500000
#
# Coordination Sequence:
#
# PCOD9269937 Si02
#       5
#     8   4   8   8   8
#     4  10  20  35  50  73  98 141 184 228 271 312
#     4  12  22  34  48  74 116 146 192 214 256 308
#     4  11  18  31  53  74 106 139 178 228 268 319
#     4  12  25  36  52  75 111 154 191 221 255 313
#     4   9  19  33  54  69  95 135 179 232 280 316
#
# _framework density 16.176359000000001
#
# number of rings (size 3 to 8) (size 9 to 14) (size 15 to 20)
#    0.000    1.333    4.444    2.000    3.111    0.000 
#    0.000    0.000    0.000    0.000    0.000    0.000 
#    0.000    1.778    0.000    1.333    0.000    0.000 
#
# Total GULP energy -100351.917728 kJ/mol
# GULP energy per Si atom -5575.106540 kJ/mol
# Density = 1.613954 g / cm^3
# Si number density = 16.176359 Si / 1000 Ang^3
#
#
#
# Elastic Constant Matrix: (Units=GPa)
#
#
# Indices 1 2 3 4 5 6 
#
# 1 42.4474 45.4229 35.2615 0.0000 -22.7676 0.0000
# 2 45.4229 97.5144 52.4527 0.0000 -18.0277 0.0000
# 3 35.2615 52.4527 104.2182 0.0000 -1.4973 0.0000
# 4 0.0000 0.0000 0.0000 26.5545 0.0000 -11.5684
# 5 -22.7676 -18.0277 -1.4973 0.0000 43.8814 0.0000
# 6 0.0000 0.0000 0.0000 -11.5684 0.0000 30.3783
#
#
#
# Elastic Compliance Matrix: (Units=1/GPa)
#
#
# Indices 1 2 3 4 5 6 
#
# 1 0.073211 -0.021525 -0.013525 0.000000 0.028681 0.000000
# 2 -0.021525 0.021878 -0.003761 0.000000 -0.002308 0.000000
# 3 -0.013525 -0.003761 0.015949 0.000000 -0.008018 0.000000
# 4 0.000000 0.000000 0.000000 0.045149 0.000000 0.017193
# 5 0.028681 -0.002308 -0.008018 0.000000 0.036448 0.000000
# 6 0.000000 0.000000 0.000000 0.017193 0.000000 0.039466
#
#
# Mechanical properties :
#
#
# Convention : Reuss Voigt Hill
#
# Bulk Modulus (GPa) = 29.92614 56.71712 43.32163
# Shear Modulus (GPa) = 15.58306 27.56568 21.57437
#
# Velocity S-wave (km/s) = 3.10711 4.13252 3.65594
# Velocity P-wave (km/s) = 5.60467 7.60974 6.68283
#
# Compressibility (1/GPa) = 0.03341560
#
# Stress axis : x y z
#
# Youngs Moduli (GPa) = 13.65910 45.70832 62.69899
#
# Poissons Ratio (x) = 0.98387 0.84800
# Poissons Ratio (y) = 0.29401 0.23583
# Poissons Ratio (z) = 0.18474 0.17193
#
# Static dielectric constant tensor:
#      x y z
#    x 1.521520 0.000000 -0.041500 
#    y 0.000000 1.565160 0.000000 
#    z -0.041500 0.000000 1.618950 
# 
# From -- ./inp_files/6857.got.cif
#   From: 2010.05.17/outbox.cif.g08.bks.cpg/sg15_4_cif.got.tgz:6857.got - 2010.06.03 18:47:42.
