data_PCOD9269506
_publ_section_title
;
Structure prediction by ZEFSAII (Michael W. Deem and Ramdas Pophale) SiO2 
 PCOD9269506
Probable space group: C 2/C
;
_chemical_formula_sum "Si O2"
_cell_formula_units_Z 40
_cell_length_a 20.469604
_cell_length_b 12.566222
_cell_length_c 9.479267
_cell_angle_alpha 90.000000
_cell_angle_beta 77.580623
_cell_angle_gamma 90.000000
_cell_volume 2381.252600
_symmetry_space_group_name_H-M "C 2/C"
_symmetry_group_IT_number 15
_symmetry_cell_setting 'monoclinic'
loop_
_space_group_symop_operation_xyz
x,y,z
-x,y,1/2-z
-x,-y,-z
x,-y,1/2+z
1/2+x,1/2+y,z
1/2-x,1/2+y,1/2-z
1/2-x,1/2-y,-z
1/2+x,1/2-y,1/2+z
loop_
_atom_site_type_symbol
_atom_site_label
_atom_site_fract_x
_atom_site_fract_y
_atom_site_fract_z
Si Si1 0.833634 0.835779 0.043945
Si Si2 0.449198 0.510289 0.396890
Si Si3 0.162278 0.159475 0.624831
Si Si4 0.699876 0.900619 0.938011
Si Si5 0.298025 0.897704 0.896643
O O1 0.823516 0.860296 0.215225
O O2 0.841103 0.708694 0.028051
O O3 0.896658 0.898048 0.956176
O O4 0.770163 0.873177 0.981812
O O5 0.500000 0.536438 0.250000
O O6 0.500000 0.500000 0.500000
O O7 0.404118 0.405479 0.385758
O O8 0.224859 0.121173 0.500725
O O9 0.161251 0.287349 0.606469
O O10 0.708881 0.920653 0.766903
O O11 0.671912 0.002939 0.032336
#
# Coordination Sequence:
#
# PCOD9269506 Si02
#       5
#     8   8   8   8   8
#     4  10  21  37  54  82 113 145 189 228 280 326
#     4  12  24  38  58  80 112 153 187 226 269 335
#     4  10  21  37  54  82 113 146 188 226 284 326
#     4  10  20  34  57  83 114 143 180 238 279 330
#     4  10  20  34  57  83 114 144 179 237 281 329
#
# _framework density 16.797881
#
# number of rings (size 3 to 8) (size 9 to 14) (size 15 to 20)
#    0.000    1.600    4.000    1.200    2.800    1.600 
#    0.000    0.000    0.000    2.400    0.000    0.000 
#    0.000    0.000    0.000    0.000    0.000    0.000 
#
# Total GULP energy -111514.952418 kJ/mol
# GULP energy per Si atom -5575.747621 kJ/mol
# Density = 1.675965 g / cm^3
# Si number density = 16.797881 Si / 1000 Ang^3
#
#
#
# Elastic Constant Matrix: (Units=GPa)
#
#
# Indices 1 2 3 4 5 6 
#
# 1 75.2381 47.6268 42.9775 0.0000 0.6351 0.0000
# 2 47.6268 142.4865 74.3442 0.0000 1.2457 0.0000
# 3 42.9775 74.3442 146.1886 0.0000 5.8314 0.0000
# 4 0.0000 0.0000 0.0000 31.9293 0.0000 -2.3735
# 5 0.6351 1.2457 5.8314 0.0000 28.7481 0.0000
# 6 0.0000 0.0000 0.0000 -2.3735 0.0000 25.8052
#
#
#
# Elastic Compliance Matrix: (Units=1/GPa)
#
#
# Indices 1 2 3 4 5 6 
#
# 1 0.017780 -0.004370 -0.003021 0.000000 0.000409 0.000000
# 2 -0.004370 0.010637 -0.004143 0.000000 0.000476 0.000000
# 3 -0.003021 -0.004143 0.009906 0.000000 -0.001763 0.000000
# 4 0.000000 0.000000 0.000000 0.031535 0.000000 0.002901
# 5 0.000409 0.000476 -0.001763 0.000000 0.035113 0.000000
# 6 0.000000 0.000000 0.000000 0.002901 0.000000 0.039019
#
#
# Mechanical properties :
#
#
# Convention : Reuss Voigt Hill
#
# Bulk Modulus (GPa) = 65.55982 77.09001 71.32492
# Shear Modulus (GPa) = 29.04565 30.56082 29.80323
#
# Velocity S-wave (km/s) = 4.16279 4.26998 4.21673
# Velocity P-wave (km/s) = 7.88786 8.38467 8.14006
#
# Compressibility (1/GPa) = 0.01525325
#
# Stress axis : x y z
#
# Youngs Moduli (GPa) = 56.24377 94.01316 100.94849
#
# Poissons Ratio (x) = 0.41088 0.30494
# Poissons Ratio (y) = 0.24581 0.41828
# Poissons Ratio (z) = 0.16990 0.38954
#
# Static dielectric constant tensor:
#      x y z
#    x 1.563540 0.000000 0.030310 
#    y 0.000000 1.609540 0.000000 
#    z 0.030310 0.000000 1.556610 
# 
# From -- ./inp_files/46662.got.cif
#   From: 2010.05.17/outbox.cif.g08.bks.cpg/sg15_24_cif.got.tgz:46662.got - 2010.06.03 18:47:42.
