data_PCOD9269805
_publ_section_title
;
Structure prediction by ZEFSAII (Michael W. Deem and Ramdas Pophale) SiO2 
 PCOD9269805
Probable space group: C 2/C
;
_chemical_formula_sum "Si O2"
_cell_formula_units_Z 52
_cell_length_a 15.857034
_cell_length_b 26.500769
_cell_length_c 8.630568
_cell_angle_alpha 90.000000
_cell_angle_beta 45.436472
_cell_angle_gamma 90.000000
_cell_volume 2583.973999
_symmetry_space_group_name_H-M "C 2/C"
_symmetry_group_IT_number 15
_symmetry_cell_setting 'monoclinic'
loop_
_space_group_symop_operation_xyz
x,y,z
-x,y,1/2-z
-x,-y,-z
x,-y,1/2+z
1/2+x,1/2+y,z
1/2-x,1/2+y,1/2-z
1/2-x,1/2-y,-z
1/2+x,1/2-y,1/2+z
loop_
_atom_site_type_symbol
_atom_site_label
_atom_site_fract_x
_atom_site_fract_y
_atom_site_fract_z
Si Si1 0.988703 0.773671 0.076608
Si Si2 0.693699 0.650818 0.321227
Si Si3 0.500000 0.848878 0.750000
Si Si4 0.773828 0.158493 0.866567
Si Si5 0.363234 0.556566 0.612459
Si Si6 0.541679 0.167366 0.526574
Si Si7 0.362925 0.548472 0.245768
O O1 0.858489 0.795747 0.207900
O O2 0.000000 0.766717 0.250000
O O3 0.010482 0.721316 0.960954
O O4 0.084439 0.815731 0.905024
O O5 0.678798 0.644134 0.524007
O O6 0.704958 0.596669 0.229016
O O7 0.818783 0.677258 0.138794
O O8 0.635518 0.827773 0.558621
O O9 0.483865 0.868622 0.590903
O O10 0.796406 0.108088 0.738957
O O11 0.363594 0.549226 0.428949
O O12 0.501367 0.557731 0.486347
O O13 0.315642 0.505267 0.749802
O O14 0.500000 0.150890 0.750000
#
# Coordination Sequence:
#
# PCOD9269805 Si02
#       7
#     8   8   4   8   8   8   8
#     4  10  21  38  62  87 121 158 203 252 304 356
#     4  10  22  38  60  88 121 156 202 248 300 360
#     4  10  24  42  60  82 128 156 214 242 306 364
#     4  10  21  38  62  86 117 164 193 252 304 358
#     4  10  20  34  61  88 125 154 190 250 306 354
#     4  11  25  40  61  87 121 167 203 252 299 358
#     4  10  20  35  57  95 121 151 198 246 302 364
#
# _framework density 20.124040000000001
#
# number of rings (size 3 to 8) (size 9 to 14) (size 15 to 20)
#    0.000    1.846    2.308    0.923    4.308    4.923 
#    0.000    0.000    1.692    2.769    0.000    0.000 
#    0.000    0.000    0.000    0.000    0.000    0.000 
#
# Total GULP energy -144795.361864 kJ/mol
# GULP energy per Si atom -5569.052379 kJ/mol
# Density = 2.007824 g / cm^3
# Si number density = 20.124040 Si / 1000 Ang^3
#
#
#
# Elastic Constant Matrix: (Units=GPa)
#
#
# Indices 1 2 3 4 5 6 
#
# 1 66.6846 18.3093 24.0807 0.0000 -1.9298 0.0000
# 2 18.3093 86.7751 6.9146 0.0000 7.0368 0.0000
# 3 24.0807 6.9146 67.5964 0.0000 5.8976 0.0000
# 4 0.0000 0.0000 0.0000 11.1277 0.0000 4.9185
# 5 -1.9298 7.0368 5.8976 0.0000 36.9812 0.0000
# 6 0.0000 0.0000 0.0000 4.9185 0.0000 16.5675
#
#
#
# Elastic Compliance Matrix: (Units=1/GPa)
#
#
# Indices 1 2 3 4 5 6 
#
# 1 0.018371 -0.003581 -0.006411 0.000000 0.002662 0.000000
# 2 -0.003581 0.012472 0.000227 0.000000 -0.002596 0.000000
# 3 -0.006411 0.000227 0.017328 0.000000 -0.003141 0.000000
# 4 0.000000 0.000000 0.000000 0.103439 0.000000 -0.030709
# 5 0.002662 -0.002596 -0.003141 0.000000 0.028175 0.000000
# 6 0.000000 0.000000 0.000000 -0.030709 0.000000 0.069476
#
#
# Mechanical properties :
#
#
# Convention : Reuss Voigt Hill
#
# Bulk Modulus (GPa) = 34.91506 35.51836 35.21671
# Shear Modulus (GPa) = 17.96370 24.38537 21.17454
#
# Velocity S-wave (km/s) = 2.99096 3.48480 3.24728
# Velocity P-wave (km/s) = 5.41437 5.82064 5.62118
#
# Compressibility (1/GPa) = 0.02864094
#
# Stress axis : x y z
#
# Youngs Moduli (GPa) = 54.43277 80.17837 57.70910
#
# Poissons Ratio (x) = 0.28715 0.36995
# Poissons Ratio (y) = 0.19494 -0.01307
# Poissons Ratio (z) = 0.34895 -0.01816
#
# Static dielectric constant tensor:
#      x y z
#    x 1.740320 0.000000 0.002580 
#    y 0.000000 1.718720 0.000000 
#    z 0.002580 0.000000 1.735630 
# 
# From -- ./inp_files/44761.got.cif
#   From: 2010.05.17/outbox.cif.g08.bks.cpg/sg15_23_cif.got.tgz:44761.got - 2010.06.03 18:47:42.
