data_PCOD9269976
_publ_section_title
;
Structure prediction by ZEFSAII (Michael W. Deem and Ramdas Pophale) SiO2 
 PCOD9269976
Probable space group: C 2/C
;
_chemical_formula_sum "Si O2"
_cell_formula_units_Z 64
_cell_length_a 16.689362
_cell_length_b 31.618492
_cell_length_c 9.416843
_cell_angle_alpha 90.000000
_cell_angle_beta 43.871152
_cell_angle_gamma 90.000000
_cell_volume 3443.847089
_symmetry_space_group_name_H-M "C 2/C"
_symmetry_group_IT_number 15
_symmetry_cell_setting 'monoclinic'
loop_
_space_group_symop_operation_xyz
x,y,z
-x,y,1/2-z
-x,-y,-z
x,-y,1/2+z
1/2+x,1/2+y,z
1/2-x,1/2+y,1/2-z
1/2-x,1/2-y,-z
1/2+x,1/2-y,1/2+z
loop_
_atom_site_type_symbol
_atom_site_label
_atom_site_fract_x
_atom_site_fract_y
_atom_site_fract_z
Si Si1 0.947030 0.377536 0.463043
Si Si2 0.540320 0.323022 0.865380
Si Si3 0.997596 0.956544 0.419933
Si Si4 0.811350 0.111533 0.165164
Si Si5 0.101931 0.651966 0.007381
Si Si6 0.646330 0.374355 0.216202
Si Si7 0.670656 0.237248 0.782348
Si Si8 0.122733 0.284412 0.042230
O O1 0.825362 0.397008 0.664382
O O2 0.907626 0.328761 0.486787
O O3 0.000000 0.394739 0.250000
O O4 0.051021 0.373790 0.439834
O O5 0.500000 0.324169 0.750000
O O6 0.646017 0.355320 0.769113
O O7 0.588273 0.277806 0.861579
O O8 0.435522 0.340915 0.096916
O O9 0.097218 0.921020 0.317649
O O10 0.000000 0.965870 0.250000
O O11 0.880557 0.931271 0.603517
O O12 0.000000 0.000000 0.500000
O O13 0.853806 0.128595 0.956028
O O14 0.000000 0.649156 0.250000
O O15 0.222883 0.633350 0.903706
O O16 0.121678 0.701432 0.945647
O O17 0.796991 0.255681 0.658176
O O18 0.688572 0.212792 0.608620
O O19 0.000000 0.266695 0.250000
#
# Coordination Sequence:
#
# PCOD9269976 Si02
#       8
#     8   8   8   8   8   8   8   8
#     4  11  21  39  59  80 120 161 212 254 303 359
#     4  11  24  35  60  87 115 160 218 268 313 354
#     4   9  20  42  71  99 125 152 183 240 306 372
#     4  10  21  44  62  88 128 164 187 251 319 363
#     4  12  25  39  58  86 113 170 221 252 303 370
#     4  10  24  42  63  87 131 161 198 248 316 372
#     4  11  23  35  52  80 117 157 213 273 313 343
#     4  10  20  35  53  72 110 159 203 262 324 343
#
# _framework density 18.583867000000001
#
# number of rings (size 3 to 8) (size 9 to 14) (size 15 to 20)
#    0.000    1.500    5.000    1.500    7.000    3.000 
#    0.000    1.875    0.000    1.500    0.000    0.000 
#    0.000    0.000    0.000    0.000    0.000    0.000 
#
# Total GULP energy -178391.079350 kJ/mol
# GULP energy per Si atom -5574.721230 kJ/mol
# Density = 1.854157 g / cm^3
# Si number density = 18.583867 Si / 1000 Ang^3
#
#
#
# Elastic Constant Matrix: (Units=GPa)
#
#
# Indices 1 2 3 4 5 6 
#
# 1 103.9188 56.3276 41.4276 0.0000 -17.0840 0.0000
# 2 56.3276 111.4574 44.2592 0.0000 -2.3976 0.0000
# 3 41.4276 44.2592 109.4679 0.0000 -18.5220 0.0000
# 4 0.0000 0.0000 0.0000 14.1590 0.0000 4.9198
# 5 -17.0840 -2.3976 -18.5220 0.0000 36.2663 0.0000
# 6 0.0000 0.0000 0.0000 4.9198 0.0000 20.8047
#
#
#
# Elastic Compliance Matrix: (Units=1/GPa)
#
#
# Indices 1 2 3 4 5 6 
#
# 1 0.014937 -0.006621 -0.002035 0.000000 0.005559 0.000000
# 2 -0.006621 0.013713 -0.003736 0.000000 -0.004120 0.000000
# 3 -0.002035 -0.003736 0.012272 0.000000 0.005062 0.000000
# 4 0.000000 0.000000 0.000000 0.076949 0.000000 -0.018197
# 5 0.005559 -0.004120 0.005062 0.000000 0.032505 0.000000
# 6 0.000000 0.000000 0.000000 -0.018197 0.000000 0.052369
#
#
# Mechanical properties :
#
#
# Convention : Reuss Voigt Hill
#
# Bulk Modulus (GPa) = 61.96518 67.65254 64.80886
# Shear Modulus (GPa) = 21.46757 26.43465 23.95111
#
# Velocity S-wave (km/s) = 3.40247 3.77563 3.59390
# Velocity P-wave (km/s) = 6.98940 7.44917 7.22294
#
# Compressibility (1/GPa) = 0.01613810
#
# Stress axis : x y z
#
# Youngs Moduli (GPa) = 66.94791 72.92394 81.48461
#
# Poissons Ratio (x) = 0.48283 0.16584
# Poissons Ratio (y) = 0.44326 0.30441
# Poissons Ratio (z) = 0.13626 0.27243
#
# Static dielectric constant tensor:
#      x y z
#    x 1.734960 0.000000 0.009250 
#    y 0.000000 1.627890 0.000000 
#    z 0.009250 0.000000 1.723510 
# 
# From -- ./inp_files/44815.got.cif
#   From: 2010.05.17/outbox.cif.g08.bks.cpg/sg15_23_cif.got.tgz:44815.got - 2010.06.03 18:47:42.
