data_PCOD9269159
_publ_section_title
;
Structure prediction by ZEFSAII (Michael W. Deem and Ramdas Pophale) SiO2 
 PCOD9269159
Probable space group: C 2/C
;
_chemical_formula_sum "Si O2"
_cell_formula_units_Z 60
_cell_length_a 30.413455
_cell_length_b 12.410788
_cell_length_c 8.529320
_cell_angle_alpha 90.000000
_cell_angle_beta 96.201748
_cell_angle_gamma 90.000000
_cell_volume 3200.592794
_symmetry_space_group_name_H-M "C 2/C"
_symmetry_group_IT_number 15
_symmetry_cell_setting 'monoclinic'
loop_
_space_group_symop_operation_xyz
x,y,z
-x,y,1/2-z
-x,-y,-z
x,-y,1/2+z
1/2+x,1/2+y,z
1/2-x,1/2+y,1/2-z
1/2-x,1/2-y,-z
1/2+x,1/2-y,1/2+z
loop_
_atom_site_type_symbol
_atom_site_label
_atom_site_fract_x
_atom_site_fract_y
_atom_site_fract_z
Si Si1 0.703501 0.131031 0.190808
Si Si2 0.602498 0.131126 0.256348
Si Si3 0.754573 0.963703 0.001233
Si Si4 0.534180 0.455837 0.883007
Si Si5 0.500000 0.931445 0.250000
Si Si6 0.059661 0.447695 0.027266
Si Si7 0.412020 0.374176 0.315811
Si Si8 0.693137 0.375054 0.187111
O O1 0.652952 0.120812 0.224606
O O2 0.718847 0.044019 0.067989
O O3 0.705220 0.254648 0.135676
O O4 0.733108 0.107551 0.355935
O O5 0.597420 0.105514 0.438312
O O6 0.582338 0.249384 0.225776
O O7 0.577500 0.047291 0.134383
O O8 0.778128 0.896317 0.146053
O O9 0.791149 0.039331 0.934531
O O10 0.500000 0.398706 0.750000
O O11 0.561335 0.546946 0.793829
O O12 0.500000 0.500000 0.000000
O O13 0.569165 0.391322 0.001317
O O14 0.534264 0.874291 0.145701
O O15 0.526820 0.006539 0.381489
O O16 0.358895 0.390225 0.296371
#
# Coordination Sequence:
#
# PCOD9269159 Si02
#       8
#     8   8   8   8   4   8   8   8
#     4  10  20  34  52  78 111 140 188 217 264 319
#     4  10  20  34  55  78 107 149 175 221 268 326
#     4  10  20  34  54  80 107 152 173 226 271 313
#     4   9  19  39  57  79 105 134 175 234 268 325
#     4   8  16  32  48  70 100 132 164 228 248 314
#     4   9  17  34  51  75 108 135 177 215 271 317
#     4  10  20  37  58  80 105 142 181 224 280 319
#     4  10  20  34  55  81 108 140 183 224 265 325
#
# _framework density 18.746527
#
# number of rings (size 3 to 8) (size 9 to 14) (size 15 to 20)
#    0.000    2.400    0.000    2.400    0.000    0.000 
#   22.800    4.000    0.000   22.400    0.000    0.000 
#    0.000    0.000    0.000    0.000    0.000    0.000 
#
# Total GULP energy -167007.249019 kJ/mol
# GULP energy per Si atom -5566.908301 kJ/mol
# Density = 1.870386 g / cm^3
# Si number density = 18.746527 Si / 1000 Ang^3
#
#
#
# Elastic Constant Matrix: (Units=GPa)
#
#
# Indices 1 2 3 4 5 6 
#
# 1 66.8476 32.7709 15.5718 0.0000 -5.6115 0.0000
# 2 32.7709 61.7447 15.8411 0.0000 -7.2697 0.0000
# 3 15.5718 15.8411 70.9510 0.0000 -13.5650 0.0000
# 4 0.0000 0.0000 0.0000 20.4142 0.0000 -9.9966
# 5 -5.6115 -7.2697 -13.5650 0.0000 29.7216 0.0000
# 6 0.0000 0.0000 0.0000 -9.9966 0.0000 29.3544
#
#
#
# Elastic Compliance Matrix: (Units=1/GPa)
#
#
# Indices 1 2 3 4 5 6 
#
# 1 0.020543 -0.010311 -0.002133 0.000000 0.000383 0.000000
# 2 -0.010311 0.022553 -0.002290 0.000000 0.002525 0.000000
# 3 -0.002133 -0.002290 0.016313 0.000000 0.006482 0.000000
# 4 0.000000 0.000000 0.000000 0.058790 0.000000 0.020021
# 5 0.000383 0.002525 0.006482 0.000000 0.037294 0.000000
# 6 0.000000 0.000000 0.000000 0.020021 0.000000 0.040885
#
#
# Mechanical properties :
#
#
# Convention : Reuss Voigt Hill
#
# Bulk Modulus (GPa) = 33.39879 36.43457 34.91668
# Shear Modulus (GPa) = 21.20212 24.92201 23.06207
#
# Velocity S-wave (km/s) = 3.36667 3.65008 3.51123
# Velocity P-wave (km/s) = 5.74171 6.10259 5.92490
#
# Compressibility (1/GPa) = 0.02994120
#
# Stress axis : x y z
#
# Youngs Moduli (GPa) = 48.67782 44.34026 61.30069
#
# Poissons Ratio (x) = 0.45719 0.13078
# Poissons Ratio (y) = 0.50191 0.14036
# Poissons Ratio (z) = 0.10385 0.10153
#
# Static dielectric constant tensor:
#      x y z
#    x 1.698300 0.000000 -0.021960 
#    y 0.000000 1.652200 0.000000 
#    z -0.021960 0.000000 1.647910 
# 
# From -- ./inp_files/69135.got.cif
#   From: 2010.05.17/outbox.cif.g08.bks.cpg/sg15_35_cif.got.tgz:69135.got - 2010.06.03 18:47:42.
