data_PCOD9269045
_publ_section_title
;
Structure prediction by ZEFSAII (Michael W. Deem and Ramdas Pophale) SiO2 
 PCOD9269045
Probable space group: C 2/C
;
_chemical_formula_sum "Si O2"
_cell_formula_units_Z 52
_cell_length_a 21.207044
_cell_length_b 10.532440
_cell_length_c 12.250421
_cell_angle_alpha 90.000000
_cell_angle_beta 118.223929
_cell_angle_gamma 90.000000
_cell_volume 2410.950608
_symmetry_space_group_name_H-M "C 2/C"
_symmetry_group_IT_number 15
_symmetry_cell_setting 'monoclinic'
loop_
_space_group_symop_operation_xyz
x,y,z
-x,y,1/2-z
-x,-y,-z
x,-y,1/2+z
1/2+x,1/2+y,z
1/2-x,1/2+y,1/2-z
1/2-x,1/2-y,-z
1/2+x,1/2-y,1/2+z
loop_
_atom_site_type_symbol
_atom_site_label
_atom_site_fract_x
_atom_site_fract_y
_atom_site_fract_z
Si Si1 0.351956 0.516569 0.198404
Si Si2 0.830438 0.397003 0.130784
Si Si3 0.468414 0.638136 0.000212
Si Si4 0.215767 0.634898 0.538017
Si Si5 0.893201 0.735053 0.871577
Si Si6 0.500000 0.464311 0.750000
Si Si7 0.676162 0.678218 0.542151
O O1 0.281271 0.433980 0.155704
O O2 0.365340 0.629196 0.297528
O O3 0.431300 0.458438 0.237943
O O4 0.334287 0.581025 0.066831
O O5 0.891564 0.361473 0.267381
O O6 0.759230 0.343808 0.134962
O O7 0.818744 0.538440 0.078805
O O8 0.835103 0.314424 0.023473
O O9 0.527545 0.739482 0.015335
O O10 0.474014 0.631260 0.135863
O O11 0.500000 0.500000 0.000000
O O12 0.383833 0.655871 0.914669
O O13 0.250000 0.750000 0.500000
O O14 0.157508 0.685697 0.574874
#
# Coordination Sequence:
#
# PCOD9269045 Si02
#       7
#     8   8   8   8   8   4   8
#     4   8  17  35  57  84 113 155 195 251 296 355
#     4   9  19  38  60  84 119 165 202 244 296 366
#     4  10  20  33  62  93 119 149 199 254 294 358
#     4  11  24  35  57  86 125 157 200 260 298 352
#     4  10  22  37  61  91 117 161 206 240 308 355
#     4   8  16  32  54  80 112 146 190 242 288 334
#     4   8  16  35  60  84 115 155 205 246 294 347
#
# _framework density 21.568256999999999
#
# number of rings (size 3 to 8) (size 9 to 14) (size 15 to 20)
#    0.000    2.769    0.000    1.846    8.615    1.231 
#    0.000    0.769    0.000    1.846    0.000    0.000 
#    0.000    0.000    0.000    0.000    0.000    0.000 
#
# Total GULP energy -144833.233319 kJ/mol
# GULP energy per Si atom -5570.508974 kJ/mol
# Density = 2.151917 g / cm^3
# Si number density = 21.568257 Si / 1000 Ang^3
#
#
#
# Elastic Constant Matrix: (Units=GPa)
#
#
# Indices 1 2 3 4 5 6 
#
# 1 156.6654 50.1284 5.0297 0.0000 -2.3774 0.0000
# 2 50.1284 80.3885 19.3797 0.0000 -8.6435 0.0000
# 3 5.0297 19.3797 35.9112 0.0000 3.8613 0.0000
# 4 0.0000 0.0000 0.0000 23.3001 0.0000 3.9683
# 5 -2.3774 -8.6435 3.8613 0.0000 31.8386 0.0000
# 6 0.0000 0.0000 0.0000 3.9683 0.0000 38.4847
#
#
#
# Elastic Compliance Matrix: (Units=1/GPa)
#
#
# Indices 1 2 3 4 5 6 
#
# 1 0.008118 -0.005687 0.002059 0.000000 -0.001187 0.000000
# 2 -0.005687 0.019073 -0.010140 0.000000 0.005983 0.000000
# 3 0.002059 -0.010140 0.033750 0.000000 -0.006692 0.000000
# 4 0.000000 0.000000 0.000000 0.043686 0.000000 -0.004505
# 5 -0.001187 0.005983 -0.006692 0.000000 0.033756 0.000000
# 6 0.000000 0.000000 0.000000 -0.004505 0.000000 0.026449
#
#
# Mechanical properties :
#
#
# Convention : Reuss Voigt Hill
#
# Bulk Modulus (GPa) = 29.93362 46.89340 38.41351
# Shear Modulus (GPa) = 24.56981 31.95316 28.26149
#
# Velocity S-wave (km/s) = 3.37881 3.85319 3.62377
# Velocity P-wave (km/s) = 5.39727 6.44865 5.94625
#
# Compressibility (1/GPa) = 0.03340725
#
# Stress axis : x y z
#
# Youngs Moduli (GPa) = 123.17627 52.42888 29.62989
#
# Poissons Ratio (x) = 0.29814 -0.06102
# Poissons Ratio (y) = 0.70046 0.30045
# Poissons Ratio (z) = -0.25367 0.53163
#
# Static dielectric constant tensor:
#      x y z
#    x 1.941890 0.000000 0.095350 
#    y 0.000000 1.798650 0.000000 
#    z 0.095350 0.000000 2.004010 
# 
# From -- ./inp_files/111179.got.cif
#   From: 2010.05.17/outbox.cif.g08.bks.cpg/sg15_56_cif.got.tgz:111179.got - 2010.06.03 18:47:42.
