data_PCOD9269379
_publ_section_title
;
Structure prediction by ZEFSAII (Michael W. Deem and Ramdas Pophale) SiO2 
 PCOD9269379
Probable space group: C 2/C
;
_chemical_formula_sum "Si O2"
_cell_formula_units_Z 60
_cell_length_a 27.553580
_cell_length_b 22.573534
_cell_length_c 5.260273
_cell_angle_alpha 90.000000
_cell_angle_beta 77.544497
_cell_angle_gamma 90.000000
_cell_volume 3194.787840
_symmetry_space_group_name_H-M "C 2/C"
_symmetry_group_IT_number 15
_symmetry_cell_setting 'monoclinic'
loop_
_space_group_symop_operation_xyz
x,y,z
-x,y,1/2-z
-x,-y,-z
x,-y,1/2+z
1/2+x,1/2+y,z
1/2-x,1/2+y,1/2-z
1/2-x,1/2-y,-z
1/2+x,1/2-y,1/2+z
loop_
_atom_site_type_symbol
_atom_site_label
_atom_site_fract_x
_atom_site_fract_y
_atom_site_fract_z
Si Si1 0.274601 0.186066 0.983443
Si Si2 0.500000 0.855650 0.750000
Si Si3 0.548577 0.764906 0.092610
Si Si4 0.834885 0.533887 0.654287
Si Si5 0.285784 0.466544 0.231618
Si Si6 0.145802 0.738214 0.262488
Si Si7 0.400681 0.855139 0.072514
Si Si8 0.721168 0.656262 0.547800
O O1 0.327664 0.202560 0.038273
O O2 0.245046 0.150688 0.239811
O O3 0.250000 0.250000 0.000000
O O4 0.264794 0.164858 0.708938
O O5 0.475609 0.811328 0.574356
O O6 0.549072 0.887900 0.589782
O O7 0.500000 0.730772 0.250000
O O8 0.574872 0.807577 0.266279
O O9 0.594754 0.731031 0.914501
O O10 0.848801 0.513847 0.354347
O O11 0.774755 0.537301 0.715287
O O12 0.862183 0.594499 0.699278
O O13 0.300307 0.514288 0.431540
O O14 0.303813 0.403628 0.321472
O O15 0.184432 0.786807 0.108235
O O16 0.127812 0.686912 0.094423
#
# Coordination Sequence:
#
# PCOD9269379 Si02
#       8
#     8   4   8   8   8   8   8   8
#     4  10  21  32  48  78 116 141 171 218 272 315
#     4   8  18  36  50  76  96 138 166 220 282 330
#     4   9  19  34  54  74 106 138 173 215 276 340
#     4  10  23  36  53  74  98 136 187 225 260 309
#     4  10  21  38  54  72 105 149 183 222 264 308
#     4  10  21  30  54  81 106 141 173 220 279 326
#     4  10  20  34  56  72 104 134 179 222 279 319
#     4  11  22  36  53  81 114 143 185 224 263 333
#
# _framework density 18.780588999999999
#
# number of rings (size 3 to 8) (size 9 to 14) (size 15 to 20)
#    0.000    2.133    0.000    3.200   11.200    1.067 
#    0.000    0.667    0.000    0.000    0.000    0.000 
#    0.000    1.067    0.000    0.000    0.000    0.000 
#
# Total GULP energy -167011.795074 kJ/mol
# GULP energy per Si atom -5567.059836 kJ/mol
# Density = 1.873784 g / cm^3
# Si number density = 18.780589 Si / 1000 Ang^3
#
#
#
# Elastic Constant Matrix: (Units=GPa)
#
#
# Indices 1 2 3 4 5 6 
#
# 1 89.8935 9.1992 29.3664 0.0000 1.2208 0.0000
# 2 9.1992 48.4640 -3.8316 0.0000 7.5732 0.0000
# 3 29.3664 -3.8316 54.8614 0.0000 13.3854 0.0000
# 4 0.0000 0.0000 0.0000 29.1599 0.0000 8.6552
# 5 1.2208 7.5732 13.3854 0.0000 40.7783 0.0000
# 6 0.0000 0.0000 0.0000 8.6552 0.0000 18.1407
#
#
#
# Elastic Compliance Matrix: (Units=1/GPa)
#
#
# Indices 1 2 3 4 5 6 
#
# 1 0.014326 -0.003901 -0.008711 0.000000 0.003155 0.000000
# 2 -0.003901 0.022676 0.005078 0.000000 -0.005761 0.000000
# 3 -0.008711 0.005078 0.025450 0.000000 -0.009036 0.000000
# 4 0.000000 0.000000 0.000000 0.039951 0.000000 -0.019061
# 5 0.003155 -0.005761 -0.009036 0.000000 0.028464 0.000000
# 6 0.000000 0.000000 0.000000 -0.019061 0.000000 0.064219
#
#
# Mechanical properties :
#
#
# Convention : Reuss Voigt Hill
#
# Bulk Modulus (GPa) = 21.10437 29.18745 25.14591
# Shear Modulus (GPa) = 22.12875 28.18145 25.15510
#
# Velocity S-wave (km/s) = 3.43633 3.87791 3.66378
# Velocity P-wave (km/s) = 5.19675 5.96875 5.59608
#
# Compressibility (1/GPa) = 0.04738356
#
# Stress axis : x y z
#
# Youngs Moduli (GPa) = 69.80172 44.09934 39.29301
#
# Poissons Ratio (x) = 0.17203 0.34228
# Poissons Ratio (y) = 0.27230 -0.19951
# Poissons Ratio (z) = 0.60803 -0.22392
#
# Static dielectric constant tensor:
#      x y z
#    x 1.652380 0.000000 -0.096350 
#    y 0.000000 1.666090 0.000000 
#    z -0.096350 0.000000 1.769250 
# 
# From -- ./inp_files/17429.got.cif
#   From: 2010.05.17/outbox.cif.g08.bks.cpg/sg15_9_cif.got.tgz:17429.got - 2010.06.03 18:47:42.
