data_PCOD9269700
_publ_section_title
;
Structure prediction by ZEFSAII (Michael W. Deem and Ramdas Pophale) SiO2 
 PCOD9269700
Probable space group: C 2/C
;
_chemical_formula_sum "Si O2"
_cell_formula_units_Z 56
_cell_length_a 16.619552
_cell_length_b 8.795713
_cell_length_c 20.942575
_cell_angle_alpha 90.000000
_cell_angle_beta 113.216287
_cell_angle_gamma 90.000000
_cell_volume 2813.500351
_symmetry_space_group_name_H-M "C 2/C"
_symmetry_group_IT_number 15
_symmetry_cell_setting 'monoclinic'
loop_
_space_group_symop_operation_xyz
x,y,z
-x,y,1/2-z
-x,-y,-z
x,-y,1/2+z
1/2+x,1/2+y,z
1/2-x,1/2+y,1/2-z
1/2-x,1/2-y,-z
1/2+x,1/2-y,1/2+z
loop_
_atom_site_type_symbol
_atom_site_label
_atom_site_fract_x
_atom_site_fract_y
_atom_site_fract_z
Si Si1 0.823595 0.530902 0.168476
Si Si2 0.934327 0.939207 0.560239
Si Si3 0.824332 0.785224 0.073980
Si Si4 0.337694 0.787212 0.794551
Si Si5 0.779633 0.963715 0.185162
Si Si6 0.878157 0.044516 0.904481
Si Si7 0.908840 0.792292 0.688666
O O1 0.853317 0.628570 0.116527
O O2 0.868019 0.613553 0.243356
O O3 0.716601 0.532484 0.137481
O O4 0.848717 0.355590 0.173805
O O5 0.883017 0.897536 0.479171
O O6 0.916730 0.839320 0.617150
O O7 0.899268 0.108450 0.567519
O O8 0.037692 0.937109 0.577545
O O9 0.780357 0.881445 0.117733
O O10 0.750000 0.750000 0.000000
O O11 0.292327 0.909798 0.825556
O O12 0.276402 0.663717 0.738739
O O13 0.392558 0.679109 0.857757
O O14 0.869100 0.062147 0.213730
O O15 0.000000 0.755112 0.750000
#
# Coordination Sequence:
#
# PCOD9269700 Si02
#       7
#     8   8   8   8   8   8   8
#     4  11  23  38  67  90 121 163 205 253 310 358
#     4  10  24  40  63  89 123 166 204 252 312 362
#     4  10  21  39  60  87 119 159 200 253 299 369
#     4  11  20  37  60  92 119 156 207 250 301 366
#     4  10  20  34  59  89 115 160 198 244 307 351
#     4  11  21  39  64  90 122 158 207 253 300 374
#     4  11  23  40  61  93 125 162 207 257 305 370
#
# _framework density 19.904029999999999
#
# number of rings (size 3 to 8) (size 9 to 14) (size 15 to 20)
#    0.000    1.429    4.286    0.857    0.000    2.857 
#    0.000    1.429    0.000    3.429    0.000    0.000 
#    0.000    0.000    0.000    0.000    0.000    0.000 
#
# Total GULP energy -156111.483911 kJ/mol
# GULP energy per Si atom -5575.410140 kJ/mol
# Density = 1.985873 g / cm^3
# Si number density = 19.904030 Si / 1000 Ang^3
#
#
#
# Elastic Constant Matrix: (Units=GPa)
#
#
# Indices 1 2 3 4 5 6 
#
# 1 34.7538 11.3608 21.7109 0.0000 3.0558 0.0000
# 2 11.3608 93.7027 34.9039 0.0000 0.5640 0.0000
# 3 21.7109 34.9039 95.2582 0.0000 -8.6075 0.0000
# 4 0.0000 0.0000 0.0000 14.0837 0.0000 -7.0179
# 5 3.0558 0.5640 -8.6075 0.0000 19.2564 0.0000
# 6 0.0000 0.0000 0.0000 -7.0179 0.0000 15.0423
#
#
#
# Elastic Compliance Matrix: (Units=1/GPa)
#
#
# Indices 1 2 3 4 5 6 
#
# 1 0.035247 -0.001054 -0.008493 0.000000 -0.009359 0.000000
# 2 -0.001054 0.012506 -0.004544 0.000000 -0.002230 0.000000
# 3 -0.008493 -0.004544 0.014831 0.000000 0.008110 0.000000
# 4 0.000000 0.000000 0.000000 0.092511 0.000000 0.043160
# 5 -0.009359 -0.002230 0.008110 0.000000 0.057107 0.000000
# 6 0.000000 0.000000 0.000000 0.043160 0.000000 0.086615
#
#
# Mechanical properties :
#
#
# Convention : Reuss Voigt Hill
#
# Bulk Modulus (GPa) = 29.06694 39.96290 34.51492
# Shear Modulus (GPa) = 14.77260 20.05909 17.41585
#
# Velocity S-wave (km/s) = 2.72727 3.17802 2.96123
# Velocity P-wave (km/s) = 4.95506 5.79549 5.39168
#
# Compressibility (1/GPa) = 0.03440335
#
# Stress axis : x y z
#
# Youngs Moduli (GPa) = 28.37146 79.96355 67.42557
#
# Poissons Ratio (x) = 0.08424 0.57264
# Poissons Ratio (y) = 0.02989 0.30636
# Poissons Ratio (z) = 0.24096 0.36333
#
# Static dielectric constant tensor:
#      x y z
#    x 1.729210 0.000000 -0.029100 
#    y 0.000000 1.695470 0.000000 
#    z -0.029100 0.000000 1.706390 
# 
# From -- ./inp_files/247595.got.cif
#   From: 2010.05.17/outbox.cif.g08.bks.cpg/sg15_124_cif.got.tgz:247595.got - 2010.06.03 18:47:42.
