data_PCOD9269728
_publ_section_title
;
Structure prediction by ZEFSAII (Michael W. Deem and Ramdas Pophale) SiO2 
 PCOD9269728
Probable space group: C 2/C
;
_chemical_formula_sum "Si O2"
_cell_formula_units_Z 36
_cell_length_a 7.951392
_cell_length_b 13.205709
_cell_length_c 13.494646
_cell_angle_alpha 90.000000
_cell_angle_beta 73.715810
_cell_angle_gamma 90.000000
_cell_volume 1360.142932
_symmetry_space_group_name_H-M "C 2/C"
_symmetry_group_IT_number 15
_symmetry_cell_setting 'monoclinic'
loop_
_space_group_symop_operation_xyz
x,y,z
-x,y,1/2-z
-x,-y,-z
x,-y,1/2+z
1/2+x,1/2+y,z
1/2-x,1/2+y,1/2-z
1/2-x,1/2-y,-z
1/2+x,1/2-y,1/2+z
loop_
_atom_site_type_symbol
_atom_site_label
_atom_site_fract_x
_atom_site_fract_y
_atom_site_fract_z
Si Si1 0.379921 0.101768 0.970949
Si Si2 0.000000 0.535488 0.750000
Si Si3 0.859762 0.918201 0.484235
Si Si4 0.294700 0.157927 0.297074
Si Si5 0.882040 0.771365 0.116920
O O1 0.444301 0.168215 0.052108
O O2 0.497789 0.090741 0.854319
O O3 0.304068 0.991484 0.015054
O O4 0.218238 0.163937 0.949894
O O5 0.827312 0.462430 0.775460
O O6 0.806661 0.843201 0.583760
O O7 0.954513 0.847049 0.388012
O O8 0.000000 0.000000 0.500000
O O9 0.500000 0.190989 0.250000
O O10 0.234693 0.230544 0.218845
#
# Coordination Sequence:
#
# PCOD9269728 Si02
#       5
#     8   4   8   8   8
#     4   9  19  36  55  85 115 151 191 242 294 349
#     4   8  18  36  52  72 116 142 176 242 290 332
#     4   9  19  39  57  81 122 152 191 249 295 348
#     4   9  20  37  54  83 116 147 192 241 293 355
#     4  10  20  34  60  85 111 155 198 235 297 358
#
# _framework density 26.467807000000001
#
# number of rings (size 3 to 8) (size 9 to 14) (size 15 to 20)
#    0.667    2.222    0.000    0.000    3.111    1.778 
#    0.000    6.667    0.000    0.000    0.000    0.000 
#    0.000    0.000    0.000    0.000    0.000    0.000 
#
# Total GULP energy -100247.977170 kJ/mol
# GULP energy per Si atom -5569.332065 kJ/mol
# Density = 2.640756 g / cm^3
# Si number density = 26.467807 Si / 1000 Ang^3
#
#
#
# Elastic Constant Matrix: (Units=GPa)
#
#
# Indices 1 2 3 4 5 6 
#
# 1 38.2956 20.5114 26.3440 0.0000 -4.0712 0.0000
# 2 20.5114 128.1179 71.1869 0.0000 -4.2291 0.0000
# 3 26.3440 71.1869 151.4286 0.0000 -8.1154 0.0000
# 4 0.0000 0.0000 0.0000 37.9386 0.0000 -10.4768
# 5 -4.0712 -4.2291 -8.1154 0.0000 23.7861 0.0000
# 6 0.0000 0.0000 0.0000 -10.4768 0.0000 33.5970
#
#
#
# Elastic Compliance Matrix: (Units=1/GPa)
#
#
# Indices 1 2 3 4 5 6 
#
# 1 0.030562 -0.002609 -0.003906 0.000000 0.003434 0.000000
# 2 -0.002609 0.010788 -0.004623 0.000000 -0.000106 0.000000
# 3 -0.003906 -0.004623 0.009552 0.000000 0.001768 0.000000
# 4 0.000000 0.000000 0.000000 0.028842 0.000000 0.008994
# 5 0.003434 -0.000106 0.001768 0.000000 0.043214 0.000000
# 6 0.000000 0.000000 0.000000 0.008994 0.000000 0.032569
#
#
# Mechanical properties :
#
#
# Convention : Reuss Voigt Hill
#
# Bulk Modulus (GPa) = 34.93483 61.54742 48.24113
# Shear Modulus (GPa) = 26.68845 32.38431 29.53638
#
# Velocity S-wave (km/s) = 3.17888 3.50170 3.34419
# Velocity P-wave (km/s) = 5.16733 6.29709 5.75998
#
# Compressibility (1/GPa) = 0.02862473
#
# Stress axis : x y z
#
# Youngs Moduli (GPa) = 32.71987 92.69132 104.69426
#
# Poissons Ratio (x) = 0.24184 0.40897
# Poissons Ratio (y) = 0.08537 0.48405
# Poissons Ratio (z) = 0.12782 0.42855
#
# Static dielectric constant tensor:
#      x y z
#    x 2.673060 0.000000 0.600780 
#    y 0.000000 2.137720 0.000000 
#    z 0.600780 0.000000 2.918700 
# 
# From -- ./inp_files/195541.got.cif
#   From: 2010.05.17/outbox.cif.g08.bks.cpg/sg15_98_cif.got.tgz:195541.got - 2010.06.03 18:47:42.
