data_PCOD9269125
_publ_section_title
;
Structure prediction by ZEFSAII (Michael W. Deem and Ramdas Pophale) SiO2 
 PCOD9269125
Probable space group: C 2/C
;
_chemical_formula_sum "Si O2"
_cell_formula_units_Z 60
_cell_length_a 21.492091
_cell_length_b 15.078272
_cell_length_c 8.563034
_cell_angle_alpha 90.000000
_cell_angle_beta 86.709234
_cell_angle_gamma 90.000000
_cell_volume 2770.391876
_symmetry_space_group_name_H-M "C 2/C"
_symmetry_group_IT_number 15
_symmetry_cell_setting 'monoclinic'
loop_
_space_group_symop_operation_xyz
x,y,z
-x,y,1/2-z
-x,-y,-z
x,-y,1/2+z
1/2+x,1/2+y,z
1/2-x,1/2+y,1/2-z
1/2-x,1/2-y,-z
1/2+x,1/2-y,1/2+z
loop_
_atom_site_type_symbol
_atom_site_label
_atom_site_fract_x
_atom_site_fract_y
_atom_site_fract_z
Si Si1 0.500000 0.025737 0.250000
Si Si2 0.111827 0.950619 0.722959
Si Si3 0.299669 0.264529 0.350294
Si Si4 0.569078 0.103288 0.952394
Si Si5 0.194035 0.426728 0.628597
Si Si6 0.238403 0.947315 0.189339
Si Si7 0.040390 0.081642 0.930525
Si Si8 0.425974 0.303761 0.516052
O O1 0.520286 0.084098 0.099691
O O2 0.552853 0.960413 0.311079
O O3 0.092483 0.910882 0.558514
O O4 0.095433 0.877448 0.855330
O O5 0.182051 0.984347 0.717280
O O6 0.072450 0.040149 0.772475
O O7 0.250000 0.250000 0.500000
O O8 0.302788 0.166185 0.278593
O O9 0.276851 0.347804 0.253118
O O10 0.368141 0.290626 0.405195
O O11 0.633693 0.081395 0.029069
O O12 0.566686 0.206611 0.909404
O O13 0.249764 0.436935 0.496095
O O14 0.201917 0.510297 0.737561
O O15 0.992549 0.163767 0.936916
O O16 0.000000 0.000000 0.000000
#
# Coordination Sequence:
#
# PCOD9269125 Si02
#       8
#     4   8   8   8   8   8   8   8
#     4  10  22  42  66  90 120 156 212 266 322 364
#     4  11  21  35  56  88 125 164 201 241 301 377
#     4   9  19  36  56  84 113 155 205 247 297 369
#     4  10  22  41  65  91 120 156 211 264 312 371
#     4  10  21  38  63  89 118 162 207 252 315 365
#     4  11  20  37  63  85 123 164 204 253 306 366
#     4  10  20  34  51  81 121 159 197 238 295 364
#     4  10  20  36  58  86 121 160 197 247 310 368
#
# _framework density 21.657585999999998
#
# number of rings (size 3 to 8) (size 9 to 14) (size 15 to 20)
#    0.000    1.867    0.000    6.400    1.867    0.000 
#    9.600    0.667    0.000    0.000    0.000    0.000 
#    0.000    0.000    0.000    0.000    0.000    0.000 
#
# Total GULP energy -167360.189961 kJ/mol
# GULP energy per Si atom -5578.672999 kJ/mol
# Density = 2.160829 g / cm^3
# Si number density = 21.657586 Si / 1000 Ang^3
#
#
#
# Elastic Constant Matrix: (Units=GPa)
#
#
# Indices 1 2 3 4 5 6 
#
# 1 90.9168 40.5308 11.5804 0.0000 11.4666 0.0000
# 2 40.5308 127.4333 35.0087 0.0000 18.6949 0.0000
# 3 11.5804 35.0087 55.5872 0.0000 9.0604 0.0000
# 4 0.0000 0.0000 0.0000 29.5472 0.0000 6.3146
# 5 11.4666 18.6949 9.0604 0.0000 27.9564 0.0000
# 6 0.0000 0.0000 0.0000 6.3146 0.0000 33.8645
#
#
#
# Elastic Compliance Matrix: (Units=1/GPa)
#
#
# Indices 1 2 3 4 5 6 
#
# 1 0.013019 -0.003752 0.000119 0.000000 -0.002869 0.000000
# 2 -0.003752 0.011181 -0.005587 0.000000 -0.004127 0.000000
# 3 0.000119 -0.005587 0.022048 0.000000 -0.003458 0.000000
# 4 0.000000 0.000000 0.000000 0.035249 0.000000 -0.006573
# 5 -0.002869 -0.004127 -0.003458 0.000000 0.040827 0.000000
# 6 0.000000 0.000000 0.000000 -0.006573 0.000000 0.030755
#
#
# Mechanical properties :
#
#
# Convention : Reuss Voigt Hill
#
# Bulk Modulus (GPa) = 35.96463 49.79748 42.88106
# Shear Modulus (GPa) = 27.65656 30.72811 29.19234
#
# Velocity S-wave (km/s) = 3.57738 3.77080 3.67536
# Velocity P-wave (km/s) = 5.80565 6.48086 6.15253
#
# Compressibility (1/GPa) = 0.02780509
#
# Stress axis : x y z
#
# Youngs Moduli (GPa) = 76.81328 89.43619 45.35641
#
# Poissons Ratio (x) = 0.33560 -0.00538
# Poissons Ratio (y) = 0.28823 0.25343
# Poissons Ratio (z) = -0.00912 0.49972
#
# Static dielectric constant tensor:
#      x y z
#    x 1.852390 0.000000 -0.014330 
#    y 0.000000 1.805470 0.000000 
#    z -0.014330 0.000000 1.815160 
# 
# From -- ./inp_files/61589.got.cif
#   From: 2010.05.17/outbox.cif.g08.bks.cpg/sg15_31_cif.got.tgz:61589.got - 2010.06.03 18:47:42.
