data_PCOD9269274
_publ_section_title
;
Structure prediction by ZEFSAII (Michael W. Deem and Ramdas Pophale) SiO2 
 PCOD9269274
Probable space group: C 2/C
;
_chemical_formula_sum "Si O2"
_cell_formula_units_Z 56
_cell_length_a 13.148252
_cell_length_b 9.487625
_cell_length_c 21.955924
_cell_angle_alpha 90.000000
_cell_angle_beta 67.864083
_cell_angle_gamma 90.000000
_cell_volume 2537.029083
_symmetry_space_group_name_H-M "C 2/C"
_symmetry_group_IT_number 15
_symmetry_cell_setting 'monoclinic'
loop_
_space_group_symop_operation_xyz
x,y,z
-x,y,1/2-z
-x,-y,-z
x,-y,1/2+z
1/2+x,1/2+y,z
1/2-x,1/2+y,1/2-z
1/2-x,1/2-y,-z
1/2+x,1/2-y,1/2+z
loop_
_atom_site_type_symbol
_atom_site_label
_atom_site_fract_x
_atom_site_fract_y
_atom_site_fract_z
Si Si1 0.565712 0.279546 0.660254
Si Si2 0.389948 0.570764 0.549210
Si Si3 0.279167 0.405548 0.474926
Si Si4 0.197886 0.642524 0.419150
Si Si5 0.137970 0.640782 0.770841
Si Si6 0.007707 0.919230 0.350843
Si Si7 0.154983 0.679920 0.284775
O O1 0.676854 0.302093 0.596901
O O2 0.608414 0.212214 0.713058
O O3 0.465046 0.180473 0.662519
O O4 0.513663 0.435495 0.679105
O O5 0.500000 0.500000 0.500000
O O6 0.295050 0.495197 0.533176
O O7 0.383326 0.737420 0.538726
O O8 0.396140 0.553421 0.620597
O O9 0.250000 0.250000 0.500000
O O10 0.195166 0.491155 0.451115
O O11 0.394568 0.395165 0.412511
O O12 0.180717 0.641093 0.350198
O O13 0.147442 0.474563 0.758251
O O14 0.249190 0.720862 0.764270
O O15 0.047634 0.779284 0.308001
#
# Coordination Sequence:
#
# PCOD9269274 Si02
#       7
#     8   8   8   8   8   8   8
#     4   9  19  36  54  76 107 142 181 223 269 320
#     4   9  18  34  55  77 103 143 182 214 264 323
#     4  10  20  34  54  83 109 137 180 225 270 321
#     4   9  19  36  55  76 110 146 177 221 273 321
#     4  10  20  35  55  81 107 141 181 223 270 325
#     4   9  19  37  56  76 108 146 180 221 271 322
#     4  10  20  36  57  81 109 143 182 223 272 326
#
# _framework density 22.073060999999999
#
# number of rings (size 3 to 8) (size 9 to 14) (size 15 to 20)
#    0.000    2.571    0.000    1.286    0.000    2.286 
#    0.000   17.857    0.000    0.000    0.000    0.000 
#    0.000    0.000    0.000    0.000    0.000    0.000 
#
# Total GULP energy -156117.735931 kJ/mol
# GULP energy per Si atom -5575.633426 kJ/mol
# Density = 2.202282 g / cm^3
# Si number density = 22.073061 Si / 1000 Ang^3
#
#
#
# Elastic Constant Matrix: (Units=GPa)
#
#
# Indices 1 2 3 4 5 6 
#
# 1 46.7580 50.6910 18.0916 0.0000 -0.4335 0.0000
# 2 50.6910 189.2565 32.6998 0.0000 -6.3086 0.0000
# 3 18.0916 32.6998 38.9582 0.0000 7.7052 0.0000
# 4 0.0000 0.0000 0.0000 35.1561 0.0000 -1.0941
# 5 -0.4335 -6.3086 7.7052 0.0000 28.4889 0.0000
# 6 0.0000 0.0000 0.0000 -1.0941 0.0000 43.0626
#
#
#
# Elastic Compliance Matrix: (Units=1/GPa)
#
#
# Indices 1 2 3 4 5 6 
#
# 1 0.032777 -0.007072 -0.009587 0.000000 0.001526 0.000000
# 2 -0.007072 0.007946 -0.003922 0.000000 0.002713 0.000000
# 3 -0.009587 -0.003922 0.035513 0.000000 -0.010619 0.000000
# 4 0.000000 0.000000 0.000000 0.028467 0.000000 0.000723
# 5 0.001526 0.002713 -0.010619 0.000000 0.038597 0.000000
# 6 0.000000 0.000000 0.000000 0.000723 0.000000 0.023240
#
#
# Mechanical properties :
#
#
# Convention : Reuss Voigt Hill
#
# Bulk Modulus (GPa) = 28.51114 53.10416 40.80765
# Shear Modulus (GPa) = 22.79004 32.90754 27.84879
#
# Velocity S-wave (km/s) = 3.21671 3.86534 3.55584
# Velocity P-wave (km/s) = 5.17118 6.63564 5.94865
#
# Compressibility (1/GPa) = 0.03507401
#
# Stress axis : x y z
#
# Youngs Moduli (GPa) = 30.50928 125.84894 28.15870
#
# Poissons Ratio (x) = 0.88997 0.26996
# Poissons Ratio (y) = 0.21575 0.11044
# Poissons Ratio (z) = 0.29250 0.49359
#
# Static dielectric constant tensor:
#      x y z
#    x 1.884350 0.000000 -0.009550 
#    y 0.000000 1.792410 0.000000 
#    z -0.009550 0.000000 1.894080 
# 
# From -- ./inp_files/272640.got.cif
#   From: 2010.05.17/outbox.cif.g08.bks.cpg/sg15_137_cif.got.tgz:272640.got - 2010.06.03 18:47:42.
