data_PCOD9269744
_publ_section_title
;
Structure prediction by ZEFSAII (Michael W. Deem and Ramdas Pophale) SiO2 
 PCOD9269744
Probable space group: C 2/C
;
_chemical_formula_sum "Si O2"
_cell_formula_units_Z 48
_cell_length_a 12.491394
_cell_length_b 15.971607
_cell_length_c 13.706447
_cell_angle_alpha 90.000000
_cell_angle_beta 126.571392
_cell_angle_gamma 90.000000
_cell_volume 2196.150962
_symmetry_space_group_name_H-M "C 2/C"
_symmetry_group_IT_number 15
_symmetry_cell_setting 'monoclinic'
loop_
_space_group_symop_operation_xyz
x,y,z
-x,y,1/2-z
-x,-y,-z
x,-y,1/2+z
1/2+x,1/2+y,z
1/2-x,1/2+y,1/2-z
1/2-x,1/2-y,-z
1/2+x,1/2-y,1/2+z
loop_
_atom_site_type_symbol
_atom_site_label
_atom_site_fract_x
_atom_site_fract_y
_atom_site_fract_z
Si Si1 0.530248 0.172853 0.125106
Si Si2 0.138823 0.137604 0.382432
Si Si3 0.232038 0.345280 0.883459
Si Si4 0.700002 0.709432 0.616925
Si Si5 0.644700 0.443366 0.377444
Si Si6 0.845504 0.669225 0.868284
O O1 0.394274 0.178111 0.114522
O O2 0.646292 0.121669 0.243755
O O3 0.594033 0.264132 0.142041
O O4 0.485048 0.144981 0.993070
O O5 0.240907 0.204376 0.393453
O O6 0.132182 0.159416 0.493456
O O7 0.000000 0.148694 0.250000
O O8 0.178445 0.041314 0.395716
O O9 0.311450 0.263952 0.887907
O O10 0.326541 0.404906 0.998778
O O11 0.822395 0.666814 0.740505
O O12 0.500000 0.434205 0.250000
O O13 0.741886 0.393007 0.360255
#
# Coordination Sequence:
#
# PCOD9269744 Si02
#       6
#     8   8   8   8   8   8
#     4   9  17  33  57  85 110 148 190 232 271 337
#     4  10  22  43  58  80 118 151 193 239 281 337
#     4   9  19  32  58  85 122 150 181 232 290 342
#     4  10  21  37  64  81 108 156 197 228 282 348
#     4  10  21  36  58  87 119 149 183 241 293 331
#     4  10  20  34  60  88 116 149 192 231 286 345
#
# _framework density 21.856421000000001
#
# number of rings (size 3 to 8) (size 9 to 14) (size 15 to 20)
#    0.000    2.333    0.000    3.000    9.333    0.000 
#    6.000    5.000   36.667    0.000    0.000    0.000 
#    0.000    0.000    0.000    0.000    0.000    0.000 
#
# Total GULP energy -133784.999782 kJ/mol
# GULP energy per Si atom -5574.374991 kJ/mol
# Density = 2.180667 g / cm^3
# Si number density = 21.856421 Si / 1000 Ang^3
#
#
#
# Elastic Constant Matrix: (Units=GPa)
#
#
# Indices 1 2 3 4 5 6 
#
# 1 17.5914 12.9702 11.3611 0.0000 3.7045 0.0000
# 2 12.9702 90.8291 50.6819 0.0000 5.9819 0.0000
# 3 11.3611 50.6819 235.0086 0.0000 -0.2429 0.0000
# 4 0.0000 0.0000 0.0000 -0.8502 0.0000 17.7340
# 5 3.7045 5.9819 -0.2429 0.0000 26.0689 0.0000
# 6 0.0000 0.0000 0.0000 17.7340 0.0000 2.3322
#
#
#
# Elastic Compliance Matrix: (Units=1/GPa)
#
#
# Indices 1 2 3 4 5 6 
#
# 1 0.065258 -0.008030 -0.001431 0.000000 -0.007444 0.000000
# 2 -0.008030 0.013727 -0.002574 0.000000 -0.002033 0.000000
# 3 -0.001431 -0.002574 0.004880 0.000000 0.000839 0.000000
# 4 0.000000 0.000000 0.000000 -0.007369 0.000000 0.056036
# 5 -0.007444 -0.002033 0.000839 0.000000 0.039892 0.000000
# 6 0.000000 0.000000 0.000000 0.056036 0.000000 0.002687
#
#
# Mechanical properties :
#
#
# Convention : Reuss Voigt Hill
#
# Bulk Modulus (GPa) = 16.72382 54.82843 35.77613
# Shear Modulus (GPa) = 30.66052 23.40456 27.03254
#
# Velocity S-wave (km/s) = 3.74948 3.27591 3.52067
# Velocity P-wave (km/s) = 5.13937 6.28084 5.73856
#
# Compressibility (1/GPa) = 0.05979494
#
# Stress axis : x y z
#
# Youngs Moduli (GPa) = 15.32377 72.85114 204.90363
#
# Poissons Ratio (x) = 0.58501 0.29316
# Poissons Ratio (y) = 0.12305 0.52746
# Poissons Ratio (z) = 0.02192 0.18753
#
# Static dielectric constant tensor:
#      x y z
#    x 1.861910 0.000000 -0.007070 
#    y 0.000000 1.747970 0.000000 
#    z -0.007070 0.000000 1.967390 
# 
# From -- ./inp_files/154109.got.cif
#   From: 2010.05.17/outbox.cif.g08.bks.cpg/sg15_78_cif.got.tgz:154109.got - 2010.06.03 18:47:42.
