data_PCOD9269926
_publ_section_title
;
Structure prediction by ZEFSAII (Michael W. Deem and Ramdas Pophale) SiO2 
 PCOD9269926
Probable space group: C 2/C
;
_chemical_formula_sum "Si O2"
_cell_formula_units_Z 36
_cell_length_a 10.906319
_cell_length_b 18.491425
_cell_length_c 10.587057
_cell_angle_alpha 90.000000
_cell_angle_beta 53.669323
_cell_angle_gamma 90.000000
_cell_volume 1720.082669
_symmetry_space_group_name_H-M "C 2/C"
_symmetry_group_IT_number 15
_symmetry_cell_setting 'monoclinic'
loop_
_space_group_symop_operation_xyz
x,y,z
-x,y,1/2-z
-x,-y,-z
x,-y,1/2+z
1/2+x,1/2+y,z
1/2-x,1/2+y,1/2-z
1/2-x,1/2-y,-z
1/2+x,1/2-y,1/2+z
loop_
_atom_site_type_symbol
_atom_site_label
_atom_site_fract_x
_atom_site_fract_y
_atom_site_fract_z
Si Si1 0.664965 0.321360 0.593604
Si Si2 0.000000 0.797360 0.250000
Si Si3 0.908464 0.338997 0.652669
Si Si4 0.215015 0.395510 0.504904
Si Si5 0.405523 0.468708 0.939098
O O1 0.500000 0.302912 0.750000
O O2 0.750000 0.250000 0.500000
O O3 0.776240 0.350035 0.634069
O O4 0.643140 0.386041 0.506956
O O5 0.041881 0.743487 0.341417
O O6 0.143923 0.847438 0.129369
O O7 0.061864 0.380940 0.519492
O O8 0.837388 0.367423 0.826367
O O9 0.268619 0.477114 0.490871
O O10 0.500000 0.466118 0.750000
O O11 0.500000 0.500000 0.000000
#
# Coordination Sequence:
#
# PCOD9269926 Si02
#       5
#     8   4   8   8   8
#     4  11  27  45  65  96 137 179 219 286 349 412
#     4  10  20  34  70  94 126 184 224 268 338 414
#     4  10  22  39  62  99 140 164 227 285 337 396
#     4  10  20  39  67  97 129 180 227 280 327 413
#     4  11  24  45  71 100 138 183 230 280 348 412
#
# _framework density 20.929227000000001
#
# number of rings (size 3 to 8) (size 9 to 14) (size 15 to 20)
#    0.000    1.778    1.111    5.333    9.333    0.889 
#    4.000    0.000    0.000    0.000    0.000    0.000 
#    0.000    0.000    0.000    0.000    0.000    0.000 
#
# Total GULP energy -100502.194249 kJ/mol
# GULP energy per Si atom -5583.455236 kJ/mol
# Density = 2.088159 g / cm^3
# Si number density = 20.929227 Si / 1000 Ang^3
#
#
#
# Elastic Constant Matrix: (Units=GPa)
#
#
# Indices 1 2 3 4 5 6 
#
# 1 133.2798 39.3493 40.7182 0.0000 -27.3179 0.0000
# 2 39.3493 156.3245 47.5616 0.0000 -26.5601 0.0000
# 3 40.7182 47.5616 76.6637 0.0000 -38.0225 0.0000
# 4 0.0000 0.0000 0.0000 9.8578 0.0000 -0.0766
# 5 -27.3179 -26.5601 -38.0225 0.0000 45.1757 0.0000
# 6 0.0000 0.0000 0.0000 -0.0766 0.0000 18.3377
#
#
#
# Elastic Compliance Matrix: (Units=1/GPa)
#
#
# Indices 1 2 3 4 5 6 
#
# 1 0.009231 -0.000969 -0.003117 0.000000 0.002389 0.000000
# 2 -0.000969 0.008008 -0.004135 0.000000 0.000642 0.000000
# 3 -0.003117 -0.004135 0.025961 0.000000 0.017535 0.000000
# 4 0.000000 0.000000 0.000000 0.101446 0.000000 0.000424
# 5 0.002389 0.000642 0.017535 0.000000 0.038716 0.000000
# 6 0.000000 0.000000 0.000000 0.000424 0.000000 0.054534
#
#
# Mechanical properties :
#
#
# Convention : Reuss Voigt Hill
#
# Bulk Modulus (GPa) = 37.37158 69.05849 53.21503
# Shear Modulus (GPa) = 18.99280 30.58349 24.78815
#
# Velocity S-wave (km/s) = 3.01570 3.82682 3.44522
# Velocity P-wave (km/s) = 5.47913 7.25216 6.42708
#
# Compressibility (1/GPa) = 0.02675830
#
# Stress axis : x y z
#
# Youngs Moduli (GPa) = 108.33011 124.87399 38.51903
#
# Poissons Ratio (x) = 0.12106 0.12005
# Poissons Ratio (y) = 0.10503 0.15927
# Poissons Ratio (z) = 0.33762 0.51635
#
# Static dielectric constant tensor:
#      x y z
#    x 1.678260 0.000000 -0.060810 
#    y 0.000000 1.982370 0.000000 
#    z -0.060810 0.000000 1.696920 
# 
# From -- ./inp_files/87041.got.cif
#   From: 2010.05.17/outbox.cif.g08.bks.cpg/sg15_44_cif.got.tgz:87041.got - 2010.06.03 18:47:42.
