data_PCOD9269380
_publ_section_title
;
Structure prediction by ZEFSAII (Michael W. Deem and Ramdas Pophale) SiO2 
 PCOD9269380
Probable space group: C 2/C
;
_chemical_formula_sum "Si O2"
_cell_formula_units_Z 56
_cell_length_a 23.027434
_cell_length_b 25.550378
_cell_length_c 5.502766
_cell_angle_alpha 90.000000
_cell_angle_beta 81.678963
_cell_angle_gamma 90.000000
_cell_volume 3203.522260
_symmetry_space_group_name_H-M "C 2/C"
_symmetry_group_IT_number 15
_symmetry_cell_setting 'monoclinic'
loop_
_space_group_symop_operation_xyz
x,y,z
-x,y,1/2-z
-x,-y,-z
x,-y,1/2+z
1/2+x,1/2+y,z
1/2-x,1/2+y,1/2-z
1/2-x,1/2-y,-z
1/2+x,1/2-y,1/2+z
loop_
_atom_site_type_symbol
_atom_site_label
_atom_site_fract_x
_atom_site_fract_y
_atom_site_fract_z
Si Si1 0.344741 0.265479 0.873150
Si Si2 0.203228 0.982683 0.912096
Si Si3 0.030894 0.754654 0.485034
Si Si4 0.925503 0.974765 0.911648
Si Si5 0.754693 0.703437 0.688779
Si Si6 0.949277 0.873662 0.110936
Si Si7 0.334347 0.636064 0.018768
O O1 0.399498 0.249126 0.007632
O O2 0.319692 0.213659 0.753222
O O3 0.354214 0.315819 0.687184
O O4 0.291952 0.285966 0.071171
O O5 0.182055 0.922547 0.885338
O O6 0.233908 0.007724 0.656564
O O7 0.143803 0.015133 0.006788
O O8 0.026810 0.817672 0.480561
O O9 0.000000 0.734935 0.750000
O O10 0.000000 0.736760 0.250000
O O11 0.937342 0.913343 0.901910
O O12 0.946298 0.000236 0.150697
O O13 0.750000 0.750000 0.500000
O O14 0.726862 0.654248 0.569454
O O15 0.888496 0.868705 0.297279
O O16 0.000000 0.896613 0.250000
#
# Coordination Sequence:
#
# PCOD9269380 Si02
#       7
#     8   8   8   8   8   8   8
#     4  10  20  34  56  74 100 125 173 214 267 317
#     4  10  21  34  49  68  92 128 173 210 263 308
#     4  11  24  37  53  75  99 134 165 212 268 319
#     4  10  21  34  44  60  85 119 169 211 257 296
#     4   9  20  34  53  78  94 128 163 225 263 311
#     4  11  22  34  47  65  91 128 169 216 259 301
#     4  11  20  35  54  68 100 129 171 225 266 309
#
# _framework density 17.480758999999999
#
# number of rings (size 3 to 8) (size 9 to 14) (size 15 to 20)
#    0.000    1.714    4.286    1.714    8.000    2.857 
#    0.000    0.000    0.000    0.000    0.000    0.000 
#    0.000    0.000    0.000    0.000    0.000    4.286 
#
# Total GULP energy -155897.810036 kJ/mol
# GULP energy per Si atom -5567.778930 kJ/mol
# Density = 1.744097 g / cm^3
# Si number density = 17.480759 Si / 1000 Ang^3
#
#
#
# Elastic Constant Matrix: (Units=GPa)
#
#
# Indices 1 2 3 4 5 6 
#
# 1 70.9422 29.6107 23.9278 0.0000 25.6036 0.0000
# 2 29.6107 46.3687 13.7506 0.0000 7.0285 0.0000
# 3 23.9278 13.7506 102.4844 0.0000 10.8393 0.0000
# 4 0.0000 0.0000 0.0000 16.1037 0.0000 5.7637
# 5 25.6036 7.0285 10.8393 0.0000 29.0499 0.0000
# 6 0.0000 0.0000 0.0000 5.7637 0.0000 14.5488
#
#
#
# Elastic Compliance Matrix: (Units=1/GPa)
#
#
# Indices 1 2 3 4 5 6 
#
# 1 0.028298 -0.014205 -0.002526 0.000000 -0.020561 0.000000
# 2 -0.014205 0.030167 -0.001336 0.000000 0.005720 0.000000
# 3 -0.002526 -0.001336 0.010678 0.000000 -0.001435 0.000000
# 4 0.000000 0.000000 0.000000 0.072357 0.000000 -0.028666
# 5 -0.020561 0.005720 -0.001435 0.000000 0.051697 0.000000
# 6 0.000000 0.000000 0.000000 -0.028666 0.000000 0.080091
#
#
# Mechanical properties :
#
#
# Convention : Reuss Voigt Hill
#
# Bulk Modulus (GPa) = 30.29527 39.37485 34.83506
# Shear Modulus (GPa) = 15.60425 22.10755 18.85590
#
# Velocity S-wave (km/s) = 2.99097 3.56009 3.28787
# Velocity P-wave (km/s) = 5.41259 6.28272 5.86382
#
# Compressibility (1/GPa) = 0.03300846
#
# Stress axis : x y z
#
# Youngs Moduli (GPa) = 35.33836 33.14911 93.64703
#
# Poissons Ratio (x) = 0.47088 0.23658
# Poissons Ratio (y) = 0.50198 0.12511
# Poissons Ratio (z) = 0.08928 0.04429
#
# Static dielectric constant tensor:
#      x y z
#    x 1.678730 0.000000 0.111310 
#    y 0.000000 1.588260 0.000000 
#    z 0.111310 0.000000 1.709810 
# 
# From -- ./inp_files/14122.got.cif
#   From: 2010.05.17/outbox.cif.g08.bks.cpg/sg15_8_cif.got.tgz:14122.got - 2010.06.03 18:47:42.
