data_PCOD9269949
_publ_section_title
;
Structure prediction by ZEFSAII (Michael W. Deem and Ramdas Pophale) SiO2 
 PCOD9269949
Probable space group: C 2/C
;
_chemical_formula_sum "Si O2"
_cell_formula_units_Z 64
_cell_length_a 20.131191
_cell_length_b 20.181597
_cell_length_c 16.317892
_cell_angle_alpha 90.000000
_cell_angle_beta 150.991507
_cell_angle_gamma 90.000000
_cell_volume 3214.966110
_symmetry_space_group_name_H-M "C 2/C"
_symmetry_group_IT_number 15
_symmetry_cell_setting 'monoclinic'
loop_
_space_group_symop_operation_xyz
x,y,z
-x,y,1/2-z
-x,-y,-z
x,-y,1/2+z
1/2+x,1/2+y,z
1/2-x,1/2+y,1/2-z
1/2-x,1/2-y,-z
1/2+x,1/2-y,1/2+z
loop_
_atom_site_type_symbol
_atom_site_label
_atom_site_fract_x
_atom_site_fract_y
_atom_site_fract_z
Si Si1 0.537774 0.247823 0.060929
Si Si2 0.272235 0.835449 0.249325
Si Si3 0.336127 0.950476 0.886185
Si Si4 0.857892 0.541836 0.747004
Si Si5 0.237930 0.073856 0.021526
Si Si6 0.126609 0.293344 0.832849
Si Si7 0.616440 0.620204 0.061372
Si Si8 0.838389 0.067465 0.739179
O O1 0.650227 0.281000 0.121537
O O2 0.611808 0.217179 0.219837
O O3 0.422315 0.197218 0.904746
O O4 0.448210 0.308147 0.000573
O O5 0.269765 0.894005 0.178779
O O6 0.251693 0.875190 0.313491
O O7 0.244004 0.888539 0.760045
O O8 0.355558 0.990760 0.821635
O O9 0.241479 0.999468 0.835707
O O10 0.481957 0.938872 0.085539
O O11 0.797821 0.498470 0.608120
O O12 0.148415 0.077059 0.843330
O O13 0.354210 0.128580 0.132097
O O14 0.162250 0.101038 0.020105
O O15 0.000000 0.269997 0.750000
O O16 0.250000 0.250000 0.000000
O O17 0.487526 0.571927 0.941354
#
# Coordination Sequence:
#
# PCOD9269949 Si02
#       8
#     8   8   8   8   8   8   8   8
#     4  11  22  35  56  78 109 154 193 234 279 343
#     4  10  22  37  56  82 115 146 199 237 283 342
#     4   9  19  34  54  75 108 147 189 235 289 328
#     4   9  21  35  53  78 111 147 193 244 287 328
#     4  11  22  34  57  80 118 157 188 234 284 338
#     4  12  24  36  52  82 120 160 189 223 274 344
#     4  10  20  35  51  79 111 153 187 233 282 337
#     4  10  20  35  54  83 113 149 186 230 278 353
#
# _framework density 19.906897000000001
#
# number of rings (size 3 to 8) (size 9 to 14) (size 15 to 20)
#    0.000    1.750    0.000    5.250   10.500    1.000 
#    0.000    0.000    0.000    0.000    0.000    0.875 
#    0.000    0.000    0.000    0.000    0.000    0.000 
#
# Total GULP energy -178538.246071 kJ/mol
# GULP energy per Si atom -5579.320190 kJ/mol
# Density = 1.986159 g / cm^3
# Si number density = 19.906897 Si / 1000 Ang^3
#
#
#
# Elastic Constant Matrix: (Units=GPa)
#
#
# Indices 1 2 3 4 5 6 
#
# 1 31.6368 26.8326 20.3010 0.0000 16.3113 0.0000
# 2 26.8326 71.9575 39.4206 0.0000 -3.4129 0.0000
# 3 20.3010 39.4206 81.6493 0.0000 19.0663 0.0000
# 4 0.0000 0.0000 0.0000 25.6805 0.0000 4.3207
# 5 16.3113 -3.4129 19.0663 0.0000 23.4809 0.0000
# 6 0.0000 0.0000 0.0000 4.3207 0.0000 26.9087
#
#
#
# Elastic Compliance Matrix: (Units=1/GPa)
#
#
# Indices 1 2 3 4 5 6 
#
# 1 0.170738 -0.094661 0.042153 0.000000 -0.166592 0.000000
# 2 -0.094661 0.074925 -0.037681 0.000000 0.107245 0.000000
# 3 0.042153 -0.037681 0.034645 0.000000 -0.062891 0.000000
# 4 0.000000 0.000000 0.000000 0.040021 0.000000 -0.006426
# 5 -0.166592 0.107245 -0.062891 0.000000 0.224968 0.000000
# 6 0.000000 0.000000 0.000000 -0.006426 0.000000 0.038194
#
#
# Mechanical properties :
#
#
# Convention : Reuss Voigt Hill
#
# Bulk Modulus (GPa) = 10.00710 39.81690 24.91200
# Shear Modulus (GPa) = 6.27211 21.79331 14.03271
#
# Velocity S-wave (km/s) = 1.77695 3.31231 2.65791
# Velocity P-wave (km/s) = 3.04104 5.88842 4.68623
#
# Compressibility (1/GPa) = 0.09992906
#
# Stress axis : x y z
#
# Youngs Moduli (GPa) = 5.85694 13.34665 28.86393
#
# Poissons Ratio (x) = 1.26341 -1.21670
# Poissons Ratio (y) = 0.55442 1.08763
# Poissons Ratio (z) = -0.24689 0.50292
#
# Static dielectric constant tensor:
#      x y z
#    x 1.722360 0.000000 0.025220 
#    y 0.000000 1.756490 0.000000 
#    z 0.025220 0.000000 1.791800 
# 
# From -- ./inp_files/216509.got.cif
#   From: 2010.05.17/outbox.cif.g08.bks.cpg/sg15_109_cif.got.tgz:216509.got - 2010.06.03 18:47:42.
