data_PCOD9269681
_publ_section_title
;
Structure prediction by ZEFSAII (Michael W. Deem and Ramdas Pophale) SiO2 
 PCOD9269681
Probable space group: C 2/C
;
_chemical_formula_sum "Si O2"
_cell_formula_units_Z 52
_cell_length_a 28.704551
_cell_length_b 4.826569
_cell_length_c 16.323796
_cell_angle_alpha 90.000000
_cell_angle_beta 95.086245
_cell_angle_gamma 90.000000
_cell_volume 2252.666873
_symmetry_space_group_name_H-M "C 2/C"
_symmetry_group_IT_number 15
_symmetry_cell_setting 'monoclinic'
loop_
_space_group_symop_operation_xyz
x,y,z
-x,y,1/2-z
-x,-y,-z
x,-y,1/2+z
1/2+x,1/2+y,z
1/2-x,1/2+y,1/2-z
1/2-x,1/2-y,-z
1/2+x,1/2-y,1/2+z
loop_
_atom_site_type_symbol
_atom_site_label
_atom_site_fract_x
_atom_site_fract_y
_atom_site_fract_z
Si Si1 0.758284 0.068693 0.305192
Si Si2 0.086459 0.547919 0.968847
Si Si3 0.000000 0.249233 0.250000
Si Si4 0.161388 0.445541 0.344436
Si Si5 0.531535 0.454530 0.406249
Si Si6 0.356287 0.440865 0.273251
Si Si7 0.437552 0.248418 0.875167
O O1 0.756738 0.386940 0.277205
O O2 0.716690 0.007510 0.361489
O O3 0.811344 0.976039 0.326139
O O4 0.132321 0.501451 0.921848
O O5 0.071718 0.864001 0.955182
O O6 0.044651 0.362411 0.922047
O O7 0.086166 0.447509 0.062062
O O8 0.968270 0.050007 0.188537
O O9 0.965243 0.406599 0.305605
O O10 0.153694 0.140703 0.306464
O O11 0.142648 0.641000 0.267622
O O12 0.480092 0.570501 0.420956
O O13 0.400772 0.547075 0.328603
#
# Coordination Sequence:
#
# PCOD9269681 Si02
#       7
#     8   8   4   8   8   8   8
#     4   8  16  32  55  79 106 136 175 219 266 316
#     4  12  22  38  56  78 115 142 180 220 274 317
#     4   8  20  38  54  76 102 134 190 208 264 298
#     4  10  20  34  59  83 106 142 179 221 272 318
#     4  10  24  39  54  79 107 150 178 224 263 321
#     4  10  20  38  56  82 109 140 182 224 261 320
#     4  10  22  38  55  82 107 149 179 225 265 319
#
# _framework density 23.083748
#
# number of rings (size 3 to 8) (size 9 to 14) (size 15 to 20)
#    0.923    1.231    0.000    3.692    0.000    3.077 
#    0.000    0.769    0.000    0.000    0.000   15.077 
#    0.000    0.000    0.000    0.000    0.000    0.000 
#
# Total GULP energy -145212.781474 kJ/mol
# GULP energy per Si atom -5585.106980 kJ/mol
# Density = 2.303121 g / cm^3
# Si number density = 23.083748 Si / 1000 Ang^3
#
#
#
# Elastic Constant Matrix: (Units=GPa)
#
#
# Indices 1 2 3 4 5 6 
#
# 1 147.8987 4.0236 45.1258 0.0000 -43.8189 0.0000
# 2 4.0236 65.2071 2.8237 0.0000 -6.0688 0.0000
# 3 45.1258 2.8237 86.7539 0.0000 -37.8817 0.0000
# 4 0.0000 0.0000 0.0000 13.4597 0.0000 -7.2654
# 5 -43.8189 -6.0688 -37.8817 0.0000 32.2173 0.0000
# 6 0.0000 0.0000 0.0000 -7.2654 0.0000 25.5529
#
#
#
# Elastic Compliance Matrix: (Units=1/GPa)
#
#
# Indices 1 2 3 4 5 6 
#
# 1 0.011500 0.000883 0.001833 0.000000 0.017963 0.000000
# 2 0.000883 0.015785 0.001746 0.000000 0.006228 0.000000
# 3 0.001833 0.001746 0.024146 0.000000 0.031214 0.000000
# 4 0.000000 0.000000 0.000000 0.087766 0.000000 0.024954
# 5 0.017963 0.006228 0.031214 0.000000 0.093346 0.000000
# 6 0.000000 0.000000 0.000000 0.024954 0.000000 0.046230
#
#
# Mechanical properties :
#
#
# Convention : Reuss Voigt Hill
#
# Bulk Modulus (GPa) = 16.56836 44.86733 30.71785
# Shear Modulus (GPa) = 17.24335 30.77174 24.00754
#
# Velocity S-wave (km/s) = 2.73608 3.65505 3.22843
# Velocity P-wave (km/s) = 4.14422 6.10668 5.21853
#
# Compressibility (1/GPa) = 0.06035599
#
# Stress axis : x y z
#
# Youngs Moduli (GPa) = 86.95579 63.35023 41.41432
#
# Poissons Ratio (x) = -0.05593 -0.07592
# Poissons Ratio (y) = -0.07677 -0.07232
# Poissons Ratio (z) = -0.15940 -0.11063
#
# Static dielectric constant tensor:
#      x y z
#    x 1.906130 0.000000 -0.044030 
#    y 0.000000 1.824730 0.000000 
#    z -0.044030 0.000000 1.924320 
# 
# From -- ./inp_files/223432.got.cif
#   From: 2010.05.17/outbox.cif.g08.bks.cpg/sg15_112_cif.got.tgz:223432.got - 2010.06.03 18:47:42.
