data_PCOD9269154
_publ_section_title
;
Structure prediction by ZEFSAII (Michael W. Deem and Ramdas Pophale) SiO2 
 PCOD9269154
Probable space group: C 2/C
;
_chemical_formula_sum "Si O2"
_cell_formula_units_Z 64
_cell_length_a 14.738802
_cell_length_b 11.017690
_cell_length_c 20.345126
_cell_angle_alpha 90.000000
_cell_angle_beta 120.467836
_cell_angle_gamma 90.000000
_cell_volume 2847.587134
_symmetry_space_group_name_H-M "C 2/C"
_symmetry_group_IT_number 15
_symmetry_cell_setting 'monoclinic'
loop_
_space_group_symop_operation_xyz
x,y,z
-x,y,1/2-z
-x,-y,-z
x,-y,1/2+z
1/2+x,1/2+y,z
1/2-x,1/2+y,1/2-z
1/2-x,1/2-y,-z
1/2+x,1/2-y,1/2+z
loop_
_atom_site_type_symbol
_atom_site_label
_atom_site_fract_x
_atom_site_fract_y
_atom_site_fract_z
Si Si1 0.449411 1.000000 0.409073
Si Si2 0.545690 0.262885 0.090426
Si Si3 0.852512 1.000000 0.157780
Si Si4 0.170896 0.252927 0.909998
Si Si5 0.954310 0.762885 0.909574
Si Si6 0.402403 0.000000 0.661732
Si Si7 0.329104 0.247073 0.590002
Si Si8 0.587110 0.500000 0.675383
O O1 0.397703 0.132347 0.383054
O O2 0.500000 0.000000 0.500000
O O3 0.397703 0.867653 0.383054
O O4 0.542080 1.000000 0.389312
O O5 0.445236 0.255165 0.101517
O O6 0.604300 0.381463 0.137435
O O7 0.500000 0.279044 0.000000
O O8 0.806260 0.872361 0.118164
O O9 0.848241 0.000000 0.234425
O O10 0.968400 1.000000 0.164365
O O11 0.806260 0.127638 0.118164
O O12 0.166046 0.375639 0.864313
O O13 0.250000 0.250000 0.000000
O O14 0.054764 0.755165 0.898483
O O15 0.895700 0.881463 0.862565
O O16 0.500000 0.000000 0.750000
O O17 0.333954 0.124361 0.635687
O O18 0.250000 0.250000 0.500000
#
# Coordination Sequence:
#
# PCOD9269154 Si02
#       8
#     8   8   8   8   8   8   8   8
#     4   8  16  29  46  73 101 128 166 215 252 304
#     4   9  17  30  50  76  97 131 171 209 245 309
#     4   9  19  30  49  72 104 129 165 211 262 298
#     4  10  20  34  52  78 106 136 169 216 269 311
#     4   9  17  30  50  76  97 131 171 209 245 309
#     4  10  21  31  54  83 105 133 182 225 257 310
#     4  10  20  34  52  78 106 136 169 216 269 311
#     4   9  17  28  47  74  97 125 165 211 247 292
#
# _framework density 22.475168
#
# number of rings (size 3 to 8) (size 9 to 14) (size 15 to 20)
#    0.000    2.750    0.000    1.125   10.500    0.000 
#    0.000    0.000    0.000    1.500   26.000    0.000 
#    0.000    0.000    0.000    0.000    0.000    0.000 
#
# Total GULP energy -178328.596807 kJ/mol
# GULP energy per Si atom -5572.768650 kJ/mol
# Density = 2.242401 g / cm^3
# Si number density = 22.475168 Si / 1000 Ang^3
#
#
#
# Elastic Constant Matrix: (Units=GPa)
#
#
# Indices 1 2 3 4 5 6 
#
# 1 74.3189 13.6439 -10.2514 0.0000 -3.4008 0.0000
# 2 13.6439 319.9198 131.6228 0.0000 -9.6755 0.0000
# 3 -10.2514 131.6228 112.4664 0.0000 -3.9999 0.0000
# 4 0.0000 0.0000 0.0000 -56.5700 0.0000 11.3286
# 5 -3.4008 -9.6755 -3.9999 0.0000 28.5184 0.0000
# 6 0.0000 0.0000 0.0000 11.3286 0.0000 -28.8276
#
#
#
# Elastic Compliance Matrix: (Units=1/GPa)
#
#
# Indices 1 2 3 4 5 6 
#
# 1 0.014471 -0.002191 0.003938 0.000000 0.001535 0.000000
# 2 -0.002191 0.006392 -0.007651 0.000000 0.000834 0.000000
# 3 0.003938 -0.007651 0.018220 0.000000 0.000429 0.000000
# 4 0.000000 0.000000 0.000000 -0.019187 0.000000 -0.007540
# 5 0.001535 0.000834 0.000429 0.000000 0.035591 0.000000
# 6 0.000000 0.000000 0.000000 -0.007540 0.000000 -0.037652
#
#
# Mechanical properties :
#
#
# Convention : Reuss Voigt Hill
#
# Bulk Modulus (GPa) = 36.66398 86.30397 61.48398
# Shear Modulus (GPa) = 129.07959 13.40348 71.24154
#
# Velocity S-wave (km/s) = 7.58662 2.44471 5.63620
# Velocity P-wave (km/s) = 9.64836 6.81556 8.35293
#
# Compressibility (1/GPa) = 0.02727473
#
# Stress axis : x y z
#
# Youngs Moduli (GPa) = 69.10342 156.43818 54.88463
#
# Poissons Ratio (x) = 0.34271 -0.21611
# Poissons Ratio (y) = 0.15139 0.41993
# Poissons Ratio (z) = -0.27210 1.19693
#
# Static dielectric constant tensor:
#      x y z
#    x 1.842320 0.000000 0.046360 
#    y 0.000000 1.871700 0.000000 
#    z 0.046360 0.000000 1.795260 
# 
# From -- ./inp_files/248636.got.cif
#   From: 2010.05.17/outbox.cif.g08.bks.cpg/sg15_125_cif.got.tgz:248636.got - 2010.06.03 18:47:42.
