data_PCOD9269873
_publ_section_title
;
Structure prediction by ZEFSAII (Michael W. Deem and Ramdas Pophale) SiO2 
 PCOD9269873
Probable space group: C 2/C
;
_chemical_formula_sum "Si O2"
_cell_formula_units_Z 40
_cell_length_a 9.909798
_cell_length_b 21.113829
_cell_length_c 8.465063
_cell_angle_alpha 90.000000
_cell_angle_beta 94.139521
_cell_angle_gamma 90.000000
_cell_volume 1766.556537
_symmetry_space_group_name_H-M "C 2/C"
_symmetry_group_IT_number 15
_symmetry_cell_setting 'monoclinic'
loop_
_space_group_symop_operation_xyz
x,y,z
-x,y,1/2-z
-x,-y,-z
x,-y,1/2+z
1/2+x,1/2+y,z
1/2-x,1/2+y,1/2-z
1/2-x,1/2-y,-z
1/2+x,1/2-y,1/2+z
loop_
_atom_site_type_symbol
_atom_site_label
_atom_site_fract_x
_atom_site_fract_y
_atom_site_fract_z
Si Si1 0.778013 0.276745 0.177808
Si Si2 0.500000 0.116753 0.750000
Si Si3 0.000000 0.734509 0.250000
Si Si4 0.000000 0.975389 0.250000
Si Si5 0.933135 0.609420 0.085972
Si Si6 0.000000 0.177859 0.250000
Si Si7 0.120530 0.083292 0.047764
O O1 0.866795 0.339518 0.207376
O O2 0.632827 0.276235 0.247283
O O3 0.871256 0.221741 0.256632
O O4 0.750000 0.250000 0.000000
O O5 0.524564 0.083751 0.582367
O O6 0.019370 0.683632 0.395350
O O7 0.095554 0.933656 0.366245
O O8 0.091094 0.020278 0.147166
O O9 0.772073 0.606261 0.089402
O O10 0.000000 0.580035 0.250000
O O11 0.992924 0.132354 0.400442
#
# Coordination Sequence:
#
# PCOD9269873 Si02
#       7
#     8   4   4   4   8   4   8
#     4  11  21  36  56  89 127 169 216 256 292 358
#     4  11  24  37  62  91 126 172 225 245 302 369
#     4  10  20  38  57  81 123 173 199 259 306 340
#     4   9  22  41  67  94 116 154 202 274 316 409
#     4  10  21  41  61  89 126 167 202 263 309 378
#     4  10  20  34  64  84 121 169 198 258 306 360
#     4  10  20  42  65  92 122 154 209 259 333 378
#
# _framework density 22.64292
#
# number of rings (size 3 to 8) (size 9 to 14) (size 15 to 20)
#    0.600    1.200    4.000    0.000    0.000    4.000 
#    7.200    1.000    6.600    0.000    0.000    0.000 
#    0.000    0.000    0.000    0.000    0.000    0.000 
#
# Total GULP energy -111660.213785 kJ/mol
# GULP energy per Si atom -5583.010689 kJ/mol
# Density = 2.259138 g / cm^3
# Si number density = 22.642920 Si / 1000 Ang^3
#
#
#
# Elastic Constant Matrix: (Units=GPa)
#
#
# Indices 1 2 3 4 5 6 
#
# 1 146.7889 18.5507 20.7643 0.0000 -0.3491 0.0000
# 2 18.5507 31.5263 10.3803 0.0000 3.9336 0.0000
# 3 20.7643 10.3803 130.4410 0.0000 4.9113 0.0000
# 4 0.0000 0.0000 0.0000 24.0393 0.0000 -2.7752
# 5 -0.3491 3.9336 4.9113 0.0000 31.3456 0.0000
# 6 0.0000 0.0000 0.0000 -2.7752 0.0000 6.5489
#
#
#
# Elastic Compliance Matrix: (Units=1/GPa)
#
#
# Indices 1 2 3 4 5 6 
#
# 1 0.007470 -0.004198 -0.000883 0.000000 0.000748 0.000000
# 2 -0.004198 0.035365 -0.001989 0.000000 -0.004173 0.000000
# 3 -0.000883 -0.001989 0.008003 0.000000 -0.001014 0.000000
# 4 0.000000 0.000000 0.000000 0.043738 0.000000 0.018535
# 5 0.000748 -0.004173 -0.001014 0.000000 0.032593 0.000000
# 6 0.000000 0.000000 0.000000 0.018535 0.000000 0.160553
#
#
# Mechanical properties :
#
#
# Convention : Reuss Voigt Hill
#
# Bulk Modulus (GPa) = 27.24926 45.34965 36.29945
# Shear Modulus (GPa) = 15.91871 29.65749 22.78810
#
# Velocity S-wave (km/s) = 2.65435 3.62303 3.17584
# Velocity P-wave (km/s) = 4.63191 6.12972 5.43268
#
# Compressibility (1/GPa) = 0.03669825
#
# Stress axis : x y z
#
# Youngs Moduli (GPa) = 133.87356 28.27635 124.94758
#
# Poissons Ratio (x) = 0.11870 0.11035
# Poissons Ratio (y) = 0.56199 0.24851
# Poissons Ratio (z) = 0.11824 0.05624
#
# Static dielectric constant tensor:
#      x y z
#    x 1.788040 0.000000 -0.045750 
#    y 0.000000 1.828800 0.000000 
#    z -0.045750 0.000000 1.881040 
# 
# From -- ./inp_files/23716.got.cif
#   From: 2010.05.17/outbox.cif.g08.bks.cpg/sg15_12_cif.got.tgz:23716.got - 2010.06.03 18:47:42.
