data_PCOD9269440
_publ_section_title
;
Structure prediction by ZEFSAII (Michael W. Deem and Ramdas Pophale) SiO2 
 PCOD9269440
Probable space group: C 2/C
;
_chemical_formula_sum "Si O2"
_cell_formula_units_Z 64
_cell_length_a 14.378738
_cell_length_b 19.492337
_cell_length_c 14.577289
_cell_angle_alpha 90.000000
_cell_angle_beta 119.167395
_cell_angle_gamma 90.000000
_cell_volume 3567.590128
_symmetry_space_group_name_H-M "C 2/C"
_symmetry_group_IT_number 15
_symmetry_cell_setting 'monoclinic'
loop_
_space_group_symop_operation_xyz
x,y,z
-x,y,1/2-z
-x,-y,-z
x,-y,1/2+z
1/2+x,1/2+y,z
1/2-x,1/2+y,1/2-z
1/2-x,1/2-y,-z
1/2+x,1/2-y,1/2+z
loop_
_atom_site_type_symbol
_atom_site_label
_atom_site_fract_x
_atom_site_fract_y
_atom_site_fract_z
Si Si1 0.508660 0.801169 0.101392
Si Si2 0.413227 0.054162 0.926681
Si Si3 0.382267 0.783547 0.689554
Si Si4 0.604051 0.722417 0.606862
Si Si5 0.873571 0.525323 0.710365
Si Si6 0.833108 0.314210 0.165999
Si Si7 0.053708 0.863854 0.366083
Si Si8 0.774281 0.591518 0.037839
O O1 0.523615 0.880111 0.081128
O O2 0.408663 0.790286 0.120328
O O3 0.613037 0.786999 0.213261
O O4 0.483099 0.760845 0.996838
O O5 0.354588 0.021545 0.810542
O O6 0.337965 0.079051 0.973090
O O7 0.500000 0.000000 0.000000
O O8 0.500000 0.816896 0.750000
O O9 0.360941 0.764593 0.785215
O O10 0.397494 0.710501 0.644352
O O11 0.307029 0.836209 0.601032
O O12 0.711225 0.706974 0.603768
O O13 0.543266 0.655170 0.613823
O O14 0.843229 0.603215 0.670385
O O15 0.809488 0.469211 0.622558
O O16 0.000000 0.516211 0.750000
O O17 0.149448 0.905574 0.455485
O O18 0.000000 0.895704 0.250000
#
# Coordination Sequence:
#
# PCOD9269440 Si02
#       8
#     8   8   8   8   8   8   8   8
#     4  10  20  34  56  85 110 153 196 234 295 353
#     4  11  21  34  59  83 118 152 176 237 304 344
#     4   9  20  35  53  90 119 142 186 241 292 356
#     4  10  21  35  59  82 117 153 195 242 290 345
#     4  11  21  38  55  88 114 144 197 232 293 360
#     4  10  20  38  57  80 118 152 194 241 290 355
#     4   9  22  38  52  85 114 152 194 228 289 356
#     4  12  22  36  62  84 121 153 189 249 287 350
#
# _framework density 17.93928
#
# number of rings (size 3 to 8) (size 9 to 14) (size 15 to 20)
#    0.000    2.000    3.750    2.625   10.500    0.000 
#    0.000    0.625    0.000    0.000    0.000    0.000 
#    0.000    0.000    0.000    0.000    0.000    0.000 
#
# Total GULP energy -178402.635492 kJ/mol
# GULP energy per Si atom -5575.082359 kJ/mol
# Density = 1.789845 g / cm^3
# Si number density = 17.939280 Si / 1000 Ang^3
#
#
#
# Elastic Constant Matrix: (Units=GPa)
#
#
# Indices 1 2 3 4 5 6 
#
# 1 64.7094 11.9813 33.4161 0.0000 7.9196 0.0000
# 2 11.9813 26.8667 31.5698 0.0000 7.9281 0.0000
# 3 33.4161 31.5698 102.6432 0.0000 4.7634 0.0000
# 4 0.0000 0.0000 0.0000 26.7017 0.0000 7.3475
# 5 7.9196 7.9281 4.7634 0.0000 33.7533 0.0000
# 6 0.0000 0.0000 0.0000 7.3475 0.0000 14.0201
#
#
#
# Elastic Compliance Matrix: (Units=1/GPa)
#
#
# Indices 1 2 3 4 5 6 
#
# 1 0.019009 -0.000569 -0.005851 0.000000 -0.003501 0.000000
# 2 -0.000569 0.062866 -0.018593 0.000000 -0.012009 0.000000
# 3 -0.005851 -0.018593 0.017212 0.000000 0.003311 0.000000
# 4 0.000000 0.000000 0.000000 0.043762 0.000000 -0.022934
# 5 -0.003501 -0.012009 0.003311 0.000000 0.032802 0.000000
# 6 0.000000 0.000000 0.000000 -0.022934 0.000000 0.083345
#
#
# Mechanical properties :
#
#
# Convention : Reuss Voigt Hill
#
# Bulk Modulus (GPa) = 20.38261 38.68374 29.53317
# Shear Modulus (GPa) = 15.36685 22.71181 19.03933
#
# Velocity S-wave (km/s) = 2.92995 3.56200 3.26133
# Velocity P-wave (km/s) = 4.77837 6.20707 5.53898
#
# Compressibility (1/GPa) = 0.04906143
#
# Stress axis : x y z
#
# Youngs Moduli (GPa) = 52.60671 15.90683 58.09783
#
# Poissons Ratio (x) = 0.00905 0.33994
# Poissons Ratio (y) = 0.02992 1.08022
# Poissons Ratio (z) = 0.30781 0.29576
#
# Static dielectric constant tensor:
#      x y z
#    x 1.624330 0.000000 -0.019770 
#    y 0.000000 1.598010 0.000000 
#    z -0.019770 0.000000 1.656080 
# 
# From -- ./inp_files/155216.got.cif
#   From: 2010.05.17/outbox.cif.g08.bks.cpg/sg15_78_cif.got.tgz:155216.got - 2010.06.03 18:47:42.
