data_PCOD9269010
_publ_section_title
;
Structure prediction by ZEFSAII (Michael W. Deem and Ramdas Pophale) SiO2 
 PCOD9269010
Probable space group: C 2/C
;
_chemical_formula_sum "Si O2"
_cell_formula_units_Z 48
_cell_length_a 17.379039
_cell_length_b 18.737362
_cell_length_c 10.133435
_cell_angle_alpha 90.000000
_cell_angle_beta 48.543356
_cell_angle_gamma 90.000000
_cell_volume 2473.076563
_symmetry_space_group_name_H-M "C 2/C"
_symmetry_group_IT_number 15
_symmetry_cell_setting 'monoclinic'
loop_
_space_group_symop_operation_xyz
x,y,z
-x,y,1/2-z
-x,-y,-z
x,-y,1/2+z
1/2+x,1/2+y,z
1/2-x,1/2+y,1/2-z
1/2-x,1/2-y,-z
1/2+x,1/2-y,1/2+z
loop_
_atom_site_type_symbol
_atom_site_label
_atom_site_fract_x
_atom_site_fract_y
_atom_site_fract_z
Si Si1 0.146427 0.634719 0.260751
Si Si2 0.127092 0.163278 0.456108
Si Si3 0.265141 0.022395 0.853645
Si Si4 0.500000 0.556900 0.750000
Si Si5 0.500000 0.776859 0.750000
Si Si6 0.868618 0.036900 0.234876
Si Si7 0.979961 0.432643 0.118211
O O1 0.251251 0.675809 0.178188
O O2 0.182185 0.555024 0.179402
O O3 0.087956 0.674714 0.211883
O O4 0.063498 0.624487 0.472529
O O5 0.053588 0.228713 0.575241
O O6 0.106841 0.115173 0.350217
O O7 0.095416 0.107189 0.607588
O O8 0.358291 0.078819 0.734695
O O9 0.198833 0.006176 0.797441
O O10 0.197127 0.042938 0.056153
O O11 0.532640 0.507344 0.832386
O O12 0.000000 0.447364 0.250000
O O13 0.000000 0.500000 0.000000
#
# Coordination Sequence:
#
# PCOD9269010 Si02
#       7
#     8   8   8   4   4   8   8
#     4  10  21  37  60  85 120 158 201 250 292 354
#     4  10  22  39  57  87 122 152 208 252 289 364
#     4  10  21  33  59  96 126 146 194 249 312 363
#     4  11  20  36  62  90 122 155 196 252 326 359
#     4  11  24  38  64  82 116 175 214 240 290 363
#     4  11  20  37  60  92 127 154 188 258 312 367
#     4  10  20  33  59  92 126 155 189 247 317 363
#
# _framework density 19.409023000000001
#
# number of rings (size 3 to 8) (size 9 to 14) (size 15 to 20)
#    0.000    1.667    3.333    4.000    7.000    0.000 
#    0.000    0.000    1.833    2.000    0.000    0.000 
#    0.000    0.000    0.000    0.000    0.000    0.000 
#
# Total GULP energy -133714.213817 kJ/mol
# GULP energy per Si atom -5571.425576 kJ/mol
# Density = 1.936485 g / cm^3
# Si number density = 19.409023 Si / 1000 Ang^3
#
#
#
# Elastic Constant Matrix: (Units=GPa)
#
#
# Indices 1 2 3 4 5 6 
#
# 1 114.3986 34.5452 24.0105 0.0000 -0.3738 0.0000
# 2 34.5452 39.2089 9.1150 0.0000 3.2115 0.0000
# 3 24.0105 9.1150 106.1525 0.0000 3.0246 0.0000
# 4 0.0000 0.0000 0.0000 20.3028 0.0000 -2.3086
# 5 -0.3738 3.2115 3.0246 0.0000 38.0845 0.0000
# 6 0.0000 0.0000 0.0000 -2.3086 0.0000 3.0367
#
#
#
# Elastic Compliance Matrix: (Units=1/GPa)
#
#
# Indices 1 2 3 4 5 6 
#
# 1 0.012319 -0.010503 -0.001918 0.000000 0.001159 0.000000
# 2 -0.010503 0.035135 -0.000555 0.000000 -0.003022 0.000000
# 3 -0.001918 -0.000555 0.009923 0.000000 -0.000760 0.000000
# 4 0.000000 0.000000 0.000000 0.053915 0.000000 0.040987
# 5 0.001159 -0.003022 -0.000760 0.000000 0.026584 0.000000
# 6 0.000000 0.000000 0.000000 0.040987 0.000000 0.360464
#
#
# Mechanical properties :
#
#
# Convention : Reuss Voigt Hill
#
# Bulk Modulus (GPa) = 31.82095 43.90014 37.86054
# Shear Modulus (GPa) = 9.34985 25.09076 17.22031
#
# Velocity S-wave (km/s) = 2.19721 3.59937 2.98188
# Velocity P-wave (km/s) = 4.78200 6.31992 5.60397
#
# Compressibility (1/GPa) = 0.03142584
#
# Stress axis : x y z
#
# Youngs Moduli (GPa) = 81.17371 28.46182 100.77106
#
# Poissons Ratio (x) = 0.29894 0.19324
# Poissons Ratio (y) = 0.85257 0.05594
# Poissons Ratio (z) = 0.15566 0.01580
#
# Static dielectric constant tensor:
#      x y z
#    x 1.710450 0.000000 -0.068220 
#    y 0.000000 1.686960 0.000000 
#    z -0.068220 0.000000 1.774260 
# 
# From -- ./inp_files/49630.got.cif
#   From: 2010.05.17/outbox.cif.g08.bks.cpg/sg15_25_cif.got.tgz:49630.got - 2010.06.03 18:47:42.
