data_PCOD9269353
_publ_section_title
;
Structure prediction by ZEFSAII (Michael W. Deem and Ramdas Pophale) SiO2 
 PCOD9269353
Probable space group: C 2/C
;
_chemical_formula_sum "Si O2"
_cell_formula_units_Z 48
_cell_length_a 5.275405
_cell_length_b 29.524661
_cell_length_c 15.463181
_cell_angle_alpha 90.000000
_cell_angle_beta 126.821755
_cell_angle_gamma 90.000000
_cell_volume 1927.982109
_symmetry_space_group_name_H-M "C 2/C"
_symmetry_group_IT_number 15
_symmetry_cell_setting 'monoclinic'
loop_
_space_group_symop_operation_xyz
x,y,z
-x,y,1/2-z
-x,-y,-z
x,-y,1/2+z
1/2+x,1/2+y,z
1/2-x,1/2+y,1/2-z
1/2-x,1/2-y,-z
1/2+x,1/2-y,1/2+z
loop_
_atom_site_type_symbol
_atom_site_label
_atom_site_fract_x
_atom_site_fract_y
_atom_site_fract_z
Si Si1 0.471549 0.213225 0.346838
Si Si2 0.867829 0.054947 0.037713
Si Si3 0.642197 0.851663 0.544040
Si Si4 0.825296 0.796141 0.430371
Si Si5 0.125170 0.963249 0.401771
Si Si6 0.459606 0.627850 0.837078
O O1 0.500000 0.217749 0.250000
O O2 0.319278 0.167305 0.352445
O O3 0.297351 0.255143 0.357876
O O4 0.822756 0.209311 0.458895
O O5 0.877420 0.107617 0.067436
O O6 0.490625 0.043456 0.946294
O O7 0.074437 0.046806 0.994199
O O8 0.963955 0.016003 0.125782
O O9 0.641290 0.807230 0.480693
O O10 0.297912 0.871265 0.453859
O O11 0.762377 0.841485 0.361478
O O12 0.890948 0.925285 0.314502
O O13 0.500000 0.647999 0.750000
#
# Coordination Sequence:
#
# PCOD9269353 Si02
#       6
#     8   8   8   8   8   8
#     4  10  22  38  59  84 119 152 198 254 303 366
#     4   9  17  32  58  82 112 156 202 247 297 365
#     4  10  20  36  58  85 115 161 203 248 307 366
#     4  10  20  38  58  85 114 156 199 244 308 367
#     4   9  17  32  54  84 115 156 201 243 305 357
#     4  10  20  34  55  85 124 156 199 253 303 362
#
# _framework density 24.896498000000001
#
# number of rings (size 3 to 8) (size 9 to 14) (size 15 to 20)
#    0.000    2.333    1.667    1.000    0.000    1.333 
#    0.000    1.667    3.667    0.000    0.000    0.000 
#    0.000    0.000    0.000    0.000    0.000    0.000 
#
# Total GULP energy -133833.765200 kJ/mol
# GULP energy per Si atom -5576.406883 kJ/mol
# Density = 2.483983 g / cm^3
# Si number density = 24.896498 Si / 1000 Ang^3
#
#
#
# Elastic Constant Matrix: (Units=GPa)
#
#
# Indices 1 2 3 4 5 6 
#
# 1 94.4466 24.3843 28.1726 0.0000 -14.3411 0.0000
# 2 24.3843 131.0950 45.0118 0.0000 -29.4511 0.0000
# 3 28.1726 45.0118 100.5663 0.0000 -15.8336 0.0000
# 4 0.0000 0.0000 0.0000 -5.1163 0.0000 -16.4736
# 5 -14.3411 -29.4511 -15.8336 0.0000 49.0364 0.0000
# 6 0.0000 0.0000 0.0000 -16.4736 0.0000 39.9196
#
#
#
# Elastic Compliance Matrix: (Units=1/GPa)
#
#
# Indices 1 2 3 4 5 6 
#
# 1 0.011911 -0.000834 -0.002628 0.000000 0.002134 0.000000
# 2 -0.000834 0.010038 -0.003528 0.000000 0.004646 0.000000
# 3 -0.002628 -0.003528 0.012436 0.000000 0.001128 0.000000
# 4 0.000000 0.000000 0.000000 -0.083932 0.000000 -0.034636
# 5 0.002134 0.004646 0.001128 0.000000 0.024172 0.000000
# 6 0.000000 0.000000 0.000000 -0.034636 0.000000 0.010757
#
#
# Mechanical properties :
#
#
# Convention : Reuss Voigt Hill
#
# Bulk Modulus (GPa) = 49.00220 57.91613 53.45917
# Shear Modulus (GPa) = 811.21354 32.00390 421.60872
#
# Velocity S-wave (km/s) = 18.07047 3.58925 13.02736
# Velocity P-wave (km/s) = 21.33340 6.36319 15.74173
#
# Compressibility (1/GPa) = 0.02040725
#
# Stress axis : x y z
#
# Youngs Moduli (GPa) = 83.95514 99.61967 80.40899
#
# Poissons Ratio (x) = 0.08307 0.21128
# Poissons Ratio (y) = 0.07001 0.28367
# Poissons Ratio (z) = 0.22059 0.35144
#
# Static dielectric constant tensor:
#      x y z
#    x 2.005040 0.000000 -0.021400 
#    y 0.000000 2.121780 0.000000 
#    z -0.021400 0.000000 1.951380 
# 
# From -- ./inp_files/130320.got.cif
#   From: 2010.05.17/outbox.cif.g08.bks.cpg/sg15_66_cif.got.tgz:130320.got - 2010.06.03 18:47:42.
