data_PCOD9269692
_publ_section_title
;
Structure prediction by ZEFSAII (Michael W. Deem and Ramdas Pophale) SiO2 
 PCOD9269692
Probable space group: C 2/C
;
_chemical_formula_sum "Si O2"
_cell_formula_units_Z 56
_cell_length_a 8.754404
_cell_length_b 19.183566
_cell_length_c 30.268455
_cell_angle_alpha 90.000000
_cell_angle_beta 143.108126
_cell_angle_gamma 90.000000
_cell_volume 3051.542651
_symmetry_space_group_name_H-M "C 2/C"
_symmetry_group_IT_number 15
_symmetry_cell_setting 'monoclinic'
loop_
_space_group_symop_operation_xyz
x,y,z
-x,y,1/2-z
-x,-y,-z
x,-y,1/2+z
1/2+x,1/2+y,z
1/2-x,1/2+y,1/2-z
1/2-x,1/2-y,-z
1/2+x,1/2-y,1/2+z
loop_
_atom_site_type_symbol
_atom_site_label
_atom_site_fract_x
_atom_site_fract_y
_atom_site_fract_z
Si Si1 0.709182 0.722387 0.762314
Si Si2 0.022511 0.205330 0.016300
Si Si3 0.888150 0.389814 0.176746
Si Si4 0.454491 0.074170 0.513641
Si Si5 0.708207 0.441685 0.051773
Si Si6 0.943240 0.811640 0.599762
Si Si7 0.409714 0.686952 0.605665
O O1 0.500000 0.701262 0.750000
O O2 0.557663 0.720756 0.681448
O O3 0.924173 0.664814 0.803343
O O4 0.854064 0.790608 0.815571
O O5 0.258084 0.247362 0.051205
O O6 0.063270 0.196997 0.078690
O O7 0.949455 0.130056 0.982772
O O8 0.776249 0.253082 0.951080
O O9 0.849602 0.448705 0.131211
O O10 0.625877 0.350518 0.127516
O O11 0.000000 0.412405 0.250000
O O12 0.383416 0.062063 0.548726
O O13 0.212542 0.115583 0.436100
O O14 0.695278 0.127783 0.567194
O O15 0.500000 0.000000 0.500000
O O16 0.500000 0.500000 0.000000
#
# Coordination Sequence:
#
# PCOD9269692 Si02
#       7
#     8   8   8   8   8   8   8
#     4  11  18  33  59  84 113 153 195 236 305 355
#     4   9  17  33  55  86 113 142 202 240 298 340
#     4  10  22  36  54  91 118 150 198 252 300 362
#     4  10  21  39  61  88 120 156 208 252 304 362
#     4  11  21  36  59  83 120 158 198 246 299 355
#     4   9  17  32  58  86 112 148 195 254 282 360
#     4  10  20  34  59  86 117 155 193 252 294 355
#
# _framework density 18.351375000000001
#
# number of rings (size 3 to 8) (size 9 to 14) (size 15 to 20)
#    0.000    2.000    2.857    2.571    0.000    0.571 
#    2.571    0.000   12.571    0.000    0.000    0.000 
#    0.000    0.000    0.000    0.000    0.000    0.000 
#
# Total GULP energy -155944.012583 kJ/mol
# GULP energy per Si atom -5569.429021 kJ/mol
# Density = 1.830961 g / cm^3
# Si number density = 18.351375 Si / 1000 Ang^3
#
#
#
# Elastic Constant Matrix: (Units=GPa)
#
#
# Indices 1 2 3 4 5 6 
#
# 1 110.8553 36.6526 63.9698 0.0003 0.6964 0.0003
# 2 36.6526 91.7802 41.1366 0.0003 -6.5156 0.0003
# 3 63.9698 41.1366 102.2141 0.0009 -16.6273 0.0007
# 4 0.0003 0.0003 0.0009 28.5243 0.0004 3.4203
# 5 0.6964 -6.5156 -16.6273 0.0004 37.6313 0.0005
# 6 0.0003 0.0003 0.0007 3.4203 0.0005 13.6180
#
#
#
# Elastic Compliance Matrix: (Units=1/GPa)
#
#
# Indices 1 2 3 4 5 6 
#
# 1 0.015215 -0.002195 -0.009424 0.000000 -0.004825 0.000000
# 2 -0.002195 0.013610 -0.004002 0.000000 0.000629 0.000000
# 3 -0.009424 -0.004002 0.018540 0.000000 0.007673 -0.000001
# 4 0.000000 0.000000 0.000000 0.036146 -0.000001 -0.009079
# 5 -0.004825 0.000629 0.007673 -0.000001 0.030162 -0.000001
# 6 0.000000 0.000000 -0.000001 -0.009079 -0.000001 0.075712
#
#
# Mechanical properties :
#
#
# Convention : Reuss Voigt Hill
#
# Bulk Modulus (GPa) = 62.01674 65.37418 63.69546
# Shear Modulus (GPa) = 22.12380 26.82742 24.47561
#
# Velocity S-wave (km/s) = 3.47589 3.82760 3.65598
# Velocity P-wave (km/s) = 7.06941 7.43202 7.25298
#
# Compressibility (1/GPa) = 0.01612468
#
# Stress axis : x y z
#
# Youngs Moduli (GPa) = 65.72565 73.47362 53.93809
#
# Poissons Ratio (x) = 0.16126 0.50829
# Poissons Ratio (y) = 0.14426 0.21584
# Poissons Ratio (z) = 0.61937 0.29401
#
# Static dielectric constant tensor:
#      x y z
#    x 1.663560 0.000000 -0.010770 
#    y 0.000000 1.619230 0.000000 
#    z -0.010770 0.000000 1.622600 
# 
# From -- ./inp_files/232576.got.cif
#   From: 2010.05.17/outbox.cif.g08.bks.cpg/sg15_117_cif.got.tgz:232576.got - 2010.06.03 18:47:42.
