data_PCOD9269062
_publ_section_title
;
Structure prediction by ZEFSAII (Michael W. Deem and Ramdas Pophale) SiO2 
 PCOD9269062
Probable space group: C 2/C
;
_chemical_formula_sum "Si O2"
_cell_formula_units_Z 56
_cell_length_a 30.464586
_cell_length_b 18.260215
_cell_length_c 5.203440
_cell_angle_alpha 90.000000
_cell_angle_beta 77.632112
_cell_angle_gamma 90.000000
_cell_volume 2827.444077
_symmetry_space_group_name_H-M "C 2/C"
_symmetry_group_IT_number 15
_symmetry_cell_setting 'monoclinic'
loop_
_space_group_symop_operation_xyz
x,y,z
-x,y,1/2-z
-x,-y,-z
x,-y,1/2+z
1/2+x,1/2+y,z
1/2-x,1/2+y,1/2-z
1/2-x,1/2-y,-z
1/2+x,1/2-y,1/2+z
loop_
_atom_site_type_symbol
_atom_site_label
_atom_site_fract_x
_atom_site_fract_y
_atom_site_fract_z
Si Si1 0.105464 0.685929 0.188834
Si Si2 0.652741 0.655501 0.614870
Si Si3 0.227819 0.951253 0.140499
Si Si4 0.520181 0.419425 0.974328
Si Si5 0.894145 0.873365 0.828394
Si Si6 0.334705 0.046611 0.518529
Si Si7 0.553025 0.219158 0.747827
O O1 0.136455 0.760087 0.162688
O O2 0.137081 0.618618 0.077017
O O3 0.080350 0.676513 0.491520
O O4 0.067580 0.694008 0.014550
O O5 0.700982 0.624641 0.638110
O O6 0.645803 0.637570 0.323650
O O7 0.620497 0.613259 0.861992
O O8 0.216515 0.994423 0.417170
O O9 0.281256 0.937876 0.070924
O O10 0.500000 0.382433 0.750000
O O11 0.572552 0.428100 0.859500
O O12 0.500000 0.380906 0.250000
O O13 0.500000 0.500000 0.000000
O O14 0.923898 0.799466 0.791743
O O15 0.344407 0.013417 0.786156
O O16 0.500000 0.216913 0.750000
#
# Coordination Sequence:
#
# PCOD9269062 Si02
#       7
#     8   8   8   8   8   8   8
#     4  10  21  37  61  91 113 149 199 234 283 341
#     4  10  21  37  55  83 115 146 197 242 279 341
#     4  10  21  39  57  84 117 157 193 230 294 351
#     4  10  20  34  45  64  96 133 189 243 274 326
#     4  10  20  35  53  75 107 149 193 243 291 320
#     4  10  21  39  65  88 118 151 183 231 289 359
#     4  10  20  35  59  83 115 151 189 236 284 343
#
# _framework density 19.805872999999998
#
# number of rings (size 3 to 8) (size 9 to 14) (size 15 to 20)
#    0.000    2.000    0.000    3.429    0.000    2.857 
#   15.429    0.000    0.000   18.857    0.000    0.000 
#    0.000    0.000    0.000    0.000    0.000    0.000 
#
# Total GULP energy -156037.438411 kJ/mol
# GULP energy per Si atom -5572.765658 kJ/mol
# Density = 1.976079 g / cm^3
# Si number density = 19.805873 Si / 1000 Ang^3
#
#
#
# Elastic Constant Matrix: (Units=GPa)
#
#
# Indices 1 2 3 4 5 6 
#
# 1 51.2740 23.4499 5.9960 0.0000 0.6724 0.0000
# 2 23.4499 41.7633 6.1709 0.0000 -13.1812 0.0000
# 3 5.9960 6.1709 111.9777 0.0000 10.0875 0.0000
# 4 0.0000 0.0000 0.0000 15.7370 0.0000 -9.9138
# 5 0.6724 -13.1812 10.0875 0.0000 28.6642 0.0000
# 6 0.0000 0.0000 0.0000 -9.9138 0.0000 23.0870
#
#
#
# Elastic Compliance Matrix: (Units=1/GPa)
#
#
# Indices 1 2 3 4 5 6 
#
# 1 0.028227 -0.018901 0.000385 0.000000 -0.009489 0.000000
# 2 -0.018901 0.041538 -0.003137 0.000000 0.020649 0.000000
# 3 0.000385 -0.003137 0.009515 0.000000 -0.004800 0.000000
# 4 0.000000 0.000000 0.000000 0.087109 0.000000 0.037406
# 5 -0.009489 0.020649 -0.004800 0.000000 0.046294 0.000000
# 6 0.000000 0.000000 0.000000 0.037406 0.000000 0.059377
#
#
# Mechanical properties :
#
#
# Convention : Reuss Voigt Hill
#
# Bulk Modulus (GPa) = 27.79837 30.69431 29.24634
# Shear Modulus (GPa) = 15.27383 24.79084 20.03234
#
# Velocity S-wave (km/s) = 2.78002 3.54176 3.18376
# Velocity P-wave (km/s) = 4.93666 5.67950 5.32105
#
# Compressibility (1/GPa) = 0.03597334
#
# Stress axis : x y z
#
# Youngs Moduli (GPa) = 35.42729 24.07434 105.09683
#
# Poissons Ratio (x) = 0.45503 -0.04046
# Poissons Ratio (y) = 0.66962 0.32970
# Poissons Ratio (z) = -0.01364 0.07552
#
# Static dielectric constant tensor:
#      x y z
#    x 1.743820 0.000000 -0.011290 
#    y 0.000000 1.683480 0.000000 
#    z -0.011290 0.000000 1.805290 
# 
# From -- ./inp_files/17165.got.cif
#   From: 2010.05.17/outbox.cif.g08.bks.cpg/sg15_9_cif.got.tgz:17165.got - 2010.06.03 18:47:42.
