data_PCOD9269196
_publ_section_title
;
Structure prediction by ZEFSAII (Michael W. Deem and Ramdas Pophale) SiO2 
 PCOD9269196
Probable space group: C 2/C
;
_chemical_formula_sum "Si O2"
_cell_formula_units_Z 48
_cell_length_a 28.543761
_cell_length_b 9.848720
_cell_length_c 13.949929
_cell_angle_alpha 90.000000
_cell_angle_beta 26.269969
_cell_angle_gamma 90.000000
_cell_volume 1735.703807
_symmetry_space_group_name_H-M "C 2/C"
_symmetry_group_IT_number 15
_symmetry_cell_setting 'monoclinic'
loop_
_space_group_symop_operation_xyz
x,y,z
-x,y,1/2-z
-x,-y,-z
x,-y,1/2+z
1/2+x,1/2+y,z
1/2-x,1/2+y,1/2-z
1/2-x,1/2-y,-z
1/2+x,1/2-y,1/2+z
loop_
_atom_site_type_symbol
_atom_site_label
_atom_site_fract_x
_atom_site_fract_y
_atom_site_fract_z
Si Si1 0.346694 0.496891 0.709146
Si Si2 0.896766 0.214561 0.880884
Si Si3 0.497294 0.733234 0.998852
Si Si4 0.793519 0.820223 0.146234
Si Si5 0.550924 0.086011 0.562890
Si Si6 0.238825 0.514427 0.588800
O O1 0.424606 0.618840 0.599006
O O2 0.403332 0.356094 0.627925
O O3 0.323699 0.537443 0.643062
O O4 0.284961 0.651897 0.549859
O O5 0.942264 0.294694 0.704348
O O6 0.000000 0.166002 0.750000
O O7 0.816782 0.286191 0.099945
O O8 0.823558 0.100340 0.965619
O O9 0.476458 0.838223 0.122009
O O10 0.877225 0.704803 0.019259
O O11 0.744229 0.996218 0.965071
O O12 0.631839 0.008221 0.344268
O O13 0.500000 0.016250 0.750000
#
# Coordination Sequence:
#
# PCOD9269196 Si02
#       6
#     8   8   8   8   8   8
#     4   9  17  31  54  81 106 135 174 220 266 311
#     4  10  20  34  53  78 108 141 177 218 264 314
#     4   9  17  31  54  81 106 135 174 220 266 311
#     4  10  20  34  53  78 108 141 177 218 264 314
#     4  10  20  34  53  78 108 141 177 218 264 314
#     4  10  20  34  53  78 108 141 177 218 264 314
#
# _framework density 27.654489000000002
#
# number of rings (size 3 to 8) (size 9 to 14) (size 15 to 20)
#    0.000    2.333    0.000    3.000    0.000    8.000 
#    0.000    1.667    0.000   10.000    0.000    0.000 
#    0.000    0.000    0.000    0.000    0.000    0.000 
#
# Total GULP energy -134398.700960 kJ/mol
# GULP energy per Si atom -5599.945873 kJ/mol
# Density = 2.759155 g / cm^3
# Si number density = 27.654489 Si / 1000 Ang^3
#
#
#
# Elastic Constant Matrix: (Units=GPa)
#
#
# Indices 1 2 3 4 5 6 
#
# 1 70.3910 21.5638 25.1483 0.0000 19.6345 0.0000
# 2 21.5638 39.1087 13.7565 0.0000 -12.6744 0.0000
# 3 25.1483 13.7565 118.2092 0.0000 5.3538 0.0000
# 4 0.0000 0.0000 0.0000 37.3395 0.0000 -9.5925
# 5 19.6345 -12.6744 5.3538 0.0000 46.9543 0.0000
# 6 0.0000 0.0000 0.0000 -9.5925 0.0000 49.9267
#
#
#
# Elastic Compliance Matrix: (Units=1/GPa)
#
#
# Indices 1 2 3 4 5 6 
#
# 1 0.024524 -0.017383 -0.002531 0.000000 -0.014659 0.000000
# 2 -0.017383 0.041975 -0.002040 0.000000 0.018832 0.000000
# 3 -0.002531 -0.002040 0.009260 0.000000 -0.000548 0.000000
# 4 0.000000 0.000000 0.000000 0.028172 0.000000 0.005413
# 5 -0.014659 0.018832 -0.000548 0.000000 0.032573 0.000000
# 6 0.000000 0.000000 0.000000 0.005413 0.000000 0.021069
#
#
# Mechanical properties :
#
#
# Convention : Reuss Voigt Hill
#
# Bulk Modulus (GPa) = 31.39392 38.73846 35.06619
# Shear Modulus (GPa) = 23.57415 37.99346 30.78381
#
# Velocity S-wave (km/s) = 2.92285 3.71059 3.34002
# Velocity P-wave (km/s) = 4.77154 5.69178 5.25185
#
# Compressibility (1/GPa) = 0.03185330
#
# Stress axis : x y z
#
# Youngs Moduli (GPa) = 40.77578 23.82386 107.98979
#
# Poissons Ratio (x) = 0.41412 0.27328
# Poissons Ratio (y) = 0.70880 0.22025
# Poissons Ratio (z) = 0.10319 0.04859
#
# Static dielectric constant tensor:
#      x y z
#    x 2.135060 0.000000 -0.052690 
#    y 0.000000 2.168510 0.000000 
#    z -0.052690 0.000000 2.131890 
# 
# From -- ./inp_files/182003.got.cif
#   From: 2010.05.17/outbox.cif.g08.bks.cpg/sg15_92_cif.got.tgz:182003.got - 2010.06.03 18:47:42.
