data_PCOD9269330
_publ_section_title
;
Structure prediction by ZEFSAII (Michael W. Deem and Ramdas Pophale) SiO2 
 PCOD9269330
Probable space group: C 2/C
;
_chemical_formula_sum "Si O2"
_cell_formula_units_Z 64
_cell_length_a 18.037415
_cell_length_b 21.099546
_cell_length_c 12.489353
_cell_angle_alpha 90.000000
_cell_angle_beta 46.404106
_cell_angle_gamma 90.000000
_cell_volume 3442.378579
_symmetry_space_group_name_H-M "C 2/C"
_symmetry_group_IT_number 15
_symmetry_cell_setting 'monoclinic'
loop_
_space_group_symop_operation_xyz
x,y,z
-x,y,1/2-z
-x,-y,-z
x,-y,1/2+z
1/2+x,1/2+y,z
1/2-x,1/2+y,1/2-z
1/2-x,1/2-y,-z
1/2+x,1/2-y,1/2+z
loop_
_atom_site_type_symbol
_atom_site_label
_atom_site_fract_x
_atom_site_fract_y
_atom_site_fract_z
Si Si1 0.197262 0.568996 0.286715
Si Si2 0.207834 0.803729 0.285309
Si Si3 0.143942 0.818141 0.891036
Si Si4 0.017870 0.616429 0.606163
Si Si5 0.522256 0.732281 0.102737
Si Si6 0.114329 0.399866 0.640267
Si Si7 0.684834 0.687033 0.579071
Si Si8 0.338973 0.931992 0.138382
O O1 0.291557 0.617574 0.188639
O O2 0.126211 0.592557 0.454646
O O3 0.130906 0.573046 0.242633
O O4 0.223495 0.495473 0.274774
O O5 0.280776 0.742530 0.199823
O O6 0.135094 0.790690 0.457530
O O7 0.141765 0.810074 0.241423
O O8 0.273275 0.868046 0.222243
O O9 0.055340 0.806794 0.894326
O O10 0.113352 0.818806 0.047224
O O11 0.010930 0.692276 0.589814
O O12 0.000000 0.607656 0.750000
O O13 0.933873 0.577827 0.623203
O O14 0.500000 0.723490 0.250000
O O15 0.221136 0.362241 0.520753
O O16 0.118447 0.439109 0.525596
O O17 0.000000 0.368421 0.750000
O O18 0.750000 0.750000 0.500000
#
# Coordination Sequence:
#
# PCOD9269330 Si02
#       8
#     8   8   8   8   8   8   8   8
#     4  11  23  37  57  88 121 156 195 245 298 353
#     4  10  20  40  59  84 120 153 196 245 295 349
#     4  10  20  40  59  84 120 153 196 245 295 349
#     4  11  23  36  58  89 121 157 196 237 300 358
#     4  11  24  40  61  89 117 157 208 241 288 359
#     4  10  20  34  55  81 119 150 187 237 291 358
#     4   8  18  33  54  84 110 147 192 227 293 350
#     4  11  23  37  57  88 121 156 195 245 298 353
#
# _framework density 18.591795999999999
#
# number of rings (size 3 to 8) (size 9 to 14) (size 15 to 20)
#    0.000    1.750    3.750    0.375    1.750    2.000 
#    0.000    0.625    0.000    0.000    0.000    0.000 
#    0.000    0.000    0.000    0.000    0.000    0.000 
#
# Total GULP energy -178190.569743 kJ/mol
# GULP energy per Si atom -5568.455304 kJ/mol
# Density = 1.854948 g / cm^3
# Si number density = 18.591796 Si / 1000 Ang^3
#
#
#
# Elastic Constant Matrix: (Units=GPa)
#
#
# Indices 1 2 3 4 5 6 
#
# 1 43.7689 -7.4008 -11.2494 0.0000 5.6081 0.0000
# 2 -7.4008 70.2551 0.4553 0.0000 -0.7574 0.0000
# 3 -11.2494 0.4553 72.1763 0.0000 13.4789 0.0000
# 4 0.0000 0.0000 0.0000 16.2110 0.0000 -4.6142
# 5 5.6081 -0.7574 13.4789 0.0000 22.3210 0.0000
# 6 0.0000 0.0000 0.0000 -4.6142 0.0000 12.6450
#
#
#
# Elastic Compliance Matrix: (Units=1/GPa)
#
#
# Indices 1 2 3 4 5 6 
#
# 1 0.026098 0.002603 0.005928 0.000000 -0.010048 0.000000
# 2 0.002603 0.014501 0.000388 0.000000 -0.000396 0.000000
# 3 0.005928 0.000388 0.016965 0.000000 -0.011721 0.000000
# 4 0.000000 0.000000 0.000000 0.068836 0.000000 0.025119
# 5 -0.010048 -0.000396 -0.011721 0.000000 0.054390 0.000000
# 6 0.000000 0.000000 0.000000 0.025119 0.000000 0.088248
#
#
# Mechanical properties :
#
#
# Convention : Reuss Voigt Hill
#
# Bulk Modulus (GPa) = 13.26227 16.64562 14.95395
# Shear Modulus (GPa) = 18.09389 23.86174 20.97781
#
# Velocity S-wave (km/s) = 3.12303 3.58642 3.36272
# Velocity P-wave (km/s) = 4.48924 5.11102 4.81019
#
# Compressibility (1/GPa) = 0.07540185
#
# Stress axis : x y z
#
# Youngs Moduli (GPa) = 38.31654 68.95978 58.94375
#
# Poissons Ratio (x) = -0.17947 -0.34941
# Poissons Ratio (y) = -0.09972 -0.02288
# Poissons Ratio (z) = -0.22713 -0.02677
#
# Static dielectric constant tensor:
#      x y z
#    x 1.662270 0.000000 0.029760 
#    y 0.000000 1.622510 0.000000 
#    z 0.029760 0.000000 1.655060 
# 
# From -- ./inp_files/107497.got.cif
#   From: 2010.05.17/outbox.cif.g08.bks.cpg/sg15_54_cif.got.tgz:107497.got - 2010.06.03 18:47:42.
