data_PCOD9269209
_publ_section_title
;
Structure prediction by ZEFSAII (Michael W. Deem and Ramdas Pophale) SiO2 
 PCOD9269209
Probable space group: C 2/C
;
_chemical_formula_sum "Si O2"
_cell_formula_units_Z 48
_cell_length_a 11.461633
_cell_length_b 15.077752
_cell_length_c 13.401232
_cell_angle_alpha 90.000000
_cell_angle_beta 95.966590
_cell_angle_gamma 90.000000
_cell_volume 2303.396545
_symmetry_space_group_name_H-M "C 2/C"
_symmetry_group_IT_number 15
_symmetry_cell_setting 'monoclinic'
loop_
_space_group_symop_operation_xyz
x,y,z
-x,y,1/2-z
-x,-y,-z
x,-y,1/2+z
1/2+x,1/2+y,z
1/2-x,1/2+y,1/2-z
1/2-x,1/2-y,-z
1/2+x,1/2-y,1/2+z
loop_
_atom_site_type_symbol
_atom_site_label
_atom_site_fract_x
_atom_site_fract_y
_atom_site_fract_z
Si Si1 0.508515 0.375391 0.060792
Si Si2 0.065897 0.281081 0.442249
Si Si3 0.239410 0.308255 0.646121
Si Si4 0.348109 0.873807 0.463252
Si Si5 0.684711 0.470710 0.961484
Si Si6 0.850455 0.246823 0.652867
O O1 0.493877 0.309946 0.962996
O O2 0.419790 0.457764 0.059361
O O3 0.468115 0.311176 0.145590
O O4 0.639192 0.413118 0.052783
O O5 0.147680 0.296423 0.546777
O O6 0.153928 0.260586 0.360979
O O7 0.974330 0.359860 0.424718
O O8 0.296881 0.404131 0.629084
O O9 0.177764 0.291025 0.744701
O O10 0.253506 0.820999 0.387568
O O11 0.352946 0.822941 0.569153
O O12 0.301772 0.971953 0.479519
#
# Coordination Sequence:
#
# PCOD9269209 Si02
#       6
#     8   8   8   8   8   8
#     4   8  16  33  56  76 104 140 181 226 275 324
#     4   9  19  35  54  77 112 156 186 222 275 338
#     4  10  20  34  53  80 113 148 191 226 271 337
#     4   9  18  34  56  80 111 144 183 234 282 322
#     4   9  17  33  55  81 109 137 179 237 279 319
#     4   9  18  34  56  80 107 148 190 225 274 344
#
# _framework density 20.838791000000001
#
# number of rings (size 3 to 8) (size 9 to 14) (size 15 to 20)
#    0.000    3.000    0.000    1.000    0.000    4.000 
#    0.000   11.667    0.000    8.000    0.000    0.000 
#    0.000    0.000    0.000    0.000    0.000    0.000 
#
# Total GULP energy -133629.865436 kJ/mol
# GULP energy per Si atom -5567.911060 kJ/mol
# Density = 2.079136 g / cm^3
# Si number density = 20.838791 Si / 1000 Ang^3
#
#
#
# Elastic Constant Matrix: (Units=GPa)
#
#
# Indices 1 2 3 4 5 6 
#
# 1 82.4516 47.9006 0.7031 0.0000 -23.9078 0.0000
# 2 47.9006 92.8858 33.8933 0.0000 -22.4949 0.0000
# 3 0.7031 33.8933 49.6748 0.0000 -17.3346 0.0000
# 4 0.0000 0.0000 0.0000 15.2891 0.0000 -17.5391
# 5 -23.9078 -22.4949 -17.3346 0.0000 23.7267 0.0000
# 6 0.0000 0.0000 0.0000 -17.5391 0.0000 57.4419
#
#
#
# Elastic Compliance Matrix: (Units=1/GPa)
#
#
# Indices 1 2 3 4 5 6 
#
# 1 0.029920 -0.015660 0.020939 0.000000 0.030600 0.000000
# 2 -0.015660 0.023988 -0.018409 0.000000 -0.006486 0.000000
# 3 0.020939 -0.018409 0.045188 0.000000 0.036661 0.000000
# 4 0.000000 0.000000 0.000000 0.100667 0.000000 0.030737
# 5 0.030600 -0.006486 0.036661 0.000000 0.093616 0.000000
# 6 0.000000 0.000000 0.000000 0.030737 0.000000 0.026794
#
#
# Mechanical properties :
#
#
# Convention : Reuss Voigt Hill
#
# Bulk Modulus (GPa) = 13.72902 43.33402 28.53152
# Shear Modulus (GPa) = 13.48765 28.79254 21.14009
#
# Velocity S-wave (km/s) = 2.54685 3.72113 3.18851
# Velocity P-wave (km/s) = 3.90526 6.26916 5.22271
#
# Compressibility (1/GPa) = 0.07283844
#
# Stress axis : x y z
#
# Youngs Moduli (GPa) = 33.42224 41.68771 22.12975
#
# Poissons Ratio (x) = 0.65281 -0.46338
# Poissons Ratio (y) = 0.52338 0.40738
# Poissons Ratio (z) = -0.69984 0.76742
#
# Static dielectric constant tensor:
#      x y z
#    x 1.821870 0.000000 0.001990 
#    y 0.000000 1.806010 0.000000 
#    z 0.001990 0.000000 1.722320 
# 
# From -- ./inp_files/87235.got.cif
#   From: 2010.05.17/outbox.cif.g08.bks.cpg/sg15_44_cif.got.tgz:87235.got - 2010.06.03 18:47:42.
