data_PCOD9269332
_publ_section_title
;
Structure prediction by ZEFSAII (Michael W. Deem and Ramdas Pophale) SiO2 
 PCOD9269332
Probable space group: C 2/C
;
_chemical_formula_sum "Si O2"
_cell_formula_units_Z 52
_cell_length_a 17.028275
_cell_length_b 16.821296
_cell_length_c 17.708274
_cell_angle_alpha 90.000000
_cell_angle_beta 27.258716
_cell_angle_gamma 90.000000
_cell_volume 2323.167350
_symmetry_space_group_name_H-M "C 2/C"
_symmetry_group_IT_number 15
_symmetry_cell_setting 'monoclinic'
loop_
_space_group_symop_operation_xyz
x,y,z
-x,y,1/2-z
-x,-y,-z
x,-y,1/2+z
1/2+x,1/2+y,z
1/2-x,1/2+y,1/2-z
1/2-x,1/2-y,-z
1/2+x,1/2-y,1/2+z
loop_
_atom_site_type_symbol
_atom_site_label
_atom_site_fract_x
_atom_site_fract_y
_atom_site_fract_z
Si Si1 0.206275 0.836883 0.569056
Si Si2 0.163928 0.300372 0.472069
Si Si3 0.799018 0.912228 0.772097
Si Si4 0.265277 0.916257 0.216904
Si Si5 0.858340 0.880458 0.554613
Si Si6 0.000000 0.253235 0.750000
Si Si7 0.289571 0.551010 0.568180
O O1 0.250000 0.750000 0.500000
O O2 0.263582 0.858861 0.604979
O O3 0.271349 0.902787 0.453801
O O4 0.000000 0.841011 0.750000
O O5 0.148594 0.350198 0.409345
O O6 0.149204 0.206511 0.471485
O O7 0.032094 0.311785 0.652191
O O8 0.348745 0.305712 0.353673
O O9 0.779648 0.875985 0.705770
O O10 0.005022 0.928513 0.603445
O O11 0.708849 0.997984 0.843933
O O12 0.298293 0.919690 0.278500
O O13 0.060465 0.900770 0.388680
O O14 0.779242 0.955436 0.578068
#
# Coordination Sequence:
#
# PCOD9269332 Si02
#       7
#     8   8   8   8   8   4   8
#     4  10  20  34  55  82 108 140 176 225 264 310
#     4  11  20  36  54  79 108 142 174 223 276 316
#     4   8  17  33  54  83 106 137 186 222 256 312
#     4   9  17  33  57  81 106 140 181 221 263 317
#     4   9  17  33  57  81 106 140 181 221 263 317
#     4  10  24  34  46  80 108 132 182 214 262 332
#     4   8  17  33  54  83 106 137 186 222 256 312
#
# _framework density 22.383234999999999
#
# number of rings (size 3 to 8) (size 9 to 14) (size 15 to 20)
#    0.000    2.769    1.538    1.846    2.154    2.462 
#    2.769    0.000    6.769    1.846    0.000    0.000 
#    0.000    0.000    0.000    0.000    0.000    0.000 
#
# Total GULP energy -145053.112480 kJ/mol
# GULP energy per Si atom -5578.965865 kJ/mol
# Density = 2.233229 g / cm^3
# Si number density = 22.383235 Si / 1000 Ang^3
#
#
#
# Elastic Constant Matrix: (Units=GPa)
#
#
# Indices 1 2 3 4 5 6 
#
# 1 53.4285 52.8231 30.8268 0.0012 42.1242 0.0001
# 2 52.8231 124.0371 45.6396 -0.0156 59.0619 0.0106
# 3 30.8268 45.6396 83.2828 -0.0092 40.8244 0.0048
# 4 0.0012 -0.0156 -0.0092 26.3781 0.0034 17.1059
# 5 42.1242 59.0619 40.8244 0.0034 52.4022 -0.0006
# 6 0.0001 0.0106 0.0048 17.1059 -0.0006 20.5817
#
#
#
# Elastic Compliance Matrix: (Units=1/GPa)
#
#
# Indices 1 2 3 4 5 6 
#
# 1 0.052646 -0.004884 0.002000 0.000000 -0.038374 0.000001
# 2 -0.004884 0.017855 -0.000059 0.000041 -0.016151 -0.000044
# 3 0.002000 -0.000059 0.019503 0.000026 -0.016734 -0.000027
# 4 0.000000 0.000041 0.000026 0.082230 -0.000073 -0.068343
# 5 -0.038374 -0.016151 -0.016734 -0.000073 0.081171 0.000076
# 6 0.000001 -0.000044 -0.000027 -0.068343 0.000076 0.105388
#
#
# Mechanical properties :
#
#
# Convention : Reuss Voigt Hill
#
# Bulk Modulus (GPa) = 11.88827 57.70304 34.79566
# Shear Modulus (GPa) = 12.73179 28.63634 20.68406
#
# Velocity S-wave (km/s) = 2.38756 3.58070 3.04318
# Velocity P-wave (km/s) = 3.59491 6.55216 5.28461
#
# Compressibility (1/GPa) = 0.08411651
#
# Stress axis : x y z
#
# Youngs Moduli (GPa) = 18.99491 56.00816 51.27522
#
# Poissons Ratio (x) = 0.27354 -0.10256
# Poissons Ratio (y) = 0.09277 0.00305
# Poissons Ratio (z) = -0.03799 0.00333
#
# Static dielectric constant tensor:
#      x y z
#    x 1.878510 0.000000 -0.018850 
#    y 0.000000 1.795190 0.000010 
#    z -0.018850 0.000010 1.920000 
# 
# From -- ./inp_files/211674.got.cif
#   From: 2010.05.17/outbox.cif.g08.bks.cpg/sg15_106_cif.got.tgz:211674.got - 2010.06.03 18:47:42.
