data_PCOD9269711
_publ_section_title
;
Structure prediction by ZEFSAII (Michael W. Deem and Ramdas Pophale) SiO2 
 PCOD9269711
Probable space group: C 2/C
;
_chemical_formula_sum "Si O2"
_cell_formula_units_Z 64
_cell_length_a 11.500247
_cell_length_b 21.723378
_cell_length_c 12.236810
_cell_angle_alpha 90.000000
_cell_angle_beta 110.642048
_cell_angle_gamma 90.000000
_cell_volume 2860.792010
_symmetry_space_group_name_H-M "C 2/C"
_symmetry_group_IT_number 15
_symmetry_cell_setting 'monoclinic'
loop_
_space_group_symop_operation_xyz
x,y,z
-x,y,1/2-z
-x,-y,-z
x,-y,1/2+z
1/2+x,1/2+y,z
1/2-x,1/2+y,1/2-z
1/2-x,1/2-y,-z
1/2+x,1/2-y,1/2+z
loop_
_atom_site_type_symbol
_atom_site_label
_atom_site_fract_x
_atom_site_fract_y
_atom_site_fract_z
Si Si1 0.707998 0.135253 0.586784
Si Si2 0.201324 0.652629 0.065496
Si Si3 0.588629 0.578951 0.968470
Si Si4 0.594832 0.641746 0.193456
Si Si5 0.997523 0.574427 0.122825
Si Si6 0.176709 0.048929 0.540732
Si Si7 0.885295 0.548952 0.768766
Si Si8 0.492507 0.227028 0.879254
O O1 0.847640 0.131125 0.586073
O O2 0.630823 0.096526 0.470959
O O3 0.698091 0.093390 0.689566
O O4 0.624318 0.193987 0.596334
O O5 0.292364 0.668639 0.196316
O O6 0.097745 0.609746 0.085098
O O7 0.275784 0.608316 0.008394
O O8 0.121350 0.704325 0.976656
O O9 0.626341 0.595552 0.106683
O O10 0.634568 0.509806 0.955366
O O11 0.440111 0.571280 0.925831
O O12 0.500000 0.612764 0.250000
O O13 0.526993 0.700051 0.116598
O O14 0.044646 0.503913 0.140612
O O15 0.000000 0.593379 0.250000
O O16 0.292988 0.023458 0.647996
O O17 0.000000 0.583702 0.750000
O O18 0.500000 0.216500 0.750000
#
# Coordination Sequence:
#
# PCOD9269711 Si02
#       8
#     8   8   8   8   8   8   8   8
#     4  11  21  38  60  89 128 162 209 268 323 374
#     4  11  21  41  67  94 127 169 220 269 325 380
#     4  11  24  41  61  94 132 169 212 260 325 397
#     4  11  23  44  66  93 125 174 218 268 316 391
#     4  10  20  34  59  92 123 164 210 265 323 384
#     4  11  23  39  63  94 130 169 212 261 324 398
#     4  11  20  35  59  90 127 165 210 264 324 386
#     4  10  24  42  67  96 122 168 222 277 319 374
#
# _framework density 22.371428000000002
#
# number of rings (size 3 to 8) (size 9 to 14) (size 15 to 20)
#    0.000    1.250    1.250    6.750    0.000    3.000 
#    2.250    0.000    0.000    0.000    0.000    0.000 
#    0.000    0.000    0.000    0.000    0.000    0.000 
#
# Total GULP energy -178584.258584 kJ/mol
# GULP energy per Si atom -5580.758081 kJ/mol
# Density = 2.232051 g / cm^3
# Si number density = 22.371428 Si / 1000 Ang^3
#
#
#
# Elastic Constant Matrix: (Units=GPa)
#
#
# Indices 1 2 3 4 5 6 
#
# 1 126.4939 14.2431 11.4371 0.0000 -8.5919 0.0000
# 2 14.2431 73.3307 10.0104 0.0000 4.2568 0.0000
# 3 11.4371 10.0104 53.9313 0.0000 11.8244 0.0000
# 4 0.0000 0.0000 0.0000 34.7730 0.0000 8.8686
# 5 -8.5919 4.2568 11.8244 0.0000 39.3789 0.0000
# 6 0.0000 0.0000 0.0000 8.8686 0.0000 34.4274
#
#
#
# Elastic Compliance Matrix: (Units=1/GPa)
#
#
# Indices 1 2 3 4 5 6 
#
# 1 0.008443 -0.001508 -0.002088 0.000000 0.002632 0.000000
# 2 -0.001508 0.014283 -0.002056 0.000000 -0.001256 0.000000
# 3 -0.002088 -0.002056 0.020786 0.000000 -0.006475 0.000000
# 4 0.000000 0.000000 0.000000 0.030780 0.000000 -0.007929
# 5 0.002632 -0.001256 -0.006475 0.000000 0.028048 0.000000
# 6 0.000000 0.000000 0.000000 -0.007929 0.000000 0.031089
#
#
# Mechanical properties :
#
#
# Convention : Reuss Voigt Hill
#
# Bulk Modulus (GPa) = 31.04708 36.12634 33.58671
# Shear Modulus (GPa) = 32.16069 36.25355 34.20712
#
# Velocity S-wave (km/s) = 3.79566 4.02995 3.91455
# Velocity P-wave (km/s) = 5.75478 6.15122 5.95630
#
# Compressibility (1/GPa) = 0.03220915
#
# Stress axis : x y z
#
# Youngs Moduli (GPa) = 118.44406 70.01209 48.10923
#
# Poissons Ratio (x) = 0.10555 0.10044
# Poissons Ratio (y) = 0.17857 0.09892
# Poissons Ratio (z) = 0.24727 0.14396
#
# Static dielectric constant tensor:
#      x y z
#    x 2.209010 0.000000 0.172850 
#    y 0.000000 1.819550 0.000000 
#    z 0.172850 0.000000 1.951610 
# 
# From -- ./inp_files/91270.got.cif
#   From: 2010.05.17/outbox.cif.g08.bks.cpg/sg15_46_cif.got.tgz:91270.got - 2010.06.03 18:47:42.
