data_PCOD9269576
_publ_section_title
;
Structure prediction by ZEFSAII (Michael W. Deem and Ramdas Pophale) SiO2 
 PCOD9269576
Probable space group: C 2/C
;
_chemical_formula_sum "Si O2"
_cell_formula_units_Z 60
_cell_length_a 35.458956
_cell_length_b 11.058641
_cell_length_c 8.820050
_cell_angle_alpha 90.000000
_cell_angle_beta 112.016960
_cell_angle_gamma 90.000000
_cell_volume 3206.362720
_symmetry_space_group_name_H-M "C 2/C"
_symmetry_group_IT_number 15
_symmetry_cell_setting 'monoclinic'
loop_
_space_group_symop_operation_xyz
x,y,z
-x,y,1/2-z
-x,-y,-z
x,-y,1/2+z
1/2+x,1/2+y,z
1/2-x,1/2+y,1/2-z
1/2-x,1/2-y,-z
1/2+x,1/2-y,1/2+z
loop_
_atom_site_type_symbol
_atom_site_label
_atom_site_fract_x
_atom_site_fract_y
_atom_site_fract_z
Si Si1 0.808305 0.946216 0.701193
Si Si2 0.058459 0.929193 0.590144
Si Si3 0.500000 0.486277 0.750000
Si Si4 0.736722 0.365483 0.165533
Si Si5 0.877835 0.859894 0.274239
Si Si6 0.826570 0.426137 0.202830
Si Si7 0.372306 0.731798 0.435778
Si Si8 0.174791 0.671999 0.139603
O O1 0.787456 0.882797 0.528082
O O2 0.832944 0.851833 0.840468
O O3 0.717847 0.756436 0.706984
O O4 0.775794 0.023524 0.745529
O O5 0.033617 0.913018 0.706969
O O6 0.091379 0.828008 0.604808
O O7 0.082737 0.058076 0.631446
O O8 0.025262 0.935445 0.407690
O O9 0.657861 0.458556 0.305468
O O10 0.783836 0.374191 0.200798
O O11 0.860015 0.772123 0.377535
O O12 0.882707 0.783887 0.127752
O O13 0.861303 0.362603 0.355718
O O14 0.826188 0.568686 0.234593
O O15 0.830389 0.388643 0.033051
#
# Coordination Sequence:
#
# PCOD9269576 Si02
#       8
#     8   8   4   8   8   8   8   8
#     4  10  20  34  58  82 112 156 198 256 311 350
#     4  10  21  36  62  99 130 152 185 231 304 371
#     4  10  20  36  62 100 132 150 176 230 300 380
#     4  11  22  38  57  81 115 152 211 273 309 351
#     4  10  21  37  59  85 122 157 198 240 301 364
#     4  12  25  38  58  78 117 160 218 257 307 346
#     4  11  21  36  57  84 121 161 195 244 298 357
#     4  11  25  40  56  83 112 162 211 258 303 350
#
# _framework density 18.712792
#
# number of rings (size 3 to 8) (size 9 to 14) (size 15 to 20)
#    0.000    1.333    4.000    2.000    3.733    0.000 
#    0.000    3.333    0.000    0.000    0.000    5.600 
#    0.000    0.000    0.000    0.000    0.000    0.000 
#
# Total GULP energy -167617.297755 kJ/mol
# GULP energy per Si atom -5587.243258 kJ/mol
# Density = 1.867020 g / cm^3
# Si number density = 18.712792 Si / 1000 Ang^3
#
#
#
# Elastic Constant Matrix: (Units=GPa)
#
#
# Indices 1 2 3 4 5 6 
#
# 1 104.5686 30.5212 24.3401 0.0000 -8.5710 0.0000
# 2 30.5212 74.0925 10.4160 0.0000 4.9848 0.0000
# 3 24.3401 10.4160 41.0052 0.0000 0.4245 0.0000
# 4 0.0000 0.0000 0.0000 26.8835 0.0000 -5.3314
# 5 -8.5710 4.9848 0.4245 0.0000 23.9987 0.0000
# 6 0.0000 0.0000 0.0000 -5.3314 0.0000 14.6783
#
#
#
# Elastic Compliance Matrix: (Units=1/GPa)
#
#
# Indices 1 2 3 4 5 6 
#
# 1 0.012956 -0.004805 -0.006529 0.000000 0.005741 0.000000
# 2 -0.004805 0.015976 -0.001154 0.000000 -0.005014 0.000000
# 3 -0.006529 -0.001154 0.028583 0.000000 -0.002598 0.000000
# 4 0.000000 0.000000 0.000000 0.040085 0.000000 0.014559
# 5 0.005741 -0.005014 -0.002598 0.000000 0.044807 0.000000
# 6 0.000000 0.000000 0.000000 0.014559 0.000000 0.073416
#
#
# Mechanical properties :
#
#
# Convention : Reuss Voigt Hill
#
# Bulk Modulus (GPa) = 30.73365 38.91343 34.82354
# Shear Modulus (GPa) = 19.86928 23.40471 21.63700
#
# Velocity S-wave (km/s) = 3.26207 3.54041 3.40408
# Velocity P-wave (km/s) = 5.53603 6.12804 5.83954
#
# Compressibility (1/GPa) = 0.03253763
#
# Stress axis : x y z
#
# Youngs Moduli (GPa) = 77.18417 62.59521 34.98605
#
# Poissons Ratio (x) = 0.30079 0.22843
# Poissons Ratio (y) = 0.37090 0.04037
# Poissons Ratio (z) = 0.50396 0.07222
#
# Static dielectric constant tensor:
#      x y z
#    x 1.660480 0.000000 -0.033470 
#    y 0.000000 1.663120 0.000000 
#    z -0.033470 0.000000 1.655170 
# 
# From -- ./inp_files/69411.got.cif
#   From: 2010.05.17/outbox.cif.g08.bks.cpg/sg15_35_cif.got.tgz:69411.got - 2010.06.03 18:47:42.
