data_PCOD9269530
_publ_section_title
;
Structure prediction by ZEFSAII (Michael W. Deem and Ramdas Pophale) SiO2 
 PCOD9269530
Probable space group: C 2/C
;
_chemical_formula_sum "Si O2"
_cell_formula_units_Z 44
_cell_length_a 15.991484
_cell_length_b 8.254240
_cell_length_c 17.870808
_cell_angle_alpha 90.000000
_cell_angle_beta 133.051217
_cell_angle_gamma 90.000000
_cell_volume 1723.753532
_symmetry_space_group_name_H-M "C 2/C"
_symmetry_group_IT_number 15
_symmetry_cell_setting 'monoclinic'
loop_
_space_group_symop_operation_xyz
x,y,z
-x,y,1/2-z
-x,-y,-z
x,-y,1/2+z
1/2+x,1/2+y,z
1/2-x,1/2+y,1/2-z
1/2-x,1/2-y,-z
1/2+x,1/2-y,1/2+z
loop_
_atom_site_type_symbol
_atom_site_label
_atom_site_fract_x
_atom_site_fract_y
_atom_site_fract_z
Si Si1 0.681848 0.006647 0.440172
Si Si2 0.927413 0.153393 0.862011
Si Si3 0.500000 0.212988 0.250000
Si Si4 0.250379 0.068783 0.291763
Si Si5 0.622276 0.352037 0.864657
Si Si6 0.088753 0.643968 0.536724
O O1 0.615259 0.105255 0.334450
O O2 0.626981 0.827393 0.402590
O O3 0.817379 0.969129 0.535934
O O4 0.644837 0.104548 0.490924
O O5 0.841284 0.305540 0.817733
O O6 0.814666 0.603953 0.844516
O O7 0.977421 0.180121 0.809361
O O8 0.020450 0.191819 0.982166
O O9 0.208276 0.135547 0.346289
O O10 0.000000 0.126759 0.250000
O O11 0.141001 0.013919 0.177816
O O12 0.000000 0.500000 0.500000
#
# Coordination Sequence:
#
# PCOD9269530 Si02
#       6
#     8   8   4   8   8   8
#     4   9  18  34  57  87 109 165 194 237 291 366
#     4  10  22  39  62  85 118 158 196 244 301 350
#     4  10  20  38  62  82 118 158 202 228 304 370
#     4  10  22  38  60  87 118 155 198 249 291 352
#     4  10  20  34  57  87 123 147 201 249 292 340
#     4   8  17  37  59  82 116 156 199 235 295 358
#
# _framework density 25.525690999999998
#
# number of rings (size 3 to 8) (size 9 to 14) (size 15 to 20)
#    0.000    2.545    0.909    0.000    3.818    1.455 
#    3.273    3.636    0.000    0.000    0.000    0.000 
#    0.000    0.000    0.000    0.000    0.000    0.000 
#
# Total GULP energy -122752.165337 kJ/mol
# GULP energy per Si atom -5579.643879 kJ/mol
# Density = 2.546759 g / cm^3
# Si number density = 25.525691 Si / 1000 Ang^3
#
#
#
# Elastic Constant Matrix: (Units=GPa)
#
#
# Indices 1 2 3 4 5 6 
#
# 1 36.1442 8.1215 16.1344 0.0000 12.0003 0.0000
# 2 8.1215 76.8837 49.6365 0.0000 6.1522 0.0000
# 3 16.1344 49.6365 193.0265 0.0000 16.1951 0.0000
# 4 0.0000 0.0000 0.0000 59.8851 0.0000 2.6889
# 5 12.0003 6.1522 16.1951 0.0000 17.0358 0.0000
# 6 0.0000 0.0000 0.0000 2.6889 0.0000 -12.2602
#
#
#
# Elastic Compliance Matrix: (Units=1/GPa)
#
#
# Indices 1 2 3 4 5 6 
#
# 1 0.036420 -0.001496 -0.000600 0.000000 -0.024544 0.000000
# 2 -0.001496 0.015719 -0.003835 0.000000 -0.000977 0.000000
# 3 -0.000600 -0.003835 0.006591 0.000000 -0.004458 0.000000
# 4 0.000000 0.000000 0.000000 0.016536 0.000000 0.003627
# 5 -0.024544 -0.000977 -0.004458 0.000000 0.080580 0.000000
# 6 0.000000 0.000000 0.000000 0.003627 0.000000 -0.080769
#
#
# Mechanical properties :
#
#
# Convention : Reuss Voigt Hill
#
# Bulk Modulus (GPa) = 21.33668 50.42657 35.88163
# Shear Modulus (GPa) = 48.75177 28.40961 38.58069
#
# Velocity S-wave (km/s) = 4.37499 3.33976 3.89195
# Velocity P-wave (km/s) = 5.82218 5.88813 5.85525
#
# Compressibility (1/GPa) = 0.04686764
#
# Stress axis : x y z
#
# Youngs Moduli (GPa) = 27.45757 63.61818 151.72161
#
# Poissons Ratio (x) = 0.09515 0.09109
# Poissons Ratio (y) = 0.04106 0.58186
# Poissons Ratio (z) = 0.01648 0.24398
#
# Static dielectric constant tensor:
#      x y z
#    x 1.961980 0.000000 0.041420 
#    y 0.000000 2.117730 0.000000 
#    z 0.041420 0.000000 2.063470 
# 
# From -- ./inp_files/244110.got.cif
#   From: 2010.05.17/outbox.cif.g08.bks.cpg/sg15_123_cif.got.tgz:244110.got - 2010.06.03 18:47:42.
