data_PCOD9269732
_publ_section_title
;
Structure prediction by ZEFSAII (Michael W. Deem and Ramdas Pophale) SiO2 
 PCOD9269732
Probable space group: C 2/C
;
_chemical_formula_sum "Si O2"
_cell_formula_units_Z 60
_cell_length_a 20.399134
_cell_length_b 17.558466
_cell_length_c 8.089087
_cell_angle_alpha 90.000000
_cell_angle_beta 82.427790
_cell_angle_gamma 90.000000
_cell_volume 2872.063015
_symmetry_space_group_name_H-M "C 2/C"
_symmetry_group_IT_number 15
_symmetry_cell_setting 'monoclinic'
loop_
_space_group_symop_operation_xyz
x,y,z
-x,y,1/2-z
-x,-y,-z
x,-y,1/2+z
1/2+x,1/2+y,z
1/2-x,1/2+y,1/2-z
1/2-x,1/2-y,-z
1/2+x,1/2-y,1/2+z
loop_
_atom_site_type_symbol
_atom_site_label
_atom_site_fract_x
_atom_site_fract_y
_atom_site_fract_z
Si Si1 0.000000 0.002230 0.250000
Si Si2 0.195201 0.256411 0.163612
Si Si3 0.735268 0.999882 0.621812
Si Si4 0.451556 0.233415 0.927936
Si Si5 0.187280 0.913586 0.660536
Si Si6 0.670170 0.105437 0.894479
Si Si7 0.060876 0.100235 0.964573
Si Si8 0.483795 0.085426 0.561122
O O1 0.994758 0.060130 0.404517
O O2 0.057361 0.943432 0.290774
O O3 0.123482 0.275080 0.110073
O O4 0.191195 0.170559 0.232994
O O5 0.203147 0.319801 0.302634
O O6 0.250000 0.250000 0.000000
O O7 0.800972 0.975204 0.700233
O O8 0.706691 0.925203 0.544360
O O9 0.753355 0.064225 0.482848
O O10 0.682306 0.037677 0.758961
O O11 0.500000 0.244227 0.750000
O O12 0.472534 0.156640 0.015342
O O13 0.452494 0.310067 0.036125
O O14 0.124071 0.913782 0.561641
O O15 0.591919 0.109127 0.945674
O O16 0.500000 0.084851 0.750000
O O17 0.500000 0.000000 0.500000
#
# Coordination Sequence:
#
# PCOD9269732 Si02
#       8
#     4   8   8   8   8   8   8   8
#     4  10  20  34  60  86 114 150 202 252 300 368
#     4  11  21  37  63  88 120 167 208 254 321 384
#     4  10  22  37  59  90 122 159 207 266 306 376
#     4  10  20  38  61  85 124 167 203 251 316 381
#     4  10  21  37  60  83 121 160 203 250 318 372
#     4  11  21  38  61  90 125 159 215 259 314 377
#     4  10  20  36  59  86 118 156 203 248 310 364
#     4  11  22  39  63  90 119 166 210 257 319 378
#
# _framework density 20.890906999999999
#
# number of rings (size 3 to 8) (size 9 to 14) (size 15 to 20)
#    0.000    1.600    4.667    1.600    0.000    0.533 
#    1.200    0.000    2.933    0.000    0.000    0.000 
#    0.000    0.000    0.000    0.000    0.000    0.000 
#
# Total GULP energy -167090.057891 kJ/mol
# GULP energy per Si atom -5569.668596 kJ/mol
# Density = 2.084336 g / cm^3
# Si number density = 20.890907 Si / 1000 Ang^3
#
#
#
# Elastic Constant Matrix: (Units=GPa)
#
#
# Indices 1 2 3 4 5 6 
#
# 1 87.1949 24.5156 5.8623 0.0000 3.8726 0.0000
# 2 24.5156 130.1658 22.8860 0.0000 5.9154 0.0000
# 3 5.8623 22.8860 29.4801 0.0000 10.9461 0.0000
# 4 0.0000 0.0000 0.0000 21.8392 0.0000 0.1876
# 5 3.8726 5.9154 10.9461 0.0000 24.6823 0.0000
# 6 0.0000 0.0000 0.0000 0.1876 0.0000 28.1864
#
#
#
# Elastic Compliance Matrix: (Units=1/GPa)
#
#
# Indices 1 2 3 4 5 6 
#
# 1 0.012157 -0.002189 -0.000245 0.000000 -0.001274 0.000000
# 2 -0.002189 0.009317 -0.007298 0.000000 0.001347 0.000000
# 3 -0.000245 -0.007298 0.046654 0.000000 -0.018903 0.000000
# 4 0.000000 0.000000 0.000000 0.045792 0.000000 -0.000305
# 5 -0.001274 0.001347 -0.018903 0.000000 0.048775 0.000000
# 6 0.000000 0.000000 0.000000 -0.000305 0.000000 0.035480
#
#
# Mechanical properties :
#
#
# Convention : Reuss Voigt Hill
#
# Bulk Modulus (GPa) = 20.54893 39.26317 29.90605
# Shear Modulus (GPa) = 21.38044 27.84670 24.61357
#
# Velocity S-wave (km/s) = 3.20258 3.65493 3.43621
# Velocity P-wave (km/s) = 4.85109 6.05364 5.48542
#
# Compressibility (1/GPa) = 0.04866434
#
# Stress axis : x y z
#
# Youngs Moduli (GPa) = 82.25722 107.33558 21.43451
#
# Poissons Ratio (x) = 0.23492 0.00526
# Poissons Ratio (y) = 0.18003 0.15642
# Poissons Ratio (z) = 0.02018 0.78328
#
# Static dielectric constant tensor:
#      x y z
#    x 1.803230 0.000000 -0.022670 
#    y 0.000000 1.791860 0.000000 
#    z -0.022670 0.000000 1.825810 
# 
# From -- ./inp_files/49094.got.cif
#   From: 2010.05.17/outbox.cif.g08.bks.cpg/sg15_25_cif.got.tgz:49094.got - 2010.06.03 18:47:42.
