data_PCOD9269513
_publ_section_title
;
Structure prediction by ZEFSAII (Michael W. Deem and Ramdas Pophale) SiO2 
 PCOD9269513
Probable space group: C 2/C
;
_chemical_formula_sum "Si O2"
_cell_formula_units_Z 64
_cell_length_a 21.316225
_cell_length_b 17.322145
_cell_length_c 25.480633
_cell_angle_alpha 90.000000
_cell_angle_beta 160.547847
_cell_angle_gamma 90.000000
_cell_volume 3133.227385
_symmetry_space_group_name_H-M "C 2/C"
_symmetry_group_IT_number 15
_symmetry_cell_setting 'monoclinic'
loop_
_space_group_symop_operation_xyz
x,y,z
-x,y,1/2-z
-x,-y,-z
x,-y,1/2+z
1/2+x,1/2+y,z
1/2-x,1/2+y,1/2-z
1/2-x,1/2-y,-z
1/2+x,1/2-y,1/2+z
loop_
_atom_site_type_symbol
_atom_site_label
_atom_site_fract_x
_atom_site_fract_y
_atom_site_fract_z
Si Si1 0.537289 0.092936 0.217025
Si Si2 0.680408 0.497879 0.930167
Si Si3 0.540758 0.342094 0.620256
Si Si4 0.638136 0.342574 0.202569
Si Si5 0.858012 0.829305 0.589939
Si Si6 0.579429 0.488661 0.474172
Si Si7 0.549839 0.776358 0.541439
Si Si8 0.532560 0.268032 0.333431
O O1 0.500000 0.084659 0.250000
O O2 0.724292 0.046340 0.349252
O O3 0.562632 0.184772 0.229371
O O4 0.345784 0.056099 0.043293
O O5 0.500000 0.502290 0.750000
O O6 0.755357 0.408955 0.989366
O O7 0.614358 0.509666 0.938354
O O8 0.463820 0.337383 0.618412
O O9 0.477323 0.426681 0.551161
O O10 0.452419 0.276039 0.513163
O O11 0.764787 0.327900 0.802541
O O12 0.587702 0.428849 0.146497
O O13 0.556692 0.283796 0.095025
O O14 0.525144 0.324921 0.166737
O O15 0.856644 0.324483 0.385789
O O16 0.750000 0.750000 0.500000
O O17 0.000000 0.823038 0.750000
O O18 0.500000 0.300203 0.250000
O O19 0.750000 0.250000 0.500000
#
# Coordination Sequence:
#
# PCOD9269513 Si02
#       8
#     8   8   8   8   8   8   8   8
#     4   9  18  33  52  79 117 156 187 222 282 350
#     4   9  19  33  50  81 118 148 180 227 285 347
#     4  10  22  41  61  85 113 152 195 240 296 345
#     4  11  22  39  59  85 116 153 197 240 286 340
#     4  10  20  34  57  85 113 141 180 233 291 352
#     4  10  21  37  57  81 114 149 192 241 287 344
#     4  10  23  41  61  80 113 156 200 243 282 346
#     4  11  21  34  57  87 119 153 189 231 284 345
#
# _framework density 20.426221000000002
#
# number of rings (size 3 to 8) (size 9 to 14) (size 15 to 20)
#    0.000    2.000    0.000    4.500    0.000    7.500 
#    0.000    2.500    0.000    0.000    0.000    0.000 
#    0.000    0.000    0.000    0.000    0.000    0.000 
#
# Total GULP energy -178629.597780 kJ/mol
# GULP energy per Si atom -5582.174931 kJ/mol
# Density = 2.037973 g / cm^3
# Si number density = 20.426221 Si / 1000 Ang^3
#
#
#
# Elastic Constant Matrix: (Units=GPa)
#
#
# Indices 1 2 3 4 5 6 
#
# 1 40.1830 4.8879 -0.3566 -0.0038 -9.3886 0.0026
# 2 4.8879 123.2118 25.9766 0.0062 18.8608 -0.0022
# 3 -0.3566 25.9766 76.9005 0.0003 1.4144 0.0026
# 4 -0.0038 0.0062 0.0003 38.6490 -0.0150 2.3771
# 5 -9.3886 18.8608 1.4144 -0.0150 25.6250 0.0014
# 6 0.0026 -0.0022 0.0026 2.3771 0.0014 25.7608
#
#
#
# Elastic Compliance Matrix: (Units=1/GPa)
#
#
# Indices 1 2 3 4 5 6 
#
# 1 0.028265 -0.003279 0.001005 0.000009 0.012714 -0.000005
# 2 -0.003279 0.010258 -0.003323 -0.000005 -0.008569 0.000003
# 3 0.001005 -0.003323 0.014093 0.000001 0.002036 -0.000002
# 4 0.000009 -0.000005 0.000001 0.026022 0.000022 -0.002401
# 5 0.012714 -0.008569 0.002036 0.000022 0.049877 -0.000007
# 6 -0.000005 0.000003 -0.000002 -0.002401 -0.000007 0.039040
#
#
# Mechanical properties :
#
#
# Convention : Reuss Voigt Hill
#
# Bulk Modulus (GPa) = 24.14179 33.47901 28.81040
# Shear Modulus (GPa) = 25.96632 31.99277 28.97954
#
# Velocity S-wave (km/s) = 3.56929 3.96189 3.77071
# Velocity P-wave (km/s) = 5.36946 6.11184 5.75264
#
# Compressibility (1/GPa) = 0.04142194
#
# Stress axis : x y z
#
# Youngs Moduli (GPa) = 35.37999 97.48097 70.95487
#
# Poissons Ratio (x) = 0.31968 -0.07131
# Poissons Ratio (y) = 0.11602 0.23577
# Poissons Ratio (z) = -0.03556 0.32391
#
# Static dielectric constant tensor:
#      x y z
#    x 1.757530 0.000120 0.013050 
#    y 0.000120 1.809000 -0.000010 
#    z 0.013050 -0.000010 1.721980 
# 
# From -- ./inp_files/255984.got.cif
#   From: 2010.05.17/outbox.cif.g08.bks.cpg/sg15_128_cif.got.tgz:255984.got - 2010.06.03 18:47:42.
