data_PCOD9269448
_publ_section_title
;
Structure prediction by ZEFSAII (Michael W. Deem and Ramdas Pophale) SiO2 
 PCOD9269448
Probable space group: C 2/C
;
_chemical_formula_sum "Si O2"
_cell_formula_units_Z 40
_cell_length_a 18.998970
_cell_length_b 19.709613
_cell_length_c 11.616299
_cell_angle_alpha 90.000000
_cell_angle_beta 152.475282
_cell_angle_gamma 90.000000
_cell_volume 2010.209218
_symmetry_space_group_name_H-M "C 2/C"
_symmetry_group_IT_number 15
_symmetry_cell_setting 'monoclinic'
loop_
_space_group_symop_operation_xyz
x,y,z
-x,y,1/2-z
-x,-y,-z
x,-y,1/2+z
1/2+x,1/2+y,z
1/2-x,1/2+y,1/2-z
1/2-x,1/2-y,-z
1/2+x,1/2-y,1/2+z
loop_
_atom_site_type_symbol
_atom_site_label
_atom_site_fract_x
_atom_site_fract_y
_atom_site_fract_z
Si Si1 0.169682 0.650017 0.195505
Si Si2 0.171297 0.287668 0.047449
Si Si3 0.814749 0.430207 0.000971
Si Si4 0.333657 0.189358 0.687184
Si Si5 0.335906 0.919653 0.575074
O O1 0.261361 0.713812 0.376469
O O2 0.138431 0.597440 0.253536
O O3 0.243025 0.608918 0.196406
O O4 0.014269 0.684883 0.925521
O O5 0.179048 0.300436 0.195154
O O6 0.246555 0.353727 0.097806
O O7 0.000000 0.285755 0.750000
O O8 0.777687 0.382568 0.055812
O O9 0.763202 0.507189 0.946586
O O10 0.000000 0.433239 0.250000
O O11 0.250000 0.250000 0.500000
O O12 0.500000 0.922317 0.750000
#
# Coordination Sequence:
#
# PCOD9269448 Si02
#       5
#     8   8   8   8   8
#     4  11  21  38  58  84 117 147 189 235 286 333
#     4  11  22  37  59  84 113 150 191 234 282 335
#     4   9  21  33  55  86 113 147 181 237 284 329
#     4  11  21  37  57  84 115 147 187 230 283 340
#     4  10  20  34  56  86 113 145 185 237 283 331
#
# _framework density 19.898427000000002
#
# number of rings (size 3 to 8) (size 9 to 14) (size 15 to 20)
#    0.000    1.600    6.000    0.600    2.800    2.400 
#    0.000    0.000    0.000    4.800    0.000    0.000 
#    0.000    0.000    0.000    0.000    0.000    0.000 
#
# Total GULP energy -111479.062737 kJ/mol
# GULP energy per Si atom -5573.953137 kJ/mol
# Density = 1.985314 g / cm^3
# Si number density = 19.898427 Si / 1000 Ang^3
#
#
#
# Elastic Constant Matrix: (Units=GPa)
#
#
# Indices 1 2 3 4 5 6 
#
# 1 71.9599 37.8846 24.5055 0.0000 -36.1557 0.0000
# 2 37.8846 194.0516 52.5974 0.0000 -16.4862 0.0000
# 3 24.5055 52.5974 58.0518 0.0000 -28.2645 0.0000
# 4 0.0000 0.0000 0.0000 -8.6030 0.0000 50.2046
# 5 -36.1557 -16.4862 -28.2645 0.0000 29.1265 0.0000
# 6 0.0000 0.0000 0.0000 50.2046 0.0000 -62.3534
#
#
#
# Elastic Compliance Matrix: (Units=1/GPa)
#
#
# Indices 1 2 3 4 5 6 
#
# 1 0.058782 -0.012535 0.035290 0.000000 0.100118 0.000000
# 2 -0.012535 0.009766 -0.016003 0.000000 -0.025562 0.000000
# 3 0.035290 -0.016003 0.063972 0.000000 0.096827 0.000000
# 4 0.000000 0.000000 0.000000 0.031427 0.000000 0.025304
# 5 0.100118 -0.025562 0.096827 0.000000 0.238107 0.000000
# 6 0.000000 0.000000 0.000000 0.025304 0.000000 0.004336
#
#
# Mechanical properties :
#
#
# Convention : Reuss Voigt Hill
#
# Bulk Modulus (GPa) = 6.84820 61.55982 34.20401
# Shear Modulus (GPa) = 11.32345 5.57241 8.44793
#
# Velocity S-wave (km/s) = 2.38809 1.67526 2.06270
# Velocity P-wave (km/s) = 3.32461 5.89459 4.78535
#
# Compressibility (1/GPa) = 0.14602372
#
# Stress axis : x y z
#
# Youngs Moduli (GPa) = 17.01201 102.39153 15.63181
#
# Poissons Ratio (x) = 1.28352 -0.55165
# Poissons Ratio (y) = 0.21325 0.25015
# Poissons Ratio (z) = -0.60035 1.63856
#
# Static dielectric constant tensor:
#      x y z
#    x 1.759230 0.000000 -0.005580 
#    y 0.000000 1.760880 0.000000 
#    z -0.005580 0.000000 1.724100 
# 
# From -- ./inp_files/77950.got.cif
#   From: 2010.05.17/outbox.cif.g08.bks.cpg/sg15_39_cif.got.tgz:77950.got - 2010.06.03 18:47:42.
