data_PCOD9269508
_publ_section_title
;
Structure prediction by ZEFSAII (Michael W. Deem and Ramdas Pophale) SiO2 
 PCOD9269508
Probable space group: C 2/C
;
_chemical_formula_sum "Si O2"
_cell_formula_units_Z 48
_cell_length_a 7.199945
_cell_length_b 12.247822
_cell_length_c 23.553834
_cell_angle_alpha 90.000000
_cell_angle_beta 106.525765
_cell_angle_gamma 90.000000
_cell_volume 1991.263450
_symmetry_space_group_name_H-M "C 2/C"
_symmetry_group_IT_number 15
_symmetry_cell_setting 'monoclinic'
loop_
_space_group_symop_operation_xyz
x,y,z
-x,y,1/2-z
-x,-y,-z
x,-y,1/2+z
1/2+x,1/2+y,z
1/2-x,1/2+y,1/2-z
1/2-x,1/2-y,-z
1/2+x,1/2-y,1/2+z
loop_
_atom_site_type_symbol
_atom_site_label
_atom_site_fract_x
_atom_site_fract_y
_atom_site_fract_z
Si Si1 0.247545 0.542566 0.414928
Si Si2 0.317855 0.672580 0.856247
Si Si3 0.273743 0.593379 0.731688
Si Si4 0.195485 0.560613 0.534847
Si Si5 0.725372 0.232546 0.623855
Si Si6 0.785204 0.418474 0.861717
O O1 0.298251 0.419606 0.402320
O O2 0.303546 0.571292 0.484601
O O3 0.319325 0.640162 0.380681
O O4 0.015236 0.559702 0.388499
O O5 0.223627 0.615870 0.792299
O O6 0.544116 0.705506 0.865226
O O7 0.233206 0.792097 0.861207
O O8 0.500000 0.623297 0.750000
O O9 0.170760 0.671517 0.677003
O O10 0.262227 0.473135 0.703140
O O11 0.139085 0.672496 0.561231
O O12 0.297873 0.488430 0.592703
O O13 0.000000 0.500000 0.500000
#
# Coordination Sequence:
#
# PCOD9269508 Si02
#       6
#     8   8   8   8   8   8
#     4  10  20  34  57  84 105 142 192 222 276 343
#     4  10  21  34  55  83 106 144 188 224 282 339
#     4   9  19  37  53  71 107 145 177 226 285 329
#     4   9  18  36  57  78 112 147 179 230 282 323
#     4   9  19  37  56  76 110 146 180 231 277 331
#     4   9  20  38  53  78 115 142 178 237 278 326
#
# _framework density 24.105298999999999
#
# number of rings (size 3 to 8) (size 9 to 14) (size 15 to 20)
#    0.000    2.667    0.000    0.500    2.333    2.000 
#    3.000   10.000    0.000    0.000    0.000    0.000 
#    0.000    0.000    0.000    0.000    0.000    0.000 
#
# Total GULP energy -133974.443667 kJ/mol
# GULP energy per Si atom -5582.268486 kJ/mol
# Density = 2.405043 g / cm^3
# Si number density = 24.105299 Si / 1000 Ang^3
#
#
#
# Elastic Constant Matrix: (Units=GPa)
#
#
# Indices 1 2 3 4 5 6 
#
# 1 51.6773 9.9090 10.6793 0.0000 9.7652 0.0000
# 2 9.9090 181.1223 37.7786 0.0000 -5.9921 0.0000
# 3 10.6793 37.7786 94.9828 0.0000 -13.5413 0.0000
# 4 0.0000 0.0000 0.0000 11.4854 0.0000 -4.3692
# 5 9.7652 -5.9921 -13.5413 0.0000 21.6477 0.0000
# 6 0.0000 0.0000 0.0000 -4.3692 0.0000 31.9091
#
#
#
# Elastic Compliance Matrix: (Units=1/GPa)
#
#
# Indices 1 2 3 4 5 6 
#
# 1 0.022833 -0.000826 -0.004106 0.000000 -0.013097 0.000000
# 2 -0.000826 0.006051 -0.002220 0.000000 0.000659 0.000000
# 3 -0.004106 -0.002220 0.013229 0.000000 0.009513 0.000000
# 4 0.000000 0.000000 0.000000 0.091852 0.000000 0.012577
# 5 -0.013097 0.000659 0.009513 0.000000 0.058235 0.000000
# 6 0.000000 0.000000 0.000000 0.012577 0.000000 0.033061
#
#
# Mechanical properties :
#
#
# Convention : Reuss Voigt Hill
#
# Bulk Modulus (GPa) = 35.95931 49.39068 42.67500
# Shear Modulus (GPa) = 20.09373 30.96948 25.53160
#
# Velocity S-wave (km/s) = 2.89031 3.58824 3.25802
# Velocity P-wave (km/s) = 5.10769 6.14014 5.64756
#
# Compressibility (1/GPa) = 0.02780921
#
# Stress axis : x y z
#
# Youngs Moduli (GPa) = 43.79713 165.25737 75.59137
#
# Poissons Ratio (x) = 0.13651 0.31036
# Poissons Ratio (y) = 0.03618 0.16781
# Poissons Ratio (z) = 0.17982 0.36687
#
# Static dielectric constant tensor:
#      x y z
#    x 2.050580 0.000000 -0.011360 
#    y 0.000000 1.906690 0.000000 
#    z -0.011360 0.000000 1.956220 
# 
# From -- ./inp_files/236646.got.cif
#   From: 2010.05.17/outbox.cif.g08.bks.cpg/sg15_119_cif.got.tgz:236646.got - 2010.06.03 18:47:42.
