data_PCOD9269918
_publ_section_title
;
Structure prediction by ZEFSAII (Michael W. Deem and Ramdas Pophale) SiO2 
 PCOD9269918
Probable space group: C 2/C
;
_chemical_formula_sum "Si O2"
_cell_formula_units_Z 48
_cell_length_a 8.918381
_cell_length_b 15.501365
_cell_length_c 25.124652
_cell_angle_alpha 90.000000
_cell_angle_beta 45.115801
_cell_angle_gamma 90.000000
_cell_volume 2461.030558
_symmetry_space_group_name_H-M "C 2/C"
_symmetry_group_IT_number 15
_symmetry_cell_setting 'monoclinic'
loop_
_space_group_symop_operation_xyz
x,y,z
-x,y,1/2-z
-x,-y,-z
x,-y,1/2+z
1/2+x,1/2+y,z
1/2-x,1/2+y,1/2-z
1/2-x,1/2-y,-z
1/2+x,1/2-y,1/2+z
loop_
_atom_site_type_symbol
_atom_site_label
_atom_site_fract_x
_atom_site_fract_y
_atom_site_fract_z
Si Si1 0.998016 0.744001 0.953234
Si Si2 0.983046 0.412814 0.972212
Si Si3 0.227499 0.255416 0.715731
Si Si4 0.228750 0.664833 0.682515
Si Si5 0.580825 0.648224 0.176399
Si Si6 0.942059 0.908874 0.487522
O O1 0.132485 0.718116 0.867499
O O2 0.051311 0.834281 0.969026
O O3 0.750000 0.750000 0.000000
O O4 0.047142 0.670118 0.983177
O O5 0.219048 0.401840 0.892192
O O6 0.000000 0.500000 0.000000
O O7 0.793599 0.414184 0.977557
O O8 0.199396 0.197222 0.776351
O O9 0.373186 0.337675 0.693589
O O10 0.000000 0.277660 0.750000
O O11 0.165375 0.754334 0.668129
O O12 0.396011 0.617039 0.601984
O O13 0.000000 0.619430 0.750000
O O14 0.500000 0.606287 0.250000
O O15 0.000000 0.000000 0.500000
#
# Coordination Sequence:
#
# PCOD9269918 Si02
#       6
#     8   8   8   8   8   8
#     4  12  22  42  69  98 135 176 224 284 339 408
#     4  12  25  42  64  98 138 177 227 279 339 402
#     4  10  20  34  67  99 125 170 230 268 340 403
#     4   9  19  42  66  93 129 176 217 278 340 396
#     4   9  20  39  64  90 127 173 215 275 339 390
#     4  12  26  42  68 102 136 180 233 276 339 406
#
# _framework density 19.504024000000001
#
# number of rings (size 3 to 8) (size 9 to 14) (size 15 to 20)
#    0.000    1.667    3.333    3.500    4.667    0.000 
#    0.000    5.000    0.000    0.000    0.000    0.000 
#    0.000    0.000    0.000    0.000    0.000    0.000 
#
# Total GULP energy -133752.135361 kJ/mol
# GULP energy per Si atom -5573.005640 kJ/mol
# Density = 1.945963 g / cm^3
# Si number density = 19.504024 Si / 1000 Ang^3
#
#
#
# Elastic Constant Matrix: (Units=GPa)
#
#
# Indices 1 2 3 4 5 6 
#
# 1 179.5443 47.0601 45.2838 0.0000 -21.2413 -0.0003
# 2 47.0601 102.8522 25.0090 0.0003 5.8390 -0.0002
# 3 45.2838 25.0090 141.7243 0.0008 -2.0374 -0.0005
# 4 0.0000 0.0003 0.0008 20.2840 -0.0001 5.4287
# 5 -21.2413 5.8390 -2.0374 -0.0001 33.8247 0.0003
# 6 -0.0003 -0.0002 -0.0005 5.4287 0.0003 32.8297
#
#
#
# Elastic Compliance Matrix: (Units=1/GPa)
#
#
# Indices 1 2 3 4 5 6 
#
# 1 0.007481 -0.003294 -0.001735 0.000000 0.005162 0.000000
# 2 -0.003294 0.011728 -0.001077 0.000000 -0.004158 0.000000
# 3 -0.001735 -0.001077 0.007794 0.000000 -0.000434 0.000000
# 4 0.000000 0.000000 0.000000 0.051583 0.000000 -0.008530
# 5 0.005162 -0.004158 -0.000434 0.000000 0.033498 0.000000
# 6 0.000000 0.000000 0.000000 -0.008530 0.000000 0.031871
#
#
# Mechanical properties :
#
#
# Convention : Reuss Voigt Hill
#
# Bulk Modulus (GPa) = 67.60674 73.20297 70.40485
# Shear Modulus (GPa) = 31.03714 37.83885 34.43800
#
# Velocity S-wave (km/s) = 3.99346 4.40938 4.20657
# Velocity P-wave (km/s) = 7.48344 7.97103 7.73108
#
# Compressibility (1/GPa) = 0.01479143
#
# Stress axis : x y z
#
# Youngs Moduli (GPa) = 133.66367 85.26673 128.30294
#
# Poissons Ratio (x) = 0.28090 0.22260
# Poissons Ratio (y) = 0.44034 0.13814
# Poissons Ratio (z) = 0.23190 0.09181
#
# Static dielectric constant tensor:
#      x y z
#    x 1.712650 0.000000 0.049970 
#    y 0.000000 1.621910 0.000000 
#    z 0.049970 0.000000 1.703720 
# 
# From -- ./inp_files/289031.got.cif
#   From: 2010.05.17/outbox.cif.g08.bks.cpg/sg15_145_cif.got.tgz:289031.got - 2010.06.03 18:47:42.
