data_PCOD9269238
_publ_section_title
;
Structure prediction by ZEFSAII (Michael W. Deem and Ramdas Pophale) SiO2 
 PCOD9269238
Probable space group: C 2/C
;
_chemical_formula_sum "Si O2"
_cell_formula_units_Z 56
_cell_length_a 23.291807
_cell_length_b 18.583054
_cell_length_c 9.458896
_cell_angle_alpha 90.000000
_cell_angle_beta 43.517818
_cell_angle_gamma 90.000000
_cell_volume 2819.130648
_symmetry_space_group_name_H-M "C 2/C"
_symmetry_group_IT_number 15
_symmetry_cell_setting 'monoclinic'
loop_
_space_group_symop_operation_xyz
x,y,z
-x,y,1/2-z
-x,-y,-z
x,-y,1/2+z
1/2+x,1/2+y,z
1/2-x,1/2+y,1/2-z
1/2-x,1/2-y,-z
1/2+x,1/2-y,1/2+z
loop_
_atom_site_type_symbol
_atom_site_label
_atom_site_fract_x
_atom_site_fract_y
_atom_site_fract_z
Si Si1 0.822722 0.177111 0.237973
Si Si2 0.757707 0.825336 0.164609
Si Si3 0.197338 0.406469 0.825098
Si Si4 0.589372 0.239950 0.508456
Si Si5 0.016059 0.250088 0.563267
Si Si6 0.627551 0.014273 0.187701
Si Si7 0.405512 0.095029 0.513626
O O1 0.770329 0.166244 0.474245
O O2 0.793338 0.251742 0.220289
O O3 0.792490 0.115983 0.186190
O O4 0.916720 0.193159 0.114588
O O5 0.695279 0.888259 0.321235
O O6 0.848461 0.805602 0.064204
O O7 0.183576 0.438228 0.693718
O O8 0.138583 0.335177 0.947310
O O9 0.169997 0.462442 0.995504
O O10 0.500000 0.239424 0.750000
O O11 0.564381 0.245205 0.389710
O O12 0.055108 0.329934 0.506241
O O13 0.000000 0.225966 0.750000
O O14 0.583205 0.962164 0.380654
O O15 0.574467 0.066601 0.180172
#
# Coordination Sequence:
#
# PCOD9269238 Si02
#       7
#     8   8   8   8   8   8   8
#     4   9  17  33  55  75 101 137 173 222 271 304
#     4   9  17  32  56  77  98 134 179 223 264 307
#     4  10  20  35  53  77 107 136 180 220 252 309
#     4  11  20  33  54  80 105 139 175 213 266 321
#     4  11  22  35  52  81 114 139 169 220 271 313
#     4  10  20  34  54  77 102 144 186 212 250 308
#     4  10  20  37  54  77 109 139 182 220 254 308
#
# _framework density 19.864279
#
# number of rings (size 3 to 8) (size 9 to 14) (size 15 to 20)
#    0.000    2.000    2.857    1.714    0.000    1.143 
#    0.000   18.571    0.000    0.000    0.000   20.000 
#    0.000    0.000    0.000    0.000    0.000    0.000 
#
# Total GULP energy -156037.482855 kJ/mol
# GULP energy per Si atom -5572.767245 kJ/mol
# Density = 1.981907 g / cm^3
# Si number density = 19.864279 Si / 1000 Ang^3
#
#
#
# Elastic Constant Matrix: (Units=GPa)
#
#
# Indices 1 2 3 4 5 6 
#
# 1 142.3731 52.1304 23.0326 0.0000 13.2583 0.0000
# 2 52.1304 45.1845 19.5817 0.0000 2.0378 0.0000
# 3 23.0326 19.5817 44.9220 0.0000 10.9922 0.0000
# 4 0.0000 0.0000 0.0000 22.6799 0.0000 3.0733
# 5 13.2583 2.0378 10.9922 0.0000 35.8762 0.0000
# 6 0.0000 0.0000 0.0000 3.0733 0.0000 37.3720
#
#
#
# Elastic Compliance Matrix: (Units=1/GPa)
#
#
# Indices 1 2 3 4 5 6 
#
# 1 0.012707 -0.014906 0.000999 0.000000 -0.004155 0.000000
# 2 -0.014906 0.044943 -0.013698 0.000000 0.007153 0.000000
# 3 0.000999 -0.013698 0.029858 0.000000 -0.008740 0.000000
# 4 0.000000 0.000000 0.000000 0.044589 0.000000 -0.003667
# 5 -0.004155 0.007153 -0.008740 0.000000 0.031681 0.000000
# 6 0.000000 0.000000 0.000000 -0.003667 0.000000 0.027059
#
#
# Mechanical properties :
#
#
# Convention : Reuss Voigt Hill
#
# Bulk Modulus (GPa) = 30.96196 46.88544 38.92370
# Shear Modulus (GPa) = 19.46940 28.36795 23.91868
#
# Velocity S-wave (km/s) = 3.13409 3.78311 3.47379
# Velocity P-wave (km/s) = 5.35885 6.53733 5.97720
#
# Compressibility (1/GPa) = 0.03229770
#
# Stress axis : x y z
#
# Youngs Moduli (GPa) = 78.69676 22.25052 33.49165
#
# Poissons Ratio (x) = 0.33167 -0.03347
# Poissons Ratio (y) = 1.17305 0.45878
# Poissons Ratio (z) = -0.07863 0.30480
#
# Static dielectric constant tensor:
#      x y z
#    x 1.742960 0.000000 -0.039020 
#    y 0.000000 1.718950 0.000000 
#    z -0.039020 0.000000 1.779760 
# 
# From -- ./inp_files/50105.got.cif
#   From: 2010.05.17/outbox.cif.g08.bks.cpg/sg15_26_cif.got.tgz:50105.got - 2010.06.03 18:47:42.
