data_PCOD9269164
_publ_section_title
;
Structure prediction by ZEFSAII (Michael W. Deem and Ramdas Pophale) SiO2 
 PCOD9269164
Probable space group: C 2/C
;
_chemical_formula_sum "Si O2"
_cell_formula_units_Z 56
_cell_length_a 24.944872
_cell_length_b 13.838935
_cell_length_c 8.204755
_cell_angle_alpha 90.000000
_cell_angle_beta 79.977611
_cell_angle_gamma 90.000000
_cell_volume 2789.144839
_symmetry_space_group_name_H-M "C 2/C"
_symmetry_group_IT_number 15
_symmetry_cell_setting 'monoclinic'
loop_
_space_group_symop_operation_xyz
x,y,z
-x,y,1/2-z
-x,-y,-z
x,-y,1/2+z
1/2+x,1/2+y,z
1/2-x,1/2+y,1/2-z
1/2-x,1/2-y,-z
1/2+x,1/2-y,1/2+z
loop_
_atom_site_type_symbol
_atom_site_label
_atom_site_fract_x
_atom_site_fract_y
_atom_site_fract_z
Si Si1 0.209868 0.547292 0.482232
Si Si2 0.384580 0.272382 0.422900
Si Si3 0.324814 0.401824 0.006552
Si Si4 0.113103 0.946088 0.846567
Si Si5 0.676691 0.854028 0.323824
Si Si6 0.500000 0.500000 0.000000
Si Si7 0.285993 0.768032 0.728956
Si Si8 0.000000 0.824227 0.250000
O O1 0.270763 0.533882 0.518956
O O2 0.187082 0.446323 0.433844
O O3 0.176393 0.601048 0.642450
O O4 0.217318 0.622069 0.328188
O O5 0.378478 0.380349 0.498578
O O6 0.375883 0.202405 0.583359
O O7 0.333857 0.246850 0.333847
O O8 0.443336 0.266419 0.305513
O O9 0.357869 0.402127 0.823424
O O10 0.361603 0.449932 0.125140
O O11 0.304712 0.296677 0.065302
O O12 0.049458 0.960042 0.855094
O O13 0.728474 0.780315 0.308749
O O14 0.503647 0.605665 0.904989
#
# Coordination Sequence:
#
# PCOD9269164 Si02
#       8
#     8   8   8   8   8   4   8   4
#     4  11  22  37  56  84 114 146 187 234 290 344
#     4  11  22  37  56  81 112 150 190 231 280 337
#     4  11  20  33  52  81 115 149 186 230 283 343
#     4  11  20  33  53  79 115 152 188 229 278 336
#     4  11  22  37  58  83 115 150 187 234 286 342
#     4  10  20  34  52  80 112 150 188 226 272 326
#     4  11  22  36  57  85 114 148 188 232 286 344
#     4  10  22  38  58  84 116 152 192 232 278 334
#
# _framework density 20.077838
#
# number of rings (size 3 to 8) (size 9 to 14) (size 15 to 20)
#    0.000    1.143    0.000   10.714    0.000    0.000 
#    0.000    0.000    0.000    3.429    0.000    0.000 
#    0.000    0.000    0.000    0.000    0.000    0.000 
#
# Total GULP energy -155997.731563 kJ/mol
# GULP energy per Si atom -5571.347556 kJ/mol
# Density = 2.003214 g / cm^3
# Si number density = 20.077838 Si / 1000 Ang^3
#
#
#
# Elastic Constant Matrix: (Units=GPa)
#
#
# Indices 1 2 3 4 5 6 
#
# 1 61.6134 28.2627 39.3985 0.0000 -20.1739 0.0000
# 2 28.2627 75.2145 17.1887 0.0000 -12.3964 0.0000
# 3 39.3985 17.1887 93.7320 0.0000 -28.7782 0.0000
# 4 0.0000 0.0000 0.0000 37.3690 0.0000 -3.2164
# 5 -20.1739 -12.3964 -28.7782 0.0000 38.1703 0.0000
# 6 0.0000 0.0000 0.0000 -3.2164 0.0000 18.6339
#
#
#
# Elastic Compliance Matrix: (Units=1/GPa)
#
#
# Indices 1 2 3 4 5 6 
#
# 1 0.026557 -0.007203 -0.008133 0.000000 0.005565 0.000000
# 2 -0.007203 0.016172 0.000658 0.000000 0.001941 0.000000
# 3 -0.008133 0.000658 0.016542 0.000000 0.008386 0.000000
# 4 0.000000 0.000000 0.000000 0.027164 0.000000 0.004689
# 5 0.005565 0.001941 0.008386 0.000000 0.036093 0.000000
# 6 0.000000 0.000000 0.000000 0.004689 0.000000 0.054475
#
#
# Mechanical properties :
#
#
# Convention : Reuss Voigt Hill
#
# Bulk Modulus (GPa) = 33.42991 44.47330 38.95160
# Shear Modulus (GPa) = 23.11277 28.54865 25.83071
#
# Velocity S-wave (km/s) = 3.39655 3.77490 3.59071
# Velocity P-wave (km/s) = 5.66290 6.41859 6.05255
#
# Compressibility (1/GPa) = 0.02991333
#
# Stress axis : x y z
#
# Youngs Moduli (GPa) = 37.65416 61.83690 60.45358
#
# Poissons Ratio (x) = 0.44544 0.49170
# Poissons Ratio (y) = 0.27124 -0.03979
# Poissons Ratio (z) = 0.30626 -0.04070
#
# Static dielectric constant tensor:
#      x y z
#    x 1.749200 0.000000 0.041230 
#    y 0.000000 1.706640 0.000000 
#    z 0.041230 0.000000 1.766660 
# 
# From -- ./inp_files/65480.got.cif
#   From: 2010.05.17/outbox.cif.g08.bks.cpg/sg15_33_cif.got.tgz:65480.got - 2010.06.03 18:47:42.
