data_PCOD9269986
_publ_section_title
;
Structure prediction by ZEFSAII (Michael W. Deem and Ramdas Pophale) SiO2 
 PCOD9269986
Probable space group: C 2/C
;
_chemical_formula_sum "Si O2"
_cell_formula_units_Z 56
_cell_length_a 29.603283
_cell_length_b 16.336452
_cell_length_c 8.505289
_cell_angle_alpha 90.000000
_cell_angle_beta 128.686495
_cell_angle_gamma 90.000000
_cell_volume 3210.723199
_symmetry_space_group_name_H-M "C 2/C"
_symmetry_group_IT_number 15
_symmetry_cell_setting 'monoclinic'
loop_
_space_group_symop_operation_xyz
x,y,z
-x,y,1/2-z
-x,-y,-z
x,-y,1/2+z
1/2+x,1/2+y,z
1/2-x,1/2+y,1/2-z
1/2-x,1/2-y,-z
1/2+x,1/2-y,1/2+z
loop_
_atom_site_type_symbol
_atom_site_label
_atom_site_fract_x
_atom_site_fract_y
_atom_site_fract_z
Si Si1 0.837322 0.758888 0.123496
Si Si2 0.014483 0.411501 0.963144
Si Si3 0.755071 0.385969 0.492133
Si Si4 0.691176 0.707703 0.306127
Si Si5 0.755364 0.440201 0.850495
Si Si6 0.126625 0.658063 0.838678
Si Si7 0.947122 0.282199 0.031431
O O1 0.796887 0.820501 0.136309
O O2 0.902849 0.768583 0.325872
O O3 0.813097 0.667632 0.102497
O O4 0.824455 0.772902 0.910282
O O5 0.000000 0.408144 0.750000
O O6 0.081229 0.388017 0.130260
O O7 0.000000 0.500000 0.000000
O O8 0.978003 0.346584 0.984477
O O9 0.748864 0.421768 0.652851
O O10 0.754199 0.463650 0.377872
O O11 0.750000 0.750000 0.500000
O O12 0.706142 0.611205 0.337454
O O13 0.643054 0.752354 0.306444
O O14 0.816422 0.397753 0.026922
O O15 0.094339 0.672311 0.933241
O O16 0.000000 0.243640 0.250000
#
# Coordination Sequence:
#
# PCOD9269986 Si02
#       7
#     8   8   8   8   8   8   8
#     4  10  20  38  53  78 115 150 185 233 282 337
#     4  11  23  36  51  76 106 146 193 234 276 328
#     4  10  22  33  55  79 111 147 184 228 287 337
#     4   9  20  35  54  80 111 147 190 225 284 341
#     4  10  21  34  51  84 109 144 187 222 283 341
#     4  10  20  35  53  77 110 146 184 235 273 330
#     4  10  21  37  56  78 107 148 192 227 275 335
#
# _framework density 17.441554
#
# number of rings (size 3 to 8) (size 9 to 14) (size 15 to 20)
#    0.000    2.000    1.429    2.143    8.000    1.143 
#    0.000    0.000    0.000    0.000    0.000   17.000 
#    0.000    0.000    0.000    0.000    0.000    0.000 
#
# Total GULP energy -156030.182957 kJ/mol
# GULP energy per Si atom -5572.506534 kJ/mol
# Density = 1.740186 g / cm^3
# Si number density = 17.441554 Si / 1000 Ang^3
#
#
#
# Elastic Constant Matrix: (Units=GPa)
#
#
# Indices 1 2 3 4 5 6 
#
# 1 54.8234 17.6509 21.0554 0.0000 1.6408 0.0000
# 2 17.6509 79.5856 17.1056 0.0000 3.5613 0.0000
# 3 21.0554 17.1056 113.4085 0.0000 9.2249 0.0000
# 4 0.0000 0.0000 0.0000 14.7017 0.0000 -7.2044
# 5 1.6408 3.5613 9.2249 0.0000 29.2727 0.0000
# 6 0.0000 0.0000 0.0000 -7.2044 0.0000 12.1580
#
#
#
# Elastic Compliance Matrix: (Units=1/GPa)
#
#
# Indices 1 2 3 4 5 6 
#
# 1 0.020753 -0.003911 -0.003292 0.000000 0.000350 0.000000
# 2 -0.003911 0.013751 -0.001262 0.000000 -0.001056 0.000000
# 3 -0.003292 -0.001262 0.009844 0.000000 -0.002764 0.000000
# 4 0.000000 0.000000 0.000000 0.095853 0.000000 0.056799
# 5 0.000350 -0.001056 -0.002764 0.000000 0.035142 0.000000
# 6 0.000000 0.000000 0.000000 0.056799 0.000000 0.115908
#
#
# Mechanical properties :
#
#
# Convention : Reuss Voigt Hill
#
# Bulk Modulus (GPa) = 36.47110 39.93793 38.20452
# Shear Modulus (GPa) = 15.75700 24.02684 19.89192
#
# Velocity S-wave (km/s) = 3.00895 3.71558 3.38078
# Velocity P-wave (km/s) = 5.74696 6.43080 6.09848
#
# Compressibility (1/GPa) = 0.02741897
#
# Stress axis : x y z
#
# Youngs Moduli (GPa) = 48.18521 72.72204 101.58460
#
# Poissons Ratio (x) = 0.28441 0.33438
# Poissons Ratio (y) = 0.18845 0.12821
# Poissons Ratio (z) = 0.15861 0.09178
#
# Static dielectric constant tensor:
#      x y z
#    x 1.606600 0.000000 0.004670 
#    y 0.000000 1.590290 0.000000 
#    z 0.004670 0.000000 1.628710 
# 
# From -- ./inp_files/69969.got.cif
#   From: 2010.05.17/outbox.cif.g08.bks.cpg/sg15_35_cif.got.tgz:69969.got - 2010.06.03 18:47:42.
