data_PCOD9269231
_publ_section_title
;
Structure prediction by ZEFSAII (Michael W. Deem and Ramdas Pophale) SiO2 
 PCOD9269231
Probable space group: C 2/C
;
_chemical_formula_sum "Si O2"
_cell_formula_units_Z 64
_cell_length_a 27.159551
_cell_length_b 14.240659
_cell_length_c 9.334907
_cell_angle_alpha 90.000000
_cell_angle_beta 111.071059
_cell_angle_gamma 90.000000
_cell_volume 3369.048531
_symmetry_space_group_name_H-M "C 2/C"
_symmetry_group_IT_number 15
_symmetry_cell_setting 'monoclinic'
loop_
_space_group_symop_operation_xyz
x,y,z
-x,y,1/2-z
-x,-y,-z
x,-y,1/2+z
1/2+x,1/2+y,z
1/2-x,1/2+y,1/2-z
1/2-x,1/2-y,-z
1/2+x,1/2-y,1/2+z
loop_
_atom_site_type_symbol
_atom_site_label
_atom_site_fract_x
_atom_site_fract_y
_atom_site_fract_z
Si Si1 0.396056 0.646184 0.422697
Si Si2 0.691925 0.126667 0.967871
Si Si3 0.269442 0.874884 0.567153
Si Si4 0.198795 0.527990 0.688228
Si Si5 0.316818 0.664763 0.093117
Si Si6 0.995349 0.099559 0.075336
Si Si7 0.378753 0.422127 0.416360
Si Si8 0.337694 0.294762 0.124521
O O1 0.349774 0.680670 0.270788
O O2 0.455355 0.661133 0.426738
O O3 0.388024 0.533058 0.411777
O O4 0.386192 0.692052 0.566900
O O5 0.675584 0.094620 0.789279
O O6 0.679252 0.234935 0.982486
O O7 0.756475 0.131165 0.045481
O O8 0.670091 0.050240 0.057664
O O9 0.275501 0.909111 0.409037
O O10 0.320114 0.809311 0.655333
O O11 0.214650 0.821678 0.519432
O O12 0.266312 0.960986 0.673519
O O13 0.348211 0.590378 0.032257
O O14 0.000000 0.085194 0.250000
O O15 0.935492 0.129764 0.982015
O O16 0.000000 0.000000 0.000000
O O17 0.346276 0.370438 0.258405
#
# Coordination Sequence:
#
# PCOD9269231 Si02
#       8
#     8   8   8   8   8   8   8   8
#     4  11  23  34  57  77 108 148 188 215 268 319
#     4  10  22  33  50  76 108 134 185 227 258 316
#     4  10  22  37  50  78 116 140 187 225 266 308
#     4  10  20  34  54  68 102 152 174 216 266 324
#     4  11  21  35  50  77 105 142 178 229 264 309
#     4  10  22  40  52  78 110 141 186 240 264 307
#     4  11  23  34  57  77 108 148 188 215 268 319
#     4  11  23  35  52  81 111 146 178 237 260 315
#
# _framework density 18.996461
#
# number of rings (size 3 to 8) (size 9 to 14) (size 15 to 20)
#    0.000    1.500    1.250    3.750   15.750    4.000 
#    0.000    0.000    0.000    0.000    0.000    0.000 
#    0.000   70.000    0.000    0.000    0.000    0.000 
#
# Total GULP energy -178288.488432 kJ/mol
# GULP energy per Si atom -5571.515263 kJ/mol
# Density = 1.895322 g / cm^3
# Si number density = 18.996461 Si / 1000 Ang^3
#
#
#
# Elastic Constant Matrix: (Units=GPa)
#
#
# Indices 1 2 3 4 5 6 
#
# 1 44.0116 12.7232 12.6430 0.0000 3.4119 0.0000
# 2 12.7232 61.8367 4.9886 0.0000 7.7923 0.0000
# 3 12.6430 4.9886 58.8223 0.0000 -8.1339 0.0000
# 4 0.0000 0.0000 0.0000 22.8719 0.0000 -6.6448
# 5 3.4119 7.7923 -8.1339 0.0000 23.8342 0.0000
# 6 0.0000 0.0000 0.0000 -6.6448 0.0000 12.7114
#
#
#
# Elastic Compliance Matrix: (Units=1/GPa)
#
#
# Indices 1 2 3 4 5 6 
#
# 1 0.025975 -0.004336 -0.005807 0.000000 -0.004283 0.000000
# 2 -0.004336 0.017893 -0.001373 0.000000 -0.005698 0.000000
# 3 -0.005807 -0.001373 0.019460 0.000000 0.007922 0.000000
# 4 0.000000 0.000000 0.000000 0.051551 0.000000 0.026948
# 5 -0.004283 -0.005698 0.007922 0.000000 0.047136 0.000000
# 6 0.000000 0.000000 0.000000 0.026948 0.000000 0.092756
#
#
# Mechanical properties :
#
#
# Convention : Reuss Voigt Hill
#
# Bulk Modulus (GPa) = 24.81751 25.04225 24.92988
# Shear Modulus (GPa) = 17.16818 20.83787 19.00302
#
# Velocity S-wave (km/s) = 3.00952 3.31559 3.16625
# Velocity P-wave (km/s) = 5.01686 5.27909 5.14964
#
# Compressibility (1/GPa) = 0.04029413
#
# Stress axis : x y z
#
# Youngs Moduli (GPa) = 38.49838 55.88886 51.38634
#
# Poissons Ratio (x) = 0.24235 0.29842
# Poissons Ratio (y) = 0.16694 0.07057
# Poissons Ratio (z) = 0.22357 0.07675
#
# Static dielectric constant tensor:
#      x y z
#    x 1.671780 0.000000 -0.012460 
#    y 0.000000 1.721620 0.000000 
#    z -0.012460 0.000000 1.705150 
# 
# From -- ./inp_files/69951.got.cif
#   From: 2010.05.17/outbox.cif.g08.bks.cpg/sg15_35_cif.got.tgz:69951.got - 2010.06.03 18:47:42.
