data_PCOD9269664
_publ_section_title
;
Structure prediction by ZEFSAII (Michael W. Deem and Ramdas Pophale) SiO2 
 PCOD9269664
Probable space group: C 2/C
;
_chemical_formula_sum "Si O2"
_cell_formula_units_Z 60
_cell_length_a 24.937860
_cell_length_b 14.653987
_cell_length_c 8.781692
_cell_angle_alpha 90.000000
_cell_angle_beta 108.905174
_cell_angle_gamma 90.000000
_cell_volume 3036.058096
_symmetry_space_group_name_H-M "C 2/C"
_symmetry_group_IT_number 15
_symmetry_cell_setting 'monoclinic'
loop_
_space_group_symop_operation_xyz
x,y,z
-x,y,1/2-z
-x,-y,-z
x,-y,1/2+z
1/2+x,1/2+y,z
1/2-x,1/2+y,1/2-z
1/2-x,1/2-y,-z
1/2+x,1/2-y,1/2+z
loop_
_atom_site_type_symbol
_atom_site_label
_atom_site_fract_x
_atom_site_fract_y
_atom_site_fract_z
Si Si1 0.335521 0.993970 0.997763
Si Si2 0.730989 0.918642 0.810622
Si Si3 0.683206 0.821992 0.187244
Si Si4 0.500000 0.286900 0.750000
Si Si5 0.689839 0.718669 0.744620
Si Si6 0.385622 0.816171 0.071305
Si Si7 0.150503 0.869788 0.502421
Si Si8 0.978797 0.096125 0.548110
O O1 0.342107 0.092537 0.927352
O O2 0.282370 0.939815 0.875164
O O3 0.314157 0.018701 0.145186
O O4 0.386712 0.923073 0.024404
O O5 0.713946 0.814624 0.836386
O O6 0.796161 0.933643 0.908218
O O7 0.751639 0.828176 0.253788
O O8 0.657896 0.818900 0.330215
O O9 0.663790 0.726678 0.095751
O O10 0.555562 0.225484 0.823316
O O11 0.506960 0.338766 0.589059
O O12 0.644510 0.752837 0.580998
O O13 0.657599 0.654168 0.832032
O O14 0.089237 0.903485 0.494216
O O15 0.000000 0.112157 0.750000
O O16 0.000000 0.000000 0.500000
#
# Coordination Sequence:
#
# PCOD9269664 Si02
#       8
#     8   8   8   4   8   8   8   8
#     4  11  20  36  60  96 135 166 209 268 339 400
#     4  10  20  34  58  95 132 160 205 270 334 418
#     4  11  19  38  64  95 134 172 211 278 351 413
#     4  12  26  54  70  98 140 186 246 284 332 406
#     4  10  20  37  65  99 127 168 221 271 350 425
#     4  11  24  40  67  93 135 184 225 282 338 405
#     4  11  21  40  66  92 128 174 218 267 355 408
#     4  12  27  49  73  98 133 181 235 294 336 397
#
# _framework density 19.762467000000001
#
# number of rings (size 3 to 8) (size 9 to 14) (size 15 to 20)
#    0.000    1.067    6.000    2.000    0.000    1.067 
#    2.400    0.667    1.467    0.000    0.000    0.000 
#    0.000    0.000    0.000    0.000    0.000    0.000 
#
# Total GULP energy -167046.140249 kJ/mol
# GULP energy per Si atom -5568.204675 kJ/mol
# Density = 1.971749 g / cm^3
# Si number density = 19.762467 Si / 1000 Ang^3
#
#
#
# Elastic Constant Matrix: (Units=GPa)
#
#
# Indices 1 2 3 4 5 6 
#
# 1 122.0009 43.4275 45.2803 0.0000 -0.8172 0.0000
# 2 43.4275 75.7254 25.6987 0.0000 11.1312 0.0000
# 3 45.2803 25.6987 93.5777 0.0000 4.3624 0.0000
# 4 0.0000 0.0000 0.0000 -0.4070 0.0000 3.4335
# 5 -0.8172 11.1312 4.3624 0.0000 30.0542 0.0000
# 6 0.0000 0.0000 0.0000 3.4335 0.0000 16.3986
#
#
#
# Elastic Compliance Matrix: (Units=1/GPa)
#
#
# Indices 1 2 3 4 5 6 
#
# 1 0.011881 -0.005811 -0.004298 0.000000 0.003099 0.000000
# 2 -0.005811 0.018141 -0.001862 0.000000 -0.006607 0.000000
# 3 -0.004298 -0.001862 0.013341 0.000000 -0.001364 0.000000
# 4 0.000000 0.000000 0.000000 -0.888198 0.000000 0.185971
# 5 0.003099 -0.006607 -0.001364 0.000000 0.036002 0.000000
# 6 0.000000 0.000000 0.000000 0.185971 0.000000 0.022042
#
#
# Mechanical properties :
#
#
# Convention : Reuss Voigt Hill
#
# Bulk Modulus (GPa) = 51.48905 57.79078 54.63991
# Shear Modulus (GPa) = -6.61047 21.00235 7.19594
#
# Velocity S-wave (km/s) = -1.83091 3.26351 1.91027
# Velocity P-wave (km/s) = 4.65198 6.59597 5.70735
#
# Compressibility (1/GPa) = 0.01942161
#
# Stress axis : x y z
#
# Youngs Moduli (GPa) = 84.16958 55.12368 74.95775
#
# Poissons Ratio (x) = 0.32030 0.32214
# Poissons Ratio (y) = 0.48907 0.13960
# Poissons Ratio (z) = 0.36173 0.10266
#
# Static dielectric constant tensor:
#      x y z
#    x 1.664170 0.000000 -0.026020 
#    y 0.000000 1.882460 0.000000 
#    z -0.026020 0.000000 1.778980 
# 
# From -- ./inp_files/61592.got.cif
#   From: 2010.05.17/outbox.cif.g08.bks.cpg/sg15_31_cif.got.tgz:61592.got - 2010.06.03 18:47:42.
