data_PCOD9269826
_publ_section_title
;
Structure prediction by ZEFSAII (Michael W. Deem and Ramdas Pophale) SiO2 
 PCOD9269826
Probable space group: C 2/C
;
_chemical_formula_sum "Si O2"
_cell_formula_units_Z 44
_cell_length_a 8.834308
_cell_length_b 25.683817
_cell_length_c 11.571164
_cell_angle_alpha 90.000000
_cell_angle_beta 136.254057
_cell_angle_gamma 90.000000
_cell_volume 1815.421233
_symmetry_space_group_name_H-M "C 2/C"
_symmetry_group_IT_number 15
_symmetry_cell_setting 'monoclinic'
loop_
_space_group_symop_operation_xyz
x,y,z
-x,y,1/2-z
-x,-y,-z
x,-y,1/2+z
1/2+x,1/2+y,z
1/2-x,1/2+y,1/2-z
1/2-x,1/2-y,-z
1/2+x,1/2-y,1/2+z
loop_
_atom_site_type_symbol
_atom_site_label
_atom_site_fract_x
_atom_site_fract_y
_atom_site_fract_z
Si Si1 0.934912 0.720189 0.029809
Si Si2 0.380582 0.417064 0.793056
Si Si3 0.722670 0.960156 0.930087
Si Si4 0.423796 0.300369 0.836358
Si Si5 0.500000 0.061753 0.750000
Si Si6 0.889601 0.606521 0.927445
O O1 0.161836 0.703642 0.215021
O O2 0.750000 0.750000 0.000000
O O3 0.018883 0.760378 0.979540
O O4 0.838842 0.666854 0.923922
O O5 0.500000 0.442202 0.750000
O O6 0.381377 0.449261 0.911130
O O7 0.485674 0.360942 0.880971
O O8 0.139006 0.404335 0.608329
O O9 0.500000 0.935639 0.750000
O O10 0.658691 0.020468 0.902382
O O11 0.752309 0.931327 0.067732
O O12 0.500000 0.285951 0.750000
O O13 0.386148 0.093387 0.789870
#
# Coordination Sequence:
#
# PCOD9269826 Si02
#       6
#     8   8   8   8   4   8
#     4  11  22  37  61  87 124 159 205 254 307 365
#     4   9  18  35  58  85 115 155 202 241 297 365
#     4   8  17  32  59  79 110 151 196 243 291 356
#     4  10  21  37  58  87 119 163 201 250 301 367
#     4  10  20  34  62  86 114 152 204 252 298 358
#     4  10  20  36  59  86 116 155 202 246 304 364
#
# _framework density 24.236799999999999
#
# number of rings (size 3 to 8) (size 9 to 14) (size 15 to 20)
#    0.545    1.818    0.000    2.727    1.273    2.909 
#    0.000    0.909    0.000    0.000    0.000    0.000 
#    0.000    0.000    0.000    0.000    0.000    0.000 
#
# Total GULP energy -122799.221860 kJ/mol
# GULP energy per Si atom -5581.782812 kJ/mol
# Density = 2.418164 g / cm^3
# Si number density = 24.236800 Si / 1000 Ang^3
#
#
#
# Elastic Constant Matrix: (Units=GPa)
#
#
# Indices 1 2 3 4 5 6 
#
# 1 159.3898 58.2568 26.5189 0.0000 -34.4045 0.0000
# 2 58.2568 118.2118 32.9747 0.0000 -36.1522 0.0000
# 3 26.5189 32.9747 53.1467 0.0000 -15.2212 0.0000
# 4 0.0000 0.0000 0.0000 20.7166 0.0000 -6.3508
# 5 -34.4045 -36.1522 -15.2212 0.0000 47.7654 0.0000
# 6 0.0000 0.0000 0.0000 -6.3508 0.0000 21.9045
#
#
#
# Elastic Compliance Matrix: (Units=1/GPa)
#
#
# Indices 1 2 3 4 5 6 
#
# 1 0.008215 -0.002557 -0.001510 0.000000 0.003501 0.000000
# 2 -0.002557 0.013093 -0.004993 0.000000 0.006477 0.000000
# 3 -0.001510 -0.004993 0.023410 0.000000 0.002593 0.000000
# 4 0.000000 0.000000 0.000000 0.052979 0.000000 0.015360
# 5 0.003501 0.006477 0.002593 0.000000 0.029186 0.000000
# 6 0.000000 0.000000 0.000000 0.015360 0.000000 0.050106
#
#
# Mechanical properties :
#
#
# Convention : Reuss Voigt Hill
#
# Bulk Modulus (GPa) = 37.59564 62.91657 50.25611
# Shear Modulus (GPa) = 24.51275 32.27714 28.39495
#
# Velocity S-wave (km/s) = 3.18368 3.65326 3.42652
# Velocity P-wave (km/s) = 5.39072 6.61895 6.03616
#
# Compressibility (1/GPa) = 0.02659883
#
# Stress axis : x y z
#
# Youngs Moduli (GPa) = 121.72303 76.37703 42.71701
#
# Poissons Ratio (x) = 0.19527 0.06451
# Poissons Ratio (y) = 0.31121 0.21327
# Poissons Ratio (z) = 0.18384 0.38133
#
# Static dielectric constant tensor:
#      x y z
#    x 2.028400 0.000000 0.076210 
#    y 0.000000 1.910900 0.000000 
#    z 0.076210 0.000000 2.014130 
# 
# From -- ./inp_files/81557.got.cif
#   From: 2010.05.17/outbox.cif.g08.bks.cpg/sg15_41_cif.got.tgz:81557.got - 2010.06.03 18:47:42.
