data_PCOD9269092
_publ_section_title
;
Structure prediction by ZEFSAII (Michael W. Deem and Ramdas Pophale) SiO2 
 PCOD9269092
Probable space group: C 2/C
;
_chemical_formula_sum "Si O2"
_cell_formula_units_Z 48
_cell_length_a 9.186107
_cell_length_b 15.895142
_cell_length_c 20.158703
_cell_angle_alpha 90.000000
_cell_angle_beta 55.564677
_cell_angle_gamma 90.000000
_cell_volume 2427.664910
_symmetry_space_group_name_H-M "C 2/C"
_symmetry_group_IT_number 15
_symmetry_cell_setting 'monoclinic'
loop_
_space_group_symop_operation_xyz
x,y,z
-x,y,1/2-z
-x,-y,-z
x,-y,1/2+z
1/2+x,1/2+y,z
1/2-x,1/2+y,1/2-z
1/2-x,1/2-y,-z
1/2+x,1/2-y,1/2+z
loop_
_atom_site_type_symbol
_atom_site_label
_atom_site_fract_x
_atom_site_fract_y
_atom_site_fract_z
Si Si1 0.001162 0.312196 0.916794
Si Si2 0.371187 0.379513 0.840193
Si Si3 0.082581 0.470753 0.655016
Si Si4 0.056789 0.996423 0.378299
Si Si5 0.242088 0.446046 0.306319
Si Si6 0.172081 0.848533 0.090246
O O1 0.956717 0.387826 0.877423
O O2 0.965857 0.225244 0.888272
O O3 0.199409 0.322901 0.892602
O O4 0.858717 0.320417 0.011974
O O5 0.500000 0.344241 0.750000
O O6 0.482129 0.412726 0.874393
O O7 0.297944 0.468048 0.829551
O O8 0.288304 0.491938 0.608908
O O9 0.000000 0.457346 0.750000
O O10 0.965812 0.545691 0.653589
O O11 0.154982 0.953314 0.289303
O O12 0.897884 0.931625 0.430535
O O13 0.298456 0.372373 0.340698
#
# Coordination Sequence:
#
# PCOD9269092 Si02
#       6
#     8   8   8   8   8   8
#     4  10  21  34  50  75 105 137 171 209 254 308
#     4   8  15  31  52  72  95 128 171 211 249 299
#     4   9  18  33  53  78 102 128 173 222 256 300
#     4   9  17  32  54  77 100 130 174 219 257 302
#     4   8  16  32  54  75  99 135 174 212 254 303
#     4  10  20  34  50  73 107 139 170 207 253 312
#
# _framework density 19.772085000000001
#
# number of rings (size 3 to 8) (size 9 to 14) (size 15 to 20)
#    0.000    3.000    0.000    2.500    0.000    8.000 
#    0.000    4.167    0.000    4.000    0.000    0.000 
#    0.000    0.000    0.000    0.000    0.000    0.000 
#
# Total GULP energy -133746.275135 kJ/mol
# GULP energy per Si atom -5572.761464 kJ/mol
# Density = 1.972708 g / cm^3
# Si number density = 19.772085 Si / 1000 Ang^3
#
#
#
# Elastic Constant Matrix: (Units=GPa)
#
#
# Indices 1 2 3 4 5 6 
#
# 1 143.2327 25.9760 23.5509 0.0000 -21.4402 0.0000
# 2 25.9760 51.8692 21.2604 0.0000 -2.0243 0.0000
# 3 23.5509 21.2604 30.8525 0.0000 -1.6863 -0.0001
# 4 0.0000 0.0000 0.0000 26.2086 0.0000 -4.1372
# 5 -21.4402 -2.0243 -1.6863 0.0000 29.8104 0.0000
# 6 0.0000 0.0000 -0.0001 -4.1372 0.0000 21.8283
#
#
#
# Elastic Compliance Matrix: (Units=1/GPa)
#
#
# Indices 1 2 3 4 5 6 
#
# 1 0.009146 -0.002253 -0.005094 0.000000 0.006137 0.000000
# 2 -0.002253 0.027441 -0.017230 0.000000 -0.000732 0.000000
# 3 -0.005094 -0.017230 0.048058 0.000000 -0.002115 0.000000
# 4 0.000000 0.000000 0.000000 0.039332 0.000000 0.007455
# 5 0.006137 -0.000732 -0.002115 0.000000 0.037790 0.000000
# 6 0.000000 0.000000 0.000000 0.007455 0.000000 0.047225
#
#
# Mechanical properties :
#
#
# Convention : Reuss Voigt Hill
#
# Bulk Modulus (GPa) = 28.17513 40.83654 34.50583
# Shear Modulus (GPa) = 18.52007 25.91394 22.21701
#
# Velocity S-wave (km/s) = 3.06384 3.62419 3.35573
# Velocity P-wave (km/s) = 5.17659 6.18155 5.70125
#
# Compressibility (1/GPa) = 0.03549230
#
# Stress axis : x y z
#
# Youngs Moduli (GPa) = 109.33190 36.44138 20.80815
#
# Poissons Ratio (x) = 0.08211 0.10599
# Poissons Ratio (y) = 0.24634 0.35852
# Poissons Ratio (z) = 0.55691 0.62788
#
# Static dielectric constant tensor:
#      x y z
#    x 1.742750 0.000000 -0.019830 
#    y 0.000000 1.675260 0.000000 
#    z -0.019830 0.000000 1.731000 
# 
# From -- ./inp_files/232026.got.cif
#   From: 2010.05.17/outbox.cif.g08.bks.cpg/sg15_117_cif.got.tgz:232026.got - 2010.06.03 18:47:42.
