data_PCOD9269970
_publ_section_title
;
Structure prediction by ZEFSAII (Michael W. Deem and Ramdas Pophale) SiO2 
 PCOD9269970
Probable space group: C 2/C
;
_chemical_formula_sum "Si O2"
_cell_formula_units_Z 48
_cell_length_a 15.058969
_cell_length_b 22.864669
_cell_length_c 8.524002
_cell_angle_alpha 90.000000
_cell_angle_beta 127.920682
_cell_angle_gamma 90.000000
_cell_volume 2315.287355
_symmetry_space_group_name_H-M "C 2/C"
_symmetry_group_IT_number 15
_symmetry_cell_setting 'monoclinic'
loop_
_space_group_symop_operation_xyz
x,y,z
-x,y,1/2-z
-x,-y,-z
x,-y,1/2+z
1/2+x,1/2+y,z
1/2-x,1/2+y,1/2-z
1/2-x,1/2-y,-z
1/2+x,1/2-y,1/2+z
loop_
_atom_site_type_symbol
_atom_site_label
_atom_site_fract_x
_atom_site_fract_y
_atom_site_fract_z
Si Si1 0.607103 0.921502 0.283192
Si Si2 0.697675 0.363819 0.415711
Si Si3 0.000000 0.777625 0.250000
Si Si4 0.000000 0.090297 0.250000
Si Si5 0.300085 0.604987 0.229223
Si Si6 0.432122 0.835490 0.528995
Si Si7 0.682513 0.530378 0.673323
O O1 0.500000 0.952031 0.250000
O O2 0.691166 0.892915 0.501117
O O3 0.694668 0.959840 0.274761
O O4 0.554355 0.872180 0.113055
O O5 0.595389 0.319791 0.289728
O O6 0.721982 0.367396 0.626582
O O7 0.802261 0.339313 0.434104
O O8 0.674561 0.427472 0.316267
O O9 0.034063 0.732275 0.424713
O O10 0.087397 0.126536 0.237367
O O11 0.083588 0.051848 0.449889
O O12 0.326391 0.536554 0.289842
O O13 0.500000 0.863355 0.750000
#
# Coordination Sequence:
#
# PCOD9269970 Si02
#       7
#     8   8   4   4   8   8   8
#     4  10  21  39  60  83 119 157 193 242 294 345
#     4  11  20  38  63  89 117 155 196 240 286 353
#     4  10  22  37  64  86 110 150 208 245 294 338
#     4  10  20  35  52  82 124 156 186 227 276 342
#     4  11  22  36  60  90 124 157 189 232 294 353
#     4   9  21  39  62  82 114 149 203 249 291 338
#     4  10  22  37  59  91 124 156 192 231 287 355
#
# _framework density 20.731767999999999
#
# number of rings (size 3 to 8) (size 9 to 14) (size 15 to 20)
#    0.500    1.333    0.000    5.000    0.000    2.000 
#    0.000    5.000   11.000    0.000    0.000    0.000 
#    0.000    0.000    0.000    0.000    0.000    0.000 
#
# Total GULP energy -133956.835625 kJ/mol
# GULP energy per Si atom -5581.534818 kJ/mol
# Density = 2.068458 g / cm^3
# Si number density = 20.731768 Si / 1000 Ang^3
#
#
#
# Elastic Constant Matrix: (Units=GPa)
#
#
# Indices 1 2 3 4 5 6 
#
# 1 69.9313 -16.4066 16.5049 0.0000 -2.3907 0.0000
# 2 -16.4066 22.4206 -10.6482 0.0000 -5.3046 0.0000
# 3 16.5049 -10.6482 66.1848 0.0000 -2.0134 0.0000
# 4 0.0000 0.0000 0.0000 21.5156 0.0000 1.6833
# 5 -2.3907 -5.3046 -2.0134 0.0000 34.9221 0.0000
# 6 0.0000 0.0000 0.0000 1.6833 0.0000 -0.7579
#
#
#
# Elastic Compliance Matrix: (Units=1/GPa)
#
#
# Indices 1 2 3 4 5 6 
#
# 1 0.017942 0.012738 -0.002333 0.000000 0.003029 0.000000
# 2 0.012738 0.059552 0.006718 0.000000 0.010305 0.000000
# 3 -0.002333 0.006718 0.016828 0.000000 0.001831 0.000000
# 4 0.000000 0.000000 0.000000 0.039597 0.000000 0.087947
# 5 0.003029 0.010305 0.001831 0.000000 0.030513 0.000000
# 6 0.000000 0.000000 0.000000 0.087947 0.000000 -1.124098
#
#
# Mechanical properties :
#
#
# Convention : Reuss Voigt Hill
#
# Bulk Modulus (GPa) = 7.77797 15.27078 11.52437
# Shear Modulus (GPa) = -5.25731 22.40841 8.57555
#
# Velocity S-wave (km/s) = -1.59417 3.29123 2.03603
# Velocity P-wave (km/s) = 0.60939 4.67170 3.33138
#
# Compressibility (1/GPa) = 0.12856827
#
# Stress axis : x y z
#
# Youngs Moduli (GPa) = 55.73395 16.79209 59.42649
#
# Poissons Ratio (x) = -0.21390 0.13863
# Poissons Ratio (y) = -0.70995 -0.39923
# Poissons Ratio (z) = 0.13002 -0.11281
#
# Static dielectric constant tensor:
#      x y z
#    x 1.777190 0.000000 -0.014910 
#    y 0.000000 1.710760 0.000000 
#    z -0.014910 0.000000 1.758520 
# 
# From -- ./inp_files/43995.got.cif
#   From: 2010.05.17/outbox.cif.g08.bks.cpg/sg15_22_cif.got.tgz:43995.got - 2010.06.03 18:47:42.
