data_PCOD9269393
_publ_section_title
;
Structure prediction by ZEFSAII (Michael W. Deem and Ramdas Pophale) SiO2 
 PCOD9269393
Probable space group: C 2/C
;
_chemical_formula_sum "Si O2"
_cell_formula_units_Z 28
_cell_length_a 9.195674
_cell_length_b 10.843175
_cell_length_c 20.975087
_cell_angle_alpha 90.000000
_cell_angle_beta 41.028585
_cell_angle_gamma 90.000000
_cell_volume 1372.890332
_symmetry_space_group_name_H-M "C 2/C"
_symmetry_group_IT_number 15
_symmetry_cell_setting 'monoclinic'
loop_
_space_group_symop_operation_xyz
x,y,z
-x,y,1/2-z
-x,-y,-z
x,-y,1/2+z
1/2+x,1/2+y,z
1/2-x,1/2+y,1/2-z
1/2-x,1/2-y,-z
1/2+x,1/2-y,1/2+z
loop_
_atom_site_type_symbol
_atom_site_label
_atom_site_fract_x
_atom_site_fract_y
_atom_site_fract_z
Si Si1 0.914617 0.067174 0.465518
Si Si2 0.500000 0.722005 0.250000
Si Si3 0.752562 0.998479 0.392896
Si Si4 0.577201 0.817665 0.355610
O O1 0.103329 0.020026 0.591000
O O2 0.174763 0.131235 0.158009
O O3 0.059288 0.185640 0.396864
O O4 0.000000 0.000000 0.500000
O O5 0.614768 0.797858 0.268281
O O6 0.749498 0.902124 0.336324
O O7 0.500000 0.000000 0.500000
O O8 0.666836 0.119785 0.559414
#
# Coordination Sequence:
#
# PCOD9269393 Si02
#       4
#     8   4   8   8
#     4   9  18  34  57  80 104 141 181 220 274 329
#     4  10  20  34  56  80 108 144 184 226 272 320
#     4   9  19  37  56  78 109 142 181 224 269 326
#     4   9  19  35  53  76 109 141 176 227 272 316
#
# _framework density 20.394928
#
# number of rings (size 3 to 8) (size 9 to 14) (size 15 to 20)
#    0.000    2.857    0.000    1.714    0.000    5.714 
#    0.000    5.714    0.000    0.000    0.000    0.000 
#    0.000    0.000    0.000    0.000    0.000    0.000 
#
# Total GULP energy -78076.132725 kJ/mol
# GULP energy per Si atom -5576.866623 kJ/mol
# Density = 2.034851 g / cm^3
# Si number density = 20.394928 Si / 1000 Ang^3
#
#
#
# Elastic Constant Matrix: (Units=GPa)
#
#
# Indices 1 2 3 4 5 6 
#
# 1 80.9470 55.3403 54.4626 -0.0001 41.3670 0.0003
# 2 55.3403 71.9982 46.8505 -0.0001 48.3456 0.0002
# 3 54.4626 46.8505 139.4766 -0.0001 58.1358 0.0001
# 4 -0.0001 -0.0001 -0.0001 39.4932 0.0001 13.4615
# 5 41.3670 48.3456 58.1358 0.0001 68.6095 -0.0002
# 6 0.0003 0.0002 0.0001 13.4615 -0.0002 30.3071
#
#
#
# Elastic Compliance Matrix: (Units=1/GPa)
#
#
# Indices 1 2 3 4 5 6 
#
# 1 0.028342 -0.018814 -0.004871 0.000000 0.000296 0.000000
# 2 -0.018814 0.039122 0.001496 0.000000 -0.017491 0.000000
# 3 -0.004871 0.001496 0.012035 0.000000 -0.008315 0.000000
# 4 0.000000 0.000000 0.000000 0.029838 0.000000 -0.013253
# 5 0.000296 -0.017491 -0.008315 0.000000 0.033768 0.000000
# 6 0.000000 0.000000 0.000000 -0.013253 0.000000 0.038882
#
#
# Mechanical properties :
#
#
# Convention : Reuss Voigt Hill
#
# Bulk Modulus (GPa) = 28.47271 67.30316 47.88794
# Shear Modulus (GPa) = 21.00209 36.73317 28.86763
#
# Velocity S-wave (km/s) = 3.21248 4.24853 3.76630
# Velocity P-wave (km/s) = 5.26793 7.55899 6.51496
#
# Compressibility (1/GPa) = 0.03512135
#
# Stress axis : x y z
#
# Youngs Moduli (GPa) = 35.28351 25.56108 83.09150
#
# Poissons Ratio (x) = 0.48090 0.40471
# Poissons Ratio (y) = 0.66382 -0.12429
# Poissons Ratio (z) = 0.17185 -0.03824
#
# Static dielectric constant tensor:
#      x y z
#    x 1.693750 0.000000 -0.000400 
#    y 0.000000 1.730920 0.000000 
#    z -0.000400 0.000000 1.794860 
# 
# From -- ./inp_files/75061.got.cif
#   From: 2010.05.17/outbox.cif.g08.bks.cpg/sg15_38_cif.got.tgz:75061.got - 2010.06.03 18:47:42.
