data_PCOD9269815
_publ_section_title
;
Structure prediction by ZEFSAII (Michael W. Deem and Ramdas Pophale) SiO2 
 PCOD9269815
Probable space group: C 2/C
;
_chemical_formula_sum "Si O2"
_cell_formula_units_Z 56
_cell_length_a 5.981888
_cell_length_b 28.399942
_cell_length_c 14.345995
_cell_angle_alpha 90.000000
_cell_angle_beta 68.896169
_cell_angle_gamma 90.000000
_cell_volume 2273.710744
_symmetry_space_group_name_H-M "C 2/C"
_symmetry_group_IT_number 15
_symmetry_cell_setting 'monoclinic'
loop_
_space_group_symop_operation_xyz
x,y,z
-x,y,1/2-z
-x,-y,-z
x,-y,1/2+z
1/2+x,1/2+y,z
1/2-x,1/2+y,1/2-z
1/2-x,1/2-y,-z
1/2+x,1/2-y,1/2+z
loop_
_atom_site_type_symbol
_atom_site_label
_atom_site_fract_x
_atom_site_fract_y
_atom_site_fract_z
Si Si1 0.177500 0.590361 0.138709
Si Si2 0.350709 0.407301 0.366624
Si Si3 0.896815 0.800191 0.371636
Si Si4 0.617006 0.075712 0.498071
Si Si5 0.959671 0.845622 0.865463
Si Si6 0.601915 0.764471 0.132092
Si Si7 0.977788 0.994688 0.866617
O O1 0.284245 0.642732 0.130509
O O2 0.336241 0.544194 0.130047
O O3 0.000000 0.587381 0.250000
O O4 0.070387 0.584913 0.055256
O O5 0.500000 0.403350 0.250000
O O6 0.367305 0.354846 0.402024
O O7 0.486473 0.451028 0.396288
O O8 0.071239 0.421806 0.388952
O O9 0.618879 0.780780 0.403785
O O10 0.000000 0.794331 0.250000
O O11 0.118407 0.781857 0.404414
O O12 0.796351 0.119161 0.451372
O O13 0.741201 0.027376 0.449317
O O14 0.883367 0.792123 0.877514
O O15 0.000000 0.861111 0.750000
O O16 0.500000 0.776973 0.250000
O O17 0.000000 0.994398 0.750000
#
# Coordination Sequence:
#
# PCOD9269815 Si02
#       7
#     8   8   8   8   8   8   8
#     4  11  19  34  61  93 131 157 193 255 322 392
#     4  10  23  43  63  84 120 169 221 259 310 371
#     4   9  19  40  60  88 124 168 219 269 311 373
#     4  11  21  38  61  90 127 160 201 262 317 381
#     4  10  20  34  61  95 124 160 200 250 330 389
#     4   9  19  35  64  92 123 165 214 265 326 381
#     4  10  20  39  61  93 122 160 204 252 323 383
#
# _framework density 24.629341
#
# number of rings (size 3 to 8) (size 9 to 14) (size 15 to 20)
#    0.000    2.000    2.857    1.286    2.000    1.143 
#    7.714    2.143    0.000    0.000    0.000    0.000 
#    0.000    0.000    0.000    0.000    0.000    0.000 
#
# Total GULP energy -156006.613334 kJ/mol
# GULP energy per Si atom -5571.664762 kJ/mol
# Density = 2.457328 g / cm^3
# Si number density = 24.629341 Si / 1000 Ang^3
#
#
#
# Elastic Constant Matrix: (Units=GPa)
#
#
# Indices 1 2 3 4 5 6 
#
# 1 107.3523 52.0151 18.3226 0.0000 -17.5864 0.0000
# 2 52.0151 150.9018 4.7713 0.0000 -22.7691 0.0000
# 3 18.3226 4.7713 115.2076 0.0000 -26.8655 0.0000
# 4 0.0000 0.0000 0.0000 19.5408 0.0000 -15.7570
# 5 -17.5864 -22.7691 -26.8655 0.0000 39.3990 0.0000
# 6 0.0000 0.0000 0.0000 -15.7570 0.0000 15.2475
#
#
#
# Elastic Compliance Matrix: (Units=1/GPa)
#
#
# Indices 1 2 3 4 5 6 
#
# 1 0.011651 -0.003631 -0.001164 0.000000 0.002308 0.000000
# 2 -0.003631 0.008455 0.001176 0.000000 0.004067 0.000000
# 3 -0.001164 0.001176 0.010528 0.000000 0.007338 0.000000
# 4 0.000000 0.000000 0.000000 0.307012 0.000000 0.317272
# 5 0.002308 0.004067 0.007338 0.000000 0.033766 0.000000
# 6 0.000000 0.000000 0.000000 0.317272 0.000000 0.393459
#
#
# Mechanical properties :
#
#
# Convention : Reuss Voigt Hill
#
# Bulk Modulus (GPa) = 42.74469 58.18662 50.46566
# Shear Modulus (GPa) = 6.41101 34.72764 20.56932
#
# Velocity S-wave (km/s) = 1.61513 3.75908 2.89304
# Velocity P-wave (km/s) = 4.56849 6.52052 5.62975
#
# Compressibility (1/GPa) = 0.02339472
#
# Stress axis : x y z
#
# Youngs Moduli (GPa) = 85.82696 118.27418 94.98727
#
# Poissons Ratio (x) = 0.42946 0.11060
# Poissons Ratio (y) = 0.31164 -0.11168
# Poissons Ratio (z) = 0.09993 -0.13906
#
# Static dielectric constant tensor:
#      x y z
#    x 2.053690 0.000000 0.009610 
#    y 0.000000 1.889030 0.000000 
#    z 0.009610 0.000000 1.981270 
# 
# From -- ./inp_files/186473.got.cif
#   From: 2010.05.17/outbox.cif.g08.bks.cpg/sg15_94_cif.got.tgz:186473.got - 2010.06.03 18:47:42.
