data_PCOD9269254
_publ_section_title
;
Structure prediction by ZEFSAII (Michael W. Deem and Ramdas Pophale) SiO2 
 PCOD9269254
Probable space group: C 2/C
;
_chemical_formula_sum "Si O2"
_cell_formula_units_Z 48
_cell_length_a 35.758947
_cell_length_b 5.268148
_cell_length_c 23.272022
_cell_angle_alpha 90.000000
_cell_angle_beta 143.807533
_cell_angle_gamma 90.000000
_cell_volume 2588.787429
_symmetry_space_group_name_H-M "C 2/C"
_symmetry_group_IT_number 15
_symmetry_cell_setting 'monoclinic'
loop_
_space_group_symop_operation_xyz
x,y,z
-x,y,1/2-z
-x,-y,-z
x,-y,1/2+z
1/2+x,1/2+y,z
1/2-x,1/2+y,1/2-z
1/2-x,1/2-y,-z
1/2+x,1/2-y,1/2+z
loop_
_atom_site_type_symbol
_atom_site_label
_atom_site_fract_x
_atom_site_fract_y
_atom_site_fract_z
Si Si1 0.766303 0.547806 0.971060
Si Si2 0.619539 0.062331 0.818503
Si Si3 0.429833 0.459637 0.186062
Si Si4 0.810210 0.716186 0.696399
Si Si5 0.706902 0.372187 0.700225
Si Si6 0.674418 0.428086 0.536496
O O1 0.703425 0.452135 0.862452
O O2 0.806651 0.661573 0.968638
O O3 0.750000 0.750000 0.000000
O O4 0.814781 0.370901 0.065729
O O5 0.573688 0.293983 0.777388
O O6 0.639177 0.052865 0.775978
O O7 0.595144 0.794007 0.812685
O O8 0.500000 0.415481 0.250000
O O9 0.384027 0.515898 0.074528
O O10 0.825317 0.799686 0.779507
O O11 0.740240 0.586027 0.611688
O O12 0.746247 0.634607 0.755853
O O13 0.662966 0.406885 0.590048
#
# Coordination Sequence:
#
# PCOD9269254 Si02
#       6
#     8   8   8   8   8   8
#     4  11  18  30  49  85 115 141 167 221 279 338
#     4  11  22  34  57  81 111 142 177 234 278 325
#     4  11  24  39  56  78 109 149 191 226 271 321
#     4  11  19  33  53  85 113 137 179 220 287 337
#     4  10  21  33  51  79 116 148 173 213 274 344
#     4  10  20  34  54  79 116 145 181 221 273 329
#
# _framework density 18.541498000000001
#
# number of rings (size 3 to 8) (size 9 to 14) (size 15 to 20)
#    0.000    1.333    5.000    3.000    0.000    0.000 
#    0.000    0.000    0.000    2.000    0.000    0.000 
#    0.000    0.000    0.000    0.000    0.000    0.000 
#
# Total GULP energy -133760.816158 kJ/mol
# GULP energy per Si atom -5573.367340 kJ/mol
# Density = 1.849930 g / cm^3
# Si number density = 18.541498 Si / 1000 Ang^3
#
#
#
# Elastic Constant Matrix: (Units=GPa)
#
#
# Indices 1 2 3 4 5 6 
#
# 1 128.5774 34.3731 51.2063 -0.0011 -20.7755 -0.0011
# 2 34.3731 71.7364 14.7604 0.0031 -6.1759 0.0007
# 3 51.2063 14.7604 46.8894 0.0000 -12.4227 0.0002
# 4 -0.0011 0.0031 0.0000 17.0092 -0.0004 -0.9197
# 5 -20.7755 -6.1759 -12.4227 -0.0004 36.2725 -0.0003
# 6 -0.0011 0.0007 0.0002 -0.9197 -0.0003 26.6295
#
#
#
# Elastic Compliance Matrix: (Units=1/GPa)
#
#
# Indices 1 2 3 4 5 6 
#
# 1 0.015067 -0.003998 -0.014396 0.000002 0.003019 0.000001
# 2 -0.003998 0.016001 -0.000612 -0.000003 0.000225 -0.000001
# 3 -0.014396 -0.000612 0.038524 -0.000001 0.004844 -0.000001
# 4 0.000002 -0.000003 -0.000001 0.058902 0.000001 0.002034
# 5 0.003019 0.000225 0.004844 0.000001 0.030996 0.000000
# 6 0.000001 -0.000001 -0.000001 0.002034 0.000000 0.037623
#
#
# Mechanical properties :
#
#
# Convention : Reuss Voigt Hill
#
# Bulk Modulus (GPa) = 31.66415 49.76475 40.71445
# Shear Modulus (GPa) = 20.35417 25.77312 23.06365
#
# Velocity S-wave (km/s) = 3.31684 3.73235 3.53071
# Velocity P-wave (km/s) = 5.63765 6.74328 6.21510
#
# Compressibility (1/GPa) = 0.03158146
#
# Stress axis : x y z
#
# Youngs Moduli (GPa) = 66.36925 62.49759 25.95761
#
# Poissons Ratio (x) = 0.24984 0.37369
# Poissons Ratio (y) = 0.26531 0.01588
# Poissons Ratio (z) = 0.95547 0.03822
#
# Static dielectric constant tensor:
#      x y z
#    x 1.678020 0.000000 -0.012400 
#    y 0.000000 1.775940 0.000000 
#    z -0.012400 0.000000 1.627240 
# 
# From -- ./inp_files/256463.got.cif
#   From: 2010.05.17/outbox.cif.g08.bks.cpg/sg15_129_cif.got.tgz:256463.got - 2010.06.03 18:47:42.
