data_PCOD9269487
_publ_section_title
;
Structure prediction by ZEFSAII (Michael W. Deem and Ramdas Pophale) SiO2 
 PCOD9269487
Probable space group: C 2/C
;
_chemical_formula_sum "Si O2"
_cell_formula_units_Z 44
_cell_length_a 6.981437
_cell_length_b 31.194632
_cell_length_c 9.290224
_cell_angle_alpha 90.000000
_cell_angle_beta 105.849746
_cell_angle_gamma 90.000000
_cell_volume 1946.334466
_symmetry_space_group_name_H-M "C 2/C"
_symmetry_group_IT_number 15
_symmetry_cell_setting 'monoclinic'
loop_
_space_group_symop_operation_xyz
x,y,z
-x,y,1/2-z
-x,-y,-z
x,-y,1/2+z
1/2+x,1/2+y,z
1/2-x,1/2+y,1/2-z
1/2-x,1/2-y,-z
1/2+x,1/2-y,1/2+z
loop_
_atom_site_type_symbol
_atom_site_label
_atom_site_fract_x
_atom_site_fract_y
_atom_site_fract_z
Si Si1 0.041532 0.139374 0.928946
Si Si2 0.832216 0.792291 0.593583
Si Si3 0.000000 0.498131 0.750000
Si Si4 0.072047 0.042152 0.928952
Si Si5 0.446871 0.944371 0.989993
Si Si6 0.000864 0.643462 0.410054
O O1 0.007243 0.089765 0.970923
O O2 0.000000 0.141263 0.750000
O O3 0.273796 0.151049 0.998499
O O4 0.920708 0.174131 0.995774
O O5 0.750000 0.750000 0.500000
O O6 0.641173 0.815994 0.621823
O O7 0.000000 0.784136 0.750000
O O8 0.128317 0.467834 0.670342
O O9 0.111981 0.530811 0.878941
O O10 0.313338 0.048279 0.975377
O O11 0.000000 0.038420 0.750000
O O12 0.000000 0.000000 0.000000
O O13 0.413735 0.894332 0.990309
O O14 0.000000 0.624320 0.250000
#
# Coordination Sequence:
#
# PCOD9269487 Si02
#       6
#     8   8   4   8   8   8
#     4  10  25  46  72 108 146 189 234 292 361 422
#     4  12  29  49  76 109 136 179 239 293 370 440
#     4  10  20  34  56  94 130 174 230 278 316 402
#     4  10  21  38  60  95 137 183 230 276 335 404
#     4  10  21  36  61  91 134 182 233 276 342 399
#     4  11  23  46  72  99 144 186 233 294 358 426
#
# _framework density 22.606597000000001
#
# number of rings (size 3 to 8) (size 9 to 14) (size 15 to 20)
#    0.000    1.455    2.727    1.091    2.545    9.455 
#    0.000    0.000    0.000    0.000    0.000    0.000 
#    0.000    0.000    0.000    0.000    0.000    0.000 
#
# Total GULP energy -122950.820417 kJ/mol
# GULP energy per Si atom -5588.673655 kJ/mol
# Density = 2.255514 g / cm^3
# Si number density = 22.606597 Si / 1000 Ang^3
#
#
#
# Elastic Constant Matrix: (Units=GPa)
#
#
# Indices 1 2 3 4 5 6 
#
# 1 118.4160 56.5640 41.6823 0.0000 22.3247 0.0000
# 2 56.5640 185.6328 54.6338 0.0000 6.8911 0.0000
# 3 41.6823 54.6338 121.0245 0.0000 15.4656 0.0000
# 4 0.0000 0.0000 0.0000 39.5402 0.0000 -5.6997
# 5 22.3247 6.8911 15.4656 0.0000 34.5695 0.0000
# 6 0.0000 0.0000 0.0000 -5.6997 0.0000 38.2433
#
#
#
# Elastic Compliance Matrix: (Units=1/GPa)
#
#
# Indices 1 2 3 4 5 6 
#
# 1 0.011585 -0.002720 -0.001989 0.000000 -0.006049 0.000000
# 2 -0.002720 0.006851 -0.002340 0.000000 0.001438 0.000000
# 3 -0.001989 -0.002340 0.010373 0.000000 -0.002890 0.000000
# 4 0.000000 0.000000 0.000000 0.025846 0.000000 0.003852
# 5 -0.006049 0.001438 -0.002890 0.000000 0.033840 0.000000
# 6 0.000000 0.000000 0.000000 0.003852 0.000000 0.026722
#
#
# Mechanical properties :
#
#
# Convention : Reuss Voigt Hill
#
# Bulk Modulus (GPa) = 67.97305 81.20370 74.58837
# Shear Modulus (GPa) = 37.25263 40.61681 38.93472
#
# Velocity S-wave (km/s) = 4.06379 4.24332 4.15453
# Velocity P-wave (km/s) = 7.22166 7.74636 7.48860
#
# Compressibility (1/GPa) = 0.01471171
#
# Stress axis : x y z
#
# Youngs Moduli (GPa) = 86.32110 145.96403 96.40136
#
# Poissons Ratio (x) = 0.39702 0.19174
# Poissons Ratio (y) = 0.23479 0.22554
# Poissons Ratio (z) = 0.17169 0.34150
#
# Static dielectric constant tensor:
#      x y z
#    x 1.875060 0.000000 0.087210 
#    y 0.000000 1.840430 0.000000 
#    z 0.087210 0.000000 1.775900 
# 
# From -- ./inp_files/25720.got.cif
#   From: 2010.05.17/outbox.cif.g08.bks.cpg/sg15_13_cif.got.tgz:25720.got - 2010.06.03 18:47:42.
