data_PCOD9269061
_publ_section_title
;
Structure prediction by ZEFSAII (Michael W. Deem and Ramdas Pophale) SiO2 
 PCOD9269061
Probable space group: C 2/C
;
_chemical_formula_sum "Si O2"
_cell_formula_units_Z 56
_cell_length_a 9.629153
_cell_length_b 17.972215
_cell_length_c 13.758798
_cell_angle_alpha 90.000000
_cell_angle_beta 80.520879
_cell_angle_gamma 90.000000
_cell_volume 2348.547425
_symmetry_space_group_name_H-M "C 2/C"
_symmetry_group_IT_number 15
_symmetry_cell_setting 'monoclinic'
loop_
_space_group_symop_operation_xyz
x,y,z
-x,y,1/2-z
-x,-y,-z
x,-y,1/2+z
1/2+x,1/2+y,z
1/2-x,1/2+y,1/2-z
1/2-x,1/2-y,-z
1/2+x,1/2-y,1/2+z
loop_
_atom_site_type_symbol
_atom_site_label
_atom_site_fract_x
_atom_site_fract_y
_atom_site_fract_z
Si Si1 0.038335 0.230124 0.567486
Si Si2 0.175902 0.356836 0.431813
Si Si3 0.222377 0.834694 0.475693
Si Si4 0.000000 0.679383 0.250000
Si Si5 0.049997 0.052979 0.083472
Si Si6 0.267784 0.925784 0.869079
Si Si7 0.708872 0.908652 0.216639
Si Si8 0.500000 0.440982 0.250000
O O1 0.068707 0.295058 0.485926
O O2 0.180318 0.192022 0.589177
O O3 0.943683 0.167297 0.532362
O O4 0.958221 0.269631 0.664450
O O5 0.198713 0.414391 0.519318
O O6 0.142361 0.390405 0.329366
O O7 0.250000 0.750000 0.500000
O O8 0.196656 0.901182 0.554931
O O9 0.318155 0.857437 0.373915
O O10 0.130925 0.631353 0.197734
O O11 0.898369 0.090283 0.129456
O O12 0.077456 0.993714 0.165073
O O13 0.000000 0.000000 0.000000
O O14 0.302644 0.007333 0.822528
O O15 0.875296 0.896527 0.216494
#
# Coordination Sequence:
#
# PCOD9269061 Si02
#       8
#     8   8   8   4   8   8   8   4
#     4  10  21  40  65  90 127 174 220 265 328 414
#     4  10  20  40  70  93 122 171 226 275 323 393
#     4  12  25  41  60  95 140 168 211 277 345 409
#     4  10  22  41  64  97 122 174 224 280 326 396
#     4  11  20  41  63  96 129 167 223 272 332 399
#     4  10  21  40  67  94 130 160 229 283 326 395
#     4  11  22  39  64  98 125 171 217 279 333 393
#     4  10  20  33  70  91 114 170 222 278 302 388
#
# _framework density 23.844525999999998
#
# number of rings (size 3 to 8) (size 9 to 14) (size 15 to 20)
#    0.000    1.429    4.286    2.571    0.000    2.286 
#    5.143    1.429    0.000    0.000    0.000    0.000 
#    0.000    0.000    0.000    0.000    0.000    0.000 
#
# Total GULP energy -156279.095763 kJ/mol
# GULP energy per Si atom -5581.396277 kJ/mol
# Density = 2.379025 g / cm^3
# Si number density = 23.844526 Si / 1000 Ang^3
#
#
#
# Elastic Constant Matrix: (Units=GPa)
#
#
# Indices 1 2 3 4 5 6 
#
# 1 42.0676 4.0110 8.1043 0.0000 -15.9489 0.0000
# 2 4.0110 98.0297 68.3662 0.0000 -2.4082 0.0000
# 3 8.1043 68.3662 166.6855 0.0000 -14.5855 0.0000
# 4 0.0000 0.0000 0.0000 46.3226 0.0000 -0.7362
# 5 -15.9489 -2.4082 -14.5855 0.0000 18.0358 0.0000
# 6 0.0000 0.0000 0.0000 -0.7362 0.0000 36.3712
#
#
#
# Elastic Compliance Matrix: (Units=1/GPa)
#
#
# Indices 1 2 3 4 5 6 
#
# 1 0.036242 -0.002061 0.002005 0.000000 0.033395 0.000000
# 2 -0.002061 0.014562 -0.006308 0.000000 -0.004980 0.000000
# 3 0.002005 -0.006308 0.009223 0.000000 0.008390 0.000000
# 4 0.000000 0.000000 0.000000 0.021595 0.000000 0.000437
# 5 0.033395 -0.004980 0.008390 0.000000 0.091097 0.000000
# 6 0.000000 0.000000 0.000000 0.000437 0.000000 0.027503
#
#
# Mechanical properties :
#
#
# Convention : Reuss Voigt Hill
#
# Bulk Modulus (GPa) = 21.14154 51.97174 36.55664
# Shear Modulus (GPa) = 21.86104 35.23267 28.54686
#
# Velocity S-wave (km/s) = 3.03118 3.84813 3.46382
# Velocity P-wave (km/s) = 4.59744 6.44884 5.60017
#
# Compressibility (1/GPa) = 0.04730025
#
# Stress axis : x y z
#
# Youngs Moduli (GPa) = 27.59196 68.66977 108.42060
#
# Poissons Ratio (x) = 0.14154 -0.21743
# Poissons Ratio (y) = 0.05687 0.68395
# Poissons Ratio (z) = -0.05533 0.43319
#
# Static dielectric constant tensor:
#      x y z
#    x 1.998870 0.000000 -0.005630 
#    y 0.000000 1.947050 0.000000 
#    z -0.005630 0.000000 1.993400 
# 
# From -- ./inp_files/145580.got.cif
#   From: 2010.05.17/outbox.cif.g08.bks.cpg/sg15_73_cif.got.tgz:145580.got - 2010.06.03 18:47:42.
