data_PCOD9269758
_publ_section_title
;
Structure prediction by ZEFSAII (Michael W. Deem and Ramdas Pophale) SiO2 
 PCOD9269758
Probable space group: C 2/C
;
_chemical_formula_sum "Si O2"
_cell_formula_units_Z 44
_cell_length_a 7.349859
_cell_length_b 16.561263
_cell_length_c 22.843323
_cell_angle_alpha 90.000000
_cell_angle_beta 50.108997
_cell_angle_gamma 90.000000
_cell_volume 2133.426184
_symmetry_space_group_name_H-M "C 2/C"
_symmetry_group_IT_number 15
_symmetry_cell_setting 'monoclinic'
loop_
_space_group_symop_operation_xyz
x,y,z
-x,y,1/2-z
-x,-y,-z
x,-y,1/2+z
1/2+x,1/2+y,z
1/2-x,1/2+y,1/2-z
1/2-x,1/2-y,-z
1/2+x,1/2-y,1/2+z
loop_
_atom_site_type_symbol
_atom_site_label
_atom_site_fract_x
_atom_site_fract_y
_atom_site_fract_z
Si Si1 0.646091 0.478292 0.370277
Si Si2 0.545645 0.294682 0.806696
Si Si3 0.265624 0.375438 0.263390
Si Si4 0.308079 0.089174 0.060219
Si Si5 0.059360 0.466101 0.085510
Si Si6 0.000000 0.392749 0.750000
O O1 0.686550 0.410975 0.311411
O O2 0.396059 0.520841 0.408867
O O3 0.702059 0.453050 0.425303
O O4 0.848048 0.546991 0.321465
O O5 0.500000 0.318711 0.750000
O O6 0.583985 0.199011 0.801633
O O7 0.334850 0.332611 0.888863
O O8 0.796166 0.336031 0.767827
O O9 0.500000 0.349924 0.250000
O O10 0.152499 0.444836 0.326744
O O11 0.491732 0.052074 0.069630
O O12 0.433093 0.094649 0.971486
#
# Coordination Sequence:
#
# PCOD9269758 Si02
#       6
#     8   8   8   8   8   4
#     4  11  20  37  64  90 115 163 199 247 297 359
#     4  11  23  39  60  91 122 158 199 251 306 351
#     4  12  23  40  64  88 123 160 207 249 298 360
#     4  10  24  37  62  92 124 156 196 255 298 363
#     4  11  21  40  61  91 124 156 200 245 307 359
#     4  10  20  34  60  90 116 146 202 254 288 344
#
# _framework density 20.624102000000001
#
# number of rings (size 3 to 8) (size 9 to 14) (size 15 to 20)
#    0.000    1.091    4.545    2.727    2.545    0.727 
#    0.000    0.000    0.000    2.182    0.000    0.000 
#    0.000    0.000    0.000    0.000    0.000    0.000 
#
# Total GULP energy -122679.258091 kJ/mol
# GULP energy per Si atom -5576.329913 kJ/mol
# Density = 2.057716 g / cm^3
# Si number density = 20.624102 Si / 1000 Ang^3
#
#
#
# Elastic Constant Matrix: (Units=GPa)
#
#
# Indices 1 2 3 4 5 6 
#
# 1 90.9547 22.3101 32.1126 -0.0010 26.2281 0.0007
# 2 22.3101 55.5428 7.3614 0.0000 13.5169 -0.0001
# 3 32.1126 7.3614 60.0725 -0.0018 14.9451 0.0023
# 4 -0.0010 0.0000 -0.0018 25.5058 0.0011 -5.0370
# 5 26.2281 13.5169 14.9451 0.0011 35.3888 -0.0008
# 6 0.0007 -0.0001 0.0023 -5.0370 -0.0008 38.1069
#
#
#
# Elastic Compliance Matrix: (Units=1/GPa)
#
#
# Indices 1 2 3 4 5 6 
#
# 1 0.016504 -0.003819 -0.006341 0.000001 -0.008096 0.000000
# 2 -0.003819 0.020753 0.000856 0.000000 -0.005458 0.000000
# 3 -0.006341 0.000856 0.021056 0.000001 -0.004520 -0.000001
# 4 0.000001 0.000000 0.000001 0.040258 -0.000002 0.005321
# 5 -0.008096 -0.005458 -0.004520 -0.000002 0.038251 0.000001
# 6 0.000000 0.000000 -0.000001 0.005321 0.000001 0.026945
#
#
# Mechanical properties :
#
#
# Convention : Reuss Voigt Hill
#
# Bulk Modulus (GPa) = 25.18496 36.68201 30.93349
# Shear Modulus (GPa) = 25.56126 29.45269 27.50698
#
# Velocity S-wave (km/s) = 3.52431 3.78308 3.65599
# Velocity P-wave (km/s) = 5.36647 6.07510 5.73175
#
# Compressibility (1/GPa) = 0.03970624
#
# Stress axis : x y z
#
# Youngs Moduli (GPa) = 60.59029 48.18620 47.49349
#
# Poissons Ratio (x) = 0.18401 0.30113
# Poissons Ratio (y) = 0.23138 -0.04066
# Poissons Ratio (z) = 0.38418 -0.04126
#
# Static dielectric constant tensor:
#      x y z
#    x 1.761210 0.000000 0.049400 
#    y 0.000000 1.761380 0.000000 
#    z 0.049400 0.000000 1.763270 
# 
# From -- ./inp_files/264135.got.cif
#   From: 2010.05.17/outbox.cif.g08.bks.cpg/sg15_133_cif.got.tgz:264135.got - 2010.06.03 18:47:42.
