data_PCOD9269910
_publ_section_title
;
Structure prediction by ZEFSAII (Michael W. Deem and Ramdas Pophale) SiO2 
 PCOD9269910
Probable space group: C 2/C
;
_chemical_formula_sum "Si O2"
_cell_formula_units_Z 44
_cell_length_a 25.496387
_cell_length_b 17.643708
_cell_length_c 16.019407
_cell_angle_alpha 90.000000
_cell_angle_beta 19.176624
_cell_angle_gamma 90.000000
_cell_volume 2367.149153
_symmetry_space_group_name_H-M "C 2/C"
_symmetry_group_IT_number 15
_symmetry_cell_setting 'monoclinic'
loop_
_space_group_symop_operation_xyz
x,y,z
-x,y,1/2-z
-x,-y,-z
x,-y,1/2+z
1/2+x,1/2+y,z
1/2-x,1/2+y,1/2-z
1/2-x,1/2-y,-z
1/2+x,1/2-y,1/2+z
loop_
_atom_site_type_symbol
_atom_site_label
_atom_site_fract_x
_atom_site_fract_y
_atom_site_fract_z
Si Si1 0.449625 0.069802 0.512624
Si Si2 0.587653 0.525061 0.031562
Si Si3 0.966521 0.677229 0.629150
Si Si4 0.500000 0.023124 0.250000
Si Si5 0.238130 0.403720 0.828751
Si Si6 0.121463 0.157036 0.226719
O O1 0.259270 0.062913 0.790088
O O2 0.493729 0.146646 0.494704
O O3 0.511628 0.063155 0.323645
O O4 0.500000 0.000000 0.500000
O O5 0.629811 0.446040 0.924314
O O6 0.500000 0.512337 0.250000
O O7 0.481322 0.582895 0.137935
O O8 0.978193 0.765942 0.632687
O O9 0.094130 0.631987 0.492797
O O10 0.782525 0.657772 0.929194
O O11 0.345243 0.969472 0.490964
O O12 0.315544 0.343895 0.773623
#
# Coordination Sequence:
#
# PCOD9269910 Si02
#       6
#     8   8   8   4   8   8
#     4  11  20  40  61  90 122 160 206 248 299 370
#     4  11  23  36  61  89 120 157 203 255 303 353
#     4  11  22  37  63  87 127 159 191 259 319 360
#     4  10  20  34  66  86 112 164 212 236 294 364
#     4  11  21  40  60  88 121 161 203 247 304 367
#     4  11  23  37  60  94 125 150 203 258 310 365
#
# _framework density 18.587759999999999
#
# number of rings (size 3 to 8) (size 9 to 14) (size 15 to 20)
#    0.000    1.091    7.273    0.545    2.545    0.000 
#    0.000    0.000    2.000    5.455    0.000    0.000 
#    0.000    0.000    0.000    0.000    0.000    0.000 
#
# Total GULP energy -122677.160247 kJ/mol
# GULP energy per Si atom -5576.234557 kJ/mol
# Density = 1.854545 g / cm^3
# Si number density = 18.587760 Si / 1000 Ang^3
#
#
#
# Elastic Constant Matrix: (Units=GPa)
#
#
# Indices 1 2 3 4 5 6 
#
# 1 104.0895 32.6027 40.8194 0.0010 21.9684 -0.0004
# 2 32.6027 71.2804 27.7648 -0.0015 10.4722 0.0008
# 3 40.8194 27.7648 74.3883 -0.0020 13.8412 0.0012
# 4 0.0010 -0.0015 -0.0020 23.7566 -0.0002 -3.7462
# 5 21.9684 10.4722 13.8412 -0.0002 31.8844 -0.0001
# 6 -0.0004 0.0008 0.0012 -3.7462 -0.0001 24.7100
#
#
#
# Elastic Compliance Matrix: (Units=1/GPa)
#
#
# Indices 1 2 3 4 5 6 
#
# 1 0.014083 -0.003468 -0.005265 -0.000001 -0.006279 0.000000
# 2 -0.003468 0.017533 -0.004367 0.000001 -0.001473 0.000000
# 3 -0.005265 -0.004367 0.018516 0.000001 -0.002976 -0.000001
# 4 -0.000001 0.000001 0.000001 0.043124 0.000000 0.006538
# 5 -0.006279 -0.001473 -0.002976 0.000000 0.037465 0.000000
# 6 0.000000 0.000000 -0.000001 0.006538 0.000000 0.041461
#
#
# Mechanical properties :
#
#
# Convention : Reuss Voigt Hill
#
# Bulk Modulus (GPa) = 41.78596 50.23690 46.01143
# Shear Modulus (GPa) = 24.22956 25.97497 25.10226
#
# Velocity S-wave (km/s) = 3.61435 3.74227 3.67886
# Velocity P-wave (km/s) = 6.32038 6.76449 6.54620
#
# Compressibility (1/GPa) = 0.02393148
#
# Stress axis : x y z
#
# Youngs Moduli (GPa) = 71.00576 57.03604 54.00811
#
# Poissons Ratio (x) = 0.19781 0.28437
# Poissons Ratio (y) = 0.24626 0.23584
# Poissons Ratio (z) = 0.37387 0.24906
#
# Static dielectric constant tensor:
#      x y z
#    x 1.681340 0.000000 0.012840 
#    y 0.000000 1.683430 0.000000 
#    z 0.012840 0.000000 1.647830 
# 
# From -- ./inp_files/86807.got.cif
#   From: 2010.05.17/outbox.cif.g08.bks.cpg/sg15_44_cif.got.tgz:86807.got - 2010.06.03 18:47:42.
