data_PCOD9269985
_publ_section_title
;
Structure prediction by ZEFSAII (Michael W. Deem and Ramdas Pophale) SiO2 
 PCOD9269985
Probable space group: C 2/C
;
_chemical_formula_sum "Si O2"
_cell_formula_units_Z 56
_cell_length_a 14.207890
_cell_length_b 8.741817
_cell_length_c 29.813593
_cell_angle_alpha 90.000000
_cell_angle_beta 52.542430
_cell_angle_gamma 90.000000
_cell_volume 2939.401177
_symmetry_space_group_name_H-M "C 2/C"
_symmetry_group_IT_number 15
_symmetry_cell_setting 'monoclinic'
loop_
_space_group_symop_operation_xyz
x,y,z
-x,y,1/2-z
-x,-y,-z
x,-y,1/2+z
1/2+x,1/2+y,z
1/2-x,1/2+y,1/2-z
1/2-x,1/2-y,-z
1/2+x,1/2-y,1/2+z
loop_
_atom_site_type_symbol
_atom_site_label
_atom_site_fract_x
_atom_site_fract_y
_atom_site_fract_z
Si Si1 0.168306 0.987766 0.323430
Si Si2 0.790651 0.952389 0.409188
Si Si3 0.512484 0.362254 0.694422
Si Si4 0.906552 0.451288 0.201881
Si Si5 0.371758 0.205584 0.618679
Si Si6 0.429842 0.975276 0.474135
Si Si7 0.494688 0.221451 0.380365
O O1 0.154888 0.118043 0.364752
O O2 0.089961 0.052214 0.304428
O O3 0.301788 0.971655 0.267738
O O4 0.109098 0.828630 0.355161
O O5 0.709181 0.864459 0.396669
O O6 0.706879 0.021284 0.472202
O O7 0.885893 0.832848 0.400894
O O8 0.864387 0.081483 0.361890
O O9 0.500000 0.402033 0.750000
O O10 0.493533 0.181925 0.693088
O O11 0.851340 0.386116 0.171145
O O12 0.972117 0.607850 0.170112
O O13 0.509360 0.172626 0.566183
O O14 0.460968 0.114257 0.431788
O O15 0.500000 0.000000 0.500000
#
# Coordination Sequence:
#
# PCOD9269985 Si02
#       7
#     8   8   8   8   8   8   8
#     4  10  20  36  57  80 110 146 180 222 272 324
#     4  10  20  36  56  79 108 139 176 228 273 312
#     4  10  21  35  54  82 109 143 181 220 271 322
#     4  10  20  35  53  77 110 144 177 214 264 328
#     4   9  19  36  56  79 104 143 182 214 266 328
#     4   9  19  37  57  76 105 144 181 219 269 327
#     4  10  20  35  55  81 108 137 180 227 269 315
#
# _framework density 19.051497999999999
#
# number of rings (size 3 to 8) (size 9 to 14) (size 15 to 20)
#    0.000    2.286    0.000    3.000    0.000    4.571 
#    0.000   16.429    0.000    0.000    0.000    0.000 
#    0.000    0.000    0.000    0.000    0.000    0.000 
#
# Total GULP energy -156248.686823 kJ/mol
# GULP energy per Si atom -5580.310244 kJ/mol
# Density = 1.900814 g / cm^3
# Si number density = 19.051498 Si / 1000 Ang^3
#
#
#
# Elastic Constant Matrix: (Units=GPa)
#
#
# Indices 1 2 3 4 5 6 
#
# 1 43.4895 18.7475 37.8751 0.0000 -11.6838 0.0000
# 2 18.7475 100.3313 80.3467 0.0000 -25.8215 0.0000
# 3 37.8751 80.3467 175.2394 0.0000 -32.9510 0.0000
# 4 0.0000 0.0000 0.0000 -13.5884 0.0000 6.2853
# 5 -11.6838 -25.8215 -32.9510 0.0000 30.9297 0.0000
# 6 0.0000 0.0000 0.0000 6.2853 0.0000 12.6447
#
#
#
# Elastic Compliance Matrix: (Units=1/GPa)
#
#
# Indices 1 2 3 4 5 6 
#
# 1 0.029023 0.000293 -0.005377 0.000000 0.005480 0.000000
# 2 0.000293 0.016995 -0.006461 0.000000 0.007415 0.000000
# 3 -0.005377 -0.006461 0.010548 0.000000 0.003812 0.000000
# 4 0.000000 0.000000 0.000000 -0.059835 0.000000 0.029742
# 5 0.005480 0.007415 0.003812 0.000000 0.044653 0.000000
# 6 0.000000 0.000000 0.000000 0.029742 0.000000 0.064301
#
#
# Mechanical properties :
#
#
# Convention : Reuss Voigt Hill
#
# Bulk Modulus (GPa) = 29.87247 65.88876 47.88061
# Shear Modulus (GPa) = 35.73165 18.13659 26.93412
#
# Velocity S-wave (km/s) = 4.33544 3.08876 3.76407
# Velocity P-wave (km/s) = 6.38555 6.88333 6.63911
#
# Compressibility (1/GPa) = 0.03347564
#
# Stress axis : x y z
#
# Youngs Moduli (GPa) = 34.45602 58.84167 94.80739
#
# Poissons Ratio (x) = -0.01724 0.50975
# Poissons Ratio (y) = -0.01010 0.61255
# Poissons Ratio (z) = 0.18526 0.38018
#
# Static dielectric constant tensor:
#      x y z
#    x 1.667620 0.000000 -0.011170 
#    y 0.000000 1.658500 0.000000 
#    z -0.011170 0.000000 1.663840 
# 
# From -- ./inp_files/272630.got.cif
#   From: 2010.05.17/outbox.cif.g08.bks.cpg/sg15_137_cif.got.tgz:272630.got - 2010.06.03 18:47:42.
