data_PCOD9269191
_publ_section_title
;
Structure prediction by ZEFSAII (Michael W. Deem and Ramdas Pophale) SiO2 
 PCOD9269191
Probable space group: C 2/C
;
_chemical_formula_sum "Si O2"
_cell_formula_units_Z 64
_cell_length_a 17.613445
_cell_length_b 18.714206
_cell_length_c 8.220519
_cell_angle_alpha 90.000000
_cell_angle_beta 90.451637
_cell_angle_gamma 90.000000
_cell_volume 2709.576757
_symmetry_space_group_name_H-M "C 2/C"
_symmetry_group_IT_number 15
_symmetry_cell_setting 'monoclinic'
loop_
_space_group_symop_operation_xyz
x,y,z
-x,y,1/2-z
-x,-y,-z
x,-y,1/2+z
1/2+x,1/2+y,z
1/2-x,1/2+y,1/2-z
1/2-x,1/2-y,-z
1/2+x,1/2-y,1/2+z
loop_
_atom_site_type_symbol
_atom_site_label
_atom_site_fract_x
_atom_site_fract_y
_atom_site_fract_z
Si Si1 0.646089 0.289594 0.135933
Si Si2 0.896471 0.454731 0.860710
Si Si3 0.303380 0.151633 0.517160
Si Si4 0.555780 0.905259 0.991631
Si Si5 0.807220 0.841269 0.012496
Si Si6 0.647308 0.792815 0.135199
Si Si7 0.894735 0.036855 0.623460
Si Si8 0.442980 0.406600 0.470613
O O1 0.715770 0.330471 0.047450
O O2 0.652292 0.308168 0.325451
O O3 0.572186 0.323005 0.050295
O O4 0.661711 0.206832 0.111954
O O5 0.904168 0.427644 0.677052
O O6 0.967437 0.420016 0.959844
O O7 0.822092 0.426286 0.950572
O O8 0.911067 0.538964 0.875875
O O9 0.342727 0.174831 0.686187
O O10 0.573812 0.825749 0.049404
O O11 0.718755 0.824465 0.033520
O O12 0.825481 0.924772 0.030641
O O13 0.840887 0.792593 0.869130
O O14 0.901885 0.059881 0.810241
O O15 0.969361 0.072300 0.540815
O O16 0.905011 0.952019 0.612702
#
# Coordination Sequence:
#
# PCOD9269191 Si02
#       8
#     8   8   8   8   8   8   8   8
#     4   9  19  35  52  74 105 139 174 210 252 303
#     4  10  21  37  56  77 103 135 171 213 260 312
#     4  10  20  34  53  77 105 136 171 213 257 303
#     4  10  21  37  56  77 103 135 171 213 260 312
#     4   9  19  35  52  74 105 139 174 210 252 303
#     4  10  20  34  53  77 105 136 171 213 257 303
#     4   9  18  33  52  73  99 131 167 207 249 295
#     4   9  18  33  52  73  99 131 167 207 249 295
#
# _framework density 23.619924999999999
#
# number of rings (size 3 to 8) (size 9 to 14) (size 15 to 20)
#    0.000    2.500    0.000    1.500    0.000    5.500 
#    0.000    5.000    0.000    0.000    0.000    0.000 
#    0.000    0.000    0.000    0.000    0.000    0.000 
#
# Total GULP energy -178717.500064 kJ/mol
# GULP energy per Si atom -5584.921877 kJ/mol
# Density = 2.356617 g / cm^3
# Si number density = 23.619925 Si / 1000 Ang^3
#
#
#
# Elastic Constant Matrix: (Units=GPa)
#
#
# Indices 1 2 3 4 5 6 
#
# 1 20.2223 11.9577 -6.0800 0.0000 5.1822 0.0000
# 2 11.9577 30.8991 -1.8528 0.0000 -0.1426 0.0000
# 3 -6.0800 -1.8528 52.7613 0.0000 -3.8025 0.0000
# 4 0.0000 0.0000 0.0000 26.6918 0.0000 -0.9793
# 5 5.1822 -0.1426 -3.8025 0.0000 18.6689 0.0000
# 6 0.0000 0.0000 0.0000 -0.9793 0.0000 31.2482
#
#
#
# Elastic Compliance Matrix: (Units=1/GPa)
#
#
# Indices 1 2 3 4 5 6 
#
# 1 0.072622 -0.027832 0.006011 0.000000 -0.019147 0.000000
# 2 -0.027832 0.043103 -0.001130 0.000000 0.007825 0.000000
# 3 0.006011 -0.001130 0.019776 0.000000 0.002351 0.000000
# 4 0.000000 0.000000 0.000000 0.037508 0.000000 0.001175
# 5 -0.019147 0.007825 0.002351 0.000000 0.059418 0.000000
# 6 0.000000 0.000000 0.000000 0.001175 0.000000 0.032039
#
#
# Mechanical properties :
#
#
# Convention : Reuss Voigt Hill
#
# Bulk Modulus (GPa) = 11.16075 12.43692 11.79883
# Shear Modulus (GPa) = 14.69586 21.97898 18.33742
#
# Velocity S-wave (km/s) = 2.49706 3.05376 2.78934
# Velocity P-wave (km/s) = 3.61236 4.20842 3.92173
#
# Compressibility (1/GPa) = 0.08959972
#
# Stress axis : x y z
#
# Youngs Moduli (GPa) = 13.76996 23.20051 50.56692
#
# Poissons Ratio (x) = 0.64572 -0.30398
# Poissons Ratio (y) = 0.38324 0.05712
# Poissons Ratio (z) = -0.08278 0.02621
#
# Static dielectric constant tensor:
#      x y z
#    x 1.881370 0.000000 -0.001790 
#    y 0.000000 1.938320 0.000000 
#    z -0.001790 0.000000 1.902120 
# 
# From -- ./inp_files/56631.got.cif
#   From: 2010.05.17/outbox.cif.g08.bks.cpg/sg15_29_cif.got.tgz:56631.got - 2010.06.03 18:47:42.
