data_PCOD9269227
_publ_section_title
;
Structure prediction by ZEFSAII (Michael W. Deem and Ramdas Pophale) SiO2 
 PCOD9269227
Probable space group: C 2/C
;
_chemical_formula_sum "Si O2"
_cell_formula_units_Z 52
_cell_length_a 6.442906
_cell_length_b 18.578476
_cell_length_c 29.252966
_cell_angle_alpha 90.000000
_cell_angle_beta 54.322049
_cell_angle_gamma 90.000000
_cell_volume 2844.346711
_symmetry_space_group_name_H-M "C 2/C"
_symmetry_group_IT_number 15
_symmetry_cell_setting 'monoclinic'
loop_
_space_group_symop_operation_xyz
x,y,z
-x,y,1/2-z
-x,-y,-z
x,-y,1/2+z
1/2+x,1/2+y,z
1/2-x,1/2+y,1/2-z
1/2-x,1/2-y,-z
1/2+x,1/2-y,1/2+z
loop_
_atom_site_type_symbol
_atom_site_label
_atom_site_fract_x
_atom_site_fract_y
_atom_site_fract_z
Si Si1 0.438142 0.065138 0.704707
Si Si2 0.107810 0.318402 0.687102
Si Si3 0.271156 0.583153 0.307227
Si Si4 0.104762 0.101254 0.108573
Si Si5 0.500000 0.319485 0.250000
Si Si6 0.649740 0.474962 0.418261
Si Si7 0.876381 0.550970 0.477282
O O1 0.500000 0.062165 0.750000
O O2 0.245790 0.130516 0.721632
O O3 0.684030 0.067633 0.640065
O O4 0.307055 0.990081 0.707307
O O5 0.407623 0.333420 0.641414
O O6 0.035057 0.235246 0.702813
O O7 0.000000 0.349875 0.750000
O O8 0.960732 0.360993 0.666432
O O9 0.500000 0.619104 0.250000
O O10 0.369710 0.566114 0.344738
O O11 0.403094 0.111078 0.057121
O O12 0.971501 0.044682 0.091583
O O13 0.824121 0.505619 0.437338
O O14 0.409511 0.430698 0.469289
O O15 0.000000 0.500000 0.500000
#
# Coordination Sequence:
#
# PCOD9269227 Si02
#       7
#     8   8   8   8   4   8   8
#     4  12  23  35  56  85 121 155 189 240 299 357
#     4  10  21  36  50  80 113 155 198 236 277 359
#     4  12  19  31  58  83 112 150 196 235 286 346
#     4  11  18  32  58  83 114 147 191 243 290 335
#     4  10  26  38  50  80 128 162 190 238 306 346
#     4  10  20  34  53  91 120 147 198 249 287 355
#     4   9  19  33  55  85 120 152 191 251 300 330
#
# _framework density 18.281877999999999
#
# number of rings (size 3 to 8) (size 9 to 14) (size 15 to 20)
#    0.462    0.923    5.385    1.385    0.000    1.846 
#    0.000    0.000    0.000    0.923    0.000   16.154 
#    0.000    0.000    0.000    0.000    0.000    0.000 
#
# Total GULP energy -144762.705021 kJ/mol
# GULP energy per Si atom -5567.796347 kJ/mol
# Density = 1.824027 g / cm^3
# Si number density = 18.281878 Si / 1000 Ang^3
#
#
#
# Elastic Constant Matrix: (Units=GPa)
#
#
# Indices 1 2 3 4 5 6 
#
# 1 103.6966 32.8300 44.8846 0.0000 0.4153 0.0000
# 2 32.8300 79.6639 19.9253 0.0000 -7.7474 0.0000
# 3 44.8846 19.9253 115.8834 0.0000 -22.2061 0.0000
# 4 0.0000 0.0000 0.0000 5.3133 0.0000 -7.3084
# 5 0.4153 -7.7474 -22.2061 0.0000 53.9892 0.0000
# 6 0.0000 0.0000 0.0000 -7.3084 0.0000 19.3306
#
#
#
# Elastic Compliance Matrix: (Units=1/GPa)
#
#
# Indices 1 2 3 4 5 6 
#
# 1 0.013176 -0.004482 -0.004859 0.000000 -0.002743 0.000000
# 2 -0.004482 0.014695 -0.000413 0.000000 0.001973 0.000000
# 3 -0.004859 -0.000413 0.011483 0.000000 0.004701 0.000000
# 4 0.000000 0.000000 0.000000 0.392134 0.000000 0.148256
# 5 -0.002743 0.001973 0.004701 0.000000 0.020760 0.000000
# 6 0.000000 0.000000 0.000000 0.148256 0.000000 0.107783
#
#
# Mechanical properties :
#
#
# Convention : Reuss Voigt Hill
#
# Bulk Modulus (GPa) = 50.38158 54.94708 52.66433
# Shear Modulus (GPa) = 8.53019 29.16689 18.84854
#
# Velocity S-wave (km/s) = 2.16242 3.99858 3.21440
# Velocity P-wave (km/s) = 5.81831 7.17209 6.53038
#
# Compressibility (1/GPa) = 0.01984852
#
# Stress axis : x y z
#
# Youngs Moduli (GPa) = 75.89342 68.05148 87.08501
#
# Poissons Ratio (x) = 0.30498 0.42311
# Poissons Ratio (y) = 0.34012 0.03594
# Poissons Ratio (z) = 0.36873 0.02808
#
# Static dielectric constant tensor:
#      x y z
#    x 1.670180 0.000000 -0.033500 
#    y 0.000000 1.593480 0.000000 
#    z -0.033500 0.000000 1.709390 
# 
# From -- ./inp_files/305599.got.cif
#   From: 2010.05.17/outbox.cif.g08.bks.cpg/sg15_153_cif.got.tgz:305599.got - 2010.06.03 18:47:42.
