data_PCOD9269761
_publ_section_title
;
Structure prediction by ZEFSAII (Michael W. Deem and Ramdas Pophale) SiO2 
 PCOD9269761
Probable space group: C 2/C
;
_chemical_formula_sum "Si O2"
_cell_formula_units_Z 52
_cell_length_a 21.734626
_cell_length_b 15.767781
_cell_length_c 11.976189
_cell_angle_alpha 90.000000
_cell_angle_beta 39.588924
_cell_angle_gamma 90.000000
_cell_volume 2615.581715
_symmetry_space_group_name_H-M "C 2/C"
_symmetry_group_IT_number 15
_symmetry_cell_setting 'monoclinic'
loop_
_space_group_symop_operation_xyz
x,y,z
-x,y,1/2-z
-x,-y,-z
x,-y,1/2+z
1/2+x,1/2+y,z
1/2-x,1/2+y,1/2-z
1/2-x,1/2-y,-z
1/2+x,1/2-y,1/2+z
loop_
_atom_site_type_symbol
_atom_site_label
_atom_site_fract_x
_atom_site_fract_y
_atom_site_fract_z
Si Si1 0.736212 0.624668 0.382283
Si Si2 0.250000 0.750000 0.000000
Si Si3 0.397458 0.387255 0.833879
Si Si4 0.911554 0.664298 0.441609
Si Si5 0.570366 0.673267 0.444961
Si Si6 0.244906 0.440312 0.217354
Si Si7 0.124305 0.071054 0.748150
O O1 0.800257 0.706607 0.310276
O O2 0.653957 0.633734 0.405617
O O3 0.776156 0.531315 0.309988
O O4 0.685882 0.633269 0.578564
O O5 0.337608 0.792412 0.958229
O O6 0.500000 0.374246 0.750000
O O7 0.392774 0.327094 0.733119
O O8 0.395280 0.484721 0.791660
O O9 0.307042 0.383990 0.043958
O O10 0.950718 0.737938 0.467859
O O11 0.851350 0.600753 0.602017
O O12 0.000000 0.625072 0.250000
O O13 0.476038 0.614529 0.582675
O O14 0.314570 0.449385 0.227972
#
# Coordination Sequence:
#
# PCOD9269761 Si02
#       7
#     8   4   8   8   8   8   8
#     4  10  20  34  60  90 123 162 209 264 308 378
#     4  10  20  40  66  90 116 164 216 264 322 362
#     4  11  21  32  59  95 129 162 192 260 349 400
#     4  11  25  41  62  88 126 172 224 270 309 374
#     4  11  20  35  58  92 127 162 206 260 335 388
#     4  11  22  37  59  91 129 165 210 266 325 389
#     4  11  18  34  57  92 129 155 201 259 331 394
#
# _framework density 19.880856000000001
#
# number of rings (size 3 to 8) (size 9 to 14) (size 15 to 20)
#    0.000    1.231    4.615    4.615    0.000    0.615 
#    0.000    0.769    0.000    0.000    0.000    2.154 
#    0.000    0.000    0.000    0.000    0.000    0.000 
#
# Total GULP energy -144784.656239 kJ/mol
# GULP energy per Si atom -5568.640625 kJ/mol
# Density = 1.983561 g / cm^3
# Si number density = 19.880856 Si / 1000 Ang^3
#
#
#
# Elastic Constant Matrix: (Units=GPa)
#
#
# Indices 1 2 3 4 5 6 
#
# 1 79.1264 15.0532 30.5539 0.0000 15.6621 0.0000
# 2 15.0532 53.1594 37.1883 0.0000 -2.6706 0.0000
# 3 30.5539 37.1883 142.0230 0.0000 11.7120 0.0000
# 4 0.0000 0.0000 0.0000 15.6712 0.0000 13.1821
# 5 15.6621 -2.6706 11.7120 0.0000 24.5359 0.0000
# 6 0.0000 0.0000 0.0000 13.1821 0.0000 26.4994
#
#
#
# Elastic Compliance Matrix: (Units=1/GPa)
#
#
# Indices 1 2 3 4 5 6 
#
# 1 0.015943 -0.003889 -0.001600 0.000000 -0.009836 0.000000
# 2 -0.003889 0.024744 -0.006318 0.000000 0.008192 0.000000
# 3 -0.001600 -0.006318 0.009382 0.000000 -0.004144 0.000000
# 4 0.000000 0.000000 0.000000 0.109724 0.000000 -0.054582
# 5 -0.009836 0.008192 -0.004144 0.000000 0.049905 0.000000
# 6 0.000000 0.000000 0.000000 -0.054582 0.000000 0.064888
#
#
# Mechanical properties :
#
#
# Convention : Reuss Voigt Hill
#
# Bulk Modulus (GPa) = 37.80236 48.87773 43.34005
# Shear Modulus (GPa) = 16.28563 26.10884 21.19724
#
# Velocity S-wave (km/s) = 2.86520 3.62783 3.26884
# Velocity P-wave (km/s) = 5.47737 6.49515 6.00785
#
# Compressibility (1/GPa) = 0.02645337
#
# Stress axis : x y z
#
# Youngs Moduli (GPa) = 62.72421 40.41377 106.59263
#
# Poissons Ratio (x) = 0.15718 0.17058
# Poissons Ratio (y) = 0.24395 0.67345
# Poissons Ratio (z) = 0.10038 0.25533
#
# Static dielectric constant tensor:
#      x y z
#    x 2.318480 0.000000 -0.683290 
#    y 0.000000 9.635450 0.000000 
#    z -0.683290 0.000000 2.516820 
# 
# From -- ./inp_files/113638.got.cif
#   From: 2010.05.17/outbox.cif.g08.bks.cpg/sg15_57_cif.got.tgz:113638.got - 2010.06.03 18:47:42.
