data_PCOD9269610
_publ_section_title
;
Structure prediction by ZEFSAII (Michael W. Deem and Ramdas Pophale) SiO2 
 PCOD9269610
Probable space group: C 2/C
;
_chemical_formula_sum "Si O2"
_cell_formula_units_Z 40
_cell_length_a 17.635137
_cell_length_b 7.085775
_cell_length_c 15.046455
_cell_angle_alpha 90.000000
_cell_angle_beta 121.001575
_cell_angle_gamma 90.000000
_cell_volume 1611.605749
_symmetry_space_group_name_H-M "C 2/C"
_symmetry_group_IT_number 15
_symmetry_cell_setting 'monoclinic'
loop_
_space_group_symop_operation_xyz
x,y,z
-x,y,1/2-z
-x,-y,-z
x,-y,1/2+z
1/2+x,1/2+y,z
1/2-x,1/2+y,1/2-z
1/2-x,1/2-y,-z
1/2+x,1/2-y,1/2+z
loop_
_atom_site_type_symbol
_atom_site_label
_atom_site_fract_x
_atom_site_fract_y
_atom_site_fract_z
Si Si1 0.941835 0.227450 0.852231
Si Si2 0.082828 0.964262 0.341654
Si Si3 0.850879 0.473915 0.392629
Si Si4 0.265665 0.022691 0.015887
Si Si5 0.798075 0.954004 0.835892
O O1 0.904781 0.193051 0.729058
O O2 0.039403 0.143134 0.899000
O O3 0.878548 0.097044 0.872487
O O4 0.931313 0.431725 0.887843
O O5 0.173238 0.059915 0.421346
O O6 0.000000 0.081210 0.250000
O O7 0.841460 0.523955 0.491113
O O8 0.839773 0.251303 0.374466
O O9 0.763838 0.551091 0.287993
O O10 0.250000 0.250000 0.000000
O O11 0.263457 0.984005 0.118660
#
# Coordination Sequence:
#
# PCOD9269610 Si02
#       5
#     8   8   8   8   8
#     4   9  19  36  57  78 113 155 183 229 285 340
#     4   8  18  38  58  77 122 155 175 235 302 326
#     4  11  19  37  56  86 114 146 192 236 281 334
#     4  10  20  34  58  87 111 148 193 235 283 338
#     4  11  20  33  60  82 114 150 190 235 284 332
#
# _framework density 24.819966999999998
#
# number of rings (size 3 to 8) (size 9 to 14) (size 15 to 20)
#    1.200    0.800    4.000    1.200    0.000    1.600 
#    0.000    8.000    0.000    0.000    0.000    0.000 
#    0.000    0.000    0.000    0.000    0.000    0.000 
#
# Total GULP energy -111602.627872 kJ/mol
# GULP energy per Si atom -5580.131394 kJ/mol
# Density = 2.476348 g / cm^3
# Si number density = 24.819967 Si / 1000 Ang^3
#
#
#
# Elastic Constant Matrix: (Units=GPa)
#
#
# Indices 1 2 3 4 5 6 
#
# 1 57.6538 -0.0360 18.9997 0.0000 -21.9460 0.0000
# 2 -0.0360 65.6737 16.2250 0.0000 -5.6393 0.0000
# 3 18.9997 16.2250 91.0239 0.0000 -38.8847 0.0000
# 4 0.0000 0.0000 0.0000 23.0476 0.0000 -6.0677
# 5 -21.9460 -5.6393 -38.8847 0.0000 43.5098 0.0000
# 6 0.0000 0.0000 0.0000 -6.0677 0.0000 8.9547
#
#
#
# Elastic Compliance Matrix: (Units=1/GPa)
#
#
# Indices 1 2 3 4 5 6 
#
# 1 0.021526 0.000947 0.000046 0.000000 0.011022 0.000000
# 2 0.000947 0.015986 -0.003167 0.000000 -0.000281 0.000000
# 3 0.000046 -0.003167 0.018401 0.000000 0.016058 0.000000
# 4 0.000000 0.000000 0.000000 0.052809 0.000000 0.035783
# 5 0.011022 -0.000281 0.016058 0.000000 0.042857 0.000000
# 6 0.000000 0.000000 0.000000 0.035783 0.000000 0.135920
#
#
# Mechanical properties :
#
#
# Convention : Reuss Voigt Hill
#
# Bulk Modulus (GPa) = 19.39336 31.63655 25.51495
# Shear Modulus (GPa) = 16.17947 27.04658 21.61302
#
# Velocity S-wave (km/s) = 2.55595 3.30466 2.95412
# Velocity P-wave (km/s) = 4.06707 5.22830 4.68381
#
# Compressibility (1/GPa) = 0.05156405
#
# Stress axis : x y z
#
# Youngs Moduli (GPa) = 46.45643 62.55620 54.34584
#
# Poissons Ratio (x) = -0.05922 -0.00253
# Poissons Ratio (y) = -0.04398 0.17212
# Poissons Ratio (z) = -0.00216 0.19812
#
# Static dielectric constant tensor:
#      x y z
#    x 2.016580 0.000000 0.038450 
#    y 0.000000 2.031960 0.000000 
#    z 0.038450 0.000000 1.993520 
# 
# From -- ./inp_files/208285.got.cif
#   From: 2010.05.17/outbox.cif.g08.bks.cpg/sg15_105_cif.got.tgz:208285.got - 2010.06.03 18:47:42.
