data_PCOD9269182
_publ_section_title
;
Structure prediction by ZEFSAII (Michael W. Deem and Ramdas Pophale) SiO2 
 PCOD9269182
Probable space group: C 2/C
;
_chemical_formula_sum "Si O2"
_cell_formula_units_Z 52
_cell_length_a 9.437809
_cell_length_b 26.043190
_cell_length_c 10.488543
_cell_angle_alpha 90.000000
_cell_angle_beta 114.798922
_cell_angle_gamma 90.000000
_cell_volume 2340.257824
_symmetry_space_group_name_H-M "C 2/C"
_symmetry_group_IT_number 15
_symmetry_cell_setting 'monoclinic'
loop_
_space_group_symop_operation_xyz
x,y,z
-x,y,1/2-z
-x,-y,-z
x,-y,1/2+z
1/2+x,1/2+y,z
1/2-x,1/2+y,1/2-z
1/2-x,1/2-y,-z
1/2+x,1/2-y,1/2+z
loop_
_atom_site_type_symbol
_atom_site_label
_atom_site_fract_x
_atom_site_fract_y
_atom_site_fract_z
Si Si1 0.000000 0.920245 0.750000
Si Si2 0.060222 0.247830 0.417934
Si Si3 0.829376 0.008644 0.997411
Si Si4 0.693444 0.603245 0.658801
Si Si5 0.100511 0.852965 0.553144
Si Si6 0.167008 0.403260 0.012881
Si Si7 0.067326 0.637049 0.917709
O O1 0.127332 0.957660 0.862564
O O2 0.080124 0.883417 0.677287
O O3 0.250000 0.250000 0.500000
O O4 0.014411 0.306128 0.435424
O O5 0.000000 0.240491 0.250000
O O6 0.969165 0.204119 0.462434
O O7 0.729768 0.958607 0.991867
O O8 0.754866 0.046451 0.864981
O O9 0.000000 0.000000 0.000000
O O10 0.510050 0.614252 0.584790
O O11 0.754642 0.612566 0.822233
O O12 0.753527 0.636445 0.559260
O O13 0.274482 0.861751 0.567448
O O14 0.987312 0.400281 0.990658
O O15 0.000000 0.624539 0.750000
#
# Coordination Sequence:
#
# PCOD9269182 Si02
#       7
#     4   8   8   8   8   8   8
#     4  10  20  34  52  90 116 158 214 260 314 376
#     4  11  22  41  70  97 129 178 222 266 336 402
#     4  11  20  32  58  86 115 163 207 265 323 382
#     4  10  20  37  58  84 119 162 209 263 325 388
#     4  11  21  35  63  89 121 163 213 272 317 378
#     4  11  22  36  58  93 125 157 217 275 322 388
#     4   9  21  39  59  86 124 163 206 265 328 390
#
# _framework density 22.219771999999999
#
# number of rings (size 3 to 8) (size 9 to 14) (size 15 to 20)
#    0.000    1.538    5.385    1.385    0.000    1.231 
#    0.000    0.000    0.000    6.462    0.000    0.000 
#    0.000    0.000    0.000    0.000    0.000    0.000 
#
# Total GULP energy -144840.190609 kJ/mol
# GULP energy per Si atom -5570.776562 kJ/mol
# Density = 2.216920 g / cm^3
# Si number density = 22.219772 Si / 1000 Ang^3
#
#
#
# Elastic Constant Matrix: (Units=GPa)
#
#
# Indices 1 2 3 4 5 6 
#
# 1 96.5044 40.3807 18.8056 0.0000 -31.9931 0.0000
# 2 40.3807 135.6914 5.1960 0.0000 -23.2848 0.0000
# 3 18.8056 5.1960 55.2299 0.0000 -9.5371 0.0000
# 4 0.0000 0.0000 0.0000 24.3137 0.0000 -4.9814
# 5 -31.9931 -23.2848 -9.5371 0.0000 36.7937 0.0000
# 6 0.0000 0.0000 0.0000 -4.9814 0.0000 30.0530
#
#
#
# Elastic Compliance Matrix: (Units=1/GPa)
#
#
# Indices 1 2 3 4 5 6 
#
# 1 0.015827 -0.002657 -0.003196 0.000000 0.011252 0.000000
# 2 -0.002657 0.008714 0.000668 0.000000 0.003378 0.000000
# 3 -0.003196 0.000668 0.019602 0.000000 0.002725 0.000000
# 4 0.000000 0.000000 0.000000 0.042575 0.000000 0.007057
# 5 0.011252 0.003378 0.002725 0.000000 0.039807 0.000000
# 6 0.000000 0.000000 0.000000 0.007057 0.000000 0.034444
#
#
# Mechanical properties :
#
#
# Convention : Reuss Voigt Hill
#
# Bulk Modulus (GPa) = 29.60859 46.24336 37.92598
# Shear Modulus (GPa) = 27.38273 33.10163 30.24218
#
# Velocity S-wave (km/s) = 3.51431 3.86390 3.69324
# Velocity P-wave (km/s) = 5.46090 6.38461 5.94073
#
# Compressibility (1/GPa) = 0.03377398
#
# Stress axis : x y z
#
# Youngs Moduli (GPa) = 63.18293 114.75314 51.01517
#
# Poissons Ratio (x) = 0.30487 0.16305
# Poissons Ratio (y) = 0.16786 -0.03408
# Poissons Ratio (z) = 0.20194 -0.07666
#
# Static dielectric constant tensor:
#      x y z
#    x 2.079790 0.000000 0.100950 
#    y 0.000000 1.892300 0.000000 
#    z 0.100950 0.000000 1.845060 
# 
# From -- ./inp_files/80818.got.cif
#   From: 2010.05.17/outbox.cif.g08.bks.cpg/sg15_41_cif.got.tgz:80818.got - 2010.06.03 18:47:42.
