data_PCOD9269719
_publ_section_title
;
Structure prediction by ZEFSAII (Michael W. Deem and Ramdas Pophale) SiO2 
 PCOD9269719
Probable space group: C 2/C
;
_chemical_formula_sum "Si O2"
_cell_formula_units_Z 60
_cell_length_a 11.949060
_cell_length_b 18.622757
_cell_length_c 12.250370
_cell_angle_alpha 90.000000
_cell_angle_beta 90.874706
_cell_angle_gamma 90.000000
_cell_volume 2725.689070
_symmetry_space_group_name_H-M "C 2/C"
_symmetry_group_IT_number 15
_symmetry_cell_setting 'monoclinic'
loop_
_space_group_symop_operation_xyz
x,y,z
-x,y,1/2-z
-x,-y,-z
x,-y,1/2+z
1/2+x,1/2+y,z
1/2-x,1/2+y,1/2-z
1/2-x,1/2-y,-z
1/2+x,1/2-y,1/2+z
loop_
_atom_site_type_symbol
_atom_site_label
_atom_site_fract_x
_atom_site_fract_y
_atom_site_fract_z
Si Si1 0.846981 0.900094 0.675776
Si Si2 0.934330 0.147271 0.393220
Si Si3 0.125969 0.387422 0.263557
Si Si4 0.279292 0.879209 0.474703
Si Si5 0.000000 0.326056 0.750000
Si Si6 0.519285 0.782514 0.980699
Si Si7 0.209374 0.331600 0.478419
Si Si8 0.164205 0.455231 0.813944
O O1 0.870036 0.842766 0.776310
O O2 0.774186 0.877093 0.570497
O O3 0.778853 0.957996 0.745257
O O4 0.971367 0.912200 0.630300
O O5 0.847452 0.131430 0.488387
O O6 0.997707 0.217266 0.437529
O O7 0.188079 0.390690 0.148665
O O8 0.211639 0.351668 0.351278
O O9 0.106531 0.469023 0.301257
O O10 0.000000 0.353924 0.250000
O O11 0.355163 0.810347 0.506335
O O12 0.318804 0.941307 0.557785
O O13 0.995290 0.273831 0.853103
O O14 0.101032 0.383641 0.768407
O O15 0.424393 0.840820 0.005760
O O16 0.250000 0.250000 0.500000
#
# Coordination Sequence:
#
# PCOD9269719 Si02
#       8
#     8   8   8   8   4   8   8   8
#     4  10  22  42  68  91 131 178 229 269 337 402
#     4  10  22  42  67  89 131 187 228 272 329 414
#     4  12  26  42  70  99 138 176 220 282 342 410
#     4  10  24  41  62  97 132 174 230 270 339 394
#     4  10  20  34  60 100 138 166 216 286 344 390
#     4  11  21  37  64  98 133 177 220 279 342 401
#     4  12  25  39  64 103 135 169 219 282 341 401
#     4  10  22  41  66  96 132 175 221 281 338 403
#
# _framework density 22.012782000000001
#
# number of rings (size 3 to 8) (size 9 to 14) (size 15 to 20)
#    0.000    1.333    4.667    0.400    3.733    1.600 
#    0.000    0.667    5.867    0.000    0.000    0.000 
#    0.000    0.000    0.000    0.000    0.000    0.000 
#
# Total GULP energy -167096.790124 kJ/mol
# GULP energy per Si atom -5569.893004 kJ/mol
# Density = 2.196268 g / cm^3
# Si number density = 22.012782 Si / 1000 Ang^3
#
#
#
# Elastic Constant Matrix: (Units=GPa)
#
#
# Indices 1 2 3 4 5 6 
#
# 1 107.9201 7.9577 37.0190 0.0000 -8.1951 0.0000
# 2 7.9577 35.9742 29.9645 0.0000 15.8004 0.0000
# 3 37.0190 29.9645 182.7677 0.0000 12.3201 0.0000
# 4 0.0000 0.0000 0.0000 7.6292 0.0000 6.0049
# 5 -8.1951 15.8004 12.3201 0.0000 43.3480 0.0000
# 6 0.0000 0.0000 0.0000 6.0049 0.0000 18.7074
#
#
#
# Elastic Compliance Matrix: (Units=1/GPa)
#
#
# Indices 1 2 3 4 5 6 
#
# 1 0.010346 -0.002083 -0.001975 0.000000 0.003276 0.000000
# 2 -0.002083 0.038020 -0.004946 0.000000 -0.012846 0.000000
# 3 -0.001975 -0.004946 0.006715 0.000000 -0.000479 0.000000
# 4 0.000000 0.000000 0.000000 0.175386 0.000000 -0.056297
# 5 0.003276 -0.012846 -0.000479 0.000000 0.028507 0.000000
# 6 0.000000 0.000000 0.000000 -0.056297 0.000000 0.071526
#
#
# Mechanical properties :
#
#
# Convention : Reuss Voigt Hill
#
# Bulk Modulus (GPa) = 26.97278 52.94939 39.96108
# Shear Modulus (GPa) = 13.85563 30.71832 22.28697
#
# Velocity S-wave (km/s) = 2.51158 3.73966 3.18536
# Velocity P-wave (km/s) = 4.54868 6.53857 5.63220
#
# Compressibility (1/GPa) = 0.03707442
#
# Stress axis : x y z
#
# Youngs Moduli (GPa) = 96.65647 26.30189 148.93015
#
# Poissons Ratio (x) = 0.05478 0.29413
# Poissons Ratio (y) = 0.20129 0.73654
# Poissons Ratio (z) = 0.19089 0.13008
#
# Static dielectric constant tensor:
#      x y z
#    x 1.896330 0.000000 -0.008520 
#    y 0.000000 1.821020 0.000000 
#    z -0.008520 0.000000 1.883260 
# 
# From -- ./inp_files/89634.got.cif
#   From: 2010.05.17/outbox.cif.g08.bks.cpg/sg15_45_cif.got.tgz:89634.got - 2010.06.03 18:47:42.
