data_PCOD9269553
_publ_section_title
;
Structure prediction by ZEFSAII (Michael W. Deem and Ramdas Pophale) SiO2 
 PCOD9269553
Probable space group: C 2/C
;
_chemical_formula_sum "Si O2"
_cell_formula_units_Z 60
_cell_length_a 26.011270
_cell_length_b 20.916961
_cell_length_c 8.214231
_cell_angle_alpha 90.000000
_cell_angle_beta 45.735907
_cell_angle_gamma 90.000000
_cell_volume 3200.509326
_symmetry_space_group_name_H-M "C 2/C"
_symmetry_group_IT_number 15
_symmetry_cell_setting 'monoclinic'
loop_
_space_group_symop_operation_xyz
x,y,z
-x,y,1/2-z
-x,-y,-z
x,-y,1/2+z
1/2+x,1/2+y,z
1/2-x,1/2+y,1/2-z
1/2-x,1/2-y,-z
1/2+x,1/2-y,1/2+z
loop_
_atom_site_type_symbol
_atom_site_label
_atom_site_fract_x
_atom_site_fract_y
_atom_site_fract_z
Si Si1 0.951862 0.329892 0.196927
Si Si2 0.420742 0.528996 0.628698
Si Si3 0.855320 0.090104 0.099569
Si Si4 0.695008 0.908079 0.973757
Si Si5 0.146473 0.484904 0.361540
Si Si6 0.500000 0.375570 0.750000
Si Si7 0.549441 0.940499 0.845348
Si Si8 0.043785 0.802058 0.983150
O O1 0.876629 0.366371 0.402383
O O2 0.934853 0.267853 0.127958
O O3 0.000000 0.313911 0.250000
O O4 0.005084 0.377843 0.983176
O O5 0.500000 0.500000 0.500000
O O6 0.368651 0.472033 0.685267
O O7 0.435211 0.576883 0.445149
O O8 0.390083 0.567957 0.850710
O O9 0.774080 0.114811 0.259500
O O10 0.896501 0.147987 0.093237
O O11 0.691405 0.976164 0.891061
O O12 0.687966 0.930182 0.175677
O O13 0.081043 0.449797 0.597357
O O14 0.115794 0.542607 0.317711
O O15 0.510398 0.334639 0.892544
O O16 0.500000 0.000000 0.000000
O O17 0.000000 0.794420 0.250000
#
# Coordination Sequence:
#
# PCOD9269553 Si02
#       8
#     8   8   8   8   8   4   8   8
#     4  12  24  40  64  90 123 177 228 271 317 386
#     4  12  20  38  73  99 125 163 213 268 328 389
#     4  12  23  41  63  99 138 166 207 269 340 400
#     4  11  24  37  59  94 135 176 206 263 336 401
#     4  10  20  34  57  91 126 160 208 264 328 378
#     4  12  22  42  70 104 126 156 220 282 324 374
#     4  11  18  33  61  87 116 156 218 283 309 359
#     4  12  26  43  68  95 126 171 228 277 319 384
#
# _framework density 18.747015999999999
#
# number of rings (size 3 to 8) (size 9 to 14) (size 15 to 20)
#    0.000    0.533    8.667    1.200    1.867    0.533 
#    0.000    0.000    0.000    1.600    0.000    0.000 
#    0.000    0.000    0.000    0.000    0.000    0.000 
#
# Total GULP energy -167097.799892 kJ/mol
# GULP energy per Si atom -5569.926663 kJ/mol
# Density = 1.870435 g / cm^3
# Si number density = 18.747016 Si / 1000 Ang^3
#
#
#
# Elastic Constant Matrix: (Units=GPa)
#
#
# Indices 1 2 3 4 5 6 
#
# 1 57.9666 19.4453 48.6376 0.0000 6.6063 0.0000
# 2 19.4453 95.6456 35.8502 0.0000 6.0884 0.0000
# 3 48.6376 35.8502 107.4720 0.0000 8.3209 0.0000
# 4 0.0000 0.0000 0.0000 23.4243 0.0000 14.9188
# 5 6.6063 6.0884 8.3209 0.0000 30.8162 0.0000
# 6 0.0000 0.0000 0.0000 14.9188 0.0000 21.5765
#
#
#
# Elastic Compliance Matrix: (Units=1/GPa)
#
#
# Indices 1 2 3 4 5 6 
#
# 1 0.028101 -0.000981 -0.012194 0.000000 -0.002538 0.000000
# 2 -0.000981 0.012036 -0.003476 0.000000 -0.001229 0.000000
# 3 -0.012194 -0.003476 0.016063 0.000000 -0.001036 0.000000
# 4 0.000000 0.000000 0.000000 0.076284 0.000000 -0.052746
# 5 -0.002538 -0.001229 -0.001036 0.000000 0.033517 0.000000
# 6 0.000000 0.000000 0.000000 -0.052746 0.000000 0.082817
#
#
# Mechanical properties :
#
#
# Convention : Reuss Voigt Hill
#
# Bulk Modulus (GPa) = 43.67072 52.10560 47.88816
# Shear Modulus (GPa) = 17.25615 25.64013 21.44814
#
# Velocity S-wave (km/s) = 3.03722 3.70224 3.38610
# Velocity P-wave (km/s) = 5.97034 6.79190 6.39433
#
# Compressibility (1/GPa) = 0.02289864
#
# Stress axis : x y z
#
# Youngs Moduli (GPa) = 35.58609 83.08589 62.25585
#
# Poissons Ratio (x) = 0.08151 0.75912
# Poissons Ratio (y) = 0.03491 0.21638
# Poissons Ratio (z) = 0.43392 0.28878
#
# Static dielectric constant tensor:
#      x y z
#    x 1.722370 0.000000 0.048390 
#    y 0.000000 1.643530 0.000000 
#    z 0.048390 0.000000 1.663940 
# 
# From -- ./inp_files/70767.got.cif
#   From: 2010.05.17/outbox.cif.g08.bks.cpg/sg15_36_cif.got.tgz:70767.got - 2010.06.03 18:47:42.
