data_PCOD9269391
_publ_section_title
;
Structure prediction by ZEFSAII (Michael W. Deem and Ramdas Pophale) SiO2 
 PCOD9269391
Probable space group: C 2/C
;
_chemical_formula_sum "Si O2"
_cell_formula_units_Z 56
_cell_length_a 8.498129
_cell_length_b 11.379269
_cell_length_c 26.429183
_cell_angle_alpha 90.000000
_cell_angle_beta 104.969366
_cell_angle_gamma 90.000000
_cell_volume 2469.035596
_symmetry_space_group_name_H-M "C 2/C"
_symmetry_group_IT_number 15
_symmetry_cell_setting 'monoclinic'
loop_
_space_group_symop_operation_xyz
x,y,z
-x,y,1/2-z
-x,-y,-z
x,-y,1/2+z
1/2+x,1/2+y,z
1/2-x,1/2+y,1/2-z
1/2-x,1/2-y,-z
1/2+x,1/2-y,1/2+z
loop_
_atom_site_type_symbol
_atom_site_label
_atom_site_fract_x
_atom_site_fract_y
_atom_site_fract_z
Si Si1 0.095379 0.803322 0.213210
Si Si2 0.622530 0.217665 0.690373
Si Si3 0.372834 0.428223 0.047505
Si Si4 0.460809 0.470811 0.838372
Si Si5 0.863478 0.538999 0.634017
Si Si6 0.208864 0.130160 0.524317
Si Si7 0.369073 0.776105 0.618041
O O1 0.276709 0.800052 0.249502
O O2 0.050453 0.750567 0.155102
O O3 0.000000 0.734724 0.250000
O O4 0.002629 0.928562 0.199109
O O5 0.522548 0.340092 0.681147
O O6 0.518850 0.101583 0.670607
O O7 0.745106 0.243649 0.653320
O O8 0.445113 0.503766 0.101253
O O9 0.518814 0.386237 0.022910
O O10 0.314705 0.307880 0.068305
O O11 0.256394 0.516372 0.007932
O O12 0.274068 0.508027 0.836058
O O13 0.799967 0.624802 0.585179
O O14 0.877420 0.413034 0.608024
O O15 0.250000 0.250000 0.500000
#
# Coordination Sequence:
#
# PCOD9269391 Si02
#       7
#     8   8   8   8   8   8   8
#     4   9  19  36  54  75 104 144 179 220 281 329
#     4  10  20  34  56  79 109 145 179 230 278 332
#     4   9  19  37  57  76 107 150 179 225 286 327
#     4   9  19  37  54  78 111 140 183 231 273 332
#     4  10  21  35  55  83 108 143 186 227 284 332
#     4  10  20  35  57  81 108 142 186 231 278 337
#     4   9  20  38  55  76 111 144 183 229 275 339
#
# _framework density 22.680921999999999
#
# number of rings (size 3 to 8) (size 9 to 14) (size 15 to 20)
#    0.000    2.571    0.000    0.857    2.000    3.429 
#    2.571    5.714    0.000    0.000    0.000    0.000 
#    0.000    0.000    0.000    0.000    0.000    0.000 
#
# Total GULP energy -156048.856265 kJ/mol
# GULP energy per Si atom -5573.173438 kJ/mol
# Density = 2.262930 g / cm^3
# Si number density = 22.680922 Si / 1000 Ang^3
#
#
#
# Elastic Constant Matrix: (Units=GPa)
#
#
# Indices 1 2 3 4 5 6 
#
# 1 17.2485 3.6969 12.9336 0.0000 8.2116 0.0000
# 2 3.6969 89.8117 9.2437 0.0000 -6.0543 0.0000
# 3 12.9336 9.2437 57.6827 0.0000 -7.7572 0.0000
# 4 0.0000 0.0000 0.0000 22.2693 0.0000 -4.4761
# 5 8.2116 -6.0543 -7.7572 0.0000 24.2362 0.0000
# 6 0.0000 0.0000 0.0000 -4.4761 0.0000 18.0483
#
#
#
# Elastic Compliance Matrix: (Units=1/GPa)
#
#
# Indices 1 2 3 4 5 6 
#
# 1 0.100773 -0.004256 -0.027846 0.000000 -0.044119 0.000000
# 2 -0.004256 0.011630 -0.000339 0.000000 0.004239 0.000000
# 3 -0.027846 -0.000339 0.026011 0.000000 0.017675 0.000000
# 4 0.000000 0.000000 0.000000 0.047261 0.000000 0.011721
# 5 -0.044119 0.004239 0.017675 0.000000 0.062925 0.000000
# 6 0.000000 0.000000 0.000000 0.011721 0.000000 0.058314
#
#
# Mechanical properties :
#
#
# Convention : Reuss Voigt Hill
#
# Bulk Modulus (GPa) = 13.59980 24.05459 18.82719
# Shear Modulus (GPa) = 12.61647 22.16868 17.39257
#
# Velocity S-wave (km/s) = 2.36107 3.12976 2.77219
# Velocity P-wave (km/s) = 3.66634 4.86715 4.30878
#
# Compressibility (1/GPa) = 0.07353050
#
# Stress axis : x y z
#
# Youngs Moduli (GPa) = 9.92333 85.98257 38.44491
#
# Poissons Ratio (x) = 0.36595 1.07055
# Poissons Ratio (y) = 0.04224 0.01305
# Poissons Ratio (z) = 0.27633 0.02919
#
# Static dielectric constant tensor:
#      x y z
#    x 1.951760 0.000000 -0.023030 
#    y 0.000000 1.947320 0.000000 
#    z -0.023030 0.000000 1.870920 
# 
# From -- ./inp_files/288072.got.cif
#   From: 2010.05.17/outbox.cif.g08.bks.cpg/sg15_145_cif.got.tgz:288072.got - 2010.06.03 18:47:42.
