data_PCOD9269000
_publ_section_title
;
Structure prediction by ZEFSAII (Michael W. Deem and Ramdas Pophale) SiO2 
 PCOD9269000
Probable space group: C 2/C
;
_chemical_formula_sum "Si O2"
_cell_formula_units_Z 64
_cell_length_a 32.154573
_cell_length_b 16.850296
_cell_length_c 17.036438
_cell_angle_alpha 90.000000
_cell_angle_beta 19.343883
_cell_angle_gamma 90.000000
_cell_volume 3057.511679
_symmetry_space_group_name_H-M "C 2/C"
_symmetry_group_IT_number 15
_symmetry_cell_setting 'monoclinic'
loop_
_space_group_symop_operation_xyz
x,y,z
-x,y,1/2-z
-x,-y,-z
x,-y,1/2+z
1/2+x,1/2+y,z
1/2-x,1/2+y,1/2-z
1/2-x,1/2-y,-z
1/2+x,1/2-y,1/2+z
loop_
_atom_site_type_symbol
_atom_site_label
_atom_site_fract_x
_atom_site_fract_y
_atom_site_fract_z
Si Si1 0.945783 0.119963 0.076604
Si Si2 0.062316 0.505960 0.227048
Si Si3 0.862820 0.273836 0.491898
Si Si4 0.880964 0.381818 0.134169
Si Si5 0.863076 0.907971 0.007765
Si Si6 0.585862 0.279351 0.019189
Si Si7 0.168732 0.949867 0.265749
Si Si8 0.672378 0.157172 0.601320
O O1 0.967529 0.170136 0.958722
O O2 0.822803 0.150930 0.340632
O O3 0.896983 0.032811 0.138488
O O4 0.070198 0.113691 0.907552
O O5 0.114757 0.419389 0.157987
O O6 0.000000 0.508407 0.250000
O O7 0.964533 0.543320 0.462177
O O8 0.188476 0.558296 0.015656
O O9 0.877297 0.185769 0.500000
O O10 0.734161 0.306816 0.759820
O O11 0.840417 0.272112 0.438334
O O12 0.000000 0.313131 0.250000
O O13 0.737722 0.412167 0.381119
O O14 0.904505 0.312180 0.028039
O O15 0.894735 0.344186 0.195538
O O16 0.813114 0.948597 0.173802
O O17 0.000000 0.941770 0.750000
O O18 0.500000 0.285891 0.250000
#
# Coordination Sequence:
#
# PCOD9269000 Si02
#       8
#     8   8   8   8   8   8   8   8
#     4   9  21  40  60  85 119 159 199 251 305 355
#     4  11  21  38  60  85 123 157 195 246 312 361
#     4   9  20  38  59  87 120 158 204 248 297 358
#     4  11  22  37  60  89 120 157 203 249 305 365
#     4  10  20  33  59  88 113 154 201 249 287 359
#     4  10  22  39  61  87 125 164 199 251 311 366
#     4  10  20  38  61  85 119 155 200 249 301 362
#     4  10  21  38  61  87 118 157 202 253 299 356
#
# _framework density 20.932054999999998
#
# number of rings (size 3 to 8) (size 9 to 14) (size 15 to 20)
#    0.000    2.000    1.250    1.875    1.750    7.000 
#    2.250    0.625    0.000    0.000    0.000    0.000 
#    0.000    0.000    0.000    0.000    0.000    0.000 
#
# Total GULP energy -178215.194700 kJ/mol
# GULP energy per Si atom -5569.224834 kJ/mol
# Density = 2.088441 g / cm^3
# Si number density = 20.932055 Si / 1000 Ang^3
#
#
#
# Elastic Constant Matrix: (Units=GPa)
#
#
# Indices 1 2 3 4 5 6 
#
# 1 82.9454 10.9663 55.4869 0.0000 -0.1054 0.0001
# 2 10.9663 13.0992 19.7538 0.0000 -6.6810 0.0001
# 3 55.4869 19.7538 124.7770 -0.0001 -1.1499 0.0001
# 4 0.0000 0.0000 -0.0001 2.7357 0.0000 13.4221
# 5 -0.1054 -6.6810 -1.1499 0.0000 45.3538 -0.0001
# 6 0.0001 0.0001 0.0001 13.4221 -0.0001 26.7899
#
#
#
# Elastic Compliance Matrix: (Units=1/GPa)
#
#
# Indices 1 2 3 4 5 6 
#
# 1 0.017327 -0.004294 -0.007033 0.000000 -0.000771 0.000000
# 2 -0.004294 0.111679 -0.015623 -0.000001 0.016045 0.000000
# 3 -0.007033 -0.015623 0.013597 0.000000 -0.001973 0.000000
# 4 0.000000 -0.000001 0.000000 -0.250696 0.000000 0.125602
# 5 -0.000771 0.016045 -0.001973 0.000000 0.024361 0.000000
# 6 0.000000 0.000000 0.000000 0.125602 0.000000 -0.025601
#
#
# Mechanical properties :
#
#
# Convention : Reuss Voigt Hill
#
# Bulk Modulus (GPa) = 11.27341 43.69283 27.48312
# Shear Modulus (GPa) = -193.29845 23.95019 -84.67413
#
# Velocity S-wave (km/s) = -9.62009 3.38625 -6.36708
# Velocity P-wave (km/s) = 10.86266 6.01730 6.39490
#
# Compressibility (1/GPa) = 0.08870430
#
# Stress axis : x y z
#
# Youngs Moduli (GPa) = 57.71226 8.95426 73.54686
#
# Poissons Ratio (x) = 0.03845 0.51723
# Poissons Ratio (y) = 0.24779 1.14902
# Poissons Ratio (z) = 0.40587 0.13989
#
# Static dielectric constant tensor:
#      x y z
#    x 1.750720 0.000000 -0.046340 
#    y 0.000000 1.781750 0.000000 
#    z -0.046340 0.000000 1.863220 
# 
# From -- ./inp_files/183099.got.cif
#   From: 2010.05.17/outbox.cif.g08.bks.cpg/sg15_92_cif.got.tgz:183099.got - 2010.06.03 18:47:42.
