data_PCOD9269778
_publ_section_title
;
Structure prediction by ZEFSAII (Michael W. Deem and Ramdas Pophale) SiO2 
 PCOD9269778
Probable space group: C 2/C
;
_chemical_formula_sum "Si O2"
_cell_formula_units_Z 60
_cell_length_a 17.249269
_cell_length_b 16.991092
_cell_length_c 11.312323
_cell_angle_alpha 90.000000
_cell_angle_beta 131.435908
_cell_angle_gamma 90.000000
_cell_volume 2485.588605
_symmetry_space_group_name_H-M "C 2/C"
_symmetry_group_IT_number 15
_symmetry_cell_setting 'monoclinic'
loop_
_space_group_symop_operation_xyz
x,y,z
-x,y,1/2-z
-x,-y,-z
x,-y,1/2+z
1/2+x,1/2+y,z
1/2-x,1/2+y,1/2-z
1/2-x,1/2-y,-z
1/2+x,1/2-y,1/2+z
loop_
_atom_site_type_symbol
_atom_site_label
_atom_site_fract_x
_atom_site_fract_y
_atom_site_fract_z
Si Si1 0.089625 0.566243 0.241036
Si Si2 0.774811 0.331955 0.464559
Si Si3 0.463640 0.635162 0.491110
Si Si4 0.345051 0.892229 0.167092
Si Si5 0.965272 0.314218 0.471873
Si Si6 0.500000 0.474813 0.250000
Si Si7 0.693396 0.435576 0.819163
Si Si8 0.170553 0.912029 0.161566
O O1 0.189865 0.605236 0.402335
O O2 0.108665 0.474751 0.239094
O O3 0.000000 0.569829 0.250000
O O4 0.049971 0.621438 0.095600
O O5 0.750000 0.250000 0.500000
O O6 0.868284 0.326158 0.463924
O O7 0.680245 0.362513 0.291808
O O8 0.498200 0.725401 0.530840
O O9 0.458254 0.585034 0.605556
O O10 0.359314 0.633088 0.309691
O O11 0.551684 0.587392 0.508390
O O12 0.426550 0.829040 0.298540
O O13 0.239667 0.874832 0.131303
O O14 0.297862 0.909572 0.990698
O O15 0.398223 0.524910 0.191410
O O16 0.713827 0.503821 0.743997
#
# Coordination Sequence:
#
# PCOD9269778 Si02
#       8
#     8   8   8   8   8   4   8   8
#     4  10  21  40  65  90 122 166 213 259 313 367
#     4  10  20  34  60  93 125 158 204 262 318 364
#     4  11  23  38  62  93 131 159 206 253 325 378
#     4  11  22  41  65  86 127 165 213 263 301 373
#     4  10  24  38  59  94 127 167 204 258 319 367
#     4  10  22  38  64  92 122 164 204 266 312 366
#     4  11  21  38  61  90 123 168 212 247 311 380
#     4  10  21  37  59  94 118 158 212 257 311 371
#
# _framework density 24.139151999999999
#
# number of rings (size 3 to 8) (size 9 to 14) (size 15 to 20)
#    0.000    1.600    1.333    4.400    6.533    1.600 
#    0.000    0.000    4.400    0.000    0.000    0.000 
#    0.000    0.000    0.000    0.000    0.000    0.000 
#
# Total GULP energy -167610.774541 kJ/mol
# GULP energy per Si atom -5587.025818 kJ/mol
# Density = 2.408421 g / cm^3
# Si number density = 24.139152 Si / 1000 Ang^3
#
#
#
# Elastic Constant Matrix: (Units=GPa)
#
#
# Indices 1 2 3 4 5 6 
#
# 1 47.4512 -7.4158 5.7436 0.0000 -3.5569 0.0000
# 2 -7.4158 68.3376 41.7535 0.0000 -0.8165 0.0000
# 3 5.7436 41.7535 126.7494 0.0000 15.1593 0.0000
# 4 0.0000 0.0000 0.0000 37.1403 0.0000 6.4072
# 5 -3.5569 -0.8165 15.1593 0.0000 14.8670 0.0000
# 6 0.0000 0.0000 0.0000 6.4072 0.0000 18.8807
#
#
#
# Elastic Compliance Matrix: (Units=1/GPa)
#
#
# Indices 1 2 3 4 5 6 
#
# 1 0.023041 0.004962 -0.003839 0.000000 0.009699 0.000000
# 2 0.004962 0.020300 -0.008186 0.000000 0.010649 0.000000
# 3 -0.003839 -0.008186 0.012441 0.000000 -0.014053 0.000000
# 4 0.000000 0.000000 0.000000 0.028599 0.000000 -0.009705
# 5 0.009699 0.010649 -0.014053 0.000000 0.084498 0.000000
# 6 0.000000 0.000000 0.000000 -0.009705 0.000000 0.056258
#
#
# Mechanical properties :
#
#
# Convention : Reuss Voigt Hill
#
# Bulk Modulus (GPa) = 24.00548 35.85565 29.93057
# Shear Modulus (GPa) = 19.75124 27.67472 23.71298
#
# Velocity S-wave (km/s) = 2.86357 3.38962 3.13764
# Velocity P-wave (km/s) = 4.57160 5.49594 5.05494
#
# Compressibility (1/GPa) = 0.04165716
#
# Stress axis : x y z
#
# Youngs Moduli (GPa) = 43.40014 49.26043 80.38041
#
# Poissons Ratio (x) = -0.24441 0.30855
# Poissons Ratio (y) = -0.21533 0.65797
# Poissons Ratio (z) = 0.16660 0.40323
#
# Static dielectric constant tensor:
#      x y z
#    x 1.944580 0.000000 0.003300 
#    y 0.000000 1.913230 0.000000 
#    z 0.003300 0.000000 1.981750 
# 
# From -- ./inp_files/113818.got.cif
#   From: 2010.05.17/outbox.cif.g08.bks.cpg/sg15_57_cif.got.tgz:113818.got - 2010.06.03 18:47:42.
