data_PCOD9269922
_publ_section_title
;
Structure prediction by ZEFSAII (Michael W. Deem and Ramdas Pophale) SiO2 
 PCOD9269922
Probable space group: C 2/C
;
_chemical_formula_sum "Si O2"
_cell_formula_units_Z 44
_cell_length_a 5.818180
_cell_length_b 19.270603
_cell_length_c 16.127481
_cell_angle_alpha 90.000000
_cell_angle_beta 101.900194
_cell_angle_gamma 90.000000
_cell_volume 1769.348998
_symmetry_space_group_name_H-M "C 2/C"
_symmetry_group_IT_number 15
_symmetry_cell_setting 'monoclinic'
loop_
_space_group_symop_operation_xyz
x,y,z
-x,y,1/2-z
-x,-y,-z
x,-y,1/2+z
1/2+x,1/2+y,z
1/2-x,1/2+y,1/2-z
1/2-x,1/2-y,-z
1/2+x,1/2-y,1/2+z
loop_
_atom_site_type_symbol
_atom_site_label
_atom_site_fract_x
_atom_site_fract_y
_atom_site_fract_z
Si Si1 0.724235 0.315864 0.198400
Si Si2 0.738052 0.824414 0.614539
Si Si3 0.934639 0.419598 0.478027
Si Si4 0.883417 0.920330 0.895772
Si Si5 0.051371 0.054878 0.847096
Si Si6 0.500000 0.901916 0.750000
O O1 0.500000 0.306815 0.250000
O O2 0.704751 0.256289 0.126913
O O3 0.650284 0.388856 0.151711
O O4 0.000000 0.312789 0.250000
O O5 0.620449 0.863713 0.526911
O O6 0.632313 0.857395 0.690585
O O7 0.005174 0.850321 0.630948
O O8 0.714106 0.405301 0.522174
O O9 0.811660 0.413056 0.379547
O O10 0.000000 0.500000 0.500000
O O11 0.674876 0.944211 0.819898
O O12 0.050224 0.985866 0.902052
O O13 0.000000 0.032488 0.750000
#
# Coordination Sequence:
#
# PCOD9269922 Si02
#       6
#     8   8   8   8   8   4
#     4  11  26  47  73 109 153 197 250 305 370 458
#     4  11  22  42  71 100 140 186 242 307 365 438
#     4  11  25  44  69 106 145 185 249 321 370 437
#     4  11  23  39  69 104 138 186 244 312 366 443
#     4  11  25  45  69 103 143 193 242 299 384 448
#     4  10  20  34  68  98 132 170 242 282 368 430
#
# _framework density 24.867902999999998
#
# number of rings (size 3 to 8) (size 9 to 14) (size 15 to 20)
#    0.000    1.091    2.727    3.273    6.364    2.182 
#    0.000    0.909    0.000    0.000    0.000    0.000 
#    0.000    0.000    0.000    0.000    0.000    0.000 
#
# Total GULP energy -122745.839149 kJ/mol
# GULP energy per Si atom -5579.356325 kJ/mol
# Density = 2.481130 g / cm^3
# Si number density = 24.867903 Si / 1000 Ang^3
#
#
#
# Elastic Constant Matrix: (Units=GPa)
#
#
# Indices 1 2 3 4 5 6 
#
# 1 92.6168 14.6436 23.3974 0.0000 1.6763 0.0000
# 2 14.6436 97.2161 -22.5062 0.0000 -9.0193 0.0000
# 3 23.3974 -22.5062 78.9743 0.0000 25.5658 0.0000
# 4 0.0000 0.0000 0.0000 25.0766 0.0000 9.3272
# 5 1.6763 -9.0193 25.5658 0.0000 51.0617 0.0000
# 6 0.0000 0.0000 0.0000 9.3272 0.0000 3.4280
#
#
#
# Elastic Compliance Matrix: (Units=1/GPa)
#
#
# Indices 1 2 3 4 5 6 
#
# 1 0.012503 -0.002904 -0.005052 0.000000 0.001606 0.000000
# 2 -0.002904 0.011696 0.004170 0.000000 0.000074 0.000000
# 3 -0.005052 0.004170 0.017967 0.000000 -0.008094 0.000000
# 4 0.000000 0.000000 0.000000 -3.314586 0.000000 9.018634
# 5 0.001606 0.000074 -0.008094 0.000000 0.023597 0.000000
# 6 0.000000 0.000000 0.000000 9.018634 0.000000-24.247024
#
#
# Mechanical properties :
#
#
# Convention : Reuss Voigt Hill
#
# Bulk Modulus (GPa) = 28.90625 33.31963 31.11294
# Shear Modulus (GPa) = -0.18197 32.79810 16.30806
#
# Velocity S-wave (km/s) = -0.27080 3.63560 2.56361
# Velocity P-wave (km/s) = 3.39873 5.57236 4.61533
#
# Compressibility (1/GPa) = 0.03459460
#
# Stress axis : x y z
#
# Youngs Moduli (GPa) = 79.97792 85.50007 55.65636
#
# Poissons Ratio (x) = 0.24828 0.28116
# Poissons Ratio (y) = 0.23225 -0.23207
# Poissons Ratio (z) = 0.40403 -0.35650
#
# Static dielectric constant tensor:
#      x y z
#    x 2.117580 0.000000 -0.006540 
#    y 0.000000 1.942930 0.000000 
#    z -0.006540 0.000000 2.040570 
# 
# From -- ./inp_files/184984.got.cif
#   From: 2010.05.17/outbox.cif.g08.bks.cpg/sg15_93_cif.got.tgz:184984.got - 2010.06.03 18:47:42.
