data_PCOD9269095
_publ_section_title
;
Structure prediction by ZEFSAII (Michael W. Deem and Ramdas Pophale) SiO2 
 PCOD9269095
Probable space group: C 2/C
;
_chemical_formula_sum "Si O2"
_cell_formula_units_Z 56
_cell_length_a 13.894935
_cell_length_b 29.902786
_cell_length_c 14.260587
_cell_angle_alpha 90.000000
_cell_angle_beta 150.162835
_cell_angle_gamma 90.000000
_cell_volume 2948.022037
_symmetry_space_group_name_H-M "C 2/C"
_symmetry_group_IT_number 15
_symmetry_cell_setting 'monoclinic'
loop_
_space_group_symop_operation_xyz
x,y,z
-x,y,1/2-z
-x,-y,-z
x,-y,1/2+z
1/2+x,1/2+y,z
1/2-x,1/2+y,1/2-z
1/2-x,1/2-y,-z
1/2+x,1/2-y,1/2+z
loop_
_atom_site_type_symbol
_atom_site_label
_atom_site_fract_x
_atom_site_fract_y
_atom_site_fract_z
Si Si1 0.231603 0.971701 0.210712
Si Si2 0.247448 0.793320 0.365583
Si Si3 0.811665 0.193242 0.463519
Si Si4 0.045570 0.364368 0.615992
Si Si5 0.178510 0.440534 0.607446
Si Si6 0.819522 0.074916 0.646600
Si Si7 0.229638 0.517565 0.964600
O O1 0.454214 0.955445 0.405419
O O2 0.131436 0.941736 0.206234
O O3 0.235221 0.023045 0.247895
O O4 0.215613 0.969579 0.445322
O O5 0.249411 0.801164 0.479806
O O6 0.259181 0.739880 0.366984
O O7 0.424390 0.821946 0.475306
O O8 0.042680 0.810723 0.155201
O O9 0.692239 0.153448 0.317514
O O10 0.166027 0.391950 0.641369
O O11 0.877322 0.396899 0.514125
O O12 0.267770 0.447499 0.580385
O O13 0.000000 0.099181 0.750000
O O14 0.824639 0.970462 0.445577
O O15 0.000000 0.515705 0.750000
#
# Coordination Sequence:
#
# PCOD9269095 Si02
#       7
#     8   8   8   8   8   8   8
#     4   8  15  31  51  72 102 146 181 215 272 322
#     4  10  20  34  50  74 101 142 187 208 261 338
#     4  10  20  34  52  71 101 147 181 213 266 325
#     4  11  20  33  50  72 111 142 176 229 260 304
#     4   8  16  29  49  78 100 131 184 224 261 315
#     4  10  22  34  45  78 114 138 186 228 260 319
#     4   9  16  32  56  70  97 146 181 218 276 318
#
# _framework density 18.995788000000001
#
# number of rings (size 3 to 8) (size 9 to 14) (size 15 to 20)
#    0.000    2.571    1.429    3.000    2.000    4.000 
#    0.000    0.000    6.286    0.000    0.000    0.000 
#    0.000   28.571    0.000    0.000    0.000   19.571 
#
# Total GULP energy -156357.494834 kJ/mol
# GULP energy per Si atom -5584.196244 kJ/mol
# Density = 1.895255 g / cm^3
# Si number density = 18.995788 Si / 1000 Ang^3
#
#
#
# Elastic Constant Matrix: (Units=GPa)
#
#
# Indices 1 2 3 4 5 6 
#
# 1 102.0770 37.3226 43.6492 0.0000 -21.3460 0.0000
# 2 37.3226 87.2387 38.9265 0.0000 -12.0561 0.0000
# 3 43.6492 38.9265 83.1653 0.0000 -4.6756 0.0000
# 4 0.0000 0.0000 0.0000 25.8470 0.0000 -6.3339
# 5 -21.3460 -12.0561 -4.6756 0.0000 25.8831 0.0000
# 6 0.0000 0.0000 0.0000 -6.3339 0.0000 19.2723
#
#
#
# Elastic Compliance Matrix: (Units=1/GPa)
#
#
# Indices 1 2 3 4 5 6 
#
# 1 0.015669 -0.002310 -0.006543 0.000000 0.010665 0.000000
# 2 -0.002310 0.015674 -0.005880 0.000000 0.004333 0.000000
# 3 -0.006543 -0.005880 0.017935 0.000000 -0.004895 0.000000
# 4 0.000000 0.000000 0.000000 0.042078 0.000000 0.013829
# 5 0.010665 0.004333 -0.004895 0.000000 0.048565 0.000000
# 6 0.000000 0.000000 0.000000 0.013829 0.000000 0.056433
#
#
# Mechanical properties :
#
#
# Convention : Reuss Voigt Hill
#
# Bulk Modulus (GPa) = 50.47574 56.91972 53.69773
# Shear Modulus (GPa) = 21.51236 24.37268 22.94252
#
# Velocity S-wave (km/s) = 3.36889 3.58586 3.47907
# Velocity P-wave (km/s) = 6.46237 6.86833 6.66844
#
# Compressibility (1/GPa) = 0.01981150
#
# Stress axis : x y z
#
# Youngs Moduli (GPa) = 63.81924 63.80088 55.75559
#
# Poissons Ratio (x) = 0.14740 0.36481
# Poissons Ratio (y) = 0.14744 0.32785
# Poissons Ratio (z) = 0.41757 0.37516
#
# Static dielectric constant tensor:
#      x y z
#    x 1.683980 0.000000 0.027720 
#    y 0.000000 1.687330 0.000000 
#    z 0.027720 0.000000 1.706800 
# 
# From -- ./inp_files/157464.got.cif
#   From: 2010.05.17/outbox.cif.g08.bks.cpg/sg15_79_cif.got.tgz:157464.got - 2010.06.03 18:47:42.
