data_PCOD9269142
_publ_section_title
;
Structure prediction by ZEFSAII (Michael W. Deem and Ramdas Pophale) SiO2 
 PCOD9269142
Probable space group: C 2/C
;
_chemical_formula_sum "Si O2"
_cell_formula_units_Z 56
_cell_length_a 23.364588
_cell_length_b 15.960755
_cell_length_c 8.835822
_cell_angle_alpha 90.000000
_cell_angle_beta 65.174639
_cell_angle_gamma 90.000000
_cell_volume 2990.536070
_symmetry_space_group_name_H-M "C 2/C"
_symmetry_group_IT_number 15
_symmetry_cell_setting 'monoclinic'
loop_
_space_group_symop_operation_xyz
x,y,z
-x,y,1/2-z
-x,-y,-z
x,-y,1/2+z
1/2+x,1/2+y,z
1/2-x,1/2+y,1/2-z
1/2-x,1/2-y,-z
1/2+x,1/2-y,1/2+z
loop_
_atom_site_type_symbol
_atom_site_label
_atom_site_fract_x
_atom_site_fract_y
_atom_site_fract_z
Si Si1 0.252991 0.123087 0.222926
Si Si2 0.939117 0.587629 0.034632
Si Si3 0.208893 0.987949 0.521143
Si Si4 0.313874 0.795388 0.157314
Si Si5 0.365641 0.216543 0.259522
Si Si6 0.675734 0.384162 0.302659
Si Si7 0.587042 0.081851 0.791464
O O1 0.256555 0.070652 0.063796
O O2 0.202803 0.200660 0.267930
O O3 0.315361 0.169740 0.207102
O O4 0.236901 0.054699 0.370867
O O5 0.927875 0.666124 0.156332
O O6 0.900946 0.512250 0.160542
O O7 0.915165 0.589116 0.887601
O O8 0.014779 0.586655 0.931648
O O9 0.165691 0.924359 0.476239
O O10 0.173323 0.042436 0.683825
O O11 0.247519 0.846429 0.223994
O O12 0.364881 0.849757 0.193740
O O13 0.339457 0.786885 0.957854
O O14 0.369055 0.310542 0.198151
#
# Coordination Sequence:
#
# PCOD9269142 Si02
#       7
#     8   8   8   8   8   8   8
#     4  10  21  34  51  82 112 146 177 217 266 320
#     4  10  23  39  56  79 106 141 183 221 264 318
#     4  10  20  34  52  74 114 146 180 210 268 322
#     4  11  21  35  53  79 114 141 180 223 262 320
#     4  11  21  35  53  79 114 141 180 223 262 320
#     4  10  21  34  51  82 112 146 177 217 266 320
#     4  10  23  39  56  79 106 141 183 221 264 318
#
# _framework density 18.725738
#
# number of rings (size 3 to 8) (size 9 to 14) (size 15 to 20)
#    0.000    1.714    2.857    1.714    8.000    2.857 
#    0.000    0.000    0.000    0.000    0.000    6.000 
#    0.000    0.000    0.000    0.000    0.000    0.000 
#
# Total GULP energy -156076.683091 kJ/mol
# GULP energy per Si atom -5574.167253 kJ/mol
# Density = 1.868312 g / cm^3
# Si number density = 18.725738 Si / 1000 Ang^3
#
#
#
# Elastic Constant Matrix: (Units=GPa)
#
#
# Indices 1 2 3 4 5 6 
#
# 1 33.2138 24.2749 9.6084 0.0000 4.2839 0.0000
# 2 24.2749 105.1545 38.3489 0.0000 7.0694 0.0000
# 3 9.6084 38.3489 43.9430 0.0000 7.5231 0.0000
# 4 0.0000 0.0000 0.0000 11.6526 0.0000 1.2205
# 5 4.2839 7.0694 7.5231 0.0000 19.0941 0.0000
# 6 0.0000 0.0000 0.0000 1.2205 0.0000 23.1438
#
#
#
# Elastic Compliance Matrix: (Units=1/GPa)
#
#
# Indices 1 2 3 4 5 6 
#
# 1 0.036721 -0.008103 -0.000066 0.000000 -0.005213 0.000000
# 2 -0.008103 0.015740 -0.012094 0.000000 0.000755 0.000000
# 3 -0.000066 -0.012094 0.034911 0.000000 -0.009263 0.000000
# 4 0.000000 0.000000 0.000000 0.086295 0.000000 -0.004551
# 5 -0.005213 0.000755 -0.009263 0.000000 0.056912 0.000000
# 6 0.000000 0.000000 0.000000 -0.004551 0.000000 0.043448
#
#
# Mechanical properties :
#
#
# Convention : Reuss Voigt Hill
#
# Bulk Modulus (GPa) = 21.34565 36.30840 28.82703
# Shear Modulus (GPa) = 15.14383 18.11670 16.63027
#
# Velocity S-wave (km/s) = 2.84688 3.11380 2.98333
# Velocity P-wave (km/s) = 4.71489 5.68853 5.22444
#
# Compressibility (1/GPa) = 0.04684795
#
# Stress axis : x y z
#
# Youngs Moduli (GPa) = 27.23212 63.53206 28.64416
#
# Poissons Ratio (x) = 0.51478 0.00188
# Poissons Ratio (y) = 0.22065 0.34642
# Poissons Ratio (z) = 0.00179 0.76835
#
# Static dielectric constant tensor:
#      x y z
#    x 1.682710 0.000000 0.006010 
#    y 0.000000 1.713230 0.000000 
#    z 0.006010 0.000000 1.651830 
# 
# From -- ./inp_files/61481.got.cif
#   From: 2010.05.17/outbox.cif.g08.bks.cpg/sg15_31_cif.got.tgz:61481.got - 2010.06.03 18:47:42.
