data_PCOD9269756
_publ_section_title
;
Structure prediction by ZEFSAII (Michael W. Deem and Ramdas Pophale) SiO2 
 PCOD9269756
Probable space group: C 2/C
;
_chemical_formula_sum "Si O2"
_cell_formula_units_Z 48
_cell_length_a 17.156490
_cell_length_b 15.402940
_cell_length_c 8.792537
_cell_angle_alpha 90.000000
_cell_angle_beta 69.395993
_cell_angle_gamma 90.000000
_cell_volume 2174.895146
_symmetry_space_group_name_H-M "C 2/C"
_symmetry_group_IT_number 15
_symmetry_cell_setting 'monoclinic'
loop_
_space_group_symop_operation_xyz
x,y,z
-x,y,1/2-z
-x,-y,-z
x,-y,1/2+z
1/2+x,1/2+y,z
1/2-x,1/2+y,1/2-z
1/2-x,1/2-y,-z
1/2+x,1/2-y,1/2+z
loop_
_atom_site_type_symbol
_atom_site_label
_atom_site_fract_x
_atom_site_fract_y
_atom_site_fract_z
Si Si1 0.459852 0.295348 0.934997
Si Si2 0.434601 0.573564 0.991892
Si Si3 0.775897 0.124581 0.593470
Si Si4 0.822673 0.008751 0.813172
Si Si5 0.060967 0.466575 0.824440
Si Si6 0.881593 0.379772 0.442070
O O1 0.500000 0.329127 0.750000
O O2 0.366957 0.332914 0.022043
O O3 0.451931 0.192345 0.926616
O O4 0.520984 0.334569 0.018835
O O5 0.398690 0.553862 0.851191
O O6 0.500000 0.500000 0.000000
O O7 0.359405 0.557444 0.162890
O O8 0.776127 0.045385 0.472682
O O9 0.693728 0.171670 0.590084
O O10 0.770352 0.082225 0.763395
O O11 0.094912 0.545201 0.696141
O O12 0.000000 0.414995 0.750000
O O13 0.130334 0.417982 0.878167
O O14 0.000000 0.500000 0.000000
#
# Coordination Sequence:
#
# PCOD9269756 Si02
#       6
#     8   8   8   8   8   8
#     4  12  22  36  60  87 120 164 206 246 297 363
#     4  11  18  34  57  88 120 158 204 243 286 358
#     4  11  22  36  58  90 128 156 196 249 309 369
#     4  10  20  34  60  89 120 160 199 238 305 367
#     4   9  19  41  65  83 106 147 210 252 293 356
#     4  11  23  40  63  89 118 158 201 259 315 354
#
# _framework density 22.070029000000002
#
# number of rings (size 3 to 8) (size 9 to 14) (size 15 to 20)
#    0.000    1.333    5.000    3.500    0.000    0.000 
#    3.000    0.000    0.000    1.000    0.000    0.000 
#    0.000    0.000    0.000    0.000    0.000    0.000 
#
# Total GULP energy -133781.284934 kJ/mol
# GULP energy per Si atom -5574.220206 kJ/mol
# Density = 2.201980 g / cm^3
# Si number density = 22.070029 Si / 1000 Ang^3
#
#
#
# Elastic Constant Matrix: (Units=GPa)
#
#
# Indices 1 2 3 4 5 6 
#
# 1 63.8504 9.2072 11.5199 0.0000 32.4536 0.0000
# 2 9.2072 65.1535 19.3452 0.0000 14.0731 0.0000
# 3 11.5199 19.3452 102.0070 0.0000 25.5572 0.0000
# 4 0.0000 0.0000 0.0000 21.2947 0.0000 5.4309
# 5 32.4536 14.0731 25.5572 0.0000 44.4521 0.0000
# 6 0.0000 0.0000 0.0000 5.4309 0.0000 35.2477
#
#
#
# Elastic Compliance Matrix: (Units=1/GPa)
#
#
# Indices 1 2 3 4 5 6 
#
# 1 0.025270 0.000063 0.002058 0.000000 -0.019652 0.000000
# 2 0.000063 0.016879 -0.002170 0.000000 -0.004142 0.000000
# 3 0.002058 -0.002170 0.011901 0.000000 -0.007658 0.000000
# 4 0.000000 0.000000 0.000000 0.048881 0.000000 -0.007531
# 5 -0.019652 -0.004142 -0.007658 0.000000 0.042558 0.000000
# 6 0.000000 0.000000 0.000000 -0.007531 0.000000 0.029531
#
#
# Mechanical properties :
#
#
# Convention : Reuss Voigt Hill
#
# Bulk Modulus (GPa) = 18.53557 34.57286 26.55422
# Shear Modulus (GPa) = 25.89307 32.92813 29.41060
#
# Velocity S-wave (km/s) = 3.42895 3.86681 3.65444
# Velocity P-wave (km/s) = 4.90853 5.96954 5.46485
#
# Compressibility (1/GPa) = 0.05395031
#
# Stress axis : x y z
#
# Youngs Moduli (GPa) = 39.57263 59.24692 84.02633
#
# Poissons Ratio (x) = -0.00372 -0.17293
# Poissons Ratio (y) = -0.00248 0.18237
# Poissons Ratio (z) = -0.08144 0.12859
#
# Static dielectric constant tensor:
#      x y z
#    x 2.029150 0.000000 -0.028500 
#    y 0.000000 1.853320 0.000000 
#    z -0.028500 0.000000 1.824560 
# 
# From -- ./inp_files/47455.got.cif
#   From: 2010.05.17/outbox.cif.g08.bks.cpg/sg15_24_cif.got.tgz:47455.got - 2010.06.03 18:47:42.
