data_PCOD9269659
_publ_section_title
;
Structure prediction by ZEFSAII (Michael W. Deem and Ramdas Pophale) SiO2 
 PCOD9269659
Probable space group: C 2/C
;
_chemical_formula_sum "Si O2"
_cell_formula_units_Z 60
_cell_length_a 16.446958
_cell_length_b 7.854870
_cell_length_c 22.885204
_cell_angle_alpha 90.000000
_cell_angle_beta 63.323314
_cell_angle_gamma 90.000000
_cell_volume 2641.801893
_symmetry_space_group_name_H-M "C 2/C"
_symmetry_group_IT_number 15
_symmetry_cell_setting 'monoclinic'
loop_
_space_group_symop_operation_xyz
x,y,z
-x,y,1/2-z
-x,-y,-z
x,-y,1/2+z
1/2+x,1/2+y,z
1/2-x,1/2+y,1/2-z
1/2-x,1/2-y,-z
1/2+x,1/2-y,1/2+z
loop_
_atom_site_type_symbol
_atom_site_label
_atom_site_fract_x
_atom_site_fract_y
_atom_site_fract_z
Si Si1 0.284335 0.296833 0.833483
Si Si2 0.789278 0.883212 0.244788
Si Si3 0.331615 0.627765 0.950437
Si Si4 0.500000 0.972745 0.750000
Si Si5 0.311277 0.188706 0.345174
Si Si6 0.534299 0.424149 0.387676
Si Si7 0.978475 0.204302 0.318626
Si Si8 0.825518 0.911365 0.058371
O O1 0.275653 0.140949 0.789629
O O2 0.286340 0.452487 0.787460
O O3 0.371610 0.276095 0.845693
O O4 0.202964 0.271657 0.906261
O O5 0.766016 0.738437 0.299092
O O6 0.888695 0.854556 0.182460
O O7 0.317126 0.645860 0.885860
O O8 0.439053 0.678509 0.923755
O O9 0.250000 0.750000 0.000000
O O10 0.329449 0.452838 0.988503
O O11 0.586120 0.866228 0.702198
O O12 0.520555 0.108729 0.795627
O O13 0.251610 0.046162 0.396178
O O14 0.508811 0.602029 0.364557
O O15 0.583668 0.450550 0.433744
O O16 0.000000 0.107718 0.250000
#
# Coordination Sequence:
#
# PCOD9269659 Si02
#       8
#     8   8   8   4   8   8   8   8
#     4  11  21  37  60  93 132 159 204 263 325 395
#     4  11  22  36  62  98 125 158 207 260 342 380
#     4  10  23  40  63  88 127 172 229 256 306 377
#     4  10  20  34  62  92 132 158 206 256 344 368
#     4  11  21  37  61  92 125 167 207 269 313 394
#     4  11  21  38  65  91 124 163 211 267 320 379
#     4  10  20  34  58  94 127 155 194 257 321 386
#     4  10  22  42  63  89 123 176 212 262 310 371
#
# _framework density 22.711770000000001
#
# number of rings (size 3 to 8) (size 9 to 14) (size 15 to 20)
#    0.400    1.067    2.667    3.600    0.000    0.000 
#    0.000    2.667    0.000    0.800    0.000    0.000 
#    0.000    0.000    0.000    0.000    0.000    0.000 
#
# Total GULP energy -167015.888128 kJ/mol
# GULP energy per Si atom -5567.196271 kJ/mol
# Density = 2.266008 g / cm^3
# Si number density = 22.711770 Si / 1000 Ang^3
#
#
#
# Elastic Constant Matrix: (Units=GPa)
#
#
# Indices 1 2 3 4 5 6 
#
# 1 90.6572 -1.9980 30.9878 0.0000 3.3519 0.0000
# 2 -1.9980 39.4187 25.7332 0.0000 -3.5059 0.0001
# 3 30.9878 25.7332 99.3400 0.0000 -3.7631 0.0000
# 4 0.0000 0.0000 0.0000 17.7349 0.0000 2.1340
# 5 3.3519 -3.5059 -3.7631 0.0000 36.1153 0.0000
# 6 0.0000 0.0001 0.0000 2.1340 0.0000 25.3730
#
#
#
# Elastic Compliance Matrix: (Units=1/GPa)
#
#
# Indices 1 2 3 4 5 6 
#
# 1 0.012898 0.003843 -0.005070 0.000000 -0.001352 0.000000
# 2 0.003843 0.031844 -0.009381 0.000000 0.001757 0.000000
# 3 -0.005070 -0.009381 0.014117 0.000000 0.001031 0.000000
# 4 0.000000 0.000000 0.000000 0.056963 0.000000 -0.004791
# 5 -0.001352 0.001757 0.001031 0.000000 0.028093 0.000000
# 6 0.000000 0.000000 0.000000 -0.004791 0.000000 0.039815
#
#
# Mechanical properties :
#
#
# Convention : Reuss Voigt Hill
#
# Bulk Modulus (GPa) = 26.56506 37.65131 32.10818
# Shear Modulus (GPa) = 22.98917 27.49083 25.24000
#
# Velocity S-wave (km/s) = 3.18498 3.48289 3.33726
# Velocity P-wave (km/s) = 5.02469 5.72607 5.38681
#
# Compressibility (1/GPa) = 0.03764343
#
# Stress axis : x y z
#
# Youngs Moduli (GPa) = 77.52920 31.40304 70.83535
#
# Poissons Ratio (x) = -0.12070 0.35916
# Poissons Ratio (y) = -0.29798 0.66453
# Poissons Ratio (z) = 0.39310 0.29460
#
# Static dielectric constant tensor:
#      x y z
#    x 1.891950 0.000000 -0.056360 
#    y 0.000000 1.958200 0.000000 
#    z -0.056360 0.000000 1.876140 
# 
# From -- ./inp_files/276557.got.cif
#   From: 2010.05.17/outbox.cif.g08.bks.cpg/sg15_139_cif.got.tgz:276557.got - 2010.06.03 18:47:42.
