data_PCOD9269213
_publ_section_title
;
Structure prediction by ZEFSAII (Michael W. Deem and Ramdas Pophale) SiO2 
 PCOD9269213
Probable space group: C 2/C
;
_chemical_formula_sum "Si O2"
_cell_formula_units_Z 60
_cell_length_a 8.895004
_cell_length_b 11.733185
_cell_length_c 31.997442
_cell_angle_alpha 90.000000
_cell_angle_beta 64.374237
_cell_angle_gamma 90.000000
_cell_volume 3010.992023
_symmetry_space_group_name_H-M "C 2/C"
_symmetry_group_IT_number 15
_symmetry_cell_setting 'monoclinic'
loop_
_space_group_symop_operation_xyz
x,y,z
-x,y,1/2-z
-x,-y,-z
x,-y,1/2+z
1/2+x,1/2+y,z
1/2-x,1/2+y,1/2-z
1/2-x,1/2-y,-z
1/2+x,1/2-y,1/2+z
loop_
_atom_site_type_symbol
_atom_site_label
_atom_site_fract_x
_atom_site_fract_y
_atom_site_fract_z
Si Si1 0.177307 0.299844 0.678505
Si Si2 0.163660 0.868357 0.103652
Si Si3 0.769263 0.468762 0.484191
Si Si4 0.043164 0.658924 0.998230
Si Si5 0.031700 0.890456 0.449434
Si Si6 0.000000 0.175255 0.250000
Si Si7 0.556425 0.477807 0.823506
Si Si8 0.167948 0.218628 0.771584
O O1 0.203885 0.225069 0.633939
O O2 0.298293 0.409190 0.668688
O O3 0.200739 0.222726 0.717714
O O4 0.975963 0.313982 0.703424
O O5 0.319814 0.865346 0.053840
O O6 0.000113 0.848143 0.093810
O O7 0.109732 0.988229 0.130838
O O8 0.893770 0.577228 0.471701
O O9 0.711357 0.426558 0.445559
O O10 0.596399 0.505450 0.527283
O O11 0.866740 0.377147 0.500193
O O12 0.034628 0.787783 0.013755
O O13 0.163666 0.249509 0.226293
O O14 0.017030 0.100280 0.289035
O O15 0.611328 0.598369 0.796817
#
# Coordination Sequence:
#
# PCOD9269213 Si02
#       8
#     8   8   8   8   8   4   8   8
#     4   9  19  36  57  79 110 144 173 217 273 317
#     4  10  20  34  53  82 111 141 180 221 272 322
#     4   9  19  35  56  79  97 140 190 216 267 321
#     4  10  20  36  56  77 108 143 182 229 268 316
#     4  10  20  36  56  76 108 144 182 228 265 318
#     4  10  20  36  60  82 104 140 180 218 264 314
#     4  10  20  37  56  77 111 141 170 223 266 312
#     4   9  19  37  58  81 104 140 185 211 258 332
#
# _framework density 19.926985999999999
#
# number of rings (size 3 to 8) (size 9 to 14) (size 15 to 20)
#    0.000    2.400    0.000    3.600    0.000    6.400 
#    0.000   17.333    0.000    0.000    0.000    0.000 
#    0.000    0.000    0.000    0.000    0.000    0.000 
#
# Total GULP energy -167032.872372 kJ/mol
# GULP energy per Si atom -5567.762412 kJ/mol
# Density = 1.988163 g / cm^3
# Si number density = 19.926986 Si / 1000 Ang^3
#
#
#
# Elastic Constant Matrix: (Units=GPa)
#
#
# Indices 1 2 3 4 5 6 
#
# 1 112.5194 24.7816 11.2491 0.0000 12.6506 0.0000
# 2 24.7816 51.9403 23.6716 0.0000 3.2170 0.0000
# 3 11.2491 23.6716 54.4341 0.0000 7.1423 0.0000
# 4 0.0000 0.0000 0.0000 360.5811 0.0000 121.4793
# 5 12.6506 3.2170 7.1423 0.0000 14.1281 0.0000
# 6 0.0000 0.0000 0.0000 121.4793 0.0000 69.8169
#
#
#
# Elastic Compliance Matrix: (Units=1/GPa)
#
#
# Indices 1 2 3 4 5 6 
#
# 1 0.010951 -0.005205 0.001212 0.000000 -0.009233 0.000000
# 2 -0.005205 0.026487 -0.010992 0.000000 0.004187 0.000000
# 3 0.001212 -0.010992 0.024328 0.000000 -0.010881 0.000000
# 4 0.000000 0.000000 0.000000 0.006702 0.000000 -0.011661
# 5 -0.009233 0.004187 -0.010881 0.000000 0.083596 0.000000
# 6 0.000000 0.000000 0.000000 -0.011661 0.000000 0.034613
#
#
# Mechanical properties :
#
#
# Convention : Reuss Voigt Hill
#
# Bulk Modulus (GPa) = 31.45120 37.58870 34.51995
# Shear Modulus (GPa) = 22.00277 99.51802 60.76040
#
# Velocity S-wave (km/s) = 3.32651 7.07458 5.52790
# Velocity P-wave (km/s) = 5.52917 9.25403 7.62263
#
# Compressibility (1/GPa) = 0.03179529
#
# Stress axis : x y z
#
# Youngs Moduli (GPa) = 91.31868 37.75506 41.10494
#
# Poissons Ratio (x) = 0.19652 -0.04982
# Poissons Ratio (y) = 0.47534 0.45181
# Poissons Ratio (z) = -0.11068 0.41499
#
# Static dielectric constant tensor:
#      x y z
#    x 1.756370 0.000000 0.017310 
#    y 0.000000 1.710900 0.000000 
#    z 0.017310 0.000000 1.763570 
# 
# From -- ./inp_files/307453.got.cif
#   From: 2010.05.17/outbox.cif.g08.bks.cpg/sg15_154_cif.got.tgz:307453.got - 2010.06.03 18:47:42.
