data_PCOD9269509
_publ_section_title
;
Structure prediction by ZEFSAII (Michael W. Deem and Ramdas Pophale) SiO2 
 PCOD9269509
Probable space group: C 2/C
;
_chemical_formula_sum "Si O2"
_cell_formula_units_Z 48
_cell_length_a 11.716835
_cell_length_b 16.702702
_cell_length_c 15.360313
_cell_angle_alpha 90.000000
_cell_angle_beta 58.950698
_cell_angle_gamma 90.000000
_cell_volume 2575.359996
_symmetry_space_group_name_H-M "C 2/C"
_symmetry_group_IT_number 15
_symmetry_cell_setting 'monoclinic'
loop_
_space_group_symop_operation_xyz
x,y,z
-x,y,1/2-z
-x,-y,-z
x,-y,1/2+z
1/2+x,1/2+y,z
1/2-x,1/2+y,1/2-z
1/2-x,1/2-y,-z
1/2+x,1/2-y,1/2+z
loop_
_atom_site_type_symbol
_atom_site_label
_atom_site_fract_x
_atom_site_fract_y
_atom_site_fract_z
Si Si1 0.284087 0.619885 0.538701
Si Si2 0.207618 0.895615 0.134426
Si Si3 0.578445 0.738683 0.131279
Si Si4 0.951233 0.142377 0.634099
Si Si5 0.478305 0.195120 0.490728
Si Si6 0.139509 0.545006 0.450212
O O1 0.369935 0.654180 0.424643
O O2 0.197767 0.697968 0.599953
O O3 0.376372 0.599164 0.583466
O O4 0.187548 0.556325 0.531391
O O5 0.149594 0.854780 0.244417
O O6 0.333951 0.847550 0.044526
O O7 0.085195 0.899287 0.115546
O O8 0.256903 0.985626 0.135842
O O9 0.500000 0.730297 0.250000
O O10 0.495175 0.775333 0.083782
O O11 0.997374 0.229508 0.581074
O O12 0.599401 0.131946 0.429475
O O13 0.000000 0.500000 0.500000
#
# Coordination Sequence:
#
# PCOD9269509 Si02
#       6
#     8   8   8   8   8   8
#     4   9  18  32  52  78 112 137 184 227 269 334
#     4  10  20  35  57  80 116 151 181 229 288 333
#     4   9  16  29  52  85 104 137 181 230 268 316
#     4  10  20  34  57  84 111 148 187 231 276 334
#     4   9  18  34  58  81 108 146 190 229 271 335
#     4   9  19  36  56  76 107 150 182 230 286 330
#
# _framework density 18.638172999999998
#
# number of rings (size 3 to 8) (size 9 to 14) (size 15 to 20)
#    0.000    2.667    0.000    2.500    0.000    0.667 
#    3.000    0.000   18.333    0.000    0.000    0.000 
#    0.000    0.000    0.000    0.000    0.000    0.000 
#
# Total GULP energy -133649.359720 kJ/mol
# GULP energy per Si atom -5568.723322 kJ/mol
# Density = 1.859575 g / cm^3
# Si number density = 18.638173 Si / 1000 Ang^3
#
#
#
# Elastic Constant Matrix: (Units=GPa)
#
#
# Indices 1 2 3 4 5 6 
#
# 1 112.5420 35.5381 35.7257 0.0000 -3.6432 0.0000
# 2 35.5381 47.8473 31.6255 0.0000 -0.9517 0.0000
# 3 35.7257 31.6255 104.2040 0.0000 -2.1053 0.0000
# 4 0.0000 0.0000 0.0000 10.0881 0.0000 -0.6802
# 5 -3.6432 -0.9517 -2.1053 0.0000 17.4357 0.0000
# 6 0.0000 0.0000 0.0000 -0.6802 0.0000 29.5409
#
#
#
# Elastic Compliance Matrix: (Units=1/GPa)
#
#
# Indices 1 2 3 4 5 6 
#
# 1 0.011916 -0.007678 -0.001717 0.000000 0.001863 0.000000
# 2 -0.007678 0.031096 -0.006820 0.000000 -0.000731 0.000000
# 3 -0.001717 -0.006820 0.012270 0.000000 0.000751 0.000000
# 4 0.000000 0.000000 0.000000 0.099281 0.000000 0.002286
# 5 0.001863 -0.000731 0.000751 0.000000 0.057794 0.000000
# 6 0.000000 0.000000 0.000000 0.002286 0.000000 0.033904
#
#
# Mechanical properties :
#
#
# Convention : Reuss Voigt Hill
#
# Bulk Modulus (GPa) = 43.76117 52.26355 48.01236
# Shear Modulus (GPa) = 17.46374 22.19321 19.82848
#
# Velocity S-wave (km/s) = 3.06435 3.45445 3.26523
# Velocity P-wave (km/s) = 6.00421 6.63423 6.32707
#
# Compressibility (1/GPa) = 0.02285131
#
# Stress axis : x y z
#
# Youngs Moduli (GPa) = 83.92366 32.15869 81.49776
#
# Poissons Ratio (x) = 0.24692 0.13995
# Poissons Ratio (y) = 0.64437 0.55580
# Poissons Ratio (z) = 0.14412 0.21932
#
# Static dielectric constant tensor:
#      x y z
#    x 1.694530 0.000000 -0.018390 
#    y 0.000000 1.687060 0.000000 
#    z -0.018390 0.000000 1.612080 
# 
# From -- ./inp_files/87470.got.cif
#   From: 2010.05.17/outbox.cif.g08.bks.cpg/sg15_44_cif.got.tgz:87470.got - 2010.06.03 18:47:42.
