data_PCOD9269006
_publ_section_title
;
Structure prediction by ZEFSAII (Michael W. Deem and Ramdas Pophale) SiO2 
 PCOD9269006
Probable space group: C 2/C
;
_chemical_formula_sum "Si O2"
_cell_formula_units_Z 60
_cell_length_a 21.599357
_cell_length_b 28.818128
_cell_length_c 7.933554
_cell_angle_alpha 90.000000
_cell_angle_beta 36.710917
_cell_angle_gamma 90.000000
_cell_volume 2951.985562
_symmetry_space_group_name_H-M "C 2/C"
_symmetry_group_IT_number 15
_symmetry_cell_setting 'monoclinic'
loop_
_space_group_symop_operation_xyz
x,y,z
-x,y,1/2-z
-x,-y,-z
x,-y,1/2+z
1/2+x,1/2+y,z
1/2-x,1/2+y,1/2-z
1/2-x,1/2-y,-z
1/2+x,1/2-y,1/2+z
loop_
_atom_site_type_symbol
_atom_site_label
_atom_site_fract_x
_atom_site_fract_y
_atom_site_fract_z
Si Si1 0.328928 0.299979 0.970471
Si Si2 0.752534 0.513203 0.240715
Si Si3 0.524430 0.127144 0.885335
Si Si4 0.671088 0.428876 0.218881
Si Si5 0.589589 0.965192 0.366472
Si Si6 0.292603 0.195821 0.101417
Si Si7 0.500000 0.366981 0.750000
Si Si8 0.305408 0.161057 0.440566
O O1 0.297056 0.303738 0.844197
O O2 0.422206 0.333938 0.816581
O O3 0.347068 0.246065 0.972655
O O4 0.235545 0.314600 0.301448
O O5 0.684151 0.471093 0.320861
O O6 0.688778 0.546246 0.502124
O O7 0.853815 0.489471 0.102504
O O8 0.808618 0.541871 0.972992
O O9 0.500000 0.107318 0.750000
O O10 0.540089 0.085242 0.979296
O O11 0.626075 0.157389 0.636732
O O12 0.428429 0.158629 0.151383
O O13 0.568159 0.399808 0.479864
O O14 0.763609 0.391717 0.036928
O O15 0.500000 0.000000 0.500000
O O16 0.262709 0.184298 0.360208
#
# Coordination Sequence:
#
# PCOD9269006 Si02
#       8
#     8   8   8   8   8   8   4   8
#     4  10  23  43  65  91 124 165 211 265 323 380
#     4  10  21  36  60  83 128 163 210 255 313 374
#     4  10  20  33  59  90 125 159 200 245 314 388
#     4  10  22  42  60  92 119 171 212 270 315 378
#     4  11  20  33  56  89 127 164 198 249 311 387
#     4  10  22  41  65  93 127 163 205 260 324 387
#     4  10  24  42  70  86 128 162 228 270 324 370
#     4  10  21  39  64  93 129 162 207 256 326 382
#
# _framework density 20.325302000000001
#
# number of rings (size 3 to 8) (size 9 to 14) (size 15 to 20)
#    0.000    1.867    0.000    4.800    6.533    1.067 
#    0.000    2.667    0.000    0.000    0.000    0.000 
#    0.000    0.000    0.000    0.000    0.000    0.000 
#
# Total GULP energy -167419.127656 kJ/mol
# GULP energy per Si atom -5580.637589 kJ/mol
# Density = 2.027904 g / cm^3
# Si number density = 20.325302 Si / 1000 Ang^3
#
#
#
# Elastic Constant Matrix: (Units=GPa)
#
#
# Indices 1 2 3 4 5 6 
#
# 1 33.0106 12.6092 14.2723 0.0000 5.0823 0.0000
# 2 12.6092 98.3775 16.4167 0.0000 3.4255 0.0000
# 3 14.2723 16.4167 53.7868 0.0000 0.0172 0.0000
# 4 0.0000 0.0000 0.0000 24.9412 0.0000 -8.2992
# 5 5.0823 3.4255 0.0172 0.0000 23.6703 0.0000
# 6 0.0000 0.0000 0.0000 -8.2992 0.0000 -20.3364
#
#
#
# Elastic Compliance Matrix: (Units=1/GPa)
#
#
# Indices 1 2 3 4 5 6 
#
# 1 0.036330 -0.002941 -0.008740 0.000000 -0.007369 0.000000
# 2 -0.002941 0.011006 -0.002578 0.000000 -0.000959 0.000000
# 3 -0.008740 -0.002578 0.021697 0.000000 0.002234 0.000000
# 4 0.000000 0.000000 0.000000 0.035301 0.000000 -0.014406
# 5 -0.007369 -0.000959 0.002234 0.000000 0.043966 0.000000
# 6 0.000000 0.000000 0.000000 -0.014406 0.000000 -0.043294
#
#
# Mechanical properties :
#
#
# Convention : Reuss Voigt Hill
#
# Bulk Modulus (GPa) = 24.68314 30.19682 27.43998
# Shear Modulus (GPa) = 34.00653 15.11344 24.55998
#
# Velocity S-wave (km/s) = 4.09481 2.72982 3.47990
# Velocity P-wave (km/s) = 5.87597 4.98246 5.44756
#
# Compressibility (1/GPa) = 0.04051348
#
# Stress axis : x y z
#
# Youngs Moduli (GPa) = 27.52532 90.86287 46.08856
#
# Poissons Ratio (x) = 0.26727 0.40282
# Poissons Ratio (y) = 0.08096 0.11883
# Poissons Ratio (z) = 0.24057 0.23427
#
# Static dielectric constant tensor:
#      x y z
#    x 1.789620 0.000000 0.062090 
#    y 0.000000 1.707520 0.000000 
#    z 0.062090 0.000000 1.752660 
# 
# From -- ./inp_files/64192.got.cif
#   From: 2010.05.17/outbox.cif.g08.bks.cpg/sg15_33_cif.got.tgz:64192.got - 2010.06.03 18:47:42.
