data_PCOD9269529
_publ_section_title
;
Structure prediction by ZEFSAII (Michael W. Deem and Ramdas Pophale) SiO2 
 PCOD9269529
Probable space group: C 2/C
;
_chemical_formula_sum "Si O2"
_cell_formula_units_Z 40
_cell_length_a 22.270472
_cell_length_b 7.592393
_cell_length_c 10.216716
_cell_angle_alpha 90.000000
_cell_angle_beta 74.021471
_cell_angle_gamma 90.000000
_cell_volume 1660.763127
_symmetry_space_group_name_H-M "C 2/C"
_symmetry_group_IT_number 15
_symmetry_cell_setting 'monoclinic'
loop_
_space_group_symop_operation_xyz
x,y,z
-x,y,1/2-z
-x,-y,-z
x,-y,1/2+z
1/2+x,1/2+y,z
1/2-x,1/2+y,1/2-z
1/2-x,1/2-y,-z
1/2+x,1/2-y,1/2+z
loop_
_atom_site_type_symbol
_atom_site_label
_atom_site_fract_x
_atom_site_fract_y
_atom_site_fract_z
Si Si1 0.472685 0.762954 0.618929
Si Si2 0.224171 0.801457 0.831281
Si Si3 0.569211 0.577455 0.254534
Si Si4 0.596012 0.114354 0.892225
Si Si5 0.696032 0.483391 0.096961
O O1 0.500000 0.779929 0.750000
O O2 0.440128 0.571741 0.626993
O O3 0.535404 0.799599 0.499145
O O4 0.421816 0.912208 0.615272
O O5 0.164261 0.673825 0.901360
O O6 0.284324 0.693376 0.837685
O O7 0.219860 0.868410 0.685061
O O8 0.221072 0.964568 0.935061
O O9 0.500000 0.599138 0.250000
O O10 0.593536 0.774485 0.260610
O O11 0.621535 0.493303 0.132432
#
# Coordination Sequence:
#
# PCOD9269529 Si02
#       5
#     8   8   8   8   8
#     4  10  20  34  57  87 118 157 198 249 315 365
#     4  10  22  42  62  90 125 162 211 259 306 380
#     4  10  20  37  62  87 120 158 202 253 310 369
#     4  10  21  37  57  87 121 156 201 255 306 371
#     4  10  23  40  64  89 124 164 206 255 316 363
#
# _framework density 24.085312999999999
#
# number of rings (size 3 to 8) (size 9 to 14) (size 15 to 20)
#    0.000    2.000    0.000    3.600    2.800    2.400 
#    0.000    4.000    0.000    0.000    0.000    0.000 
#    0.000    0.000    0.000    0.000    0.000    0.000 
#
# Total GULP energy -111454.329058 kJ/mol
# GULP energy per Si atom -5572.716453 kJ/mol
# Density = 2.403049 g / cm^3
# Si number density = 24.085313 Si / 1000 Ang^3
#
#
#
# Elastic Constant Matrix: (Units=GPa)
#
#
# Indices 1 2 3 4 5 6 
#
# 1 78.5099 9.9673 5.1116 0.0000 15.2605 0.0000
# 2 9.9673 62.5561 3.1311 0.0000 9.0995 0.0000
# 3 5.1116 3.1311 20.2672 0.0000 13.0186 0.0000
# 4 0.0000 0.0000 0.0000 12.1424 0.0000 4.8674
# 5 15.2605 9.0995 13.0186 0.0000 26.8283 0.0000
# 6 0.0000 0.0000 0.0000 4.8674 0.0000 43.8731
#
#
#
# Elastic Compliance Matrix: (Units=1/GPa)
#
#
# Indices 1 2 3 4 5 6 
#
# 1 0.014472 -0.001117 0.002277 0.000000 -0.008958 0.000000
# 2 -0.001117 0.016935 0.001376 0.000000 -0.005776 0.000000
# 3 0.002277 0.001376 0.072186 0.000000 -0.036790 0.000000
# 4 0.000000 0.000000 0.000000 0.086189 0.000000 -0.009562
# 5 -0.008958 -0.005776 -0.036790 0.000000 0.062181 0.000000
# 6 0.000000 0.000000 0.000000 -0.009562 0.000000 0.023854
#
#
# Mechanical properties :
#
#
# Convention : Reuss Voigt Hill
#
# Bulk Modulus (GPa) = 9.20265 21.97257 15.58761
# Shear Modulus (GPa) = 16.28835 26.11031 21.19933
#
# Velocity S-wave (km/s) = 2.60335 3.29610 2.97000
# Velocity P-wave (km/s) = 3.58689 4.86090 4.27166
#
# Compressibility (1/GPa) = 0.10866431
#
# Stress axis : x y z
#
# Youngs Moduli (GPa) = 69.09888 59.04951 13.85303
#
# Poissons Ratio (x) = 0.06595 -0.03154
# Poissons Ratio (y) = 0.07717 -0.01906
# Poissons Ratio (z) = -0.15731 -0.08123
#
# Static dielectric constant tensor:
#      x y z
#    x 1.978730 0.000000 0.042610 
#    y 0.000000 1.950680 0.000000 
#    z 0.042610 0.000000 2.024980 
# 
# From -- ./inp_files/115899.got.cif
#   From: 2010.05.17/outbox.cif.g08.bks.cpg/sg15_58_cif.got.tgz:115899.got - 2010.06.03 18:47:42.
