data_PCOD9269945
_publ_section_title
;
Structure prediction by ZEFSAII (Michael W. Deem and Ramdas Pophale) SiO2 
 PCOD9269945
Probable space group: C 2/C
;
_chemical_formula_sum "Si O2"
_cell_formula_units_Z 40
_cell_length_a 10.319064
_cell_length_b 27.543150
_cell_length_c 9.681501
_cell_angle_alpha 90.000000
_cell_angle_beta 127.991991
_cell_angle_gamma 90.000000
_cell_volume 2168.583629
_symmetry_space_group_name_H-M "C 2/C"
_symmetry_group_IT_number 15
_symmetry_cell_setting 'monoclinic'
loop_
_space_group_symop_operation_xyz
x,y,z
-x,y,1/2-z
-x,-y,-z
x,-y,1/2+z
1/2+x,1/2+y,z
1/2-x,1/2+y,1/2-z
1/2-x,1/2-y,-z
1/2+x,1/2-y,1/2+z
loop_
_atom_site_type_symbol
_atom_site_label
_atom_site_fract_x
_atom_site_fract_y
_atom_site_fract_z
Si Si1 0.680744 0.939538 0.358469
Si Si2 0.792745 0.465498 0.803838
Si Si3 0.988137 0.105673 0.405204
Si Si4 0.000000 0.396966 0.750000
Si Si5 0.736784 0.319241 0.593890
Si Si6 0.000000 0.755035 0.250000
O O1 0.500000 0.916776 0.250000
O O2 0.710080 0.962579 0.531521
O O3 0.828161 0.902967 0.421277
O O4 0.680629 0.982065 0.244795
O O5 0.621231 0.442336 0.638453
O O6 0.931555 0.430378 0.828526
O O7 0.000000 0.110089 0.250000
O O8 0.885770 0.151485 0.388963
O O9 0.148340 0.361706 0.895233
O O10 0.618307 0.288882 0.417006
O O11 0.871418 0.281311 0.742707
#
# Coordination Sequence:
#
# PCOD9269945 Si02
#       6
#     8   8   8   4   8   4
#     4  11  21  33  51  75 107 145 185 220 250 298
#     4  10  20  35  51  73 108 148 181 215 257 300
#     4   9  20  37  53  73 106 141 173 213 263 311
#     4   9  18  32  54  76 106 142 172 210 262 309
#     4   9  18  35  55  80 103 132 167 215 266 318
#     4   9  18  34  58  80 104 124 166 220 268 319
#
# _framework density 18.445219999999999
#
# number of rings (size 3 to 8) (size 9 to 14) (size 15 to 20)
#    0.000    2.400    1.000    1.200    0.000    1.600 
#    3.600    3.000    0.000    0.000    0.000    0.000 
#    0.000    0.000    0.000    0.000    0.000    0.000 
#
# Total GULP energy -111354.647418 kJ/mol
# GULP energy per Si atom -5567.732371 kJ/mol
# Density = 1.840324 g / cm^3
# Si number density = 18.445220 Si / 1000 Ang^3
#
#
#
# Elastic Constant Matrix: (Units=GPa)
#
#
# Indices 1 2 3 4 5 6 
#
# 1 121.3332 47.5700 25.9754 0.0000 27.0720 0.0000
# 2 47.5700 72.4332 16.8808 0.0000 15.3197 0.0000
# 3 25.9754 16.8808 43.2163 0.0000 21.7919 0.0000
# 4 0.0000 0.0000 0.0000 273.5091 0.0000 -92.1137
# 5 27.0720 15.3197 21.7919 0.0000 37.1697 0.0000
# 6 0.0000 0.0000 0.0000 -92.1137 0.0000 62.1401
#
#
#
# Elastic Compliance Matrix: (Units=1/GPa)
#
#
# Indices 1 2 3 4 5 6 
#
# 1 0.012431 -0.006556 -0.002425 0.000000 -0.004930 0.000000
# 2 -0.006556 0.019066 -0.002771 0.000000 -0.001458 0.000000
# 3 -0.002425 -0.002771 0.034376 0.000000 -0.017245 0.000000
# 4 0.000000 0.000000 0.000000 0.007301 0.000000 0.010823
# 5 -0.004930 -0.001458 -0.017245 0.000000 0.041206 0.000000
# 6 0.000000 0.000000 0.000000 0.010823 0.000000 0.032136
#
#
# Mechanical properties :
#
#
# Convention : Reuss Voigt Hill
#
# Bulk Modulus (GPa) = 23.60289 46.42610 35.01450
# Shear Modulus (GPa) = 27.15261 84.33421 55.74341
#
# Velocity S-wave (km/s) = 3.84092 6.76910 5.50333
# Velocity P-wave (km/s) = 5.70037 9.29078 7.70755
#
# Compressibility (1/GPa) = 0.04236768
#
# Stress axis : x y z
#
# Youngs Moduli (GPa) = 80.44117 52.44956 29.09047
#
# Poissons Ratio (x) = 0.34388 0.07054
# Poissons Ratio (y) = 0.52740 0.08062
# Poissons Ratio (z) = 0.19506 0.14536
#
# Static dielectric constant tensor:
#      x y z
#    x 1.671710 0.000000 0.049110 
#    y 0.000000 1.654990 0.000000 
#    z 0.049110 0.000000 1.660850 
# 
# From -- ./inp_files/25854.got.cif
#   From: 2010.05.17/outbox.cif.g08.bks.cpg/sg15_13_cif.got.tgz:25854.got - 2010.06.03 18:47:42.
