data_PCOD9269717
_publ_section_title
;
Structure prediction by ZEFSAII (Michael W. Deem and Ramdas Pophale) SiO2 
 PCOD9269717
Probable space group: C 2/C
;
_chemical_formula_sum "Si O2"
_cell_formula_units_Z 48
_cell_length_a 17.721137
_cell_length_b 14.605982
_cell_length_c 8.855113
_cell_angle_alpha 90.000000
_cell_angle_beta 65.552170
_cell_angle_gamma 90.000000
_cell_volume 2086.504646
_symmetry_space_group_name_H-M "C 2/C"
_symmetry_group_IT_number 15
_symmetry_cell_setting 'monoclinic'
loop_
_space_group_symop_operation_xyz
x,y,z
-x,y,1/2-z
-x,-y,-z
x,-y,1/2+z
1/2+x,1/2+y,z
1/2-x,1/2+y,1/2-z
1/2-x,1/2-y,-z
1/2+x,1/2-y,1/2+z
loop_
_atom_site_type_symbol
_atom_site_label
_atom_site_fract_x
_atom_site_fract_y
_atom_site_fract_z
Si Si1 0.103102 0.184296 0.513513
Si Si2 0.131385 0.386683 0.418278
Si Si3 0.323144 0.337530 0.227778
Si Si4 0.269619 0.873284 0.725401
Si Si5 0.846049 0.529498 0.885035
Si Si6 0.469138 0.407594 0.946546
O O1 0.109646 0.292812 0.513281
O O2 0.125714 0.146853 0.659644
O O3 0.173743 0.143539 0.344718
O O4 0.016039 0.166416 0.509541
O O5 0.232490 0.381498 0.325408
O O6 0.100486 0.471072 0.542074
O O7 0.107127 0.402255 0.265663
O O8 0.310275 0.228212 0.212368
O O9 0.372735 0.387041 0.052908
O O10 0.286587 0.911806 0.544171
O O11 0.304646 0.949592 0.814335
O O12 0.500000 0.405276 0.750000
O O13 0.500000 0.500000 0.000000
#
# Coordination Sequence:
#
# PCOD9269717 Si02
#       6
#     8   8   8   8   8   8
#     4  11  22  42  61  91 127 168 202 251 315 361
#     4  10  21  36  65  94 129 157 207 255 310 358
#     4  11  22  42  61  91 127 168 202 251 315 361
#     4  10  21  36  65  94 129 157 207 255 310 358
#     4  10  20  34  60 100 122 158 200 268 298 364
#     4  12  30  44  64  89 124 167 207 249 304 371
#
# _framework density 23.00498
#
# number of rings (size 3 to 8) (size 9 to 14) (size 15 to 20)
#    0.000    1.333    3.333    2.500    9.333    1.333 
#    0.000    0.000    0.000    6.000    0.000    0.000 
#    0.000    0.000    0.000    0.000    0.000    0.000 
#
# Total GULP energy -134086.676000 kJ/mol
# GULP energy per Si atom -5586.944833 kJ/mol
# Density = 2.295262 g / cm^3
# Si number density = 23.004980 Si / 1000 Ang^3
#
#
#
# Elastic Constant Matrix: (Units=GPa)
#
#
# Indices 1 2 3 4 5 6 
#
# 1 38.9781 -6.1986 12.4994 0.0000 5.4224 0.0000
# 2 -6.1986 52.5509 19.0881 0.0000 2.8438 0.0000
# 3 12.4994 19.0881 122.7616 0.0000 19.2871 0.0000
# 4 0.0000 0.0000 0.0000 32.2433 0.0000 -0.9067
# 5 5.4224 2.8438 19.2871 0.0000 22.0850 0.0000
# 6 0.0000 0.0000 0.0000 -0.9067 0.0000 -0.6809
#
#
#
# Elastic Compliance Matrix: (Units=1/GPa)
#
#
# Indices 1 2 3 4 5 6 
#
# 1 0.027972 0.004578 -0.002768 0.000000 -0.005040 0.000000
# 2 0.004578 0.020918 -0.003615 0.000000 -0.000661 0.000000
# 3 -0.002768 -0.003615 0.010211 0.000000 -0.007772 0.000000
# 4 0.000000 0.000000 0.000000 0.029895 0.000000 -0.039809
# 5 -0.005040 -0.000661 -0.007772 0.000000 0.053390 0.000000
# 6 0.000000 0.000000 0.000000 -0.039809 0.000000 -1.415652
#
#
# Mechanical properties :
#
#
# Convention : Reuss Voigt Hill
#
# Bulk Modulus (GPa) = 18.02114 29.45204 23.73659
# Shear Modulus (GPa) = -3.99629 23.32293 9.66332
#
# Velocity S-wave (km/s) = -1.31944 3.18751 2.05174
# Velocity P-wave (km/s) = 2.35146 5.13588 3.99416
#
# Compressibility (1/GPa) = 0.05549038
#
# Stress axis : x y z
#
# Youngs Moduli (GPa) = 35.74986 47.80599 97.93502
#
# Poissons Ratio (x) = -0.21884 0.27109
# Poissons Ratio (y) = -0.16365 0.35402
# Poissons Ratio (z) = 0.09896 0.17281
#
# Static dielectric constant tensor:
#      x y z
#    x 1.796130 0.000000 0.033380 
#    y 0.000000 1.461930 0.000000 
#    z 0.033380 0.000000 1.855800 
# 
# From -- ./inp_files/55244.got.cif
#   From: 2010.05.17/outbox.cif.g08.bks.cpg/sg15_28_cif.got.tgz:55244.got - 2010.06.03 18:47:42.
