data_PCOD9269557
_publ_section_title
;
Structure prediction by ZEFSAII (Michael W. Deem and Ramdas Pophale) SiO2 
 PCOD9269557
Probable space group: C 2/C
;
_chemical_formula_sum "Si O2"
_cell_formula_units_Z 48
_cell_length_a 5.294172
_cell_length_b 22.586756
_cell_length_c 17.962167
_cell_angle_alpha 90.000000
_cell_angle_beta 83.153156
_cell_angle_gamma 90.000000
_cell_volume 2132.565176
_symmetry_space_group_name_H-M "C 2/C"
_symmetry_group_IT_number 15
_symmetry_cell_setting 'monoclinic'
loop_
_space_group_symop_operation_xyz
x,y,z
-x,y,1/2-z
-x,-y,-z
x,-y,1/2+z
1/2+x,1/2+y,z
1/2-x,1/2+y,1/2-z
1/2-x,1/2-y,-z
1/2+x,1/2-y,1/2+z
loop_
_atom_site_type_symbol
_atom_site_label
_atom_site_fract_x
_atom_site_fract_y
_atom_site_fract_z
Si Si1 0.470571 0.297207 0.987069
Si Si2 0.834842 0.633056 0.115099
Si Si3 0.917956 0.434105 0.023222
Si Si4 0.000000 0.162482 0.750000
Si Si5 0.896134 0.108775 0.602435
Si Si6 0.306654 0.229100 0.343944
Si Si7 0.500000 0.362075 0.750000
O O1 0.374148 0.351448 0.938923
O O2 0.684445 0.267371 0.929790
O O3 0.250000 0.250000 0.000000
O O4 0.487874 0.328370 0.065214
O O5 0.696343 0.602253 0.190009
O O6 0.930552 0.695112 0.147182
O O7 0.050559 0.602447 0.056357
O O8 0.634832 0.431730 0.067957
O O9 0.127225 0.409263 0.074953
O O10 0.000000 0.500000 0.000000
O O11 0.879160 0.121232 0.690746
O O12 0.816791 0.209944 0.798366
O O13 0.154922 0.180953 0.299919
#
# Coordination Sequence:
#
# PCOD9269557 Si02
#       7
#     8   8   8   4   8   8   4
#     4  10  22  36  61  95 134 182 233 264 324 420
#     4  10  20  38  60  95 126 167 231 284 327 404
#     4  11  25  50  78  95 125 181 248 307 346 388
#     4  12  26  38  65  98 156 183 208 272 366 434
#     4  11  26  45  69 105 137 181 234 293 344 425
#     4  11  21  37  60  94 139 187 215 263 339 423
#     4  10  20  34  57  92 138 167 224 266 336 404
#
# _framework density 22.508102999999998
#
# number of rings (size 3 to 8) (size 9 to 14) (size 15 to 20)
#    0.000    1.333    3.333    1.500    7.000    2.000 
#    0.000    0.833    3.667    0.000    0.000    0.000 
#    0.000    0.000    0.000    0.000    0.000    0.000 
#
# Total GULP energy -133844.449098 kJ/mol
# GULP energy per Si atom -5576.852046 kJ/mol
# Density = 2.245687 g / cm^3
# Si number density = 22.508103 Si / 1000 Ang^3
#
#
#
# Elastic Constant Matrix: (Units=GPa)
#
#
# Indices 1 2 3 4 5 6 
#
# 1 63.7350 -8.4514 14.2368 0.0000 1.0065 0.0000
# 2 -8.4514 45.8263 1.3059 0.0000 6.5982 0.0000
# 3 14.2368 1.3059 153.4790 0.0000 0.6826 0.0000
# 4 0.0000 0.0000 0.0000 19.0653 0.0000 -5.2769
# 5 1.0065 6.5982 0.6826 0.0000 38.5605 0.0000
# 6 0.0000 0.0000 0.0000 -5.2769 0.0000 25.0384
#
#
#
# Elastic Compliance Matrix: (Units=1/GPa)
#
#
# Indices 1 2 3 4 5 6 
#
# 1 0.016479 0.003221 -0.001552 0.000000 -0.000954 0.000000
# 2 0.003221 0.023007 -0.000477 0.000000 -0.004012 0.000000
# 3 -0.001552 -0.000477 0.006664 0.000000 0.000004 0.000000
# 4 0.000000 0.000000 0.000000 0.055701 0.000000 0.011739
# 5 -0.000954 -0.004012 0.000004 0.000000 0.026645 0.000000
# 6 0.000000 0.000000 0.000000 0.011739 0.000000 0.042413
#
#
# Mechanical properties :
#
#
# Convention : Reuss Voigt Hill
#
# Bulk Modulus (GPa) = 20.60435 30.80255 25.70345
# Shear Modulus (GPa) = 27.07085 33.59609 30.33347
#
# Velocity S-wave (km/s) = 3.47178 3.86764 3.67504
# Velocity P-wave (km/s) = 5.02445 5.80169 5.42700
#
# Compressibility (1/GPa) = 0.04853344
#
# Stress axis : x y z
#
# Youngs Moduli (GPa) = 60.68439 43.46539 150.07070
#
# Poissons Ratio (x) = -0.13998 0.23287
# Poissons Ratio (y) = -0.19544 0.07153
# Poissons Ratio (z) = 0.09417 0.02072
#
# Static dielectric constant tensor:
#      x y z
#    x 1.902640 0.000000 -0.038040 
#    y 0.000000 1.793550 0.000000 
#    z -0.038040 0.000000 1.929480 
# 
# From -- ./inp_files/185254.got.cif
#   From: 2010.05.17/outbox.cif.g08.bks.cpg/sg15_93_cif.got.tgz:185254.got - 2010.06.03 18:47:42.
