data_PCOD9269847
_publ_section_title
;
Structure prediction by ZEFSAII (Michael W. Deem and Ramdas Pophale) SiO2 
 PCOD9269847
Probable space group: C 2/C
;
_chemical_formula_sum "Si O2"
_cell_formula_units_Z 52
_cell_length_a 12.842303
_cell_length_b 6.989164
_cell_length_c 26.689164
_cell_angle_alpha 90.000000
_cell_angle_beta 55.022784
_cell_angle_gamma 90.000000
_cell_volume 1962.856308
_symmetry_space_group_name_H-M "C 2/C"
_symmetry_group_IT_number 15
_symmetry_cell_setting 'monoclinic'
loop_
_space_group_symop_operation_xyz
x,y,z
-x,y,1/2-z
-x,-y,-z
x,-y,1/2+z
1/2+x,1/2+y,z
1/2-x,1/2+y,1/2-z
1/2-x,1/2-y,-z
1/2+x,1/2-y,1/2+z
loop_
_atom_site_type_symbol
_atom_site_label
_atom_site_fract_x
_atom_site_fract_y
_atom_site_fract_z
Si Si1 0.017797 0.650819 0.601273
Si Si2 0.149382 0.641718 0.993940
Si Si3 0.148010 0.706914 0.321259
Si Si4 0.238227 0.261111 0.366754
Si Si5 0.610169 0.510334 0.254907
Si Si6 0.000000 0.000000 0.000000
Si Si7 0.740369 0.856206 0.105677
O O1 0.093105 0.543301 0.536317
O O2 0.121001 0.736767 0.610386
O O3 0.938124 0.480827 0.649848
O O4 0.909212 0.789556 0.608662
O O5 0.250000 0.750000 0.000000
O O6 0.213401 0.609135 0.922330
O O7 0.040171 0.796884 0.015171
O O8 0.281898 0.657331 0.256776
O O9 0.076823 0.874807 0.310995
O O10 0.199803 0.760939 0.361863
O O11 0.317147 0.371427 0.304072
O O12 0.306226 0.065121 0.361735
O O13 0.500000 0.595709 0.250000
O O14 0.148814 0.077705 0.962351
#
# Coordination Sequence:
#
# PCOD9269847 Si02
#       7
#     8   8   8   8   8   4   8
#     4  11  22  41  66  95 128 171 211 263 323 376
#     4  11  20  39  65  92 132 170 208 263 320 382
#     4  11  25  42  68  93 130 164 220 262 320 384
#     4  10  23  40  64  96 127 168 218 257 318 385
#     4  11  25  44  66  96 126 171 213 270 318 377
#     4  10  20  34  62  92 124 166 208 246 316 376
#     4  11  22  41  63  92 130 167 208 263 316 381
#
# _framework density 26.492004999999999
#
# number of rings (size 3 to 8) (size 9 to 14) (size 15 to 20)
#    0.000    1.231    4.615    2.308    0.000    3.692 
#    0.000    8.462    0.000    0.000    0.000    0.000 
#    0.000    0.000    0.000    0.000    0.000    0.000 
#
# Total GULP energy -145159.269710 kJ/mol
# GULP energy per Si atom -5583.048835 kJ/mol
# Density = 2.643171 g / cm^3
# Si number density = 26.492005 Si / 1000 Ang^3
#
#
#
# Elastic Constant Matrix: (Units=GPa)
#
#
# Indices 1 2 3 4 5 6 
#
# 1 157.0123 22.4263 21.7001 0.0000 19.8159 0.0000
# 2 22.4263 61.6504 11.1760 0.0000 10.1996 0.0000
# 3 21.7001 11.1760 62.1397 0.0000 16.1243 0.0000
# 4 0.0000 0.0000 0.0000 22.8594 0.0000 6.1240
# 5 19.8159 10.1996 16.1243 0.0000 26.4634 0.0000
# 6 0.0000 0.0000 0.0000 6.1240 0.0000 52.1888
#
#
#
# Elastic Compliance Matrix: (Units=1/GPa)
#
#
# Indices 1 2 3 4 5 6 
#
# 1 0.007297 -0.001769 -0.001175 0.000000 -0.004067 0.000000
# 2 -0.001769 0.017896 -0.001372 0.000000 -0.004737 0.000000
# 3 -0.001175 -0.001372 0.019461 0.000000 -0.010449 0.000000
# 4 0.000000 0.000000 0.000000 0.045166 0.000000 -0.005300
# 5 -0.004067 -0.004737 -0.010449 0.000000 0.049026 0.000000
# 6 0.000000 0.000000 0.000000 -0.005300 0.000000 0.019783
#
#
# Mechanical properties :
#
#
# Convention : Reuss Voigt Hill
#
# Bulk Modulus (GPa) = 27.75936 43.48967 35.62452
# Shear Modulus (GPa) = 27.89123 35.33567 31.61345
#
# Velocity S-wave (km/s) = 3.24823 3.65612 3.45819
# Velocity P-wave (km/s) = 4.95673 5.85446 5.42420
#
# Compressibility (1/GPa) = 0.03602389
#
# Stress axis : x y z
#
# Youngs Moduli (GPa) = 137.03954 55.87746 51.38419
#
# Poissons Ratio (x) = 0.09883 0.06038
# Poissons Ratio (y) = 0.24238 0.07049
# Poissons Ratio (z) = 0.16102 0.07665
#
# Static dielectric constant tensor:
#      x y z
#    x 2.050860 0.000000 -0.005940 
#    y 0.000000 2.010500 0.000000 
#    z -0.005940 0.000000 2.245710 
# 
# From -- ./inp_files/291102.got.cif
#   From: 2010.05.17/outbox.cif.g08.bks.cpg/sg15_146_cif.got.tgz:291102.got - 2010.06.03 18:47:42.
