data_PCOD9269396
_publ_section_title
;
Structure prediction by ZEFSAII (Michael W. Deem and Ramdas Pophale) SiO2 
 PCOD9269396
Probable space group: C 2/C
;
_chemical_formula_sum "Si O2"
_cell_formula_units_Z 56
_cell_length_a 23.417272
_cell_length_b 8.866269
_cell_length_c 15.697048
_cell_angle_alpha 90.000000
_cell_angle_beta 73.021424
_cell_angle_gamma 90.000000
_cell_volume 3117.030994
_symmetry_space_group_name_H-M "C 2/C"
_symmetry_group_IT_number 15
_symmetry_cell_setting 'monoclinic'
loop_
_space_group_symop_operation_xyz
x,y,z
-x,y,1/2-z
-x,-y,-z
x,-y,1/2+z
1/2+x,1/2+y,z
1/2-x,1/2+y,1/2-z
1/2-x,1/2-y,-z
1/2+x,1/2-y,1/2+z
loop_
_atom_site_type_symbol
_atom_site_label
_atom_site_fract_x
_atom_site_fract_y
_atom_site_fract_z
Si Si1 0.378771 0.312946 0.631280
Si Si2 0.781349 0.986648 0.263058
Si Si3 0.698327 0.324061 0.580296
Si Si4 0.390394 0.574256 0.944095
Si Si5 0.020508 0.973909 0.336557
Si Si6 0.381237 0.739925 0.767787
Si Si7 0.655262 0.923406 0.231170
O O1 0.319575 0.392808 0.693498
O O2 0.375140 0.325411 0.532076
O O3 0.433825 0.409820 0.642359
O O4 0.381251 0.153458 0.676284
O O5 0.774613 0.062286 0.359522
O O6 0.822986 0.838036 0.250887
O O7 0.720614 0.953164 0.241792
O O8 0.750000 0.250000 0.500000
O O9 0.651715 0.426585 0.546675
O O10 0.663703 0.193629 0.649055
O O11 0.460491 0.535744 0.916864
O O12 0.383461 0.666414 0.860097
O O13 0.059464 0.820859 0.306244
O O14 0.000000 0.020440 0.250000
O O15 0.373814 0.917388 0.778228
#
# Coordination Sequence:
#
# PCOD9269396 Si02
#       7
#     8   8   8   8   8   8   8
#     4  10  20  34  56  81 101 135 183 219 256 313
#     4   9  19  35  53  74 108 146 174 209 264 320
#     4  10  21  35  55  82 108 140 181 221 263 318
#     4  10  20  37  55  76 107 142 175 215 267 321
#     4   9  18  37  57  74 102 144 179 210 260 322
#     4   9  19  34  53  75 106 142 174 214 267 315
#     4  11  20  34  53  80 108 137 177 224 265 309
#
# _framework density 17.965814000000002
#
# number of rings (size 3 to 8) (size 9 to 14) (size 15 to 20)
#    0.000    2.286    0.000    5.571    0.000    2.286 
#    0.000   10.714    0.000    0.000    0.000    0.000 
#    0.000    0.000    0.000    0.000    0.000    0.000 
#
# Total GULP energy -156130.497608 kJ/mol
# GULP energy per Si atom -5576.089200 kJ/mol
# Density = 1.792492 g / cm^3
# Si number density = 17.965814 Si / 1000 Ang^3
#
#
#
# Elastic Constant Matrix: (Units=GPa)
#
#
# Indices 1 2 3 4 5 6 
#
# 1 81.5622 30.2522 22.6564 0.0000 -8.0418 0.0000
# 2 30.2522 102.5734 14.6232 0.0000 -12.5104 0.0000
# 3 22.6564 14.6232 64.6504 0.0000 -23.9099 0.0000
# 4 0.0000 0.0000 0.0000 15.6233 0.0000 2.3193
# 5 -8.0418 -12.5104 -23.9099 0.0000 18.9316 0.0000
# 6 0.0000 0.0000 0.0000 2.3193 0.0000 1.9153
#
#
#
# Elastic Compliance Matrix: (Units=1/GPa)
#
#
# Indices 1 2 3 4 5 6 
#
# 1 0.014973 -0.004029 -0.005570 0.000000 -0.003337 0.000000
# 2 -0.004029 0.011692 0.001861 0.000000 0.008366 0.000000
# 3 -0.005570 0.001861 0.031109 0.000000 0.038154 0.000000
# 4 0.000000 0.000000 0.000000 0.078035 0.000000 -0.094499
# 5 -0.003337 0.008366 0.038154 0.000000 0.105119 0.000000
# 6 0.000000 0.000000 0.000000 -0.094499 0.000000 0.636557
#
#
# Mechanical properties :
#
#
# Convention : Reuss Voigt Hill
#
# Bulk Modulus (GPa) = 23.64107 42.64994 33.14551
# Shear Modulus (GPa) = 5.51230 19.37765 12.44497
#
# Velocity S-wave (km/s) = 1.75353 3.28774 2.63478
# Velocity P-wave (km/s) = 4.15780 6.18089 5.26739
#
# Compressibility (1/GPa) = 0.04229927
#
# Stress axis : x y z
#
# Youngs Moduli (GPa) = 66.78592 85.52570 32.14470
#
# Poissons Ratio (x) = 0.34458 0.17905
# Poissons Ratio (y) = 0.26908 -0.05983
# Poissons Ratio (z) = 0.37200 -0.15918
#
# Static dielectric constant tensor:
#      x y z
#    x 1.615610 0.000000 -0.005300 
#    y 0.000000 1.619580 0.000000 
#    z -0.005300 0.000000 1.634310 
# 
# From -- ./inp_files/171823.got.cif
#   From: 2010.05.17/outbox.cif.g08.bks.cpg/sg15_86_cif.got.tgz:171823.got - 2010.06.03 18:47:42.
