data_PCOD9269345
_publ_section_title
;
Structure prediction by ZEFSAII (Michael W. Deem and Ramdas Pophale) SiO2 
 PCOD9269345
Probable space group: C 2/C
;
_chemical_formula_sum "Si O2"
_cell_formula_units_Z 64
_cell_length_a 13.890583
_cell_length_b 31.354764
_cell_length_c 8.808196
_cell_angle_alpha 90.000000
_cell_angle_beta 60.462194
_cell_angle_gamma 90.000000
_cell_volume 3337.686182
_symmetry_space_group_name_H-M "C 2/C"
_symmetry_group_IT_number 15
_symmetry_cell_setting 'monoclinic'
loop_
_space_group_symop_operation_xyz
x,y,z
-x,y,1/2-z
-x,-y,-z
x,-y,1/2+z
1/2+x,1/2+y,z
1/2-x,1/2+y,1/2-z
1/2-x,1/2-y,-z
1/2+x,1/2-y,1/2+z
loop_
_atom_site_type_symbol
_atom_site_label
_atom_site_fract_x
_atom_site_fract_y
_atom_site_fract_z
Si Si1 0.738739 0.199715 0.822232
Si Si2 0.644770 0.558670 0.458421
Si Si3 0.303555 0.481736 0.898631
Si Si4 0.912110 0.769865 0.435921
Si Si5 0.435614 0.312831 0.947861
Si Si6 0.911669 0.091387 0.518950
Si Si7 0.422703 0.025891 0.447401
Si Si8 0.224377 0.395178 0.409401
O O1 0.820191 0.208580 0.901554
O O2 0.816735 0.202594 0.610655
O O3 0.689829 0.152738 0.893884
O O4 0.645330 0.235672 0.909538
O O5 0.630714 0.524261 0.604321
O O6 0.690578 0.531231 0.281412
O O7 0.531080 0.578023 0.487685
O O8 0.731004 0.593785 0.455510
O O9 0.357314 0.443718 0.952480
O O10 0.176832 0.494899 0.030090
O O11 0.000000 0.749197 0.250000
O O12 0.979467 0.804343 0.480265
O O13 0.500000 0.294697 0.750000
O O14 0.417958 0.362856 0.934430
O O15 0.831510 0.098024 0.722600
O O16 0.500000 0.039875 0.250000
O O17 0.364205 0.068103 0.558718
O O18 0.500000 0.000000 0.500000
#
# Coordination Sequence:
#
# PCOD9269345 Si02
#       8
#     8   8   8   8   8   8   8   8
#     4   9  19  35  57  81 109 139 179 229 266 323
#     4  11  21  34  52  78 110 142 175 220 275 329
#     4  11  22  35  52  77 105 142 186 222 269 324
#     4   9  18  35  57  82 110 144 179 218 273 328
#     4  10  20  34  55  83 113 146 177 216 278 338
#     4  11  21  35  53  80 114 141 173 222 276 336
#     4  11  22  38  54  70  99 141 185 228 265 303
#     4  10  21  36  55  79 104 139 182 223 271 322
#
# _framework density 19.174959999999999
#
# number of rings (size 3 to 8) (size 9 to 14) (size 15 to 20)
#    0.000    1.750    0.000    6.375    0.000    5.000 
#    0.000    0.000    0.000    3.750    0.000    0.000 
#    0.000    0.000    0.000    0.000    0.000    0.000 
#
# Total GULP energy -178417.030894 kJ/mol
# GULP energy per Si atom -5575.532215 kJ/mol
# Density = 1.913132 g / cm^3
# Si number density = 19.174960 Si / 1000 Ang^3
#
#
#
# Elastic Constant Matrix: (Units=GPa)
#
#
# Indices 1 2 3 4 5 6 
#
# 1 57.5791 7.4997 -14.3050 0.0000 -10.4124 0.0000
# 2 7.4997 68.5881 -3.0173 0.0000 -11.5530 0.0000
# 3 -14.3050 -3.0173 58.2921 0.0000 -11.4307 0.0000
# 4 0.0000 0.0000 0.0000 25.1807 0.0000 -5.0215
# 5 -10.4124 -11.5530 -11.4307 0.0000 29.6105 0.0000
# 6 0.0000 0.0000 0.0000 -5.0215 0.0000 10.6568
#
#
#
# Elastic Compliance Matrix: (Units=1/GPa)
#
#
# Indices 1 2 3 4 5 6 
#
# 1 0.020976 -0.000298 0.007093 0.000000 0.009998 0.000000
# 2 -0.000298 0.015866 0.002101 0.000000 0.006897 0.000000
# 3 0.007093 0.002101 0.021264 0.000000 0.011522 0.000000
# 4 0.000000 0.000000 0.000000 0.043832 0.000000 0.020654
# 5 0.009998 0.006897 0.011522 0.000000 0.044427 0.000000
# 6 0.000000 0.000000 0.000000 0.020654 0.000000 0.103569
#
#
# Mechanical properties :
#
#
# Convention : Reuss Voigt Hill
#
# Bulk Modulus (GPa) = 13.17549 18.31269 15.74409
# Shear Modulus (GPa) = 19.42189 26.04172 22.73180
#
# Velocity S-wave (km/s) = 3.18603 3.68925 3.44684
# Velocity P-wave (km/s) = 4.51890 5.26484 4.90607
#
# Compressibility (1/GPa) = 0.07589853
#
# Stress axis : x y z
#
# Youngs Moduli (GPa) = 47.67274 63.02607 47.02841
#
# Poissons Ratio (x) = 0.01875 -0.33356
# Poissons Ratio (y) = 0.01418 -0.09879
# Poissons Ratio (z) = -0.33813 -0.13240
#
# Static dielectric constant tensor:
#      x y z
#    x 1.684320 0.000000 -0.035630 
#    y 0.000000 1.679000 0.000000 
#    z -0.035630 0.000000 1.762110 
# 
# From -- ./inp_files/44544.got.cif
#   From: 2010.05.17/outbox.cif.g08.bks.cpg/sg15_23_cif.got.tgz:44544.got - 2010.06.03 18:47:42.
