data_PCOD9269188
_publ_section_title
;
Structure prediction by ZEFSAII (Michael W. Deem and Ramdas Pophale) SiO2 
 PCOD9269188
Probable space group: C 2/C
;
_chemical_formula_sum "Si O2"
_cell_formula_units_Z 64
_cell_length_a 8.149147
_cell_length_b 26.850913
_cell_length_c 28.764621
_cell_angle_alpha 90.000000
_cell_angle_beta 153.774943
_cell_angle_gamma 90.000000
_cell_volume 2781.327335
_symmetry_space_group_name_H-M "C 2/C"
_symmetry_group_IT_number 15
_symmetry_cell_setting 'monoclinic'
loop_
_space_group_symop_operation_xyz
x,y,z
-x,y,1/2-z
-x,-y,-z
x,-y,1/2+z
1/2+x,1/2+y,z
1/2-x,1/2+y,1/2-z
1/2-x,1/2-y,-z
1/2+x,1/2-y,1/2+z
loop_
_atom_site_type_symbol
_atom_site_label
_atom_site_fract_x
_atom_site_fract_y
_atom_site_fract_z
Si Si1 0.954309 0.081652 0.605476
Si Si2 0.595984 0.776541 0.649145
Si Si3 0.197927 0.186350 0.434231
Si Si4 0.758449 0.281214 0.354262
Si Si5 0.565261 0.491720 0.962692
Si Si6 0.399009 0.683366 0.546424
Si Si7 0.944986 0.990000 0.181152
Si Si8 0.548335 0.580954 0.382291
O O1 0.070752 0.133632 0.611912
O O2 0.500935 0.083745 0.492028
O O3 0.081484 0.038854 0.602655
O O4 0.069412 0.059712 0.684950
O O5 0.475651 0.748785 0.665918
O O6 0.632557 0.730537 0.622063
O O7 0.250567 0.811166 0.544286
O O8 0.000000 0.802123 0.750000
O O9 0.452121 0.182777 0.545769
O O10 0.507785 0.189722 0.473665
O O11 0.947464 0.138955 0.357981
O O12 0.981256 0.237465 0.385039
O O13 0.500000 0.306450 0.250000
O O14 0.002287 0.491494 0.063843
O O15 0.500000 0.500000 0.000000
O O16 0.434523 0.442431 0.902960
O O17 0.077056 0.040692 0.188471
O O18 0.000000 0.989718 0.250000
#
# Coordination Sequence:
#
# PCOD9269188 Si02
#       8
#     8   8   8   8   8   8   8   8
#     4   8  16  33  53  73 103 140 172 206 257 319
#     4  10  20  34  53  76 105 140 177 219 267 318
#     4   9  18  35  55  74 102 139 179 221 265 311
#     4  10  20  34  53  78 106 137 176 225 270 311
#     4   9  17  31  50  73 103 136 169 205 252 310
#     4   9  18  35  55  74 102 142 180 216 264 317
#     4   9  17  33  56  78 105 137 170 213 265 316
#     4   8  16  33  53  72 102 141 172 207 259 319
#
# _framework density 23.010596
#
# number of rings (size 3 to 8) (size 9 to 14) (size 15 to 20)
#    0.000    3.000    0.000    2.250    0.000    2.000 
#    0.000   24.375    0.000    0.000    0.000    0.000 
#    0.000    0.000    0.000    0.000    0.000    0.000 
#
# Total GULP energy -178316.351999 kJ/mol
# GULP energy per Si atom -5572.386000 kJ/mol
# Density = 2.295822 g / cm^3
# Si number density = 23.010596 Si / 1000 Ang^3
#
#
#
# Elastic Constant Matrix: (Units=GPa)
#
#
# Indices 1 2 3 4 5 6 
#
# 1 78.9665 9.9859 10.6654 -0.0156 -20.5709 -0.0071
# 2 9.9859 100.0472 4.7845 -0.0034 -20.6638 -0.0032
# 3 10.6654 4.7845 77.5680 -0.0233 -12.7098 -0.0133
# 4 -0.0156 -0.0034 -0.0233 1.3677 -0.0146 -0.5777
# 5 -20.5709 -20.6638 -12.7098 -0.0146 50.9882 -0.0074
# 6 -0.0071 -0.0032 -0.0133 -0.5777 -0.0074 15.5569
#
#
#
# Elastic Compliance Matrix: (Units=1/GPa)
#
#
# Indices 1 2 3 4 5 6 
#
# 1 0.014240 -0.000260 -0.001061 0.000208 0.005375 0.000016
# 2 -0.000260 0.010913 0.000073 0.000075 0.004336 0.000007
# 3 -0.001061 0.000073 0.013520 0.000260 0.002972 0.000022
# 4 0.000208 0.000075 0.000260 0.742834 0.000396 0.027586
# 5 0.005375 0.004336 0.002972 0.000396 0.024279 0.000032
# 6 0.000016 0.000007 0.000022 0.027586 0.000032 0.065305
#
#
# Mechanical properties :
#
#
# Convention : Reuss Voigt Hill
#
# Bulk Modulus (GPa) = 27.64184 34.16148 30.90166
# Shear Modulus (GPa) = 5.64559 28.99228 17.31893
#
# Velocity S-wave (km/s) = 1.56806 3.55343 2.74642
# Velocity P-wave (km/s) = 3.91371 5.63152 4.84929
#
# Compressibility (1/GPa) = 0.03617704
#
# Stress axis : x y z
#
# Youngs Moduli (GPa) = 70.22414 91.63094 73.96269
#
# Poissons Ratio (x) = 0.02386 0.07848
# Poissons Ratio (y) = 0.01829 -0.00541
# Poissons Ratio (z) = 0.07452 -0.00670
#
# Static dielectric constant tensor:
#      x y z
#    x 1.907460 -0.000010 -0.037320 
#    y -0.000010 1.889870 0.000000 
#    z -0.037320 0.000000 2.039220 
# 
# From -- ./inp_files/309177.got.cif
#   From: 2010.05.17/outbox.cif.g08.bks.cpg/sg15_155_cif.got.tgz:309177.got - 2010.06.03 18:47:42.
