data_PCOD9269527
_publ_section_title
;
Structure prediction by ZEFSAII (Michael W. Deem and Ramdas Pophale) SiO2 
 PCOD9269527
Probable space group: C 2/C
;
_chemical_formula_sum "Si O2"
_cell_formula_units_Z 48
_cell_length_a 11.992484
_cell_length_b 22.085694
_cell_length_c 14.613928
_cell_angle_alpha 90.000000
_cell_angle_beta 27.322895
_cell_angle_gamma 90.000000
_cell_volume 1776.659501
_symmetry_space_group_name_H-M "C 2/C"
_symmetry_group_IT_number 15
_symmetry_cell_setting 'monoclinic'
loop_
_space_group_symop_operation_xyz
x,y,z
-x,y,1/2-z
-x,-y,-z
x,-y,1/2+z
1/2+x,1/2+y,z
1/2-x,1/2+y,1/2-z
1/2-x,1/2-y,-z
1/2+x,1/2-y,1/2+z
loop_
_atom_site_type_symbol
_atom_site_label
_atom_site_fract_x
_atom_site_fract_y
_atom_site_fract_z
Si Si1 0.266087 0.290805 0.596632
Si Si2 0.672168 0.793046 0.861035
Si Si3 0.973232 0.102894 0.632473
Si Si4 0.742434 0.513994 0.116560
Si Si5 0.274943 0.972799 0.796612
Si Si6 0.417917 0.837891 0.208732
O O1 0.408722 0.229317 0.516086
O O2 0.276135 0.320254 0.691967
O O3 0.431327 0.331236 0.409172
O O4 0.000000 0.286541 0.750000
O O5 0.813323 0.731422 0.785804
O O6 0.636046 0.833330 0.976294
O O7 0.836028 0.055415 0.797361
O O8 0.782618 0.118911 0.690527
O O9 0.227341 0.073472 0.412711
O O10 0.500000 0.540576 0.250000
O O11 0.797324 0.545598 0.173363
O O12 0.974877 0.510676 0.880976
O O13 0.000000 0.000000 0.000000
O O14 0.500000 0.854344 0.250000
#
# Coordination Sequence:
#
# PCOD9269527 Si02
#       6
#     8   8   8   8   8   8
#     4  10  20  34  57  86 123 163 198 259 313 367
#     4   9  20  36  56  81 121 160 216 248 302 383
#     4  10  23  36  57  93 121 151 205 261 302 372
#     4  10  22  41  67  90 119 167 200 245 320 378
#     4   9  21  43  60  87 127 155 204 251 301 383
#     4  10  20  38  57  85 117 164 204 261 310 360
#
# _framework density 27.016994
#
# number of rings (size 3 to 8) (size 9 to 14) (size 15 to 20)
#    0.000    2.333    0.000    1.000    4.667    2.000 
#    9.000    1.667    0.000    0.000    0.000    0.000 
#    0.000    0.000    0.000    0.000    0.000    0.000 
#
# Total GULP energy -133973.417581 kJ/mol
# GULP energy per Si atom -5582.225733 kJ/mol
# Density = 2.695550 g / cm^3
# Si number density = 27.016994 Si / 1000 Ang^3
#
#
#
# Elastic Constant Matrix: (Units=GPa)
#
#
# Indices 1 2 3 4 5 6 
#
# 1 131.4918 11.3169 26.6206 -0.0030 1.7330 -0.0114
# 2 11.3169 53.6958 39.0442 -0.0285 4.0707 -0.0069
# 3 26.6206 39.0442 173.0272 -0.0493 9.8200 -0.0214
# 4 -0.0030 -0.0285 -0.0493 44.5765 -0.0275 7.1070
# 5 1.7330 4.0707 9.8200 -0.0275 51.1223 0.0339
# 6 -0.0114 -0.0069 -0.0214 7.1070 0.0339 20.0108
#
#
#
# Elastic Compliance Matrix: (Units=1/GPa)
#
#
# Indices 1 2 3 4 5 6 
#
# 1 0.007888 -0.000933 -0.001003 -0.000002 0.000000 0.000004
# 2 -0.000933 0.022423 -0.004870 0.000008 -0.000818 0.000000
# 3 -0.001003 -0.004870 0.007086 0.000003 -0.000939 0.000006
# 4 -0.000002 0.000008 0.000003 0.023780 0.000017 -0.008446
# 5 0.000000 -0.000818 -0.000939 0.000017 0.019807 -0.000041
# 6 0.000004 0.000000 0.000006 -0.008446 -0.000041 0.052973
#
#
# Mechanical properties :
#
#
# Convention : Reuss Voigt Hill
#
# Bulk Modulus (GPa) = 42.04252 56.90870 49.47561
# Shear Modulus (GPa) = 32.15490 41.89079 37.02284
#
# Velocity S-wave (km/s) = 3.45363 3.94195 3.70585
# Velocity P-wave (km/s) = 5.61237 6.46749 6.05505
#
# Compressibility (1/GPa) = 0.02378544
#
# Stress axis : x y z
#
# Youngs Moduli (GPa) = 126.76805 44.59664 141.12382
#
# Poissons Ratio (x) = 0.04162 0.14155
# Poissons Ratio (y) = 0.11830 0.68725
# Poissons Ratio (z) = 0.12715 0.21718
#
# Static dielectric constant tensor:
#      x y z
#    x 2.160130 -0.000010 0.053420 
#    y -0.000010 2.285180 0.000060 
#    z 0.053420 0.000060 2.205600 
# 
# From -- ./inp_files/148680.got.cif
#   From: 2010.05.17/outbox.cif.g08.bks.cpg/sg15_75_cif.got.tgz:148680.got - 2010.06.03 18:47:42.
