data_PCOD9269800
_publ_section_title
;
Structure prediction by ZEFSAII (Michael W. Deem and Ramdas Pophale) SiO2 
 PCOD9269800
Probable space group: C 2/C
;
_chemical_formula_sum "Si O2"
_cell_formula_units_Z 40
_cell_length_a 30.274936
_cell_length_b 13.725711
_cell_length_c 18.962246
_cell_angle_alpha 90.000000
_cell_angle_beta 18.778622
_cell_angle_gamma 90.000000
_cell_volume 2536.562985
_symmetry_space_group_name_H-M "C 2/C"
_symmetry_group_IT_number 15
_symmetry_cell_setting 'monoclinic'
loop_
_space_group_symop_operation_xyz
x,y,z
-x,y,1/2-z
-x,-y,-z
x,-y,1/2+z
1/2+x,1/2+y,z
1/2-x,1/2+y,1/2-z
1/2-x,1/2-y,-z
1/2+x,1/2-y,1/2+z
loop_
_atom_site_type_symbol
_atom_site_label
_atom_site_fract_x
_atom_site_fract_y
_atom_site_fract_z
Si Si1 0.395167 0.386346 0.471802
Si Si2 0.353582 0.610818 0.509975
Si Si3 0.357538 0.260257 0.144727
Si Si4 0.992104 0.889932 0.484191
Si Si5 0.341386 0.230962 0.793509
O O1 0.500000 0.365248 0.250000
O O2 0.340249 0.496044 0.543502
O O3 0.271662 0.309667 0.658208
O O4 0.471142 0.385272 0.432531
O O5 0.500000 0.626410 0.250000
O O6 0.352819 0.669171 0.584367
O O7 0.234853 0.653722 0.640157
O O8 0.377977 0.328800 0.182684
O O9 0.502847 0.202699 0.921467
O O10 0.866977 0.831331 0.711148
O O11 0.000000 0.000000 0.500000
O O12 0.250000 0.250000 0.000000
#
# Coordination Sequence:
#
# PCOD9269800 Si02
#       5
#     8   8   8   8   8
#     4  11  23  37  58  82 114 154 190 226 280 343
#     4  11  19  35  60  84 111 149 189 228 282 341
#     4  10  20  36  59  79 114 147 184 236 276 328
#     4  10  20  37  59  83 110 151 186 228 282 339
#     4  10  20  34  61  87 109 141 189 239 284 330
#
# _framework density 15.76937
#
# number of rings (size 3 to 8) (size 9 to 14) (size 15 to 20)
#    1.200    0.400    6.000    0.000    2.800    1.600 
#    0.000    0.000    4.400    0.000    0.000    0.000 
#    0.000    0.000    0.000    0.000    0.000    0.000 
#
# Total GULP energy -111354.944193 kJ/mol
# GULP energy per Si atom -5567.747210 kJ/mol
# Density = 1.573348 g / cm^3
# Si number density = 15.769370 Si / 1000 Ang^3
#
#
#
# Elastic Constant Matrix: (Units=GPa)
#
#
# Indices 1 2 3 4 5 6 
#
# 1 145.2259 66.3750 57.7896 0.0000 7.6769 0.0000
# 2 66.3750 119.0690 68.0221 -0.0001 -0.3875 0.0000
# 3 57.7896 68.0221 89.0390 0.0000 6.6067 0.0000
# 4 0.0000 -0.0001 0.0000 30.1993 0.0000 -5.0570
# 5 7.6769 -0.3875 6.6067 0.0000 28.3929 0.0000
# 6 0.0000 0.0000 0.0000 -5.0570 0.0000 35.4804
#
#
#
# Elastic Compliance Matrix: (Units=1/GPa)
#
#
# Indices 1 2 3 4 5 6 
#
# 1 0.010063 -0.003487 -0.003726 0.000000 -0.001901 0.000000
# 2 -0.003487 0.016350 -0.010495 0.000000 0.003608 0.000000
# 3 -0.003726 -0.010495 0.021983 0.000000 -0.004251 0.000000
# 4 0.000000 0.000000 0.000000 0.033923 0.000000 0.004835
# 5 -0.001901 0.003608 -0.004251 0.000000 0.036772 0.000000
# 6 0.000000 0.000000 0.000000 0.004835 0.000000 0.028874
#
#
# Mechanical properties :
#
#
# Convention : Reuss Voigt Hill
#
# Bulk Modulus (GPa) = 77.04868 81.96748 79.50808
# Shear Modulus (GPa) = 26.63729 29.55768 28.09748
#
# Velocity S-wave (km/s) = 4.11442 4.33410 4.22569
# Velocity P-wave (km/s) = 8.45796 8.78280 8.62191
#
# Compressibility (1/GPa) = 0.01297881
#
# Stress axis : x y z
#
# Youngs Moduli (GPa) = 99.37598 61.16315 45.49055
#
# Poissons Ratio (x) = 0.21328 0.16950
# Poissons Ratio (y) = 0.34653 0.47742
# Poissons Ratio (z) = 0.37028 0.64191
#
# Static dielectric constant tensor:
#      x y z
#    x 1.535120 0.000000 -0.004630 
#    y 0.000000 1.504040 0.000000 
#    z -0.004630 0.000000 1.503430 
# 
# From -- ./inp_files/85705.got.cif
#   From: 2010.05.17/outbox.cif.g08.bks.cpg/sg15_43_cif.got.tgz:85705.got - 2010.06.03 18:47:42.
