data_PCOD9269890
_publ_section_title
;
Structure prediction by ZEFSAII (Michael W. Deem and Ramdas Pophale) SiO2 
 PCOD9269890
Probable space group: C 2/C
;
_chemical_formula_sum "Si O2"
_cell_formula_units_Z 48
_cell_length_a 5.108002
_cell_length_b 30.394329
_cell_length_c 14.264592
_cell_angle_alpha 90.000000
_cell_angle_beta 66.242447
_cell_angle_gamma 90.000000
_cell_volume 2026.967039
_symmetry_space_group_name_H-M "C 2/C"
_symmetry_group_IT_number 15
_symmetry_cell_setting 'monoclinic'
loop_
_space_group_symop_operation_xyz
x,y,z
-x,y,1/2-z
-x,-y,-z
x,-y,1/2+z
1/2+x,1/2+y,z
1/2-x,1/2+y,1/2-z
1/2-x,1/2-y,-z
1/2+x,1/2-y,1/2+z
loop_
_atom_site_type_symbol
_atom_site_label
_atom_site_fract_x
_atom_site_fract_y
_atom_site_fract_z
Si Si1 0.488084 0.804230 0.048037
Si Si2 0.069401 0.995251 0.836260
Si Si3 0.278559 0.267231 0.848141
Si Si4 0.000000 0.429311 0.250000
Si Si5 0.311937 0.051939 0.476039
Si Si6 0.000000 0.802275 0.250000
Si Si7 0.247748 0.393127 0.030231
O O1 0.554980 0.759304 0.094375
O O2 0.733125 0.841346 0.016022
O O3 0.218516 0.824368 0.144238
O O4 0.508540 0.790978 0.935722
O O5 0.234622 0.038377 0.777877
O O6 0.000000 0.970046 0.750000
O O7 0.280927 0.971082 0.878901
O O8 0.800020 0.014433 0.934413
O O9 0.500000 0.293863 0.750000
O O10 0.170018 0.228776 0.796507
O O11 0.061990 0.401810 0.149654
O O12 0.592506 0.077374 0.472029
O O13 0.060697 0.088388 0.505344
#
# Coordination Sequence:
#
# PCOD9269890 Si02
#       7
#     8   8   8   4   8   4   8
#     4  10  22  37  63  87 135 159 210 266 326 378
#     4  10  20  38  63  85 118 166 208 265 306 401
#     4   9  20  40  60  92 118 176 215 251 312 396
#     4  10  22  34  64  89 124 152 212 258 341 364
#     4  10  24  39  60  88 126 159 213 252 333 379
#     4  10  20  34  64  93 114 158 220 256 311 384
#     4  11  24  40  58  97 128 163 202 277 327 387
#
# _framework density 23.680700000000002
#
# number of rings (size 3 to 8) (size 9 to 14) (size 15 to 20)
#    0.000    2.000    1.667    0.500    8.167    3.333 
#    0.000    0.833    0.000    0.000    0.000    0.000 
#    0.000    0.000    0.000    0.000    0.000    0.000 
#
# Total GULP energy -133842.493765 kJ/mol
# GULP energy per Si atom -5576.770574 kJ/mol
# Density = 2.362680 g / cm^3
# Si number density = 23.680700 Si / 1000 Ang^3
#
#
#
# Elastic Constant Matrix: (Units=GPa)
#
#
# Indices 1 2 3 4 5 6 
#
# 1 59.9231 -1.8350 28.5421 0.0000 -2.0159 0.0000
# 2 -1.8350 50.9126 23.3087 0.0000 -7.8151 0.0000
# 3 28.5421 23.3087 139.6315 0.0000 13.1640 0.0000
# 4 0.0000 0.0000 0.0000 16.3404 0.0000 1.1097
# 5 -2.0159 -7.8151 13.1640 0.0000 38.0679 0.0000
# 6 0.0000 0.0000 0.0000 1.1097 0.0000 9.3382
#
#
#
# Elastic Compliance Matrix: (Units=1/GPa)
#
#
# Indices 1 2 3 4 5 6 
#
# 1 0.019199 0.003415 -0.004813 0.000000 0.003382 0.000000
# 2 0.003415 0.023181 -0.005203 0.000000 0.006739 0.000000
# 3 -0.004813 -0.005203 0.009447 0.000000 -0.004590 0.000000
# 4 0.000000 0.000000 0.000000 0.061696 0.000000 -0.007332
# 5 0.003382 0.006739 -0.004590 0.000000 0.029419 0.000000
# 6 0.000000 0.000000 0.000000 -0.007332 0.000000 0.107958
#
#
# Mechanical properties :
#
#
# Convention : Reuss Voigt Hill
#
# Bulk Modulus (GPa) = 25.89074 38.94429 32.41752
# Shear Modulus (GPa) = 18.05202 26.11272 22.08237
#
# Velocity S-wave (km/s) = 2.76399 3.32430 3.05701
# Velocity P-wave (km/s) = 4.59817 5.58712 5.11659
#
# Compressibility (1/GPa) = 0.03862385
#
# Stress axis : x y z
#
# Youngs Moduli (GPa) = 52.08585 43.13875 105.85540
#
# Poissons Ratio (x) = -0.14731 0.50952
# Poissons Ratio (y) = -0.17786 0.55076
# Poissons Ratio (z) = 0.25071 0.22445
#
# Static dielectric constant tensor:
#      x y z
#    x 2.021310 0.000000 -0.009550 
#    y 0.000000 1.875490 0.000000 
#    z -0.009550 0.000000 2.094520 
# 
# From -- ./inp_files/130327.got.cif
#   From: 2010.05.17/outbox.cif.g08.bks.cpg/sg15_66_cif.got.tgz:130327.got - 2010.06.03 18:47:42.
