data_PCOD9269252
_publ_section_title
;
Structure prediction by ZEFSAII (Michael W. Deem and Ramdas Pophale) SiO2 
 PCOD9269252
Probable space group: C 2/C
;
_chemical_formula_sum "Si O2"
_cell_formula_units_Z 64
_cell_length_a 10.004953
_cell_length_b 11.076445
_cell_length_c 27.681342
_cell_angle_alpha 90.000000
_cell_angle_beta 108.752668
_cell_angle_gamma 90.000000
_cell_volume 2904.782765
_symmetry_space_group_name_H-M "C 2/C"
_symmetry_group_IT_number 15
_symmetry_cell_setting 'monoclinic'
loop_
_space_group_symop_operation_xyz
x,y,z
-x,y,1/2-z
-x,-y,-z
x,-y,1/2+z
1/2+x,1/2+y,z
1/2-x,1/2+y,1/2-z
1/2-x,1/2-y,-z
1/2+x,1/2-y,1/2+z
loop_
_atom_site_type_symbol
_atom_site_label
_atom_site_fract_x
_atom_site_fract_y
_atom_site_fract_z
Si Si1 0.256243 0.621580 0.663014
Si Si2 0.623514 0.939571 0.575943
Si Si3 0.738583 0.252706 0.152083
Si Si4 0.987295 0.789749 0.608534
Si Si5 0.340012 0.090269 0.529272
Si Si6 0.799951 0.583519 0.270574
Si Si7 0.825195 0.999661 0.903999
Si Si8 0.118696 0.640487 0.323728
O O1 0.227971 0.534302 0.614314
O O2 0.120623 0.710629 0.643026
O O3 0.261336 0.534165 0.710094
O O4 0.386038 0.714342 0.676785
O O5 0.619391 0.825707 0.610933
O O6 0.682054 0.905652 0.530320
O O7 0.468943 0.995842 0.551897
O O8 0.751009 0.204328 0.207723
O O9 0.703090 0.390028 0.136165
O O10 0.879682 0.211558 0.140535
O O11 0.040612 0.917971 0.594073
O O12 0.907914 0.712869 0.557950
O O13 0.205287 0.053091 0.546237
O O14 0.789734 0.599400 0.212399
O O15 0.967505 0.580618 0.300547
O O16 0.696788 0.907346 0.879552
#
# Coordination Sequence:
#
# PCOD9269252 Si02
#       8
#     8   8   8   8   8   8   8   8
#     4   9  19  38  56  77 112 143 180 231 274 326
#     4   9  18  35  58  80 107 146 181 232 280 321
#     4  10  20  34  54  79 112 141 181 225 281 332
#     4   9  19  35  53  79 111 145 179 227 273 330
#     4   9  18  37  58  77 107 144 192 225 268 338
#     4  10  21  36  58  81 105 146 185 227 285 327
#     4  10  20  35  55  78 113 145 181 228 278 331
#     4  10  21  37  57  82 107 141 189 231 270 339
#
# _framework density 22.032627999999999
#
# number of rings (size 3 to 8) (size 9 to 14) (size 15 to 20)
#    0.000    2.500    0.000    3.000    1.750    4.000 
#    0.000   18.125    0.000    0.000    0.000    0.000 
#    0.000    0.000    0.000    0.000    0.000    0.000 
#
# Total GULP energy -178569.474560 kJ/mol
# GULP energy per Si atom -5580.296080 kJ/mol
# Density = 2.198248 g / cm^3
# Si number density = 22.032628 Si / 1000 Ang^3
#
#
#
# Elastic Constant Matrix: (Units=GPa)
#
#
# Indices 1 2 3 4 5 6 
#
# 1 47.2660 27.8128 4.2487 0.0000 -10.6218 0.0000
# 2 27.8128 106.5478 5.2664 0.0000 -13.6412 0.0000
# 3 4.2487 5.2664 75.8572 0.0000 -27.0423 0.0000
# 4 0.0000 0.0000 0.0000 20.2639 0.0000 -4.7470
# 5 -10.6218 -13.6412 -27.0423 0.0000 28.2537 0.0000
# 6 0.0000 0.0000 0.0000 -4.7470 0.0000 30.3166
#
#
#
# Elastic Compliance Matrix: (Units=1/GPa)
#
#
# Indices 1 2 3 4 5 6 
#
# 1 0.026472 -0.005834 0.002225 0.000000 0.009265 0.000000
# 2 -0.005834 0.011413 0.001088 0.000000 0.004358 0.000000
# 3 0.002225 0.001088 0.020443 0.000000 0.020929 0.000000
# 4 0.000000 0.000000 0.000000 0.051228 0.000000 0.008021
# 5 0.009265 0.004358 0.020929 0.000000 0.061013 0.000000
# 6 0.000000 0.000000 0.000000 0.008021 0.000000 0.034241
#
#
# Mechanical properties :
#
#
# Convention : Reuss Voigt Hill
#
# Bulk Modulus (GPa) = 18.76639 33.81408 26.29024
# Shear Modulus (GPa) = 21.96717 28.58972 25.27844
#
# Velocity S-wave (km/s) = 3.16100 3.60614 3.39088
# Velocity P-wave (km/s) = 4.67532 5.72010 5.22390
#
# Compressibility (1/GPa) = 0.05328674
#
# Stress axis : x y z
#
# Youngs Moduli (GPa) = 37.77616 87.62308 48.91550
#
# Poissons Ratio (x) = 0.51118 -0.10885
# Poissons Ratio (y) = 0.22038 -0.05323
# Poissons Ratio (z) = -0.08406 -0.09535
#
# Static dielectric constant tensor:
#      x y z
#    x 1.851700 0.000000 -0.004710 
#    y 0.000000 1.832330 0.000000 
#    z -0.004710 0.000000 1.788820 
# 
# From -- ./inp_files/292044.got.cif
#   From: 2010.05.17/outbox.cif.g08.bks.cpg/sg15_147_cif.got.tgz:292044.got - 2010.06.03 18:47:42.
