data_PCOD9269291
_publ_section_title
;
Structure prediction by ZEFSAII (Michael W. Deem and Ramdas Pophale) SiO2 
 PCOD9269291
Probable space group: C 2/C
;
_chemical_formula_sum "Si O2"
_cell_formula_units_Z 52
_cell_length_a 14.425309
_cell_length_b 24.813371
_cell_length_c 8.070616
_cell_angle_alpha 90.000000
_cell_angle_beta 83.198186
_cell_angle_gamma 90.000000
_cell_volume 2868.468606
_symmetry_space_group_name_H-M "C 2/C"
_symmetry_group_IT_number 15
_symmetry_cell_setting 'monoclinic'
loop_
_space_group_symop_operation_xyz
x,y,z
-x,y,1/2-z
-x,-y,-z
x,-y,1/2+z
1/2+x,1/2+y,z
1/2-x,1/2+y,1/2-z
1/2-x,1/2-y,-z
1/2+x,1/2-y,1/2+z
loop_
_atom_site_type_symbol
_atom_site_label
_atom_site_fract_x
_atom_site_fract_y
_atom_site_fract_z
Si Si1 0.279213 0.723143 0.754663
Si Si2 0.636979 0.967910 0.478936
Si Si3 0.000000 0.634535 0.250000
Si Si4 0.000000 0.790528 0.750000
Si Si5 0.814260 0.574725 0.211330
Si Si6 0.097883 0.277002 0.507889
Si Si7 0.803739 0.170799 0.404158
Si Si8 0.000000 0.464862 0.250000
O O1 0.364542 0.735924 0.859081
O O2 0.251762 0.780265 0.674680
O O3 0.298632 0.682462 0.601141
O O4 0.189777 0.706879 0.883507
O O5 0.699701 0.932930 0.588095
O O6 0.573865 0.936739 0.356660
O O7 0.688602 0.016530 0.375088
O O8 0.564599 0.998039 0.618913
O O9 0.919154 0.599483 0.180191
O O10 0.949829 0.673026 0.392486
O O11 0.090531 0.824466 0.681228
O O12 0.972112 0.752650 0.601690
O O13 0.744994 0.616043 0.140624
#
# Coordination Sequence:
#
# PCOD9269291 Si02
#       8
#     8   8   4   4   8   8   8   4
#     4   9  19  38  56  81 121 147 189 235 271 332
#     4   9  18  34  51  72 108 150 184 241 280 318
#     4  12  21  32  56  87 116 159 192 224 268 349
#     4  10  22  36  61  79 118 153 180 235 300 320
#     4  11  22  37  55  80 113 152 195 234 283 335
#     4  10  20  34  54  86 120 156 182 228 272 332
#     4  10  20  38  59  82 110 151 191 236 281 346
#     4   8  13  30  51  68 100 146 178 213 274 333
#
# _framework density 18.128140999999999
#
# number of rings (size 3 to 8) (size 9 to 14) (size 15 to 20)
#    0.000    2.154    1.538    3.692    4.308    0.000 
#    8.308    0.769    0.000    0.923    0.000    0.000 
#    0.000    0.000    0.000    0.000    0.000    0.000 
#
# Total GULP energy -145055.150101 kJ/mol
# GULP energy per Si atom -5579.044235 kJ/mol
# Density = 1.808688 g / cm^3
# Si number density = 18.128141 Si / 1000 Ang^3
#
#
#
# Elastic Constant Matrix: (Units=GPa)
#
#
# Indices 1 2 3 4 5 6 
#
# 1 73.1193 41.0808 32.7017 0.0000 24.6668 0.0000
# 2 41.0808 71.2800 41.1665 0.0000 8.8560 0.0000
# 3 32.7017 41.1665 111.2367 0.0000 26.0467 0.0000
# 4 0.0000 0.0000 0.0000 14.7670 0.0000 -0.4195
# 5 24.6668 8.8560 26.0467 0.0000 28.2779 0.0000
# 6 0.0000 0.0000 0.0000 -0.4195 0.0000 24.4023
#
#
#
# Elastic Compliance Matrix: (Units=1/GPa)
#
#
# Indices 1 2 3 4 5 6 
#
# 1 0.028701 -0.015155 0.002451 0.000000 -0.022547 0.000000
# 2 -0.015155 0.025854 -0.008048 0.000000 0.012536 0.000000
# 3 0.002451 -0.008048 0.014227 0.000000 -0.012721 0.000000
# 4 0.000000 0.000000 0.000000 0.067752 0.000000 0.001165
# 5 -0.022547 0.012536 -0.012721 0.000000 0.062823 0.000000
# 6 0.000000 0.000000 0.000000 0.001165 0.000000 0.041000
#
#
# Mechanical properties :
#
#
# Convention : Reuss Voigt Hill
#
# Bulk Modulus (GPa) = 36.66201 53.94821 45.30511
# Shear Modulus (GPa) = 17.18483 22.86858 20.02670
#
# Velocity S-wave (km/s) = 3.08224 3.55561 3.32735
# Velocity P-wave (km/s) = 5.73887 6.83231 6.30932
#
# Compressibility (1/GPa) = 0.02727619
#
# Stress axis : x y z
#
# Youngs Moduli (GPa) = 34.84150 38.67841 70.29081
#
# Poissons Ratio (x) = 0.58619 -0.17225
# Poissons Ratio (y) = 0.52804 0.56571
# Poissons Ratio (z) = -0.08538 0.31129
#
# Static dielectric constant tensor:
#      x y z
#    x 1.622220 0.000000 0.018690 
#    y 0.000000 1.624620 0.000000 
#    z 0.018690 0.000000 1.678770 
# 
# From -- ./inp_files/41727.got.cif
#   From: 2010.05.17/outbox.cif.g08.bks.cpg/sg15_21_cif.got.tgz:41727.got - 2010.06.03 18:47:42.
