data_PCOD9269309
_publ_section_title
;
Structure prediction by ZEFSAII (Michael W. Deem and Ramdas Pophale) SiO2 
 PCOD9269309
Probable space group: C 2/C
;
_chemical_formula_sum "Si O2"
_cell_formula_units_Z 56
_cell_length_a 17.812847
_cell_length_b 17.745590
_cell_length_c 11.051934
_cell_angle_alpha 90.000000
_cell_angle_beta 36.733445
_cell_angle_gamma 90.000000
_cell_volume 2089.444443
_symmetry_space_group_name_H-M "C 2/C"
_symmetry_group_IT_number 15
_symmetry_cell_setting 'monoclinic'
loop_
_space_group_symop_operation_xyz
x,y,z
-x,y,1/2-z
-x,-y,-z
x,-y,1/2+z
1/2+x,1/2+y,z
1/2-x,1/2+y,1/2-z
1/2-x,1/2-y,-z
1/2+x,1/2-y,1/2+z
loop_
_atom_site_type_symbol
_atom_site_label
_atom_site_fract_x
_atom_site_fract_y
_atom_site_fract_z
Si Si1 0.265369 0.338564 0.343023
Si Si2 0.147973 0.464714 0.959375
Si Si3 0.265996 0.159854 0.992467
Si Si4 0.527355 0.662649 0.429289
Si Si5 0.454413 0.841858 0.033204
Si Si6 0.135248 0.183702 0.531401
Si Si7 0.368631 0.969038 0.772883
O O1 0.129933 0.362963 0.474616
O O2 0.235600 0.248492 0.372365
O O3 0.310456 0.355315 0.420083
O O4 0.383011 0.359266 0.107821
O O5 0.205806 0.486878 0.754928
O O6 0.163732 0.377480 0.982059
O O7 0.196051 0.508395 0.017079
O O8 0.920558 0.613389 0.163278
O O9 0.355395 0.136506 0.767186
O O10 0.250000 0.250000 0.000000
O O11 0.120182 0.138906 0.202792
O O12 0.524528 0.753858 0.460306
O O13 0.594846 0.636552 0.466882
O O14 0.502621 0.987061 0.121158
O O15 0.000000 0.217847 0.750000
#
# Coordination Sequence:
#
# PCOD9269309 Si02
#       7
#     8   8   8   8   8   8   8
#     4   9  17  32  50  76 121 163 209 273 327 401
#     4  10  21  42  63  93 134 172 233 279 348 408
#     4  10  21  37  60  87 125 174 220 280 338 406
#     4   9  19  34  53  84 123 173 216 271 344 402
#     4  10  20  34  54  89 126 163 224 270 336 411
#     4   8  15  31  49  72 114 167 207 258 334 394
#     4  10  21  40  66  97 134 185 221 296 345 402
#
# _framework density 26.801382
#
# number of rings (size 3 to 8) (size 9 to 14) (size 15 to 20)
#    0.000    2.571    0.000    2.571    0.000    4.000 
#   33.429    5.714    0.000    0.857    0.000    2.000 
#    0.000    0.000    0.000    0.000    0.000    0.000 
#
# Total GULP energy -155988.586062 kJ/mol
# GULP energy per Si atom -5571.020931 kJ/mol
# Density = 2.674038 g / cm^3
# Si number density = 26.801382 Si / 1000 Ang^3
#
#
#
# Elastic Constant Matrix: (Units=GPa)
#
#
# Indices 1 2 3 4 5 6 
#
# 1 125.6641 46.1656 38.7216 0.0000 24.8804 0.0000
# 2 46.1656 106.6151 14.2371 0.0000 -3.9505 0.0000
# 3 38.7216 14.2371 151.2521 0.0000 1.8037 0.0000
# 4 0.0000 0.0000 0.0000 27.3482 0.0000 -10.4324
# 5 24.8804 -3.9505 1.8037 0.0000 53.7606 0.0000
# 6 0.0000 0.0000 0.0000 -10.4324 0.0000 41.9188
#
#
#
# Elastic Compliance Matrix: (Units=1/GPa)
#
#
# Indices 1 2 3 4 5 6 
#
# 1 0.011644 -0.004925 -0.002450 0.000000 -0.005669 0.000000
# 2 -0.004925 0.011611 0.000131 0.000000 0.003128 0.000000
# 3 -0.002450 0.000131 0.007216 0.000000 0.000901 0.000000
# 4 0.000000 0.000000 0.000000 0.040401 0.000000 0.010055
# 5 -0.005669 0.003128 0.000901 0.000000 0.021424 0.000000
# 6 0.000000 0.000000 0.000000 0.010055 0.000000 0.026358
#
#
# Mechanical properties :
#
#
# Convention : Reuss Voigt Hill
#
# Bulk Modulus (GPa) = 62.57010 64.64222 63.60616
# Shear Modulus (GPa) = 36.10912 43.56598 39.83755
#
# Velocity S-wave (km/s) = 3.67452 4.03614 3.85957
# Velocity P-wave (km/s) = 6.43423 6.77436 6.60648
#
# Compressibility (1/GPa) = 0.01598207
#
# Stress axis : x y z
#
# Youngs Moduli (GPa) = 85.87913 86.12833 138.58843
#
# Poissons Ratio (x) = 0.42418 0.33952
# Poissons Ratio (y) = 0.42296 -0.01811
# Poissons Ratio (z) = 0.21039 -0.01125
#
# Static dielectric constant tensor:
#      x y z
#    x 2.144300 0.000000 0.122580 
#    y 0.000000 2.396250 0.000000 
#    z 0.122580 0.000000 2.223090 
# 
# From -- ./inp_files/107915.got.cif
#   From: 2010.05.17/outbox.cif.g08.bks.cpg/sg15_54_cif.got.tgz:107915.got - 2010.06.03 18:47:42.
