data_PCOD9269844
_publ_section_title
;
Structure prediction by ZEFSAII (Michael W. Deem and Ramdas Pophale) SiO2 
 PCOD9269844
Probable space group: C 2/C
;
_chemical_formula_sum "Si O2"
_cell_formula_units_Z 44
_cell_length_a 12.349880
_cell_length_b 16.864242
_cell_length_c 10.893233
_cell_angle_alpha 90.000000
_cell_angle_beta 71.300154
_cell_angle_gamma 90.000000
_cell_volume 2148.983858
_symmetry_space_group_name_H-M "C 2/C"
_symmetry_group_IT_number 15
_symmetry_cell_setting 'monoclinic'
loop_
_space_group_symop_operation_xyz
x,y,z
-x,y,1/2-z
-x,-y,-z
x,-y,1/2+z
1/2+x,1/2+y,z
1/2-x,1/2+y,1/2-z
1/2-x,1/2-y,-z
1/2+x,1/2-y,1/2+z
loop_
_atom_site_type_symbol
_atom_site_label
_atom_site_fract_x
_atom_site_fract_y
_atom_site_fract_z
Si Si1 0.744733 0.157020 0.352156
Si Si2 0.114198 0.476238 0.035226
Si Si3 0.437185 0.729870 0.445350
Si Si4 0.000000 0.642988 0.750000
Si Si5 0.196635 0.645819 0.084967
Si Si6 0.075908 0.804812 0.107929
O O1 0.700650 0.071643 0.416024
O O2 0.653180 0.221077 0.438175
O O3 0.863917 0.182922 0.370855
O O4 0.742532 0.158428 0.206331
O O5 0.091108 0.415502 0.156319
O O6 0.157145 0.557231 0.077288
O O7 0.000000 0.500000 0.000000
O O8 0.520573 0.795354 0.353122
O O9 0.508036 0.674837 0.509366
O O10 0.095438 0.709560 0.104767
O O11 0.296466 0.662846 0.950392
O O12 0.000000 0.829682 0.250000
#
# Coordination Sequence:
#
# PCOD9269844 Si02
#       6
#     8   8   8   4   8   8
#     4  10  21  38  62  93 126 166 208 260 311 379
#     4  11  23  38  61  96 130 161 207 266 320 373
#     4  10  20  38  62  92 126 162 211 259 315 371
#     4  10  20  34  62  92 120 158 194 260 318 362
#     4  11  23  40  65  94 126 170 214 254 325 376
#     4  11  23  41  65  91 127 170 210 267 309 375
#
# _framework density 20.474795
#
# number of rings (size 3 to 8) (size 9 to 14) (size 15 to 20)
#    0.000    1.455    1.818    4.364    1.273    1.455 
#    6.545    0.909    2.000    0.000    0.000    0.000 
#    0.000    0.000    0.000    0.000    0.000    0.000 
#
# Total GULP energy -122785.728252 kJ/mol
# GULP energy per Si atom -5581.169466 kJ/mol
# Density = 2.042819 g / cm^3
# Si number density = 20.474795 Si / 1000 Ang^3
#
#
#
# Elastic Constant Matrix: (Units=GPa)
#
#
# Indices 1 2 3 4 5 6 
#
# 1 84.6726 23.7127 29.9793 0.0000 13.7926 0.0000
# 2 23.7127 73.6181 23.6823 0.0000 5.6304 0.0000
# 3 29.9793 23.6823 118.0054 0.0000 -4.2116 0.0000
# 4 0.0000 0.0000 0.0000 23.0894 0.0000 -1.8224
# 5 13.7926 5.6304 -4.2116 0.0000 28.4662 0.0000
# 6 0.0000 0.0000 0.0000 -1.8224 0.0000 22.6621
#
#
#
# Elastic Compliance Matrix: (Units=1/GPa)
#
#
# Indices 1 2 3 4 5 6 
#
# 1 0.015101 -0.003204 -0.003450 0.000000 -0.007193 0.000000
# 2 -0.003204 0.015520 -0.002367 0.000000 -0.001868 0.000000
# 3 -0.003450 -0.002367 0.009955 0.000000 0.003613 0.000000
# 4 0.000000 0.000000 0.000000 0.043587 0.000000 0.003505
# 5 -0.007193 -0.001868 0.003613 0.000000 0.039519 0.000000
# 6 0.000000 0.000000 0.000000 0.003505 0.000000 0.044408
#
#
# Mechanical properties :
#
#
# Convention : Reuss Voigt Hill
#
# Bulk Modulus (GPa) = 44.38005 47.89385 46.13695
# Shear Modulus (GPa) = 25.82071 28.10499 26.96285
#
# Velocity S-wave (km/s) = 3.55505 3.70897 3.63282
# Velocity P-wave (km/s) = 6.21077 6.46408 6.33869
#
# Compressibility (1/GPa) = 0.02253265
#
# Stress axis : x y z
#
# Youngs Moduli (GPa) = 66.22171 64.43287 100.45483
#
# Poissons Ratio (x) = 0.20644 0.34658
# Poissons Ratio (y) = 0.21217 0.23781
# Poissons Ratio (z) = 0.22847 0.15254
#
# Static dielectric constant tensor:
#      x y z
#    x 1.745980 0.000000 -0.012090 
#    y 0.000000 1.704540 0.000000 
#    z -0.012090 0.000000 1.767270 
# 
# From -- ./inp_files/87172.got.cif
#   From: 2010.05.17/outbox.cif.g08.bks.cpg/sg15_44_cif.got.tgz:87172.got - 2010.06.03 18:47:42.
