data_PCOD9269249
_publ_section_title
;
Structure prediction by ZEFSAII (Michael W. Deem and Ramdas Pophale) SiO2 
 PCOD9269249
Probable space group: C 2/C
;
_chemical_formula_sum "Si O2"
_cell_formula_units_Z 48
_cell_length_a 17.037093
_cell_length_b 23.186822
_cell_length_c 16.775654
_cell_angle_alpha 90.000000
_cell_angle_beta 163.067310
_cell_angle_gamma 90.000000
_cell_volume 1930.097354
_symmetry_space_group_name_H-M "C 2/C"
_symmetry_group_IT_number 15
_symmetry_cell_setting 'monoclinic'
loop_
_space_group_symop_operation_xyz
x,y,z
-x,y,1/2-z
-x,-y,-z
x,-y,1/2+z
1/2+x,1/2+y,z
1/2-x,1/2+y,1/2-z
1/2-x,1/2-y,-z
1/2+x,1/2-y,1/2+z
loop_
_atom_site_type_symbol
_atom_site_label
_atom_site_fract_x
_atom_site_fract_y
_atom_site_fract_z
Si Si1 0.174168 0.214493 0.670163
Si Si2 0.535954 0.095238 0.672547
Si Si3 0.745694 0.540862 0.765367
Si Si4 0.501361 0.334290 0.834421
Si Si5 0.952402 0.792882 0.286901
Si Si6 0.281148 0.972779 0.477706
O O1 0.061962 0.180014 0.638546
O O2 0.986622 0.272300 0.489429
O O3 0.115652 0.196308 0.523174
O O4 0.691053 0.089490 0.738304
O O5 0.288547 0.139223 0.427479
O O6 0.414478 0.034025 0.581194
O O7 0.773995 0.115856 0.962006
O O8 0.500000 0.500000 0.500000
O O9 0.731051 0.557292 0.843770
O O10 0.000000 0.500000 0.000000
O O11 0.500000 0.300031 0.750000
O O12 0.000000 0.827092 0.250000
O O13 0.181185 0.743866 0.513303
O O14 0.000000 0.980540 0.250000
O O15 0.500000 0.944874 0.750000
#
# Coordination Sequence:
#
# PCOD9269249 Si02
#       6
#     8   8   8   8   8   8
#     4  10  21  37  55  78 108 140 180 229 278 331
#     4  11  22  37  54  78 111 143 186 233 270 319
#     4  10  20  34  54  79 107 142 177 219 275 327
#     4  12  24  36  55  79 107 148 188 229 283 329
#     4   8  14  27  50  76  97 120 157 210 265 315
#     4  11  20  33  56  84 111 140 182 230 275 325
#
# _framework density 24.869212000000001
#
# number of rings (size 3 to 8) (size 9 to 14) (size 15 to 20)
#    0.000    1.667    0.000    8.000    0.000    0.667 
#    0.000    0.000    0.000    3.000    0.000    0.000 
#    0.000    0.000    0.000    0.000    0.000    0.000 
#
# Total GULP energy -134032.449216 kJ/mol
# GULP energy per Si atom -5584.685384 kJ/mol
# Density = 2.481261 g / cm^3
# Si number density = 24.869212 Si / 1000 Ang^3
#
#
#
# Elastic Constant Matrix: (Units=GPa)
#
#
# Indices 1 2 3 4 5 6 
#
# 1 211.2835 31.2594 28.9581 -0.0003 -26.3015 -0.0012
# 2 31.2594 22.3898 3.1282 -0.0016 -0.8985 -0.0008
# 3 28.9581 3.1282 179.1545 -0.0046 16.6348 -0.0018
# 4 -0.0003 -0.0016 -0.0046 27.0543 -0.0027 -5.7119
# 5 -26.3015 -0.8985 16.6348 -0.0027 51.1032 -0.0012
# 6 -0.0012 -0.0008 -0.0018 -5.7119 -0.0012 30.6329
#
#
#
# Elastic Compliance Matrix: (Units=1/GPa)
#
#
# Indices 1 2 3 4 5 6 
#
# 1 0.006705 -0.009035 -0.001270 0.000000 0.003706 0.000000
# 2 -0.009035 0.057005 0.000829 0.000003 -0.003918 0.000002
# 3 -0.001270 0.000829 0.006014 0.000001 -0.002597 0.000000
# 4 0.000000 0.000003 0.000001 0.038477 0.000002 0.007175
# 5 0.003706 -0.003918 -0.002597 0.000002 0.022252 0.000001
# 6 0.000000 0.000002 0.000000 0.007175 0.000001 0.033982
#
#
# Mechanical properties :
#
#
# Convention : Reuss Voigt Hill
#
# Bulk Modulus (GPa) = 19.69645 59.94656 39.82150
# Shear Modulus (GPa) = 24.96114 45.05687 35.00901
#
# Velocity S-wave (km/s) = 3.17155 4.26109 3.75604
# Velocity P-wave (km/s) = 4.62048 6.95458 5.90403
#
# Compressibility (1/GPa) = 0.05077058
#
# Stress axis : x y z
#
# Youngs Moduli (GPa) = 149.14067 17.54245 166.28692
#
# Poissons Ratio (x) = 0.15850 0.21120
# Poissons Ratio (y) = 1.34750 -0.13782
# Poissons Ratio (z) = 0.18942 -0.01454
#
# Static dielectric constant tensor:
#      x y z
#    x 2.165940 0.000000 -0.099460 
#    y 0.000000 2.053730 0.000000 
#    z -0.099460 0.000000 1.943830 
# 
# From -- ./inp_files/157732.got.cif
#   From: 2010.05.17/outbox.cif.g08.bks.cpg/sg15_79_cif.got.tgz:157732.got - 2010.06.03 18:47:42.
