data_PCOD9269171
_publ_section_title
;
Structure prediction by ZEFSAII (Michael W. Deem and Ramdas Pophale) SiO2 
 PCOD9269171
Probable space group: C 2/C
;
_chemical_formula_sum "Si O2"
_cell_formula_units_Z 56
_cell_length_a 14.366823
_cell_length_b 24.466154
_cell_length_c 9.702140
_cell_angle_alpha 90.000000
_cell_angle_beta 64.162102
_cell_angle_gamma 90.000000
_cell_volume 3069.384556
_symmetry_space_group_name_H-M "C 2/C"
_symmetry_group_IT_number 15
_symmetry_cell_setting 'monoclinic'
loop_
_space_group_symop_operation_xyz
x,y,z
-x,y,1/2-z
-x,-y,-z
x,-y,1/2+z
1/2+x,1/2+y,z
1/2-x,1/2+y,1/2-z
1/2-x,1/2-y,-z
1/2+x,1/2-y,1/2+z
loop_
_atom_site_type_symbol
_atom_site_label
_atom_site_fract_x
_atom_site_fract_y
_atom_site_fract_z
Si Si1 0.275879 0.686865 0.965820
Si Si2 0.665134 0.108596 0.834393
Si Si3 0.825434 0.480776 0.933914
Si Si4 0.500000 0.932304 0.250000
Si Si5 0.757503 0.898095 0.719750
Si Si6 0.008995 0.935059 0.975989
Si Si7 0.198045 0.919040 0.516716
Si Si8 0.500000 0.361534 0.250000
O O1 0.200695 0.660564 0.898921
O O2 0.395113 0.673199 0.846072
O O3 0.250000 0.750000 0.000000
O O4 0.254102 0.654189 0.122463
O O5 0.555297 0.104916 0.828669
O O6 0.748270 0.098642 0.660160
O O7 0.665008 0.058845 0.943058
O O8 0.816610 0.443637 0.802205
O O9 0.914646 0.525926 0.865367
O O10 0.722287 0.516513 0.017738
O O11 0.747015 0.889630 0.889539
O O12 0.873474 0.921634 0.635541
O O13 0.984432 0.901708 0.130896
O O14 0.923960 0.913916 0.922398
O O15 0.000000 0.000000 0.000000
#
# Coordination Sequence:
#
# PCOD9269171 Si02
#       8
#     8   8   8   4   8   8   8   4
#     4  10  22  45  66  80 109 154 206 257 303 350
#     4  10  21  37  58  84 116 157 196 240 286 344
#     4  10  20  34  52  81 121 162 192 225 279 356
#     4  10  20  34  57  82 121 156 194 240 284 342
#     4  10  22  34  53  86 117 150 197 232 284 354
#     4  11  21  29  54  87 128 161 180 222 295 371
#     4  11  19  32  52  86 126 150 183 233 288 356
#     4  10  22  40  59  92 117 154 204 246 298 370
#
# _framework density 18.244700999999999
#
# number of rings (size 3 to 8) (size 9 to 14) (size 15 to 20)
#    0.000    1.714    2.857    2.571    2.000    1.143 
#    0.000    6.429    6.286    0.000    0.000    0.000 
#    0.000    0.000    0.000    0.000    0.000    0.000 
#
# Total GULP energy -156194.928153 kJ/mol
# GULP energy per Si atom -5578.390291 kJ/mol
# Density = 1.820318 g / cm^3
# Si number density = 18.244701 Si / 1000 Ang^3
#
#
#
# Elastic Constant Matrix: (Units=GPa)
#
#
# Indices 1 2 3 4 5 6 
#
# 1 120.9088 56.5799 44.0229 0.0000 22.8263 0.0000
# 2 56.5799 122.8889 35.9861 0.0000 14.1375 0.0000
# 3 44.0229 35.9861 87.1700 0.0000 25.5678 0.0000
# 4 0.0000 0.0000 0.0000 6.0881 0.0000 -4.4488
# 5 22.8263 14.1375 25.5678 0.0000 34.6987 0.0000
# 6 0.0000 0.0000 0.0000 -4.4488 0.0000 18.2378
#
#
#
# Elastic Compliance Matrix: (Units=1/GPa)
#
#
# Indices 1 2 3 4 5 6 
#
# 1 0.012156 -0.004193 -0.003270 0.000000 -0.003878 0.000000
# 2 -0.004193 0.010743 -0.002351 0.000000 0.000113 0.000000
# 3 -0.003270 -0.002351 0.016816 0.000000 -0.009282 0.000000
# 4 0.000000 0.000000 0.000000 0.199884 0.000000 0.048758
# 5 -0.003878 0.000113 -0.009282 0.000000 0.038164 0.000000
# 6 0.000000 0.000000 0.000000 0.048758 0.000000 0.066725
#
#
# Mechanical properties :
#
#
# Convention : Reuss Voigt Hill
#
# Bulk Modulus (GPa) = 49.78282 67.12729 58.45506
# Shear Modulus (GPa) = 13.48391 24.76349 19.12370
#
# Velocity S-wave (km/s) = 2.72151 3.68815 3.24107
# Velocity P-wave (km/s) = 6.10090 7.41682 6.79081
#
# Compressibility (1/GPa) = 0.02008725
#
# Stress axis : x y z
#
# Youngs Moduli (GPa) = 82.26583 93.08183 59.46543
#
# Poissons Ratio (x) = 0.39027 0.19448
# Poissons Ratio (y) = 0.34492 0.13979
# Poissons Ratio (z) = 0.26905 0.21882
#
# Static dielectric constant tensor:
#      x y z
#    x 1.679920 0.000000 0.004390 
#    y 0.000000 1.605600 0.000000 
#    z 0.004390 0.000000 1.714190 
# 
# From -- ./inp_files/42150.got.cif
#   From: 2010.05.17/outbox.cif.g08.bks.cpg/sg15_22_cif.got.tgz:42150.got - 2010.06.03 18:47:42.
