data_PCOD9269401
_publ_section_title
;
Structure prediction by ZEFSAII (Michael W. Deem and Ramdas Pophale) SiO2 
 PCOD9269401
Probable space group: C 2/C
;
_chemical_formula_sum "Si O2"
_cell_formula_units_Z 56
_cell_length_a 19.146931
_cell_length_b 8.004514
_cell_length_c 22.518709
_cell_angle_alpha 90.000000
_cell_angle_beta 52.672114
_cell_angle_gamma 90.000000
_cell_volume 2744.367273
_symmetry_space_group_name_H-M "C 2/C"
_symmetry_group_IT_number 15
_symmetry_cell_setting 'monoclinic'
loop_
_space_group_symop_operation_xyz
x,y,z
-x,y,1/2-z
-x,-y,-z
x,-y,1/2+z
1/2+x,1/2+y,z
1/2-x,1/2+y,1/2-z
1/2-x,1/2-y,-z
1/2+x,1/2-y,1/2+z
loop_
_atom_site_type_symbol
_atom_site_label
_atom_site_fract_x
_atom_site_fract_y
_atom_site_fract_z
Si Si1 0.761854 0.304793 0.338663
Si Si2 0.890509 0.340537 0.452824
Si Si3 0.587607 0.320229 0.007436
Si Si4 0.273536 0.471819 0.016487
Si Si5 0.636642 0.978609 0.916579
Si Si6 0.581444 0.833881 0.328868
Si Si7 0.091914 0.027954 0.886062
O O1 0.758284 0.403755 0.402677
O O2 0.854007 0.333581 0.259858
O O3 0.684703 0.376816 0.335369
O O4 0.731920 0.111792 0.364590
O O5 0.812139 0.468925 0.479730
O O6 0.844838 0.166860 0.459746
O O7 0.911511 0.347350 0.513092
O O8 0.978946 0.369314 0.371885
O O9 0.668408 0.364282 0.008402
O O10 0.610590 0.148109 0.964001
O O11 0.589830 0.461365 0.954877
O O12 0.490599 0.349920 0.084120
O O13 0.611301 0.030017 0.862921
O O14 0.586522 0.643623 0.351823
#
# Coordination Sequence:
#
# PCOD9269401 Si02
#       7
#     8   8   8   8   8   8   8
#     4  10  21  34  53  79 110 145 183 227 274 339
#     4  10  20  34  56  81 107 142 186 229 263 328
#     4   9  17  32  55  75 105 138 175 228 272 316
#     4   9  19  37  54  78 108 144 187 221 271 327
#     4  10  22  33  56  84 109 137 186 233 274 320
#     4  11  20  34  53  82 110 144 178 229 285 330
#     4   9  18  31  50  77 105 140 173 220 281 320
#
# _framework density 20.405432000000001
#
# number of rings (size 3 to 8) (size 9 to 14) (size 15 to 20)
#    0.000    2.286    1.429    1.286    8.000    1.143 
#    0.000    0.000    0.000    0.000    0.000    0.000 
#    0.000    0.000    0.000    0.000    0.000    0.000 
#
# Total GULP energy -155929.125547 kJ/mol
# GULP energy per Si atom -5568.897341 kJ/mol
# Density = 2.035899 g / cm^3
# Si number density = 20.405432 Si / 1000 Ang^3
#
#
#
# Elastic Constant Matrix: (Units=GPa)
#
#
# Indices 1 2 3 4 5 6 
#
# 1 66.5990 14.2785 29.0838 -0.0001 -14.8948 0.0004
# 2 14.2785 74.7616 3.5098 -0.0001 -5.3222 0.0007
# 3 29.0838 3.5098 113.8976 0.0000 -25.9178 0.0001
# 4 -0.0001 -0.0001 0.0000 13.4903 0.0000 7.0729
# 5 -14.8948 -5.3222 -25.9178 0.0000 19.4118 -0.0001
# 6 0.0004 0.0007 0.0001 7.0729 -0.0001 15.2685
#
#
#
# Elastic Compliance Matrix: (Units=1/GPa)
#
#
# Indices 1 2 3 4 5 6 
#
# 1 0.019025 -0.002760 -0.002332 0.000000 0.010728 0.000000
# 2 -0.002760 0.014073 0.000958 0.000001 0.003020 -0.000001
# 3 -0.002332 0.000958 0.012925 0.000000 0.015731 0.000000
# 4 0.000000 0.000001 0.000000 0.097906 0.000000 -0.045354
# 5 0.010728 0.003020 0.015731 0.000000 0.081577 0.000000
# 6 0.000000 -0.000001 0.000000 -0.045354 0.000000 0.086504
#
#
# Mechanical properties :
#
#
# Convention : Reuss Voigt Hill
#
# Bulk Modulus (GPa) = 26.48615 38.77804 32.63209
# Shear Modulus (GPa) = 15.02120 23.52654 19.27387
#
# Velocity S-wave (km/s) = 2.71613 3.39920 3.07668
# Velocity P-wave (km/s) = 4.77960 5.86951 5.35237
#
# Compressibility (1/GPa) = 0.03775558
#
# Stress axis : x y z
#
# Youngs Moduli (GPa) = 52.56371 71.05786 77.36759
#
# Poissons Ratio (x) = 0.19614 0.18040
# Poissons Ratio (y) = 0.14509 -0.07415
# Poissons Ratio (z) = 0.12257 -0.06810
#
# Static dielectric constant tensor:
#      x y z
#    x 1.798000 0.000000 -0.019770 
#    y 0.000000 1.807770 0.000000 
#    z -0.019770 0.000000 1.727040 
# 
# From -- ./inp_files/298494.got.cif
#   From: 2010.05.17/outbox.cif.g08.bks.cpg/sg15_150_cif.got.tgz:298494.got - 2010.06.03 18:47:42.
