data_PCOD9269266
_publ_section_title
;
Structure prediction by ZEFSAII (Michael W. Deem and Ramdas Pophale) SiO2 
 PCOD9269266
Probable space group: C 2/C
;
_chemical_formula_sum "Si O2"
_cell_formula_units_Z 56
_cell_length_a 30.836917
_cell_length_b 8.910097
_cell_length_c 15.032891
_cell_angle_alpha 90.000000
_cell_angle_beta 132.337186
_cell_angle_gamma 90.000000
_cell_volume 3053.194060
_symmetry_space_group_name_H-M "C 2/C"
_symmetry_group_IT_number 15
_symmetry_cell_setting 'monoclinic'
loop_
_space_group_symop_operation_xyz
x,y,z
-x,y,1/2-z
-x,-y,-z
x,-y,1/2+z
1/2+x,1/2+y,z
1/2-x,1/2+y,1/2-z
1/2-x,1/2-y,-z
1/2+x,1/2-y,1/2+z
loop_
_atom_site_type_symbol
_atom_site_label
_atom_site_fract_x
_atom_site_fract_y
_atom_site_fract_z
Si Si1 0.476783 0.982180 0.068314
Si Si2 0.397565 0.049352 0.706257
Si Si3 0.880646 0.309539 0.373621
Si Si4 0.617973 0.771719 0.495827
Si Si5 0.304470 0.185360 0.018986
Si Si6 0.843975 0.936684 0.937427
Si Si7 0.216523 0.504700 0.182813
O O1 0.534745 0.002361 0.206602
O O2 0.441679 0.827851 0.038165
O O3 0.425668 0.105699 0.002285
O O4 0.500000 0.000000 0.000000
O O5 0.393982 0.147896 0.791056
O O6 0.384237 0.152598 0.603835
O O7 0.351766 0.911017 0.641258
O O8 0.878650 0.140679 0.403859
O O9 0.817411 0.381237 0.305892
O O10 0.627241 0.595410 0.501079
O O11 0.674020 0.849987 0.620973
O O12 0.250000 0.250000 0.000000
O O13 0.337011 0.319406 0.009622
O O14 0.280211 0.069658 0.910475
O O15 0.778419 0.962076 0.810855
#
# Coordination Sequence:
#
# PCOD9269266 Si02
#       7
#     8   8   8   8   8   8   8
#     4   9  19  38  59  75 100 145 186 213 261 336
#     4  10  20  37  57  77 107 144 181 223 272 329
#     4   9  19  36  57  79 102 142 189 220 263 332
#     4  10  20  34  54  81 109 140 179 227 276 318
#     4  10  21  35  56  85 110 142 187 229 272 328
#     4  11  21  35  53  81 114 142 178 230 278 322
#     4   9  19  35  54  74 109 151 178 210 269 337
#
# _framework density 18.341448
#
# number of rings (size 3 to 8) (size 9 to 14) (size 15 to 20)
#    0.000    2.286    0.000    3.857    0.000    3.429 
#    0.000    9.286    0.000    0.000    0.000    0.000 
#    0.000    0.000    0.000    0.000    0.000    0.000 
#
# Total GULP energy -156055.297998 kJ/mol
# GULP energy per Si atom -5573.403500 kJ/mol
# Density = 1.829970 g / cm^3
# Si number density = 18.341448 Si / 1000 Ang^3
#
#
#
# Elastic Constant Matrix: (Units=GPa)
#
#
# Indices 1 2 3 4 5 6 
#
# 1 95.7070 42.6402 28.8973 0.0000 1.5093 0.0000
# 2 42.6402 119.1144 38.8790 0.0000 5.7610 0.0000
# 3 28.8973 38.8790 83.2125 0.0000 17.4614 0.0000
# 4 0.0000 0.0000 0.0000 12.7917 0.0000 -6.5125
# 5 1.5093 5.7610 17.4614 0.0000 31.7961 0.0000
# 6 0.0000 0.0000 0.0000 -6.5125 0.0000 21.2830
#
#
#
# Elastic Compliance Matrix: (Units=1/GPa)
#
#
# Indices 1 2 3 4 5 6 
#
# 1 0.013033 -0.003719 -0.003164 0.000000 0.001793 0.000000
# 2 -0.003719 0.010987 -0.003912 0.000000 0.000334 0.000000
# 3 -0.003164 -0.003912 0.016687 0.000000 -0.008305 0.000000
# 4 0.000000 0.000000 0.000000 0.092602 0.000000 0.028336
# 5 0.001793 0.000334 -0.008305 0.000000 0.035866 0.000000
# 6 0.000000 0.000000 0.000000 0.028336 0.000000 0.055657
#
#
# Mechanical properties :
#
#
# Convention : Reuss Voigt Hill
#
# Bulk Modulus (GPa) = 52.31374 57.65188 54.98281
# Shear Modulus (GPa) = 19.77886 25.68198 22.73042
#
# Velocity S-wave (km/s) = 3.28742 3.74600 3.52418
# Velocity P-wave (km/s) = 6.55695 7.08596 6.82658
#
# Compressibility (1/GPa) = 0.01911544
#
# Stress axis : x y z
#
# Youngs Moduli (GPa) = 76.72965 91.01274 59.92728
#
# Poissons Ratio (x) = 0.33850 0.18963
# Poissons Ratio (y) = 0.28538 0.23445
# Poissons Ratio (z) = 0.24280 0.35606
#
# Static dielectric constant tensor:
#      x y z
#    x 1.661980 0.000000 -0.001990 
#    y 0.000000 1.643120 0.000000 
#    z -0.001990 0.000000 1.656840 
# 
# From -- ./inp_files/171824.got.cif
#   From: 2010.05.17/outbox.cif.g08.bks.cpg/sg15_86_cif.got.tgz:171824.got - 2010.06.03 18:47:42.
