data_PCOD9269608
_publ_section_title
;
Structure prediction by ZEFSAII (Michael W. Deem and Ramdas Pophale) SiO2 
 PCOD9269608
Probable space group: C 2/C
;
_chemical_formula_sum "Si O2"
_cell_formula_units_Z 52
_cell_length_a 26.138625
_cell_length_b 24.383873
_cell_length_c 8.900209
_cell_angle_alpha 90.000000
_cell_angle_beta 26.864602
_cell_angle_gamma 90.000000
_cell_volume 2563.375734
_symmetry_space_group_name_H-M "C 2/C"
_symmetry_group_IT_number 15
_symmetry_cell_setting 'monoclinic'
loop_
_space_group_symop_operation_xyz
x,y,z
-x,y,1/2-z
-x,-y,-z
x,-y,1/2+z
1/2+x,1/2+y,z
1/2-x,1/2+y,1/2-z
1/2-x,1/2-y,-z
1/2+x,1/2-y,1/2+z
loop_
_atom_site_type_symbol
_atom_site_label
_atom_site_fract_x
_atom_site_fract_y
_atom_site_fract_z
Si Si1 0.314525 0.387698 0.624343
Si Si2 0.481162 0.369894 0.621023
Si Si3 0.000000 0.473846 0.750000
Si Si4 0.231065 0.810076 0.481507
Si Si5 0.701873 0.057061 0.174049
Si Si6 0.647425 0.541127 0.204707
Si Si7 0.153955 0.395505 0.491165
O O1 0.277800 0.344746 0.843542
O O2 0.208009 0.411227 0.813819
O O3 0.368317 0.435823 0.586164
O O4 0.403845 0.362134 0.274401
O O5 0.500000 0.365402 0.750000
O O6 0.383222 0.328032 0.813879
O O7 0.442949 0.431568 0.669832
O O8 0.099032 0.514429 0.437211
O O9 0.040035 0.430659 0.772052
O O10 0.250000 0.750000 0.500000
O O11 0.332886 0.834897 0.111710
O O12 0.695596 0.098072 0.051529
O O13 0.818315 0.021889 0.870083
O O14 0.759843 0.569279 0.838178
#
# Coordination Sequence:
#
# PCOD9269608 Si02
#       7
#     8   8   4   8   8   8   8
#     4  10  20  36  59  86 118 151 197 240 300 364
#     4  10  20  38  62  89 122 154 199 251 297 363
#     4  10  20  34  58  86 134 164 188 240 312 376
#     4  10  22  43  64  80 113 156 208 267 316 348
#     4  11  20  34  57  87 127 163 194 237 299 365
#     4   9  18  32  53  84 122 159 187 222 287 360
#     4   9  19  35  55  85 113 159 204 241 292 366
#
# _framework density 20.28575
#
# number of rings (size 3 to 8) (size 9 to 14) (size 15 to 20)
#    0.000    2.462    0.000    6.000    0.000    3.077 
#    2.769    7.692    1.692    0.923    0.000    0.000 
#    0.000    0.000    0.000    0.000    0.000    0.000 
#
# Total GULP energy -144766.860731 kJ/mol
# GULP energy per Si atom -5567.956182 kJ/mol
# Density = 2.023958 g / cm^3
# Si number density = 20.285750 Si / 1000 Ang^3
#
#
#
# Elastic Constant Matrix: (Units=GPa)
#
#
# Indices 1 2 3 4 5 6 
#
# 1 175.7715 69.1212 29.6733 0.0000 10.1243 0.0000
# 2 69.1212 102.3713 25.9632 0.0001 -2.5731 -0.0001
# 3 29.6733 25.9632 46.7203 0.0001 -2.2090 0.0000
# 4 0.0000 0.0001 0.0001 13.4596 -0.0002 -5.3916
# 5 10.1243 -2.5731 -2.2090 -0.0002 30.5270 0.0001
# 6 0.0000 -0.0001 0.0000 -5.3916 0.0001 7.5933
#
#
#
# Elastic Compliance Matrix: (Units=1/GPa)
#
#
# Indices 1 2 3 4 5 6 
#
# 1 0.008304 -0.005021 -0.002643 0.000000 -0.003368 0.000000
# 2 -0.005021 0.014415 -0.004701 0.000000 0.002540 0.000000
# 3 -0.002643 -0.004701 0.025806 0.000000 0.002348 0.000000
# 4 0.000000 0.000000 0.000000 0.103829 0.000000 0.073724
# 5 -0.003368 0.002540 0.002348 0.000000 0.034259 0.000000
# 6 0.000000 0.000000 0.000000 0.073724 0.000000 0.184044
#
#
# Mechanical properties :
#
#
# Convention : Reuss Voigt Hill
#
# Bulk Modulus (GPa) = 42.02745 63.81983 52.92364
# Shear Modulus (GPa) = 12.39713 23.65633 18.02673
#
# Velocity S-wave (km/s) = 2.47478 3.41861 2.98424
# Velocity P-wave (km/s) = 5.37854 6.86376 6.16603
#
# Compressibility (1/GPa) = 0.02379397
#
# Stress axis : x y z
#
# Youngs Moduli (GPa) = 120.42425 69.37276 38.75032
#
# Poissons Ratio (x) = 0.34834 0.10242
# Poissons Ratio (y) = 0.60468 0.18218
# Poissons Ratio (z) = 0.31828 0.32615
#
# Static dielectric constant tensor:
#      x y z
#    x 1.766340 0.000000 -0.063120 
#    y 0.000000 1.770150 0.000000 
#    z -0.063120 0.000000 1.812690 
# 
# From -- ./inp_files/64082.got.cif
#   From: 2010.05.17/outbox.cif.g08.bks.cpg/sg15_33_cif.got.tgz:64082.got - 2010.06.03 18:47:42.
