data_PCOD9269270
_publ_section_title
;
Structure prediction by ZEFSAII (Michael W. Deem and Ramdas Pophale) SiO2 
 PCOD9269270
Probable space group: C 2/C
;
_chemical_formula_sum "Si O2"
_cell_formula_units_Z 60
_cell_length_a 16.907962
_cell_length_b 8.826272
_cell_length_c 21.580272
_cell_angle_alpha 90.000000
_cell_angle_beta 84.667461
_cell_angle_gamma 90.000000
_cell_volume 3206.578033
_symmetry_space_group_name_H-M "C 2/C"
_symmetry_group_IT_number 15
_symmetry_cell_setting 'monoclinic'
loop_
_space_group_symop_operation_xyz
x,y,z
-x,y,1/2-z
-x,-y,-z
x,-y,1/2+z
1/2+x,1/2+y,z
1/2-x,1/2+y,1/2-z
1/2-x,1/2-y,-z
1/2+x,1/2-y,1/2+z
loop_
_atom_site_type_symbol
_atom_site_label
_atom_site_fract_x
_atom_site_fract_y
_atom_site_fract_z
Si Si1 0.476533 0.931442 0.567111
Si Si2 0.317365 0.679902 0.904210
Si Si3 0.500000 0.319462 0.250000
Si Si4 0.862134 0.658391 0.600463
Si Si5 0.327120 0.837272 0.247999
Si Si6 0.087326 0.566225 0.164666
Si Si7 0.949871 0.850359 0.492922
Si Si8 0.839079 0.014954 0.774048
O O1 0.531288 0.004521 0.616467
O O2 0.496621 0.757398 0.555318
O O3 0.500000 0.000000 0.500000
O O4 0.388614 0.984913 0.587625
O O5 0.224187 0.681765 0.921931
O O6 0.343019 0.845743 0.876820
O O7 0.369819 0.632156 0.958645
O O8 0.335271 0.567920 0.845675
O O9 0.533553 0.201320 0.196980
O O10 0.576983 0.423196 0.259246
O O11 0.856771 0.676010 0.674710
O O12 0.922993 0.766883 0.558687
O O13 0.330128 0.665346 0.271610
O O14 0.379786 0.951876 0.286009
O O15 0.237273 0.904066 0.252082
O O16 0.000000 0.000000 0.500000
#
# Coordination Sequence:
#
# PCOD9269270 Si02
#       8
#     8   8   4   8   8   8   8   8
#     4   9  20  36  55  78 107 142 183 229 280 337
#     4   9  20  39  58  80 114 155 192 234 286 348
#     4  10  20  34  54  82 112 148 190 234 284 340
#     4  10  20  36  58  81 110 150 190 231 289 353
#     4  11  22  38  59  87 118 155 194 239 296 354
#     4  10  20  37  58  80 114 153 188 234 290 342
#     4  10  21  38  59  82 112 147 191 242 288 336
#     4  10  22  37  56  84 118 151 192 239 289 349
#
# _framework density 18.711537
#
# number of rings (size 3 to 8) (size 9 to 14) (size 15 to 20)
#    0.000    2.133    0.000    3.600    0.000    8.000 
#    0.000    3.333    0.000    0.000    0.000    0.000 
#    0.000    0.000    0.000    0.000    0.000    0.000 
#
# Total GULP energy -167136.360904 kJ/mol
# GULP energy per Si atom -5571.212030 kJ/mol
# Density = 1.866895 g / cm^3
# Si number density = 18.711537 Si / 1000 Ang^3
#
#
#
# Elastic Constant Matrix: (Units=GPa)
#
#
# Indices 1 2 3 4 5 6 
#
# 1 101.6284 69.3176 49.7104 0.0000 -9.1684 0.0000
# 2 69.3176 109.0434 39.3833 0.0000 9.2440 0.0000
# 3 49.7104 39.3833 68.6454 0.0000 19.3115 0.0000
# 4 0.0000 0.0000 0.0000 24.5824 0.0000 0.1513
# 5 -9.1684 9.2440 19.3115 0.0000 30.6172 0.0000
# 6 0.0000 0.0000 0.0000 0.1513 0.0000 29.0423
#
#
#
# Elastic Compliance Matrix: (Units=1/GPa)
#
#
# Indices 1 2 3 4 5 6 
#
# 1 0.037562 -0.017020 -0.026802 0.000000 0.033292 0.000000
# 2 -0.017020 0.019297 0.005260 0.000000 -0.014241 0.000000
# 3 -0.026802 0.005260 0.040925 0.000000 -0.035427 0.000000
# 4 0.000000 0.000000 0.000000 0.040681 0.000000 -0.000212
# 5 0.033292 -0.014241 -0.035427 0.000000 0.069276 0.000000
# 6 0.000000 0.000000 0.000000 -0.000212 0.000000 0.034434
#
#
# Mechanical properties :
#
#
# Convention : Reuss Voigt Hill
#
# Bulk Modulus (GPa) = 48.40033 66.23775 57.31904
# Shear Modulus (GPa) = 15.32876 24.90876 20.11876
#
# Velocity S-wave (km/s) = 2.86530 3.65252 3.28259
# Velocity P-wave (km/s) = 6.07201 7.29823 6.71317
#
# Compressibility (1/GPa) = 0.02066101
#
# Stress axis : x y z
#
# Youngs Moduli (GPa) = 26.62300 51.82050 24.43481
#
# Poissons Ratio (x) = 0.88197 0.65490
# Poissons Ratio (y) = 0.45311 -0.12852
# Poissons Ratio (z) = 0.71354 -0.27257
#
# Static dielectric constant tensor:
#      x y z
#    x 1.674650 0.000000 -0.012440 
#    y 0.000000 1.676540 0.000000 
#    z -0.012440 0.000000 1.649490 
# 
# From -- ./inp_files/247440.got.cif
#   From: 2010.05.17/outbox.cif.g08.bks.cpg/sg15_124_cif.got.tgz:247440.got - 2010.06.03 18:47:42.
