data_PCOD9269684
_publ_section_title
;
Structure prediction by ZEFSAII (Michael W. Deem and Ramdas Pophale) SiO2 
 PCOD9269684
Probable space group: C 2/C
;
_chemical_formula_sum "Si O2"
_cell_formula_units_Z 48
_cell_length_a 15.239666
_cell_length_b 7.925596
_cell_length_c 31.112229
_cell_angle_alpha 90.000000
_cell_angle_beta 148.928775
_cell_angle_gamma 90.000000
_cell_volume 1939.434353
_symmetry_space_group_name_H-M "C 2/C"
_symmetry_group_IT_number 15
_symmetry_cell_setting 'monoclinic'
loop_
_space_group_symop_operation_xyz
x,y,z
-x,y,1/2-z
-x,-y,-z
x,-y,1/2+z
1/2+x,1/2+y,z
1/2-x,1/2+y,1/2-z
1/2-x,1/2-y,-z
1/2+x,1/2-y,1/2+z
loop_
_atom_site_type_symbol
_atom_site_label
_atom_site_fract_x
_atom_site_fract_y
_atom_site_fract_z
Si Si1 0.279094 0.951993 0.932506
Si Si2 0.580837 0.213393 0.330109
Si Si3 0.565079 0.833934 0.586374
Si Si4 0.795307 0.169205 0.777314
Si Si5 0.627706 0.509746 0.013726
Si Si6 0.995605 0.160736 0.379640
O O1 0.211332 0.127507 0.882469
O O2 0.128999 0.881468 0.898461
O O3 0.335916 0.832875 0.917407
O O4 0.441508 0.006329 0.029216
O O5 0.500000 0.180851 0.250000
O O6 0.438030 0.272187 0.303494
O O7 0.685362 0.052773 0.391294
O O8 0.696939 0.801310 0.679713
O O9 0.432399 0.679722 0.536236
O O10 0.851206 0.987134 0.818435
O O11 0.613263 0.176282 0.678089
O O12 0.592767 0.361064 0.965487
O O13 0.500000 0.500000 0.000000
#
# Coordination Sequence:
#
# PCOD9269684 Si02
#       6
#     8   8   8   8   8   8
#     4   9  19  35  58  83 108 146 197 243 287 337
#     4  10  20  34  59  84 110 155 197 237 284 354
#     4   9  19  36  57  83 111 146 192 246 288 345
#     4  10  21  36  57  84 116 151 196 239 295 344
#     4  10  20  38  57  80 120 153 188 236 304 351
#     4  10  21  38  59  86 117 157 194 245 292 350
#
# _framework density 24.749483999999999
#
# number of rings (size 3 to 8) (size 9 to 14) (size 15 to 20)
#    0.000    2.333    0.000    2.000    4.667    4.000 
#    6.000    0.833    0.000    0.000    0.000    0.000 
#    0.000    0.000    0.000    0.000    0.000    0.000 
#
# Total GULP energy -134327.565287 kJ/mol
# GULP energy per Si atom -5596.981887 kJ/mol
# Density = 2.469315 g / cm^3
# Si number density = 24.749484 Si / 1000 Ang^3
#
#
#
# Elastic Constant Matrix: (Units=GPa)
#
#
# Indices 1 2 3 4 5 6 
#
# 1 52.8057 10.4832 22.3215 0.0000 3.4069 0.0000
# 2 10.4832 81.2512 31.2394 0.0000 -5.6438 0.0000
# 3 22.3215 31.2394 147.1257 0.0000 -28.5765 0.0000
# 4 0.0000 0.0000 0.0000 36.6381 0.0000 2.9028
# 5 3.4069 -5.6438 -28.5765 0.0000 40.1283 0.0000
# 6 0.0000 0.0000 0.0000 2.9028 0.0000 25.1504
#
#
#
# Elastic Compliance Matrix: (Units=1/GPa)
#
#
# Indices 1 2 3 4 5 6 
#
# 1 0.021161 -0.001602 -0.003787 0.000000 -0.004719 0.000000
# 2 -0.001602 0.013524 -0.002591 0.000000 0.000193 0.000000
# 3 -0.003787 -0.002591 0.009183 0.000000 0.006497 0.000000
# 4 0.000000 0.000000 0.000000 0.027546 0.000000 -0.003179
# 5 -0.004719 0.000193 0.006497 0.000000 0.029974 0.000000
# 6 0.000000 0.000000 0.000000 -0.003179 0.000000 0.040128
#
#
# Mechanical properties :
#
#
# Convention : Reuss Voigt Hill
#
# Bulk Modulus (GPa) = 35.83165 45.47454 40.65309
# Shear Modulus (GPa) = 29.97994 34.85925 32.41960
#
# Velocity S-wave (km/s) = 3.48420 3.75705 3.62319
# Velocity P-wave (km/s) = 5.54034 6.10200 5.82794
#
# Compressibility (1/GPa) = 0.02790829
#
# Stress axis : x y z
#
# Youngs Moduli (GPa) = 47.25782 73.94378 108.89122
#
# Poissons Ratio (x) = 0.11846 0.41234
# Poissons Ratio (y) = 0.07571 0.28214
# Poissons Ratio (z) = 0.17895 0.19159
#
# Static dielectric constant tensor:
#      x y z
#    x 1.879200 0.000000 -0.025770 
#    y 0.000000 2.064940 0.000000 
#    z -0.025770 0.000000 1.965550 
# 
# From -- ./inp_files/152043.got.cif
#   From: 2010.05.17/outbox.cif.g08.bks.cpg/sg15_77_cif.got.tgz:152043.got - 2010.06.03 18:47:42.
