data_PCOD9269984
_publ_section_title
;
Structure prediction by ZEFSAII (Michael W. Deem and Ramdas Pophale) SiO2 
 PCOD9269984
Probable space group: C 2/C
;
_chemical_formula_sum "Si O2"
_cell_formula_units_Z 64
_cell_length_a 14.377643
_cell_length_b 27.218639
_cell_length_c 9.108149
_cell_angle_alpha 90.000000
_cell_angle_beta 95.327887
_cell_angle_gamma 90.000000
_cell_volume 3548.982408
_symmetry_space_group_name_H-M "C 2/C"
_symmetry_group_IT_number 15
_symmetry_cell_setting 'monoclinic'
loop_
_space_group_symop_operation_xyz
x,y,z
-x,y,1/2-z
-x,-y,-z
x,-y,1/2+z
1/2+x,1/2+y,z
1/2-x,1/2+y,1/2-z
1/2-x,1/2-y,-z
1/2+x,1/2-y,1/2+z
loop_
_atom_site_type_symbol
_atom_site_label
_atom_site_fract_x
_atom_site_fract_y
_atom_site_fract_z
Si Si1 0.089631 0.174373 0.671099
Si Si2 0.355897 0.224883 0.183302
Si Si3 0.200145 0.641227 0.790207
Si Si4 0.800738 0.632087 0.356736
Si Si5 0.569914 0.063065 0.623821
Si Si6 0.090601 0.836163 0.821986
Si Si7 0.569562 0.047546 0.128865
Si Si8 0.140608 0.258529 0.146430
O O1 0.101543 0.231441 0.714961
O O2 0.189041 0.148742 0.725033
O O3 0.079201 0.170889 0.494580
O O4 0.000000 0.155766 0.750000
O O5 0.355982 0.173854 0.272261
O O6 0.246695 0.238659 0.150654
O O7 0.394956 0.228808 0.022884
O O8 0.154451 0.597494 0.687703
O O9 0.146919 0.690934 0.736251
O O10 0.189445 0.635900 0.964534
O O11 0.690827 0.638942 0.310184
O O12 0.841518 0.579606 0.318997
O O13 0.500000 0.061283 0.750000
O O14 0.497435 0.079232 0.487908
O O15 0.597743 0.007288 0.580803
O O16 0.093271 0.785114 0.730418
O O17 0.000000 0.864395 0.750000
O O18 0.500000 0.038724 0.250000
#
# Coordination Sequence:
#
# PCOD9269984 Si02
#       8
#     8   8   8   8   8   8   8   8
#     4  10  20  35  53  77 109 144 185 226 266 314
#     4   9  18  32  50  74 106 137 176 226 258 307
#     4  10  20  35  57  79 105 145 181 221 273 327
#     4  10  20  36  55  79 109 141 183 222 269 327
#     4  10  20  39  59  80 110 138 174 219 279 341
#     4  10  20  35  54  75 107 150 184 220 268 318
#     4  10  22  37  57  84 109 137 173 224 278 329
#     4   9  18  32  50  75 104 138 180 218 263 312
#
# _framework density 18.033338000000001
#
# number of rings (size 3 to 8) (size 9 to 14) (size 15 to 20)
#    0.000    2.250    1.250    1.500    1.750    5.000 
#    2.250    0.000    0.000    0.750    0.000    3.500 
#    0.000    0.000    0.000    0.000    0.000    0.000 
#
# Total GULP energy -178166.340047 kJ/mol
# GULP energy per Si atom -5567.698126 kJ/mol
# Density = 1.799229 g / cm^3
# Si number density = 18.033338 Si / 1000 Ang^3
#
#
#
# Elastic Constant Matrix: (Units=GPa)
#
#
# Indices 1 2 3 4 5 6 
#
# 1 100.9085 42.5368 28.3773 0.0000 8.3382 0.0000
# 2 42.5368 75.5463 8.3073 0.0000 14.7653 0.0000
# 3 28.3773 8.3073 50.9351 0.0000 14.0588 0.0000
# 4 0.0000 0.0000 0.0000 22.0766 0.0000 2.9751
# 5 8.3382 14.7653 14.0588 0.0000 28.5079 0.0000
# 6 0.0000 0.0000 0.0000 2.9751 0.0000 23.1907
#
#
#
# Elastic Compliance Matrix: (Units=1/GPa)
#
#
# Indices 1 2 3 4 5 6 
#
# 1 0.015576 -0.008641 -0.008388 0.000000 0.004056 0.000000
# 2 -0.008641 0.019526 0.004310 0.000000 -0.009711 0.000000
# 3 -0.008388 0.004310 0.027252 0.000000 -0.013218 0.000000
# 4 0.000000 0.000000 0.000000 0.046094 0.000000 -0.005913
# 5 0.004056 -0.009711 -0.013218 0.000000 0.045440 0.000000
# 6 0.000000 0.000000 0.000000 -0.005913 0.000000 0.043879
#
#
# Mechanical properties :
#
#
# Convention : Reuss Voigt Hill
#
# Bulk Modulus (GPa) = 27.08861 42.87029 34.97945
# Shear Modulus (GPa) = 21.23052 24.63294 22.93173
#
# Velocity S-wave (km/s) = 3.43489 3.69991 3.56986
# Velocity P-wave (km/s) = 5.54845 6.48667 6.03582
#
# Compressibility (1/GPa) = 0.03691588
#
# Stress axis : x y z
#
# Youngs Moduli (GPa) = 64.20127 51.21329 36.69517
#
# Poissons Ratio (x) = 0.44251 0.30780
# Poissons Ratio (y) = 0.55473 -0.15815
# Poissons Ratio (z) = 0.53853 -0.22072
#
# Static dielectric constant tensor:
#      x y z
#    x 1.179510 0.000000 1.711200 
#    y 0.000000 1.617830 0.000000 
#    z 1.711200 0.000000 -4.392270 
# 
# From -- ./inp_files/43587.got.cif
#   From: 2010.05.17/outbox.cif.g08.bks.cpg/sg15_22_cif.got.tgz:43587.got - 2010.06.03 18:47:42.
