data_PCOD9269204
_publ_section_title
;
Structure prediction by ZEFSAII (Michael W. Deem and Ramdas Pophale) SiO2 
 PCOD9269204
Probable space group: C 2/C
;
_chemical_formula_sum "Si O2"
_cell_formula_units_Z 56
_cell_length_a 12.762672
_cell_length_b 20.489011
_cell_length_c 10.870402
_cell_angle_alpha 90.000000
_cell_angle_beta 99.626593
_cell_angle_gamma 90.000000
_cell_volume 2802.523331
_symmetry_space_group_name_H-M "C 2/C"
_symmetry_group_IT_number 15
_symmetry_cell_setting 'monoclinic'
loop_
_space_group_symop_operation_xyz
x,y,z
-x,y,1/2-z
-x,-y,-z
x,-y,1/2+z
1/2+x,1/2+y,z
1/2-x,1/2+y,1/2-z
1/2-x,1/2-y,-z
1/2+x,1/2-y,1/2+z
loop_
_atom_site_type_symbol
_atom_site_label
_atom_site_fract_x
_atom_site_fract_y
_atom_site_fract_z
Si Si1 0.637897 0.706907 0.631092
Si Si2 0.205012 0.171239 0.379402
Si Si3 0.364757 0.086056 0.314398
Si Si4 0.810573 0.649728 0.046845
Si Si5 0.501245 0.135474 0.562238
Si Si6 0.500000 0.030605 0.750000
Si Si7 0.384129 0.298796 0.092953
Si Si8 0.000000 0.245563 0.250000
O O1 0.701996 0.775465 0.631974
O O2 0.682718 0.670062 0.520688
O O3 0.651517 0.684356 0.774491
O O4 0.509815 0.703960 0.596768
O O5 0.249385 0.101001 0.348654
O O6 0.103188 0.200061 0.287231
O O7 0.351361 0.114586 0.175701
O O8 0.443795 0.125731 0.420585
O O9 0.416120 0.015654 0.302818
O O10 0.847768 0.724636 0.064419
O O11 0.874914 0.622769 0.942472
O O12 0.684275 0.653546 0.006357
O O13 0.494764 0.204365 0.632521
O O14 0.452656 0.080029 0.640208
#
# Coordination Sequence:
#
# PCOD9269204 Si02
#       8
#     8   8   8   8   8   4   8   4
#     4  10  20  34  53  79 127 167 201 240 299 380
#     4  11  22  35  56  91 130 168 201 252 323 380
#     4  12  23  38  60  86 124 168 208 257 316 376
#     4  11  21  33  57  87 123 162 202 252 310 376
#     4  11  23  41  62  88 127 164 211 263 311 373
#     4  11  26  44  64  90 120 169 226 268 310 369
#     4  10  21  34  54  89 128 166 201 239 311 392
#     4  11  24  36  60  96 132 161 202 254 320 393
#
# _framework density 19.981992999999999
#
# number of rings (size 3 to 8) (size 9 to 14) (size 15 to 20)
#    0.000    1.143    2.857    4.714    6.000    1.143 
#    0.000    0.000    0.000    0.000    0.000   10.000 
#    0.000    0.000    0.000    0.000    0.000    0.000 
#
# Total GULP energy -156046.075172 kJ/mol
# GULP energy per Si atom -5573.074113 kJ/mol
# Density = 1.993651 g / cm^3
# Si number density = 19.981993 Si / 1000 Ang^3
#
#
#
# Elastic Constant Matrix: (Units=GPa)
#
#
# Indices 1 2 3 4 5 6 
#
# 1 106.2586 28.1042 39.7607 0.0000 2.9528 0.0000
# 2 28.1042 50.4076 22.4772 0.0000 1.9141 0.0000
# 3 39.7607 22.4772 94.4929 0.0000 -9.1886 0.0000
# 4 0.0000 0.0000 0.0000 11.1883 0.0000 -7.3480
# 5 2.9528 1.9141 -9.1886 0.0000 37.3273 0.0000
# 6 0.0000 0.0000 0.0000 -7.3480 0.0000 9.1398
#
#
#
# Elastic Compliance Matrix: (Units=1/GPa)
#
#
# Indices 1 2 3 4 5 6 
#
# 1 0.012333 -0.004944 -0.004184 0.000000 -0.001752 0.000000
# 2 -0.004944 0.024404 -0.003902 0.000000 -0.001821 0.000000
# 3 -0.004184 -0.003902 0.013650 0.000000 0.003891 0.000000
# 4 0.000000 0.000000 0.000000 0.189361 0.000000 0.152237
# 5 -0.001752 -0.001821 0.003891 0.000000 0.027980 0.000000
# 6 0.000000 0.000000 0.000000 0.152237 0.000000 0.231803
#
#
# Mechanical properties :
#
#
# Convention : Reuss Voigt Hill
#
# Bulk Modulus (GPa) = 41.10580 47.98258 44.54419
# Shear Modulus (GPa) = 9.36860 22.25222 15.81041
#
# Velocity S-wave (km/s) = 2.16765 3.34071 2.81594
# Velocity P-wave (km/s) = 5.18469 6.24063 5.73701
#
# Compressibility (1/GPa) = 0.02432746
#
# Stress axis : x y z
#
# Youngs Moduli (GPa) = 81.08463 40.97748 73.26166
#
# Poissons Ratio (x) = 0.20259 0.30651
# Poissons Ratio (y) = 0.40088 0.28584
# Poissons Ratio (z) = 0.33924 0.15988
#
# Static dielectric constant tensor:
#      x y z
#    x 1.770240 0.000000 -0.010300 
#    y 0.000000 1.704720 0.000000 
#    z -0.010300 0.000000 1.774450 
# 
# From -- ./inp_files/90435.got.cif
#   From: 2010.05.17/outbox.cif.g08.bks.cpg/sg15_46_cif.got.tgz:90435.got - 2010.06.03 18:47:42.
