data_PCOD9269480
_publ_section_title
;
Structure prediction by ZEFSAII (Michael W. Deem and Ramdas Pophale) SiO2 
 PCOD9269480
Probable space group: C 2/C
;
_chemical_formula_sum "Si O2"
_cell_formula_units_Z 64
_cell_length_a 11.030980
_cell_length_b 17.618381
_cell_length_c 19.070663
_cell_angle_alpha 90.000000
_cell_angle_beta 78.886140
_cell_angle_gamma 90.000000
_cell_volume 3636.836809
_symmetry_space_group_name_H-M "C 2/C"
_symmetry_group_IT_number 15
_symmetry_cell_setting 'monoclinic'
loop_
_space_group_symop_operation_xyz
x,y,z
-x,y,1/2-z
-x,-y,-z
x,-y,1/2+z
1/2+x,1/2+y,z
1/2-x,1/2+y,1/2-z
1/2-x,1/2-y,-z
1/2+x,1/2-y,1/2+z
loop_
_atom_site_type_symbol
_atom_site_label
_atom_site_fract_x
_atom_site_fract_y
_atom_site_fract_z
Si Si1 0.190293 0.836379 0.087133
Si Si2 0.544665 0.208790 0.672800
Si Si3 0.482814 0.982350 0.919277
Si Si4 0.784057 0.427190 0.347731
Si Si5 0.891065 0.775859 0.978089
Si Si6 0.164776 0.421495 0.316241
Si Si7 0.962417 0.075471 0.544319
Si Si8 0.912256 0.314785 0.951704
O O1 0.227684 0.877023 0.155034
O O2 0.144702 0.748862 0.093697
O O3 0.082562 0.885363 0.063930
O O4 0.308835 0.834711 0.022035
O O5 0.500000 0.246854 0.750000
O O6 0.672992 0.161375 0.659071
O O7 0.553642 0.261896 0.605082
O O8 0.443461 0.141915 0.675858
O O9 0.454890 0.893557 0.913757
O O10 0.371649 0.028926 0.893761
O O11 0.607619 0.010948 0.868332
O O12 0.500000 0.000000 0.000000
O O13 0.806286 0.450555 0.264770
O O14 0.643975 0.437812 0.386610
O O15 0.750000 0.750000 0.000000
O O16 0.904607 0.862824 0.998060
O O17 0.974115 0.725029 0.021014
O O18 0.000000 0.000000 0.500000
#
# Coordination Sequence:
#
# PCOD9269480 Si02
#       8
#     8   8   8   8   8   8   8   8
#     4  10  20  36  57  84 115 162 190 238 307 367
#     4   9  17  34  59  85 111 145 192 241 293 351
#     4  11  19  33  64  91 112 153 202 257 295 349
#     4  10  21  38  58  87 118 152 197 246 300 364
#     4  11  20  35  61  87 115 151 199 254 293 353
#     4  10  20  36  63  84 116 158 197 241 305 368
#     4  11  24  36  59  84 115 153 199 249 297 359
#     4  10  20  34  56  90 121 145 202 253 294 350
#
# _framework density 17.597711
#
# number of rings (size 3 to 8) (size 9 to 14) (size 15 to 20)
#    0.000    1.750    3.750    2.625    0.000    0.500 
#    0.000    0.000   16.500    0.000    0.000    0.000 
#    0.000    0.000    0.000    0.000    0.000    0.000 
#
# Total GULP energy -178422.044162 kJ/mol
# GULP energy per Si atom -5575.688880 kJ/mol
# Density = 1.755766 g / cm^3
# Si number density = 17.597711 Si / 1000 Ang^3
#
#
#
# Elastic Constant Matrix: (Units=GPa)
#
#
# Indices 1 2 3 4 5 6 
#
# 1 97.4136 35.8941 36.1117 0.0000 -5.1547 0.0000
# 2 35.8941 92.2115 50.3307 0.0000 -4.8601 0.0000
# 3 36.1117 50.3307 123.3694 0.0000 -10.9693 0.0000
# 4 0.0000 0.0000 0.0000 21.8036 0.0000 2.1019
# 5 -5.1547 -4.8601 -10.9693 0.0000 24.9111 0.0000
# 6 0.0000 0.0000 0.0000 2.1019 0.0000 24.1330
#
#
#
# Elastic Compliance Matrix: (Units=1/GPa)
#
#
# Indices 1 2 3 4 5 6 
#
# 1 0.012429 -0.003664 -0.002059 0.000000 0.000950 0.000000
# 2 -0.003664 0.015033 -0.005065 0.000000 -0.000056 0.000000
# 3 -0.002059 -0.005065 0.011083 0.000000 0.003466 0.000000
# 4 0.000000 0.000000 0.000000 0.046252 0.000000 -0.004028
# 5 0.000950 -0.000056 0.003466 0.000000 0.041855 0.000000
# 6 0.000000 0.000000 0.000000 -0.004028 0.000000 0.041788
#
#
# Mechanical properties :
#
#
# Convention : Reuss Voigt Hill
#
# Bulk Modulus (GPa) = 58.93351 61.96306 60.44828
# Shear Modulus (GPa) = 25.55288 26.88008 26.21648
#
# Velocity S-wave (km/s) = 3.81472 3.91253 3.86394
# Velocity P-wave (km/s) = 7.27769 7.46310 7.37098
#
# Compressibility (1/GPa) = 0.01696828
#
# Stress axis : x y z
#
# Youngs Moduli (GPa) = 80.45571 66.52132 90.22849
#
# Poissons Ratio (x) = 0.24376 0.18576
# Poissons Ratio (y) = 0.29482 0.45703
# Poissons Ratio (z) = 0.16564 0.33695
#
# Static dielectric constant tensor:
#      x y z
#    x 1.623730 0.000000 0.016190 
#    y 0.000000 1.590150 0.000000 
#    z 0.016190 0.000000 1.622770 
# 
# From -- ./inp_files/199141.got.cif
#   From: 2010.05.17/outbox.cif.g08.bks.cpg/sg15_100_cif.got.tgz:199141.got - 2010.06.03 18:47:42.
