data_PCOD9269479
_publ_section_title
;
Structure prediction by ZEFSAII (Michael W. Deem and Ramdas Pophale) SiO2 
 PCOD9269479
Probable space group: C 2/C
;
_chemical_formula_sum "Si O2"
_cell_formula_units_Z 60
_cell_length_a 21.805845
_cell_length_b 18.883309
_cell_length_c 8.954119
_cell_angle_alpha 90.000000
_cell_angle_beta 60.647165
_cell_angle_gamma 90.000000
_cell_volume 3213.659677
_symmetry_space_group_name_H-M "C 2/C"
_symmetry_group_IT_number 15
_symmetry_cell_setting 'monoclinic'
loop_
_space_group_symop_operation_xyz
x,y,z
-x,y,1/2-z
-x,-y,-z
x,-y,1/2+z
1/2+x,1/2+y,z
1/2-x,1/2+y,1/2-z
1/2-x,1/2-y,-z
1/2+x,1/2-y,1/2+z
loop_
_atom_site_type_symbol
_atom_site_label
_atom_site_fract_x
_atom_site_fract_y
_atom_site_fract_z
Si Si1 0.811273 0.747159 0.304681
Si Si2 0.347053 0.949026 0.112275
Si Si3 0.072448 0.215468 0.607828
Si Si4 0.018342 0.642973 0.016720
Si Si5 0.756486 0.336161 0.378253
Si Si6 0.500000 0.238255 0.750000
Si Si7 0.864619 0.591862 0.250439
Si Si8 0.360672 0.293229 0.784916
O O1 0.750000 0.750000 0.500000
O O2 0.878427 0.779176 0.307796
O O3 0.786865 0.792091 0.193746
O O4 0.828657 0.665797 0.249549
O O5 0.286410 0.907667 0.273884
O O6 0.348476 0.031074 0.150943
O O7 0.420828 0.914454 0.078886
O O8 0.340772 0.932480 0.943997
O O9 0.052517 0.295305 0.577873
O O10 0.113046 0.187338 0.413130
O O11 0.000000 0.180839 0.750000
O O12 0.948375 0.605610 0.159175
O O13 0.995082 0.686699 0.898071
O O14 0.701485 0.342715 0.579047
O O15 0.822950 0.284417 0.331258
O O16 0.430308 0.284961 0.803517
#
# Coordination Sequence:
#
# PCOD9269479 Si02
#       8
#     8   8   8   8   8   4   8   8
#     4  12  20  39  63  83 114 164 205 249 304 339
#     4  12  24  40  54  84 122 164 206 243 293 358
#     4  11  19  36  60  84 121 152 202 253 283 358
#     4  11  20  37  56  80 124 165 208 238 284 345
#     4  11  22  39  58  82 121 158 206 259 296 362
#     4  10  20  34  56  90 112 158 206 250 302 356
#     4  12  25  37  58  84 120 168 205 246 291 356
#     4  10  21  34  54  83 117 153 201 251 308 338
#
# _framework density 18.670302
#
# number of rings (size 3 to 8) (size 9 to 14) (size 15 to 20)
#    0.000    0.800    8.000    1.600    3.733    2.133 
#    0.000    0.000    0.000    0.000    0.000    0.000 
#    2.000    4.267    0.000    0.000    0.000    0.000 
#
# Total GULP energy -167575.795155 kJ/mol
# GULP energy per Si atom -5585.859838 kJ/mol
# Density = 1.862781 g / cm^3
# Si number density = 18.670302 Si / 1000 Ang^3
#
#
#
# Elastic Constant Matrix: (Units=GPa)
#
#
# Indices 1 2 3 4 5 6 
#
# 1 93.7333 17.8235 12.6872 0.0000 -6.2228 0.0000
# 2 17.8235 46.9930 17.0499 0.0000 -9.5396 0.0000
# 3 12.6872 17.0499 105.9817 0.0000 -28.3761 0.0000
# 4 0.0000 0.0000 0.0000 20.7139 0.0000 3.5190
# 5 -6.2228 -9.5396 -28.3761 0.0000 28.0843 0.0000
# 6 0.0000 0.0000 0.0000 3.5190 0.0000 16.5457
#
#
#
# Elastic Compliance Matrix: (Units=1/GPa)
#
#
# Indices 1 2 3 4 5 6 
#
# 1 0.011557 -0.004053 -0.000568 0.000000 0.000610 0.000000
# 2 -0.004053 0.024655 -0.002028 0.000000 0.005427 0.000000
# 3 -0.000568 -0.002028 0.013176 0.000000 0.012498 0.000000
# 4 0.000000 0.000000 0.000000 0.050086 0.000000 -0.010653
# 5 0.000610 0.005427 0.012498 0.000000 0.050214 0.000000
# 6 0.000000 0.000000 0.000000 -0.010653 0.000000 0.062704
#
#
# Mechanical properties :
#
#
# Convention : Reuss Voigt Hill
#
# Bulk Modulus (GPa) = 27.70934 37.98101 32.84518
# Shear Modulus (GPa) = 21.03312 26.34530 23.68921
#
# Velocity S-wave (km/s) = 3.36006 3.76051 3.56591
# Velocity P-wave (km/s) = 5.47055 6.26438 5.88088
#
# Compressibility (1/GPa) = 0.03608891
#
# Stress axis : x y z
#
# Youngs Moduli (GPa) = 86.52995 40.56035 75.89424
#
# Poissons Ratio (x) = 0.16440 0.04312
# Poissons Ratio (y) = 0.35073 0.15391
# Poissons Ratio (z) = 0.04916 0.08225
#
# Static dielectric constant tensor:
#      x y z
#    x 1.702070 0.000000 0.011040 
#    y 0.000000 1.602800 0.000000 
#    z 0.011040 0.000000 1.737820 
# 
# From -- ./inp_files/56998.got.cif
#   From: 2010.05.17/outbox.cif.g08.bks.cpg/sg15_29_cif.got.tgz:56998.got - 2010.06.03 18:47:42.
