data_PCOD9269822
_publ_section_title
;
Structure prediction by ZEFSAII (Michael W. Deem and Ramdas Pophale) SiO2 
 PCOD9269822
Probable space group: C 2/C
;
_chemical_formula_sum "Si O2"
_cell_formula_units_Z 36
_cell_length_a 19.264920
_cell_length_b 6.837236
_cell_length_c 14.418054
_cell_angle_alpha 90.000000
_cell_angle_beta 132.479113
_cell_angle_gamma 90.000000
_cell_volume 1400.652284
_symmetry_space_group_name_H-M "C 2/C"
_symmetry_group_IT_number 15
_symmetry_cell_setting 'monoclinic'
loop_
_space_group_symop_operation_xyz
x,y,z
-x,y,1/2-z
-x,-y,-z
x,-y,1/2+z
1/2+x,1/2+y,z
1/2-x,1/2+y,1/2-z
1/2-x,1/2-y,-z
1/2+x,1/2-y,1/2+z
loop_
_atom_site_type_symbol
_atom_site_label
_atom_site_fract_x
_atom_site_fract_y
_atom_site_fract_z
Si Si1 0.000000 0.614128 0.750000
Si Si2 0.806845 0.095458 0.184047
Si Si3 0.861970 0.816017 0.522495
Si Si4 0.563083 0.242142 0.225912
Si Si5 0.579386 0.343281 0.542222
O O1 0.967360 0.738860 0.633254
O O2 0.917480 0.463099 0.706729
O O3 0.833500 0.159385 0.104167
O O4 0.849865 0.874922 0.226771
O O5 0.856613 0.209734 0.313259
O O6 0.697484 0.153111 0.086187
O O7 0.855873 0.024792 0.467600
O O8 0.500000 0.349000 0.250000
O O9 0.486255 0.199797 0.076298
O O10 0.500000 0.500000 0.500000
#
# Coordination Sequence:
#
# PCOD9269822 Si02
#       5
#     4   8   8   8   8
#     4  10  20  34  62  82 118 160 194 248 294 356
#     4  10  22  38  62  87 118 164 197 251 303 348
#     4  11  21  39  60  90 120 154 209 248 290 363
#     4   9  18  37  59  83 120 159 189 240 307 349
#     4  10  20  38  63  83 119 164 198 240 306 362
#
# _framework density 25.702311000000002
#
# number of rings (size 3 to 8) (size 9 to 14) (size 15 to 20)
#    0.667    1.333    2.222    2.667    0.000    2.667 
#    0.000   18.889    0.000    0.000    0.000    0.000 
#    0.000    0.000    0.000    0.000    0.000    0.000 
#
# Total GULP energy -100319.496341 kJ/mol
# GULP energy per Si atom -5573.305352 kJ/mol
# Density = 2.564381 g / cm^3
# Si number density = 25.702311 Si / 1000 Ang^3
#
#
#
# Elastic Constant Matrix: (Units=GPa)
#
#
# Indices 1 2 3 4 5 6 
#
# 1 32.7885 8.5549 32.5200 0.0000 -12.3810 0.0000
# 2 8.5549 62.7256 17.3132 0.0000 0.6832 0.0000
# 3 32.5200 17.3132 184.0141 0.0000 -11.4459 0.0000
# 4 0.0000 0.0000 0.0000 32.8204 0.0000 -7.0481
# 5 -12.3810 0.6832 -11.4459 0.0000 35.7815 0.0000
# 6 0.0000 0.0000 0.0000 -7.0481 0.0000 23.4394
#
#
#
# Elastic Compliance Matrix: (Units=1/GPa)
#
#
# Indices 1 2 3 4 5 6 
#
# 1 0.042755 -0.004215 -0.006361 0.000000 0.012840 0.000000
# 2 -0.004215 0.016807 -0.000966 0.000000 -0.002089 0.000000
# 3 -0.006361 -0.000966 0.006646 0.000000 -0.000057 0.000000
# 4 0.000000 0.000000 0.000000 0.032572 0.000000 0.009794
# 5 0.012840 -0.002089 -0.000057 0.000000 0.032412 0.000000
# 6 0.000000 0.000000 0.000000 0.009794 0.000000 0.045608
#
#
# Mechanical properties :
#
#
# Convention : Reuss Voigt Hill
#
# Bulk Modulus (GPa) = 23.18932 44.03383 33.61158
# Shear Modulus (GPa) = 23.33616 33.15094 28.24355
#
# Velocity S-wave (km/s) = 3.01647 3.59528 3.31852
# Velocity P-wave (km/s) = 4.60152 5.86551 5.27154
#
# Compressibility (1/GPa) = 0.04312329
#
# Stress axis : x y z
#
# Youngs Moduli (GPa) = 23.38885 59.49964 150.46971
#
# Poissons Ratio (x) = 0.25082 0.95709
# Poissons Ratio (y) = 0.09860 0.14539
# Poissons Ratio (z) = 0.14877 0.05749
#
# Static dielectric constant tensor:
#      x y z
#    x 2.208780 0.000000 0.055080 
#    y 0.000000 2.031530 0.000000 
#    z 0.055080 0.000000 2.092470 
# 
# From -- ./inp_files/171548.got.cif
#   From: 2010.05.17/outbox.cif.g08.bks.cpg/sg15_86_cif.got.tgz:171548.got - 2010.06.03 18:47:42.
