data_PCOD9269541
_publ_section_title
;
Structure prediction by ZEFSAII (Michael W. Deem and Ramdas Pophale) SiO2 
 PCOD9269541
Probable space group: C 2/C
;
_chemical_formula_sum "Si O2"
_cell_formula_units_Z 60
_cell_length_a 5.526330
_cell_length_b 25.289406
_cell_length_c 21.839842
_cell_angle_alpha 90.000000
_cell_angle_beta 57.602823
_cell_angle_gamma 90.000000
_cell_volume 2577.209170
_symmetry_space_group_name_H-M "C 2/C"
_symmetry_group_IT_number 15
_symmetry_cell_setting 'monoclinic'
loop_
_space_group_symop_operation_xyz
x,y,z
-x,y,1/2-z
-x,-y,-z
x,-y,1/2+z
1/2+x,1/2+y,z
1/2-x,1/2+y,1/2-z
1/2-x,1/2-y,-z
1/2+x,1/2-y,1/2+z
loop_
_atom_site_type_symbol
_atom_site_label
_atom_site_fract_x
_atom_site_fract_y
_atom_site_fract_z
Si Si1 0.770167 0.993854 0.585326
Si Si2 0.315912 0.891025 0.429850
Si Si3 0.824633 0.133384 0.684306
Si Si4 0.500000 0.276748 0.250000
Si Si5 0.353242 0.483985 0.206843
Si Si6 0.734635 0.118788 0.072656
Si Si7 0.534849 0.190983 0.988288
Si Si8 0.382154 0.718922 0.110442
O O1 0.600580 0.938950 0.599782
O O2 0.599447 0.049670 0.602228
O O3 0.925487 0.991600 0.630399
O O4 0.000000 0.000000 0.500000
O O5 0.182136 0.864727 0.387643
O O6 0.527459 0.848980 0.430677
O O7 0.068146 0.894246 0.514366
O O8 0.500000 0.128208 0.750000
O O9 0.952166 0.077246 0.687522
O O10 0.928406 0.184888 0.703968
O O11 0.771439 0.244170 0.188201
O O12 0.500000 0.504287 0.250000
O O13 0.000000 0.487905 0.250000
O O14 0.638297 0.152319 0.027433
O O15 0.728778 0.162032 0.126430
O O16 0.221631 0.210333 0.054677
O O17 0.688037 0.242950 0.938982
#
# Coordination Sequence:
#
# PCOD9269541 Si02
#       8
#     8   8   8   4   8   8   8   8
#     4   9  20  41  63  98 129 164 222 279 328 400
#     4   9  19  36  58  91 119 152 205 264 330 387
#     4  10  20  34  57  89 126 155 205 265 327 395
#     4  12  22  36  58  88 120 166 210 272 322 394
#     4  10  21  43  65  95 136 182 216 266 343 413
#     4  10  20  39  60  84 122 162 211 257 326 386
#     4  10  20  39  62  85 121 161 205 269 335 391
#     4  10  23  37  57  87 119 162 213 262 326 398
#
# _framework density 23.280996999999999
#
# number of rings (size 3 to 8) (size 9 to 14) (size 15 to 20)
#    0.000    2.133    0.667    2.000    0.000    3.733 
#   22.800    0.000    0.000    2.400    0.000    0.000 
#    0.000    0.000    0.000    0.000    0.000    0.000 
#
# Total GULP energy -167236.794171 kJ/mol
# GULP energy per Si atom -5574.559806 kJ/mol
# Density = 2.322801 g / cm^3
# Si number density = 23.280997 Si / 1000 Ang^3
#
#
#
# Elastic Constant Matrix: (Units=GPa)
#
#
# Indices 1 2 3 4 5 6 
#
# 1 61.1705 43.0281 35.6153 0.0000 11.1979 0.0000
# 2 43.0281 168.0066 41.3647 0.0000 12.0656 0.0000
# 3 35.6153 41.3647 121.8038 0.0000 10.7741 0.0000
# 4 0.0000 0.0000 0.0000 33.9790 0.0000 8.2146
# 5 11.1979 12.0656 10.7741 0.0000 28.9058 0.0000
# 6 0.0000 0.0000 0.0000 8.2146 0.0000 17.1531
#
#
#
# Elastic Compliance Matrix: (Units=1/GPa)
#
#
# Indices 1 2 3 4 5 6 
#
# 1 0.023217 -0.004372 -0.004829 0.000000 -0.005370 0.000000
# 2 -0.004372 0.007427 -0.001158 0.000000 -0.000975 0.000000
# 3 -0.004829 -0.001158 0.010141 0.000000 -0.001426 0.000000
# 4 0.000000 0.000000 0.000000 0.033283 0.000000 -0.015939
# 5 -0.005370 -0.000975 -0.001426 0.000000 0.037614 0.000000
# 6 0.000000 0.000000 0.000000 -0.015939 0.000000 0.065932
#
#
# Mechanical properties :
#
#
# Convention : Reuss Voigt Hill
#
# Bulk Modulus (GPa) = 49.82912 65.66635 57.74774
# Shear Modulus (GPa) = 24.38773 31.40575 27.89674
#
# Velocity S-wave (km/s) = 3.24008 3.67684 3.46535
# Velocity P-wave (km/s) = 5.95376 6.80388 6.39297
#
# Compressibility (1/GPa) = 0.02006859
#
# Stress axis : x y z
#
# Youngs Moduli (GPa) = 43.07109 134.64740 98.60716
#
# Poissons Ratio (x) = 0.58862 0.47619
# Poissons Ratio (y) = 0.18829 0.11415
# Poissons Ratio (z) = 0.20800 0.15588
#
# Static dielectric constant tensor:
#      x y z
#    x 1.942320 0.000000 -0.010720 
#    y 0.000000 1.937940 0.000000 
#    z -0.010720 0.000000 1.867980 
# 
# From -- ./inp_files/228602.got.cif
#   From: 2010.05.17/outbox.cif.g08.bks.cpg/sg15_115_cif.got.tgz:228602.got - 2010.06.03 18:47:42.
