data_PCOD9269543
_publ_section_title
;
Structure prediction by ZEFSAII (Michael W. Deem and Ramdas Pophale) SiO2 
 PCOD9269543
Probable space group: C 2/C
;
_chemical_formula_sum "Si O2"
_cell_formula_units_Z 64
_cell_length_a 33.378652
_cell_length_b 9.980046
_cell_length_c 19.383900
_cell_angle_alpha 90.000000
_cell_angle_beta 146.261718
_cell_angle_gamma 90.000000
_cell_volume 3586.315611
_symmetry_space_group_name_H-M "C 2/C"
_symmetry_group_IT_number 15
_symmetry_cell_setting 'monoclinic'
loop_
_space_group_symop_operation_xyz
x,y,z
-x,y,1/2-z
-x,-y,-z
x,-y,1/2+z
1/2+x,1/2+y,z
1/2-x,1/2+y,1/2-z
1/2-x,1/2-y,-z
1/2+x,1/2-y,1/2+z
loop_
_atom_site_type_symbol
_atom_site_label
_atom_site_fract_x
_atom_site_fract_y
_atom_site_fract_z
Si Si1 0.637187 0.818511 0.473380
Si Si2 0.199753 0.274606 0.265036
Si Si3 0.930896 0.919345 0.557899
Si Si4 0.160802 0.962807 0.205108
Si Si5 0.822814 0.396117 0.416706
Si Si6 0.410770 0.518604 0.755672
Si Si7 0.665728 0.765591 0.365626
Si Si8 0.584700 0.676294 0.870546
O O1 0.714020 0.742133 0.598283
O O2 0.574305 0.720658 0.409379
O O3 0.633326 0.841266 0.385283
O O4 0.642173 0.958683 0.520039
O O5 0.183023 0.358813 0.172666
O O6 0.161768 0.322238 0.281973
O O7 0.171150 0.123183 0.212511
O O8 0.876327 0.909669 0.416475
O O9 0.908420 0.036832 0.577918
O O10 0.007657 0.967770 0.638680
O O11 0.240879 0.904192 0.327611
O O12 0.110050 0.936196 0.197713
O O13 0.867439 0.285997 0.522886
O O14 0.364738 0.384887 0.676557
O O15 0.395352 0.635530 0.678744
O O16 0.750000 0.750000 0.500000
O O17 0.500000 0.714832 0.750000
#
# Coordination Sequence:
#
# PCOD9269543 Si02
#       8
#     8   8   8   8   8   8   8   8
#     4  10  20  34  57  90 113 148 202 238 291 355
#     4   9  18  34  57  81 116 151 187 239 300 347
#     4  11  19  36  60  86 116 150 197 243 287 363
#     4  10  20  35  59  88 111 152 198 248 294 345
#     4  11  21  37  59  87 120 155 199 247 300 357
#     4  10  21  36  59  85 115 154 200 241 297 352
#     4   9  18  35  55  82 114 146 190 241 291 347
#     4  10  22  39  58  85 120 162 193 238 302 359
#
# _framework density 17.845611999999999
#
# number of rings (size 3 to 8) (size 9 to 14) (size 15 to 20)
#    0.000    2.000    3.750    1.125    0.000    0.500 
#    2.250    1.250    0.000    3.000    0.000    0.000 
#    0.000    0.000    0.000    0.000    0.000    0.000 
#
# Total GULP energy -178399.949706 kJ/mol
# GULP energy per Si atom -5574.998428 kJ/mol
# Density = 1.780499 g / cm^3
# Si number density = 17.845612 Si / 1000 Ang^3
#
#
#
# Elastic Constant Matrix: (Units=GPa)
#
#
# Indices 1 2 3 4 5 6 
#
# 1 122.7963 43.6079 26.7669 0.0000 -25.6013 0.0000
# 2 43.6079 68.7632 37.3724 0.0000 -6.6064 0.0000
# 3 26.7669 37.3724 50.2478 0.0000 -7.3992 0.0000
# 4 0.0000 0.0000 0.0000 28.9269 0.0000 -2.4041
# 5 -25.6013 -6.6064 -7.3992 0.0000 24.0167 0.0000
# 6 0.0000 0.0000 0.0000 -2.4041 0.0000 20.8572
#
#
#
# Elastic Compliance Matrix: (Units=1/GPa)
#
#
# Indices 1 2 3 4 5 6 
#
# 1 0.013240 -0.007332 0.000190 0.000000 0.012156 0.000000
# 2 -0.007332 0.028502 -0.018111 0.000000 -0.005556 0.000000
# 3 0.000190 -0.018111 0.034114 0.000000 0.005731 0.000000
# 4 0.000000 0.000000 0.000000 0.034904 0.000000 0.004023
# 5 0.012156 -0.005556 0.005731 0.000000 0.054833 0.000000
# 6 0.000000 0.000000 0.000000 0.004023 0.000000 0.048409
#
#
# Mechanical properties :
#
#
# Convention : Reuss Voigt Hill
#
# Bulk Modulus (GPa) = 39.44663 50.81129 45.12896
# Shear Modulus (GPa) = 18.31783 23.69748 21.00766
#
# Velocity S-wave (km/s) = 3.20732 3.64801 3.43474
# Velocity P-wave (km/s) = 5.98901 6.80283 6.40885
#
# Compressibility (1/GPa) = 0.02535071
#
# Stress axis : x y z
#
# Youngs Moduli (GPa) = 75.52759 35.08519 29.31341
#
# Poissons Ratio (x) = 0.25725 -0.00558
# Poissons Ratio (y) = 0.55379 0.53089
# Poissons Ratio (z) = -0.01438 0.63543
#
# Static dielectric constant tensor:
#      x y z
#    x 1.600800 0.000000 -0.022110 
#    y 0.000000 1.570030 0.000000 
#    z -0.022110 0.000000 1.620210 
# 
# From -- ./inp_files/224632.got.cif
#   From: 2010.05.17/outbox.cif.g08.bks.cpg/sg15_113_cif.got.tgz:224632.got - 2010.06.03 18:47:42.
