data_PCOD9269497
_publ_section_title
;
Structure prediction by ZEFSAII (Michael W. Deem and Ramdas Pophale) SiO2 
 PCOD9269497
Probable space group: C 2/C
;
_chemical_formula_sum "Si O2"
_cell_formula_units_Z 56
_cell_length_a 13.783355
_cell_length_b 8.769649
_cell_length_c 23.274718
_cell_angle_alpha 90.000000
_cell_angle_beta 97.947173
_cell_angle_gamma 90.000000
_cell_volume 2786.316480
_symmetry_space_group_name_H-M "C 2/C"
_symmetry_group_IT_number 15
_symmetry_cell_setting 'monoclinic'
loop_
_space_group_symop_operation_xyz
x,y,z
-x,y,1/2-z
-x,-y,-z
x,-y,1/2+z
1/2+x,1/2+y,z
1/2-x,1/2+y,1/2-z
1/2-x,1/2-y,-z
1/2+x,1/2-y,1/2+z
loop_
_atom_site_type_symbol
_atom_site_label
_atom_site_fract_x
_atom_site_fract_y
_atom_site_fract_z
Si Si1 0.451796 0.288146 0.096408
Si Si2 0.270418 0.729071 0.287979
Si Si3 0.754829 0.037790 0.617299
Si Si4 0.796626 0.296194 0.155882
Si Si5 0.125087 0.973991 0.618773
Si Si6 0.852686 0.717537 0.976129
Si Si7 0.070579 0.446529 0.809427
O O1 0.347944 0.362222 0.105491
O O2 0.529768 0.422826 0.107124
O O3 0.475116 0.158383 0.144802
O O4 0.435303 0.218766 0.031715
O O5 0.274013 0.887102 0.324006
O O6 0.276550 0.763642 0.221599
O O7 0.356128 0.621515 0.320974
O O8 0.169473 0.640402 0.295474
O O9 0.668591 0.069236 0.564500
O O10 0.788272 0.865100 0.624631
O O11 0.715698 0.409279 0.123402
O O12 0.897003 0.390920 0.162422
O O13 0.129353 0.853660 0.567461
O O14 0.750000 0.750000 0.000000
O O15 0.000000 0.464787 0.750000
#
# Coordination Sequence:
#
# PCOD9269497 Si02
#       7
#     8   8   8   8   8   8   8
#     4  10  20  37  56  77 106 143 182 222 267 325
#     4   9  19  35  54  76 106 143 181 220 269 326
#     4   9  19  34  55  79 106 141 181 221 268 321
#     4  11  20  34  53  80 110 141 175 222 273 321
#     4  10  20  34  57  81 105 142 181 222 274 326
#     4   9  18  37  58  78 105 142 184 224 266 326
#     4  10  21  35  52  77 108 142 177 221 273 325
#
# _framework density 20.098219
#
# number of rings (size 3 to 8) (size 9 to 14) (size 15 to 20)
#    0.000    2.286    0.000    5.571    0.000    2.286 
#    0.000    9.286    0.000    0.000    0.000    0.000 
#    0.000    0.000    0.000    0.000    0.000    0.000 
#
# Total GULP energy -156288.001081 kJ/mol
# GULP energy per Si atom -5581.714324 kJ/mol
# Density = 2.005247 g / cm^3
# Si number density = 20.098219 Si / 1000 Ang^3
#
#
#
# Elastic Constant Matrix: (Units=GPa)
#
#
# Indices 1 2 3 4 5 6 
#
# 1 35.6914 13.4876 28.9140 0.0000 14.8106 0.0000
# 2 13.4876 126.7640 48.8105 0.0000 9.1596 0.0000
# 3 28.9140 48.8105 114.2918 0.0000 18.6423 0.0000
# 4 0.0000 0.0000 0.0000 8.1594 0.0000 7.4520
# 5 14.8106 9.1596 18.6423 0.0000 27.4145 0.0000
# 6 0.0000 0.0000 0.0000 7.4520 0.0000 33.1696
#
#
#
# Elastic Compliance Matrix: (Units=1/GPa)
#
#
# Indices 1 2 3 4 5 6 
#
# 1 0.041336 -0.000251 -0.007560 0.000000 -0.017107 0.000000
# 2 -0.000251 0.009448 -0.003913 0.000000 -0.000360 0.000000
# 3 -0.007560 -0.003913 0.012882 0.000000 -0.003369 0.000000
# 4 0.000000 0.000000 0.000000 0.154198 0.000000 -0.034642
# 5 -0.017107 -0.000360 -0.003369 0.000000 0.048130 0.000000
# 6 0.000000 0.000000 0.000000 -0.034642 0.000000 0.037931
#
#
# Mechanical properties :
#
#
# Convention : Reuss Voigt Hill
#
# Bulk Modulus (GPa) = 24.86372 51.01907 37.94139
# Shear Modulus (GPa) = 14.67229 26.11770 20.39500
#
# Velocity S-wave (km/s) = 2.70484 3.60877 3.18900
# Velocity P-wave (km/s) = 4.70668 6.54250 5.69900
#
# Compressibility (1/GPa) = 0.04021925
#
# Stress axis : x y z
#
# Youngs Moduli (GPa) = 24.19214 105.84253 77.62470
#
# Poissons Ratio (x) = 0.02658 0.58682
# Poissons Ratio (y) = 0.00608 0.30372
# Poissons Ratio (z) = 0.18289 0.41412
#
# Static dielectric constant tensor:
#      x y z
#    x 1.743220 0.000000 0.008470 
#    y 0.000000 1.704330 0.000000 
#    z 0.008470 0.000000 1.712640 
# 
# From -- ./inp_files/272643.got.cif
#   From: 2010.05.17/outbox.cif.g08.bks.cpg/sg15_137_cif.got.tgz:272643.got - 2010.06.03 18:47:42.
