data_PCOD9269653
_publ_section_title
;
Structure prediction by ZEFSAII (Michael W. Deem and Ramdas Pophale) SiO2 
 PCOD9269653
Probable space group: C 2/C
;
_chemical_formula_sum "Si O2"
_cell_formula_units_Z 56
_cell_length_a 15.190544
_cell_length_b 20.790581
_cell_length_c 8.806838
_cell_angle_alpha 90.000000
_cell_angle_beta 108.217890
_cell_angle_gamma 90.000000
_cell_volume 2641.959655
_symmetry_space_group_name_H-M "C 2/C"
_symmetry_group_IT_number 15
_symmetry_cell_setting 'monoclinic'
loop_
_space_group_symop_operation_xyz
x,y,z
-x,y,1/2-z
-x,-y,-z
x,-y,1/2+z
1/2+x,1/2+y,z
1/2-x,1/2+y,1/2-z
1/2-x,1/2-y,-z
1/2+x,1/2-y,1/2+z
loop_
_atom_site_type_symbol
_atom_site_label
_atom_site_fract_x
_atom_site_fract_y
_atom_site_fract_z
Si Si1 0.752629 0.825859 0.488547
Si Si2 0.575336 0.872090 0.889803
Si Si3 0.587714 0.449041 0.401471
Si Si4 0.565416 0.091952 0.925308
Si Si5 0.260074 0.115710 0.828417
Si Si6 0.641149 0.426020 0.759720
Si Si7 0.838576 0.481561 0.783201
O O1 0.750000 0.750000 0.500000
O O2 0.648844 0.856204 0.457430
O O3 0.777555 0.842417 0.328801
O O4 0.826025 0.860186 0.641926
O O5 0.500000 0.832665 0.750000
O O6 0.607018 0.934060 0.803665
O O7 0.511132 0.885834 0.997715
O O8 0.670269 0.848824 0.017923
O O9 0.500000 0.431596 0.250000
O O10 0.677699 0.413961 0.381571
O O11 0.577128 0.430832 0.573972
O O12 0.608206 0.524363 0.372836
O O13 0.500000 0.074616 0.750000
O O14 0.613469 0.030889 0.028860
O O15 0.316112 0.057499 0.770709
O O16 0.736452 0.452673 0.740434
#
# Coordination Sequence:
#
# PCOD9269653 Si02
#       7
#     8   8   8   8   8   8   8
#     4  11  25  45  64  86 126 181 225 267 312 370
#     4  10  20  34  58  92 131 162 193 246 324 391
#     4  11  22  39  69 102 130 162 208 271 339 394
#     4  10  20  37  59  93 129 161 209 251 310 388
#     4  11  22  39  62  93 134 171 210 257 323 387
#     4  10  20  39  64  94 129 165 209 265 328 385
#     4   9  20  33  56  96 131 160 188 250 331 392
#
# _framework density 21.196387000000001
#
# number of rings (size 3 to 8) (size 9 to 14) (size 15 to 20)
#    0.000    1.714    2.857    2.143    4.000    2.857 
#    2.571    2.857    0.000    0.000    0.000    0.000 
#    0.000    0.000    0.000    0.000    0.000    0.000 
#
# Total GULP energy -155951.059664 kJ/mol
# GULP energy per Si atom -5569.680702 kJ/mol
# Density = 2.114814 g / cm^3
# Si number density = 21.196387 Si / 1000 Ang^3
#
#
#
# Elastic Constant Matrix: (Units=GPa)
#
#
# Indices 1 2 3 4 5 6 
#
# 1 89.9699 4.2676 12.7189 0.0000 9.8677 0.0000
# 2 4.2676 94.3229 52.0868 0.0000 1.7684 0.0000
# 3 12.7189 52.0868 172.7538 0.0000 19.3230 0.0000
# 4 0.0000 0.0000 0.0000 15.8891 0.0000 -0.4209
# 5 9.8677 1.7684 19.3230 0.0000 35.3427 0.0000
# 6 0.0000 0.0000 0.0000 -0.4209 0.0000 9.1863
#
#
#
# Elastic Compliance Matrix: (Units=1/GPa)
#
#
# Indices 1 2 3 4 5 6 
#
# 1 0.011513 -0.000216 -0.000452 0.000000 -0.002957 0.000000
# 2 -0.000216 0.012805 -0.004026 0.000000 0.001621 0.000000
# 3 -0.000452 -0.004026 0.007455 0.000000 -0.003748 0.000000
# 4 0.000000 0.000000 0.000000 0.063013 0.000000 0.002887
# 5 -0.002957 0.001621 -0.003748 0.000000 0.031088 0.000000
# 6 0.000000 0.000000 0.000000 0.002887 0.000000 0.108990
#
#
# Mechanical properties :
#
#
# Convention : Reuss Voigt Hill
#
# Bulk Modulus (GPa) = 44.67270 55.02145 49.84708
# Shear Modulus (GPa) = 19.86388 31.28184 25.57286
#
# Velocity S-wave (km/s) = 3.06459 3.84579 3.47720
# Velocity P-wave (km/s) = 5.80031 6.76273 6.29992
#
# Compressibility (1/GPa) = 0.02238504
#
# Stress axis : x y z
#
# Youngs Moduli (GPa) = 86.85660 78.09734 134.13813
#
# Poissons Ratio (x) = 0.01687 0.06061
# Poissons Ratio (y) = 0.01876 0.54005
# Poissons Ratio (z) = 0.03924 0.31443
#
# Static dielectric constant tensor:
#      x y z
#    x 1.826260 0.000000 0.007530 
#    y 0.000000 1.734750 0.000000 
#    z 0.007530 0.000000 1.897460 
# 
# From -- ./inp_files/42284.got.cif
#   From: 2010.05.17/outbox.cif.g08.bks.cpg/sg15_22_cif.got.tgz:42284.got - 2010.06.03 18:47:42.
