data_PCOD9269131
_publ_section_title
;
Structure prediction by ZEFSAII (Michael W. Deem and Ramdas Pophale) SiO2 
 PCOD9269131
Probable space group: C 2/C
;
_chemical_formula_sum "Si O2"
_cell_formula_units_Z 60
_cell_length_a 7.376445
_cell_length_b 20.954872
_cell_length_c 14.716916
_cell_angle_alpha 90.000000
_cell_angle_beta 87.710484
_cell_angle_gamma 90.000000
_cell_volume 2273.013974
_symmetry_space_group_name_H-M "C 2/C"
_symmetry_group_IT_number 15
_symmetry_cell_setting 'monoclinic'
loop_
_space_group_symop_operation_xyz
x,y,z
-x,y,1/2-z
-x,-y,-z
x,-y,1/2+z
1/2+x,1/2+y,z
1/2-x,1/2+y,1/2-z
1/2-x,1/2-y,-z
1/2+x,1/2-y,1/2+z
loop_
_atom_site_type_symbol
_atom_site_label
_atom_site_fract_x
_atom_site_fract_y
_atom_site_fract_z
Si Si1 0.455190 0.077663 0.649044
Si Si2 0.996975 0.200856 0.022581
Si Si3 0.166654 0.119656 0.175584
Si Si4 0.297012 0.423485 0.502579
Si Si5 0.000000 0.689661 0.250000
Si Si6 0.810595 0.192721 0.789928
Si Si7 0.506465 0.502518 0.857085
Si Si8 0.166229 0.308443 0.108722
O O1 0.500000 0.048347 0.750000
O O2 0.376026 0.054624 0.553353
O O3 0.305646 0.134016 0.670840
O O4 0.634338 0.116551 0.618584
O O5 0.114016 0.164234 0.094834
O O6 0.000726 0.272548 0.061679
O O7 0.138445 0.203382 0.937880
O O8 0.827519 0.153257 0.013777
O O9 0.354160 0.143938 0.208857
O O10 0.161678 0.047554 0.140473
O O11 0.000000 0.122819 0.250000
O O12 0.331083 0.460310 0.598515
O O13 0.461776 0.444153 0.431849
O O14 0.110794 0.738042 0.179299
O O15 0.685977 0.216853 0.709742
O O16 0.000000 0.163751 0.750000
O O17 0.500000 0.521150 0.750000
#
# Coordination Sequence:
#
# PCOD9269131 Si02
#       8
#     8   8   8   8   4   8   8   8
#     4  10  22  37  58  92 132 174 210 255 312 383
#     4  10  20  35  56  85 124 165 198 256 314 374
#     4  10  21  39  61  88 116 159 213 264 320 380
#     4  10  21  40  66  88 122 164 214 269 325 389
#     4  10  20  34  62  88 124 168 212 260 316 390
#     4   9  18  32  53  82 122 166 213 237 303 381
#     4   9  21  43  66  90 116 157 219 275 330 388
#     4  10  20  34  51  86 136 161 203 258 303 383
#
# _framework density 26.396671999999999
#
# number of rings (size 3 to 8) (size 9 to 14) (size 15 to 20)
#    0.400    1.867    1.333    0.800    1.867    3.200 
#    8.400    0.000    0.000    3.200    0.000    0.000 
#    0.000    0.000    0.000    0.000    0.000    0.000 
#
# Total GULP energy -167007.578564 kJ/mol
# GULP energy per Si atom -5566.919285 kJ/mol
# Density = 2.633659 g / cm^3
# Si number density = 26.396672 Si / 1000 Ang^3
#
#
#
# Elastic Constant Matrix: (Units=GPa)
#
#
# Indices 1 2 3 4 5 6 
#
# 1 90.9295 12.9356 41.6354 0.0000 37.4829 0.0000
# 2 12.9356 55.1924 20.3238 0.0000 2.7926 0.0000
# 3 41.6354 20.3238 142.1039 0.0000 43.4886 0.0000
# 4 0.0000 0.0000 0.0000 21.2788 0.0000 0.0696
# 5 37.4829 2.7926 43.4886 0.0000 50.6476 0.0000
# 6 0.0000 0.0000 0.0000 0.0696 0.0000 18.7943
#
#
#
# Elastic Compliance Matrix: (Units=1/GPa)
#
#
# Indices 1 2 3 4 5 6 
#
# 1 0.016477 -0.002933 -0.000985 0.000000 -0.011187 0.000000
# 2 -0.002933 0.019764 -0.003117 0.000000 0.003758 0.000000
# 3 -0.000985 -0.003117 0.010168 0.000000 -0.007830 0.000000
# 4 0.000000 0.000000 0.000000 0.046996 0.000000 -0.000174
# 5 -0.011187 0.003758 -0.007830 0.000000 0.034540 0.000000
# 6 0.000000 0.000000 0.000000 -0.000174 0.000000 0.053208
#
#
# Mechanical properties :
#
#
# Convention : Reuss Voigt Hill
#
# Bulk Modulus (GPa) = 30.92275 48.66837 39.79556
# Shear Modulus (GPa) = 24.27168 32.36620 28.31894
#
# Velocity S-wave (km/s) = 3.03561 3.50544 3.27895
# Velocity P-wave (km/s) = 4.90170 5.90436 5.42624
#
# Compressibility (1/GPa) = 0.03233865
#
# Stress axis : x y z
#
# Youngs Moduli (GPa) = 60.68992 50.59803 98.35164
#
# Poissons Ratio (x) = 0.14842 0.09683
# Poissons Ratio (y) = 0.17802 0.30658
# Poissons Ratio (z) = 0.05975 0.15772
#
# Static dielectric constant tensor:
#      x y z
#    x 2.164970 0.000000 0.061680 
#    y 0.000000 2.152280 0.000000 
#    z 0.061680 0.000000 2.284630 
# 
# From -- ./inp_files/138260.got.cif
#   From: 2010.05.17/outbox.cif.g08.bks.cpg/sg15_70_cif.got.tgz:138260.got - 2010.06.03 18:47:42.
