data_PCOD9269943
_publ_section_title
;
Structure prediction by ZEFSAII (Michael W. Deem and Ramdas Pophale) SiO2 
 PCOD9269943
Probable space group: C 2/C
;
_chemical_formula_sum "Si O2"
_cell_formula_units_Z 32
_cell_length_a 11.965018
_cell_length_b 30.867593
_cell_length_c 14.078506
_cell_angle_alpha 90.000000
_cell_angle_beta 159.355814
_cell_angle_gamma 90.000000
_cell_volume 1833.200419
_symmetry_space_group_name_H-M "C 2/C"
_symmetry_group_IT_number 15
_symmetry_cell_setting 'monoclinic'
loop_
_space_group_symop_operation_xyz
x,y,z
-x,y,1/2-z
-x,-y,-z
x,-y,1/2+z
1/2+x,1/2+y,z
1/2-x,1/2+y,1/2-z
1/2-x,1/2-y,-z
1/2+x,1/2-y,1/2+z
loop_
_atom_site_type_symbol
_atom_site_label
_atom_site_fract_x
_atom_site_fract_y
_atom_site_fract_z
Si Si1 0.619066 0.863961 0.950988
Si Si2 0.337210 0.228640 0.224446
Si Si3 0.736501 0.941659 0.736244
Si Si4 0.070137 0.534695 0.694256
O O1 0.500000 0.873213 0.750000
O O2 0.453178 0.818657 0.847403
O O3 0.488111 0.902737 0.910309
O O4 0.000000 0.859630 0.250000
O O5 0.500000 0.235244 0.250000
O O6 0.474481 0.262839 0.409063
O O7 0.690616 0.947881 0.586736
O O8 0.629613 0.985698 0.704688
O O9 0.104474 0.937891 0.056955
O O10 0.000000 0.533852 0.750000
#
# Coordination Sequence:
#
# PCOD9269943 Si02
#       4
#     8   8   8   8
#     4  11  20  30  47  70 100 130 157 193 229 274
#     4   9  16  27  42  63  93 128 156 180 224 280
#     4  10  21  33  49  72  93 122 162 193 229 283
#     4  10  20  35  51  67  94 125 155 197 239 273
#
# _framework density 17.455811000000001
#
# number of rings (size 3 to 8) (size 9 to 14) (size 15 to 20)
#    0.000    2.000    0.000    6.750    0.000    4.000 
#    0.000    0.000    0.000    0.000    0.000    0.000 
#    0.000   20.000    0.000    0.000    0.000    0.000 
#
# Total GULP energy -89126.381118 kJ/mol
# GULP energy per Si atom -5570.398820 kJ/mol
# Density = 1.741608 g / cm^3
# Si number density = 17.455811 Si / 1000 Ang^3
#
#
#
# Elastic Constant Matrix: (Units=GPa)
#
#
# Indices 1 2 3 4 5 6 
#
# 1 65.2502 27.6139 10.0782 -0.0001 -13.7305 -0.0008
# 2 27.6139 71.3885 35.0742 -0.0003 -4.5041 0.0002
# 3 10.0782 35.0742 70.7184 0.0010 -22.3682 -0.0030
# 4 -0.0001 -0.0003 0.0010 17.4793 0.0000 2.0545
# 5 -13.7305 -4.5041 -22.3682 0.0000 22.7491 -0.0007
# 6 -0.0008 0.0002 -0.0030 2.0545 -0.0007 5.3337
#
#
#
# Elastic Compliance Matrix: (Units=1/GPa)
#
#
# Indices 1 2 3 4 5 6 
#
# 1 0.023563 -0.012442 0.009481 -0.000002 0.021080 0.000013
# 2 -0.012442 0.026093 -0.017285 0.000003 -0.019339 -0.000016
# 3 0.009481 -0.017285 0.032061 -0.000005 0.033824 0.000026
# 4 -0.000002 0.000003 -0.000005 0.059924 -0.000006 -0.023082
# 5 0.021080 -0.019339 0.033824 -0.000006 0.086110 0.000036
# 6 0.000013 -0.000016 0.000026 -0.023082 0.000036 0.196376
#
#
# Mechanical properties :
#
#
# Convention : Reuss Voigt Hill
#
# Bulk Modulus (GPa) = 24.25830 39.20998 31.73414
# Shear Modulus (GPa) = 10.45235 18.08516 14.26875
#
# Velocity S-wave (km/s) = 2.44967 3.22227 2.86216
# Velocity P-wave (km/s) = 4.68277 6.02953 5.39831
#
# Compressibility (1/GPa) = 0.04122300
#
# Stress axis : x y z
#
# Youngs Moduli (GPa) = 42.43991 38.32446 31.19056
#
# Poissons Ratio (x) = 0.47685 -0.29571
# Poissons Ratio (y) = 0.52805 0.53914
# Poissons Ratio (z) = -0.40236 0.66245
#
# Static dielectric constant tensor:
#      x y z
#    x 1.595930 0.000000 0.004450 
#    y 0.000000 1.613200 0.000000 
#    z 0.004450 0.000000 1.631790 
# 
# From -- ./inp_files/4612.got.cif
#   From: 2010.05.17/outbox.cif.g08.bks.cpg/sg15_3_cif.got.tgz:4612.got - 2010.06.03 18:47:42.
