data_PCOD9269100
_publ_section_title
;
Structure prediction by ZEFSAII (Michael W. Deem and Ramdas Pophale) SiO2 
 PCOD9269100
Probable space group: C 2/C
;
_chemical_formula_sum "Si O2"
_cell_formula_units_Z 32
_cell_length_a 25.036414
_cell_length_b 13.206239
_cell_length_c 5.225376
_cell_angle_alpha 90.000000
_cell_angle_beta 116.241146
_cell_angle_gamma 90.000000
_cell_volume 1549.646850
_symmetry_space_group_name_H-M "C 2/C"
_symmetry_group_IT_number 15
_symmetry_cell_setting 'monoclinic'
loop_
_space_group_symop_operation_xyz
x,y,z
-x,y,1/2-z
-x,-y,-z
x,-y,1/2+z
1/2+x,1/2+y,z
1/2-x,1/2+y,1/2-z
1/2-x,1/2-y,-z
1/2+x,1/2-y,1/2+z
loop_
_atom_site_type_symbol
_atom_site_label
_atom_site_fract_x
_atom_site_fract_y
_atom_site_fract_z
Si Si1 0.566725 0.956889 0.110745
Si Si2 0.138436 0.714456 0.619910
Si Si3 0.671095 0.560920 0.038857
Si Si4 0.791291 0.662681 0.212198
O O1 0.575983 0.840620 0.053490
O O2 0.594897 0.976784 0.445123
O O3 0.500000 0.000000 0.000000
O O4 0.140678 0.831598 0.543602
O O5 0.164868 0.651545 0.436032
O O6 0.177640 0.700322 0.960661
O O7 0.655394 0.481021 0.226357
O O8 0.742875 0.578241 0.184982
O O9 0.750000 0.750000 0.000000
#
# Coordination Sequence:
#
# PCOD9269100 Si02
#       4
#     8   8   8   8
#     4  10  22  39  59  85 109 138 186 245 308 351
#     4  11  21  36  56  80 112 151 194 237 285 340
#     4  11  21  33  50  78 115 154 188 222 265 333
#     4  10  20  34  50  75 113 155 193 228 267 322
#
# _framework density 20.649865999999999
#
# number of rings (size 3 to 8) (size 9 to 14) (size 15 to 20)
#    0.000    1.500    0.000    9.000    0.000    6.000 
#    0.000    0.000    0.000    0.000    0.000   21.000 
#    0.000    0.000    0.000    0.000    0.000    0.000 
#
# Total GULP energy -89131.180058 kJ/mol
# GULP energy per Si atom -5570.698754 kJ/mol
# Density = 2.060287 g / cm^3
# Si number density = 20.649866 Si / 1000 Ang^3
#
#
#
# Elastic Constant Matrix: (Units=GPa)
#
#
# Indices 1 2 3 4 5 6 
#
# 1 67.9339 61.4737 35.9348 0.0000 -20.1021 0.0000
# 2 61.4737 95.3171 25.4473 0.0000 -9.4958 0.0000
# 3 35.9348 25.4473 134.8313 0.0000 -38.0182 0.0000
# 4 0.0000 0.0000 0.0000 35.9188 0.0000 -10.2227
# 5 -20.1021 -9.4958 -38.0182 0.0000 36.8984 0.0000
# 6 0.0000 0.0000 0.0000 -10.2227 0.0000 43.4697
#
#
#
# Elastic Compliance Matrix: (Units=1/GPa)
#
#
# Indices 1 2 3 4 5 6 
#
# 1 0.044444 -0.026481 -0.002737 0.000000 0.014579 0.000000
# 2 -0.026481 0.026851 -0.000183 0.000000 -0.007705 0.000000
# 3 -0.002737 -0.000183 0.010919 0.000000 0.009713 0.000000
# 4 0.000000 0.000000 0.000000 0.029838 0.000000 0.007017
# 5 0.014579 -0.007705 0.009713 0.000000 0.043068 0.000000
# 6 0.000000 0.000000 0.000000 0.007017 0.000000 0.024655
#
#
# Mechanical properties :
#
#
# Convention : Reuss Voigt Hill
#
# Bulk Modulus (GPa) = 42.70896 60.42157 51.56527
# Shear Modulus (GPa) = 20.29382 34.93915 27.61649
#
# Velocity S-wave (km/s) = 3.13830 4.11783 3.66097
# Velocity P-wave (km/s) = 5.81887 7.20640 6.54948
#
# Compressibility (1/GPa) = 0.02341429
#
# Stress axis : x y z
#
# Youngs Moduli (GPa) = 22.50002 37.24243 91.58222
#
# Poissons Ratio (x) = 0.98622 0.25062
# Poissons Ratio (y) = 0.59582 0.01672
# Poissons Ratio (z) = 0.06157 0.00680
#
# Static dielectric constant tensor:
#      x y z
#    x 1.772260 0.000000 -0.058470 
#    y 0.000000 1.773230 0.000000 
#    z -0.058470 0.000000 1.730480 
# 
# From -- ./inp_files/14839.got.cif
#   From: 2010.05.17/outbox.cif.g08.bks.cpg/sg15_8_cif.got.tgz:14839.got - 2010.06.03 18:47:42.
