data_PCOD9269436
_publ_section_title
;
Structure prediction by ZEFSAII (Michael W. Deem and Ramdas Pophale) SiO2 
 PCOD9269436
Probable space group: C 2/C
;
_chemical_formula_sum "Si O2"
_cell_formula_units_Z 40
_cell_length_a 18.651504
_cell_length_b 11.301527
_cell_length_c 11.855224
_cell_angle_alpha 90.000000
_cell_angle_beta 46.460040
_cell_angle_gamma 90.000000
_cell_volume 1811.487417
_symmetry_space_group_name_H-M "C 2/C"
_symmetry_group_IT_number 15
_symmetry_cell_setting 'monoclinic'
loop_
_space_group_symop_operation_xyz
x,y,z
-x,y,1/2-z
-x,-y,-z
x,-y,1/2+z
1/2+x,1/2+y,z
1/2-x,1/2+y,1/2-z
1/2-x,1/2-y,-z
1/2+x,1/2-y,1/2+z
loop_
_atom_site_type_symbol
_atom_site_label
_atom_site_fract_x
_atom_site_fract_y
_atom_site_fract_z
Si Si1 0.036222 0.657100 0.906597
Si Si2 0.178563 0.170667 0.155199
Si Si3 0.293648 0.591063 0.947118
Si Si4 0.568055 0.904676 0.775823
Si Si5 0.793187 0.254148 0.140301
O O1 0.072496 0.765338 0.790036
O O2 0.029513 0.536902 0.845400
O O3 0.130602 0.650804 0.889804
O O4 0.946635 0.665673 0.091071
O O5 0.228604 0.175449 0.225697
O O6 0.168912 0.039307 0.118534
O O7 0.250000 0.250000 0.000000
O O8 0.286850 0.670774 0.842197
O O9 0.180050 0.582458 0.113899
O O10 0.342243 0.666485 0.994911
O O11 0.500000 0.855738 0.750000
#
# Coordination Sequence:
#
# PCOD9269436 Si02
#       5
#     8   8   8   8   8
#     4   9  21  34  52  89 121 154 194 257 300 367
#     4  10  20  34  56  84 124 153 204 253 304 360
#     4  11  20  36  62  86 119 167 203 259 299 369
#     4  11  19  34  59  89 125 151 196 255 317 355
#     4   9  22  36  55  90 118 161 215 243 308 366
#
# _framework density 22.081302000000001
#
# number of rings (size 3 to 8) (size 9 to 14) (size 15 to 20)
#    1.200    0.800    4.000    0.000    5.600    0.000 
#    0.000    0.000    0.000    4.800   10.400    0.000 
#    0.000    0.000    0.000    0.000    0.000    0.000 
#
# Total GULP energy -111413.919477 kJ/mol
# GULP energy per Si atom -5570.695974 kJ/mol
# Density = 2.203104 g / cm^3
# Si number density = 22.081302 Si / 1000 Ang^3
#
#
#
# Elastic Constant Matrix: (Units=GPa)
#
#
# Indices 1 2 3 4 5 6 
#
# 1 42.1556 4.5046 24.7520 0.0000 20.6641 0.0000
# 2 4.5046 147.0796 58.5349 0.0000 8.7061 0.0000
# 3 24.7520 58.5349 117.7508 0.0000 2.4828 0.0000
# 4 0.0000 0.0000 0.0000 42.3695 0.0000 -2.7361
# 5 20.6641 8.7061 2.4828 0.0000 38.2475 0.0000
# 6 0.0000 0.0000 0.0000 -2.7361 0.0000 25.1995
#
#
#
# Elastic Compliance Matrix: (Units=1/GPa)
#
#
# Indices 1 2 3 4 5 6 
#
# 1 0.039765 0.004007 -0.009892 0.000000 -0.021754 0.000000
# 2 0.004007 0.008986 -0.005228 0.000000 -0.003871 0.000000
# 3 -0.009892 -0.005228 0.013051 0.000000 0.005687 0.000000
# 4 0.000000 0.000000 0.000000 0.023769 0.000000 0.002581
# 5 -0.021754 -0.003871 0.005687 0.000000 0.038410 0.000000
# 6 0.000000 0.000000 0.000000 0.002581 0.000000 0.039964
#
#
# Mechanical properties :
#
#
# Convention : Reuss Voigt Hill
#
# Bulk Modulus (GPa) = 25.26799 53.61878 39.44338
# Shear Modulus (GPa) = 25.08003 35.77626 30.42814
#
# Velocity S-wave (km/s) = 3.37383 4.02954 3.71618
# Velocity P-wave (km/s) = 5.16187 6.78121 6.02618
#
# Compressibility (1/GPa) = 0.03957577
#
# Stress axis : x y z
#
# Youngs Moduli (GPa) = 25.14772 111.28518 76.62473
#
# Poissons Ratio (x) = -0.44587 0.75797
# Poissons Ratio (y) = -0.10076 0.40056
# Poissons Ratio (z) = 0.24876 0.58175
#
# Static dielectric constant tensor:
#      x y z
#    x 1.819570 0.000000 0.003180 
#    y 0.000000 1.798340 0.000000 
#    z 0.003180 0.000000 1.867070 
# 
# From -- ./inp_files/116929.got.cif
#   From: 2010.05.17/outbox.cif.g08.bks.cpg/sg15_59_cif.got.tgz:116929.got - 2010.06.03 18:47:42.
