data_PCOD9269960
_publ_section_title
;
Structure prediction by ZEFSAII (Michael W. Deem and Ramdas Pophale) SiO2 
 PCOD9269960
Probable space group: C 2/C
;
_chemical_formula_sum "Si O2"
_cell_formula_units_Z 48
_cell_length_a 25.698935
_cell_length_b 8.926968
_cell_length_c 9.536845
_cell_angle_alpha 90.000000
_cell_angle_beta 68.193980
_cell_angle_gamma 90.000000
_cell_volume 2031.331733
_symmetry_space_group_name_H-M "C 2/C"
_symmetry_group_IT_number 15
_symmetry_cell_setting 'monoclinic'
loop_
_space_group_symop_operation_xyz
x,y,z
-x,y,1/2-z
-x,-y,-z
x,-y,1/2+z
1/2+x,1/2+y,z
1/2-x,1/2+y,1/2-z
1/2-x,1/2-y,-z
1/2+x,1/2-y,1/2+z
loop_
_atom_site_type_symbol
_atom_site_label
_atom_site_fract_x
_atom_site_fract_y
_atom_site_fract_z
Si Si1 0.296712 0.918407 0.893462
Si Si2 0.814243 0.243832 0.389288
Si Si3 0.626026 0.759554 0.900719
Si Si4 0.062649 0.177785 0.696413
Si Si5 0.038881 0.490274 0.096427
Si Si6 0.824064 0.159971 0.067052
O O1 0.321723 0.813854 0.745678
O O2 0.229869 0.928033 0.939235
O O3 0.326066 0.078705 0.854304
O O4 0.310455 0.828955 0.022408
O O5 0.750000 0.250000 0.500000
O O6 0.850692 0.186021 0.482334
O O7 0.822774 0.158058 0.235943
O O8 0.584922 0.676548 0.833770
O O9 0.592131 0.901287 0.991550
O O10 0.055355 0.350647 0.649072
O O11 0.114429 0.121417 0.551629
O O12 0.000000 0.110991 0.750000
O O13 0.000000 0.408160 0.250000
O O14 0.000000 0.500000 0.000000
#
# Coordination Sequence:
#
# PCOD9269960 Si02
#       6
#     8   8   8   8   8   8
#     4  10  21  39  57  78 117 156 189 233 291 343
#     4  12  23  35  57  88 118 149 194 238 285 338
#     4  11  20  35  52  80 115 153 185 233 282 345
#     4  10  20  35  52  77 115 151 194 227 284 351
#     4  11  20  31  49  78 113 154 188 229 287 349
#     4  10  22  37  57  82 115 154 191 234 290 339
#
# _framework density 23.629816999999999
#
# number of rings (size 3 to 8) (size 9 to 14) (size 15 to 20)
#    0.000    1.333    5.000    4.000    2.333    0.000 
#    0.000    0.000    0.000    0.000    0.000    5.833 
#    0.000    0.000    0.000    0.000    0.000    0.000 
#
# Total GULP energy -134207.856630 kJ/mol
# GULP energy per Si atom -5591.994026 kJ/mol
# Density = 2.357603 g / cm^3
# Si number density = 23.629817 Si / 1000 Ang^3
#
#
#
# Elastic Constant Matrix: (Units=GPa)
#
#
# Indices 1 2 3 4 5 6 
#
# 1 204.0834 20.9069 89.9303 0.0000 6.5343 0.0000
# 2 20.9069 46.1180 1.7459 0.0000 0.1339 0.0000
# 3 89.9303 1.7459 169.2253 0.0000 16.2818 0.0000
# 4 0.0000 0.0000 0.0000 1.9164 0.0000 -11.1360
# 5 6.5343 0.1339 16.2818 0.0000 58.2554 0.0000
# 6 0.0000 0.0000 0.0000 -11.1360 0.0000 8.5683
#
#
#
# Elastic Compliance Matrix: (Units=1/GPa)
#
#
# Indices 1 2 3 4 5 6 
#
# 1 0.006777 -0.002937 -0.003595 0.000000 0.000251 0.000000
# 2 -0.002937 0.022965 0.001333 0.000000 -0.000096 0.000000
# 3 -0.003595 0.001333 0.007982 0.000000 -0.001831 0.000000
# 4 0.000000 0.000000 0.000000 -0.079638 0.000000 -0.103503
# 5 0.000251 -0.000096 -0.001831 0.000000 0.017649 0.000000
# 6 0.000000 0.000000 0.000000 -0.103503 0.000000 -0.017812
#
#
# Mechanical properties :
#
#
# Convention : Reuss Voigt Hill
#
# Bulk Modulus (GPa) = 36.59569 71.62143 54.10856
# Shear Modulus (GPa) = -221.54325 34.20426 -93.66950
#
# Velocity S-wave (km/s) = -9.69326 3.80874 -6.30289
# Velocity P-wave (km/s) = 10.47657 7.05107 5.47909
#
# Compressibility (1/GPa) = 0.02732563
#
# Stress axis : x y z
#
# Youngs Moduli (GPa) = 147.55568 43.54507 125.27628
#
# Poissons Ratio (x) = 0.12789 0.45042
# Poissons Ratio (y) = 0.43336 -0.16700
# Poissons Ratio (z) = 0.53052 -0.05805
#
# Static dielectric constant tensor:
#      x y z
#    x 1.923410 0.000000 -0.000110 
#    y 0.000000 1.996950 0.000000 
#    z -0.000110 0.000000 1.849890 
# 
# From -- ./inp_files/60678.got.cif
#   From: 2010.05.17/outbox.cif.g08.bks.cpg/sg15_31_cif.got.tgz:60678.got - 2010.06.03 18:47:42.
