data_PCOD9269413
_publ_section_title
;
Structure prediction by ZEFSAII (Michael W. Deem and Ramdas Pophale) SiO2 
 PCOD9269413
Probable space group: C 2/C
;
_chemical_formula_sum "Si O2"
_cell_formula_units_Z 40
_cell_length_a 14.175819
_cell_length_b 26.839446
_cell_length_c 14.116545
_cell_angle_alpha 90.000000
_cell_angle_beta 20.970641
_cell_angle_gamma 90.000000
_cell_volume 1922.202383
_symmetry_space_group_name_H-M "C 2/C"
_symmetry_group_IT_number 15
_symmetry_cell_setting 'monoclinic'
loop_
_space_group_symop_operation_xyz
x,y,z
-x,y,1/2-z
-x,-y,-z
x,-y,1/2+z
1/2+x,1/2+y,z
1/2-x,1/2+y,1/2-z
1/2-x,1/2-y,-z
1/2+x,1/2-y,1/2+z
loop_
_atom_site_type_symbol
_atom_site_label
_atom_site_fract_x
_atom_site_fract_y
_atom_site_fract_z
Si Si1 0.724567 0.865670 0.966449
Si Si2 0.796655 0.055628 0.731921
Si Si3 0.423294 0.222407 0.211385
Si Si4 0.196611 0.375495 0.777482
Si Si5 0.090474 0.519565 0.565887
O O1 0.701598 0.851921 0.878174
O O2 0.000000 0.849524 0.750000
O O3 0.500000 0.849237 0.250000
O O4 0.709162 0.926229 0.977451
O O5 0.661665 0.030623 0.765638
O O6 0.063841 0.085340 0.460181
O O7 0.576194 0.094747 0.972728
O O8 0.793643 0.013696 0.815883
O O9 0.500000 0.222727 0.250000
O O10 0.307362 0.169090 0.292637
O O11 0.195203 0.262850 0.405564
O O12 0.000000 0.496346 0.750000
#
# Coordination Sequence:
#
# PCOD9269413 Si02
#       5
#     8   8   8   8   8
#     4  10  20  34  56  82 111 152 192 223 268 333
#     4  10  22  34  54  83 113 151 194 234 277 329
#     4  10  22  41  64  86 110 144 185 231 292 360
#     4  11  21  38  59  84 114 144 187 242 286 332
#     4   9  19  35  52  77 117 158 194 230 274 324
#
# _framework density 20.809463000000001
#
# number of rings (size 3 to 8) (size 9 to 14) (size 15 to 20)
#    0.000    2.000    0.000    4.800    0.000   11.200 
#    0.000    2.000    0.000    3.600    0.000    0.000 
#    0.000    0.000    0.000    0.000    0.000    0.000 
#
# Total GULP energy -111727.690431 kJ/mol
# GULP energy per Si atom -5586.384522 kJ/mol
# Density = 2.076210 g / cm^3
# Si number density = 20.809463 Si / 1000 Ang^3
#
#
#
# Elastic Constant Matrix: (Units=GPa)
#
#
# Indices 1 2 3 4 5 6 
#
# 1 33.3324 13.0843 23.1751 0.0056 6.4586 -0.0516
# 2 13.0843 43.9482 22.9130 0.0702 -3.8280 0.0044
# 3 23.1751 22.9130 131.4931 0.3207 -7.1960 0.0427
# 4 0.0056 0.0702 0.3207 24.1592 -0.0376 -1.3319
# 5 6.4586 -3.8280 -7.1960 -0.0376 19.0370 -0.0640
# 6 -0.0516 0.0044 0.0427 -1.3319 -0.0640 27.8070
#
#
#
# Elastic Compliance Matrix: (Units=1/GPa)
#
#
# Indices 1 2 3 4 5 6 
#
# 1 0.042621 -0.010884 -0.006664 0.000083 -0.019167 0.000051
# 2 -0.010884 0.028032 -0.002508 -0.000033 0.008381 -0.000003
# 3 -0.006664 -0.002508 0.009510 -0.000110 0.005351 -0.000020
# 4 0.000083 -0.000033 -0.000110 0.041503 0.000012 0.001988
# 5 -0.019167 0.008381 0.005351 0.000012 0.062740 0.000100
# 6 0.000051 -0.000003 -0.000020 0.001988 0.000100 0.036058
#
#
# Mechanical properties :
#
#
# Convention : Reuss Voigt Hill
#
# Bulk Modulus (GPa) = 24.96869 36.34648 30.65759
# Shear Modulus (GPa) = 18.25310 24.17407 21.21358
#
# Velocity S-wave (km/s) = 2.96489 3.41205 3.19630
# Velocity P-wave (km/s) = 4.87294 5.74691 5.32788
#
# Compressibility (1/GPa) = 0.04005016
#
# Stress axis : x y z
#
# Youngs Moduli (GPa) = 23.46269 35.67351 105.15721
#
# Poissons Ratio (x) = 0.38828 0.70080
# Poissons Ratio (y) = 0.25537 0.26369
# Poissons Ratio (z) = 0.15636 0.08945
#
# Static dielectric constant tensor:
#      x y z
#    x 1.856860 -0.000350 0.106140 
#    y -0.000350 1.725590 -0.000260 
#    z 0.106140 -0.000260 1.864260 
# 
# From -- ./inp_files/157150.got.cif
#   From: 2010.05.17/outbox.cif.g08.bks.cpg/sg15_79_cif.got.tgz:157150.got - 2010.06.03 18:47:42.
