data_PCOD9269532
_publ_section_title
;
Structure prediction by ZEFSAII (Michael W. Deem and Ramdas Pophale) SiO2 
 PCOD9269532
Probable space group: C 2/C
;
_chemical_formula_sum "Si O2"
_cell_formula_units_Z 48
_cell_length_a 7.922469
_cell_length_b 17.314490
_cell_length_c 19.569851
_cell_angle_alpha 90.000000
_cell_angle_beta 46.929411
_cell_angle_gamma 90.000000
_cell_volume 1961.036474
_symmetry_space_group_name_H-M "C 2/C"
_symmetry_group_IT_number 15
_symmetry_cell_setting 'monoclinic'
loop_
_space_group_symop_operation_xyz
x,y,z
-x,y,1/2-z
-x,-y,-z
x,-y,1/2+z
1/2+x,1/2+y,z
1/2-x,1/2+y,1/2-z
1/2-x,1/2-y,-z
1/2+x,1/2-y,1/2+z
loop_
_atom_site_type_symbol
_atom_site_label
_atom_site_fract_x
_atom_site_fract_y
_atom_site_fract_z
Si Si1 0.322357 0.894294 0.909841
Si Si2 0.500000 0.592310 0.250000
Si Si3 0.067618 0.138211 0.882541
Si Si4 0.000000 0.724845 0.250000
Si Si5 0.338460 0.835899 0.118114
Si Si6 0.367809 0.027070 0.708667
Si Si7 0.833145 0.694284 0.085905
O O1 0.380765 0.828246 0.839161
O O2 0.490952 0.865194 0.924184
O O3 0.406467 0.972929 0.851699
O O4 0.070602 0.895214 0.013278
O O5 0.325093 0.535228 0.260158
O O6 0.597733 0.649496 0.164682
O O7 0.258262 0.081438 0.797778
O O8 0.159000 0.221719 0.881817
O O9 0.868382 0.150604 0.879653
O O10 0.782354 0.780078 0.293220
O O11 0.403985 0.914920 0.135613
O O12 0.557252 0.800846 0.019240
#
# Coordination Sequence:
#
# PCOD9269532 Si02
#       7
#     8   4   8   4   8   8   8
#     4  10  22  32  57  84 116 146 189 238 277 330
#     4  10  21  34  53  86 120 150 176 234 291 322
#     4  11  18  36  56  87 113 148 191 232 276 333
#     4  12  17  38  57  84 106 148 202 226 275 332
#     4  11  18  32  61  86 112 147 191 232 275 333
#     4  11  21  34  55  89 119 145 180 241 283 330
#     4  10  20  34  57  88 115 148 190 233 274 335
#
# _framework density 24.476851
#
# number of rings (size 3 to 8) (size 9 to 14) (size 15 to 20)
#    0.000    1.333    6.667    1.000    2.333    2.000 
#    0.000    1.667    3.667    3.000    0.000    0.000 
#    0.000    0.000    0.000    0.000    0.000    0.000 
#
# Total GULP energy -134089.949427 kJ/mol
# GULP energy per Si atom -5587.081226 kJ/mol
# Density = 2.442114 g / cm^3
# Si number density = 24.476851 Si / 1000 Ang^3
#
#
#
# Elastic Constant Matrix: (Units=GPa)
#
#
# Indices 1 2 3 4 5 6 
#
# 1 18.2080 27.8806 5.5849 0.0002 -4.4841 -0.0007
# 2 27.8806 191.0398 88.8527 0.0000 -1.1213 -0.0005
# 3 5.5849 88.8527 191.2662 -0.0005 20.2183 -0.0010
# 4 0.0002 0.0000 -0.0005 41.2248 0.0003 -4.8022
# 5 -4.4841 -1.1213 20.2183 0.0003 10.3810 0.0013
# 6 -0.0007 -0.0005 -0.0010 -4.8022 0.0013 30.0040
#
#
#
# Elastic Compliance Matrix: (Units=1/GPa)
#
#
# Indices 1 2 3 4 5 6 
#
# 1 0.081134 -0.011195 -0.000938 -0.000001 0.035664 0.000000
# 2 -0.011195 0.008879 -0.004266 0.000000 0.004432 0.000000
# 3 -0.000938 -0.004266 0.009229 0.000000 -0.018841 0.000001
# 4 -0.000001 0.000000 0.000000 0.024718 -0.000002 0.003956
# 5 0.035664 0.004432 -0.018841 -0.000002 0.148909 -0.000006
# 6 0.000000 0.000000 0.000001 0.003956 -0.000006 0.033962
#
#
# Mechanical properties :
#
#
# Convention : Reuss Voigt Hill
#
# Bulk Modulus (GPa) = 15.05065 71.68339 43.36702
# Shear Modulus (GPa) = 13.82068 34.86837 24.34452
#
# Velocity S-wave (km/s) = 2.37880 3.77841 3.15714
# Velocity P-wave (km/s) = 3.70232 6.95593 5.57190
#
# Compressibility (1/GPa) = 0.06644231
#
# Stress axis : x y z
#
# Youngs Moduli (GPa) = 12.32535 112.63139 108.35180
#
# Poissons Ratio (x) = 1.26091 0.10167
# Poissons Ratio (y) = 0.13798 0.46224
# Poissons Ratio (z) = 0.01157 0.48050
#
# Static dielectric constant tensor:
#      x y z
#    x 2.085980 0.000000 0.049440 
#    y 0.000000 1.881890 0.000000 
#    z 0.049440 0.000000 2.028040 
# 
# From -- ./inp_files/143506.got.cif
#   From: 2010.05.17/outbox.cif.g08.bks.cpg/sg15_72_cif.got.tgz:143506.got - 2010.06.03 18:47:42.
