data_PCOD9269993
_publ_section_title
;
Structure prediction by ZEFSAII (Michael W. Deem and Ramdas Pophale) SiO2 
 PCOD9269993
Probable space group: C 2/C
;
_chemical_formula_sum "Si O2"
_cell_formula_units_Z 40
_cell_length_a 15.938179
_cell_length_b 17.503526
_cell_length_c 8.780691
_cell_angle_alpha 90.000000
_cell_angle_beta 53.730843
_cell_angle_gamma 90.000000
_cell_volume 1974.972127
_symmetry_space_group_name_H-M "C 2/C"
_symmetry_group_IT_number 15
_symmetry_cell_setting 'monoclinic'
loop_
_space_group_symop_operation_xyz
x,y,z
-x,y,1/2-z
-x,-y,-z
x,-y,1/2+z
1/2+x,1/2+y,z
1/2-x,1/2+y,1/2-z
1/2-x,1/2-y,-z
1/2+x,1/2-y,1/2+z
loop_
_atom_site_type_symbol
_atom_site_label
_atom_site_fract_x
_atom_site_fract_y
_atom_site_fract_z
Si Si1 0.907493 0.097070 0.152309
Si Si2 0.056688 0.725400 0.849130
Si Si3 0.768238 0.655199 0.663462
Si Si4 0.096175 0.724426 0.241434
Si Si5 0.859500 0.038303 0.527963
O O1 0.911420 0.187856 0.140676
O O2 0.847450 0.067213 0.368077
O O3 0.864023 0.052498 0.051898
O O4 0.026698 0.070516 0.047844
O O5 0.162619 0.680672 0.765720
O O6 0.000000 0.729794 0.750000
O O7 0.968181 0.688648 0.051947
O O8 0.842578 0.667297 0.436428
O O9 0.674619 0.713924 0.727025
O O10 0.719755 0.575709 0.767305
O O11 0.000000 0.761316 0.250000
#
# Coordination Sequence:
#
# PCOD9269993 Si02
#       5
#     8   8   8   8   8
#     4  10  20  35  53  80 122 150 188 239 288 349
#     4  11  20  36  56  89 121 152 192 247 293 339
#     4  10  20  35  57  83 118 156 198 238 290 354
#     4   9  19  33  51  81 114 149 194 236 286 336
#     4  10  20  36  53  83 115 158 188 229 298 352
#
# _framework density 20.253450999999998
#
# number of rings (size 3 to 8) (size 9 to 14) (size 15 to 20)
#    0.000    2.000    4.000    0.000    0.000    8.000 
#    3.600    0.000    0.000    0.000    0.000   47.600 
#    0.000    0.000    0.000    0.000    0.000    0.000 
#
# Total GULP energy -111405.868776 kJ/mol
# GULP energy per Si atom -5570.293439 kJ/mol
# Density = 2.020735 g / cm^3
# Si number density = 20.253451 Si / 1000 Ang^3
#
#
#
# Elastic Constant Matrix: (Units=GPa)
#
#
# Indices 1 2 3 4 5 6 
#
# 1 51.9490 22.6050 37.3198 0.0000 -17.2713 0.0000
# 2 22.6050 44.8862 26.9318 0.0000 -0.2048 0.0000
# 3 37.3198 26.9318 76.9504 0.0000 -2.9565 0.0000
# 4 0.0000 0.0000 0.0000 21.2525 0.0000 -0.0647
# 5 -17.2713 -0.2048 -2.9565 0.0000 19.6829 0.0000
# 6 0.0000 0.0000 0.0000 -0.0647 0.0000 18.2125
#
#
#
# Elastic Compliance Matrix: (Units=1/GPa)
#
#
# Indices 1 2 3 4 5 6 
#
# 1 0.055290 -0.015943 -0.019490 0.000000 0.045422 0.000000
# 2 -0.015943 0.032826 -0.004306 0.000000 -0.014295 0.000000
# 3 -0.019490 -0.004306 0.023431 0.000000 -0.013627 0.000000
# 4 0.000000 0.000000 0.000000 0.047054 0.000000 0.000167
# 5 0.045422 -0.014295 -0.013627 0.000000 0.088467 0.000000
# 6 0.000000 0.000000 0.000000 0.000167 0.000000 0.054908
#
#
# Mechanical properties :
#
#
# Convention : Reuss Voigt Hill
#
# Bulk Modulus (GPa) = 31.18226 38.61097 34.89661
# Shear Modulus (GPa) = 12.75049 17.62486 15.18767
#
# Velocity S-wave (km/s) = 2.51180 2.95314 2.74137
# Velocity P-wave (km/s) = 4.88279 5.54377 5.22374
#
# Compressibility (1/GPa) = 0.03206952
#
# Stress axis : x y z
#
# Youngs Moduli (GPa) = 18.08654 30.46374 42.67873
#
# Poissons Ratio (x) = 0.48569 0.83179
# Poissons Ratio (y) = 0.28836 0.18376
# Poissons Ratio (z) = 0.35250 0.13117
#
# Static dielectric constant tensor:
#      x y z
#    x 1.751510 0.000000 0.035380 
#    y 0.000000 1.681820 0.000000 
#    z 0.035380 0.000000 1.801110 
# 
# From -- ./inp_files/48296.got.cif
#   From: 2010.05.17/outbox.cif.g08.bks.cpg/sg15_25_cif.got.tgz:48296.got - 2010.06.03 18:47:42.
