data_PCOD9269340
_publ_section_title
;
Structure prediction by ZEFSAII (Michael W. Deem and Ramdas Pophale) SiO2 
 PCOD9269340
Probable space group: C 2/C
;
_chemical_formula_sum "Si O2"
_cell_formula_units_Z 56
_cell_length_a 22.102415
_cell_length_b 10.550214
_cell_length_c 13.020908
_cell_angle_alpha 90.000000
_cell_angle_beta 88.063596
_cell_angle_gamma 90.000000
_cell_volume 3034.549268
_symmetry_space_group_name_H-M "C 2/C"
_symmetry_group_IT_number 15
_symmetry_cell_setting 'monoclinic'
loop_
_space_group_symop_operation_xyz
x,y,z
-x,y,1/2-z
-x,-y,-z
x,-y,1/2+z
1/2+x,1/2+y,z
1/2-x,1/2+y,1/2-z
1/2-x,1/2-y,-z
1/2+x,1/2-y,1/2+z
loop_
_atom_site_type_symbol
_atom_site_label
_atom_site_fract_x
_atom_site_fract_y
_atom_site_fract_z
Si Si1 0.421765 0.120861 0.554069
Si Si2 0.559007 0.833012 0.026956
Si Si3 0.248330 0.555259 0.441518
Si Si4 0.768994 0.147531 0.771399
Si Si5 0.637548 0.888760 0.218895
Si Si6 0.337933 0.700901 0.573105
Si Si7 0.822392 0.629499 0.400512
O O1 0.487760 0.183347 0.546472
O O2 0.392587 0.123853 0.668328
O O3 0.375258 0.177052 0.473385
O O4 0.430707 0.973397 0.521321
O O5 0.595192 0.832296 0.132626
O O6 0.592795 0.733302 0.952232
O O7 0.260388 0.479999 0.336732
O O8 0.308162 0.615512 0.486516
O O9 0.198973 0.665802 0.429023
O O10 0.220253 0.457452 0.525615
O O11 0.704569 0.171719 0.719546
O O12 0.820537 0.140263 0.682547
O O13 0.786174 0.259388 0.848057
O O14 0.648425 0.035209 0.185462
#
# Coordination Sequence:
#
# PCOD9269340 Si02
#       7
#     8   8   8   8   8   8   8
#     4  10  20  34  55  82 121 150 197 246 287 355
#     4  10  20  36  54  81 115 162 194 234 298 358
#     4  11  21  37  54  88 120 155 191 246 305 355
#     4  12  22  33  60  87 119 156 196 249 302 358
#     4  11  19  34  54  85 115 151 194 240 302 359
#     4  11  21  39  58  80 128 156 192 246 302 365
#     4  11  21  36  55  91 121 149 197 250 303 366
#
# _framework density 18.454141
#
# number of rings (size 3 to 8) (size 9 to 14) (size 15 to 20)
#    0.000    1.143    5.714    3.429    0.000    0.000 
#    0.000    2.143    0.000    0.857    0.000    2.000 
#    0.000    0.000    0.000    0.000    0.000    0.000 
#
# Total GULP energy -156468.079350 kJ/mol
# GULP energy per Si atom -5588.145691 kJ/mol
# Density = 1.841214 g / cm^3
# Si number density = 18.454141 Si / 1000 Ang^3
#
#
#
# Elastic Constant Matrix: (Units=GPa)
#
#
# Indices 1 2 3 4 5 6 
#
# 1 130.6775 31.6043 58.4070 0.0000 -0.4328 0.0000
# 2 31.6043 32.7316 22.4988 0.0000 9.3202 0.0000
# 3 58.4070 22.4988 109.6258 0.0000 -3.8881 0.0000
# 4 0.0000 0.0000 0.0000 28.1037 0.0000 -2.1043
# 5 -0.4328 9.3202 -3.8881 0.0000 28.2257 0.0000
# 6 0.0000 0.0000 0.0000 -2.1043 0.0000 25.4577
#
#
#
# Elastic Compliance Matrix: (Units=1/GPa)
#
#
# Indices 1 2 3 4 5 6 
#
# 1 0.011811 -0.009184 -0.004315 0.000000 0.002619 0.000000
# 2 -0.009184 0.048009 -0.005554 0.000000 -0.016758 0.000000
# 3 -0.004315 -0.005554 0.012685 0.000000 0.003515 0.000000
# 4 0.000000 0.000000 0.000000 0.035804 0.000000 0.002960
# 5 0.002619 -0.016758 0.003515 0.000000 0.041487 0.000000
# 6 0.000000 0.000000 0.000000 0.002960 0.000000 0.039525
#
#
# Mechanical properties :
#
#
# Convention : Reuss Voigt Hill
#
# Bulk Modulus (GPa) = 29.07069 55.33943 42.20506
# Shear Modulus (GPa) = 20.92981 27.05909 23.99445
#
# Velocity S-wave (km/s) = 3.37137 3.83337 3.60977
# Velocity P-wave (km/s) = 5.56255 7.04596 6.34774
#
# Compressibility (1/GPa) = 0.03439890
#
# Stress axis : x y z
#
# Youngs Moduli (GPa) = 84.66843 20.82951 78.83045
#
# Poissons Ratio (x) = 0.19130 0.34014
# Poissons Ratio (y) = 0.77758 0.43785
# Poissons Ratio (z) = 0.36533 0.11569
#
# Static dielectric constant tensor:
#      x y z
#    x 1.630710 0.000000 0.001580 
#    y 0.000000 1.630300 0.000000 
#    z 0.001580 0.000000 1.659500 
# 
# From -- ./inp_files/111063.got.cif
#   From: 2010.05.17/outbox.cif.g08.bks.cpg/sg15_56_cif.got.tgz:111063.got - 2010.06.03 18:47:42.
