data_PCOD9269368
_publ_section_title
;
Structure prediction by ZEFSAII (Michael W. Deem and Ramdas Pophale) SiO2 
 PCOD9269368
Probable space group: C 2/C
;
_chemical_formula_sum "Si O2"
_cell_formula_units_Z 56
_cell_length_a 18.195179
_cell_length_b 17.945097
_cell_length_c 15.770194
_cell_angle_alpha 90.000000
_cell_angle_beta 146.897314
_cell_angle_gamma 90.000000
_cell_volume 2812.186664
_symmetry_space_group_name_H-M "C 2/C"
_symmetry_group_IT_number 15
_symmetry_cell_setting 'monoclinic'
loop_
_space_group_symop_operation_xyz
x,y,z
-x,y,1/2-z
-x,-y,-z
x,-y,1/2+z
1/2+x,1/2+y,z
1/2-x,1/2+y,1/2-z
1/2-x,1/2-y,-z
1/2+x,1/2-y,1/2+z
loop_
_atom_site_type_symbol
_atom_site_label
_atom_site_fract_x
_atom_site_fract_y
_atom_site_fract_z
Si Si1 0.000000 0.809347 0.750000
Si Si2 0.292297 0.504232 0.312840
Si Si3 0.110178 0.599575 0.059075
Si Si4 0.000000 0.934235 0.250000
Si Si5 0.782015 0.063352 0.068906
Si Si6 0.171395 0.390177 0.302810
Si Si7 0.030452 0.887929 0.092332
Si Si8 0.375352 0.731311 0.953483
O O1 0.880524 0.865425 0.659799
O O2 0.956265 0.766500 0.621885
O O3 0.286833 0.449806 0.388642
O O4 0.338686 0.441220 0.290582
O O5 0.408345 0.565386 0.433057
O O6 0.150860 0.548686 0.177263
O O7 0.959570 0.598274 0.879653
O O8 0.213976 0.561455 0.094258
O O9 0.147056 0.685909 0.101414
O O10 0.998465 0.885147 0.162005
O O11 0.128659 0.990552 0.366014
O O12 0.660256 0.089042 0.889632
O O13 0.237823 0.310883 0.346327
O O14 0.056258 0.816769 0.056519
#
# Coordination Sequence:
#
# PCOD9269368 Si02
#       8
#     4   8   8   4   8   8   8   8
#     4   9  20  36  54  78 128 157 194 238 285 360
#     4  10  20  37  59  85 115 153 204 249 292 356
#     4  12  23  34  58  84 128 160 187 245 310 365
#     4  11  18  38  68  90 110 151 210 270 283 336
#     4  10  20  34  55  89 113 153 200 238 300 350
#     4  10  22  37  51  85 123 159 195 243 298 364
#     4  10  20  38  64  88 115 154 207 256 291 343
#     4  10  24  36  56  89 124 163 202 237 299 367
#
# _framework density 19.913329999999998
#
# number of rings (size 3 to 8) (size 9 to 14) (size 15 to 20)
#    0.000    1.714    2.857    1.714   10.000    1.143 
#    0.000    0.000    0.000    0.857    7.429    0.000 
#    0.000    0.000    0.000    0.000    0.000    0.000 
#
# Total GULP energy -155906.641195 kJ/mol
# GULP energy per Si atom -5568.094328 kJ/mol
# Density = 1.986801 g / cm^3
# Si number density = 19.913330 Si / 1000 Ang^3
#
#
#
# Elastic Constant Matrix: (Units=GPa)
#
#
# Indices 1 2 3 4 5 6 
#
# 1 62.5179 19.0172 2.3490 0.0000 -10.4038 0.0000
# 2 19.0172 93.1994 28.8347 0.0000 -4.2919 0.0000
# 3 2.3490 28.8347 66.5059 0.0001 4.0192 0.0001
# 4 0.0000 0.0000 0.0001 15.7846 0.0000 7.9289
# 5 -10.4038 -4.2919 4.0192 0.0000 29.5989 0.0000
# 6 0.0000 0.0000 0.0001 7.9289 0.0000 16.9686
#
#
#
# Elastic Compliance Matrix: (Units=1/GPa)
#
#
# Indices 1 2 3 4 5 6 
#
# 1 0.018020 -0.003590 0.000574 0.000000 0.005736 0.000000
# 2 -0.003590 0.013301 -0.005727 0.000000 0.001444 0.000000
# 3 0.000574 -0.005727 0.017682 0.000000 -0.003030 0.000000
# 4 0.000000 0.000000 0.000000 0.082784 0.000000 -0.038682
# 5 0.005736 0.001444 -0.003030 0.000000 0.036422 0.000000
# 6 0.000000 0.000000 0.000000 -0.038682 0.000000 0.077007
#
#
# Mechanical properties :
#
#
# Convention : Reuss Voigt Hill
#
# Bulk Modulus (GPa) = 31.73055 35.84724 33.78889
# Shear Modulus (GPa) = 18.30097 23.93856 21.11977
#
# Velocity S-wave (km/s) = 3.03484 3.47095 3.26019
# Velocity P-wave (km/s) = 5.31500 5.83986 5.58360
#
# Compressibility (1/GPa) = 0.03151537
#
# Stress axis : x y z
#
# Youngs Moduli (GPa) = 55.49239 75.18376 56.55391
#
# Poissons Ratio (x) = 0.26994 -0.03244
# Poissons Ratio (y) = 0.19924 0.32390
# Poissons Ratio (z) = -0.03183 0.43059
#
# Static dielectric constant tensor:
#      x y z
#    x 1.783300 0.000000 -0.031880 
#    y 0.000000 1.750770 0.000000 
#    z -0.031880 0.000000 1.795020 
# 
# From -- ./inp_files/50389.got.cif
#   From: 2010.05.17/outbox.cif.g08.bks.cpg/sg15_26_cif.got.tgz:50389.got - 2010.06.03 18:47:42.
