data_PCOD9269917
_publ_section_title
;
Structure prediction by ZEFSAII (Michael W. Deem and Ramdas Pophale) SiO2 
 PCOD9269917
Probable space group: C 2/C
;
_chemical_formula_sum "Si O2"
_cell_formula_units_Z 56
_cell_length_a 17.688878
_cell_length_b 25.773972
_cell_length_c 8.900515
_cell_angle_alpha 90.000000
_cell_angle_beta 140.004081
_cell_angle_gamma 90.000000
_cell_volume 2608.119009
_symmetry_space_group_name_H-M "C 2/C"
_symmetry_group_IT_number 15
_symmetry_cell_setting 'monoclinic'
loop_
_space_group_symop_operation_xyz
x,y,z
-x,y,1/2-z
-x,-y,-z
x,-y,1/2+z
1/2+x,1/2+y,z
1/2-x,1/2+y,1/2-z
1/2-x,1/2-y,-z
1/2+x,1/2-y,1/2+z
loop_
_atom_site_type_symbol
_atom_site_label
_atom_site_fract_x
_atom_site_fract_y
_atom_site_fract_z
Si Si1 0.046646 0.644643 0.662069
Si Si2 0.871974 0.291580 0.709732
Si Si3 0.311283 0.347739 0.883110
Si Si4 0.052260 0.174553 0.620362
Si Si5 0.136824 0.450714 0.957750
Si Si6 0.364923 0.060537 0.387641
Si Si7 0.741940 0.151911 0.749360
O O1 0.179485 0.656934 0.815981
O O2 0.000000 0.666625 0.750000
O O3 0.973222 0.669687 0.415199
O O4 0.997150 0.585367 0.589042
O O5 0.773494 0.301189 0.689407
O O6 0.922563 0.234125 0.794192
O O7 0.819422 0.311275 0.471924
O O8 0.224441 0.393743 0.700160
O O9 0.381778 0.358754 0.147661
O O10 0.413808 0.335029 0.922341
O O11 0.120853 0.162832 0.570784
O O12 0.170842 0.451275 0.836439
O O13 0.000000 0.435198 0.750000
O O14 0.144570 0.507863 0.037023
O O15 0.210196 0.406974 0.154661
#
# Coordination Sequence:
#
# PCOD9269917 Si02
#       7
#     8   8   8   8   8   8   8
#     4  11  23  37  55  88 129 156 192 249 303 355
#     4  10  20  36  63  93 116 157 198 250 296 357
#     4   9  19  36  55  93 125 143 200 251 291 352
#     4  10  20  34  67  88 119 159 198 250 300 345
#     4  12  21  37  58  91 118 153 198 255 301 359
#     4  11  23  38  59  86 122 156 199 249 305 349
#     4  11  20  37  59  92 121 147 208 248 291 361
#
# _framework density 21.471412000000001
#
# number of rings (size 3 to 8) (size 9 to 14) (size 15 to 20)
#    0.000    1.429    5.714    3.000    8.000    0.000 
#    0.000    1.429    0.000    0.000    0.000    0.000 
#    0.000    0.000    0.000    0.000    0.000    0.000 
#
# Total GULP energy -156242.124338 kJ/mol
# GULP energy per Si atom -5580.075869 kJ/mol
# Density = 2.142254 g / cm^3
# Si number density = 21.471412 Si / 1000 Ang^3
#
#
#
# Elastic Constant Matrix: (Units=GPa)
#
#
# Indices 1 2 3 4 5 6 
#
# 1 215.3656 44.5623 25.2666 0.0000 15.4449 0.0000
# 2 44.5623 112.1961 3.5895 0.0000 7.6707 0.0000
# 3 25.2666 3.5895 18.8701 0.0000 1.9758 0.0000
# 4 0.0000 0.0000 0.0000 12.8600 0.0000 1.6843
# 5 15.4449 7.6707 1.9758 0.0000 32.9247 0.0000
# 6 0.0000 0.0000 0.0000 1.6843 0.0000 20.1941
#
#
#
# Elastic Compliance Matrix: (Units=1/GPa)
#
#
# Indices 1 2 3 4 5 6 
#
# 1 0.006093 -0.002046 -0.007567 0.000000 -0.001927 0.000000
# 2 -0.002046 0.009787 0.001022 0.000000 -0.001382 0.000000
# 3 -0.007567 0.001022 0.062980 0.000000 -0.000468 0.000000
# 4 0.000000 0.000000 0.000000 0.078619 0.000000 -0.006557
# 5 -0.001927 -0.001382 -0.000468 0.000000 0.031626 0.000000
# 6 0.000000 0.000000 0.000000 -0.006557 0.000000 0.050066
#
#
# Mechanical properties :
#
#
# Convention : Reuss Voigt Hill
#
# Bulk Modulus (GPa) = 16.21282 54.80763 35.51023
# Shear Modulus (GPa) = 18.05624 31.39666 24.72645
#
# Velocity S-wave (km/s) = 2.90305 3.82809 3.39720
# Velocity P-wave (km/s) = 4.33638 6.71717 5.65352
#
# Compressibility (1/GPa) = 0.06167957
#
# Stress axis : x y z
#
# Youngs Moduli (GPa) = 164.13434 102.17255 15.87796
#
# Poissons Ratio (x) = 0.20905 0.12015
# Poissons Ratio (y) = 0.33582 -0.01624
# Poissons Ratio (z) = 1.24198 -0.10447
#
# Static dielectric constant tensor:
#      x y z
#    x 1.879900 0.000000 0.001160 
#    y 0.000000 1.769660 0.000000 
#    z 0.001160 0.000000 1.824550 
# 
# From -- ./inp_files/51584.got.cif
#   From: 2010.05.17/outbox.cif.g08.bks.cpg/sg15_26_cif.got.tgz:51584.got - 2010.06.03 18:47:42.
