data_PCOD9269589
_publ_section_title
;
Structure prediction by ZEFSAII (Michael W. Deem and Ramdas Pophale) SiO2 
 PCOD9269589
Probable space group: C 2/C
;
_chemical_formula_sum "Si O2"
_cell_formula_units_Z 56
_cell_length_a 12.817720
_cell_length_b 12.214293
_cell_length_c 16.868835
_cell_angle_alpha 90.000000
_cell_angle_beta 124.698351
_cell_angle_gamma 90.000000
_cell_volume 2171.304699
_symmetry_space_group_name_H-M "C 2/C"
_symmetry_group_IT_number 15
_symmetry_cell_setting 'monoclinic'
loop_
_space_group_symop_operation_xyz
x,y,z
-x,y,1/2-z
-x,-y,-z
x,-y,1/2+z
1/2+x,1/2+y,z
1/2-x,1/2+y,1/2-z
1/2-x,1/2-y,-z
1/2+x,1/2-y,1/2+z
loop_
_atom_site_type_symbol
_atom_site_label
_atom_site_fract_x
_atom_site_fract_y
_atom_site_fract_z
Si Si1 0.496755 0.484160 0.378990
Si Si2 0.440685 0.294769 0.796989
Si Si3 0.208036 0.954515 0.088478
Si Si4 0.677824 0.800759 0.601466
Si Si5 0.077436 0.227246 0.718753
Si Si6 0.856032 0.634713 0.885409
Si Si7 0.086757 0.492927 0.443387
O O1 0.518788 0.596048 0.343481
O O2 0.351788 0.480908 0.351032
O O3 0.603408 0.483439 0.491232
O O4 0.511550 0.376904 0.335223
O O5 0.500000 0.225885 0.750000
O O6 0.305911 0.328269 0.703818
O O7 0.430229 0.236617 0.876957
O O8 0.196321 0.822609 0.075572
O O9 0.341543 0.990400 0.109401
O O10 0.586212 0.784522 0.637388
O O11 0.642995 0.889995 0.520682
O O12 0.213667 0.175975 0.804013
O O13 0.000000 0.295500 0.750000
O O14 0.872944 0.595765 0.983326
O O15 0.935579 0.535276 0.876297
#
# Coordination Sequence:
#
# PCOD9269589 Si02
#       7
#     8   8   8   8   8   8   8
#     4  10  20  34  58  85 106 137 185 225 275 328
#     4  11  20  35  56  81 110 145 182 229 270 315
#     4  10  20  35  57  84 109 138 179 232 273 319
#     4  10  21  34  56  82 108 140 185 223 270 334
#     4  10  20  38  56  80 110 140 179 235 278 316
#     4  10  23  36  54  80 109 144 188 217 266 340
#     4  11  20  38  55  77 113 149 176 221 274 323
#
# _framework density 25.790945000000001
#
# number of rings (size 3 to 8) (size 9 to 14) (size 15 to 20)
#    0.000    1.714    0.000    5.143    0.000    0.000 
#    0.000    7.857    0.000    0.000    0.000    0.000 
#    0.000    0.000    0.000    0.000    0.000    0.000 
#
# Total GULP energy -156149.074094 kJ/mol
# GULP energy per Si atom -5576.752646 kJ/mol
# Density = 2.573224 g / cm^3
# Si number density = 25.790945 Si / 1000 Ang^3
#
#
#
# Elastic Constant Matrix: (Units=GPa)
#
#
# Indices 1 2 3 4 5 6 
#
# 1 147.9601 6.5548 18.0737 0.0000 -22.6049 0.0000
# 2 6.5548 82.4377 22.0471 0.0000 -3.6257 0.0000
# 3 18.0737 22.0471 59.2713 0.0000 12.1696 0.0000
# 4 0.0000 0.0000 0.0000 49.2941 0.0000 -19.6794
# 5 -22.6049 -3.6257 12.1696 0.0000 43.3164 0.0000
# 6 0.0000 0.0000 0.0000 -19.6794 0.0000 59.1589
#
#
#
# Elastic Compliance Matrix: (Units=1/GPa)
#
#
# Indices 1 2 3 4 5 6 
#
# 1 0.007995 0.000597 -0.003743 0.000000 0.005274 0.000000
# 2 0.000597 0.013817 -0.005967 0.000000 0.003145 0.000000
# 3 -0.003743 -0.005967 0.022006 0.000000 -0.008635 0.000000
# 4 0.000000 0.000000 0.000000 0.023393 0.000000 0.007782
# 5 0.005274 0.003145 -0.008635 0.000000 0.028527 0.000000
# 6 0.000000 0.000000 0.000000 0.007782 0.000000 0.019492
#
#
# Mechanical properties :
#
#
# Convention : Reuss Voigt Hill
#
# Bulk Modulus (GPa) = 39.07520 42.55780 40.81650
# Shear Modulus (GPa) = 35.21452 46.55344 40.88398
#
# Velocity S-wave (km/s) = 3.69912 4.25317 3.98578
# Velocity P-wave (km/s) = 5.78172 6.37622 6.08623
#
# Compressibility (1/GPa) = 0.02559168
#
# Stress axis : x y z
#
# Youngs Moduli (GPa) = 125.07753 72.37410 45.44313
#
# Poissons Ratio (x) = -0.04323 0.17009
# Poissons Ratio (y) = -0.07470 0.27117
# Poissons Ratio (z) = 0.46815 0.43188
#
# Static dielectric constant tensor:
#      x y z
#    x 2.165690 0.000000 -0.021160 
#    y 0.000000 2.042720 0.000000 
#    z -0.021160 0.000000 2.043660 
# 
# From -- ./inp_files/198208.got.cif
#   From: 2010.05.17/outbox.cif.g08.bks.cpg/sg15_100_cif.got.tgz:198208.got - 2010.06.03 18:47:42.
