data_PCOD9269801
_publ_section_title
;
Structure prediction by ZEFSAII (Michael W. Deem and Ramdas Pophale) SiO2 
 PCOD9269801
Probable space group: C 2/C
;
_chemical_formula_sum "Si O2"
_cell_formula_units_Z 36
_cell_length_a 7.638374
_cell_length_b 17.918237
_cell_length_c 15.115054
_cell_angle_alpha 90.000000
_cell_angle_beta 89.219027
_cell_angle_gamma 90.000000
_cell_volume 2068.547763
_symmetry_space_group_name_H-M "C 2/C"
_symmetry_group_IT_number 15
_symmetry_cell_setting 'monoclinic'
loop_
_space_group_symop_operation_xyz
x,y,z
-x,y,1/2-z
-x,-y,-z
x,-y,1/2+z
1/2+x,1/2+y,z
1/2-x,1/2+y,1/2-z
1/2-x,1/2-y,-z
1/2+x,1/2-y,1/2+z
loop_
_atom_site_type_symbol
_atom_site_label
_atom_site_fract_x
_atom_site_fract_y
_atom_site_fract_z
Si Si1 0.500000 0.514896 0.250000
Si Si2 0.727698 0.161715 0.500436
Si Si3 0.442304 0.058478 0.575689
Si Si4 0.960894 0.067532 0.933677
Si Si5 0.355088 0.080838 0.186433
O O1 0.491310 0.463124 0.163521
O O2 0.672396 0.565303 0.236971
O O3 0.750000 0.250000 0.500000
O O4 0.579641 0.125823 0.566442
O O5 0.683525 0.127736 0.402946
O O6 0.911883 0.131239 0.534429
O O7 0.244423 0.085887 0.561501
O O8 0.500000 0.000000 0.500000
O O9 0.427915 0.001584 0.658075
O O10 0.000000 0.000000 0.000000
O O11 0.500000 0.115636 0.250000
#
# Coordination Sequence:
#
# PCOD9269801 Si02
#       5
#     4   8   8   8   8
#     4  10  20  34  64  90 108 144 210 248 274 342
#     4  11  23  38  57  85 125 155 186 240 299 350
#     4   9  18  34  59  85 106 147 191 237 280 338
#     4  11  19  37  62  87 113 152 196 242 288 339
#     4  10  20  34  61  87 109 151 199 244 281 343
#
# _framework density 17.403513
#
# number of rings (size 3 to 8) (size 9 to 14) (size 15 to 20)
#    0.000    1.778    6.667    1.333    3.111    0.889 
#    2.000    0.000    7.333    0.000    0.000    0.000 
#    0.000    0.000    0.000    0.000    0.000    0.000 
#
# Total GULP energy -100269.469686 kJ/mol
# GULP energy per Si atom -5570.526094 kJ/mol
# Density = 1.736390 g / cm^3
# Si number density = 17.403513 Si / 1000 Ang^3
#
#
#
# Elastic Constant Matrix: (Units=GPa)
#
#
# Indices 1 2 3 4 5 6 
#
# 1 120.3294 54.8980 55.1584 0.0000 -4.8124 0.0000
# 2 54.8980 122.0312 30.8010 0.0000 3.2926 0.0000
# 3 55.1584 30.8010 103.0644 0.0000 9.6496 0.0000
# 4 0.0000 0.0000 0.0000 11.0973 0.0000 7.5982
# 5 -4.8124 3.2926 9.6496 0.0000 32.3643 0.0000
# 6 0.0000 0.0000 0.0000 7.5982 0.0000 21.2810
#
#
#
# Elastic Compliance Matrix: (Units=1/GPa)
#
#
# Indices 1 2 3 4 5 6 
#
# 1 0.013427 -0.004587 -0.006219 0.000000 0.004317 0.000000
# 2 -0.004587 0.010431 -0.000513 0.000000 -0.001590 0.000000
# 3 -0.006219 -0.000513 0.013647 0.000000 -0.004942 0.000000
# 4 0.000000 0.000000 0.000000 0.119270 0.000000 -0.042585
# 5 0.004317 -0.001590 -0.004942 0.000000 0.033175 0.000000
# 6 0.000000 0.000000 0.000000 -0.042585 0.000000 0.062195
#
#
# Mechanical properties :
#
#
# Convention : Reuss Voigt Hill
#
# Bulk Modulus (GPa) = 67.27063 69.68221 68.47642
# Shear Modulus (GPa) = 17.87380 26.58635 22.23008
#
# Velocity S-wave (km/s) = 3.20820 3.91275 3.57786
# Velocity P-wave (km/s) = 7.24298 7.78067 7.51664
#
# Compressibility (1/GPa) = 0.01486533
#
# Stress axis : x y z
#
# Youngs Moduli (GPa) = 74.47801 95.87093 73.27524
#
# Poissons Ratio (x) = 0.43976 0.45571
# Poissons Ratio (y) = 0.34163 0.03762
# Poissons Ratio (z) = 0.46319 0.04922
#
# Static dielectric constant tensor:
#      x y z
#    x 2.078070 0.000000 -0.175620 
#    y 0.000000 1.575940 0.000000 
#    z -0.175620 0.000000 1.632200 
# 
# From -- ./inp_files/132837.got.cif
#   From: 2010.05.17/outbox.cif.g08.bks.cpg/sg15_67_cif.got.tgz:132837.got - 2010.06.03 18:47:42.
