data_PCOD9269955
_publ_section_title
;
Structure prediction by ZEFSAII (Michael W. Deem and Ramdas Pophale) SiO2 
 PCOD9269955
Probable space group: C 2/C
;
_chemical_formula_sum "Si O2"
_cell_formula_units_Z 60
_cell_length_a 27.616785
_cell_length_b 11.716790
_cell_length_c 29.815010
_cell_angle_alpha 90.000000
_cell_angle_beta 160.328978
_cell_angle_gamma 90.000000
_cell_volume 3247.546826
_symmetry_space_group_name_H-M "C 2/C"
_symmetry_group_IT_number 15
_symmetry_cell_setting 'monoclinic'
loop_
_space_group_symop_operation_xyz
x,y,z
-x,y,1/2-z
-x,-y,-z
x,-y,1/2+z
1/2+x,1/2+y,z
1/2-x,1/2+y,1/2-z
1/2-x,1/2-y,-z
1/2+x,1/2-y,1/2+z
loop_
_atom_site_type_symbol
_atom_site_label
_atom_site_fract_x
_atom_site_fract_y
_atom_site_fract_z
Si Si1 0.243648 0.928273 0.329865
Si Si2 0.821776 0.815075 0.508073
Si Si3 0.299979 0.677227 0.358495
Si Si4 0.323341 0.969575 0.301048
Si Si5 0.584547 0.309408 0.053262
Si Si6 0.000000 0.238502 0.250000
Si Si7 0.569502 0.509263 0.464429
Si Si8 0.393702 0.873906 0.997147
O O1 0.239761 0.792053 0.327157
O O2 0.334844 0.965319 0.364760
O O3 0.310811 0.006306 0.427296
O O4 0.080727 0.965704 0.183737
O O5 0.931838 0.823486 0.646453
O O6 0.650294 0.802160 0.367827
O O7 0.872724 0.705177 0.522520
O O8 0.841803 0.926793 0.495883
O O9 0.206637 0.598310 0.242990
O O10 0.443762 0.719018 0.458437
O O11 0.344400 0.589371 0.435705
O O12 0.187855 0.885900 0.173808
O O13 0.446233 0.910920 0.378056
O O14 0.533774 0.395553 0.970402
O O15 0.656639 0.205601 0.089044
#
# Coordination Sequence:
#
# PCOD9269955 Si02
#       8
#     8   8   8   8   8   4   8   8
#     4  12  23  33  53  79 122 167 211 243 265 326
#     4  10  23  42  69  95 123 139 192 247 330 382
#     4  11  22  35  50  77 118 173 209 238 272 318
#     4  11  22  34  50  75 121 167 213 243 271 318
#     4  10  20  35  52  74 113 165 209 243 284 317
#     4  10  22  44  70 100 116 138 174 264 336 396
#     4  10  21  38  56  81 114 159 193 245 293 346
#     4  11  25  33  57  88 116 159 200 246 294 346
#
# _framework density 18.475484000000002
#
# number of rings (size 3 to 8) (size 9 to 14) (size 15 to 20)
#    0.000    1.333    4.000    2.000   13.067    0.000 
#    0.000    0.000    0.000    0.000    0.000   15.867 
#    0.000    0.000    0.000    0.000    0.000    0.000 
#
# Total GULP energy -167255.902544 kJ/mol
# GULP energy per Si atom -5575.196751 kJ/mol
# Density = 1.843343 g / cm^3
# Si number density = 18.475484 Si / 1000 Ang^3
#
#
#
# Elastic Constant Matrix: (Units=GPa)
#
#
# Indices 1 2 3 4 5 6 
#
# 1 58.1318 11.4192 17.5262 -0.0003 -0.0819 -0.0002
# 2 11.4192 90.7235 11.0001 -0.0064 4.4165 -0.0001
# 3 17.5262 11.0001 56.2457 -0.0054 6.9563 0.0008
# 4 -0.0003 -0.0064 -0.0054 -2.4959 0.0001 -3.0468
# 5 -0.0819 4.4165 6.9563 0.0001 24.2293 0.0010
# 6 -0.0002 -0.0001 0.0008 -3.0468 0.0010 13.2051
#
#
#
# Elastic Compliance Matrix: (Units=1/GPa)
#
#
# Indices 1 2 3 4 5 6 
#
# 1 0.019352 -0.001818 -0.005934 0.000012 0.002101 0.000003
# 2 -0.001818 0.011512 -0.001477 -0.000021 -0.001681 -0.000005
# 3 -0.005934 -0.001477 0.020618 -0.000030 -0.005670 -0.000008
# 4 0.000012 -0.000021 -0.000030 -0.312605 0.000017 -0.072127
# 5 0.002101 -0.001681 -0.005670 0.000017 0.043214 0.000001
# 6 0.000003 -0.000005 -0.000008 -0.072127 0.000001 0.059087
#
#
# Mechanical properties :
#
#
# Convention : Reuss Voigt Hill
#
# Bulk Modulus (GPa) = 30.28190 31.66576 30.97383
# Shear Modulus (GPa) = -38.65302 17.99807 -10.32747
#
# Velocity S-wave (km/s) = -4.57894 3.12454 -2.36685
# Velocity P-wave (km/s) = 3.39553 5.49486 3.05482
#
# Compressibility (1/GPa) = 0.03302302
#
# Stress axis : x y z
#
# Youngs Moduli (GPa) = 51.67551 86.86374 48.50046
#
# Poissons Ratio (x) = 0.15796 0.28781
# Poissons Ratio (y) = 0.09397 0.07163
# Poissons Ratio (z) = 0.30665 0.12830
#
# Static dielectric constant tensor:
#      x y z
#    x 1.691540 -0.000010 -0.053650 
#    y -0.000010 1.658370 0.000000 
#    z -0.053650 0.000000 1.721950 
# 
# From -- ./inp_files/319574.got.cif
#   From: 2010.05.17/outbox.cif.g08.bks.cpg/sg15_160_cif.got.tgz:319574.got - 2010.06.03 18:47:42.
