data_PCOD9269901
_publ_section_title
;
Structure prediction by ZEFSAII (Michael W. Deem and Ramdas Pophale) SiO2 
 PCOD9269901
Probable space group: C 2/C
;
_chemical_formula_sum "Si O2"
_cell_formula_units_Z 48
_cell_length_a 19.992420
_cell_length_b 8.766294
_cell_length_c 12.384600
_cell_angle_alpha 90.000000
_cell_angle_beta 63.602642
_cell_angle_gamma 90.000000
_cell_volume 1944.202958
_symmetry_space_group_name_H-M "C 2/C"
_symmetry_group_IT_number 15
_symmetry_cell_setting 'monoclinic'
loop_
_space_group_symop_operation_xyz
x,y,z
-x,y,1/2-z
-x,-y,-z
x,-y,1/2+z
1/2+x,1/2+y,z
1/2-x,1/2+y,1/2-z
1/2-x,1/2-y,-z
1/2+x,1/2-y,1/2+z
loop_
_atom_site_type_symbol
_atom_site_label
_atom_site_fract_x
_atom_site_fract_y
_atom_site_fract_z
Si Si1 0.674459 0.413204 0.678359
Si Si2 0.789864 0.155266 0.110895
Si Si3 0.311190 0.965140 0.972581
Si Si4 0.937137 0.156866 0.658131
Si Si5 0.921392 0.064187 0.434959
Si Si6 0.486097 0.976379 0.878004
O O1 0.689278 0.332332 0.780048
O O2 0.753360 0.412730 0.560873
O O3 0.636690 0.578749 0.738173
O O4 0.610957 0.348865 0.644872
O O5 0.787041 0.317555 0.058649
O O6 0.714044 0.066428 0.132970
O O7 0.857086 0.059866 0.008140
O O8 0.396974 0.974387 0.935405
O O9 0.002760 0.031701 0.630547
O O10 0.966283 0.319784 0.674108
O O11 0.927726 0.165984 0.536038
O O12 0.500000 0.062007 0.750000
O O13 0.500000 0.000000 0.000000
#
# Coordination Sequence:
#
# PCOD9269901 Si02
#       6
#     8   8   8   8   8   8
#     4  10  20  34  64  97 125 162 208 272 328 378
#     4   9  19  36  60  90 122 160 212 262 315 380
#     4  10  22  39  61  87 122 168 212 255 317 383
#     4  10  20  37  62  93 129 166 208 267 330 386
#     4   9  17  35  59  96 124 152 206 267 334 377
#     4  12  28  47  66  91 130 180 224 260 316 395
#
# _framework density 24.688780000000001
#
# number of rings (size 3 to 8) (size 9 to 14) (size 15 to 20)
#    0.000    2.000    1.667    1.500    7.000    0.000 
#    3.000    0.000    0.000    6.000    0.000    0.000 
#    0.000    0.000    0.000    0.000    0.000    0.000 
#
# Total GULP energy -133811.887087 kJ/mol
# GULP energy per Si atom -5575.495295 kJ/mol
# Density = 2.463259 g / cm^3
# Si number density = 24.688780 Si / 1000 Ang^3
#
#
#
# Elastic Constant Matrix: (Units=GPa)
#
#
# Indices 1 2 3 4 5 6 
#
# 1 187.3393 8.0574 80.0687 0.0000 15.3112 0.0000
# 2 8.0574 48.8151 11.5831 0.0000 -0.9754 0.0000
# 3 80.0687 11.5831 126.3435 0.0000 44.8576 0.0000
# 4 0.0000 0.0000 0.0000 -5.0360 0.0000 1.8555
# 5 15.3112 -0.9754 44.8576 0.0000 76.6153 0.0000
# 6 0.0000 0.0000 0.0000 1.8555 0.0000 23.2050
#
#
#
# Elastic Compliance Matrix: (Units=1/GPa)
#
#
# Indices 1 2 3 4 5 6 
#
# 1 0.007476 0.000060 -0.005319 0.000000 0.001621 0.000000
# 2 0.000060 0.021130 -0.002609 0.000000 0.001785 0.000000
# 3 -0.005319 -0.002609 0.014088 0.000000 -0.007219 0.000000
# 4 0.000000 0.000000 0.000000 -0.192888 0.000000 0.015423
# 5 0.001621 0.001785 -0.007219 0.000000 0.016977 0.000000
# 6 0.000000 0.000000 0.000000 0.015423 0.000000 0.041861
#
#
# Mechanical properties :
#
#
# Convention : Reuss Voigt Hill
#
# Bulk Modulus (GPa) = 37.09330 62.43516 49.76423
# Shear Modulus (GPa) = -75.03741 36.47611 -19.28065
#
# Velocity S-wave (km/s) = -5.51899 3.84791 -2.79758
# Velocity P-wave (km/s) = 5.05524 6.71459 3.12492
#
# Compressibility (1/GPa) = 0.02695905
#
# Stress axis : x y z
#
# Youngs Moduli (GPa) = 133.75869 47.32556 70.98305
#
# Poissons Ratio (x) = -0.00286 0.37756
# Poissons Ratio (y) = -0.00809 0.18520
# Poissons Ratio (z) = 0.71146 0.12348
#
# Static dielectric constant tensor:
#      x y z
#    x 1.954480 0.000000 0.060590 
#    y 0.000000 2.063750 0.000000 
#    z 0.060590 0.000000 2.065660 
# 
# From -- ./inp_files/104167.got.cif
#   From: 2010.05.17/outbox.cif.g08.bks.cpg/sg15_53_cif.got.tgz:104167.got - 2010.06.03 18:47:42.
