data_PCOD9269775
_publ_section_title
;
Structure prediction by ZEFSAII (Michael W. Deem and Ramdas Pophale) SiO2 
 PCOD9269775
Probable space group: C 2/C
;
_chemical_formula_sum "Si O2"
_cell_formula_units_Z 56
_cell_length_a 15.152633
_cell_length_b 20.980967
_cell_length_c 13.243856
_cell_angle_alpha 90.000000
_cell_angle_beta 36.393910
_cell_angle_gamma 90.000000
_cell_volume 2498.197682
_symmetry_space_group_name_H-M "C 2/C"
_symmetry_group_IT_number 15
_symmetry_cell_setting 'monoclinic'
loop_
_space_group_symop_operation_xyz
x,y,z
-x,y,1/2-z
-x,-y,-z
x,-y,1/2+z
1/2+x,1/2+y,z
1/2-x,1/2+y,1/2-z
1/2-x,1/2-y,-z
1/2+x,1/2-y,1/2+z
loop_
_atom_site_type_symbol
_atom_site_label
_atom_site_fract_x
_atom_site_fract_y
_atom_site_fract_z
Si Si1 0.121576 0.039754 0.825253
Si Si2 0.886537 0.136532 0.016241
Si Si3 0.332496 0.182339 0.441717
Si Si4 0.220435 0.797387 0.618168
Si Si5 0.996898 0.245911 0.458146
Si Si6 0.798141 0.421269 0.624751
Si Si7 0.880390 0.621530 0.618977
O O1 0.237171 0.081773 0.784686
O O2 0.227623 0.990191 0.669178
O O3 0.021761 0.091299 0.860111
O O4 0.000000 0.000000 0.000000
O O5 0.763933 0.139207 0.043851
O O6 0.956849 0.204797 0.986860
O O7 0.801362 0.108061 0.192371
O O8 0.500000 0.190217 0.250000
O O9 0.250000 0.250000 0.500000
O O10 0.345891 0.147883 0.537804
O O11 0.250000 0.750000 0.500000
O O12 0.052293 0.796141 0.813251
O O13 0.327564 0.768542 0.609015
O O14 0.275168 0.869906 0.556394
O O15 0.082879 0.312191 0.361022
O O16 0.968819 0.419362 0.504814
#
# Coordination Sequence:
#
# PCOD9269775 Si02
#       7
#     8   8   8   8   8   8   8
#     4  10  22  39  64  89 120 169 218 262 310 389
#     4  10  20  38  61  92 129 160 209 257 321 387
#     4  12  25  37  62  99 140 166 208 265 330 402
#     4  10  20  35  59  86 120 154 204 275 317 358
#     4  10  20  34  60  93 115 156 204 246 321 387
#     4   9  20  39  61  87 121 169 216 257 318 389
#     4  11  21  37  65  91 127 170 209 259 319 386
#
# _framework density 22.416160000000001
#
# number of rings (size 3 to 8) (size 9 to 14) (size 15 to 20)
#    0.000    1.714    2.857    1.714    2.000    0.000 
#    0.000    0.000   31.429    0.000    0.000    0.000 
#    0.000    0.000    0.000    0.000    0.000    0.000 
#
# Total GULP energy -156114.564506 kJ/mol
# GULP energy per Si atom -5575.520161 kJ/mol
# Density = 2.236514 g / cm^3
# Si number density = 22.416160 Si / 1000 Ang^3
#
#
#
# Elastic Constant Matrix: (Units=GPa)
#
#
# Indices 1 2 3 4 5 6 
#
# 1 54.9228 33.9499 24.1031 -0.0019 -21.4244 0.0017
# 2 33.9499 103.6818 36.9532 0.0011 -30.5042 0.0010
# 3 24.1031 36.9532 83.9046 -0.0004 -39.9230 0.0018
# 4 -0.0019 0.0011 -0.0004 46.6789 0.0004 -22.2360
# 5 -21.4244 -30.5042 -39.9230 0.0004 44.0583 -0.0013
# 6 0.0017 0.0010 0.0018 -22.2360 -0.0013 24.6557
#
#
#
# Elastic Compliance Matrix: (Units=1/GPa)
#
#
# Indices 1 2 3 4 5 6 
#
# 1 0.025037 -0.005644 -0.001359 0.000001 0.007036 0.000000
# 2 -0.005644 0.013657 -0.002110 -0.000001 0.004799 -0.000001
# 3 -0.001359 -0.002110 0.021497 0.000000 0.017358 -0.000001
# 4 0.000001 -0.000001 0.000000 0.037558 0.000000 0.033872
# 5 0.007036 0.004799 0.017358 0.000000 0.045170 0.000000
# 6 0.000000 -0.000001 -0.000001 0.033872 0.000000 0.071107
#
#
# Mechanical properties :
#
#
# Convention : Reuss Voigt Hill
#
# Bulk Modulus (GPa) = 23.82912 48.05795 35.94353
# Shear Modulus (GPa) = 20.30543 32.91210 26.60877
#
# Velocity S-wave (km/s) = 3.01298 3.83591 3.44908
# Velocity P-wave (km/s) = 4.77048 6.41127 5.65075
#
# Compressibility (1/GPa) = 0.04196546
#
# Stress axis : x y z
#
# Youngs Moduli (GPa) = 39.94094 73.22319 46.51825
#
# Poissons Ratio (x) = 0.41326 0.06321
# Poissons Ratio (y) = 0.22542 0.09815
# Poissons Ratio (z) = 0.05427 0.15450
#
# Static dielectric constant tensor:
#      x y z
#    x 1.867010 0.000000 -0.004990 
#    y 0.000000 1.891400 0.000000 
#    z -0.004990 0.000000 1.843640 
# 
# From -- ./inp_files/156164.got.cif
#   From: 2010.05.17/outbox.cif.g08.bks.cpg/sg15_79_cif.got.tgz:156164.got - 2010.06.03 18:47:42.
