data_PCOD9269170
_publ_section_title
;
Structure prediction by ZEFSAII (Michael W. Deem and Ramdas Pophale) SiO2 
 PCOD9269170
Probable space group: C 2/C
;
_chemical_formula_sum "Si O2"
_cell_formula_units_Z 52
_cell_length_a 18.748183
_cell_length_b 23.726910
_cell_length_c 9.001199
_cell_angle_alpha 90.000000
_cell_angle_beta 143.523334
_cell_angle_gamma 90.000000
_cell_volume 2380.395943
_symmetry_space_group_name_H-M "C 2/C"
_symmetry_group_IT_number 15
_symmetry_cell_setting 'monoclinic'
loop_
_space_group_symop_operation_xyz
x,y,z
-x,y,1/2-z
-x,-y,-z
x,-y,1/2+z
1/2+x,1/2+y,z
1/2-x,1/2+y,1/2-z
1/2-x,1/2-y,-z
1/2+x,1/2-y,1/2+z
loop_
_atom_site_type_symbol
_atom_site_label
_atom_site_fract_x
_atom_site_fract_y
_atom_site_fract_z
Si Si1 0.758681 0.717108 0.195038
Si Si2 0.624454 0.670247 0.524952
Si Si3 0.211930 0.316275 0.439472
Si Si4 0.500000 0.977593 0.250000
Si Si5 0.360335 0.937813 0.727923
Si Si6 0.969506 0.320775 0.856301
Si Si7 0.107728 0.120573 0.817979
O O1 0.774711 0.782969 0.262284
O O2 0.791076 0.676994 0.389730
O O3 0.866269 0.713146 0.260886
O O4 0.648080 0.682576 0.944421
O O5 0.692770 0.646278 0.493196
O O6 0.591414 0.632477 0.612285
O O7 0.500000 0.695304 0.250000
O O8 0.250000 0.250000 0.500000
O O9 0.083434 0.323520 0.152435
O O10 0.575901 0.945927 0.505046
O O11 0.596450 0.013130 0.312027
O O12 0.415248 0.882289 0.744174
O O13 0.219617 0.923233 0.512590
O O14 0.000000 0.295112 0.750000
O O15 0.000000 0.103642 0.750000
#
# Coordination Sequence:
#
# PCOD9269170 Si02
#       7
#     8   8   8   4   8   8   8
#     4  10  21  36  57  82 122 177 224 260 300 347
#     4  11  22  38  55  85 129 181 229 264 300 355
#     4  10  20  34  52  81 119 165 219 263 301 350
#     4  10  22  46  72 100 120 146 202 280 328 408
#     4  10  23  42  70  99 124 155 203 262 339 386
#     4  11  21  35  58  89 123 160 206 258 311 371
#     4  11  24  41  61  93 135 171 212 257 320 393
#
# _framework density 21.845106000000001
#
# number of rings (size 3 to 8) (size 9 to 14) (size 15 to 20)
#    0.000    1.538    0.769    5.538    4.308    3.077 
#    0.000    0.769    0.000    0.000    0.000    0.000 
#    0.000    0.000    0.000    0.000    0.000    0.000 
#
# Total GULP energy -144850.607145 kJ/mol
# GULP energy per Si atom -5571.177198 kJ/mol
# Density = 2.179539 g / cm^3
# Si number density = 21.845106 Si / 1000 Ang^3
#
#
#
# Elastic Constant Matrix: (Units=GPa)
#
#
# Indices 1 2 3 4 5 6 
#
# 1 169.4451 34.6525 47.0932 0.0000 -7.3091 0.0000
# 2 34.6525 25.2495 5.2164 0.0000 10.9654 0.0000
# 3 47.0932 5.2164 84.1998 0.0000 3.2109 0.0000
# 4 0.0000 0.0000 0.0000 -86.6466 0.0000 -86.7414
# 5 -7.3091 10.9654 3.2109 0.0000 49.6057 0.0000
# 6 0.0000 0.0000 0.0000 -86.7414 0.0000 -50.4566
#
#
#
# Elastic Compliance Matrix: (Units=1/GPa)
#
#
# Indices 1 2 3 4 5 6 
#
# 1 0.010978 -0.016389 -0.005337 0.000000 0.005586 0.000000
# 2 -0.016389 0.068747 0.005593 0.000000 -0.017973 0.000000
# 3 -0.005337 0.005593 0.014629 0.000000 -0.002970 0.000000
# 4 0.000000 0.000000 0.000000 0.016007 0.000000 -0.027518
# 5 0.005586 -0.017973 -0.002970 0.000000 0.025147 0.000000
# 6 0.000000 0.000000 0.000000 -0.027518 0.000000 0.027488
#
#
# Mechanical properties :
#
#
# Convention : Reuss Voigt Hill
#
# Bulk Modulus (GPa) = 16.10675 50.31318 33.20997
# Shear Modulus (GPa) = 23.15270 -4.70401 9.22435
#
# Velocity S-wave (km/s) = 3.25908 -1.46902 2.05713
# Velocity P-wave (km/s) = 4.64234 4.49493 4.56923
#
# Compressibility (1/GPa) = 0.06208575
#
# Stress axis : x y z
#
# Youngs Moduli (GPa) = 91.09481 14.54613 68.35949
#
# Poissons Ratio (x) = 0.23839 0.36487
# Poissons Ratio (y) = 1.49293 -0.38231
# Poissons Ratio (z) = 0.48622 -0.08135
#
# Static dielectric constant tensor:
#      x y z
#    x 1.852800 0.000000 -0.089730 
#    y 0.000000 1.825240 0.000000 
#    z -0.089730 0.000000 1.889950 
# 
# From -- ./inp_files/52214.got.cif
#   From: 2010.05.17/outbox.cif.g08.bks.cpg/sg15_27_cif.got.tgz:52214.got - 2010.06.03 18:47:42.
