data_PCOD9269735
_publ_section_title
;
Structure prediction by ZEFSAII (Michael W. Deem and Ramdas Pophale) SiO2 
 PCOD9269735
Probable space group: C 2/C
;
_chemical_formula_sum "Si O2"
_cell_formula_units_Z 64
_cell_length_a 21.683080
_cell_length_b 23.445445
_cell_length_c 5.370600
_cell_angle_alpha 90.000000
_cell_angle_beta 97.079726
_cell_angle_gamma 90.000000
_cell_volume 2709.432541
_symmetry_space_group_name_H-M "C 2/C"
_symmetry_group_IT_number 15
_symmetry_cell_setting 'monoclinic'
loop_
_space_group_symop_operation_xyz
x,y,z
-x,y,1/2-z
-x,-y,-z
x,-y,1/2+z
1/2+x,1/2+y,z
1/2-x,1/2+y,1/2-z
1/2-x,1/2-y,-z
1/2+x,1/2-y,1/2+z
loop_
_atom_site_type_symbol
_atom_site_label
_atom_site_fract_x
_atom_site_fract_y
_atom_site_fract_z
Si Si1 0.073326 0.179360 0.771656
Si Si2 0.865270 0.861348 0.716447
Si Si3 0.311802 0.977100 0.243309
Si Si4 0.829973 0.979854 0.474113
Si Si5 0.304836 0.249366 0.723516
Si Si6 0.338638 0.857965 0.499686
Si Si7 0.017112 0.381233 0.011725
Si Si8 0.401866 0.201688 0.411559
O O1 0.098276 0.156731 0.518233
O O2 0.095706 0.246084 0.786026
O O3 0.000000 0.182793 0.750000
O O4 0.092458 0.140899 0.016917
O O5 0.833828 0.919560 0.615671
O O6 0.814603 0.815345 0.782932
O O7 0.310261 0.914246 0.364334
O O8 0.341241 0.015079 0.481811
O O9 0.241150 0.994174 0.134700
O O10 0.858470 0.980406 0.208226
O O11 0.250000 0.250000 0.500000
O O12 0.297639 0.197274 0.908600
O O13 0.370151 0.230900 0.629498
O O14 0.411398 0.862561 0.448361
O O15 0.353701 0.847321 0.798031
O O16 0.000000 0.414380 0.250000
O O17 0.000000 0.412522 0.750000
O O18 0.968862 0.327027 0.983244
#
# Coordination Sequence:
#
# PCOD9269735 Si02
#       8
#     8   8   8   8   8   8   8   8
#     4  11  22  38  62  92 134 161 204 253 308 373
#     4  11  23  40  61  97 126 158 209 258 311 374
#     4  10  24  41  64  92 121 163 220 263 307 363
#     4  10  21  43  67  87 117 170 215 253 300 371
#     4  11  23  37  57  94 133 163 197 258 330 379
#     4  11  21  39  62  89 127 165 202 266 315 371
#     4  10  20  34  60  86 116 159 219 241 292 375
#     4  10  22  37  59  89 124 177 209 244 305 392
#
# _framework density 23.621181
#
# number of rings (size 3 to 8) (size 9 to 14) (size 15 to 20)
#    0.000    1.500    2.500    3.000    1.750    0.500 
#    4.500    0.000    0.000   17.250    0.000    0.000 
#    0.000    0.000    0.000    0.000    0.000    0.000 
#
# Total GULP energy -178200.911704 kJ/mol
# GULP energy per Si atom -5568.778491 kJ/mol
# Density = 2.356742 g / cm^3
# Si number density = 23.621181 Si / 1000 Ang^3
#
#
#
# Elastic Constant Matrix: (Units=GPa)
#
#
# Indices 1 2 3 4 5 6 
#
# 1 42.6175 8.0744 17.8002 0.0000 -2.3663 0.0000
# 2 8.0744 111.1170 49.9974 0.0000 10.5759 0.0000
# 3 17.8002 49.9974 179.1358 0.0000 -9.3012 0.0000
# 4 0.0000 0.0000 0.0000 45.1645 0.0000 13.5836
# 5 -2.3663 10.5759 -9.3012 0.0000 27.5308 0.0000
# 6 0.0000 0.0000 0.0000 13.5836 0.0000 23.9685
#
#
#
# Elastic Compliance Matrix: (Units=1/GPa)
#
#
# Indices 1 2 3 4 5 6 
#
# 1 0.024623 -0.001033 -0.002064 0.000000 0.001816 0.000000
# 2 -0.001033 0.011063 -0.003268 0.000000 -0.005443 0.000000
# 3 -0.002064 -0.003268 0.006876 0.000000 0.003401 0.000000
# 4 0.000000 0.000000 0.000000 0.026691 0.000000 -0.015126
# 5 0.001816 -0.005443 0.003401 0.000000 0.039719 0.000000
# 6 0.000000 0.000000 0.000000 -0.015126 0.000000 0.050294
#
#
# Mechanical properties :
#
#
# Convention : Reuss Voigt Hill
#
# Bulk Modulus (GPa) = 33.52088 53.84602 43.68345
# Shear Modulus (GPa) = 27.48165 36.46598 31.97381
#
# Velocity S-wave (km/s) = 3.41461 3.93336 3.68313
# Velocity P-wave (km/s) = 5.45600 6.59345 6.05151
#
# Compressibility (1/GPa) = 0.02983215
#
# Stress axis : x y z
#
# Youngs Moduli (GPa) = 40.61197 90.39228 145.43271
#
# Poissons Ratio (x) = 0.09341 0.30018
# Poissons Ratio (y) = 0.04197 0.47521
# Poissons Ratio (z) = 0.08382 0.29537
#
# Static dielectric constant tensor:
#      x y z
#    x 1.948440 0.000000 -0.074290 
#    y 0.000000 1.985450 0.000000 
#    z -0.074290 0.000000 2.079460 
# 
# From -- ./inp_files/16233.got.cif
#   From: 2010.05.17/outbox.cif.g08.bks.cpg/sg15_9_cif.got.tgz:16233.got - 2010.06.03 18:47:42.
