data_PCOD9269781
_publ_section_title
;
Structure prediction by ZEFSAII (Michael W. Deem and Ramdas Pophale) SiO2 
 PCOD9269781
Probable space group: C 2/C
;
_chemical_formula_sum "Si O2"
_cell_formula_units_Z 48
_cell_length_a 19.310288
_cell_length_b 14.471811
_cell_length_c 9.331035
_cell_angle_alpha 90.000000
_cell_angle_beta 75.292439
_cell_angle_gamma 90.000000
_cell_volume 2522.162832
_symmetry_space_group_name_H-M "C 2/C"
_symmetry_group_IT_number 15
_symmetry_cell_setting 'monoclinic'
loop_
_space_group_symop_operation_xyz
x,y,z
-x,y,1/2-z
-x,-y,-z
x,-y,1/2+z
1/2+x,1/2+y,z
1/2-x,1/2+y,1/2-z
1/2-x,1/2-y,-z
1/2+x,1/2-y,1/2+z
loop_
_atom_site_type_symbol
_atom_site_label
_atom_site_fract_x
_atom_site_fract_y
_atom_site_fract_z
Si Si1 0.713322 0.954189 0.125882
Si Si2 0.166885 0.723183 0.521258
Si Si3 0.685574 0.838544 0.696782
Si Si4 0.814967 0.966073 0.329782
Si Si5 0.347417 0.699486 0.020645
Si Si6 0.419080 0.633748 0.249498
O O1 0.770462 0.927780 0.218780
O O2 0.679431 0.051091 0.192794
O O3 0.660328 0.871416 0.116298
O O4 0.758745 0.979303 0.960029
O O5 0.250000 0.750000 0.500000
O O6 0.155655 0.701317 0.360194
O O7 0.118303 0.804014 0.609062
O O8 0.652863 0.792086 0.572194
O O9 0.770545 0.812432 0.641699
O O10 0.847327 0.884083 0.406891
O O11 0.874825 0.039070 0.253093
O O12 0.408374 0.688273 0.106120
O O13 0.500000 0.615875 0.250000
#
# Coordination Sequence:
#
# PCOD9269781 Si02
#       6
#     8   8   8   8   8   8
#     4  11  19  34  62  96 118 144 198 257 308 342
#     4  12  20  37  62  87 120 157 207 255 294 349
#     4  10  20  34  60  94 113 150 199 262 302 340
#     4  11  20  36  56  90 124 153 196 245 299 357
#     4  10  21  36  58  88 123 155 200 247 302 353
#     4  12  26  41  57  87 129 169 200 239 305 372
#
# _framework density 19.031286000000001
#
# number of rings (size 3 to 8) (size 9 to 14) (size 15 to 20)
#    0.000    1.000    8.333    1.000    4.667    0.667 
#    0.000    0.833    0.000    4.000    0.000    0.000 
#    0.000    0.000    0.000    0.000    0.000    0.000 
#
# Total GULP energy -134129.200451 kJ/mol
# GULP energy per Si atom -5588.716685 kJ/mol
# Density = 1.898797 g / cm^3
# Si number density = 19.031286 Si / 1000 Ang^3
#
#
#
# Elastic Constant Matrix: (Units=GPa)
#
#
# Indices 1 2 3 4 5 6 
#
# 1 35.5837 -1.6513 15.6425 0.0000 10.3632 0.0000
# 2 -1.6513 69.9004 11.9090 0.0000 -2.0840 0.0000
# 3 15.6425 11.9090 91.6295 0.0000 19.7728 0.0000
# 4 0.0000 0.0000 0.0000 34.1437 0.0000 1.5265
# 5 10.3632 -2.0840 19.7728 0.0000 20.8752 0.0000
# 6 0.0000 0.0000 0.0000 1.5265 0.0000 8.8190
#
#
#
# Elastic Compliance Matrix: (Units=1/GPa)
#
#
# Indices 1 2 3 4 5 6 
#
# 1 0.033413 0.000860 -0.002834 0.000000 -0.013817 0.000000
# 2 0.000860 0.014937 -0.002913 0.000000 0.003823 0.000000
# 3 -0.002834 -0.002913 0.014499 0.000000 -0.012617 0.000000
# 4 0.000000 0.000000 0.000000 0.029516 0.000000 -0.005109
# 5 -0.013817 0.003823 -0.012617 0.000000 0.067095 0.000000
# 6 0.000000 0.000000 0.000000 -0.005109 0.000000 0.114275
#
#
# Mechanical properties :
#
#
# Convention : Reuss Voigt Hill
#
# Bulk Modulus (GPa) = 18.84187 27.65712 23.24949
# Shear Modulus (GPa) = 16.60027 24.18181 20.39104
#
# Velocity S-wave (km/s) = 2.95661 3.56846 3.27685
# Velocity P-wave (km/s) = 4.64514 5.61628 5.15364
#
# Compressibility (1/GPa) = 0.05307329
#
# Stress axis : x y z
#
# Youngs Moduli (GPa) = 29.92891 66.94917 68.97231
#
# Poissons Ratio (x) = -0.05760 0.19549
# Poissons Ratio (y) = -0.02575 0.20093
# Poissons Ratio (z) = 0.08483 0.19504
#
# Static dielectric constant tensor:
#      x y z
#    x 1.624800 0.000000 0.005060 
#    y 0.000000 1.724230 0.000000 
#    z 0.005060 0.000000 1.688470 
# 
# From -- ./inp_files/47464.got.cif
#   From: 2010.05.17/outbox.cif.g08.bks.cpg/sg15_24_cif.got.tgz:47464.got - 2010.06.03 18:47:42.
