data_PCOD9269537
_publ_section_title
;
Structure prediction by ZEFSAII (Michael W. Deem and Ramdas Pophale) SiO2 
 PCOD9269537
Probable space group: C 2/C
;
_chemical_formula_sum "Si O2"
_cell_formula_units_Z 56
_cell_length_a 24.456001
_cell_length_b 21.753555
_cell_length_c 7.657435
_cell_angle_alpha 90.000000
_cell_angle_beta 41.655765
_cell_angle_gamma 90.000000
_cell_volume 2707.661941
_symmetry_space_group_name_H-M "C 2/C"
_symmetry_group_IT_number 15
_symmetry_cell_setting 'monoclinic'
loop_
_space_group_symop_operation_xyz
x,y,z
-x,y,1/2-z
-x,-y,-z
x,-y,1/2+z
1/2+x,1/2+y,z
1/2-x,1/2+y,1/2-z
1/2-x,1/2-y,-z
1/2+x,1/2-y,1/2+z
loop_
_atom_site_type_symbol
_atom_site_label
_atom_site_fract_x
_atom_site_fract_y
_atom_site_fract_z
Si Si1 0.343579 0.740434 0.223548
Si Si2 0.763180 0.898981 0.366254
Si Si3 0.096081 0.185755 0.075846
Si Si4 0.922207 0.462652 0.257511
Si Si5 0.358905 0.218917 0.309453
Si Si6 0.298531 0.987599 0.288559
Si Si7 0.972778 0.343941 0.999351
O O1 0.250000 0.750000 0.500000
O O2 0.385628 0.692565 0.259642
O O3 0.344199 0.735371 0.010661
O O4 0.396118 0.801764 0.134767
O O5 0.701464 0.840452 0.539110
O O6 0.751866 0.950996 0.542642
O O7 0.738181 0.936969 0.251579
O O8 0.853622 0.871921 0.120871
O O9 0.000000 0.184613 0.250000
O O10 0.139399 0.244083 0.875525
O O11 0.829888 0.457237 0.392196
O O12 0.890118 0.493574 0.508216
O O13 0.951373 0.393467 0.192534
O O14 0.000000 0.500000 0.000000
O O15 0.451360 0.195678 0.117520
O O16 0.000000 0.374571 0.750000
#
# Coordination Sequence:
#
# PCOD9269537 Si02
#       7
#     8   8   8   8   8   8   8
#     4  11  23  40  64  97 134 178 217 269 344 402
#     4  11  24  45  66  96 131 178 228 285 339 406
#     4  12  26  45  70 103 137 176 231 288 348 412
#     4  11  20  34  57  88 128 173 211 257 318 395
#     4  11  23  41  66 103 140 175 218 276 347 426
#     4  10  23  39  60  90 126 172 232 269 323 391
#     4  10  20  34  57  88 133 164 207 258 322 401
#
# _framework density 20.682048999999999
#
# number of rings (size 3 to 8) (size 9 to 14) (size 15 to 20)
#    0.000    1.143    2.857    5.143    2.000    0.000 
#    2.571    0.714    0.000    0.000    0.000    0.000 
#    0.000    0.000    0.000    0.000    0.000    0.000 
#
# Total GULP energy -156049.980446 kJ/mol
# GULP energy per Si atom -5573.213587 kJ/mol
# Density = 2.063498 g / cm^3
# Si number density = 20.682049 Si / 1000 Ang^3
#
#
#
# Elastic Constant Matrix: (Units=GPa)
#
#
# Indices 1 2 3 4 5 6 
#
# 1 63.2490 24.2224 22.4323 0.0000 -17.8041 0.0000
# 2 24.2224 74.0684 49.7150 0.0000 -4.9486 0.0000
# 3 22.4323 49.7150 81.3007 0.0000 -25.8899 0.0000
# 4 0.0000 0.0000 0.0000 30.9872 0.0000 -7.6451
# 5 -17.8041 -4.9486 -25.8899 0.0000 29.0182 0.0000
# 6 0.0000 0.0000 0.0000 -7.6451 0.0000 6.9406
#
#
#
# Elastic Compliance Matrix: (Units=1/GPa)
#
#
# Indices 1 2 3 4 5 6 
#
# 1 0.022336 -0.009466 0.004855 0.000000 0.016422 0.000000
# 2 -0.009466 0.030351 -0.022558 0.000000 -0.020758 0.000000
# 3 0.004855 -0.022558 0.034193 0.000000 0.029638 0.000000
# 4 0.000000 0.000000 0.000000 0.044314 0.000000 0.048813
# 5 0.016422 -0.020758 0.029638 0.000000 0.067440 0.000000
# 6 0.000000 0.000000 0.000000 0.048813 0.000000 0.197849
#
#
# Mechanical properties :
#
#
# Convention : Reuss Voigt Hill
#
# Bulk Modulus (GPa) = 30.72958 45.70640 38.21799
# Shear Modulus (GPa) = 10.83029 21.53909 16.18469
#
# Velocity S-wave (km/s) = 2.29084 3.23063 2.80044
# Velocity P-wave (km/s) = 4.67842 6.00529 5.38289
#
# Compressibility (1/GPa) = 0.03254193
#
# Stress axis : x y z
#
# Youngs Moduli (GPa) = 44.76978 32.94817 29.24600
#
# Poissons Ratio (x) = 0.31189 -0.14199
# Poissons Ratio (y) = 0.42380 0.65972
# Poissons Ratio (z) = -0.21735 0.74324
#
# Static dielectric constant tensor:
#      x y z
#    x 1.910400 0.000000 0.205720 
#    y 0.000000 1.713530 0.000000 
#    z 0.205720 0.000000 1.906970 
# 
# From -- ./inp_files/67140.got.cif
#   From: 2010.05.17/outbox.cif.g08.bks.cpg/sg15_34_cif.got.tgz:67140.got - 2010.06.03 18:47:42.
