data_PCOD9269464
_publ_section_title
;
Structure prediction by ZEFSAII (Michael W. Deem and Ramdas Pophale) SiO2 
 PCOD9269464
Probable space group: C 2/C
;
_chemical_formula_sum "Si O2"
_cell_formula_units_Z 64
_cell_length_a 16.572991
_cell_length_b 22.018811
_cell_length_c 16.701077
_cell_angle_alpha 90.000000
_cell_angle_beta 33.536806
_cell_angle_gamma 90.000000
_cell_volume 3367.052899
_symmetry_space_group_name_H-M "C 2/C"
_symmetry_group_IT_number 15
_symmetry_cell_setting 'monoclinic'
loop_
_space_group_symop_operation_xyz
x,y,z
-x,y,1/2-z
-x,-y,-z
x,-y,1/2+z
1/2+x,1/2+y,z
1/2-x,1/2+y,1/2-z
1/2-x,1/2-y,-z
1/2+x,1/2-y,1/2+z
loop_
_atom_site_type_symbol
_atom_site_label
_atom_site_fract_x
_atom_site_fract_y
_atom_site_fract_z
Si Si1 0.447374 0.566439 0.383701
Si Si2 0.622006 0.746214 0.373823
Si Si3 0.283159 0.641016 0.309125
Si Si4 0.376939 0.329264 0.163597
Si Si5 0.573810 0.554824 0.775525
Si Si6 0.172458 0.492126 0.857844
Si Si7 0.960733 0.672225 0.874214
Si Si8 0.293480 0.918392 0.311004
O O1 0.500000 0.558597 0.250000
O O2 0.546529 0.623113 0.326532
O O3 0.494491 0.502432 0.384308
O O4 0.278801 0.573309 0.542646
O O5 0.722181 0.694763 0.249841
O O6 0.504893 0.715065 0.528621
O O7 0.737841 0.793479 0.314959
O O8 0.534135 0.780188 0.375110
O O9 0.211083 0.578290 0.338611
O O10 0.203969 0.662502 0.456636
O O11 0.437016 0.381760 0.170767
O O12 0.305438 0.366260 0.148621
O O13 0.500000 0.562128 0.750000
O O14 0.741874 0.531144 0.644537
O O15 0.219521 0.523199 0.734938
O O16 0.000000 0.500000 0.000000
O O17 0.045354 0.608416 0.817190
O O18 0.000000 0.689813 0.750000
#
# Coordination Sequence:
#
# PCOD9269464 Si02
#       8
#     8   8   8   8   8   8   8   8
#     4  10  20  34  56  87 117 146 186 235 293 357
#     4  11  22  37  54  82 108 152 204 237 282 341
#     4  11  21  35  56  80 114 148 194 232 290 343
#     4  10  21  38  59  80 111 149 195 248 284 345
#     4   9  21  38  61  87 118 148 192 245 307 349
#     4  10  20  36  63  90 118 152 192 246 299 361
#     4  11  23  37  52  77 119 157 189 235 291 345
#     4  10  20  36  57  86 113 150 196 234 290 353
#
# _framework density 19.007721
#
# number of rings (size 3 to 8) (size 9 to 14) (size 15 to 20)
#    0.000    1.750    3.750    0.750    1.750    2.500 
#    0.000    0.625    0.000    0.000    0.000    0.000 
#    0.000    0.000    0.000    0.000    0.000    0.000 
#
# Total GULP energy -178196.552515 kJ/mol
# GULP energy per Si atom -5568.642266 kJ/mol
# Density = 1.896446 g / cm^3
# Si number density = 19.007721 Si / 1000 Ang^3
#
#
#
# Elastic Constant Matrix: (Units=GPa)
#
#
# Indices 1 2 3 4 5 6 
#
# 1 52.9728 6.6491 9.9318 0.0023 -1.5986 -0.0062
# 2 6.6491 75.0680 18.1464 -0.0030 3.9821 -0.0123
# 3 9.9318 18.1464 101.8526 -0.0073 -5.5871 -0.0131
# 4 0.0023 -0.0030 -0.0073 9.4006 -0.0007 -2.3227
# 5 -1.5986 3.9821 -5.5871 -0.0007 11.3187 0.0056
# 6 -0.0062 -0.0123 -0.0131 -2.3227 0.0056 5.6731
#
#
#
# Elastic Compliance Matrix: (Units=1/GPa)
#
#
# Indices 1 2 3 4 5 6 
#
# 1 0.019421 -0.001495 -0.001488 -0.000004 0.002534 0.000011
# 2 -0.001495 0.014486 -0.002802 0.000011 -0.006691 0.000034
# 3 -0.001488 -0.002802 0.010797 0.000012 0.006105 0.000016
# 4 -0.000004 0.000011 0.000012 0.118349 -0.000015 0.048456
# 5 0.002534 -0.006691 0.006105 -0.000015 0.094075 -0.000096
# 6 0.000011 0.000034 0.000016 0.048456 -0.000096 0.196112
#
#
# Mechanical properties :
#
#
# Convention : Reuss Voigt Hill
#
# Bulk Modulus (GPa) = 30.18099 33.26088 31.72093
# Shear Modulus (GPa) = 10.50741 18.28955 14.39848
#
# Velocity S-wave (km/s) = 2.35371 3.10533 2.75527
# Velocity P-wave (km/s) = 4.82694 5.51308 5.18138
#
# Compressibility (1/GPa) = 0.03313344
#
# Stress axis : x y z
#
# Youngs Moduli (GPa) = 51.49124 69.03244 92.61493
#
# Poissons Ratio (x) = 0.10319 0.13785
# Poissons Ratio (y) = 0.07697 0.25952
# Poissons Ratio (z) = 0.07664 0.19344
#
# Static dielectric constant tensor:
#      x y z
#    x 1.770250 0.000000 -0.009110 
#    y 0.000000 1.701930 0.000010 
#    z -0.009110 0.000010 1.692770 
# 
# From -- ./inp_files/211954.got.cif
#   From: 2010.05.17/outbox.cif.g08.bks.cpg/sg15_106_cif.got.tgz:211954.got - 2010.06.03 18:47:42.
