data_PCOD9269580
_publ_section_title
;
Structure prediction by ZEFSAII (Michael W. Deem and Ramdas Pophale) SiO2 
 PCOD9269580
Probable space group: C 2/C
;
_chemical_formula_sum "Si O2"
_cell_formula_units_Z 52
_cell_length_a 20.911535
_cell_length_b 25.650070
_cell_length_c 14.239028
_cell_angle_alpha 90.000000
_cell_angle_beta 159.458924
_cell_angle_gamma 90.000000
_cell_volume 2679.858996
_symmetry_space_group_name_H-M "C 2/C"
_symmetry_group_IT_number 15
_symmetry_cell_setting 'monoclinic'
loop_
_space_group_symop_operation_xyz
x,y,z
-x,y,1/2-z
-x,-y,-z
x,-y,1/2+z
1/2+x,1/2+y,z
1/2-x,1/2+y,1/2-z
1/2-x,1/2-y,-z
1/2+x,1/2-y,1/2+z
loop_
_atom_site_type_symbol
_atom_site_label
_atom_site_fract_x
_atom_site_fract_y
_atom_site_fract_z
Si Si1 0.522403 0.443645 0.982241
Si Si2 0.806399 0.322440 0.220547
Si Si3 0.607859 0.108616 0.482760
Si Si4 0.610555 0.010695 0.246511
Si Si5 0.324914 0.101048 0.569023
Si Si6 0.500000 0.492352 0.750000
Si Si7 0.971012 0.254971 0.309237
O O1 0.342760 0.408390 0.732200
O O2 0.549782 0.456945 0.908885
O O3 0.500000 0.500000 0.000000
O O4 0.688531 0.412409 0.255276
O O5 0.876394 0.356815 0.402634
O O6 0.772884 0.360503 0.083816
O O7 0.970388 0.285103 0.407076
O O8 0.622386 0.291457 0.004297
O O9 0.493714 0.056256 0.345385
O O10 0.500000 0.135842 0.250000
O O11 0.820529 0.025862 0.520001
O O12 0.628260 0.955883 0.324061
O O13 0.500000 0.000000 0.000000
O O14 0.500000 0.115128 0.750000
O O15 0.000000 0.283469 0.250000
O O16 0.750000 0.250000 0.000000
#
# Coordination Sequence:
#
# PCOD9269580 Si02
#       7
#     8   8   8   8   8   4   8
#     4  11  22  36  57  89 133 180 222 255 311 377
#     4  11  23  43  68  99 123 163 216 277 348 403
#     4  12  24  40  63  93 135 182 222 260 318 393
#     4  11  19  38  60  90 140 179 217 268 309 382
#     4  11  23  37  64 100 136 172 221 268 330 393
#     4  10  20  34  58  82 118 188 224 268 310 352
#     4   9  21  40  70  97 126 149 201 286 356 391
#
# _framework density 19.404007
#
# number of rings (size 3 to 8) (size 9 to 14) (size 15 to 20)
#    0.000    1.231    3.077    4.615    6.462    0.000 
#    0.000    0.769    0.000    0.000    0.000    0.000 
#    0.000    0.000    0.000    0.000    0.000    0.000 
#
# Total GULP energy -144764.456088 kJ/mol
# GULP energy per Si atom -5567.863696 kJ/mol
# Density = 1.935984 g / cm^3
# Si number density = 19.404007 Si / 1000 Ang^3
#
#
#
# Elastic Constant Matrix: (Units=GPa)
#
#
# Indices 1 2 3 4 5 6 
#
# 1 104.7473 50.9049 62.0066 0.0000 6.1649 0.0000
# 2 50.9049 99.5114 53.3593 0.0000 11.0192 0.0000
# 3 62.0066 53.3593 161.1670 0.0000 8.6819 0.0000
# 4 0.0000 0.0000 0.0000 -0.7649 0.0000 2.1946
# 5 6.1649 11.0192 8.6819 0.0000 39.0522 0.0000
# 6 0.0000 0.0000 0.0000 2.1946 0.0000 36.6260
#
#
#
# Elastic Compliance Matrix: (Units=1/GPa)
#
#
# Indices 1 2 3 4 5 6 
#
# 1 0.014364 -0.005339 -0.003763 0.000000 0.000075 0.000000
# 2 -0.005339 0.014465 -0.002592 0.000000 -0.002662 0.000000
# 3 -0.003763 -0.002592 0.008541 0.000000 -0.000574 0.000000
# 4 0.000000 0.000000 0.000000 -1.115527 0.000000 0.066842
# 5 0.000075 -0.002662 -0.000574 0.000000 0.026474 0.000000
# 6 0.000000 0.000000 0.000000 0.066842 0.000000 0.023298
#
#
# Mechanical properties :
#
#
# Convention : Reuss Voigt Hill
#
# Bulk Modulus (GPa) = 71.51067 77.55189 74.53128
# Shear Modulus (GPa) = -4.99831 28.25966 11.63067
#
# Velocity S-wave (km/s) = -1.60671 3.82040 2.45091
# Velocity P-wave (km/s) = 5.78719 7.71455 6.81931
#
# Compressibility (1/GPa) = 0.01398393
#
# Stress axis : x y z
#
# Youngs Moduli (GPa) = 69.61660 69.13471 117.07667
#
# Poissons Ratio (x) = 0.36909 0.44056
# Poissons Ratio (y) = 0.37166 0.30341
# Poissons Ratio (z) = 0.26197 0.17916
#
# Static dielectric constant tensor:
#      x y z
#    x 1.716750 0.000000 0.030290 
#    y 0.000000 1.774740 0.000000 
#    z 0.030290 0.000000 1.740700 
# 
# From -- ./inp_files/169887.got.cif
#   From: 2010.05.17/outbox.cif.g08.bks.cpg/sg15_85_cif.got.tgz:169887.got - 2010.06.03 18:47:42.
