data_PCOD9269804
_publ_section_title
;
Structure prediction by ZEFSAII (Michael W. Deem and Ramdas Pophale) SiO2 
 PCOD9269804
Probable space group: C 2/C
;
_chemical_formula_sum "Si O2"
_cell_formula_units_Z 32
_cell_length_a 27.098283
_cell_length_b 7.618950
_cell_length_c 11.005096
_cell_angle_alpha 90.000000
_cell_angle_beta 31.754990
_cell_angle_gamma 90.000000
_cell_volume 1195.787982
_symmetry_space_group_name_H-M "C 2/C"
_symmetry_group_IT_number 15
_symmetry_cell_setting 'monoclinic'
loop_
_space_group_symop_operation_xyz
x,y,z
-x,y,1/2-z
-x,-y,-z
x,-y,1/2+z
1/2+x,1/2+y,z
1/2-x,1/2+y,1/2-z
1/2-x,1/2-y,-z
1/2+x,1/2-y,1/2+z
loop_
_atom_site_type_symbol
_atom_site_label
_atom_site_fract_x
_atom_site_fract_y
_atom_site_fract_z
Si Si1 0.562251 0.892530 0.015650
Si Si2 0.941048 0.820328 0.590786
Si Si3 0.344503 0.469848 0.117476
Si Si4 0.756150 0.967652 0.050918
O O1 0.500000 0.979499 0.250000
O O2 0.506493 0.822355 0.015069
O O3 0.602268 0.715658 0.998176
O O4 0.645960 0.018015 0.800641
O O5 0.913115 0.872396 0.512891
O O6 0.000000 0.000000 0.500000
O O7 0.835470 0.814120 0.871832
O O8 0.292249 0.533464 0.107110
O O9 0.278218 0.441078 0.375322
#
# Coordination Sequence:
#
# PCOD9269804 Si02
#       4
#     8   8   8   8
#     4  11  18  35  60  90 118 165 205 244 314 366
#     4   8  18  31  56  85 124 150 204 248 300 360
#     4   9  19  36  55  88 124 154 202 255 301 362
#     4  10  20  34  61  88 124 162 197 262 304 356
#
# _framework density 26.760594000000001
#
# number of rings (size 3 to 8) (size 9 to 14) (size 15 to 20)
#    1.500    1.000    2.500    0.750    0.000    0.000 
#    0.000    6.250    0.000    3.000    0.000    0.000 
#    0.000    0.000    0.000    0.000    0.000    0.000 
#
# Total GULP energy -89125.083924 kJ/mol
# GULP energy per Si atom -5570.317745 kJ/mol
# Density = 2.669969 g / cm^3
# Si number density = 26.760594 Si / 1000 Ang^3
#
#
#
# Elastic Constant Matrix: (Units=GPa)
#
#
# Indices 1 2 3 4 5 6 
#
# 1 178.5918 35.7376 64.0626 0.0000 -6.2813 0.0000
# 2 35.7376 129.5712 57.8223 0.0000 -12.4747 0.0000
# 3 64.0626 57.8223 220.5079 0.0000 -1.0215 0.0000
# 4 0.0000 0.0000 0.0000 21.0935 0.0000 1.2358
# 5 -6.2813 -12.4747 -1.0215 0.0000 54.4382 0.0000
# 6 0.0000 0.0000 0.0000 1.2358 0.0000 2.4359
#
#
#
# Elastic Compliance Matrix: (Units=1/GPa)
#
#
# Indices 1 2 3 4 5 6 
#
# 1 0.006388 -0.001007 -0.001590 0.000000 0.000477 0.000000
# 2 -0.001007 0.009113 -0.002088 0.000000 0.001933 0.000000
# 3 -0.001590 -0.002088 0.005542 0.000000 -0.000558 0.000000
# 4 0.000000 0.000000 0.000000 0.048860 0.000000 -0.024788
# 5 0.000477 0.001933 -0.000558 0.000000 0.018857 0.000000
# 6 0.000000 0.000000 0.000000 -0.024788 0.000000 0.423105
#
#
# Mechanical properties :
#
#
# Convention : Reuss Voigt Hill
#
# Bulk Modulus (GPa) = 85.66110 93.76842 89.71476
# Shear Modulus (GPa) = 9.52153 40.33009 24.92581
#
# Velocity S-wave (km/s) = 1.88832 3.88631 3.05526
# Velocity P-wave (km/s) = 6.06910 7.43328 6.78556
#
# Compressibility (1/GPa) = 0.01167391
#
# Stress axis : x y z
#
# Youngs Moduli (GPa) = 156.54938 109.72786 180.44524
#
# Poissons Ratio (x) = 0.11045 0.28684
# Poissons Ratio (y) = 0.15758 0.37684
# Poissons Ratio (z) = 0.24886 0.22915
#
# Static dielectric constant tensor:
#      x y z
#    x 2.261510 0.000000 0.022680 
#    y 0.000000 2.542120 0.000000 
#    z 0.022680 0.000000 2.264230 
# 
# From -- ./inp_files/84537.got.cif
#   From: 2010.05.17/outbox.cif.g08.bks.cpg/sg15_43_cif.got.tgz:84537.got - 2010.06.03 18:47:42.
