data_PCOD9269777
_publ_section_title
;
Structure prediction by ZEFSAII (Michael W. Deem and Ramdas Pophale) SiO2 
 PCOD9269777
Probable space group: C 2/C
;
_chemical_formula_sum "Si O2"
_cell_formula_units_Z 48
_cell_length_a 11.724526
_cell_length_b 19.687851
_cell_length_c 10.508114
_cell_angle_alpha 90.000000
_cell_angle_beta 110.664261
_cell_angle_gamma 90.000000
_cell_volume 2269.543225
_symmetry_space_group_name_H-M "C 2/C"
_symmetry_group_IT_number 15
_symmetry_cell_setting 'monoclinic'
loop_
_space_group_symop_operation_xyz
x,y,z
-x,y,1/2-z
-x,-y,-z
x,-y,1/2+z
1/2+x,1/2+y,z
1/2-x,1/2+y,1/2-z
1/2-x,1/2-y,-z
1/2+x,1/2-y,1/2+z
loop_
_atom_site_type_symbol
_atom_site_label
_atom_site_fract_x
_atom_site_fract_y
_atom_site_fract_z
Si Si1 0.706931 0.339491 0.088823
Si Si2 0.347804 0.926481 0.486583
Si Si3 0.771482 0.901318 0.803893
Si Si4 0.400126 0.080985 0.511973
Si Si5 0.366135 0.724846 0.208681
Si Si6 0.120402 0.043369 0.713283
O O1 0.759213 0.278574 0.194942
O O2 0.615950 0.393406 0.115007
O O3 0.826256 0.380776 0.091089
O O4 0.656855 0.306113 0.940741
O O5 0.301360 0.890364 0.594848
O O6 0.463022 0.894704 0.459932
O O7 0.234099 0.938346 0.349342
O O8 0.396397 0.001401 0.545676
O O9 0.676579 0.909675 0.649089
O O10 0.856417 0.838133 0.800948
O O11 0.846512 0.971974 0.840561
O O12 0.500000 0.755501 0.250000
O O13 0.000000 0.035870 0.750000
#
# Coordination Sequence:
#
# PCOD9269777 Si02
#       6
#     8   8   8   8   8   8
#     4  10  22  43  60  89 122 157 210 245 289 368
#     4  10  20  34  60  93 120 154 192 253 302 348
#     4  10  20  39  59  93 123 152 199 250 304 361
#     4   9  19  36  60  90 119 153 200 246 303 346
#     4  10  23  40  65  87 117 169 199 244 303 355
#     4  11  24  37  60  91 123 161 198 247 303 353
#
# _framework density 21.149630999999999
#
# number of rings (size 3 to 8) (size 9 to 14) (size 15 to 20)
#    0.000    2.000    1.667    1.000    4.667    0.667 
#    0.000    5.833    0.000    0.000    0.000    0.000 
#    0.000    0.000    0.000    0.000    0.000    0.000 
#
# Total GULP energy -134084.059146 kJ/mol
# GULP energy per Si atom -5586.835798 kJ/mol
# Density = 2.110149 g / cm^3
# Si number density = 21.149631 Si / 1000 Ang^3
#
#
#
# Elastic Constant Matrix: (Units=GPa)
#
#
# Indices 1 2 3 4 5 6 
#
# 1 91.3784 -11.6973 -1.6070 0.0000 -0.5079 0.0000
# 2 -11.6973 47.8190 0.7988 0.0000 -2.6165 0.0000
# 3 -1.6070 0.7988 19.7023 0.0000 -10.0166 0.0000
# 4 0.0000 0.0000 0.0000 23.6376 0.0000 -7.7879
# 5 -0.5079 -2.6165 -10.0166 0.0000 23.0147 0.0000
# 6 0.0000 0.0000 0.0000 -7.7879 0.0000 28.8522
#
#
#
# Elastic Compliance Matrix: (Units=1/GPa)
#
#
# Indices 1 2 3 4 5 6 
#
# 1 0.011335 0.002814 0.001413 0.000000 0.001185 0.000000
# 2 0.002814 0.021745 0.000817 0.000000 0.002890 0.000000
# 3 0.001413 0.000817 0.065363 0.000000 0.028572 0.000000
# 4 0.000000 0.000000 0.000000 0.046435 0.000000 0.012534
# 5 0.001185 0.002890 0.028572 0.000000 0.056240 0.000000
# 6 0.000000 0.000000 0.000000 0.012534 0.000000 0.038043
#
#
# Mechanical properties :
#
#
# Convention : Reuss Voigt Hill
#
# Bulk Modulus (GPa) = 9.21394 14.87655 12.04525
# Shear Modulus (GPa) = 18.85007 26.52789 22.68898
#
# Velocity S-wave (km/s) = 2.98866 3.54545 3.27889
# Velocity P-wave (km/s) = 4.03428 4.87949 4.47688
#
# Compressibility (1/GPa) = 0.10853118
#
# Stress axis : x y z
#
# Youngs Moduli (GPa) = 88.22113 45.98756 15.29911
#
# Poissons Ratio (x) = -0.12941 -0.02162
# Poissons Ratio (y) = -0.24825 -0.01250
# Poissons Ratio (z) = -0.12464 -0.03757
#
# Static dielectric constant tensor:
#      x y z
#    x 1.735860 0.000000 0.025900 
#    y 0.000000 1.803830 0.000000 
#    z 0.025900 0.000000 1.771090 
# 
# From -- ./inp_files/87898.got.cif
#   From: 2010.05.17/outbox.cif.g08.bks.cpg/sg15_44_cif.got.tgz:87898.got - 2010.06.03 18:47:42.
