data_PCOD9269040
_publ_section_title
;
Structure prediction by ZEFSAII (Michael W. Deem and Ramdas Pophale) SiO2 
 PCOD9269040
Probable space group: C 2/C
;
_chemical_formula_sum "Si O2"
_cell_formula_units_Z 56
_cell_length_a 8.141003
_cell_length_b 22.078775
_cell_length_c 16.074949
_cell_angle_alpha 90.000000
_cell_angle_beta 69.499857
_cell_angle_gamma 90.000000
_cell_volume 2706.385841
_symmetry_space_group_name_H-M "C 2/C"
_symmetry_group_IT_number 15
_symmetry_cell_setting 'monoclinic'
loop_
_space_group_symop_operation_xyz
x,y,z
-x,y,1/2-z
-x,-y,-z
x,-y,1/2+z
1/2+x,1/2+y,z
1/2-x,1/2+y,1/2-z
1/2-x,1/2-y,-z
1/2+x,1/2-y,1/2+z
loop_
_atom_site_type_symbol
_atom_site_label
_atom_site_fract_x
_atom_site_fract_y
_atom_site_fract_z
Si Si1 0.000000 0.287526 0.750000
Si Si2 0.500000 0.090323 0.750000
Si Si3 0.147002 0.093610 0.588333
Si Si4 0.229132 0.310889 0.304433
Si Si5 0.107066 0.299615 0.040794
Si Si6 0.324504 0.023129 0.075828
Si Si7 0.730018 0.577948 0.922642
Si Si8 0.455031 0.870887 0.912036
O O1 0.848743 0.241441 0.745147
O O2 0.069918 0.331186 0.665191
O O3 0.355160 0.135728 0.735838
O O4 0.390039 0.052324 0.837513
O O5 0.163728 0.152817 0.643032
O O6 0.276630 0.103514 0.485904
O O7 0.952760 0.079924 0.592215
O O8 0.223349 0.035833 0.625505
O O9 0.060645 0.279469 0.376616
O O10 0.199864 0.354792 0.071531
O O11 0.250000 0.250000 0.000000
O O12 0.032535 0.326869 0.969001
O O13 0.397394 0.076129 0.121951
O O14 0.214229 0.048434 0.016569
O O15 0.500000 0.000000 0.000000
#
# Coordination Sequence:
#
# PCOD9269040 Si02
#       8
#     4   4   8   8   8   8   8   8
#     4  12  24  38  57  90 131 156 196 252 314 362
#     4  10  20  38  51  88 125 152 198 240 314 352
#     4  10  20  39  63  87 114 153 215 246 284 362
#     4  10  23  35  57  87 115 161 192 243 296 356
#     4   9  20  35  56  82 113 157 199 237 288 362
#     4   9  18  40  62  83 113 156 202 247 291 360
#     4  10  20  33  62  89 114 152 200 249 300 350
#     4   9  22  37  57  86 120 157 195 245 309 350
#
# _framework density 20.691801999999999
#
# number of rings (size 3 to 8) (size 9 to 14) (size 15 to 20)
#    0.000    2.286    0.000    3.857    8.000    1.143 
#    0.000    6.429    0.000    3.429    0.000    0.000 
#    0.000    0.000    0.000    0.000    0.000    0.000 
#
# Total GULP energy -156190.393683 kJ/mol
# GULP energy per Si atom -5578.228346 kJ/mol
# Density = 2.064471 g / cm^3
# Si number density = 20.691802 Si / 1000 Ang^3
#
#
#
# Elastic Constant Matrix: (Units=GPa)
#
#
# Indices 1 2 3 4 5 6 
#
# 1 89.0772 13.7325 8.8668 0.0000 2.2321 0.0000
# 2 13.7325 51.4161 20.5944 0.0000 -11.5381 0.0000
# 3 8.8668 20.5944 45.6967 0.0000 -6.3045 0.0000
# 4 0.0000 0.0000 0.0000 16.6394 0.0000 -13.1557
# 5 2.2321 -11.5381 -6.3045 0.0000 21.0028 0.0000
# 6 0.0000 0.0000 0.0000 -13.1557 0.0000 10.2207
#
#
#
# Elastic Compliance Matrix: (Units=1/GPa)
#
#
# Indices 1 2 3 4 5 6 
#
# 1 0.011979 -0.003505 -0.001237 0.000000 -0.003570 0.000000
# 2 -0.003505 0.027082 -0.009828 0.000000 0.012300 0.000000
# 3 -0.001237 -0.009828 0.026942 0.000000 0.002820 0.000000
# 4 0.000000 0.000000 0.000000 -3.400145 0.000000 -4.376533
# 5 -0.003570 0.012300 0.002820 0.000000 0.055596 0.000000
# 6 0.000000 0.000000 0.000000 -4.376533 0.000000 -5.535460
#
#
# Mechanical properties :
#
#
# Convention : Reuss Voigt Hill
#
# Bulk Modulus (GPa) = 27.12810 30.28639 28.70724
# Shear Modulus (GPa) = -0.56996 19.10566 9.26785
#
# Velocity S-wave (km/s) = -0.52540 3.04196 2.11866
# Velocity P-wave (km/s) = 3.57365 5.19679 4.45969
#
# Compressibility (1/GPa) = 0.03686215
#
# Stress axis : x y z
#
# Youngs Moduli (GPa) = 83.47811 36.92469 37.11702
#
# Poissons Ratio (x) = 0.12942 0.04593
# Poissons Ratio (y) = 0.29259 0.36479
# Poissons Ratio (z) = 0.10329 0.36290
#
# Static dielectric constant tensor:
#      x y z
#    x 1.751880 0.000000 0.016850 
#    y 0.000000 1.764070 0.000000 
#    z 0.016850 0.000000 1.817270 
# 
# From -- ./inp_files/137319.got.cif
#   From: 2010.05.17/outbox.cif.g08.bks.cpg/sg15_69_cif.got.tgz:137319.got - 2010.06.03 18:47:42.
