data_PCOD9269375
_publ_section_title
;
Structure prediction by ZEFSAII (Michael W. Deem and Ramdas Pophale) SiO2 
 PCOD9269375
Probable space group: C 2/C
;
_chemical_formula_sum "Si O2"
_cell_formula_units_Z 52
_cell_length_a 12.513727
_cell_length_b 31.306593
_cell_length_c 12.545014
_cell_angle_alpha 90.000000
_cell_angle_beta 146.441711
_cell_angle_gamma 90.000000
_cell_volume 2716.751500
_symmetry_space_group_name_H-M "C 2/C"
_symmetry_group_IT_number 15
_symmetry_cell_setting 'monoclinic'
loop_
_space_group_symop_operation_xyz
x,y,z
-x,y,1/2-z
-x,-y,-z
x,-y,1/2+z
1/2+x,1/2+y,z
1/2-x,1/2+y,1/2-z
1/2-x,1/2-y,-z
1/2+x,1/2-y,1/2+z
loop_
_atom_site_type_symbol
_atom_site_label
_atom_site_fract_x
_atom_site_fract_y
_atom_site_fract_z
Si Si1 0.297311 0.558135 0.838488
Si Si2 0.468739 0.370423 0.850704
Si Si3 0.527430 0.108178 0.034975
Si Si4 0.611544 0.720452 0.232732
Si Si5 0.472914 0.187897 0.853673
Si Si6 0.000000 0.417974 0.750000
Si Si7 0.874980 0.023005 0.544417
O O1 0.093432 0.568187 0.612316
O O2 0.467175 0.548190 0.895183
O O3 0.372830 0.598556 0.968262
O O4 0.293160 0.517167 0.911346
O O5 0.500000 0.368213 0.750000
O O6 0.484955 0.320854 0.903960
O O7 0.255442 0.389683 0.696525
O O8 0.510863 0.108224 0.148838
O O9 0.429726 0.148273 0.893689
O O10 0.500000 0.728561 0.250000
O O11 0.642429 0.768417 0.217404
O O12 0.815079 0.701908 0.434217
O O13 0.500000 0.176754 0.750000
O O14 0.806626 0.446803 0.581541
O O15 0.000000 0.008352 0.750000
#
# Coordination Sequence:
#
# PCOD9269375 Si02
#       7
#     8   8   8   8   8   4   8
#     4  11  24  39  66  90 122 157 212 249 315 363
#     4  10  22  38  59  96 131 157 200 259 319 370
#     4  11  25  39  65  93 121 172 206 253 303 371
#     4   9  18  31  54  84 126 163 187 246 316 369
#     4  10  20  34  55  91 123 155 206 246 310 373
#     4  12  24  48  64  84 130 168 216 250 306 360
#     4  11  24  44  63  91 118 162 205 258 307 373
#
# _framework density 19.140506999999999
#
# number of rings (size 3 to 8) (size 9 to 14) (size 15 to 20)
#    0.000    1.538    3.077    2.308    8.615    3.077 
#    0.000    0.000    0.000    3.692    2.000    0.000 
#    0.000    0.000    0.000    0.000    0.000    0.000 
#
# Total GULP energy -144964.360791 kJ/mol
# GULP energy per Si atom -5575.552338 kJ/mol
# Density = 1.909694 g / cm^3
# Si number density = 19.140507 Si / 1000 Ang^3
#
#
#
# Elastic Constant Matrix: (Units=GPa)
#
#
# Indices 1 2 3 4 5 6 
#
# 1 93.0708 44.0890 34.2382 0.0000 -9.1902 0.0000
# 2 44.0890 65.6157 32.4166 0.0000 0.5746 0.0000
# 3 34.2382 32.4166 51.6456 0.0000 -8.3045 0.0000
# 4 0.0000 0.0000 0.0000 -10.9227 0.0000 -1.0798
# 5 -9.1902 0.5746 -8.3045 0.0000 25.6667 0.0000
# 6 0.0000 0.0000 0.0000 -1.0798 0.0000 19.1001
#
#
#
# Elastic Compliance Matrix: (Units=1/GPa)
#
#
# Indices 1 2 3 4 5 6 
#
# 1 0.017464 -0.009340 -0.004933 0.000000 0.004866 0.000000
# 2 -0.009340 0.027779 -0.012534 0.000000 -0.008022 0.000000
# 3 -0.004933 -0.012534 0.031922 0.000000 0.008843 0.000000
# 4 0.000000 0.000000 0.000000 -0.091044 0.000000 -0.005147
# 5 0.004866 -0.008022 0.008843 0.000000 0.043744 0.000000
# 6 0.000000 0.000000 0.000000 -0.005147 0.000000 0.052065
#
#
# Mechanical properties :
#
#
# Convention : Reuss Voigt Hill
#
# Bulk Modulus (GPa) = 42.46045 47.97998 45.22022
# Shear Modulus (GPa) = 34.86907 13.40805 24.13856
#
# Velocity S-wave (km/s) = 4.27282 2.64958 3.55508
# Velocity P-wave (km/s) = 6.82454 5.87214 6.36618
#
# Compressibility (1/GPa) = 0.02355133
#
# Stress axis : x y z
#
# Youngs Moduli (GPa) = 57.25955 35.99882 31.32672
#
# Poissons Ratio (x) = 0.33625 0.15452
# Poissons Ratio (y) = 0.53483 0.39264
# Poissons Ratio (z) = 0.28244 0.45119
#
# Static dielectric constant tensor:
#      x y z
#    x 1.644310 0.000000 0.012860 
#    y 0.000000 1.798700 0.000000 
#    z 0.012860 0.000000 1.725450 
# 
# From -- ./inp_files/92550.got.cif
#   From: 2010.05.17/outbox.cif.g08.bks.cpg/sg15_47_cif.got.tgz:92550.got - 2010.06.03 18:47:42.
