data_PCOD9269770
_publ_section_title
;
Structure prediction by ZEFSAII (Michael W. Deem and Ramdas Pophale) SiO2 
 PCOD9269770
Probable space group: C 2/C
;
_chemical_formula_sum "Si O2"
_cell_formula_units_Z 56
_cell_length_a 9.178241
_cell_length_b 22.638813
_cell_length_c 12.493598
_cell_angle_alpha 90.000000
_cell_angle_beta 84.340256
_cell_angle_gamma 90.000000
_cell_volume 2583.320679
_symmetry_space_group_name_H-M "C 2/C"
_symmetry_group_IT_number 15
_symmetry_cell_setting 'monoclinic'
loop_
_space_group_symop_operation_xyz
x,y,z
-x,y,1/2-z
-x,-y,-z
x,-y,1/2+z
1/2+x,1/2+y,z
1/2-x,1/2+y,1/2-z
1/2-x,1/2-y,-z
1/2+x,1/2-y,1/2+z
loop_
_atom_site_type_symbol
_atom_site_label
_atom_site_fract_x
_atom_site_fract_y
_atom_site_fract_z
Si Si1 0.605552 0.580874 0.141715
Si Si2 0.198898 0.502087 0.236636
Si Si3 0.725349 0.898466 0.370572
Si Si4 0.657116 0.310001 0.293342
Si Si5 0.608454 0.884874 0.617385
Si Si6 0.798611 0.676877 0.182463
Si Si7 0.557111 0.572297 0.905343
O O1 0.500000 0.576247 0.250000
O O2 0.741854 0.541572 0.169374
O O3 0.664729 0.647028 0.131970
O O4 0.545079 0.562190 0.032428
O O5 0.137210 0.445414 0.304776
O O6 0.114710 0.548498 0.166364
O O7 0.333055 0.474446 0.157143
O O8 0.738039 0.837618 0.304686
O O9 0.666381 0.889107 0.493279
O O10 0.894054 0.923087 0.367698
O O11 0.500000 0.298852 0.250000
O O12 0.704825 0.246605 0.330568
O O13 0.630518 0.363614 0.377485
O O14 0.705825 0.844954 0.692252
O O15 0.450796 0.852988 0.632251
#
# Coordination Sequence:
#
# PCOD9269770 Si02
#       7
#     8   8   8   8   8   8   8
#     4  11  22  36  56  85 112 149 196 239 287 353
#     4  10  20  35  58  84 122 147 187 245 293 348
#     4  10  20  34  60  92 111 155 199 237 293 350
#     4   9  18  37  59  81 114 151 198 240 287 338
#     4  10  20  36  57  85 116 152 193 239 291 348
#     4  10  21  39  55  80 116 157 192 243 292 340
#     4  10  20  35  57  86 116 154 188 245 296 330
#
# _framework density 21.677526
#
# number of rings (size 3 to 8) (size 9 to 14) (size 15 to 20)
#    0.000    2.000    1.429    4.714    0.000    2.857 
#    2.571   12.857    0.000    1.714    0.000    0.000 
#    0.000    0.000    0.000    0.000    0.000    0.000 
#
# Total GULP energy -156322.256217 kJ/mol
# GULP energy per Si atom -5582.937722 kJ/mol
# Density = 2.162819 g / cm^3
# Si number density = 21.677526 Si / 1000 Ang^3
#
#
#
# Elastic Constant Matrix: (Units=GPa)
#
#
# Indices 1 2 3 4 5 6 
#
# 1 31.3912 30.1506 30.0314 0.0000 1.8535 0.0000
# 2 30.1506 160.2434 41.2744 0.0000 -10.4646 0.0000
# 3 30.0314 41.2744 143.3816 0.0000 -17.5448 0.0000
# 4 0.0000 0.0000 0.0000 12.1998 0.0000 3.1779
# 5 1.8535 -10.4646 -17.5448 0.0000 22.6893 0.0000
# 6 0.0000 0.0000 0.0000 3.1779 0.0000 29.0939
#
#
#
# Elastic Compliance Matrix: (Units=1/GPa)
#
#
# Indices 1 2 3 4 5 6 
#
# 1 0.049938 -0.007804 -0.010109 0.000000 -0.015496 0.000000
# 2 -0.007804 0.008025 -0.000160 0.000000 0.004215 0.000000
# 3 -0.010109 -0.000160 0.010194 0.000000 0.008635 0.000000
# 4 0.000000 0.000000 0.000000 0.084369 0.000000 -0.009215
# 5 -0.015496 0.004215 0.008635 0.000000 0.053961 0.000000
# 6 0.000000 0.000000 0.000000 -0.009215 0.000000 0.035378
#
#
# Mechanical properties :
#
#
# Convention : Reuss Voigt Hill
#
# Bulk Modulus (GPa) = 31.23880 59.76986 45.50433
# Shear Modulus (GPa) = 17.32009 28.36727 22.84368
#
# Velocity S-wave (km/s) = 2.82970 3.62139 3.24974
# Velocity P-wave (km/s) = 5.01181 6.71700 5.92606
#
# Compressibility (1/GPa) = 0.03201147
#
# Stress axis : x y z
#
# Youngs Moduli (GPa) = 20.02482 124.60526 98.09319
#
# Poissons Ratio (x) = 0.97244 0.99164
# Poissons Ratio (y) = 0.15628 0.01568
# Poissons Ratio (z) = 0.20243 0.01991
#
# Static dielectric constant tensor:
#      x y z
#    x 1.846440 0.000000 -0.019650 
#    y 0.000000 1.814290 0.000000 
#    z -0.019650 0.000000 1.765200 
# 
# From -- ./inp_files/88901.got.cif
#   From: 2010.05.17/outbox.cif.g08.bks.cpg/sg15_45_cif.got.tgz:88901.got - 2010.06.03 18:47:42.
