data_PCOD9269443
_publ_section_title
;
Structure prediction by ZEFSAII (Michael W. Deem and Ramdas Pophale) SiO2 
 PCOD9269443
Probable space group: C 2/C
;
_chemical_formula_sum "Si O2"
_cell_formula_units_Z 56
_cell_length_a 11.918063
_cell_length_b 26.256798
_cell_length_c 9.161069
_cell_angle_alpha 90.000000
_cell_angle_beta 76.012588
_cell_angle_gamma 90.000000
_cell_volume 2781.771742
_symmetry_space_group_name_H-M "C 2/C"
_symmetry_group_IT_number 15
_symmetry_cell_setting 'monoclinic'
loop_
_space_group_symop_operation_xyz
x,y,z
-x,y,1/2-z
-x,-y,-z
x,-y,1/2+z
1/2+x,1/2+y,z
1/2-x,1/2+y,1/2-z
1/2-x,1/2-y,-z
1/2+x,1/2-y,1/2+z
loop_
_atom_site_type_symbol
_atom_site_label
_atom_site_fract_x
_atom_site_fract_y
_atom_site_fract_z
Si Si1 0.307938 0.304663 0.009558
Si Si2 0.046219 0.172132 0.582692
Si Si3 0.605642 0.946794 0.831327
Si Si4 0.066611 0.439986 0.378964
Si Si5 0.379635 0.164042 0.696564
Si Si6 0.715226 0.359955 0.792098
Si Si7 0.611879 0.781365 0.613649
O O1 0.436344 0.302764 0.035204
O O2 0.314113 0.339133 0.860963
O O3 0.250000 0.250000 0.000000
O O4 0.222411 0.325586 0.159514
O O5 0.110923 0.137601 0.442408
O O6 0.126200 0.220306 0.604556
O O7 0.000000 0.148637 0.750000
O O8 0.500000 0.948742 0.750000
O O9 0.711430 0.912453 0.745335
O O10 0.625283 0.004908 0.882661
O O11 0.538188 0.921709 0.985513
O O12 0.149740 0.392451 0.353483
O O13 0.000000 0.445845 0.250000
O O14 0.500000 0.164580 0.750000
O O15 0.396221 0.199761 0.550903
O O16 0.794167 0.315352 0.834609
O O17 0.500000 0.790309 0.750000
#
# Coordination Sequence:
#
# PCOD9269443 Si02
#       7
#     8   8   8   8   8   8   8
#     4  12  24  38  56  82 115 151 190 235 284 336
#     4  11  24  40  55  78 113 153 196 237 277 332
#     4  10  20  34  56  85 116 145 179 227 285 341
#     4   9  18  33  53  84 117 143 176 225 283 338
#     4  11  20  34  57  85 115 147 186 231 282 341
#     4  12  22  37  58  81 111 151 192 232 284 344
#     4  11  21  36  56  82 113 149 190 232 282 336
#
# _framework density 20.131053000000001
#
# number of rings (size 3 to 8) (size 9 to 14) (size 15 to 20)
#    0.000    1.143    0.000    9.857    0.000    0.000 
#    0.000    0.000    0.000    0.857    0.000    2.000 
#    0.000    0.000    0.000    0.000    0.000    0.000 
#
# Total GULP energy -156135.944035 kJ/mol
# GULP energy per Si atom -5576.283716 kJ/mol
# Density = 2.008523 g / cm^3
# Si number density = 20.131053 Si / 1000 Ang^3
#
#
#
# Elastic Constant Matrix: (Units=GPa)
#
#
# Indices 1 2 3 4 5 6 
#
# 1 56.0615 12.9427 29.1204 0.0000 -10.5992 0.0000
# 2 12.9427 81.2341 47.4283 0.0000 -31.2365 0.0000
# 3 29.1204 47.4283 168.5079 0.0000 -20.1853 0.0000
# 4 0.0000 0.0000 0.0000 30.8989 0.0000 -8.9195
# 5 -10.5992 -31.2365 -20.1853 0.0000 37.7230 0.0000
# 6 0.0000 0.0000 0.0000 -8.9195 0.0000 -0.0436
#
#
#
# Elastic Compliance Matrix: (Units=1/GPa)
#
#
# Indices 1 2 3 4 5 6 
#
# 1 0.020164 0.000164 -0.003030 0.000000 0.004180 0.000000
# 2 0.000164 0.020250 -0.003968 0.000000 0.014690 0.000000
# 3 -0.003030 -0.003968 0.007564 0.000000 -0.000089 0.000000
# 4 0.000000 0.000000 0.000000 0.000539 0.000000 -0.110248
# 5 0.004180 0.014690 -0.000089 0.000000 0.039800 0.000000
# 6 0.000000 0.000000 0.000000 -0.110248 0.000000 -0.381921
#
#
# Mechanical properties :
#
#
# Convention : Reuss Voigt Hill
#
# Bulk Modulus (GPa) = 29.14695 53.86513 41.50604
# Shear Modulus (GPa) = -18.62197 28.13648 4.75726
#
# Velocity S-wave (km/s) = -3.04474 3.74259 1.53892
# Velocity P-wave (km/s) = 1.46609 6.74473 4.88061
#
# Compressibility (1/GPa) = 0.03430891
#
# Stress axis : x y z
#
# Youngs Moduli (GPa) = 49.59361 49.38389 132.20231
#
# Poissons Ratio (x) = -0.00808 0.40057
# Poissons Ratio (y) = -0.00811 0.52458
# Poissons Ratio (z) = 0.15027 0.19595
#
# Static dielectric constant tensor:
#      x y z
#    x 1.845240 0.000000 0.204880 
#    y 0.000000 1.756480 0.000000 
#    z 0.204880 0.000000 2.162310 
# 
# From -- ./inp_files/44244.got.cif
#   From: 2010.05.17/outbox.cif.g08.bks.cpg/sg15_23_cif.got.tgz:44244.got - 2010.06.03 18:47:42.
