data_PCOD9269214
_publ_section_title
;
Structure prediction by ZEFSAII (Michael W. Deem and Ramdas Pophale) SiO2 
 PCOD9269214
Probable space group: C 2/C
;
_chemical_formula_sum "Si O2"
_cell_formula_units_Z 56
_cell_length_a 18.508691
_cell_length_b 18.160538
_cell_length_c 15.027061
_cell_angle_alpha 90.000000
_cell_angle_beta 147.988308
_cell_angle_gamma 90.000000
_cell_volume 2677.503011
_symmetry_space_group_name_H-M "C 2/C"
_symmetry_group_IT_number 15
_symmetry_cell_setting 'monoclinic'
loop_
_space_group_symop_operation_xyz
x,y,z
-x,y,1/2-z
-x,-y,-z
x,-y,1/2+z
1/2+x,1/2+y,z
1/2-x,1/2+y,1/2-z
1/2-x,1/2-y,-z
1/2+x,1/2-y,1/2+z
loop_
_atom_site_type_symbol
_atom_site_label
_atom_site_fract_x
_atom_site_fract_y
_atom_site_fract_z
Si Si1 0.642824 0.468607 0.179850
Si Si2 0.652532 0.869414 0.210879
Si Si3 0.244052 0.937237 0.461910
Si Si4 0.909238 0.314396 0.538758
Si Si5 0.838072 0.608510 0.391974
Si Si6 0.276164 0.820642 0.640749
Si Si7 0.660806 0.103220 0.913657
O O1 0.716427 0.412666 0.189774
O O2 0.629125 0.436432 0.265463
O O3 0.753547 0.533586 0.301502
O O4 0.500000 0.500000 0.000000
O O5 0.621176 0.812466 0.099283
O O6 0.685217 0.852927 0.347862
O O7 0.501116 0.907763 0.054939
O O8 0.364036 0.893393 0.532677
O O9 0.224228 0.889548 0.529006
O O10 0.273243 0.021567 0.519112
O O11 0.816269 0.248994 0.475896
O O12 0.067540 0.304361 0.721330
O O13 0.788034 0.656677 0.256869
O O14 0.807642 0.640854 0.458536
O O15 0.500000 0.088974 0.750000
#
# Coordination Sequence:
#
# PCOD9269214 Si02
#       7
#     8   8   8   8   8   8   8
#     4  10  20  34  53  82 113 140 175 224 280 337
#     4   9  18  35  56  77 106 145 186 229 276 328
#     4  10  20  34  54  81 111 142 177 222 277 337
#     4  10  22  36  54  79 111 151 192 229 270 327
#     4   9  19  34  55  79 105 142 186 228 276 332
#     4  11  21  37  56  78 111 152 190 227 273 328
#     4   9  16  32  59  84 103 132 182 235 277 327
#
# _framework density 20.915009000000001
#
# number of rings (size 3 to 8) (size 9 to 14) (size 15 to 20)
#    0.000    2.286    0.000    3.000    0.000    6.857 
#    0.000   10.000    0.000    0.000    0.000    0.000 
#    0.000    0.000    0.000    0.000    0.000    0.000 
#
# Total GULP energy -156010.427382 kJ/mol
# GULP energy per Si atom -5571.800978 kJ/mol
# Density = 2.086741 g / cm^3
# Si number density = 20.915009 Si / 1000 Ang^3
#
#
#
# Elastic Constant Matrix: (Units=GPa)
#
#
# Indices 1 2 3 4 5 6 
#
# 1 96.1939 20.0590 58.4933 0.0000 -39.4600 0.0000
# 2 20.0590 30.2427 26.9904 0.0000 -0.8471 0.0000
# 3 58.4933 26.9904 103.3530 0.0000 -22.1181 0.0000
# 4 0.0000 0.0000 0.0000 19.7314 0.0000 5.5696
# 5 -39.4600 -0.8471 -22.1181 0.0000 39.5057 0.0000
# 6 0.0000 0.0000 0.0000 5.5696 0.0000 18.7807
#
#
#
# Elastic Compliance Matrix: (Units=1/GPa)
#
#
# Indices 1 2 3 4 5 6 
#
# 1 0.025691 -0.009825 -0.007416 0.000000 0.021298 0.000000
# 2 -0.009825 0.048210 -0.010121 0.000000 -0.014446 0.000000
# 3 -0.007416 -0.010121 0.016910 0.000000 0.001843 0.000000
# 4 0.000000 0.000000 0.000000 0.055311 0.000000 -0.016403
# 5 0.021298 -0.014446 0.001843 0.000000 0.047309 0.000000
# 6 0.000000 0.000000 0.000000 -0.016403 0.000000 0.058110
#
#
# Mechanical properties :
#
#
# Convention : Reuss Voigt Hill
#
# Bulk Modulus (GPa) = 27.71057 48.98612 38.34835
# Shear Modulus (GPa) = 15.70869 23.88668 19.79768
#
# Velocity S-wave (km/s) = 2.74354 3.38314 3.07999
# Velocity P-wave (km/s) = 4.82845 6.22360 5.56988
#
# Compressibility (1/GPa) = 0.03608731
#
# Stress axis : x y z
#
# Youngs Moduli (GPa) = 38.92428 20.74239 59.13506
#
# Poissons Ratio (x) = 0.20379 0.43856
# Poissons Ratio (y) = 0.38242 0.59852
# Poissons Ratio (z) = 0.28867 0.20994
#
# Static dielectric constant tensor:
#      x y z
#    x 1.852950 0.000000 -0.058250 
#    y 0.000000 1.734650 0.000000 
#    z -0.058250 0.000000 1.745210 
# 
# From -- ./inp_files/163831.got.cif
#   From: 2010.05.17/outbox.cif.g08.bks.cpg/sg15_82_cif.got.tgz:163831.got - 2010.06.03 18:47:42.
