data_PCOD9269810
_publ_section_title
;
Structure prediction by ZEFSAII (Michael W. Deem and Ramdas Pophale) SiO2 
 PCOD9269810
Probable space group: C 2/C
;
_chemical_formula_sum "Si O2"
_cell_formula_units_Z 60
_cell_length_a 14.670913
_cell_length_b 21.273958
_cell_length_c 12.865446
_cell_angle_alpha 90.000000
_cell_angle_beta 127.522582
_cell_angle_gamma 90.000000
_cell_volume 3184.678121
_symmetry_space_group_name_H-M "C 2/C"
_symmetry_group_IT_number 15
_symmetry_cell_setting 'monoclinic'
loop_
_space_group_symop_operation_xyz
x,y,z
-x,y,1/2-z
-x,-y,-z
x,-y,1/2+z
1/2+x,1/2+y,z
1/2-x,1/2+y,1/2-z
1/2-x,1/2-y,-z
1/2+x,1/2-y,1/2+z
loop_
_atom_site_type_symbol
_atom_site_label
_atom_site_fract_x
_atom_site_fract_y
_atom_site_fract_z
Si Si1 0.113480 0.959013 0.763709
Si Si2 0.751606 0.010019 0.949078
Si Si3 0.457445 0.070719 0.947240
Si Si4 0.569093 0.836781 0.690758
Si Si5 0.028079 0.191487 0.647518
Si Si6 0.826287 0.883751 0.901143
Si Si7 0.500000 0.043609 0.750000
Si Si8 0.307333 0.418882 0.279840
O O1 0.136272 0.913254 0.683471
O O2 0.000000 0.944251 0.750000
O O3 0.109459 0.029480 0.714624
O O4 0.217041 0.961564 0.918218
O O5 0.811292 0.943368 0.968337
O O6 0.615345 0.002835 0.839260
O O7 0.792965 0.058034 0.888386
O O8 0.488614 0.082783 0.848048
O O9 0.319290 0.075834 0.858404
O O10 0.518972 0.116924 0.069088
O O11 0.500000 0.000000 0.000000
O O12 0.500000 0.845782 0.750000
O O13 0.551091 0.764669 0.644422
O O14 0.702473 0.851849 0.802674
O O15 0.137311 0.148743 0.694760
O O16 0.000000 0.184095 0.750000
O O17 0.920678 0.163894 0.509376
#
# Coordination Sequence:
#
# PCOD9269810 Si02
#       8
#     8   8   8   8   8   8   4   8
#     4  11  21  36  63  93 126 160 199 256 313 367
#     4  10  20  34  61  92 125 156 202 256 314 365
#     4  11  23  38  65  94 127 162 208 262 318 367
#     4  11  27  41  65  93 126 165 210 259 315 374
#     4  11  25  41  62  87 124 170 206 252 311 372
#     4  11  24  40  62  93 126 162 211 255 314 376
#     4  10  20  36  60  92 128 158 200 256 316 370
#     4  10  21  36  60  92 125 162 205 254 312 370
#
# _framework density 18.840208000000001
#
# number of rings (size 3 to 8) (size 9 to 14) (size 15 to 20)
#    0.000    1.333    0.000    6.800    9.333    3.200 
#    0.000    0.000    4.400    4.800    0.000    0.000 
#    0.000    0.000    0.000    0.000    0.000    0.000 
#
# Total GULP energy -167774.758450 kJ/mol
# GULP energy per Si atom -5592.491948 kJ/mol
# Density = 1.879733 g / cm^3
# Si number density = 18.840208 Si / 1000 Ang^3
#
#
#
# Elastic Constant Matrix: (Units=GPa)
#
#
# Indices 1 2 3 4 5 6 
#
# 1 114.2871 58.8694 47.7719 0.0000 9.4815 0.0000
# 2 58.8694 148.8547 75.7502 0.0000 5.1189 0.0000
# 3 47.7719 75.7502 133.4367 0.0000 4.3946 0.0000
# 4 0.0000 0.0000 0.0000 17.2754 0.0000 0.8270
# 5 9.4815 5.1189 4.3946 0.0000 32.4944 0.0000
# 6 0.0000 0.0000 0.0000 0.8270 0.0000 19.6375
#
#
#
# Elastic Compliance Matrix: (Units=1/GPa)
#
#
# Indices 1 2 3 4 5 6 
#
# 1 0.011616 -0.003421 -0.002132 0.000000 -0.002562 0.000000
# 2 -0.003421 0.010473 -0.004721 0.000000 -0.000013 0.000000
# 3 -0.002132 -0.004721 0.010941 0.000000 -0.000114 0.000000
# 4 0.000000 0.000000 0.000000 0.058003 0.000000 -0.002443
# 5 -0.002562 -0.000013 -0.000114 0.000000 0.031540 0.000000
# 6 0.000000 0.000000 0.000000 -0.002443 0.000000 0.051026
#
#
# Mechanical properties :
#
#
# Convention : Reuss Voigt Hill
#
# Bulk Modulus (GPa) = 80.10721 84.59573 82.35147
# Shear Modulus (GPa) = 25.21348 28.16059 26.68704
#
# Velocity S-wave (km/s) = 3.66222 3.87034 3.76772
# Velocity P-wave (km/s) = 7.77779 8.06051 7.92041
#
# Compressibility (1/GPa) = 0.01248327
#
# Stress axis : x y z
#
# Youngs Moduli (GPa) = 86.09029 95.47961 91.39785
#
# Poissons Ratio (x) = 0.32659 0.19489
# Poissons Ratio (y) = 0.29448 0.43145
# Poissons Ratio (z) = 0.18358 0.45072
#
# Static dielectric constant tensor:
#      x y z
#    x 1.672230 0.000000 0.002940 
#    y 0.000000 1.611660 0.000000 
#    z 0.002940 0.000000 1.672010 
# 
# From -- ./inp_files/100686.got.cif
#   From: 2010.05.17/outbox.cif.g08.bks.cpg/sg15_51_cif.got.tgz:100686.got - 2010.06.03 18:47:42.
