data_PCOD9269582
_publ_section_title
;
Structure prediction by ZEFSAII (Michael W. Deem and Ramdas Pophale) SiO2 
 PCOD9269582
Probable space group: C 2/C
;
_chemical_formula_sum "Si O2"
_cell_formula_units_Z 40
_cell_length_a 10.412171
_cell_length_b 17.151727
_cell_length_c 21.784585
_cell_angle_alpha 90.000000
_cell_angle_beta 152.022769
_cell_angle_gamma 90.000000
_cell_volume 1825.084541
_symmetry_space_group_name_H-M "C 2/C"
_symmetry_group_IT_number 15
_symmetry_cell_setting 'monoclinic'
loop_
_space_group_symop_operation_xyz
x,y,z
-x,y,1/2-z
-x,-y,-z
x,-y,1/2+z
1/2+x,1/2+y,z
1/2-x,1/2+y,1/2-z
1/2-x,1/2-y,-z
1/2+x,1/2-y,1/2+z
loop_
_atom_site_type_symbol
_atom_site_label
_atom_site_fract_x
_atom_site_fract_y
_atom_site_fract_z
Si Si1 0.066035 0.913055 0.425229
Si Si2 0.673037 0.954720 0.764488
Si Si3 0.556252 0.664856 0.051492
Si Si4 0.485758 0.908226 0.122671
Si Si5 0.803971 0.343069 0.407582
O O1 0.123211 0.882932 0.517717
O O2 0.272556 0.880529 0.461343
O O3 0.766220 0.879855 0.275500
O O4 0.969946 0.003476 0.386919
O O5 0.500000 0.984726 0.750000
O O6 0.741276 0.865572 0.808566
O O7 0.513489 0.997488 0.642717
O O8 0.592980 0.754501 0.051164
O O9 0.257362 0.638326 0.947490
O O10 0.506029 0.889689 0.059597
O O11 0.500000 0.345467 0.250000
#
# Coordination Sequence:
#
# PCOD9269582 Si02
#       5
#     8   8   8   8   8
#     4   9  19  35  56  81 113 147 177 229 291 333
#     4  10  20  34  58  83 109 148 187 231 270 334
#     4  12  19  34  61  88 104 144 204 232 263 339
#     4   9  20  36  56  79 115 150 179 228 293 330
#     4  10  21  37  55  84 115 147 182 235 290 331
#
# _framework density 21.916792999999998
#
# number of rings (size 3 to 8) (size 9 to 14) (size 15 to 20)
#    1.200    0.800    2.000    3.000    0.000    0.000 
#    0.000    1.000    4.400    0.000   15.600    0.000 
#    0.000    0.000    0.000    0.000    0.000    0.000 
#
# Total GULP energy -111394.098930 kJ/mol
# GULP energy per Si atom -5569.704947 kJ/mol
# Density = 2.186691 g / cm^3
# Si number density = 21.916793 Si / 1000 Ang^3
#
#
#
# Elastic Constant Matrix: (Units=GPa)
#
#
# Indices 1 2 3 4 5 6 
#
# 1 156.5362 68.6469 16.1762 -0.0059 -6.5099 -0.0138
# 2 68.6469 119.0915 2.3830 -0.0006 -2.2530 0.0003
# 3 16.1762 2.3830 52.5218 0.0110 0.5147 0.0124
# 4 -0.0059 -0.0006 0.0110 -7.9779 -0.0013 -35.0825
# 5 -6.5099 -2.2530 0.5147 -0.0013 5.9213 -0.0046
# 6 -0.0138 0.0003 0.0124 -35.0825 -0.0046 -23.4470
#
#
#
# Elastic Compliance Matrix: (Units=1/GPa)
#
#
# Indices 1 2 3 4 5 6 
#
# 1 0.009269 -0.005129 -0.002705 -0.000005 0.008475 -0.000002
# 2 -0.005129 0.011304 0.001081 0.000002 -0.001431 0.000001
# 3 -0.002705 0.001081 0.019866 0.000005 -0.004290 0.000006
# 4 -0.000005 0.000002 0.000005 0.022465 -0.000026 -0.033613
# 5 0.008475 -0.001431 -0.004290 -0.000026 0.178028 -0.000003
# 6 -0.000002 0.000001 0.000006 -0.033613 -0.000003 0.007644
#
#
# Mechanical properties :
#
#
# Convention : Reuss Voigt Hill
#
# Bulk Modulus (GPa) = 37.12862 55.84017 46.48440
# Shear Modulus (GPa) = 18.44611 10.96217 14.70414
#
# Velocity S-wave (km/s) = 2.90426 2.23888 2.59300
# Velocity P-wave (km/s) = 5.31260 5.67600 5.49731
#
# Compressibility (1/GPa) = 0.02693340
#
# Stress axis : x y z
#
# Youngs Moduli (GPa) = 107.88214 88.46074 50.33755
#
# Poissons Ratio (x) = 0.45368 0.13617
# Poissons Ratio (y) = 0.55329 -0.05440
# Poissons Ratio (z) = 0.29185 -0.09560
#
# Static dielectric constant tensor:
#      x y z
#    x 1.774400 0.000000 0.053350 
#    y 0.000000 1.822250 0.000000 
#    z 0.053350 0.000000 1.964260 
# 
# From -- ./inp_files/232937.got.cif
#   From: 2010.05.17/outbox.cif.g08.bks.cpg/sg15_117_cif.got.tgz:232937.got - 2010.06.03 18:47:42.
