data_PCOD9269177
_publ_section_title
;
Structure prediction by ZEFSAII (Michael W. Deem and Ramdas Pophale) SiO2 
 PCOD9269177
Probable space group: C 2/C
;
_chemical_formula_sum "Si O2"
_cell_formula_units_Z 60
_cell_length_a 6.108657
_cell_length_b 22.783513
_cell_length_c 24.934661
_cell_angle_alpha 90.000000
_cell_angle_beta 117.219870
_cell_angle_gamma 90.000000
_cell_volume 3086.011786
_symmetry_space_group_name_H-M "C 2/C"
_symmetry_group_IT_number 15
_symmetry_cell_setting 'monoclinic'
loop_
_space_group_symop_operation_xyz
x,y,z
-x,y,1/2-z
-x,-y,-z
x,-y,1/2+z
1/2+x,1/2+y,z
1/2-x,1/2+y,1/2-z
1/2-x,1/2-y,-z
1/2+x,1/2-y,1/2+z
loop_
_atom_site_type_symbol
_atom_site_label
_atom_site_fract_x
_atom_site_fract_y
_atom_site_fract_z
Si Si1 0.492128 0.916216 0.357248
Si Si2 0.704195 0.611663 0.438972
Si Si3 0.239636 0.318398 0.311324
Si Si4 0.429268 0.499668 0.428588
Si Si5 0.576471 0.217636 0.092200
Si Si6 0.050029 0.187939 0.002219
Si Si7 0.307772 0.900923 0.451672
Si Si8 0.000000 0.109491 0.750000
O O1 0.653182 0.868331 0.343523
O O2 0.658580 0.973307 0.388268
O O3 0.413103 0.888604 0.405066
O O4 0.244075 0.926024 0.294678
O O5 0.495193 0.562469 0.410467
O O6 0.763944 0.659031 0.399601
O O7 0.626443 0.647927 0.482987
O O8 0.965783 0.582480 0.483784
O O9 0.335689 0.261140 0.352101
O O10 0.429053 0.348978 0.291952
O O11 0.000000 0.302713 0.250000
O O12 0.500000 0.500000 0.500000
O O13 0.618557 0.453618 0.424544
O O14 0.287401 0.202788 0.065119
O O15 0.578267 0.255271 0.037000
O O16 0.165893 0.151949 0.965095
#
# Coordination Sequence:
#
# PCOD9269177 Si02
#       8
#     8   8   8   8   8   8   8   4
#     4  11  22  36  61  88 124 150 201 250 304 362
#     4  11  22  34  53  84 124 163 200 233 287 362
#     4  10  22  41  63  93 113 149 198 254 313 363
#     4  12  22  35  56  89 124 163 200 240 292 360
#     4  10  21  34  54  84 121 154 194 239 299 354
#     4  10  20  34  52  85 122 159 195 235 291 355
#     4  11  20  35  57  85 121 163 194 241 299 354
#     4  10  22  40  62  88 116 146 196 258 320 362
#
# _framework density 19.44257
#
# number of rings (size 3 to 8) (size 9 to 14) (size 15 to 20)
#    0.000    1.333    2.667    4.000    0.000    4.267 
#    0.000    0.000    0.000    0.000   32.933    0.000 
#    0.000    0.000    0.000    0.000    0.000    0.000 
#
# Total GULP energy -167543.192138 kJ/mol
# GULP energy per Si atom -5584.773071 kJ/mol
# Density = 1.939832 g / cm^3
# Si number density = 19.442570 Si / 1000 Ang^3
#
#
#
# Elastic Constant Matrix: (Units=GPa)
#
#
# Indices 1 2 3 4 5 6 
#
# 1 83.4711 35.8294 45.4145 0.0000 6.2587 0.0000
# 2 35.8294 86.4443 43.0009 0.0000 17.3008 0.0000
# 3 45.4145 43.0009 88.4647 0.0000 15.0076 0.0000
# 4 0.0000 0.0000 0.0000 31.0044 0.0000 2.6997
# 5 6.2587 17.3008 15.0076 0.0000 42.8837 0.0000
# 6 0.0000 0.0000 0.0000 2.6997 0.0000 29.2506
#
#
#
# Elastic Compliance Matrix: (Units=1/GPa)
#
#
# Indices 1 2 3 4 5 6 
#
# 1 0.017560 -0.003930 -0.007377 0.000000 0.001604 0.000000
# 2 -0.003930 0.016737 -0.005390 0.000000 -0.004293 0.000000
# 3 -0.007377 -0.005390 0.018242 0.000000 -0.003133 0.000000
# 4 0.000000 0.000000 0.000000 0.032515 0.000000 -0.003001
# 5 0.001604 -0.004293 -0.003133 0.000000 0.025913 0.000000
# 6 0.000000 0.000000 0.000000 -0.003001 0.000000 0.034464
#
#
# Mechanical properties :
#
#
# Convention : Reuss Voigt Hill
#
# Bulk Modulus (GPa) = 52.22826 56.31886 54.27356
# Shear Modulus (GPa) = 26.99676 29.57008 28.28342
#
# Velocity S-wave (km/s) = 3.73035 3.90409 3.81821
# Velocity P-wave (km/s) = 6.74353 7.02512 6.88576
#
# Compressibility (1/GPa) = 0.01914672
#
# Stress axis : x y z
#
# Youngs Moduli (GPa) = 56.94670 59.74668 54.81774
#
# Poissons Ratio (x) = 0.23480 0.40437
# Poissons Ratio (y) = 0.22380 0.29547
# Poissons Ratio (z) = 0.42008 0.32203
#
# Static dielectric constant tensor:
#      x y z
#    x 1.728970 0.000000 0.018260 
#    y 0.000000 1.696580 0.000000 
#    z 0.018260 0.000000 1.697360 
# 
# From -- ./inp_files/261738.got.cif
#   From: 2010.05.17/outbox.cif.g08.bks.cpg/sg15_131_cif.got.tgz:261738.got - 2010.06.03 18:47:42.
