data_PCOD9269538
_publ_section_title
;
Structure prediction by ZEFSAII (Michael W. Deem and Ramdas Pophale) SiO2 
 PCOD9269538
Probable space group: C 2/C
;
_chemical_formula_sum "Si O2"
_cell_formula_units_Z 48
_cell_length_a 15.635840
_cell_length_b 8.513564
_cell_length_c 17.243049
_cell_angle_alpha 90.000000
_cell_angle_beta 72.059305
_cell_angle_gamma 90.000000
_cell_volume 2183.729358
_symmetry_space_group_name_H-M "C 2/C"
_symmetry_group_IT_number 15
_symmetry_cell_setting 'monoclinic'
loop_
_space_group_symop_operation_xyz
x,y,z
-x,y,1/2-z
-x,-y,-z
x,-y,1/2+z
1/2+x,1/2+y,z
1/2-x,1/2+y,1/2-z
1/2-x,1/2-y,-z
1/2+x,1/2-y,1/2+z
loop_
_atom_site_type_symbol
_atom_site_label
_atom_site_fract_x
_atom_site_fract_y
_atom_site_fract_z
Si Si1 0.303173 0.374982 0.431800
Si Si2 0.029625 0.332833 0.911154
Si Si3 0.294961 0.435199 0.681629
Si Si4 0.631068 0.283704 0.244633
Si Si5 0.882931 0.644483 0.574379
Si Si6 0.317737 0.351010 0.033826
O O1 0.250000 0.250000 0.500000
O O2 0.363826 0.299089 0.348942
O O3 0.213363 0.438743 0.412505
O O4 0.350379 0.510941 0.466975
O O5 0.048256 0.268868 0.820243
O O6 0.052717 0.517897 0.903735
O O7 0.101999 0.245371 0.947904
O O8 0.934263 0.313826 0.980107
O O9 0.341698 0.545736 0.730635
O O10 0.209667 0.343793 0.739093
O O11 0.360429 0.300724 0.628845
O O12 0.270083 0.551753 0.617081
O O13 0.250000 0.250000 0.000000
#
# Coordination Sequence:
#
# PCOD9269538 Si02
#       6
#     8   8   8   8   8   8
#     4  11  20  39  60  86 115 158 194 248 293 353
#     4  10  22  37  61  89 115 158 198 246 290 362
#     4  10  21  35  60  85 119 150 197 242 283 364
#     4  10  20  34  57  89 110 154 197 238 288 349
#     4  10  20  39  61  84 121 155 197 237 308 348
#     4  11  21  35  59  88 112 153 202 241 293 348
#
# _framework density 21.980744999999999
#
# number of rings (size 3 to 8) (size 9 to 14) (size 15 to 20)
#    0.000    1.667    5.000    2.000    2.333    2.667 
#    0.000    0.833    0.000    0.000    0.000    0.000 
#    0.000    0.000    0.000    0.000    0.000    0.000 
#
# Total GULP energy -133938.812145 kJ/mol
# GULP energy per Si atom -5580.783839 kJ/mol
# Density = 2.193072 g / cm^3
# Si number density = 21.980745 Si / 1000 Ang^3
#
#
#
# Elastic Constant Matrix: (Units=GPa)
#
#
# Indices 1 2 3 4 5 6 
#
# 1 70.6556 29.0495 53.0995 0.0000 -22.8374 0.0000
# 2 29.0495 110.0980 47.2461 0.0000 -3.2133 0.0000
# 3 53.0995 47.2461 178.0346 0.0000 -19.1767 0.0000
# 4 0.0000 0.0000 0.0000 41.4686 0.0000 -3.9714
# 5 -22.8374 -3.2133 -19.1767 0.0000 42.8523 0.0000
# 6 0.0000 0.0000 0.0000 -3.9714 0.0000 12.7461
#
#
#
# Elastic Compliance Matrix: (Units=1/GPa)
#
#
# Indices 1 2 3 4 5 6 
#
# 1 0.022178 -0.003582 -0.004644 0.000000 0.009472 0.000000
# 2 -0.003582 0.010838 -0.002023 0.000000 -0.002002 0.000000
# 3 -0.004644 -0.002023 0.007623 0.000000 0.000785 0.000000
# 4 0.000000 0.000000 0.000000 0.024856 0.000000 0.007745
# 5 0.009472 -0.002002 0.000785 0.000000 0.028585 0.000000
# 6 0.000000 0.000000 0.000000 0.007745 0.000000 0.080869
#
#
# Mechanical properties :
#
#
# Convention : Reuss Voigt Hill
#
# Bulk Modulus (GPa) = 49.65184 68.61982 59.13583
# Shear Modulus (GPa) = 24.73278 34.70628 29.71953
#
# Velocity S-wave (km/s) = 3.35804 3.97790 3.68104
# Velocity P-wave (km/s) = 6.13784 7.23769 6.71034
#
# Compressibility (1/GPa) = 0.02014024
#
# Stress axis : x y z
#
# Youngs Moduli (GPa) = 45.09074 92.26916 131.17631
#
# Poissons Ratio (x) = 0.33055 0.60912
# Poissons Ratio (y) = 0.16153 0.26541
# Poissons Ratio (z) = 0.20938 0.18669
#
# Static dielectric constant tensor:
#      x y z
#    x 1.847830 0.000000 0.052180 
#    y 0.000000 1.822710 0.000000 
#    z 0.052180 0.000000 1.821880 
# 
# From -- ./inp_files/208972.got.cif
#   From: 2010.05.17/outbox.cif.g08.bks.cpg/sg15_105_cif.got.tgz:208972.got - 2010.06.03 18:47:42.
