data_PCOD9269105
_publ_section_title
;
Structure prediction by ZEFSAII (Michael W. Deem and Ramdas Pophale) SiO2 
 PCOD9269105
Probable space group: C 2/C
;
_chemical_formula_sum "Si O2"
_cell_formula_units_Z 44
_cell_length_a 22.879613
_cell_length_b 22.200473
_cell_length_c 5.866887
_cell_angle_alpha 90.000000
_cell_angle_beta 52.604669
_cell_angle_gamma 90.000000
_cell_volume 2367.515928
_symmetry_space_group_name_H-M "C 2/C"
_symmetry_group_IT_number 15
_symmetry_cell_setting 'monoclinic'
loop_
_space_group_symop_operation_xyz
x,y,z
-x,y,1/2-z
-x,-y,-z
x,-y,1/2+z
1/2+x,1/2+y,z
1/2-x,1/2+y,1/2-z
1/2-x,1/2-y,-z
1/2+x,1/2-y,1/2+z
loop_
_atom_site_type_symbol
_atom_site_label
_atom_site_fract_x
_atom_site_fract_y
_atom_site_fract_z
Si Si1 0.633209 0.747515 0.680714
Si Si2 0.446813 0.052856 0.704240
Si Si3 0.500000 0.245166 0.750000
Si Si4 0.098625 0.670159 0.873309
Si Si5 0.263879 0.169895 0.241216
Si Si6 0.715206 0.029587 0.255957
O O1 0.591613 0.794908 0.621100
O O2 0.687589 0.789403 0.701144
O O3 0.684311 0.700621 0.425248
O O4 0.565645 0.717481 0.975498
O O5 0.500000 0.088444 0.750000
O O6 0.422174 0.100212 0.572756
O O7 0.500000 0.000000 0.500000
O O8 0.373930 0.031657 0.009455
O O9 0.549487 0.204816 0.804117
O O10 0.185401 0.672582 0.603214
O O11 0.260437 0.099580 0.315042
O O12 0.735868 0.001986 0.461722
#
# Coordination Sequence:
#
# PCOD9269105 Si02
#       6
#     8   8   4   8   8   8
#     4  10  20  38  57  80 113 148 200 249 301 345
#     4  11  21  33  49  75 113 163 203 233 275 337
#     4  10  20  34  50  84 106 142 186 240 304 348
#     4  10  20  35  54  75 112 151 195 242 286 341
#     4   9  22  37  57  82 108 154 201 246 294 352
#     4  11  24  40  57  83 117 157 203 243 290 352
#
# _framework density 18.584880999999999
#
# number of rings (size 3 to 8) (size 9 to 14) (size 15 to 20)
#    0.000    1.818    2.727    1.091    5.091    1.455 
#    3.273    0.000    0.000    0.000    0.000    1.273 
#    0.000    0.000    0.000    0.000    0.000    0.000 
#
# Total GULP energy -122473.418515 kJ/mol
# GULP energy per Si atom -5566.973569 kJ/mol
# Density = 1.854258 g / cm^3
# Si number density = 18.584881 Si / 1000 Ang^3
#
#
#
# Elastic Constant Matrix: (Units=GPa)
#
#
# Indices 1 2 3 4 5 6 
#
# 1 36.7576 8.7363 26.0207 0.0000 -10.4257 0.0000
# 2 8.7363 77.1346 42.6265 0.0000 -19.4113 0.0000
# 3 26.0207 42.6265 89.6943 0.0000 -21.5908 0.0000
# 4 0.0000 0.0000 0.0000 21.3578 0.0000 1.1884
# 5 -10.4257 -19.4113 -21.5908 0.0000 30.3919 0.0000
# 6 0.0000 0.0000 0.0000 1.1884 0.0000 11.7923
#
#
#
# Elastic Compliance Matrix: (Units=1/GPa)
#
#
# Indices 1 2 3 4 5 6 
#
# 1 0.035679 0.003425 -0.010260 0.000000 0.007138 0.000000
# 2 0.003425 0.019002 -0.008227 0.000000 0.007467 0.000000
# 3 -0.010260 -0.008227 0.019208 0.000000 0.004871 0.000000
# 4 0.000000 0.000000 0.000000 0.047085 0.000000 -0.004745
# 5 0.007138 0.007467 0.004871 0.000000 0.043582 0.000000
# 6 0.000000 0.000000 0.000000 -0.004745 0.000000 0.085279
#
#
# Mechanical properties :
#
#
# Convention : Reuss Voigt Hill
#
# Bulk Modulus (GPa) = 22.84906 39.81708 31.33307
# Shear Modulus (GPa) = 16.97522 21.12194 19.04858
#
# Velocity S-wave (km/s) = 3.02551 3.37488 3.20496
# Velocity P-wave (km/s) = 4.95238 6.05453 5.53098
#
# Compressibility (1/GPa) = 0.04376548
#
# Stress axis : x y z
#
# Youngs Moduli (GPa) = 28.02767 52.62653 52.06208
#
# Poissons Ratio (x) = -0.18027 0.53417
# Poissons Ratio (y) = -0.09601 0.42830
# Poissons Ratio (z) = 0.28757 0.43294
#
# Static dielectric constant tensor:
#      x y z
#    x 1.683240 0.000000 0.054870 
#    y 0.000000 1.632880 0.000000 
#    z 0.054870 0.000000 1.764320 
# 
# From -- ./inp_files/13153.got.cif
#   From: 2010.05.17/outbox.cif.g08.bks.cpg/sg15_7_cif.got.tgz:13153.got - 2010.06.03 18:47:42.
