data_PCOD9269727
_publ_section_title
;
Structure prediction by ZEFSAII (Michael W. Deem and Ramdas Pophale) SiO2 
 PCOD9269727
Probable space group: C 2/C
;
_chemical_formula_sum "Si O2"
_cell_formula_units_Z 44
_cell_length_a 24.383926
_cell_length_b 15.152398
_cell_length_c 11.196999
_cell_angle_alpha 90.000000
_cell_angle_beta 147.937655
_cell_angle_gamma 90.000000
_cell_volume 2196.097910
_symmetry_space_group_name_H-M "C 2/C"
_symmetry_group_IT_number 15
_symmetry_cell_setting 'monoclinic'
loop_
_space_group_symop_operation_xyz
x,y,z
-x,y,1/2-z
-x,-y,-z
x,-y,1/2+z
1/2+x,1/2+y,z
1/2-x,1/2+y,1/2-z
1/2-x,1/2-y,-z
1/2+x,1/2-y,1/2+z
loop_
_atom_site_type_symbol
_atom_site_label
_atom_site_fract_x
_atom_site_fract_y
_atom_site_fract_z
Si Si1 0.018908 0.215248 0.912911
Si Si2 0.284945 0.838946 0.233511
Si Si3 0.890648 0.520243 0.361591
Si Si4 0.943174 0.805824 0.763234
Si Si5 0.314500 0.827840 0.557820
Si Si6 0.000000 0.368899 0.250000
O O1 0.000000 0.168607 0.750000
O O2 0.930760 0.290933 0.751961
O O3 0.131431 0.260581 0.123921
O O4 0.011230 0.165630 0.025279
O O5 0.265885 0.847482 0.340023
O O6 0.334849 0.928683 0.280048
O O7 0.177806 0.821624 0.970788
O O8 0.825016 0.586954 0.159706
O O9 0.915521 0.569688 0.532256
O O10 0.000000 0.500000 0.500000
O O11 0.961156 0.699663 0.779534
O O12 0.000000 0.843360 0.750000
O O13 0.250000 0.750000 0.500000
#
# Coordination Sequence:
#
# PCOD9269727 Si02
#       6
#     8   8   8   8   8   4
#     4  10  20  35  57  88 121 159 205 260 310 377
#     4  11  22  34  62  90 127 160 208 267 320 369
#     4  12  21  35  57  93 125 157 206 271 320 363
#     4  10  20  39  61  88 119 168 209 250 309 387
#     4  11  21  39  59  89 129 172 206 255 327 389
#     4  10  20  34  60  84 116 158 208 242 312 374
#
# _framework density 20.035537999999999
#
# number of rings (size 3 to 8) (size 9 to 14) (size 15 to 20)
#    0.545    0.727    3.636    3.818    1.273    0.000 
#    0.000    3.636    0.000    9.818    0.000    0.000 
#    0.000    0.000    0.000    0.000    0.000    0.000 
#
# Total GULP energy -122802.908742 kJ/mol
# GULP energy per Si atom -5581.950397 kJ/mol
# Density = 1.998994 g / cm^3
# Si number density = 20.035538 Si / 1000 Ang^3
#
#
#
# Elastic Constant Matrix: (Units=GPa)
#
#
# Indices 1 2 3 4 5 6 
#
# 1 99.3538 23.8616 39.6908 0.0000 -24.8058 0.0000
# 2 23.8616 41.8843 15.1950 0.0000 2.0221 0.0000
# 3 39.6908 15.1950 99.7243 0.0000 -22.2869 0.0000
# 4 0.0000 0.0000 0.0000 23.1911 0.0000 -2.5179
# 5 -24.8058 2.0221 -22.2869 0.0000 50.4347 0.0000
# 6 0.0000 0.0000 0.0000 -2.5179 0.0000 8.8271
#
#
#
# Elastic Compliance Matrix: (Units=1/GPa)
#
#
# Indices 1 2 3 4 5 6 
#
# 1 0.014709 -0.007450 -0.003368 0.000000 0.006045 0.000000
# 2 -0.007450 0.029465 -0.002893 0.000000 -0.006124 0.000000
# 3 -0.003368 -0.002893 0.012721 0.000000 0.004081 0.000000
# 4 0.000000 0.000000 0.000000 0.044498 0.000000 0.012693
# 5 0.006045 -0.006124 0.004081 0.000000 0.024849 0.000000
# 6 0.000000 0.000000 0.000000 0.012693 0.000000 0.116908
#
#
# Mechanical properties :
#
#
# Convention : Reuss Voigt Hill
#
# Bulk Modulus (GPa) = 33.92976 44.27301 39.10139
# Shear Modulus (GPa) = 17.83188 27.30491 22.56839
#
# Velocity S-wave (km/s) = 2.98654 3.69565 3.35986
# Velocity P-wave (km/s) = 5.37254 6.35261 5.88302
#
# Compressibility (1/GPa) = 0.02947265
#
# Stress axis : x y z
#
# Youngs Moduli (GPa) = 67.98570 33.93904 78.61001
#
# Poissons Ratio (x) = 0.25283 0.26478
# Poissons Ratio (y) = 0.50647 0.22743
# Poissons Ratio (z) = 0.22899 0.09819
#
# Static dielectric constant tensor:
#      x y z
#    x 1.801510 0.000000 -0.042610 
#    y 0.000000 1.650260 0.000000 
#    z -0.042610 0.000000 1.699480 
# 
# From -- ./inp_files/86785.got.cif
#   From: 2010.05.17/outbox.cif.g08.bks.cpg/sg15_44_cif.got.tgz:86785.got - 2010.06.03 18:47:42.
