data_PCOD9269851
_publ_section_title
;
Structure prediction by ZEFSAII (Michael W. Deem and Ramdas Pophale) SiO2 
 PCOD9269851
Probable space group: C 2/C
;
_chemical_formula_sum "Si O2"
_cell_formula_units_Z 64
_cell_length_a 27.950849
_cell_length_b 11.515853
_cell_length_c 22.377251
_cell_angle_alpha 90.000000
_cell_angle_beta 27.753431
_cell_angle_gamma 90.000000
_cell_volume 3354.082895
_symmetry_space_group_name_H-M "C 2/C"
_symmetry_group_IT_number 15
_symmetry_cell_setting 'monoclinic'
loop_
_space_group_symop_operation_xyz
x,y,z
-x,y,1/2-z
-x,-y,-z
x,-y,1/2+z
1/2+x,1/2+y,z
1/2-x,1/2+y,1/2-z
1/2-x,1/2-y,-z
1/2+x,1/2-y,1/2+z
loop_
_atom_site_type_symbol
_atom_site_label
_atom_site_fract_x
_atom_site_fract_y
_atom_site_fract_z
Si Si1 0.705870 0.590268 0.163049
Si Si2 0.489240 0.929073 0.439604
Si Si3 0.624257 0.454080 0.940747
Si Si4 0.362206 0.755739 0.155725
Si Si5 0.995093 0.070968 0.324327
Si Si6 0.186681 0.124625 0.772983
Si Si7 0.642520 0.886247 0.809225
Si Si8 0.576617 0.827732 0.110440
O O1 0.694982 0.684275 0.228642
O O2 0.607012 0.596982 0.228977
O O3 0.706593 0.465749 0.196961
O O4 0.808228 0.622624 0.013161
O O5 0.557494 0.835535 0.399409
O O6 0.383583 0.921802 0.593347
O O7 0.471113 0.891534 0.393327
O O8 0.552436 0.048083 0.373677
O O9 0.592671 0.339930 0.939083
O O10 0.620011 0.558439 0.897158
O O11 0.743077 0.433587 0.828686
O O12 0.557477 0.482658 0.071851
O O13 0.287098 0.833754 0.198735
O O14 0.928324 0.189756 0.397069
O O15 0.000000 0.031316 0.250000
O O16 0.141526 0.248213 0.802315
O O17 0.500000 0.846938 0.250000
#
# Coordination Sequence:
#
# PCOD9269851 Si02
#       8
#     8   8   8   8   8   8   8   8
#     4  11  24  42  62  94 131 160 209 271 307 381
#     4  11  20  37  58  98 124 162 207 253 315 375
#     4  10  20  37  58  91 123 161 199 260 317 368
#     4  10  20  34  62  93 126 163 194 263 319 373
#     4  11  25  42  64  91 122 167 213 260 314 380
#     4  10  20  37  60  93 129 164 200 257 322 372
#     4  10  22  33  61  94 128 161 204 260 308 379
#     4  11  25  42  63  89 126 166 210 259 316 377
#
# _framework density 19.081222
#
# number of rings (size 3 to 8) (size 9 to 14) (size 15 to 20)
#    0.000    1.500    2.500    3.750    3.500    4.000 
#    0.000    0.000    0.000   10.500    0.000    0.000 
#    0.000    0.000    0.000    0.000    0.000    0.000 
#
# Total GULP energy -178750.679147 kJ/mol
# GULP energy per Si atom -5585.958723 kJ/mol
# Density = 1.903779 g / cm^3
# Si number density = 19.081222 Si / 1000 Ang^3
#
#
#
# Elastic Constant Matrix: (Units=GPa)
#
#
# Indices 1 2 3 4 5 6 
#
# 1 65.0449 9.1011 37.5033 0.0000 -5.9488 0.0000
# 2 9.1011 98.9172 41.5945 -0.0004 -1.5445 0.0000
# 3 37.5033 41.5945 93.7085 -0.0002 -10.4102 0.0000
# 4 0.0000 -0.0004 -0.0002 21.5645 0.0000 -1.1666
# 5 -5.9488 -1.5445 -10.4102 0.0000 29.2562 0.0000
# 6 0.0000 0.0000 0.0000 -1.1666 0.0000 19.5912
#
#
#
# Elastic Compliance Matrix: (Units=1/GPa)
#
#
# Indices 1 2 3 4 5 6 
#
# 1 0.020305 0.001863 -0.008833 0.000000 0.001084 0.000000
# 2 0.001863 0.012653 -0.006502 0.000000 -0.001267 0.000000
# 3 -0.008833 -0.006502 0.017549 0.000000 0.004105 0.000000
# 4 0.000000 0.000000 0.000000 0.046522 0.000000 0.002770
# 5 0.001084 -0.001267 0.004105 0.000000 0.035795 0.000000
# 6 0.000000 0.000000 0.000000 0.002770 0.000000 0.051208
#
#
# Mechanical properties :
#
#
# Convention : Reuss Voigt Hill
#
# Bulk Modulus (GPa) = 42.44165 48.22982 45.33574
# Shear Modulus (GPa) = 22.84869 25.38049 24.11459
#
# Velocity S-wave (km/s) = 3.46416 3.65105 3.55883
# Velocity P-wave (km/s) = 6.18801 6.56540 6.37950
#
# Compressibility (1/GPa) = 0.02356176
#
# Stress axis : x y z
#
# Youngs Moduli (GPa) = 49.24817 79.03559 56.98434
#
# Poissons Ratio (x) = -0.14724 0.50334
# Poissons Ratio (y) = -0.09174 0.37054
# Poissons Ratio (z) = 0.43500 0.51392
#
# Static dielectric constant tensor:
#      x y z
#    x 1.675110 0.000000 -0.055030 
#    y 0.000000 1.692030 0.000000 
#    z -0.055030 0.000000 1.702370 
# 
# From -- ./inp_files/257508.got.cif
#   From: 2010.05.17/outbox.cif.g08.bks.cpg/sg15_129_cif.got.tgz:257508.got - 2010.06.03 18:47:42.
