data_PCOD9269631
_publ_section_title
;
Structure prediction by ZEFSAII (Michael W. Deem and Ramdas Pophale) SiO2 
 PCOD9269631
Probable space group: C 2/C
;
_chemical_formula_sum "Si O2"
_cell_formula_units_Z 48
_cell_length_a 15.500383
_cell_length_b 28.560297
_cell_length_c 10.160223
_cell_angle_alpha 90.000000
_cell_angle_beta 150.656715
_cell_angle_gamma 90.000000
_cell_volume 2204.148860
_symmetry_space_group_name_H-M "C 2/C"
_symmetry_group_IT_number 15
_symmetry_cell_setting 'monoclinic'
loop_
_space_group_symop_operation_xyz
x,y,z
-x,y,1/2-z
-x,-y,-z
x,-y,1/2+z
1/2+x,1/2+y,z
1/2-x,1/2+y,1/2-z
1/2-x,1/2-y,-z
1/2+x,1/2-y,1/2+z
loop_
_atom_site_type_symbol
_atom_site_label
_atom_site_fract_x
_atom_site_fract_y
_atom_site_fract_z
Si Si1 0.794423 0.709371 0.454975
Si Si2 0.286875 0.056923 0.730244
Si Si3 0.283235 0.106851 0.464319
Si Si4 0.293082 0.295760 0.972088
Si Si5 0.282345 0.950913 0.714407
Si Si6 0.708122 0.107948 0.509057
O O1 0.750000 0.750000 0.500000
O O2 0.713670 0.659384 0.387486
O O3 0.000000 0.704148 0.750000
O O4 0.762361 0.713388 0.254327
O O5 0.228308 0.074147 0.510217
O O6 0.231434 0.003621 0.681994
O O7 0.502472 0.053107 0.008423
O O8 0.227084 0.095146 0.758557
O O9 0.500000 0.107248 0.750000
O O10 0.225326 0.085241 0.249876
O O11 0.500000 0.302172 0.250000
O O12 0.250000 0.250000 0.000000
O O13 0.223395 0.342186 0.954935
O O14 0.218006 0.931931 0.489248
O O15 0.500000 0.101104 0.250000
#
# Coordination Sequence:
#
# PCOD9269631 Si02
#       6
#     8   8   8   8   8   8
#     4  11  24  42  65  90 121 159 201 253 306 366
#     4   9  17  26  52  85 120 159 197 254 295 361
#     4   9  17  30  51  79 117 152 192 244 301 344
#     4  12  26  44  66  92 125 162 206 258 314 376
#     4   9  15  30  48  84 123 156 200 250 303 346
#     4  10  20  34  58  90 124 160 208 255 309 359
#
# _framework density 21.777114000000001
#
# number of rings (size 3 to 8) (size 9 to 14) (size 15 to 20)
#    0.000    2.000    1.667    2.500    4.667    4.000 
#    0.000    0.000    0.000    1.000    0.000    0.000 
#    0.000    0.000    0.000    0.000    0.000    0.000 
#
# Total GULP energy -133820.820164 kJ/mol
# GULP energy per Si atom -5575.867507 kJ/mol
# Density = 2.172755 g / cm^3
# Si number density = 21.777114 Si / 1000 Ang^3
#
#
#
# Elastic Constant Matrix: (Units=GPa)
#
#
# Indices 1 2 3 4 5 6 
#
# 1 79.8036 49.0907 32.8627 0.0000 -34.9559 0.0000
# 2 49.0907 150.9548 5.8533 0.0000 -30.8218 0.0000
# 3 32.8627 5.8533 62.4006 0.0000 -28.6069 0.0000
# 4 0.0000 0.0000 0.0000 21.7395 0.0000 -17.8584
# 5 -34.9559 -30.8218 -28.6069 0.0000 32.9977 0.0000
# 6 0.0000 0.0000 0.0000 -17.8584 0.0000 47.3090
#
#
#
# Elastic Compliance Matrix: (Units=1/GPa)
#
#
# Indices 1 2 3 4 5 6 
#
# 1 0.025179 -0.004067 -0.003970 0.000000 0.019434 0.000000
# 2 -0.004067 0.009700 0.005660 0.000000 0.009659 0.000000
# 3 -0.003970 0.005660 0.030007 0.000000 0.027095 0.000000
# 4 0.000000 0.000000 0.000000 0.066674 0.000000 0.025169
# 5 0.019434 0.009659 0.027095 0.000000 0.083403 0.000000
# 6 0.000000 0.000000 0.000000 0.025169 0.000000 0.030638
#
#
# Mechanical properties :
#
#
# Convention : Reuss Voigt Hill
#
# Bulk Modulus (GPa) = 16.63007 52.08582 34.35794
# Shear Modulus (GPa) = 18.49119 34.09941 26.29530
#
# Velocity S-wave (km/s) = 2.91711 3.96136 3.47864
# Velocity P-wave (km/s) = 4.35880 6.70021 5.65207
#
# Compressibility (1/GPa) = 0.06013205
#
# Stress axis : x y z
#
# Youngs Moduli (GPa) = 39.71486 103.09717 33.32603
#
# Poissons Ratio (x) = 0.41925 0.13230
# Poissons Ratio (y) = 0.16150 -0.18861
# Poissons Ratio (z) = 0.15767 -0.58350
#
# Static dielectric constant tensor:
#      x y z
#    x 1.771920 0.000000 0.022010 
#    y 0.000000 1.972570 0.000000 
#    z 0.022010 0.000000 1.808150 
# 
# From -- ./inp_files/44675.got.cif
#   From: 2010.05.17/outbox.cif.g08.bks.cpg/sg15_23_cif.got.tgz:44675.got - 2010.06.03 18:47:42.
