data_PCOD9269470
_publ_section_title
;
Structure prediction by ZEFSAII (Michael W. Deem and Ramdas Pophale) SiO2 
 PCOD9269470
Probable space group: C 2/C
;
_chemical_formula_sum "Si O2"
_cell_formula_units_Z 40
_cell_length_a 7.007560
_cell_length_b 23.027236
_cell_length_c 14.086664
_cell_angle_alpha 90.000000
_cell_angle_beta 132.684313
_cell_angle_gamma 90.000000
_cell_volume 1670.949627
_symmetry_space_group_name_H-M "C 2/C"
_symmetry_group_IT_number 15
_symmetry_cell_setting 'monoclinic'
loop_
_space_group_symop_operation_xyz
x,y,z
-x,y,1/2-z
-x,-y,-z
x,-y,1/2+z
1/2+x,1/2+y,z
1/2-x,1/2+y,1/2-z
1/2-x,1/2-y,-z
1/2+x,1/2-y,1/2+z
loop_
_atom_site_type_symbol
_atom_site_label
_atom_site_fract_x
_atom_site_fract_y
_atom_site_fract_z
Si Si1 0.000291 0.826105 0.020413
Si Si2 0.184402 0.491308 0.655880
Si Si3 0.220020 0.632051 0.256534
Si Si4 0.511511 0.807746 0.519141
Si Si5 0.272273 0.882683 0.281119
O O1 0.048447 0.759538 0.009454
O O2 0.209200 0.854292 0.159831
O O3 0.951883 0.864886 0.910242
O O4 0.748584 0.819504 0.005458
O O5 0.500000 0.486489 0.750000
O O6 0.126311 0.431514 0.691065
O O7 0.142904 0.550829 0.697878
O O8 0.000000 0.500000 0.500000
O O9 0.000000 0.659796 0.250000
O O10 0.229253 0.668622 0.163747
O O11 0.465405 0.844632 0.409569
O O12 0.000000 0.884112 0.250000
#
# Coordination Sequence:
#
# PCOD9269470 Si02
#       5
#     8   8   8   8   8
#     4   9  17  27  49  85 113 147 185 252 290 336
#     4  11  23  41  62  83 118 165 198 236 299 363
#     4  10  20  34  56  88 118 146 201 251 291 340
#     4   9  15  29  50  78 118 149 186 236 301 349
#     4   9  17  30  50  75 111 148 189 229 289 348
#
# _framework density 23.938483999999999
#
# number of rings (size 3 to 8) (size 9 to 14) (size 15 to 20)
#    0.000    2.400    2.000    1.200    2.800    5.600 
#    0.000    0.000    0.000    1.200    0.000    0.000 
#    0.000    0.000    0.000    0.000    0.000    0.000 
#
# Total GULP energy -111696.039704 kJ/mol
# GULP energy per Si atom -5584.801985 kJ/mol
# Density = 2.388400 g / cm^3
# Si number density = 23.938484 Si / 1000 Ang^3
#
#
#
# Elastic Constant Matrix: (Units=GPa)
#
#
# Indices 1 2 3 4 5 6 
#
# 1 81.9047 -12.3056 42.8247 0.0000 -2.9138 0.0000
# 2 -12.3056 124.7159 59.6048 0.0000 -18.9442 0.0000
# 3 42.8247 59.6048 213.6042 0.0000 -20.6959 0.0000
# 4 0.0000 0.0000 0.0000 52.9522 0.0000 4.8478
# 5 -2.9138 -18.9442 -20.6959 0.0000 42.5739 0.0000
# 6 0.0000 0.0000 0.0000 4.8478 0.0000 12.6562
#
#
#
# Elastic Compliance Matrix: (Units=1/GPa)
#
#
# Indices 1 2 3 4 5 6 
#
# 1 0.014749 0.003389 -0.003840 0.000000 0.000651 0.000000
# 2 0.003389 0.010412 -0.003267 0.000000 0.003277 0.000000
# 3 -0.003840 -0.003267 0.006503 0.000000 0.001445 0.000000
# 4 0.000000 0.000000 0.000000 0.019571 0.000000 -0.007496
# 5 0.000651 0.003277 0.001445 0.000000 0.025693 0.000000
# 6 0.000000 0.000000 0.000000 -0.007496 0.000000 0.081884
#
#
# Mechanical properties :
#
#
# Convention : Reuss Voigt Hill
#
# Bulk Modulus (GPa) = 41.27347 66.71917 53.99632
# Shear Modulus (GPa) = 28.68206 43.64320 36.16263
#
# Velocity S-wave (km/s) = 3.46520 4.27446 3.89092
# Velocity P-wave (km/s) = 5.76966 7.23138 6.54148
#
# Compressibility (1/GPa) = 0.02422864
#
# Stress axis : x y z
#
# Youngs Moduli (GPa) = 67.79978 96.04367 153.77349
#
# Poissons Ratio (x) = -0.32552 0.59045
# Poissons Ratio (y) = -0.22979 0.50244
# Poissons Ratio (z) = 0.26033 0.31381
#
# Static dielectric constant tensor:
#      x y z
#    x 2.017470 0.000000 0.067770 
#    y 0.000000 1.849490 0.000000 
#    z 0.067770 0.000000 1.930200 
# 
# From -- ./inp_files/24570.got.cif
#   From: 2010.05.17/outbox.cif.g08.bks.cpg/sg15_13_cif.got.tgz:24570.got - 2010.06.03 18:47:42.
