data_PCOD9269703
_publ_section_title
;
Structure prediction by ZEFSAII (Michael W. Deem and Ramdas Pophale) SiO2 
 PCOD9269703
Probable space group: C 2/C
;
_chemical_formula_sum "Si O2"
_cell_formula_units_Z 64
_cell_length_a 8.557416
_cell_length_b 22.967103
_cell_length_c 20.053177
_cell_angle_alpha 90.000000
_cell_angle_beta 124.700188
_cell_angle_gamma 90.000000
_cell_volume 3240.253412
_symmetry_space_group_name_H-M "C 2/C"
_symmetry_group_IT_number 15
_symmetry_cell_setting 'monoclinic'
loop_
_space_group_symop_operation_xyz
x,y,z
-x,y,1/2-z
-x,-y,-z
x,-y,1/2+z
1/2+x,1/2+y,z
1/2-x,1/2+y,1/2-z
1/2-x,1/2-y,-z
1/2+x,1/2-y,1/2+z
loop_
_atom_site_type_symbol
_atom_site_label
_atom_site_fract_x
_atom_site_fract_y
_atom_site_fract_z
Si Si1 0.583778 0.211851 0.101159
Si Si2 0.253978 0.172559 0.117666
Si Si3 0.031329 0.271493 0.440531
Si Si4 0.005283 0.093176 0.534927
Si Si5 0.810440 0.442004 0.722531
Si Si6 0.088815 0.981439 0.925281
Si Si7 0.661366 0.827719 0.343621
Si Si8 0.792916 0.906568 0.664627
O O1 0.438699 0.200206 0.126953
O O2 0.712616 0.269382 0.139661
O O3 0.725398 0.157275 0.129783
O O4 0.476463 0.213427 0.003438
O O5 0.297309 0.120176 0.180015
O O6 0.116932 0.221288 0.116826
O O7 0.126836 0.142799 0.028877
O O8 0.250000 0.250000 0.500000
O O9 0.054374 0.319485 0.388948
O O10 0.086678 0.055996 0.492385
O O11 0.182896 0.121665 0.614763
O O12 0.882347 0.048379 0.549035
O O13 0.623861 0.476208 0.656419
O O14 0.831814 0.430039 0.805538
O O15 0.000000 0.475076 0.750000
O O16 0.211352 0.949227 0.899265
O O17 0.500000 0.835356 0.250000
O O18 0.000000 0.903835 0.750000
#
# Coordination Sequence:
#
# PCOD9269703 Si02
#       8
#     8   8   8   8   8   8   8   8
#     4  11  21  35  61  89 125 155 198 256 307 378
#     4  11  21  36  61  88 123 161 196 255 309 359
#     4  10  21  35  56  85 120 157 203 238 295 376
#     4  10  20  41  60  85 116 160 214 248 311 359
#     4  10  20  35  58  91 117 150 196 259 312 356
#     4   9  21  37  66  80 115 162 209 260 298 369
#     4  11  24  37  61  90 124 167 203 250 313 382
#     4  10  20  34  59  90 120 153 201 251 311 363
#
# _framework density 19.751541
#
# number of rings (size 3 to 8) (size 9 to 14) (size 15 to 20)
#    0.000    1.750    3.750    1.500   10.500    0.500 
#    0.000    0.625   11.000    0.000    0.000    0.000 
#    0.000    0.000    0.000    0.000    0.000    0.000 
#
# Total GULP energy -178502.244414 kJ/mol
# GULP energy per Si atom -5578.195138 kJ/mol
# Density = 1.970659 g / cm^3
# Si number density = 19.751541 Si / 1000 Ang^3
#
#
#
# Elastic Constant Matrix: (Units=GPa)
#
#
# Indices 1 2 3 4 5 6 
#
# 1 69.1626 19.0925 2.0837 0.0000 -10.8517 0.0000
# 2 19.0925 66.9631 16.7299 0.0000 -1.4625 0.0000
# 3 2.0837 16.7299 75.3799 0.0000 -3.7600 0.0000
# 4 0.0000 0.0000 0.0000 1.7382 0.0000 -1.5004
# 5 -10.8517 -1.4625 -3.7600 0.0000 23.3110 0.0000
# 6 0.0000 0.0000 0.0000 -1.5004 0.0000 23.7349
#
#
#
# Elastic Compliance Matrix: (Units=1/GPa)
#
#
# Indices 1 2 3 4 5 6 
#
# 1 0.017009 -0.004933 0.001012 0.000000 0.007772 0.000000
# 2 -0.004933 0.017245 -0.003782 0.000000 -0.001824 0.000000
# 3 0.001012 -0.003782 0.014203 0.000000 0.002525 0.000000
# 4 0.000000 0.000000 0.000000 0.608496 0.000000 0.038465
# 5 0.007772 -0.001824 0.002525 0.000000 0.046809 0.000000
# 6 0.000000 0.000000 0.000000 0.038465 0.000000 0.044564
#
#
# Mechanical properties :
#
#
# Convention : Reuss Voigt Hill
#
# Bulk Modulus (GPa) = 30.25473 31.92422 31.08948
# Shear Modulus (GPa) = 6.45370 21.33013 13.89192
#
# Velocity S-wave (km/s) = 1.80957 3.28978 2.65492
# Velocity P-wave (km/s) = 4.44038 5.53428 5.01723
#
# Compressibility (1/GPa) = 0.03305268
#
# Stress axis : x y z
#
# Youngs Moduli (GPa) = 58.79127 57.98750 70.40526
#
# Poissons Ratio (x) = 0.28604 -0.07127
# Poissons Ratio (y) = 0.29001 0.26628
# Poissons Ratio (z) = -0.05951 0.21931
#
# Static dielectric constant tensor:
#      x y z
#    x 1.771590 0.000000 -0.029170 
#    y 0.000000 1.698220 0.000000 
#    z -0.029170 0.000000 1.714260 
# 
# From -- ./inp_files/234285.got.cif
#   From: 2010.05.17/outbox.cif.g08.bks.cpg/sg15_118_cif.got.tgz:234285.got - 2010.06.03 18:47:42.
