data_PCOD9269938
_publ_section_title
;
Structure prediction by ZEFSAII (Michael W. Deem and Ramdas Pophale) SiO2 
 PCOD9269938
Probable space group: C 2/C
;
_chemical_formula_sum "Si O2"
_cell_formula_units_Z 64
_cell_length_a 22.521181
_cell_length_b 17.755343
_cell_length_c 11.264484
_cell_angle_alpha 90.000000
_cell_angle_beta 48.307162
_cell_angle_gamma 90.000000
_cell_volume 3363.489586
_symmetry_space_group_name_H-M "C 2/C"
_symmetry_group_IT_number 15
_symmetry_cell_setting 'monoclinic'
loop_
_space_group_symop_operation_xyz
x,y,z
-x,y,1/2-z
-x,-y,-z
x,-y,1/2+z
1/2+x,1/2+y,z
1/2-x,1/2+y,1/2-z
1/2-x,1/2-y,-z
1/2+x,1/2-y,1/2+z
loop_
_atom_site_type_symbol
_atom_site_label
_atom_site_fract_x
_atom_site_fract_y
_atom_site_fract_z
Si Si1 0.185163 0.169771 0.959818
Si Si2 0.672391 0.178773 0.086097
Si Si3 0.241832 0.072785 0.690305
Si Si4 0.407071 0.184186 0.851059
Si Si5 0.548889 0.947408 0.794727
Si Si6 0.896298 0.585677 0.649125
Si Si7 0.227029 0.781887 0.828512
Si Si8 0.249355 0.399350 0.881257
O O1 0.176621 0.104549 0.870630
O O2 0.247407 0.224868 0.809626
O O3 0.116724 0.229805 0.085884
O O4 0.218362 0.132362 0.036061
O O5 0.597414 0.125191 0.191761
O O6 0.698453 0.206109 0.180969
O O7 0.745733 0.128906 0.936698
O O8 0.663297 0.244508 0.001132
O O9 0.325417 0.079750 0.650663
O O10 0.237319 0.987730 0.651525
O O11 0.500000 0.170574 0.750000
O O12 0.393675 0.159711 0.732633
O O13 0.343264 0.129152 0.002724
O O14 0.500000 0.980664 0.750000
O O15 0.608144 0.010848 0.763601
O O16 0.482773 0.922203 0.976275
O O17 0.207850 0.857969 0.785664
#
# Coordination Sequence:
#
# PCOD9269938 Si02
#       8
#     8   8   8   8   8   8   8   8
#     4  10  23  40  58  86 116 153 201 248 287 348
#     4  10  20  35  50  76 112 153 185 231 286 339
#     4  11  22  36  58  84 119 153 197 242 288 347
#     4  11  23  37  59  87 120 159 196 238 293 350
#     4  11  22  32  47  78 123 156 189 222 283 357
#     4  11  23  32  52  80 122 162 190 227 284 353
#     4   9  20  35  56  74 107 146 192 239 283 336
#     4  11  22  36  62  85 118 151 198 243 295 344
#
# _framework density 19.027857000000001
#
# number of rings (size 3 to 8) (size 9 to 14) (size 15 to 20)
#    0.000    1.500    2.500    3.375   10.500    0.000 
#    0.000    0.000    0.000    0.750    0.000    0.875 
#    0.000    0.000    0.000    0.000    0.000    0.000 
#
# Total GULP energy -178428.002173 kJ/mol
# GULP energy per Si atom -5575.875068 kJ/mol
# Density = 1.898455 g / cm^3
# Si number density = 19.027857 Si / 1000 Ang^3
#
#
#
# Elastic Constant Matrix: (Units=GPa)
#
#
# Indices 1 2 3 4 5 6 
#
# 1 48.8455 22.4747 12.9563 0.0000 13.0125 0.0000
# 2 22.4747 108.5785 39.9537 0.0000 10.5392 0.0000
# 3 12.9563 39.9537 72.1719 0.0000 15.8445 0.0000
# 4 0.0000 0.0000 0.0000 28.6087 0.0000 14.6828
# 5 13.0125 10.5392 15.8445 0.0000 24.3416 0.0000
# 6 0.0000 0.0000 0.0000 14.6828 0.0000 27.0593
#
#
#
# Elastic Compliance Matrix: (Units=1/GPa)
#
#
# Indices 1 2 3 4 5 6 
#
# 1 0.025544 -0.004274 0.000434 0.000000 -0.012087 0.000000
# 2 -0.004274 0.012301 -0.006271 0.000000 0.001041 0.000000
# 3 0.000434 -0.006271 0.019489 0.000000 -0.010203 0.000000
# 4 0.000000 0.000000 0.000000 0.048446 0.000000 -0.026287
# 5 -0.012087 0.001041 -0.010203 0.000000 0.053734 0.000000
# 6 0.000000 0.000000 0.000000 -0.026287 0.000000 0.051220
#
#
# Mechanical properties :
#
#
# Convention : Reuss Voigt Hill
#
# Bulk Modulus (GPa) = 26.94482 42.26279 34.60381
# Shear Modulus (GPa) = 20.54846 26.28266 23.41556
#
# Velocity S-wave (km/s) = 3.28977 3.72058 3.51179
# Velocity P-wave (km/s) = 5.34991 6.38092 5.88803
#
# Compressibility (1/GPa) = 0.03711288
#
# Stress axis : x y z
#
# Youngs Moduli (GPa) = 39.14785 81.29356 51.30992
#
# Poissons Ratio (x) = 0.34743 -0.02226
# Poissons Ratio (y) = 0.16731 0.32176
# Poissons Ratio (z) = -0.01699 0.50979
#
# Static dielectric constant tensor:
#      x y z
#    x 1.661890 0.000000 0.037630 
#    y 0.000000 1.721090 0.000000 
#    z 0.037630 0.000000 1.723170 
# 
# From -- ./inp_files/113668.got.cif
#   From: 2010.05.17/outbox.cif.g08.bks.cpg/sg15_57_cif.got.tgz:113668.got - 2010.06.03 18:47:42.
