data_PCOD9269987
_publ_section_title
;
Structure prediction by ZEFSAII (Michael W. Deem and Ramdas Pophale) SiO2 
 PCOD9269987
Probable space group: C 2/C
;
_chemical_formula_sum "Si O2"
_cell_formula_units_Z 56
_cell_length_a 15.660935
_cell_length_b 26.846435
_cell_length_c 15.033256
_cell_angle_alpha 90.000000
_cell_angle_beta 151.491808
_cell_angle_gamma 90.000000
_cell_volume 3016.717263
_symmetry_space_group_name_H-M "C 2/C"
_symmetry_group_IT_number 15
_symmetry_cell_setting 'monoclinic'
loop_
_space_group_symop_operation_xyz
x,y,z
-x,y,1/2-z
-x,-y,-z
x,-y,1/2+z
1/2+x,1/2+y,z
1/2-x,1/2+y,1/2-z
1/2-x,1/2-y,-z
1/2+x,1/2-y,1/2+z
loop_
_atom_site_type_symbol
_atom_site_label
_atom_site_fract_x
_atom_site_fract_y
_atom_site_fract_z
Si Si1 0.080581 0.707827 0.955622
Si Si2 0.827465 0.449270 0.470738
Si Si3 0.219071 0.518035 0.391759
Si Si4 0.672058 0.415500 0.040113
Si Si5 0.796981 0.808425 0.485634
Si Si6 0.690959 0.537808 0.223188
Si Si7 0.522110 0.113375 0.536676
O O1 0.254103 0.700236 0.050696
O O2 0.899900 0.695005 0.737483
O O3 0.059434 0.668396 0.017035
O O4 0.089350 0.768033 0.966598
O O5 0.733264 0.447330 0.480818
O O6 0.732077 0.487302 0.315720
O O7 0.880744 0.398536 0.468686
O O8 0.016211 0.474064 0.672978
O O9 0.253810 0.460935 0.451214
O O10 0.322688 0.527515 0.394766
O O11 0.634646 0.363890 0.958660
O O12 0.827410 0.402724 0.253800
O O13 0.487384 0.434760 0.910648
O O14 0.859653 0.574238 0.393315
#
# Coordination Sequence:
#
# PCOD9269987 Si02
#       7
#     8   8   8   8   8   8   8
#     4   9  19  35  53  72 109 135 174 230 264 320
#     4  10  20  35  55  76 108 150 183 215 268 321
#     4  10  20  35  53  77 113 141 181 223 256 319
#     4  11  21  34  54  77 110 142 179 221 266 322
#     4   9  20  34  51  78 102 139 178 218 274 322
#     4  11  21  36  53  77 110 144 180 222 261 325
#     4  10  20  37  53  73 107 145 178 220 270 310
#
# _framework density 18.563224000000002
#
# number of rings (size 3 to 8) (size 9 to 14) (size 15 to 20)
#    0.000    2.000    2.857    1.286    4.000    1.714 
#    0.000    0.000    0.000    0.000    0.000    1.000 
#    4.286    0.143    0.000    0.000    0.000    0.000 
#
# Total GULP energy -155904.630620 kJ/mol
# GULP energy per Si atom -5568.022522 kJ/mol
# Density = 1.852097 g / cm^3
# Si number density = 18.563224 Si / 1000 Ang^3
#
#
#
# Elastic Constant Matrix: (Units=GPa)
#
#
# Indices 1 2 3 4 5 6 
#
# 1 82.9667 40.4559 24.8706 0.0000 -16.8106 0.0000
# 2 40.4559 105.1254 22.9286 0.0000 -7.8367 0.0000
# 3 24.8706 22.9286 61.7481 0.0001 5.1344 0.0001
# 4 0.0000 0.0000 0.0001 20.3153 0.0000 0.5115
# 5 -16.8106 -7.8367 5.1344 0.0000 17.1413 0.0000
# 6 0.0000 0.0000 0.0001 0.5115 0.0000 27.9607
#
#
#
# Elastic Compliance Matrix: (Units=1/GPa)
#
#
# Indices 1 2 3 4 5 6 
#
# 1 0.021217 -0.004717 -0.008558 0.000000 0.021215 0.000000
# 2 -0.004717 0.012046 -0.002714 0.000000 0.001694 0.000000
# 3 -0.008558 -0.002714 0.021999 0.000000 -0.016223 0.000000
# 4 0.000000 0.000000 0.000000 0.049247 0.000000 -0.000901
# 5 0.021215 0.001694 -0.016223 0.000000 0.084777 0.000000
# 6 0.000000 0.000000 0.000000 -0.000901 0.000000 0.035781
#
#
# Mechanical properties :
#
#
# Convention : Reuss Voigt Hill
#
# Bulk Modulus (GPa) = 42.94917 47.37228 45.16072
# Shear Modulus (GPa) = 18.88177 23.85582 21.36879
#
# Velocity S-wave (km/s) = 3.19275 3.58873 3.39652
# Velocity P-wave (km/s) = 6.06453 6.53811 6.30577
#
# Compressibility (1/GPa) = 0.02328334
#
# Stress axis : x y z
#
# Youngs Moduli (GPa) = 47.13200 83.01554 45.45758
#
# Poissons Ratio (x) = 0.39158 0.38903
# Poissons Ratio (y) = 0.22232 0.12337
# Poissons Ratio (z) = 0.40336 0.22530
#
# Static dielectric constant tensor:
#      x y z
#    x 1.734630 0.000000 0.006130 
#    y 0.000000 1.694770 0.000000 
#    z 0.006130 0.000000 1.680890 
# 
# From -- ./inp_files/157228.got.cif
#   From: 2010.05.17/outbox.cif.g08.bks.cpg/sg15_79_cif.got.tgz:157228.got - 2010.06.03 18:47:42.
