data_PCOD9269741
_publ_section_title
;
Structure prediction by ZEFSAII (Michael W. Deem and Ramdas Pophale) SiO2 
 PCOD9269741
Probable space group: C 2/C
;
_chemical_formula_sum "Si O2"
_cell_formula_units_Z 52
_cell_length_a 8.976361
_cell_length_b 18.992426
_cell_length_c 14.986641
_cell_angle_alpha 90.000000
_cell_angle_beta 96.507901
_cell_angle_gamma 90.000000
_cell_volume 2538.502004
_symmetry_space_group_name_H-M "C 2/C"
_symmetry_group_IT_number 15
_symmetry_cell_setting 'monoclinic'
loop_
_space_group_symop_operation_xyz
x,y,z
-x,y,1/2-z
-x,-y,-z
x,-y,1/2+z
1/2+x,1/2+y,z
1/2-x,1/2+y,1/2-z
1/2-x,1/2-y,-z
1/2+x,1/2-y,1/2+z
loop_
_atom_site_type_symbol
_atom_site_label
_atom_site_fract_x
_atom_site_fract_y
_atom_site_fract_z
Si Si1 0.022274 0.569508 0.940876
Si Si2 0.060367 0.682835 0.431159
Si Si3 0.910488 0.838483 0.007358
Si Si4 0.975144 0.916192 0.642160
Si Si5 0.192456 0.947613 0.357115
Si Si6 0.254981 0.511651 0.823111
Si Si7 0.000000 0.597579 0.250000
O O1 0.865651 0.573350 0.877936
O O2 0.160934 0.556615 0.885889
O O3 0.027973 0.639056 0.999961
O O4 0.000000 0.500000 0.000000
O O5 0.043467 0.765781 0.442742
O O6 0.239307 0.668649 0.457844
O O7 0.006175 0.648179 0.335725
O O8 0.900640 0.899319 0.081597
O O9 0.017113 0.855369 0.930234
O O10 0.117361 0.964515 0.624498
O O11 0.000000 0.898264 0.750000
O O12 0.837639 0.970082 0.622848
O O13 0.166178 0.944069 0.249434
O O14 0.139958 0.455465 0.770821
#
# Coordination Sequence:
#
# PCOD9269741 Si02
#       7
#     8   8   8   8   8   8   4
#     4  11  18  34  60  85 112 147 195 246 278 336
#     4  10  22  35  60  84 116 158 195 231 299 345
#     4  10  20  40  55  85 120 158 190 235 290 360
#     4  10  21  36  60  86 116 154 190 241 296 347
#     4  10  20  34  60  87 115 152 189 237 291 343
#     4  11  19  34  61  91 114 143 201 247 289 329
#     4  12  18  36  60  84 112 146 196 246 278 348
#
# _framework density 20.484522999999999
#
# number of rings (size 3 to 8) (size 9 to 14) (size 15 to 20)
#    0.000    1.538    4.615    1.385    0.000    0.000 
#    4.154    4.615    0.000    7.385    0.000    0.000 
#    0.000    0.000    0.000    0.000    0.000    0.000 
#
# Total GULP energy -145134.900222 kJ/mol
# GULP energy per Si atom -5582.111547 kJ/mol
# Density = 2.043790 g / cm^3
# Si number density = 20.484523 Si / 1000 Ang^3
#
#
#
# Elastic Constant Matrix: (Units=GPa)
#
#
# Indices 1 2 3 4 5 6 
#
# 1 50.4793 -5.2650 18.6984 0.0000 -12.6374 0.0000
# 2 -5.2650 68.4497 63.0096 0.0000 -13.3092 0.0000
# 3 18.6984 63.0096 133.1954 0.0000 -24.8902 0.0000
# 4 0.0000 0.0000 0.0000 28.6072 0.0000 -3.9518
# 5 -12.6374 -13.3092 -24.8902 0.0000 36.3990 0.0000
# 6 0.0000 0.0000 0.0000 -3.9518 0.0000 20.7359
#
#
#
# Elastic Compliance Matrix: (Units=1/GPa)
#
#
# Indices 1 2 3 4 5 6 
#
# 1 0.025170 0.009497 -0.006586 0.000000 0.007708 0.000000
# 2 0.009497 0.029512 -0.014516 0.000000 0.004162 0.000000
# 3 -0.006586 -0.014516 0.015914 0.000000 0.003288 0.000000
# 4 0.000000 0.000000 0.000000 0.035901 0.000000 0.006842
# 5 0.007708 0.004162 0.003288 0.000000 0.033919 0.000000
# 6 0.000000 0.000000 0.000000 0.006842 0.000000 0.049529
#
#
# Mechanical properties :
#
#
# Convention : Reuss Voigt Hill
#
# Bulk Modulus (GPa) = 21.10372 45.00117 33.05245
# Shear Modulus (GPa) = 21.83882 28.86052 25.34967
#
# Velocity S-wave (km/s) = 3.26868 3.75760 3.52163
# Velocity P-wave (km/s) = 4.95685 6.39078 5.71894
#
# Compressibility (1/GPa) = 0.04738500
#
# Stress axis : x y z
#
# Youngs Moduli (GPa) = 39.73027 33.88508 62.83869
#
# Poissons Ratio (x) = -0.32181 0.41384
# Poissons Ratio (y) = -0.37732 0.91218
# Poissons Ratio (z) = 0.26165 0.49189
#
# Static dielectric constant tensor:
#      x y z
#    x 1.792440 0.000000 0.021250 
#    y 0.000000 1.707680 0.000000 
#    z 0.021250 0.000000 1.784080 
# 
# From -- ./inp_files/135996.got.cif
#   From: 2010.05.17/outbox.cif.g08.bks.cpg/sg15_68_cif.got.tgz:135996.got - 2010.06.03 18:47:42.
