data_PCOD9269570
_publ_section_title
;
Structure prediction by ZEFSAII (Michael W. Deem and Ramdas Pophale) SiO2 
 PCOD9269570
Probable space group: C 2/C
;
_chemical_formula_sum "Si O2"
_cell_formula_units_Z 40
_cell_length_a 6.461626
_cell_length_b 22.843777
_cell_length_c 14.679732
_cell_angle_alpha 90.000000
_cell_angle_beta 102.714226
_cell_angle_gamma 90.000000
_cell_volume 2113.713854
_symmetry_space_group_name_H-M "C 2/C"
_symmetry_group_IT_number 15
_symmetry_cell_setting 'monoclinic'
loop_
_space_group_symop_operation_xyz
x,y,z
-x,y,1/2-z
-x,-y,-z
x,-y,1/2+z
1/2+x,1/2+y,z
1/2-x,1/2+y,1/2-z
1/2-x,1/2-y,-z
1/2+x,1/2-y,1/2+z
loop_
_atom_site_type_symbol
_atom_site_label
_atom_site_fract_x
_atom_site_fract_y
_atom_site_fract_z
Si Si1 0.080160 0.727482 0.853384
Si Si2 0.985118 0.813813 0.485559
Si Si3 0.249558 0.936187 0.014441
Si Si4 0.023225 0.022518 0.853384
Si Si5 0.331190 0.125000 0.912380
O O1 0.000000 0.752067 0.750000
O O2 0.018327 0.770276 0.929938
O O3 0.956154 0.666207 0.854967
O O4 0.329971 0.713587 0.892769
O O5 0.215049 0.831593 0.471419
O O6 0.876921 0.875000 0.503841
O O7 0.493629 0.918406 0.028582
O O8 0.187201 0.963588 0.107231
O O9 0.161613 0.979725 0.929938
O O10 0.148813 0.083793 0.854968
O O11 0.000000 0.997934 0.750000
#
# Coordination Sequence:
#
# PCOD9269570 Si02
#       5
#     8   8   8   8   8
#     4  10  21  34  57  83 110 147 189 233 283 341
#     4   9  20  38  54  79 114 148 185 232 283 337
#     4   9  20  38  54  79 114 148 185 232 283 337
#     4  10  21  34  57  83 110 147 189 233 283 341
#     4  10  20  34  58  79 116 144 183 234 284 334
#
# _framework density 18.924037999999999
#
# number of rings (size 3 to 8) (size 9 to 14) (size 15 to 20)
#    0.000    2.400    0.000    1.200    8.400    0.800 
#    0.000    0.000    0.000   21.600    0.000    0.000 
#    0.000    0.000    0.000    0.000    0.000    0.000 
#
# Total GULP energy -111504.526672 kJ/mol
# GULP energy per Si atom -5575.226334 kJ/mol
# Density = 1.888097 g / cm^3
# Si number density = 18.924038 Si / 1000 Ang^3
#
#
#
# Elastic Constant Matrix: (Units=GPa)
#
#
# Indices 1 2 3 4 5 6 
#
# 1 107.6680 20.5922 45.7000 0.0000 3.8124 0.0000
# 2 20.5922 49.4298 26.3307 0.0000 -0.4495 0.0000
# 3 45.7000 26.3307 124.9611 0.0000 -5.1662 0.0000
# 4 0.0000 0.0000 0.0000 13.2406 0.0000 1.6921
# 5 3.8124 -0.4495 -5.1662 0.0000 7.3219 0.0000
# 6 0.0000 0.0000 0.0000 1.6921 0.0000 34.8672
#
#
#
# Elastic Compliance Matrix: (Units=1/GPa)
#
#
# Indices 1 2 3 4 5 6 
#
# 1 0.011920 -0.002842 -0.004145 0.000000 -0.009306 0.000000
# 2 -0.002842 0.023496 -0.003904 0.000000 0.000167 0.000000
# 3 -0.004145 -0.003904 0.010734 0.000000 0.009492 0.000000
# 4 0.000000 0.000000 0.000000 0.075997 0.000000 -0.003688
# 5 -0.009306 0.000167 0.009492 0.000000 0.148130 0.000000
# 6 0.000000 0.000000 0.000000 -0.003688 0.000000 0.028859
#
#
# Mechanical properties :
#
#
# Convention : Reuss Voigt Hill
#
# Bulk Modulus (GPa) = 41.04098 51.92273 46.48186
# Shear Modulus (GPa) = 15.19559 23.71500 19.45530
#
# Velocity S-wave (km/s) = 2.83676 3.54385 3.20984
# Velocity P-wave (km/s) = 5.69771 6.65148 6.19298
#
# Compressibility (1/GPa) = 0.02436589
#
# Stress axis : x y z
#
# Youngs Moduli (GPa) = 83.88950 42.55999 93.16525
#
# Poissons Ratio (x) = 0.12098 0.38619
# Poissons Ratio (y) = 0.23845 0.36376
# Poissons Ratio (z) = 0.34774 0.16617
#
# Static dielectric constant tensor:
#      x y z
#    x 1.706940 0.000000 0.004620 
#    y 0.000000 1.665180 0.000000 
#    z 0.004620 0.000000 1.647930 
# 
# From -- ./inp_files/73323.got.cif
#   From: 2010.05.17/outbox.cif.g08.bks.cpg/sg15_37_cif.got.tgz:73323.got - 2010.06.03 18:47:42.
