data_PCOD9269107
_publ_section_title
;
Structure prediction by ZEFSAII (Michael W. Deem and Ramdas Pophale) SiO2 
 PCOD9269107
Probable space group: C 2/C
;
_chemical_formula_sum "Si O2"
_cell_formula_units_Z 52
_cell_length_a 18.813025
_cell_length_b 21.743290
_cell_length_c 14.639256
_cell_angle_alpha 90.000000
_cell_angle_beta 160.506830
_cell_angle_gamma 90.000000
_cell_volume 1998.259700
_symmetry_space_group_name_H-M "C 2/C"
_symmetry_group_IT_number 15
_symmetry_cell_setting 'monoclinic'
loop_
_space_group_symop_operation_xyz
x,y,z
-x,y,1/2-z
-x,-y,-z
x,-y,1/2+z
1/2+x,1/2+y,z
1/2-x,1/2+y,1/2-z
1/2-x,1/2-y,-z
1/2+x,1/2-y,1/2+z
loop_
_atom_site_type_symbol
_atom_site_label
_atom_site_fract_x
_atom_site_fract_y
_atom_site_fract_z
Si Si1 0.465363 0.082626 0.465929
Si Si2 0.220775 0.696876 0.180704
Si Si3 0.916162 0.800502 0.739405
Si Si4 0.006309 0.034019 0.652364
Si Si5 0.500000 0.753447 0.750000
Si Si6 0.160006 0.168981 0.810597
Si Si7 0.615179 0.992972 0.985032
O O1 0.440383 0.153679 0.458942
O O2 0.605833 0.061775 0.549972
O O3 0.513737 0.046791 0.618547
O O4 0.230167 0.054726 0.160336
O O5 0.287767 0.666478 0.164165
O O6 0.444879 0.694407 0.505030
O O7 0.106368 0.760943 0.017343
O O8 0.750000 0.750000 0.500000
O O9 0.000000 0.834210 0.750000
O O10 0.138935 0.097565 0.800467
O O11 0.000000 0.014924 0.750000
O O12 0.143723 0.990174 0.753410
O O13 0.371807 0.800198 0.528066
O O14 0.667441 0.701561 0.918448
O O15 0.500000 0.979496 0.750000
#
# Coordination Sequence:
#
# PCOD9269107 Si02
#       7
#     8   8   8   8   4   8   8
#     4  10  24  43  65  96 126 166 219 266 321 392
#     4  10  20  40  61  92 127 164 211 261 319 386
#     4   9  19  37  63  88 123 165 207 258 318 376
#     4  11  21  40  64  89 126 171 209 261 329 385
#     4  10  20  34  50  86 126 160 216 254 292 376
#     4  10  21  34  55  83 123 165 207 256 308 368
#     4  11  23  42  68  93 125 167 213 271 330 384
#
# _framework density 26.022645000000001
#
# number of rings (size 3 to 8) (size 9 to 14) (size 15 to 20)
#    0.000    1.846    2.308    1.385    1.077    1.846 
#   16.615    0.769    0.000    0.000    0.000    0.000 
#    0.000    0.000    0.000    0.000    0.000    0.000 
#
# Total GULP energy -145001.113901 kJ/mol
# GULP energy per Si atom -5576.965919 kJ/mol
# Density = 2.596342 g / cm^3
# Si number density = 26.022645 Si / 1000 Ang^3
#
#
#
# Elastic Constant Matrix: (Units=GPa)
#
#
# Indices 1 2 3 4 5 6 
#
# 1 183.8346 16.4610 6.3905 0.0001 0.8379 0.0000
# 2 16.4610 48.3950 11.9425 0.0001 -2.6139 0.0000
# 3 6.3905 11.9425 112.0244 0.0002 1.8643 0.0001
# 4 0.0001 0.0001 0.0002 22.5416 0.0001 5.3695
# 5 0.8379 -2.6139 1.8643 0.0001 30.2160 0.0001
# 6 0.0000 0.0000 0.0001 5.3695 0.0001 26.9889
#
#
#
# Elastic Compliance Matrix: (Units=1/GPa)
#
#
# Indices 1 2 3 4 5 6 
#
# 1 0.005615 -0.001899 -0.000113 0.000000 -0.000313 0.000000
# 2 -0.001899 0.021983 -0.002270 0.000000 0.002094 0.000000
# 3 -0.000113 -0.002270 0.009188 0.000000 -0.000760 0.000000
# 4 0.000000 0.000000 0.000000 0.046569 0.000000 -0.009265
# 5 -0.000313 0.002094 -0.000760 0.000000 0.033332 0.000000
# 6 0.000000 0.000000 0.000000 -0.009265 0.000000 0.038896
#
#
# Mechanical properties :
#
#
# Convention : Reuss Voigt Hill
#
# Bulk Modulus (GPa) = 35.43343 45.98244 40.70793
# Shear Modulus (GPa) = 28.80970 36.57996 32.69483
#
# Velocity S-wave (km/s) = 3.33092 3.75333 3.54842
# Velocity P-wave (km/s) = 5.33285 6.04085 5.69786
#
# Compressibility (1/GPa) = 0.02822194
#
# Stress axis : x y z
#
# Youngs Moduli (GPa) = 178.09254 45.49072 108.84114
#
# Poissons Ratio (x) = 0.08639 0.01226
# Poissons Ratio (y) = 0.33820 0.24707
# Poissons Ratio (z) = 0.02006 0.10326
#
# Static dielectric constant tensor:
#      x y z
#    x 1.623390 0.000000 -0.274430 
#    y 0.000000 2.060920 0.000000 
#    z -0.274430 0.000000 1.977280 
# 
# From -- ./inp_files/169875.got.cif
#   From: 2010.05.17/outbox.cif.g08.bks.cpg/sg15_85_cif.got.tgz:169875.got - 2010.06.03 18:47:42.
