data_PCOD9269764
_publ_section_title
;
Structure prediction by ZEFSAII (Michael W. Deem and Ramdas Pophale) SiO2 
 PCOD9269764
Probable space group: C 2/C
;
_chemical_formula_sum "Si O2"
_cell_formula_units_Z 56
_cell_length_a 18.845656
_cell_length_b 10.515034
_cell_length_c 13.060073
_cell_angle_alpha 90.000000
_cell_angle_beta 115.196491
_cell_angle_gamma 90.000000
_cell_volume 2341.777542
_symmetry_space_group_name_H-M "C 2/C"
_symmetry_group_IT_number 15
_symmetry_cell_setting 'monoclinic'
loop_
_space_group_symop_operation_xyz
x,y,z
-x,y,1/2-z
-x,-y,-z
x,-y,1/2+z
1/2+x,1/2+y,z
1/2-x,1/2+y,1/2-z
1/2-x,1/2-y,-z
1/2+x,1/2-y,1/2+z
loop_
_atom_site_type_symbol
_atom_site_label
_atom_site_fract_x
_atom_site_fract_y
_atom_site_fract_z
Si Si1 0.026475 0.443498 0.406217
Si Si2 0.935655 0.152297 0.033019
Si Si3 0.685392 0.946788 0.046285
Si Si4 0.640279 0.132768 0.743239
Si Si5 0.955546 0.927660 0.318610
Si Si6 0.282800 0.482578 0.928654
Si Si7 0.814217 0.905918 0.724476
O O1 0.055128 0.297021 0.428398
O O2 0.104728 0.525455 0.437703
O O3 0.000000 0.500000 0.500000
O O4 0.943718 0.434414 0.295779
O O5 0.952656 0.151242 0.921034
O O6 0.853261 0.079363 0.998371
O O7 0.998315 0.057833 0.123915
O O8 0.663614 0.873199 0.136693
O O9 0.730139 0.072965 0.119751
O O10 0.749278 0.902362 0.002554
O O11 0.710258 0.065986 0.845155
O O12 0.642023 0.278304 0.779366
O O13 0.000000 0.867267 0.250000
O O14 0.868362 0.971712 0.236591
O O15 0.307039 0.404886 0.843273
#
# Coordination Sequence:
#
# PCOD9269764 Si02
#       7
#     8   8   8   8   8   8   8
#     4  10  21  39  61  79 117 158 193 233 287 341
#     4  10  20  37  59  85 120 147 185 248 288 334
#     4  10  22  38  58  85 115 151 196 232 286 352
#     4  10  21  39  59  80 117 154 188 242 286 338
#     4  10  20  34  60  91 115 147 190 236 295 345
#     4  10  22  37  59  88 114 149 194 241 292 339
#     4  10  20  38  59  85 118 148 191 242 289 338
#
# _framework density 23.913460000000001
#
# number of rings (size 3 to 8) (size 9 to 14) (size 15 to 20)
#    0.000    2.000    1.429    1.714    0.000    4.571 
#    0.000    0.000   28.286    0.000    0.000    0.000 
#    0.000    0.000    0.000    0.000    0.000    0.000 
#
# Total GULP energy -156400.248176 kJ/mol
# GULP energy per Si atom -5585.723149 kJ/mol
# Density = 2.385903 g / cm^3
# Si number density = 23.913460 Si / 1000 Ang^3
#
#
#
# Elastic Constant Matrix: (Units=GPa)
#
#
# Indices 1 2 3 4 5 6 
#
# 1 136.8374 -3.3697 33.1050 0.0000 -8.9851 0.0000
# 2 -3.3697 36.1050 9.9053 0.0000 9.9644 0.0000
# 3 33.1050 9.9053 108.0170 0.0000 18.5260 0.0000
# 4 0.0000 0.0000 0.0000 -3.0202 0.0000 3.2406
# 5 -8.9851 9.9644 18.5260 0.0000 62.3665 0.0000
# 6 0.0000 0.0000 0.0000 3.2406 0.0000 10.5912
#
#
#
# Elastic Compliance Matrix: (Units=1/GPa)
#
#
# Indices 1 2 3 4 5 6 
#
# 1 0.008163 0.001045 -0.002919 0.000000 0.001876 0.000000
# 2 0.001045 0.029509 -0.002364 0.000000 -0.003862 0.000000
# 3 -0.002919 -0.002364 0.010934 0.000000 -0.003291 0.000000
# 4 0.000000 0.000000 0.000000 -0.249270 0.000000 0.076270
# 5 0.001876 -0.003862 -0.003291 0.000000 0.017899 0.000000
# 6 0.000000 0.000000 0.000000 0.076270 0.000000 0.071081
#
#
# Mechanical properties :
#
#
# Convention : Reuss Voigt Hill
#
# Bulk Modulus (GPa) = 24.91967 40.02674 32.47321
# Shear Modulus (GPa) = -55.66004 30.07544 -12.79230
#
# Velocity S-wave (km/s) = -4.82971 3.55022 -2.31539
# Velocity P-wave (km/s) = 4.54512 5.79482 2.54183
#
# Compressibility (1/GPa) = 0.04012895
#
# Stress axis : x y z
#
# Youngs Moduli (GPa) = 122.50106 33.88814 91.46000
#
# Poissons Ratio (x) = -0.03541 0.26702
# Poissons Ratio (y) = -0.12801 0.21620
# Poissons Ratio (z) = 0.35764 0.08011
#
# Static dielectric constant tensor:
#      x y z
#    x 1.978580 0.000000 -0.091530 
#    y 0.000000 1.829200 0.000000 
#    z -0.091530 0.000000 1.963200 
# 
# From -- ./inp_files/161011.got.cif
#   From: 2010.05.17/outbox.cif.g08.bks.cpg/sg15_81_cif.got.tgz:161011.got - 2010.06.03 18:47:42.
