data_PCOD9269992
_publ_section_title
;
Structure prediction by ZEFSAII (Michael W. Deem and Ramdas Pophale) SiO2 
 PCOD9269992
Probable space group: C 2/C
;
_chemical_formula_sum "Si O2"
_cell_formula_units_Z 36
_cell_length_a 12.545527
_cell_length_b 21.104829
_cell_length_c 10.118439
_cell_angle_alpha 90.000000
_cell_angle_beta 33.014561
_cell_angle_gamma 90.000000
_cell_volume 1459.697748
_symmetry_space_group_name_H-M "C 2/C"
_symmetry_group_IT_number 15
_symmetry_cell_setting 'monoclinic'
loop_
_space_group_symop_operation_xyz
x,y,z
-x,y,1/2-z
-x,-y,-z
x,-y,1/2+z
1/2+x,1/2+y,z
1/2-x,1/2+y,1/2-z
1/2-x,1/2-y,-z
1/2+x,1/2-y,1/2+z
loop_
_atom_site_type_symbol
_atom_site_label
_atom_site_fract_x
_atom_site_fract_y
_atom_site_fract_z
Si Si1 0.097918 0.158840 0.011128
Si Si2 0.500000 0.855196 0.750000
Si Si3 0.617131 0.072487 0.491318
Si Si4 0.973476 0.302603 0.489838
Si Si5 0.742863 0.059996 0.840203
O O1 0.000000 0.140319 0.250000
O O2 0.038227 0.228941 0.026672
O O3 0.330942 0.173280 0.786189
O O4 0.102623 0.102533 0.898935
O O5 0.486185 0.812592 0.634041
O O6 0.684445 0.901923 0.533446
O O7 0.500000 0.064367 0.750000
O O8 0.683686 0.145262 0.397369
O O9 0.458948 0.063607 0.536908
O O10 0.770248 0.014579 0.330113
#
# Coordination Sequence:
#
# PCOD9269992 Si02
#       5
#     8   4   8   8   8
#     4  10  20  35  53  80 111 141 177 217 265 316
#     4   8  16  32  50  82 104 134 174 220 262 318
#     4   9  16  30  53  81  99 132 182 219 255 313
#     4  10  21  33  58  81 106 142 175 222 265 311
#     4   9  18  30  53  79 104 139 172 222 264 304
#
# _framework density 24.66264
#
# number of rings (size 3 to 8) (size 9 to 14) (size 15 to 20)
#    0.000    3.111    1.111    1.333    0.000    5.333 
#    0.000    0.000    0.000   12.000    2.889    0.000 
#    0.000    0.000    0.000    0.000    0.000    0.000 
#
# Total GULP energy -100427.990361 kJ/mol
# GULP energy per Si atom -5579.332798 kJ/mol
# Density = 2.460651 g / cm^3
# Si number density = 24.662640 Si / 1000 Ang^3
#
#
#
# Elastic Constant Matrix: (Units=GPa)
#
#
# Indices 1 2 3 4 5 6 
#
# 1 29.8508 -7.6873 17.9926 -0.0006 22.4302 0.0010
# 2 -7.6873 218.8520 90.1771 0.0000 10.7265 0.0001
# 3 17.9926 90.1771 178.9780 -0.0010 36.2161 0.0005
# 4 -0.0006 0.0000 -0.0010 35.6237 0.0006 -10.3066
# 5 22.4302 10.7265 36.2161 0.0006 30.9718 -0.0006
# 6 0.0010 0.0001 0.0005 -10.3066 -0.0006 24.2442
#
#
#
# Elastic Compliance Matrix: (Units=1/GPa)
#
#
# Indices 1 2 3 4 5 6 
#
# 1 0.080443 0.005069 0.001969 0.000001 -0.062316 -0.000004
# 2 0.005069 0.006166 -0.003198 0.000000 -0.002067 0.000000
# 3 0.001969 -0.003198 0.009255 0.000000 -0.011140 0.000000
# 4 0.000001 0.000000 0.000000 0.032008 -0.000002 0.013607
# 5 -0.062316 -0.002067 -0.011140 -0.000002 0.091159 0.000004
# 6 -0.000004 0.000000 0.000000 0.013607 0.000004 0.047031
#
#
# Mechanical properties :
#
#
# Convention : Reuss Voigt Hill
#
# Bulk Modulus (GPa) = 9.65785 69.84951 39.75368
# Shear Modulus (GPa) = 17.07070 39.98118 28.52594
#
# Velocity S-wave (km/s) = 2.63376 4.03069 3.40464
# Velocity P-wave (km/s) = 3.62952 7.07428 5.62222
#
# Compressibility (1/GPa) = 0.10354272
#
# Stress axis : x y z
#
# Youngs Moduli (GPa) = 12.43116 162.16698 108.04908
#
# Poissons Ratio (x) = -0.82196 -0.21273
# Poissons Ratio (y) = -0.06301 0.34558
# Poissons Ratio (z) = -0.02447 0.51866
#
# Static dielectric constant tensor:
#      x y z
#    x 2.056700 0.000000 -0.103620 
#    y 0.000000 2.097310 0.000000 
#    z -0.103620 0.000000 1.970510 
# 
# From -- ./inp_files/107231.got.cif
#   From: 2010.05.17/outbox.cif.g08.bks.cpg/sg15_54_cif.got.tgz:107231.got - 2010.06.03 18:47:42.
