data_PCOD9269294
_publ_section_title
;
Structure prediction by ZEFSAII (Michael W. Deem and Ramdas Pophale) SiO2 
 PCOD9269294
Probable space group: C 2/C
;
_chemical_formula_sum "Si O2"
_cell_formula_units_Z 56
_cell_length_a 14.362368
_cell_length_b 21.025059
_cell_length_c 14.730345
_cell_angle_alpha 90.000000
_cell_angle_beta 139.660107
_cell_angle_gamma 90.000000
_cell_volume 2879.357882
_symmetry_space_group_name_H-M "C 2/C"
_symmetry_group_IT_number 15
_symmetry_cell_setting 'monoclinic'
loop_
_space_group_symop_operation_xyz
x,y,z
-x,y,1/2-z
-x,-y,-z
x,-y,1/2+z
1/2+x,1/2+y,z
1/2-x,1/2+y,1/2-z
1/2-x,1/2-y,-z
1/2+x,1/2-y,1/2+z
loop_
_atom_site_type_symbol
_atom_site_label
_atom_site_fract_x
_atom_site_fract_y
_atom_site_fract_z
Si Si1 0.460679 0.678852 0.492269
Si Si2 0.867945 0.952504 0.903942
Si Si3 0.135753 0.543750 0.074963
Si Si4 0.844317 0.027336 0.600168
Si Si5 0.811725 0.157698 0.682477
Si Si6 0.481865 0.180834 0.482680
Si Si7 0.642680 0.202694 0.308184
O O1 0.429148 0.615246 0.414300
O O2 0.589159 0.660326 0.655144
O O3 0.496715 0.745287 0.468294
O O4 0.310116 0.684045 0.436759
O O5 0.739693 0.965484 0.739501
O O6 0.825348 0.958260 0.979019
O O7 0.000000 0.000000 0.000000
O O8 0.219731 0.516308 0.050217
O O9 0.091880 0.618267 0.028965
O O10 0.000000 0.500000 0.000000
O O11 0.837241 0.095363 0.644423
O O12 0.000000 0.000987 0.750000
O O13 0.644658 0.160345 0.583061
O O14 0.850104 0.223228 0.661031
O O15 0.395379 0.193038 0.325465
O O16 0.500000 0.173803 0.250000
#
# Coordination Sequence:
#
# PCOD9269294 Si02
#       7
#     8   8   8   8   8   8   8
#     4  10  21  37  59  86 124 167 212 255 320 394
#     4  12  25  43  66  96 127 172 219 267 325 386
#     4  12  25  44  64  94 135 172 215 269 318 384
#     4  12  23  39  66  94 128 172 217 260 321 388
#     4  10  20  34  54  86 127 167 202 255 314 385
#     4  10  22  36  56  88 126 171 203 257 317 372
#     4  10  21  31  51  85 127 166 206 251 315 387
#
# _framework density 19.448781
#
# number of rings (size 3 to 8) (size 9 to 14) (size 15 to 20)
#    0.000    1.143    5.714    0.429    4.000    3.429 
#    0.000    0.000    0.000    0.857    0.000    0.000 
#    0.000    0.000    0.000    0.000    0.000    0.000 
#
# Total GULP energy -155952.659491 kJ/mol
# GULP energy per Si atom -5569.737839 kJ/mol
# Density = 1.940451 g / cm^3
# Si number density = 19.448781 Si / 1000 Ang^3
#
#
#
# Elastic Constant Matrix: (Units=GPa)
#
#
# Indices 1 2 3 4 5 6 
#
# 1 59.9351 48.9541 19.8451 0.0000 16.1841 0.0000
# 2 48.9541 145.8495 23.1714 0.0000 13.6723 0.0000
# 3 19.8451 23.1714 111.4042 0.0000 20.7211 0.0000
# 4 0.0000 0.0000 0.0000 33.4055 0.0000 11.3147
# 5 16.1841 13.6723 20.7211 0.0000 27.4647 0.0000
# 6 0.0000 0.0000 0.0000 11.3147 0.0000 30.6170
#
#
#
# Elastic Compliance Matrix: (Units=1/GPa)
#
#
# Indices 1 2 3 4 5 6 
#
# 1 0.026170 -0.007599 -0.001066 0.000000 -0.010834 0.000000
# 2 -0.007599 0.009489 -0.000668 0.000000 0.000258 0.000000
# 3 -0.001066 -0.000668 0.010616 0.000000 -0.007049 0.000000
# 4 0.000000 0.000000 0.000000 0.034218 0.000000 -0.012646
# 5 -0.010834 0.000258 -0.007049 0.000000 0.047984 0.000000
# 6 0.000000 0.000000 0.000000 -0.012646 0.000000 0.037335
#
#
# Mechanical properties :
#
#
# Convention : Reuss Voigt Hill
#
# Bulk Modulus (GPa) = 36.22031 55.68112 45.95072
# Shear Modulus (GPa) = 25.81561 33.31198 29.56379
#
# Velocity S-wave (km/s) = 3.64725 4.14310 3.90306
# Velocity P-wave (km/s) = 6.03328 7.18184 6.63247
#
# Compressibility (1/GPa) = 0.02760882
#
# Stress axis : x y z
#
# Youngs Moduli (GPa) = 38.21192 105.38659 94.19525
#
# Poissons Ratio (x) = 0.80082 0.10043
# Poissons Ratio (y) = 0.29037 0.06292
# Poissons Ratio (z) = 0.04074 0.07040
#
# Static dielectric constant tensor:
#      x y z
#    x 1.686030 0.000000 0.005050 
#    y 0.000000 1.783460 0.000000 
#    z 0.005050 0.000000 1.698910 
# 
# From -- ./inp_files/156238.got.cif
#   From: 2010.05.17/outbox.cif.g08.bks.cpg/sg15_79_cif.got.tgz:156238.got - 2010.06.03 18:47:42.
