data_PCOD9269551
_publ_section_title
;
Structure prediction by ZEFSAII (Michael W. Deem and Ramdas Pophale) SiO2 
 PCOD9269551
Probable space group: C 2/C
;
_chemical_formula_sum "Si O2"
_cell_formula_units_Z 64
_cell_length_a 10.253665
_cell_length_b 13.500373
_cell_length_c 22.003811
_cell_angle_alpha 90.000000
_cell_angle_beta 63.181646
_cell_angle_gamma 90.000000
_cell_volume 2718.331874
_symmetry_space_group_name_H-M "C 2/C"
_symmetry_group_IT_number 15
_symmetry_cell_setting 'monoclinic'
loop_
_space_group_symop_operation_xyz
x,y,z
-x,y,1/2-z
-x,-y,-z
x,-y,1/2+z
1/2+x,1/2+y,z
1/2-x,1/2+y,1/2-z
1/2-x,1/2-y,-z
1/2+x,1/2-y,1/2+z
loop_
_atom_site_type_symbol
_atom_site_label
_atom_site_fract_x
_atom_site_fract_y
_atom_site_fract_z
Si Si1 0.567296 0.845297 0.056922
Si Si2 0.823487 0.934179 0.792712
Si Si3 0.674415 0.859562 0.703791
Si Si4 0.151361 0.857392 0.181280
Si Si5 0.422406 0.226287 0.469136
Si Si6 0.858455 0.549337 0.411118
Si Si7 0.083650 0.931317 0.059704
Si Si8 0.362044 0.360738 0.916653
O O1 0.563125 0.746032 0.097577
O O2 0.555802 0.948555 0.094278
O O3 0.456972 0.829257 0.024304
O O4 0.725031 0.852173 0.990673
O O5 0.754402 0.882245 0.749512
O O6 0.799274 0.885164 0.863363
O O7 0.000000 0.935520 0.750000
O O8 0.770745 0.048171 0.805619
O O9 0.500000 0.861297 0.750000
O O10 0.719832 0.750526 0.671159
O O11 0.697966 0.938005 0.645012
O O12 0.122127 0.889595 0.118326
O O13 0.000000 0.848790 0.250000
O O14 0.250000 0.250000 0.500000
O O15 0.451798 0.147606 0.409339
O O16 0.500456 0.334675 0.449994
O O17 0.720795 0.553125 0.485946
O O18 0.038809 0.045342 0.082718
#
# Coordination Sequence:
#
# PCOD9269551 Si02
#       8
#     8   8   8   8   8   8   8   8
#     4  10  21  38  62  91 127 161 199 265 323 374
#     4  10  23  43  65  90 127 169 212 265 325 385
#     4  11  24  41  64  95 124 170 222 264 315 389
#     4   9  19  39  64  87 126 168 210 257 320 389
#     4  10  20  34  57  91 122 158 200 253 310 373
#     4  10  21  38  59  90 126 161 210 262 318 372
#     4   9  18  37  61  89 118 158 213 252 310 379
#     4   9  21  40  61  88 121 164 208 254 322 380
#
# _framework density 23.543851
#
# number of rings (size 3 to 8) (size 9 to 14) (size 15 to 20)
#    0.000    2.250    1.250    0.375    1.750    3.500 
#    4.500   10.000    0.000    0.000    0.000    0.000 
#    0.000    0.000    0.000    0.000    0.000    0.000 
#
# Total GULP energy -178737.874084 kJ/mol
# GULP energy per Si atom -5585.558565 kJ/mol
# Density = 2.349026 g / cm^3
# Si number density = 23.543851 Si / 1000 Ang^3
#
#
#
# Elastic Constant Matrix: (Units=GPa)
#
#
# Indices 1 2 3 4 5 6 
#
# 1 93.6169 42.2287 25.0364 0.0000 7.2501 0.0000
# 2 42.2287 203.1108 46.2810 0.0000 31.0811 0.0000
# 3 25.0364 46.2810 100.4568 0.0000 11.0958 0.0000
# 4 0.0000 0.0000 0.0000 28.3113 0.0000 18.1909
# 5 7.2501 31.0811 11.0958 0.0000 36.2382 0.0000
# 6 0.0000 0.0000 0.0000 18.1909 0.0000 7.0877
#
#
#
# Elastic Compliance Matrix: (Units=1/GPa)
#
#
# Indices 1 2 3 4 5 6 
#
# 1 0.012166 -0.002049 -0.002084 0.000000 -0.000039 0.000000
# 2 -0.002049 0.006498 -0.001980 0.000000 -0.004557 0.000000
# 3 -0.002084 -0.001980 0.011543 0.000000 -0.001419 0.000000
# 4 0.000000 0.000000 0.000000 -0.054417 0.000000 0.139664
# 5 -0.000039 -0.004557 -0.001419 0.000000 0.031946 0.000000
# 6 0.000000 0.000000 0.000000 0.139664 0.000000 -0.217365
#
#
# Mechanical properties :
#
#
# Convention : Reuss Voigt Hill
#
# Bulk Modulus (GPa) = 55.61076 69.36408 62.48742
# Shear Modulus (GPa) = -26.12182 33.23666 3.55742
#
# Velocity S-wave (km/s) = -3.33452 3.76132 1.23055
# Velocity P-wave (km/s) = 2.97421 6.95622 5.34953
#
# Compressibility (1/GPa) = 0.01798213
#
# Stress axis : x y z
#
# Youngs Moduli (GPa) = 82.19425 153.89843 86.63455
#
# Poissons Ratio (x) = 0.31529 0.18055
# Poissons Ratio (y) = 0.16839 0.17151
# Poissons Ratio (z) = 0.17130 0.30466
#
# Static dielectric constant tensor:
#      x y z
#    x 1.926350 0.000000 -0.066040 
#    y 0.000000 1.985610 0.000000 
#    z -0.066040 0.000000 1.895560 
# 
# From -- ./inp_files/238745.got.cif
#   From: 2010.05.17/outbox.cif.g08.bks.cpg/sg15_120_cif.got.tgz:238745.got - 2010.06.03 18:47:42.
