data_PCOD9269389
_publ_section_title
;
Structure prediction by ZEFSAII (Michael W. Deem and Ramdas Pophale) SiO2 
 PCOD9269389
Probable space group: C 2/C
;
_chemical_formula_sum "Si O2"
_cell_formula_units_Z 44
_cell_length_a 9.932009
_cell_length_b 32.651986
_cell_length_c 9.182055
_cell_angle_alpha 90.000000
_cell_angle_beta 52.225062
_cell_angle_gamma 90.000000
_cell_volume 2353.673307
_symmetry_space_group_name_H-M "C 2/C"
_symmetry_group_IT_number 15
_symmetry_cell_setting 'monoclinic'
loop_
_space_group_symop_operation_xyz
x,y,z
-x,y,1/2-z
-x,-y,-z
x,-y,1/2+z
1/2+x,1/2+y,z
1/2-x,1/2+y,1/2-z
1/2-x,1/2-y,-z
1/2+x,1/2-y,1/2+z
loop_
_atom_site_type_symbol
_atom_site_label
_atom_site_fract_x
_atom_site_fract_y
_atom_site_fract_z
Si Si1 0.714544 0.785792 0.346293
Si Si2 0.000000 0.902779 0.750000
Si Si3 0.500000 0.983856 0.750000
Si Si4 0.500000 0.884920 0.250000
Si Si5 0.641974 0.947719 0.947486
Si Si6 0.500000 0.221002 0.250000
Si Si7 0.845055 0.836181 0.031981
Si Si8 0.500000 0.736735 0.250000
O O1 0.587427 0.801299 0.556314
O O2 0.845436 0.749997 0.301922
O O3 0.833535 0.821214 0.204181
O O4 0.595856 0.765077 0.302075
O O5 0.169432 0.929337 0.657226
O O6 0.021783 0.871018 0.600939
O O7 0.601065 0.958549 0.807068
O O8 0.618108 0.013072 0.569951
O O9 0.491448 0.914753 0.396102
O O10 0.662996 0.856471 0.125575
O O11 0.878071 0.795193 0.916273
#
# Coordination Sequence:
#
# PCOD9269389 Si02
#       8
#     8   4   4   4   8   4   8   4
#     4  11  21  39  53  81 100 144 186 252 280 340
#     4   9  20  36  55  84 120 144 178 234 265 337
#     4   9  18  34  64  86 111 146 182 220 259 318
#     4   9  19  34  55  76 115 146 182 226 266 341
#     4   9  18  36  57  88 114 145 182 219 264 313
#     4  10  24  36  53  72 116 128 173 263 304 314
#     4  10  20  34  56  79 104 149 190 224 285 330
#     4  11  21  34  61  78  98 136 207 241 268 336
#
# _framework density 18.694184
#
# number of rings (size 3 to 8) (size 9 to 14) (size 15 to 20)
#    0.000    2.182    1.818    1.091    2.545    0.727 
#    0.000    2.727    0.000    0.000    0.000    0.000 
#    0.000    0.000    0.000    0.000    0.000    0.000 
#
# Total GULP energy -122510.952158 kJ/mol
# GULP energy per Si atom -5568.679644 kJ/mol
# Density = 1.865164 g / cm^3
# Si number density = 18.694184 Si / 1000 Ang^3
#
#
#
# Elastic Constant Matrix: (Units=GPa)
#
#
# Indices 1 2 3 4 5 6 
#
# 1 68.5449 25.2296 32.9679 0.0000 9.3224 0.0000
# 2 25.2296 66.6320 41.6291 0.0000 3.1392 0.0000
# 3 32.9679 41.6291 149.4268 0.0000 1.9291 0.0000
# 4 0.0000 0.0000 0.0000 20.5719 0.0000 -4.1597
# 5 9.3224 3.1392 1.9291 0.0000 28.8471 0.0000
# 6 0.0000 0.0000 0.0000 -4.1597 0.0000 23.1892
#
#
#
# Elastic Compliance Matrix: (Units=1/GPa)
#
#
# Indices 1 2 3 4 5 6 
#
# 1 0.018421 -0.005124 -0.002569 0.000000 -0.005224 0.000000
# 2 -0.005124 0.019673 -0.004348 0.000000 -0.000194 0.000000
# 3 -0.002569 -0.004348 0.008461 0.000000 0.000738 0.000000
# 4 0.000000 0.000000 0.000000 0.050439 0.000000 0.009048
# 5 -0.005224 -0.000194 0.000738 0.000000 0.036325 0.000000
# 6 0.000000 0.000000 0.000000 0.009048 0.000000 0.044747
#
#
# Mechanical properties :
#
#
# Convention : Reuss Voigt Hill
#
# Bulk Modulus (GPa) = 44.49683 53.80632 49.15158
# Shear Modulus (GPa) = 23.85042 26.84012 25.34527
#
# Velocity S-wave (km/s) = 3.57574 3.79324 3.68609
# Velocity P-wave (km/s) = 6.39547 6.93035 6.66827
#
# Compressibility (1/GPa) = 0.02247351
#
# Stress axis : x y z
#
# Youngs Moduli (GPa) = 54.28563 50.83014 118.19076
#
# Poissons Ratio (x) = 0.26043 0.30368
# Poissons Ratio (y) = 0.27814 0.51388
# Poissons Ratio (z) = 0.13948 0.22101
#
# Static dielectric constant tensor:
#      x y z
#    x 1.649620 0.000000 0.041030 
#    y 0.000000 1.680230 0.000000 
#    z 0.041030 0.000000 1.753000 
# 
# From -- ./inp_files/34762.got.cif
#   From: 2010.05.17/outbox.cif.g08.bks.cpg/sg15_18_cif.got.tgz:34762.got - 2010.06.03 18:47:42.
