data_PCOD9269349
_publ_section_title
;
Structure prediction by ZEFSAII (Michael W. Deem and Ramdas Pophale) SiO2 
 PCOD9269349
Probable space group: C 2/C
;
_chemical_formula_sum "Si O2"
_cell_formula_units_Z 44
_cell_length_a 23.494112
_cell_length_b 5.891919
_cell_length_c 18.839746
_cell_angle_alpha 90.000000
_cell_angle_beta 46.187121
_cell_angle_gamma 90.000000
_cell_volume 1881.872329
_symmetry_space_group_name_H-M "C 2/C"
_symmetry_group_IT_number 15
_symmetry_cell_setting 'monoclinic'
loop_
_space_group_symop_operation_xyz
x,y,z
-x,y,1/2-z
-x,-y,-z
x,-y,1/2+z
1/2+x,1/2+y,z
1/2-x,1/2+y,1/2-z
1/2-x,1/2-y,-z
1/2+x,1/2-y,1/2+z
loop_
_atom_site_type_symbol
_atom_site_label
_atom_site_fract_x
_atom_site_fract_y
_atom_site_fract_z
Si Si1 0.500000 0.731817 0.250000
Si Si2 0.787244 0.881411 0.055500
Si Si3 0.694931 0.534372 0.218467
Si Si4 0.650181 0.759895 0.391230
Si Si5 0.856030 0.882488 0.375383
Si Si6 0.079686 0.502710 0.073663
O O1 0.425128 0.568611 0.313449
O O2 0.504978 0.886086 0.175040
O O3 0.714367 0.750022 0.151757
O O4 0.817043 0.070898 0.083592
O O5 0.855292 0.692629 0.991497
O O6 0.783667 0.006571 0.982738
O O7 0.637834 0.625785 0.328805
O O8 0.777231 0.440053 0.180808
O O9 0.665661 0.345504 0.187831
O O10 0.579427 0.875654 0.497004
O O11 0.888986 0.677609 0.393724
#
# Coordination Sequence:
#
# PCOD9269349 Si02
#       6
#     4   8   8   8   8   8
#     4  10  20  40  60  80 108 148 196 252 272 316
#     4   9  19  35  54  84 116 147 182 231 280 339
#     4  11  20  34  55  86 118 154 179 224 279 346
#     4  10  20  34  55  84 123 152 180 219 282 343
#     4  10  21  35  59  83 110 146 197 233 280 325
#     4   9  20  37  58  82 110 149 190 238 280 324
#
# _framework density 23.380970000000001
#
# number of rings (size 3 to 8) (size 9 to 14) (size 15 to 20)
#    0.000    2.182    1.818    1.091    0.000    9.455 
#    0.000    0.909    0.000   15.273    0.000    0.000 
#    0.000    0.000    0.000    0.000    0.000    0.000 
#
# Total GULP energy -122812.832917 kJ/mol
# GULP energy per Si atom -5582.401496 kJ/mol
# Density = 2.332775 g / cm^3
# Si number density = 23.380970 Si / 1000 Ang^3
#
#
#
# Elastic Constant Matrix: (Units=GPa)
#
#
# Indices 1 2 3 4 5 6 
#
# 1 23.5203 2.0646 20.8283 0.0004 14.5876 0.0027
# 2 2.0646 93.1589 44.4157 0.0047 0.6716 0.0135
# 3 20.8283 44.4157 152.4171 0.0039 25.1902 -0.0093
# 4 0.0004 0.0047 0.0039 48.0747 0.0052 -2.3367
# 5 14.5876 0.6716 25.1902 0.0052 31.8626 -0.0082
# 6 0.0027 0.0135 -0.0093 -2.3367 -0.0082 12.8162
#
#
#
# Elastic Compliance Matrix: (Units=1/GPa)
#
#
# Indices 1 2 3 4 5 6 
#
# 1 0.061853 0.001040 -0.004684 0.000001 -0.024637 -0.000033
# 2 0.001040 0.012738 -0.004292 -0.000002 0.002649 -0.000015
# 3 -0.004684 -0.004292 0.009297 0.000001 -0.005115 0.000009
# 4 0.000001 -0.000002 0.000001 0.020987 -0.000003 0.003826
# 5 -0.024637 0.002649 -0.005115 -0.000003 0.046653 0.000028
# 6 -0.000033 -0.000015 0.000009 0.003826 0.000028 0.078724
#
#
# Mechanical properties :
#
#
# Convention : Reuss Voigt Hill
#
# Bulk Modulus (GPa) = 14.70212 44.85706 29.77959
# Shear Modulus (GPa) = 18.60144 32.00322 25.30233
#
# Velocity S-wave (km/s) = 2.82366 3.70371 3.29321
# Velocity P-wave (km/s) = 4.11491 6.12510 5.21773
#
# Compressibility (1/GPa) = 0.06801740
#
# Stress axis : x y z
#
# Youngs Moduli (GPa) = 16.16730 78.50219 107.56026
#
# Poissons Ratio (x) = -0.08163 0.50377
# Poissons Ratio (y) = -0.01681 0.46164
# Poissons Ratio (z) = 0.07572 0.33693
#
# Static dielectric constant tensor:
#      x y z
#    x 1.902590 -0.000010 0.036110 
#    y -0.000010 1.921170 0.000000 
#    z 0.036110 0.000000 1.927740 
# 
# From -- ./inp_files/217712.got.cif
#   From: 2010.05.17/outbox.cif.g08.bks.cpg/sg15_109_cif.got.tgz:217712.got - 2010.06.03 18:47:42.
