data_PCOD9269284
_publ_section_title
;
Structure prediction by ZEFSAII (Michael W. Deem and Ramdas Pophale) SiO2 
 PCOD9269284
Probable space group: C 2/C
;
_chemical_formula_sum "Si O2"
_cell_formula_units_Z 60
_cell_length_a 30.940703
_cell_length_b 11.908176
_cell_length_c 7.713177
_cell_angle_alpha 90.000000
_cell_angle_beta 93.620046
_cell_angle_gamma 90.000000
_cell_volume 2836.229079
_symmetry_space_group_name_H-M "C 2/C"
_symmetry_group_IT_number 15
_symmetry_cell_setting 'monoclinic'
loop_
_space_group_symop_operation_xyz
x,y,z
-x,y,1/2-z
-x,-y,-z
x,-y,1/2+z
1/2+x,1/2+y,z
1/2-x,1/2+y,1/2-z
1/2-x,1/2-y,-z
1/2+x,1/2-y,1/2+z
loop_
_atom_site_type_symbol
_atom_site_label
_atom_site_fract_x
_atom_site_fract_y
_atom_site_fract_z
Si Si1 0.302795 0.115488 0.502743
Si Si2 0.595249 0.853581 0.832866
Si Si3 0.012325 0.873710 0.554295
Si Si4 0.706281 0.352488 0.103406
Si Si5 0.500000 0.793089 0.750000
Si Si6 0.391710 0.379004 0.063417
Si Si7 0.157399 0.051388 0.267906
Si Si8 0.855832 0.556388 0.830775
O O1 0.301052 0.220013 0.369049
O O2 0.256610 0.121499 0.585362
O O3 0.313725 0.997508 0.413925
O O4 0.340078 0.123235 0.658616
O O5 0.543488 0.861030 0.803646
O O6 0.617464 0.946444 0.720415
O O7 0.608793 0.724605 0.803700
O O8 0.614345 0.876379 0.029266
O O9 0.063311 0.865190 0.525753
O O10 0.000000 0.851477 0.750000
O O11 0.990875 0.786934 0.413330
O O12 0.000000 0.000000 0.500000
O O13 0.682059 0.376896 0.915569
O O14 0.686099 0.441564 0.230056
O O15 0.354081 0.383419 0.909840
O O16 0.386153 0.496564 0.162202
#
# Coordination Sequence:
#
# PCOD9269284 Si02
#       8
#     8   8   8   8   4   8   8   8
#     4  10  20  36  57  84 111 152 197 244 288 355
#     4  10  22  41  59  85 114 152 200 254 294 356
#     4  11  21  38  60  89 124 167 198 241 299 359
#     4  10  20  34  55  84 118 149 193 237 296 351
#     4  10  24  42  60  90 126 152 206 250 298 364
#     4  10  21  36  55  85 121 150 197 236 293 361
#     4  10  20  34  54  84 119 158 181 239 294 358
#     4  10  21  39  61  80 112 156 200 248 299 340
#
# _framework density 21.154848999999999
#
# number of rings (size 3 to 8) (size 9 to 14) (size 15 to 20)
#    0.000    1.867    0.667    3.200    1.867    0.533 
#   12.000    0.000    0.000   12.800    0.000    0.000 
#    0.000    0.000    0.000    0.000    0.000    0.000 
#
# Total GULP energy -167470.868777 kJ/mol
# GULP energy per Si atom -5582.362293 kJ/mol
# Density = 2.110670 g / cm^3
# Si number density = 21.154849 Si / 1000 Ang^3
#
#
#
# Elastic Constant Matrix: (Units=GPa)
#
#
# Indices 1 2 3 4 5 6 
#
# 1 88.3813 31.2796 5.5223 0.0000 -4.1935 0.0000
# 2 31.2796 52.7497 3.0634 0.0000 7.5842 0.0000
# 3 5.5223 3.0634 65.3489 0.0000 0.0319 0.0000
# 4 0.0000 0.0000 0.0000 20.7718 0.0000 2.4692
# 5 -4.1935 7.5842 0.0319 0.0000 29.8383 0.0000
# 6 0.0000 0.0000 0.0000 2.4692 0.0000 23.0981
#
#
#
# Elastic Compliance Matrix: (Units=1/GPa)
#
#
# Indices 1 2 3 4 5 6 
#
# 1 0.014923 -0.009449 -0.000820 0.000000 0.004500 0.000000
# 2 -0.009449 0.025714 -0.000403 0.000000 -0.007863 0.000000
# 3 -0.000820 -0.000403 0.015391 0.000000 -0.000029 0.000000
# 4 0.000000 0.000000 0.000000 0.048762 0.000000 -0.005213
# 5 0.004500 -0.007863 -0.000029 0.000000 0.036145 0.000000
# 6 0.000000 0.000000 0.000000 -0.005213 0.000000 0.043851
#
#
# Mechanical properties :
#
#
# Convention : Reuss Voigt Hill
#
# Bulk Modulus (GPa) = 28.83162 31.80119 30.31640
# Shear Modulus (GPa) = 22.96825 25.84928 24.40876
#
# Velocity S-wave (km/s) = 3.29860 3.49937 3.40047
# Velocity P-wave (km/s) = 5.30718 5.60292 5.45705
#
# Compressibility (1/GPa) = 0.03468414
#
# Stress axis : x y z
#
# Youngs Moduli (GPa) = 67.00881 38.88884 64.97428
#
# Poissons Ratio (x) = 0.36745 0.05330
# Poissons Ratio (y) = 0.63314 0.02619
# Poissons Ratio (z) = 0.05497 0.01568
#
# Static dielectric constant tensor:
#      x y z
#    x 1.779520 0.000000 -0.032750 
#    y 0.000000 1.779200 0.000000 
#    z -0.032750 0.000000 1.782240 
# 
# From -- ./inp_files/65503.got.cif
#   From: 2010.05.17/outbox.cif.g08.bks.cpg/sg15_33_cif.got.tgz:65503.got - 2010.06.03 18:47:42.
