data_PCOD9269197
_publ_section_title
;
Structure prediction by ZEFSAII (Michael W. Deem and Ramdas Pophale) SiO2 
 PCOD9269197
Probable space group: C 2/C
;
_chemical_formula_sum "Si O2"
_cell_formula_units_Z 48
_cell_length_a 7.936332
_cell_length_b 15.798599
_cell_length_c 14.276790
_cell_angle_alpha 90.000000
_cell_angle_beta 98.504031
_cell_angle_gamma 90.000000
_cell_volume 1770.384770
_symmetry_space_group_name_H-M "C 2/C"
_symmetry_group_IT_number 15
_symmetry_cell_setting 'monoclinic'
loop_
_space_group_symop_operation_xyz
x,y,z
-x,y,1/2-z
-x,-y,-z
x,-y,1/2+z
1/2+x,1/2+y,z
1/2-x,1/2+y,1/2-z
1/2-x,1/2-y,-z
1/2+x,1/2-y,1/2+z
loop_
_atom_site_type_symbol
_atom_site_label
_atom_site_fract_x
_atom_site_fract_y
_atom_site_fract_z
Si Si1 0.679234 0.037769 0.889302
Si Si2 0.294352 0.636767 0.732878
Si Si3 0.893217 0.702603 0.331538
Si Si4 0.407094 0.311553 0.488763
Si Si5 0.104874 0.078956 0.352856
Si Si6 0.312236 0.925193 0.452243
O O1 0.698389 0.059526 0.780321
O O2 0.824857 0.103394 0.936894
O O3 0.503506 0.061205 0.927521
O O4 0.698505 0.944190 0.937370
O O5 0.500000 0.626481 0.750000
O O6 0.263498 0.722603 0.788343
O O7 0.236497 0.650023 0.621644
O O8 0.996615 0.748098 0.423740
O O9 0.787223 0.622509 0.351853
O O10 0.000000 0.681765 0.250000
O O11 0.250000 0.250000 0.500000
O O12 0.487165 0.352308 0.587408
O O13 0.164993 0.991369 0.403931
O O14 0.000000 0.067411 0.250000
#
# Coordination Sequence:
#
# PCOD9269197 Si02
#       6
#     8   8   8   8   8   8
#     4   9  19  34  54  78 104 142 183 221 271 325
#     4  10  20  34  53  78 108 141 178 224 274 323
#     4   9  19  35  54  78 108 143 180 222 268 320
#     4   8  16  33  56  78 108 143 179 222 267 319
#     4  10  20  35  56  81 109 142 180 225 277 325
#     4  10  20  35  54  79 107 139 185 228 269 326
#
# _framework density 27.112750999999999
#
# number of rings (size 3 to 8) (size 9 to 14) (size 15 to 20)
#    0.000    2.667    0.000    1.000    0.000    6.000 
#    0.000    4.167    0.000    0.000    0.000    0.000 
#    0.000    0.000    0.000    0.000    0.000    0.000 
#
# Total GULP energy -133711.337727 kJ/mol
# GULP energy per Si atom -5571.305739 kJ/mol
# Density = 2.705104 g / cm^3
# Si number density = 27.112751 Si / 1000 Ang^3
#
#
#
# Elastic Constant Matrix: (Units=GPa)
#
#
# Indices 1 2 3 4 5 6 
#
# 1 118.3325 22.8328 9.8412 0.0000 -15.2801 0.0000
# 2 22.8328 34.8935 5.1965 0.0000 -13.4312 0.0000
# 3 9.8412 5.1965 37.7047 0.0000 6.9646 0.0000
# 4 0.0000 0.0000 0.0000 46.1944 0.0000 -8.4043
# 5 -15.2801 -13.4312 6.9646 0.0000 20.8535 0.0000
# 6 0.0000 0.0000 0.0000 -8.4043 0.0000 45.9752
#
#
#
# Elastic Compliance Matrix: (Units=1/GPa)
#
#
# Indices 1 2 3 4 5 6 
#
# 1 0.010260 -0.003871 -0.003275 0.000000 0.006118 0.000000
# 2 -0.003871 0.043846 -0.010364 0.000000 0.028865 0.000000
# 3 -0.003275 -0.010364 0.032485 0.000000 -0.019924 0.000000
# 4 0.000000 0.000000 0.000000 0.022392 0.000000 0.004093
# 5 0.006118 0.028865 -0.019924 0.000000 0.077682 0.000000
# 6 0.000000 0.000000 0.000000 0.004093 0.000000 0.022499
#
#
# Mechanical properties :
#
#
# Convention : Reuss Voigt Hill
#
# Bulk Modulus (GPa) = 19.39059 29.63019 24.51039
# Shear Modulus (GPa) = 19.12960 32.80865 25.96913
#
# Velocity S-wave (km/s) = 2.65911 3.48240 3.09822
# Velocity P-wave (km/s) = 4.07372 5.20785 4.67530
#
# Compressibility (1/GPa) = 0.05157141
#
# Stress axis : x y z
#
# Youngs Moduli (GPa) = 97.46515 22.80719 30.78315
#
# Poissons Ratio (x) = 0.08829 0.10080
# Poissons Ratio (y) = 0.37729 0.31905
# Poissons Ratio (z) = 0.31916 0.23638
#
# Static dielectric constant tensor:
#      x y z
#    x 2.200120 0.000000 -0.070640 
#    y 0.000000 2.196770 0.000000 
#    z -0.070640 0.000000 2.375010 
# 
# From -- ./inp_files/136184.got.cif
#   From: 2010.05.17/outbox.cif.g08.bks.cpg/sg15_69_cif.got.tgz:136184.got - 2010.06.03 18:47:42.
