data_PCOD9269369
_publ_section_title
;
Structure prediction by ZEFSAII (Michael W. Deem and Ramdas Pophale) SiO2 
 PCOD9269369
Probable space group: C 2/C
;
_chemical_formula_sum "Si O2"
_cell_formula_units_Z 48
_cell_length_a 25.316164
_cell_length_b 20.024136
_cell_length_c 9.243115
_cell_angle_alpha 90.000000
_cell_angle_beta 146.597647
_cell_angle_gamma 90.000000
_cell_volume 2579.521901
_symmetry_space_group_name_H-M "C 2/C"
_symmetry_group_IT_number 15
_symmetry_cell_setting 'monoclinic'
loop_
_space_group_symop_operation_xyz
x,y,z
-x,y,1/2-z
-x,-y,-z
x,-y,1/2+z
1/2+x,1/2+y,z
1/2-x,1/2+y,1/2-z
1/2-x,1/2-y,-z
1/2+x,1/2-y,1/2+z
loop_
_atom_site_type_symbol
_atom_site_label
_atom_site_fract_x
_atom_site_fract_y
_atom_site_fract_z
Si Si1 0.777611 0.072815 0.637111
Si Si2 0.703324 0.693748 0.296032
Si Si3 0.694183 0.194329 0.278793
Si Si4 0.010524 0.111780 0.474347
Si Si5 0.000000 0.233168 0.250000
Si Si6 0.000000 0.827409 0.250000
Si Si7 0.190716 0.060949 0.461438
O O1 0.709079 0.126567 0.403300
O O2 0.888944 0.095543 0.870459
O O3 0.773184 0.002818 0.543523
O O4 0.761206 0.067730 0.771355
O O5 0.750000 0.750000 0.500000
O O6 0.756893 0.686105 0.266075
O O7 0.703007 0.625358 0.387084
O O8 0.593320 0.712531 0.009837
O O9 0.750000 0.250000 0.500000
O O10 0.587708 0.221990 0.005668
O O11 0.031312 0.126403 0.688648
O O12 0.972937 0.181039 0.316180
O O13 0.924524 0.058678 0.270914
#
# Coordination Sequence:
#
# PCOD9269369 Si02
#       7
#     8   8   8   8   4   4   8
#     4  12  22  39  59  89 126 168 203 256 323 379
#     4  11  22  38  60  87 123 165 209 262 315 373
#     4  12  22  39  64  88 127 169 213 263 313 373
#     4  11  20  36  58  87 126 161 203 251 317 383
#     4  12  22  40  63  95 124 168 220 264 310 380
#     4  10  20  34  55  89 120 154 204 246 308 376
#     4  11  24  37  60  91 127 162 208 259 318 389
#
# _framework density 18.6081
#
# number of rings (size 3 to 8) (size 9 to 14) (size 15 to 20)
#    0.000    0.667    5.000    4.500    2.333    0.000 
#    0.000    0.000    0.000    5.000    0.000    0.000 
#    0.000    0.000    0.000    0.000    0.000    0.000 
#
# Total GULP energy -134074.924799 kJ/mol
# GULP energy per Si atom -5586.455200 kJ/mol
# Density = 1.856575 g / cm^3
# Si number density = 18.608100 Si / 1000 Ang^3
#
#
#
# Elastic Constant Matrix: (Units=GPa)
#
#
# Indices 1 2 3 4 5 6 
#
# 1 88.8886 28.6407 45.6939 0.0000 -32.9256 0.0000
# 2 28.6407 118.9815 70.8354 0.0000 -7.2182 0.0000
# 3 45.6939 70.8354 135.3866 0.0000 -18.2694 0.0000
# 4 0.0000 0.0000 0.0000 34.3923 0.0000 -1.5300
# 5 -32.9256 -7.2182 -18.2694 0.0000 37.8999 0.0000
# 6 0.0000 0.0000 0.0000 -1.5300 0.0000 30.1553
#
#
#
# Elastic Compliance Matrix: (Units=1/GPa)
#
#
# Indices 1 2 3 4 5 6 
#
# 1 0.018960 -0.001507 -0.003665 0.000000 0.014418 0.000000
# 2 -0.001507 0.012350 -0.006217 0.000000 -0.001954 0.000000
# 3 -0.003665 -0.006217 0.012072 0.000000 0.001451 0.000000
# 4 0.000000 0.000000 0.000000 0.029142 0.000000 0.001479
# 5 0.014418 -0.001954 0.001451 0.000000 0.039238 0.000000
# 6 0.000000 0.000000 0.000000 0.001479 0.000000 0.033237
#
#
# Mechanical properties :
#
#
# Convention : Reuss Voigt Hill
#
# Bulk Modulus (GPa) = 48.53401 70.39964 59.46682
# Shear Modulus (GPa) = 28.62950 33.69528 31.16239
#
# Velocity S-wave (km/s) = 3.92669 4.25995 4.09671
# Velocity P-wave (km/s) = 6.83355 7.88106 7.37592
#
# Compressibility (1/GPa) = 0.02060411
#
# Stress axis : x y z
#
# Youngs Moduli (GPa) = 52.74140 80.97170 82.83933
#
# Poissons Ratio (x) = 0.12206 0.30360
# Poissons Ratio (y) = 0.07951 0.51497
# Poissons Ratio (z) = 0.19329 0.50336
#
# Static dielectric constant tensor:
#      x y z
#    x 1.688180 0.000000 -0.008900 
#    y 0.000000 1.639140 0.000000 
#    z -0.008900 0.000000 1.649600 
# 
# From -- ./inp_files/56454.got.cif
#   From: 2010.05.17/outbox.cif.g08.bks.cpg/sg15_29_cif.got.tgz:56454.got - 2010.06.03 18:47:42.
