data_PCOD9269225
_publ_section_title
;
Structure prediction by ZEFSAII (Michael W. Deem and Ramdas Pophale) SiO2 
 PCOD9269225
Probable space group: C 2/C
;
_chemical_formula_sum "Si O2"
_cell_formula_units_Z 32
_cell_length_a 7.342026
_cell_length_b 20.445098
_cell_length_c 10.164716
_cell_angle_alpha 90.000000
_cell_angle_beta 127.787071
_cell_angle_gamma 90.000000
_cell_volume 1205.837157
_symmetry_space_group_name_H-M "C 2/C"
_symmetry_group_IT_number 15
_symmetry_cell_setting 'monoclinic'
loop_
_space_group_symop_operation_xyz
x,y,z
-x,y,1/2-z
-x,-y,-z
x,-y,1/2+z
1/2+x,1/2+y,z
1/2-x,1/2+y,1/2-z
1/2-x,1/2-y,-z
1/2+x,1/2-y,1/2+z
loop_
_atom_site_type_symbol
_atom_site_label
_atom_site_fract_x
_atom_site_fract_y
_atom_site_fract_z
Si Si1 0.329078 0.639734 0.794083
Si Si2 0.334559 0.995943 0.801215
Si Si3 0.922264 0.691637 0.029716
Si Si4 0.675257 0.639876 0.152132
O O1 0.500000 0.660091 0.750000
O O2 0.313169 0.561679 0.779675
O O3 0.099105 0.671357 0.631037
O O4 0.428741 0.658317 0.980723
O O5 0.500000 0.997273 0.750000
O O6 0.187346 0.929421 0.729029
O O7 0.500000 0.000000 0.000000
O O8 0.750000 0.750000 0.000000
O O9 0.822131 0.633969 0.080286
O O10 0.185447 0.692697 0.198211
#
# Coordination Sequence:
#
# PCOD9269225 Si02
#       4
#     8   8   8   8
#     4  10  21  36  58  91 126 167 210 262 333 383
#     4  12  21  40  62  90 137 171 211 273 330 404
#     4  10  20  34  56  89 127 157 208 274 318 369
#     4  10  20  34  53  87 123 157 208 258 331 371
#
# _framework density 26.537579999999998
#
# number of rings (size 3 to 8) (size 9 to 14) (size 15 to 20)
#    0.000    1.500    5.000    2.250   10.500    0.000 
#    0.000    0.000    0.000    0.000    0.000   17.500 
#    0.000    0.000    0.000    0.000    0.000    0.000 
#
# Total GULP energy -89301.376565 kJ/mol
# GULP energy per Si atom -5581.336035 kJ/mol
# Density = 2.647718 g / cm^3
# Si number density = 26.537580 Si / 1000 Ang^3
#
#
#
# Elastic Constant Matrix: (Units=GPa)
#
#
# Indices 1 2 3 4 5 6 
#
# 1 69.8597 8.4115 23.6661 0.0000 -6.2811 0.0000
# 2 8.4115 152.1884 84.4362 0.0000 11.8563 0.0000
# 3 23.6661 84.4362 326.8159 0.0000 24.1819 0.0000
# 4 0.0000 0.0000 0.0000 56.0092 0.0000 5.9332
# 5 -6.2811 11.8563 24.1819 0.0000 26.9722 0.0000
# 6 0.0000 0.0000 0.0000 5.9332 0.0000 25.7102
#
#
#
# Elastic Compliance Matrix: (Units=1/GPa)
#
#
# Indices 1 2 3 4 5 6 
#
# 1 0.015278 -0.000483 -0.001350 0.000000 0.004981 0.000000
# 2 -0.000483 0.007760 -0.001831 0.000000 -0.001882 0.000000
# 3 -0.001350 -0.001831 0.003850 0.000000 -0.002961 0.000000
# 4 0.000000 0.000000 0.000000 0.018302 0.000000 -0.004224
# 5 0.004981 -0.001882 -0.002961 0.000000 0.041717 0.000000
# 6 0.000000 0.000000 0.000000 -0.004224 0.000000 0.039870
#
#
# Mechanical properties :
#
#
# Convention : Reuss Voigt Hill
#
# Bulk Modulus (GPa) = 51.12660 86.87684 69.00172
# Shear Modulus (GPa) = 35.55597 50.56166 43.05881
#
# Velocity S-wave (km/s) = 3.66435 4.36969 4.03247
# Velocity P-wave (km/s) = 6.10007 7.63330 6.90935
#
# Compressibility (1/GPa) = 0.01955929
#
# Stress axis : x y z
#
# Youngs Moduli (GPa) = 65.45472 128.86978 259.76631
#
# Poissons Ratio (x) = 0.06230 0.35067
# Poissons Ratio (y) = 0.03164 0.47551
# Poissons Ratio (z) = 0.08836 0.23590
#
# Static dielectric constant tensor:
#      x y z
#    x 2.074900 0.000000 0.096080 
#    y 0.000000 2.135730 0.000000 
#    z 0.096080 0.000000 2.176730 
# 
# From -- ./inp_files/42806.got.cif
#   From: 2010.05.17/outbox.cif.g08.bks.cpg/sg15_22_cif.got.tgz:42806.got - 2010.06.03 18:47:42.
