data_PCOD9269856
_publ_section_title
;
Structure prediction by ZEFSAII (Michael W. Deem and Ramdas Pophale) SiO2 
 PCOD9269856
Probable space group: C 2/C
;
_chemical_formula_sum "Si O2"
_cell_formula_units_Z 44
_cell_length_a 10.688390
_cell_length_b 8.982805
_cell_length_c 24.255237
_cell_angle_alpha 90.000000
_cell_angle_beta 51.000948
_cell_angle_gamma 90.000000
_cell_volume 1809.831738
_symmetry_space_group_name_H-M "C 2/C"
_symmetry_group_IT_number 15
_symmetry_cell_setting 'monoclinic'
loop_
_space_group_symop_operation_xyz
x,y,z
-x,y,1/2-z
-x,-y,-z
x,-y,1/2+z
1/2+x,1/2+y,z
1/2-x,1/2+y,1/2-z
1/2-x,1/2-y,-z
1/2+x,1/2-y,1/2+z
loop_
_atom_site_type_symbol
_atom_site_label
_atom_site_fract_x
_atom_site_fract_y
_atom_site_fract_z
Si Si1 0.686817 0.173996 0.210855
Si Si2 0.750000 0.250000 0.000000
Si Si3 0.125514 0.644081 0.757973
Si Si4 0.646124 0.935324 0.079827
Si Si5 0.390416 0.187837 0.034687
Si Si6 0.775309 0.374200 0.086536
O O1 0.500000 0.197783 0.250000
O O2 0.751435 0.242337 0.249498
O O3 0.767875 0.269932 0.140325
O O4 0.709858 0.997311 0.206202
O O5 0.795809 0.399764 0.947217
O O6 0.855786 0.138824 0.924275
O O7 0.000000 0.715845 0.750000
O O8 0.010144 0.576923 0.838153
O O9 0.786080 0.833585 0.067841
O O10 0.609790 0.861931 0.029726
O O11 0.316974 0.045224 0.086392
O O12 0.581878 0.194519 0.995175
#
# Coordination Sequence:
#
# PCOD9269856 Si02
#       6
#     8   4   8   8   8   8
#     4  11  25  46  68  97 140 185 229 288 344 419
#     4  10  20  34  62  94 132 166 210 284 354 400
#     4  11  25  46  66  98 137 181 235 287 338 424
#     4  10  20  41  61  96 129 169 225 283 348 418
#     4   9  20  38  69  88 126 168 217 286 343 414
#     4  10  20  41  61  96 128 169 225 285 347 417
#
# _framework density 24.311654000000001
#
# number of rings (size 3 to 8) (size 9 to 14) (size 15 to 20)
#    0.000    1.818    1.818    2.182    0.000    4.364 
#    9.818    0.000    0.000    0.000    0.000    0.000 
#    0.000    0.000    0.000    0.000    0.000    0.000 
#
# Total GULP energy -122623.675397 kJ/mol
# GULP energy per Si atom -5573.803427 kJ/mol
# Density = 2.425632 g / cm^3
# Si number density = 24.311654 Si / 1000 Ang^3
#
#
#
# Elastic Constant Matrix: (Units=GPa)
#
#
# Indices 1 2 3 4 5 6 
#
# 1 138.6006 57.8829 4.9961 0.0000 23.5408 0.0000
# 2 57.8829 81.8557 12.9459 0.0000 -11.4115 0.0000
# 3 4.9961 12.9459 44.4863 0.0000 14.0101 0.0000
# 4 0.0000 0.0000 0.0000 37.9132 0.0000 9.5164
# 5 23.5408 -11.4115 14.0101 0.0000 33.5022 0.0000
# 6 0.0000 0.0000 0.0000 9.5164 0.0000 47.1373
#
#
#
# Elastic Compliance Matrix: (Units=1/GPa)
#
#
# Indices 1 2 3 4 5 6 
#
# 1 0.018182 -0.017735 0.010417 0.000000 -0.023173 0.000000
# 2 -0.017735 0.031617 -0.016729 0.000000 0.030227 0.000000
# 3 0.010417 -0.016729 0.034869 0.000000 -0.027599 0.000000
# 4 0.000000 0.000000 0.000000 0.027784 0.000000 -0.005609
# 5 -0.023173 0.030227 -0.027599 0.000000 0.067969 0.000000
# 6 0.000000 0.000000 0.000000 -0.005609 0.000000 0.022347
#
#
# Mechanical properties :
#
#
# Convention : Reuss Voigt Hill
#
# Bulk Modulus (GPa) = 27.34111 46.28805 36.81458
# Shear Modulus (GPa) = 19.00754 36.31837 27.66296
#
# Velocity S-wave (km/s) = 2.79915 3.86925 3.37686
# Velocity P-wave (km/s) = 4.66021 6.24838 5.51179
#
# Compressibility (1/GPa) = 0.03657496
#
# Stress axis : x y z
#
# Youngs Moduli (GPa) = 54.99977 31.62822 28.67876
#
# Poissons Ratio (x) = 0.56093 -0.29875
# Poissons Ratio (y) = 0.97542 0.47975
# Poissons Ratio (z) = -0.57293 0.52909
#
# Static dielectric constant tensor:
#      x y z
#    x 2.233350 0.000000 0.065090 
#    y 0.000000 1.902620 0.000000 
#    z 0.065090 0.000000 2.061560 
# 
# From -- ./inp_files/267973.got.cif
#   From: 2010.05.17/outbox.cif.g08.bks.cpg/sg15_134_cif.got.tgz:267973.got - 2010.06.03 18:47:42.
