data_PCOD9269354
_publ_section_title
;
Structure prediction by ZEFSAII (Michael W. Deem and Ramdas Pophale) SiO2 
 PCOD9269354
Probable space group: C 2/C
;
_chemical_formula_sum "Si O2"
_cell_formula_units_Z 48
_cell_length_a 8.793360
_cell_length_b 24.736909
_cell_length_c 20.285182
_cell_angle_alpha 90.000000
_cell_angle_beta 149.015519
_cell_angle_gamma 90.000000
_cell_volume 2271.552073
_symmetry_space_group_name_H-M "C 2/C"
_symmetry_group_IT_number 15
_symmetry_cell_setting 'monoclinic'
loop_
_space_group_symop_operation_xyz
x,y,z
-x,y,1/2-z
-x,-y,-z
x,-y,1/2+z
1/2+x,1/2+y,z
1/2-x,1/2+y,1/2-z
1/2-x,1/2-y,-z
1/2+x,1/2-y,1/2+z
loop_
_atom_site_type_symbol
_atom_site_label
_atom_site_fract_x
_atom_site_fract_y
_atom_site_fract_z
Si Si1 0.805433 0.763609 0.801002
Si Si2 0.390719 0.041190 0.133227
Si Si3 0.173497 0.191335 0.551874
Si Si4 0.789843 0.576781 0.607977
Si Si5 0.678128 0.135770 0.161877
Si Si6 0.627523 0.305600 0.424454
O O1 0.694203 0.816511 0.721906
O O2 0.578116 0.714271 0.710656
O O3 0.087142 0.738674 0.866525
O O4 0.905639 0.785235 0.909099
O O5 0.500000 0.043587 0.250000
O O6 0.589621 0.080380 0.163789
O O7 0.399163 0.978579 0.114424
O O8 0.053289 0.062652 0.003702
O O9 0.288605 0.133468 0.568319
O O10 0.077754 0.176468 0.590398
O O11 0.000000 0.582566 0.750000
O O12 0.000000 0.132878 0.250000
O O13 0.401715 0.155037 0.013702
O O14 0.750000 0.250000 0.500000
#
# Coordination Sequence:
#
# PCOD9269354 Si02
#       6
#     8   8   8   8   8   8
#     4  10  22  35  59  93 130 161 212 258 328 385
#     4  10  21  38  64  99 123 166 221 271 322 383
#     4  11  20  36  61  93 124 170 206 271 319 392
#     4  10  20  36  65  96 125 157 223 279 319 371
#     4  11  22  37  59  90 128 173 212 262 323 394
#     4  10  20  34  55  85 127 163 212 253 316 380
#
# _framework density 21.130927
#
# number of rings (size 3 to 8) (size 9 to 14) (size 15 to 20)
#    0.000    1.667    1.667    4.500    0.000    2.000 
#    0.000    0.000    0.000   16.000    8.667    0.000 
#    0.000    0.000    0.000    0.000    0.000    0.000 
#
# Total GULP energy -133905.631833 kJ/mol
# GULP energy per Si atom -5579.401326 kJ/mol
# Density = 2.108283 g / cm^3
# Si number density = 21.130927 Si / 1000 Ang^3
#
#
#
# Elastic Constant Matrix: (Units=GPa)
#
#
# Indices 1 2 3 4 5 6 
#
# 1 75.4109 36.9938 40.9019 -0.0007 14.1554 -0.0003
# 2 36.9938 145.2549 34.8254 -0.0021 4.8303 -0.0007
# 3 40.9019 34.8254 130.1643 -0.0296 -4.9741 -0.0125
# 4 -0.0007 -0.0021 -0.0296 -33.3144 -0.0044 -19.1080
# 5 14.1554 4.8303 -4.9741 -0.0044 24.9048 -0.0018
# 6 -0.0003 -0.0007 -0.0125 -19.1080 -0.0018 18.0954
#
#
#
# Elastic Compliance Matrix: (Units=1/GPa)
#
#
# Indices 1 2 3 4 5 6 
#
# 1 0.020443 -0.003366 -0.005988 0.000006 -0.012162 0.000001
# 2 -0.003366 0.007995 -0.001076 0.000000 0.000148 0.000000
# 3 -0.005988 -0.001076 0.010067 -0.000009 0.005623 -0.000002
# 4 0.000006 0.000000 -0.000009 -0.018695 -0.000010 -0.019741
# 5 -0.012162 0.000148 0.005623 -0.000010 0.048160 -0.000002
# 6 0.000001 0.000000 -0.000002 -0.019741 -0.000002 0.034417
#
#
# Mechanical properties :
#
#
# Convention : Reuss Voigt Hill
#
# Bulk Modulus (GPa) = 56.67383 64.03028 60.35205
# Shear Modulus (GPa) = 38.72116 17.81111 28.26613
#
# Velocity S-wave (km/s) = 4.28535 2.90641 3.66138
# Velocity P-wave (km/s) = 7.16688 6.45217 6.81889
#
# Compressibility (1/GPa) = 0.01764483
#
# Stress axis : x y z
#
# Youngs Moduli (GPa) = 48.91681 125.08228 99.33632
#
# Poissons Ratio (x) = 0.42107 0.59482
# Poissons Ratio (y) = 0.16467 0.10684
# Poissons Ratio (z) = 0.29291 0.13453
#
# Static dielectric constant tensor:
#      x y z
#    x 1.871280 0.000000 0.037060 
#    y 0.000000 1.799170 0.000000 
#    z 0.037060 0.000000 1.854780 
# 
# From -- ./inp_files/234803.got.cif
#   From: 2010.05.17/outbox.cif.g08.bks.cpg/sg15_118_cif.got.tgz:234803.got - 2010.06.03 18:47:42.
