data_PCOD9269669
_publ_section_title
;
Structure prediction by ZEFSAII (Michael W. Deem and Ramdas Pophale) SiO2 
 PCOD9269669
Probable space group: C 2/C
;
_chemical_formula_sum "Si O2"
_cell_formula_units_Z 60
_cell_length_a 23.822778
_cell_length_b 11.424251
_cell_length_c 20.764932
_cell_angle_alpha 90.000000
_cell_angle_beta 152.044863
_cell_angle_gamma 90.000000
_cell_volume 2649.230754
_symmetry_space_group_name_H-M "C 2/C"
_symmetry_group_IT_number 15
_symmetry_cell_setting 'monoclinic'
loop_
_space_group_symop_operation_xyz
x,y,z
-x,y,1/2-z
-x,-y,-z
x,-y,1/2+z
1/2+x,1/2+y,z
1/2-x,1/2+y,1/2-z
1/2-x,1/2-y,-z
1/2+x,1/2-y,1/2+z
loop_
_atom_site_type_symbol
_atom_site_label
_atom_site_fract_x
_atom_site_fract_y
_atom_site_fract_z
Si Si1 0.352744 0.857600 0.378372
Si Si2 0.473503 0.906994 0.052484
Si Si3 0.760009 0.016734 0.054141
Si Si4 0.641675 0.528927 0.706427
Si Si5 0.127408 0.892331 0.563586
Si Si6 0.683527 0.009184 0.842808
Si Si7 0.000000 0.892016 0.750000
Si Si8 0.838491 0.756759 0.497779
O O1 0.421444 0.845009 0.381137
O O2 0.209250 0.868724 0.234824
O O3 0.385887 0.747089 0.455204
O O4 0.404942 0.985008 0.450478
O O5 0.546405 0.969239 0.184194
O O6 0.379315 0.807458 0.974818
O O7 0.710539 0.148845 0.010403
O O8 0.892173 0.027435 0.160410
O O9 0.782298 0.975102 0.149877
O O10 0.690459 0.960606 0.923159
O O11 0.649549 0.424572 0.661681
O O12 0.502340 0.549393 0.581780
O O13 0.235871 0.936666 0.627564
O O14 0.746868 0.136932 0.903888
O O15 0.958517 0.809520 0.650250
#
# Coordination Sequence:
#
# PCOD9269669 Si02
#       8
#     8   8   8   8   8   8   4   8
#     4  11  26  43  67  96 134 177 218 275 329 386
#     4  11  24  42  66  98 136 173 219 276 330 393
#     4  11  22  40  66  95 137 168 218 272 333 387
#     4  11  24  45  66  99 126 176 222 271 325 392
#     4  11  27  42  71  96 131 174 224 273 324 396
#     4  11  24  42  68 104 131 176 218 277 333 395
#     4  10  20  34  58  96 132 166 206 270 326 390
#     4  11  21  36  65  99 133 172 212 268 337 389
#
# _framework density 22.648084000000001
#
# number of rings (size 3 to 8) (size 9 to 14) (size 15 to 20)
#    0.000    1.067    2.667    4.800    9.333    0.000 
#    0.000    0.667    2.933    0.000    0.000    0.000 
#    0.000    0.000    0.000    0.000    0.000    0.000 
#
# Total GULP energy -167260.908147 kJ/mol
# GULP energy per Si atom -5575.363605 kJ/mol
# Density = 2.259654 g / cm^3
# Si number density = 22.648084 Si / 1000 Ang^3
#
#
#
# Elastic Constant Matrix: (Units=GPa)
#
#
# Indices 1 2 3 4 5 6 
#
# 1 87.9922 7.9815 -0.8699 0.0000 -9.3410 0.0000
# 2 7.9815 49.0137 -15.6585 0.0000 -8.5281 0.0000
# 3 -0.8699 -15.6585 58.9215 0.0000 -9.0569 0.0000
# 4 0.0000 0.0000 0.0000 19.7541 0.0000 0.6999
# 5 -9.3410 -8.5281 -9.0569 0.0000 27.9634 0.0000
# 6 0.0000 0.0000 0.0000 0.6999 0.0000 21.5793
#
#
#
# Elastic Compliance Matrix: (Units=1/GPa)
#
#
# Indices 1 2 3 4 5 6 
#
# 1 0.011872 -0.001133 0.000453 0.000000 0.003767 0.000000
# 2 -0.001133 0.024890 0.008110 0.000000 0.009839 0.000000
# 3 0.000453 0.008110 0.020561 0.000000 0.009284 0.000000
# 4 0.000000 0.000000 0.000000 0.050681 0.000000 -0.001644
# 5 0.003767 0.009839 0.009284 0.000000 0.043027 0.000000
# 6 0.000000 0.000000 0.000000 -0.001644 0.000000 0.046394
#
#
# Mechanical properties :
#
#
# Convention : Reuss Voigt Hill
#
# Bulk Modulus (GPa) = 13.85366 19.87039 16.86203
# Shear Modulus (GPa) = 24.19852 27.49099 25.84475
#
# Velocity S-wave (km/s) = 3.27227 3.48779 3.38175
# Velocity P-wave (km/s) = 4.51744 5.00122 4.76547
#
# Compressibility (1/GPa) = 0.07218308
#
# Stress axis : x y z
#
# Youngs Moduli (GPa) = 84.23332 40.17704 48.63624
#
# Poissons Ratio (x) = 0.04552 -0.02204
# Poissons Ratio (y) = 0.09544 -0.39445
# Poissons Ratio (z) = -0.03817 -0.32584
#
# Static dielectric constant tensor:
#      x y z
#    x 1.999030 0.000000 -0.072130 
#    y 0.000000 1.837550 0.000000 
#    z -0.072130 0.000000 1.925490 
# 
# From -- ./inp_files/255564.got.cif
#   From: 2010.05.17/outbox.cif.g08.bks.cpg/sg15_128_cif.got.tgz:255564.got - 2010.06.03 18:47:42.
