data_PCOD9269299
_publ_section_title
;
Structure prediction by ZEFSAII (Michael W. Deem and Ramdas Pophale) SiO2 
 PCOD9269299
Probable space group: C 2/C
;
_chemical_formula_sum "Si O2"
_cell_formula_units_Z 52
_cell_length_a 12.513217
_cell_length_b 20.975169
_cell_length_c 16.339502
_cell_angle_alpha 90.000000
_cell_angle_beta 36.893212
_cell_angle_gamma 90.000000
_cell_volume 2574.542334
_symmetry_space_group_name_H-M "C 2/C"
_symmetry_group_IT_number 15
_symmetry_cell_setting 'monoclinic'
loop_
_space_group_symop_operation_xyz
x,y,z
-x,y,1/2-z
-x,-y,-z
x,-y,1/2+z
1/2+x,1/2+y,z
1/2-x,1/2+y,1/2-z
1/2-x,1/2-y,-z
1/2+x,1/2-y,1/2+z
loop_
_atom_site_type_symbol
_atom_site_label
_atom_site_fract_x
_atom_site_fract_y
_atom_site_fract_z
Si Si1 0.042271 0.269570 0.928888
Si Si2 0.331922 0.685709 0.796069
Si Si3 0.895814 0.978228 0.643994
Si Si4 0.083551 0.850136 0.519587
Si Si5 0.285004 0.865279 0.553707
Si Si6 0.829857 0.589656 0.734059
Si Si7 0.000000 0.027533 0.250000
O O1 0.118903 0.242845 0.797263
O O2 0.030781 0.210188 0.998814
O O3 0.166328 0.320439 0.900071
O O4 0.843505 0.297174 0.044418
O O5 0.500000 0.672695 0.750000
O O6 0.277392 0.626961 0.771400
O O7 0.707181 0.014222 0.753913
O O8 0.000000 0.000000 0.500000
O O9 0.926697 0.902231 0.625236
O O10 0.993185 0.004708 0.666109
O O11 0.161578 0.832182 0.560451
O O12 0.241361 0.885800 0.372420
O O13 0.469085 0.887978 0.400106
O O14 0.174393 0.927872 0.644842
#
# Coordination Sequence:
#
# PCOD9269299 Si02
#       7
#     8   8   8   8   8   8   4
#     4  10  21  35  58  83 116 149 187 234 287 345
#     4  10  21  36  56  79 108 152 193 236 280 335
#     4   9  19  36  57  79 111 147 189 233 274 338
#     4   9  18  35  57  84 113 150 183 228 293 339
#     4  10  20  34  54  87 118 145 185 234 286 346
#     4   9  19  35  56  80 109 150 194 230 279 335
#     4  10  22  34  58  84 114 154 188 234 294 330
#
# _framework density 20.197763999999999
#
# number of rings (size 3 to 8) (size 9 to 14) (size 15 to 20)
#    0.000    2.462    0.000    1.385    5.385    0.615 
#    2.769    0.000    0.000    5.538    0.000    0.000 
#    0.000    0.000    0.000    0.000    0.000    0.000 
#
# Total GULP energy -144975.293023 kJ/mol
# GULP energy per Si atom -5575.972809 kJ/mol
# Density = 2.015179 g / cm^3
# Si number density = 20.197764 Si / 1000 Ang^3
#
#
#
# Elastic Constant Matrix: (Units=GPa)
#
#
# Indices 1 2 3 4 5 6 
#
# 1 84.0901 7.2838 2.3199 -0.0006 0.0850 0.0003
# 2 7.2838 49.1057 14.6451 -0.0012 -14.3399 0.0002
# 3 2.3199 14.6451 40.8195 -0.0003 8.2615 -0.0029
# 4 -0.0006 -0.0012 -0.0003 21.1348 -0.0004 -5.3128
# 5 0.0850 -14.3399 8.2615 -0.0004 30.6159 -0.0002
# 6 0.0003 0.0002 -0.0029 -5.3128 -0.0002 25.4336
#
#
#
# Elastic Compliance Matrix: (Units=1/GPa)
#
#
# Indices 1 2 3 4 5 6 
#
# 1 0.012078 -0.002243 0.000357 0.000000 -0.001180 0.000000
# 2 -0.002243 0.030262 -0.014385 0.000001 0.018062 -0.000001
# 3 0.000357 -0.014385 0.032794 0.000000 -0.015588 0.000004
# 4 0.000000 0.000001 0.000000 0.049938 0.000001 0.010431
# 5 -0.001180 0.018062 -0.015588 0.000001 0.045332 -0.000001
# 6 0.000000 -0.000001 0.000004 0.010431 -0.000001 0.041497
#
#
# Mechanical properties :
#
#
# Convention : Reuss Voigt Hill
#
# Bulk Modulus (GPa) = 23.47898 24.72366 24.10132
# Shear Modulus (GPa) = 19.33202 25.42130 22.37666
#
# Velocity S-wave (km/s) = 3.09712 3.55155 3.33209
# Velocity P-wave (km/s) = 4.94361 5.39309 5.17323
#
# Compressibility (1/GPa) = 0.04259129
#
# Stress axis : x y z
#
# Youngs Moduli (GPa) = 82.79793 33.04527 30.49361
#
# Poissons Ratio (x) = 0.07411 -0.01089
# Poissons Ratio (y) = 0.18568 0.43866
# Poissons Ratio (z) = -0.02957 0.47536
#
# Static dielectric constant tensor:
#      x y z
#    x 1.837080 0.000000 -0.009800 
#    y 0.000000 1.738870 0.000000 
#    z -0.009800 0.000000 1.734250 
# 
# From -- ./inp_files/200328.got.cif
#   From: 2010.05.17/outbox.cif.g08.bks.cpg/sg15_101_cif.got.tgz:200328.got - 2010.06.03 18:47:42.
