data_PCOD9269604
_publ_section_title
;
Structure prediction by ZEFSAII (Michael W. Deem and Ramdas Pophale) SiO2 
 PCOD9269604
Probable space group: C 2/C
;
_chemical_formula_sum "Si O2"
_cell_formula_units_Z 52
_cell_length_a 9.151327
_cell_length_b 26.645847
_cell_length_c 11.595167
_cell_angle_alpha 90.000000
_cell_angle_beta 116.370827
_cell_angle_gamma 90.000000
_cell_volume 2533.194793
_symmetry_space_group_name_H-M "C 2/C"
_symmetry_group_IT_number 15
_symmetry_cell_setting 'monoclinic'
loop_
_space_group_symop_operation_xyz
x,y,z
-x,y,1/2-z
-x,-y,-z
x,-y,1/2+z
1/2+x,1/2+y,z
1/2-x,1/2+y,1/2-z
1/2-x,1/2-y,-z
1/2+x,1/2-y,1/2+z
loop_
_atom_site_type_symbol
_atom_site_label
_atom_site_fract_x
_atom_site_fract_y
_atom_site_fract_z
Si Si1 0.435545 0.204728 0.488252
Si Si2 0.354430 0.143084 0.769046
Si Si3 0.607693 0.314558 0.996869
Si Si4 0.888580 0.091290 0.372420
Si Si5 0.500000 0.510188 0.250000
Si Si6 0.439657 0.896628 0.858007
Si Si7 0.761381 0.432792 0.427357
O O1 0.544557 0.188084 0.635884
O O2 0.468673 0.263198 0.480414
O O3 0.241997 0.199955 0.447252
O O4 0.471760 0.160501 0.410386
O O5 0.500000 0.114504 0.750000
O O6 0.218067 0.160586 0.633746
O O7 0.265527 0.112354 0.837373
O O8 0.482008 0.356011 0.910036
O O9 0.990282 0.044556 0.360756
O O10 0.750731 0.094738 0.224335
O O11 0.822333 0.080207 0.478586
O O12 0.659832 0.476005 0.328407
O O13 0.500000 0.902376 0.750000
O O14 0.544806 0.934781 0.972834
#
# Coordination Sequence:
#
# PCOD9269604 Si02
#       7
#     8   8   8   8   4   8   8
#     4   9  19  35  56  87 119 163 202 238 297 359
#     4   9  19  38  60  86 120 162 202 245 303 363
#     4  10  20  34  58  86 122 157 203 252 291 353
#     4  11  23  39  61  93 121 159 202 257 305 359
#     4  12  24  40  66  90 116 160 208 252 320 364
#     4   9  20  40  58  84 127 156 193 248 302 361
#     4  10  22  42  62  85 123 157 202 260 300 366
#
# _framework density 20.527438
#
# number of rings (size 3 to 8) (size 9 to 14) (size 15 to 20)
#    0.000    2.154    0.000    2.308    2.154    0.615 
#    4.154    4.615    0.000    0.000    0.000    0.000 
#    0.000    0.000    0.000    0.000    0.000    0.000 
#
# Total GULP energy -144820.672070 kJ/mol
# GULP energy per Si atom -5570.025849 kJ/mol
# Density = 2.048072 g / cm^3
# Si number density = 20.527438 Si / 1000 Ang^3
#
#
#
# Elastic Constant Matrix: (Units=GPa)
#
#
# Indices 1 2 3 4 5 6 
#
# 1 47.7077 36.6694 20.4098 0.0000 4.1934 0.0000
# 2 36.6694 95.0351 24.9277 0.0000 6.5593 0.0000
# 3 20.4098 24.9277 68.9010 0.0000 8.4140 0.0000
# 4 0.0000 0.0000 0.0000 835.9433 0.0000 157.2453
# 5 4.1934 6.5593 8.4140 0.0000 35.9331 0.0000
# 6 0.0000 0.0000 0.0000 157.2453 0.0000 50.3687
#
#
#
# Elastic Compliance Matrix: (Units=1/GPa)
#
#
# Indices 1 2 3 4 5 6 
#
# 1 0.031562 -0.010727 -0.005412 0.000000 -0.000458 0.000000
# 2 -0.010727 0.015319 -0.002240 0.000000 -0.001020 0.000000
# 3 -0.005412 -0.002240 0.017295 0.000000 -0.003009 0.000000
# 4 0.000000 0.000000 0.000000 0.002898 0.000000 -0.009048
# 5 -0.000458 -0.001020 -0.003009 0.000000 0.028774 0.000000
# 6 0.000000 0.000000 0.000000 -0.009048 0.000000 0.048100
#
#
# Mechanical properties :
#
#
# Convention : Reuss Voigt Hill
#
# Bulk Modulus (GPa) = 36.47413 41.73975 39.10694
# Shear Modulus (GPa) = 26.33717 193.09148 109.71432
#
# Velocity S-wave (km/s) = 3.58582 9.70924 7.31872
# Velocity P-wave (km/s) = 5.91195 12.08595 9.51371
#
# Compressibility (1/GPa) = 0.02741670
#
# Stress axis : x y z
#
# Youngs Moduli (GPa) = 31.68408 65.27655 57.82072
#
# Poissons Ratio (x) = 0.70021 0.31295
# Poissons Ratio (y) = 0.33987 0.12954
# Poissons Ratio (z) = 0.17149 0.14624
#
# Static dielectric constant tensor:
#      x y z
#    x 1.803830 0.000000 0.033850 
#    y 0.000000 1.720220 0.000000 
#    z 0.033850 0.000000 1.743230 
# 
# From -- ./inp_files/81507.got.cif
#   From: 2010.05.17/outbox.cif.g08.bks.cpg/sg15_41_cif.got.tgz:81507.got - 2010.06.03 18:47:42.
