data_PCOD9269931
_publ_section_title
;
Structure prediction by ZEFSAII (Michael W. Deem and Ramdas Pophale) SiO2 
 PCOD9269931
Probable space group: C 2/C
;
_chemical_formula_sum "Si O2"
_cell_formula_units_Z 56
_cell_length_a 23.177811
_cell_length_b 16.949452
_cell_length_c 21.466845
_cell_angle_alpha 90.000000
_cell_angle_beta 21.242170
_cell_angle_gamma 90.000000
_cell_volume 3055.465751
_symmetry_space_group_name_H-M "C 2/C"
_symmetry_group_IT_number 15
_symmetry_cell_setting 'monoclinic'
loop_
_space_group_symop_operation_xyz
x,y,z
-x,y,1/2-z
-x,-y,-z
x,-y,1/2+z
1/2+x,1/2+y,z
1/2-x,1/2+y,1/2-z
1/2-x,1/2-y,-z
1/2+x,1/2-y,1/2+z
loop_
_atom_site_type_symbol
_atom_site_label
_atom_site_fract_x
_atom_site_fract_y
_atom_site_fract_z
Si Si1 0.219528 0.991899 0.212922
Si Si2 0.118942 0.935263 0.454125
Si Si3 0.102167 0.368842 0.923421
Si Si4 0.742254 0.408877 0.860955
Si Si5 0.603213 0.663926 0.799327
Si Si6 0.741458 0.213387 0.727750
Si Si7 0.368413 0.206288 0.334872
O O1 0.370104 0.049719 0.066756
O O2 0.065539 0.044583 0.352213
O O3 0.177676 0.959256 0.324691
O O4 0.215436 0.913117 0.174927
O O5 0.159036 0.843865 0.417771
O O6 0.214745 0.998396 0.398640
O O7 0.136492 0.392295 0.817266
O O8 0.234716 0.304831 0.810839
O O9 0.934507 0.323813 0.095958
O O10 0.793286 0.363263 0.870661
O O11 0.570944 0.372656 0.011587
O O12 0.681449 0.705501 0.780494
O O13 0.582328 0.726764 0.765326
O O14 0.500000 0.176115 0.250000
O O15 0.250000 0.250000 0.500000
#
# Coordination Sequence:
#
# PCOD9269931 Si02
#       7
#     8   8   8   8   8   8   8
#     4   8  16  31  48  66  92 125 158 194 244 298
#     4   8  16  31  48  66  92 125 158 194 244 297
#     4  11  20  29  47  72  98 127 161 196 243 297
#     4  10  20  35  49  66  95 130 163 205 248 283
#     4  10  20  35  49  66  95 130 163 205 248 284
#     4  11  20  29  47  72  98 127 161 196 243 298
#     4  12  24  36  50  72  96 132 176 210 238 279
#
# _framework density 18.327812000000002
#
# number of rings (size 3 to 8) (size 9 to 14) (size 15 to 20)
#    0.000    2.000    2.857    4.286    2.000    5.143 
#    0.000    0.000    0.000    0.000    0.000    0.000 
#    0.000    2.286    0.000    0.143    0.000    0.000 
#
# Total GULP energy -156096.739682 kJ/mol
# GULP energy per Si atom -5574.883560 kJ/mol
# Density = 1.828610 g / cm^3
# Si number density = 18.327812 Si / 1000 Ang^3
#
#
#
# Elastic Constant Matrix: (Units=GPa)
#
#
# Indices 1 2 3 4 5 6 
#
# 1 55.6133 37.2098 11.3897 -0.0068 -18.0271 0.0035
# 2 37.2098 96.5202 -1.6370 0.0142 -12.2675 -0.0071
# 3 11.3897 -1.6370 30.2611 -0.0037 -16.8774 -0.0004
# 4 -0.0068 0.0142 -0.0037 27.9345 -0.0024 -11.3238
# 5 -18.0271 -12.2675 -16.8774 -0.0024 22.6377 -0.0008
# 6 0.0035 -0.0071 -0.0004 -11.3238 -0.0008 27.8174
#
#
#
# Elastic Compliance Matrix: (Units=1/GPa)
#
#
# Indices 1 2 3 4 5 6 
#
# 1 0.030502 -0.009591 -0.002312 0.000013 0.017368 0.000000
# 2 -0.009591 0.015021 0.008050 -0.000007 0.006504 0.000002
# 3 -0.002312 0.008050 0.061208 0.000011 0.048154 0.000009
# 4 0.000013 -0.000007 0.000011 0.042873 0.000020 0.017453
# 5 0.017368 0.006504 0.048154 0.000020 0.097431 0.000011
# 6 0.000000 0.000002 0.000009 0.017453 0.000011 0.043053
#
#
# Mechanical properties :
#
#
# Convention : Reuss Voigt Hill
#
# Bulk Modulus (GPa) = 10.09845 30.70220 20.40032
# Shear Modulus (GPa) = 15.11476 24.70674 19.91075
#
# Velocity S-wave (km/s) = 2.87486 3.67556 3.29959
# Velocity P-wave (km/s) = 4.06714 5.89924 5.06669
#
# Compressibility (1/GPa) = 0.09902511
#
# Stress axis : x y z
#
# Youngs Moduli (GPa) = 32.78511 66.57336 16.33761
#
# Poissons Ratio (x) = 0.63848 0.03778
# Poissons Ratio (y) = 0.31443 -0.13152
# Poissons Ratio (z) = 0.07581 -0.53591
#
# Static dielectric constant tensor:
#      x y z
#    x 1.567920 -0.000010 -0.003450 
#    y -0.000010 1.694630 0.000020 
#    z -0.003450 0.000020 1.693760 
# 
# From -- ./inp_files/62206.got.cif
#   From: 2010.05.17/outbox.cif.g08.bks.cpg/sg15_32_cif.got.tgz:62206.got - 2010.06.03 18:47:42.
