data_PCOD9269956
_publ_section_title
;
Structure prediction by ZEFSAII (Michael W. Deem and Ramdas Pophale) SiO2 
 PCOD9269956
Probable space group: C 2/C
;
_chemical_formula_sum "Si O2"
_cell_formula_units_Z 64
_cell_length_a 26.008688
_cell_length_b 20.029336
_cell_length_c 8.115517
_cell_angle_alpha 90.000000
_cell_angle_beta 123.471139
_cell_angle_gamma 90.000000
_cell_volume 3526.569891
_symmetry_space_group_name_H-M "C 2/C"
_symmetry_group_IT_number 15
_symmetry_cell_setting 'monoclinic'
loop_
_space_group_symop_operation_xyz
x,y,z
-x,y,1/2-z
-x,-y,-z
x,-y,1/2+z
1/2+x,1/2+y,z
1/2-x,1/2+y,1/2-z
1/2-x,1/2-y,-z
1/2+x,1/2-y,1/2+z
loop_
_atom_site_type_symbol
_atom_site_label
_atom_site_fract_x
_atom_site_fract_y
_atom_site_fract_z
Si Si1 0.149964 0.757964 0.315945
Si Si2 0.172570 0.534888 0.143239
Si Si3 0.248165 0.852715 0.596341
Si Si4 0.184502 0.601345 0.805154
Si Si5 0.033141 0.435620 0.483311
Si Si6 0.020827 0.285962 0.477607
Si Si7 0.211740 0.182833 0.404281
Si Si8 0.391717 0.235768 0.881286
O O1 0.191556 0.825461 0.384653
O O2 0.195435 0.698139 0.340600
O O3 0.129962 0.746523 0.470045
O O4 0.085867 0.751784 0.106274
O O5 0.223707 0.572977 0.345531
O O6 0.177257 0.455233 0.156395
O O7 0.176228 0.565001 0.966464
O O8 0.105104 0.550942 0.092115
O O9 0.225377 0.840544 0.742862
O O10 0.135718 0.662348 0.712850
O O11 0.253794 0.630579 0.918940
O O12 0.027935 0.362514 0.553753
O O13 0.000000 0.428246 0.250000
O O14 0.000000 0.500000 0.500000
O O15 0.000000 0.286104 0.250000
O O16 0.964013 0.258377 0.482327
O O17 0.250000 0.250000 0.500000
O O18 0.142148 0.207886 0.289642
#
# Coordination Sequence:
#
# PCOD9269956 Si02
#       8
#     8   8   8   8   8   8   8   8
#     4  10  20  35  54  74  99 135 176 213 264 302
#     4  11  20  35  49  71 103 137 176 213 253 301
#     4   9  19  34  53  73 100 133 173 221 257 299
#     4  10  21  33  52  74 102 137 178 215 255 302
#     4  11  22  33  44  64  97 140 171 204 243 292
#     4  11  22  34  51  74 103 134 171 214 260 308
#     4   8  17  33  54  73  98 133 174 218 263 300
#     4  10  20  35  52  75 102 138 175 213 259 311
#
# _framework density 18.147945
#
# number of rings (size 3 to 8) (size 9 to 14) (size 15 to 20)
#    0.000    2.000    1.250    3.375    5.250    2.000 
#    0.000    0.000    0.000    0.000    0.000    0.875 
#    0.000    0.000    0.000    0.000    0.000    0.000 
#
# Total GULP energy -178377.249906 kJ/mol
# GULP energy per Si atom -5574.289060 kJ/mol
# Density = 1.810664 g / cm^3
# Si number density = 18.147945 Si / 1000 Ang^3
#
#
#
# Elastic Constant Matrix: (Units=GPa)
#
#
# Indices 1 2 3 4 5 6 
#
# 1 68.6655 34.4137 27.5581 0.0000 22.8573 0.0000
# 2 34.4137 38.9338 19.9897 0.0000 19.9832 0.0000
# 3 27.5581 19.9897 66.1253 0.0000 31.3133 0.0000
# 4 0.0000 0.0000 0.0000 34.4491 0.0000 5.2353
# 5 22.8573 19.9832 31.3133 0.0000 31.1607 0.0000
# 6 0.0000 0.0000 0.0000 5.2353 0.0000 27.8025
#
#
#
# Elastic Compliance Matrix: (Units=1/GPa)
#
#
# Indices 1 2 3 4 5 6 
#
# 1 0.027525 -0.020832 -0.003699 0.000000 -0.003114 0.000000
# 2 -0.020832 0.054054 0.002901 0.000000 -0.022298 0.000000
# 3 -0.003699 0.002901 0.029350 0.000000 -0.028641 0.000000
# 4 0.000000 0.000000 0.000000 0.029884 0.000000 -0.005627
# 5 -0.003114 -0.022298 -0.028641 0.000000 0.077456 0.000000
# 6 0.000000 0.000000 0.000000 -0.005627 0.000000 0.037028
#
#
# Mechanical properties :
#
#
# Convention : Reuss Voigt Hill
#
# Bulk Modulus (GPa) = 14.77812 37.51640 26.14726
# Shear Modulus (GPa) = 15.57082 24.80000 20.18541
#
# Velocity S-wave (km/s) = 2.93233 3.70069 3.33869
# Velocity P-wave (km/s) = 4.43008 6.24320 5.41309
#
# Compressibility (1/GPa) = 0.06766760
#
# Stress axis : x y z
#
# Youngs Moduli (GPa) = 36.33053 18.50019 34.07122
#
# Poissons Ratio (x) = 0.38540 0.12604
# Poissons Ratio (y) = 0.75684 -0.09883
# Poissons Ratio (z) = 0.13440 -0.05366
#
# Static dielectric constant tensor:
#      x y z
#    x 1.632150 0.000000 -0.017150 
#    y 0.000000 1.651790 0.000000 
#    z -0.017150 0.000000 1.705860 
# 
# From -- ./inp_files/57873.got.cif
#   From: 2010.05.17/outbox.cif.g08.bks.cpg/sg15_29_cif.got.tgz:57873.got - 2010.06.03 18:47:42.
