data_PCOD9269701
_publ_section_title
;
Structure prediction by ZEFSAII (Michael W. Deem and Ramdas Pophale) SiO2 
 PCOD9269701
Probable space group: C 2/C
;
_chemical_formula_sum "Si O2"
_cell_formula_units_Z 52
_cell_length_a 32.067859
_cell_length_b 18.976452
_cell_length_c 15.811189
_cell_angle_alpha 90.000000
_cell_angle_beta 164.403369
_cell_angle_gamma 90.000000
_cell_volume 2586.907217
_symmetry_space_group_name_H-M "C 2/C"
_symmetry_group_IT_number 15
_symmetry_cell_setting 'monoclinic'
loop_
_space_group_symop_operation_xyz
x,y,z
-x,y,1/2-z
-x,-y,-z
x,-y,1/2+z
1/2+x,1/2+y,z
1/2-x,1/2+y,1/2-z
1/2-x,1/2-y,-z
1/2+x,1/2-y,1/2+z
loop_
_atom_site_type_symbol
_atom_site_label
_atom_site_fract_x
_atom_site_fract_y
_atom_site_fract_z
Si Si1 0.947407 0.065861 0.840174
Si Si2 0.096550 0.337505 0.211106
Si Si3 0.554390 0.676646 0.176967
Si Si4 0.267155 0.938971 0.886543
Si Si5 0.267888 0.999002 0.717505
Si Si6 0.500000 0.606455 0.250000
Si Si7 0.051976 0.448669 0.677383
O O1 0.802348 0.040399 0.501692
O O2 0.949142 0.132742 0.905273
O O3 0.088073 0.079428 0.049773
O O4 0.000000 0.000000 0.000000
O O5 0.262900 0.342648 0.485785
O O6 0.053527 0.259297 0.154937
O O7 0.129306 0.385000 0.357785
O O8 0.964070 0.371965 0.893795
O O9 0.502692 0.653756 0.170052
O O10 0.305167 0.943397 0.863050
O O11 0.297572 0.016200 0.988030
O O12 0.142884 0.053077 0.512273
O O13 0.419488 0.041606 0.988443
O O14 0.000000 0.500000 0.500000
#
# Coordination Sequence:
#
# PCOD9269701 Si02
#       7
#     8   8   8   8   8   4   8
#     4  11  18  34  60  83 113 152 195 241 287 341
#     4   9  19  38  58  80 121 158 191 229 300 362
#     4  10  20  35  59  85 114 158 195 236 295 354
#     4  10  20  34  59  90 114 151 193 244 291 345
#     4  12  20  35  60  90 117 144 204 251 287 332
#     4  12  20  34  60  88 114 142 200 254 284 334
#     4  10  20  36  58  82 116 158 192 233 293 350
#
# _framework density 20.101223000000001
#
# number of rings (size 3 to 8) (size 9 to 14) (size 15 to 20)
#    0.000    1.538    4.615    2.308    0.000    0.000 
#    5.538    0.000    3.385   11.077    0.000    0.000 
#    0.000    0.000    0.000    0.000    0.000    0.000 
#
# Total GULP energy -145094.992707 kJ/mol
# GULP energy per Si atom -5580.576643 kJ/mol
# Density = 2.005547 g / cm^3
# Si number density = 20.101223 Si / 1000 Ang^3
#
#
#
# Elastic Constant Matrix: (Units=GPa)
#
#
# Indices 1 2 3 4 5 6 
#
# 1 134.2312 49.5475 31.1564 0.0000 -7.0209 0.0000
# 2 49.5475 117.9145 25.2067 0.0000 -12.5676 0.0000
# 3 31.1564 25.2067 59.2634 0.0000 -1.6859 0.0000
# 4 0.0000 0.0000 0.0000 22.8435 0.0000 -4.3518
# 5 -7.0209 -12.5676 -1.6859 0.0000 40.4525 0.0000
# 6 0.0000 0.0000 0.0000 -4.3518 0.0000 24.2170
#
#
#
# Elastic Compliance Matrix: (Units=1/GPa)
#
#
# Indices 1 2 3 4 5 6 
#
# 1 0.009483 -0.003154 -0.003629 0.000000 0.000515 0.000000
# 2 -0.003154 0.010691 -0.002813 0.000000 0.002657 0.000000
# 3 -0.003629 -0.002813 0.019959 0.000000 -0.000672 0.000000
# 4 0.000000 0.000000 0.000000 0.045328 0.000000 0.008145
# 5 0.000515 0.002657 -0.000672 0.000000 0.025607 0.000000
# 6 0.000000 0.000000 0.000000 0.008145 0.000000 0.042757
#
#
# Mechanical properties :
#
#
# Convention : Reuss Voigt Hill
#
# Bulk Modulus (GPa) = 47.75639 58.13670 52.94654
# Shear Modulus (GPa) = 27.77789 31.20250 29.49019
#
# Velocity S-wave (km/s) = 3.72142 3.94416 3.83441
# Velocity P-wave (km/s) = 6.50191 7.05171 6.78238
#
# Compressibility (1/GPa) = 0.02093961
#
# Stress axis : x y z
#
# Youngs Moduli (GPa) = 105.44651 93.53962 50.10172
#
# Poissons Ratio (x) = 0.29504 0.18184
# Poissons Ratio (y) = 0.33260 0.14095
# Poissons Ratio (z) = 0.38272 0.26315
#
# Static dielectric constant tensor:
#      x y z
#    x 1.753500 0.000000 0.033340 
#    y 0.000000 1.714730 0.000000 
#    z 0.033340 0.000000 1.766000 
# 
# From -- ./inp_files/182904.got.cif
#   From: 2010.05.17/outbox.cif.g08.bks.cpg/sg15_92_cif.got.tgz:182904.got - 2010.06.03 18:47:42.
