data_PCOD9269178
_publ_section_title
;
Structure prediction by ZEFSAII (Michael W. Deem and Ramdas Pophale) SiO2 
 PCOD9269178
Probable space group: C 2/C
;
_chemical_formula_sum "Si O2"
_cell_formula_units_Z 52
_cell_length_a 25.521828
_cell_length_b 11.665759
_cell_length_c 9.989609
_cell_angle_alpha 90.000000
_cell_angle_beta 130.696669
_cell_angle_gamma 90.000000
_cell_volume 2254.971981
_symmetry_space_group_name_H-M "C 2/C"
_symmetry_group_IT_number 15
_symmetry_cell_setting 'monoclinic'
loop_
_space_group_symop_operation_xyz
x,y,z
-x,y,1/2-z
-x,-y,-z
x,-y,1/2+z
1/2+x,1/2+y,z
1/2-x,1/2+y,1/2-z
1/2-x,1/2-y,-z
1/2+x,1/2-y,1/2+z
loop_
_atom_site_type_symbol
_atom_site_label
_atom_site_fract_x
_atom_site_fract_y
_atom_site_fract_z
Si Si1 0.577550 0.826161 0.877565
Si Si2 0.319291 0.798383 0.686673
Si Si3 0.500000 0.594202 0.750000
Si Si4 0.838948 0.932652 0.359947
Si Si5 0.148489 0.291568 0.254978
Si Si6 0.268156 0.105771 0.370272
Si Si7 0.089800 0.927867 0.742288
O O1 0.500000 0.876851 0.750000
O O2 0.624963 0.842606 0.827027
O O3 0.562139 0.687787 0.862539
O O4 0.618506 0.857920 0.079000
O O5 0.250000 0.750000 0.500000
O O6 0.351550 0.692012 0.823106
O O7 0.296367 0.879767 0.768195
O O8 0.526361 0.503445 0.685111
O O9 0.853659 0.939916 0.542353
O O10 0.765231 0.980426 0.189702
O O11 0.887259 0.016722 0.357543
O O12 0.209315 0.205019 0.301577
O O13 0.178434 0.369768 0.422426
O O14 0.088597 0.207893 0.214848
#
# Coordination Sequence:
#
# PCOD9269178 Si02
#       7
#     8   8   4   8   8   8   8
#     4  10  22  38  58  85 125 162 199 240 304 377
#     4  12  21  39  62  90 121 163 206 251 298 371
#     4  10  20  34  52  86 116 166 190 224 294 396
#     4  11  22  37  54  90 117 162 196 257 297 350
#     4  10  20  38  52  82 119 163 198 249 293 352
#     4  10  21  36  59  81 121 159 206 253 304 344
#     4  11  21  33  55  77 125 158 199 232 297 367
#
# _framework density 23.060154000000001
#
# number of rings (size 3 to 8) (size 9 to 14) (size 15 to 20)
#    0.462    0.923    4.615    2.769    0.000    3.692 
#    0.000    0.000    0.000    0.000    0.000    4.308 
#    0.000    0.000    0.000    0.000    0.000    0.000 
#
# Total GULP energy -145135.874366 kJ/mol
# GULP energy per Si atom -5582.149014 kJ/mol
# Density = 2.300767 g / cm^3
# Si number density = 23.060154 Si / 1000 Ang^3
#
#
#
# Elastic Constant Matrix: (Units=GPa)
#
#
# Indices 1 2 3 4 5 6 
#
# 1 115.0931 7.0397 31.0268 0.0000 -15.7165 0.0000
# 2 7.0397 26.7733 6.1089 0.0000 -5.5066 0.0000
# 3 31.0268 6.1089 103.5767 0.0000 -11.0703 0.0000
# 4 0.0000 0.0000 0.0000 17.9025 0.0000 5.7323
# 5 -15.7165 -5.5066 -11.0703 0.0000 32.2114 0.0000
# 6 0.0000 0.0000 0.0000 5.7323 0.0000 25.0033
#
#
#
# Elastic Compliance Matrix: (Units=1/GPa)
#
#
# Indices 1 2 3 4 5 6 
#
# 1 0.009958 -0.001269 -0.002504 0.000000 0.003781 0.000000
# 2 -0.001269 0.039142 -0.001328 0.000000 0.005616 0.000000
# 3 -0.002504 -0.001328 0.010722 0.000000 0.002236 0.000000
# 4 0.000000 0.000000 0.000000 0.060283 0.000000 -0.013821
# 5 0.003781 0.005616 0.002236 0.000000 0.034618 0.000000
# 6 0.000000 0.000000 0.000000 -0.013821 0.000000 0.043163
#
#
# Mechanical properties :
#
#
# Convention : Reuss Voigt Hill
#
# Bulk Modulus (GPa) = 20.15336 37.08820 28.62078
# Shear Modulus (GPa) = 22.25888 28.44130 25.35009
#
# Velocity S-wave (km/s) = 3.11022 3.51572 3.31917
# Velocity P-wave (km/s) = 4.65365 5.70951 5.20841
#
# Compressibility (1/GPa) = 0.04961951
#
# Stress axis : x y z
#
# Youngs Moduli (GPa) = 100.42627 25.54771 93.26569
#
# Poissons Ratio (x) = 0.03243 0.23352
# Poissons Ratio (y) = 0.12747 0.12387
# Poissons Ratio (z) = 0.25145 0.03393
#
# Static dielectric constant tensor:
#      x y z
#    x 1.913360 0.000000 0.041520 
#    y 0.000000 1.852910 0.000000 
#    z 0.041520 0.000000 1.911810 
# 
# From -- ./inp_files/66313.got.cif
#   From: 2010.05.17/outbox.cif.g08.bks.cpg/sg15_34_cif.got.tgz:66313.got - 2010.06.03 18:47:42.
