data_PCOD9269365
_publ_section_title
;
Structure prediction by ZEFSAII (Michael W. Deem and Ramdas Pophale) SiO2 
 PCOD9269365
Probable space group: C 2/C
;
_chemical_formula_sum "Si O2"
_cell_formula_units_Z 64
_cell_length_a 31.182133
_cell_length_b 5.280890
_cell_length_c 22.833596
_cell_angle_alpha 90.000000
_cell_angle_beta 114.479996
_cell_angle_gamma 90.000000
_cell_volume 3421.993899
_symmetry_space_group_name_H-M "C 2/C"
_symmetry_group_IT_number 15
_symmetry_cell_setting 'monoclinic'
loop_
_space_group_symop_operation_xyz
x,y,z
-x,y,1/2-z
-x,-y,-z
x,-y,1/2+z
1/2+x,1/2+y,z
1/2-x,1/2+y,1/2-z
1/2-x,1/2-y,-z
1/2+x,1/2-y,1/2+z
loop_
_atom_site_type_symbol
_atom_site_label
_atom_site_fract_x
_atom_site_fract_y
_atom_site_fract_z
Si Si1 0.308444 0.986843 0.004044
Si Si2 0.592500 0.949180 0.997078
Si Si3 0.701580 0.514723 0.923380
Si Si4 0.449802 0.335410 0.137162
Si Si5 0.544079 0.041217 0.752294
Si Si6 0.885951 0.924790 0.691012
Si Si7 0.556052 0.545368 0.538343
Si Si8 0.551193 0.652987 0.668494
O O1 0.309643 0.221610 0.050305
O O2 0.309604 0.722596 0.040121
O O3 0.352617 0.011072 0.986148
O O4 0.257516 0.004487 0.944121
O O5 0.581888 0.714789 0.034711
O O6 0.571114 0.214075 0.007413
O O7 0.568528 0.847456 0.923872
O O8 0.668338 0.483925 0.848101
O O9 0.409222 0.511407 0.140558
O O10 0.498441 0.462691 0.144117
O O11 0.460369 0.171194 0.200546
O O12 0.500000 0.214741 0.750000
O O13 0.596852 0.140491 0.790360
O O14 0.541788 0.940995 0.684903
O O15 0.912743 0.051633 0.761725
O O16 0.500000 0.500000 0.500000
O O17 0.567096 0.616825 0.611774
#
# Coordination Sequence:
#
# PCOD9269365 Si02
#       8
#     8   8   8   8   8   8   8   8
#     4  10  21  40  60  96 124 155 192 257 311 380
#     4  12  24  40  64  85 127 162 206 257 306 365
#     4  10  21  36  65  93 127 149 196 250 323 375
#     4  10  20  34  55  88 118 155 198 246 314 361
#     4   9  19  32  54  80 120 161 193 250 303 371
#     4  11  20  34  59  87 119 160 192 255 314 373
#     4  12  27  42  61  87 121 174 216 255 289 350
#     4  10  23  37  51  83 123 159 216 243 296 357
#
# _framework density 18.702546999999999
#
# number of rings (size 3 to 8) (size 9 to 14) (size 15 to 20)
#    0.000    1.500    2.500    3.750    5.250    1.000 
#    0.000    0.000    0.000    1.500    0.000    0.000 
#    0.000    0.000    0.000    0.000    0.000    0.000 
#
# Total GULP energy -178309.644226 kJ/mol
# GULP energy per Si atom -5572.176382 kJ/mol
# Density = 1.865998 g / cm^3
# Si number density = 18.702547 Si / 1000 Ang^3
#
#
#
# Elastic Constant Matrix: (Units=GPa)
#
#
# Indices 1 2 3 4 5 6 
#
# 1 128.8483 38.7498 55.8686 -0.0012 12.9525 -0.0001
# 2 38.7498 77.8205 14.1468 -0.0054 -5.8176 -0.0001
# 3 55.8686 14.1468 100.8954 -0.0009 9.6249 -0.0001
# 4 -0.0012 -0.0054 -0.0009 18.9896 -0.0007 -3.5901
# 5 12.9525 -5.8176 9.6249 -0.0007 31.6284 0.0002
# 6 -0.0001 -0.0001 -0.0001 -3.5901 0.0002 24.5388
#
#
#
# Elastic Compliance Matrix: (Units=1/GPa)
#
#
# Indices 1 2 3 4 5 6 
#
# 1 0.012254 -0.005402 -0.005617 -0.000001 -0.004302 0.000000
# 2 -0.005402 0.015865 0.000286 0.000005 0.005044 0.000001
# 3 -0.005617 0.000286 0.013139 0.000000 -0.001645 0.000000
# 4 -0.000001 0.000005 0.000000 0.054158 0.000002 0.007924
# 5 -0.004302 0.005044 -0.001645 0.000002 0.034807 0.000000
# 6 0.000000 0.000001 0.000000 0.007924 0.000000 0.041911
#
#
# Mechanical properties :
#
#
# Convention : Reuss Voigt Hill
#
# Bulk Modulus (GPa) = 50.53073 58.34382 54.43727
# Shear Modulus (GPa) = 24.97513 28.28463 26.62988
#
# Velocity S-wave (km/s) = 3.65826 3.89310 3.77751
# Velocity P-wave (km/s) = 6.70228 7.17438 6.94234
#
# Compressibility (1/GPa) = 0.01978994
#
# Stress axis : x y z
#
# Youngs Moduli (GPa) = 81.60646 63.03131 76.11111
#
# Poissons Ratio (x) = 0.34050 0.42755
# Poissons Ratio (y) = 0.44085 -0.02175
# Poissons Ratio (z) = 0.45842 -0.01801
#
# Static dielectric constant tensor:
#      x y z
#    x 1.734050 0.000000 0.056410 
#    y 0.000000 1.787030 0.000000 
#    z 0.056410 0.000000 1.656810 
# 
# From -- ./inp_files/258458.got.cif
#   From: 2010.05.17/outbox.cif.g08.bks.cpg/sg15_130_cif.got.tgz:258458.got - 2010.06.03 18:47:42.
