data_PCOD9269339
_publ_section_title
;
Structure prediction by ZEFSAII (Michael W. Deem and Ramdas Pophale) SiO2 
 PCOD9269339
Probable space group: C 2/C
;
_chemical_formula_sum "Si O2"
_cell_formula_units_Z 44
_cell_length_a 18.410729
_cell_length_b 25.764224
_cell_length_c 6.720157
_cell_angle_alpha 90.000000
_cell_angle_beta 46.597986
_cell_angle_gamma 90.000000
_cell_volume 2315.971914
_symmetry_space_group_name_H-M "C 2/C"
_symmetry_group_IT_number 15
_symmetry_cell_setting 'monoclinic'
loop_
_space_group_symop_operation_xyz
x,y,z
-x,y,1/2-z
-x,-y,-z
x,-y,1/2+z
1/2+x,1/2+y,z
1/2-x,1/2+y,1/2-z
1/2-x,1/2-y,-z
1/2+x,1/2-y,1/2+z
loop_
_atom_site_type_symbol
_atom_site_label
_atom_site_fract_x
_atom_site_fract_y
_atom_site_fract_z
Si Si1 0.706288 0.629875 0.766728
Si Si2 0.500000 0.218233 0.750000
Si Si3 0.358567 0.726213 0.835354
Si Si4 0.866379 0.951210 0.339031
Si Si5 0.098839 0.690030 0.947008
Si Si6 0.908346 0.069048 0.204988
O O1 0.653699 0.666477 0.700217
O O2 0.805147 0.657510 0.663941
O O3 0.633981 0.616094 0.086769
O O4 0.720333 0.575475 0.625108
O O5 0.565620 0.250637 0.470481
O O6 0.575370 0.188272 0.756831
O O7 0.250000 0.750000 0.000000
O O8 0.386312 0.750407 0.998395
O O9 0.971763 0.937160 0.031570
O O10 0.866715 0.013245 0.357544
O O11 0.872203 0.927676 0.546768
O O12 0.000000 0.671113 0.250000
#
# Coordination Sequence:
#
# PCOD9269339 Si02
#       6
#     8   4   8   8   8   8
#     4  11  21  34  61  86 114 154 200 229 289 357
#     4  10  20  38  62  76 122 154 188 250 300 334
#     4   9  21  36  55  85 118 148 194 241 287 349
#     4  10  20  35  53  83 125 148 190 232 282 348
#     4   9  21  41  59  83 114 154 194 249 297 337
#     4  10  20  34  55  82 120 159 181 233 287 340
#
# _framework density 18.998501000000001
#
# number of rings (size 3 to 8) (size 9 to 14) (size 15 to 20)
#    0.000    2.182    1.818    0.545    2.545    8.727 
#    6.545    0.000    0.000    1.091    0.000    0.000 
#    0.000    0.000    0.000    0.000    0.000    0.000 
#
# Total GULP energy -122568.873785 kJ/mol
# GULP energy per Si atom -5571.312445 kJ/mol
# Density = 1.895526 g / cm^3
# Si number density = 18.998501 Si / 1000 Ang^3
#
#
#
# Elastic Constant Matrix: (Units=GPa)
#
#
# Indices 1 2 3 4 5 6 
#
# 1 116.1544 42.0423 27.0419 0.0000 22.6735 0.0000
# 2 42.0423 85.4724 33.8317 0.0000 5.0143 0.0000
# 3 27.0419 33.8317 57.5235 0.0000 11.3736 0.0000
# 4 0.0000 0.0000 0.0000 28.9824 0.0000 0.4227
# 5 22.6735 5.0143 11.3736 0.0000 33.6634 0.0000
# 6 0.0000 0.0000 0.0000 0.4227 0.0000 29.9619
#
#
#
# Elastic Compliance Matrix: (Units=1/GPa)
#
#
# Indices 1 2 3 4 5 6 
#
# 1 0.012092 -0.004997 -0.001374 0.000000 -0.006936 0.000000
# 2 -0.004997 0.017336 -0.008574 0.000000 0.003680 0.000000
# 3 -0.001374 -0.008574 0.024258 0.000000 -0.005993 0.000000
# 4 0.000000 0.000000 0.000000 0.034511 0.000000 -0.000487
# 5 -0.006936 0.003680 -0.005993 0.000000 0.035854 0.000000
# 6 0.000000 0.000000 0.000000 -0.000487 0.000000 0.033383
#
#
# Mechanical properties :
#
#
# Convention : Reuss Voigt Hill
#
# Bulk Modulus (GPa) = 42.02641 51.66467 46.84554
# Shear Modulus (GPa) = 25.60762 28.93718 27.27240
#
# Velocity S-wave (km/s) = 3.67533 3.90696 3.79291
# Velocity P-wave (km/s) = 6.33874 6.89968 6.62515
#
# Compressibility (1/GPa) = 0.02379456
#
# Stress axis : x y z
#
# Youngs Moduli (GPa) = 82.70216 57.68508 41.22343
#
# Poissons Ratio (x) = 0.28824 0.05665
# Poissons Ratio (y) = 0.41325 0.35346
# Poissons Ratio (z) = 0.11365 0.49461
#
# Static dielectric constant tensor:
#      x y z
#    x 1.701130 0.000000 0.037000 
#    y 0.000000 1.702610 0.000000 
#    z 0.037000 0.000000 1.676040 
# 
# From -- ./inp_files/14085.got.cif
#   From: 2010.05.17/outbox.cif.g08.bks.cpg/sg15_8_cif.got.tgz:14085.got - 2010.06.03 18:47:42.
