data_PCOD9269721
_publ_section_title
;
Structure prediction by ZEFSAII (Michael W. Deem and Ramdas Pophale) SiO2 
 PCOD9269721
Probable space group: C 2/C
;
_chemical_formula_sum "Si O2"
_cell_formula_units_Z 52
_cell_length_a 20.162266
_cell_length_b 20.125904
_cell_length_c 8.928324
_cell_angle_alpha 90.000000
_cell_angle_beta 133.439766
_cell_angle_gamma 90.000000
_cell_volume 2630.629553
_symmetry_space_group_name_H-M "C 2/C"
_symmetry_group_IT_number 15
_symmetry_cell_setting 'monoclinic'
loop_
_space_group_symop_operation_xyz
x,y,z
-x,y,1/2-z
-x,-y,-z
x,-y,1/2+z
1/2+x,1/2+y,z
1/2-x,1/2+y,1/2-z
1/2-x,1/2-y,-z
1/2+x,1/2-y,1/2+z
loop_
_atom_site_type_symbol
_atom_site_label
_atom_site_fract_x
_atom_site_fract_y
_atom_site_fract_z
Si Si1 0.612052 0.926183 0.180932
Si Si2 0.906154 0.694318 0.016770
Si Si3 0.402119 0.468290 0.807965
Si Si4 0.500000 0.997661 0.250000
Si Si5 0.684815 0.571140 0.624599
Si Si6 0.102389 0.152788 0.978361
Si Si7 0.766219 0.826440 0.079870
O O1 0.575397 0.954480 0.279265
O O2 0.718148 0.937187 0.308023
O O3 0.593677 0.847914 0.133358
O O4 0.551589 0.959355 0.955315
O O5 0.882697 0.770891 0.949945
O O6 0.000000 0.694783 0.250000
O O7 0.835348 0.657923 0.020272
O O8 0.328303 0.520552 0.757871
O O9 0.388259 0.450856 0.613068
O O10 0.500000 0.500000 0.000000
O O11 0.390747 0.400099 0.880729
O O12 0.678589 0.645455 0.687918
O O13 0.179986 0.140570 0.973558
O O14 0.000000 0.147737 0.750000
O O15 0.750000 0.750000 0.000000
#
# Coordination Sequence:
#
# PCOD9269721 Si02
#       7
#     8   8   8   4   8   8   8
#     4  10  20  37  56  88 113 157 190 252 301 378
#     4   9  18  36  60  83 119 155 200 247 307 380
#     4  12  24  39  60  90 123 166 213 266 317 377
#     4  10  20  34  60  80 120 144 200 238 312 360
#     4  11  22  37  59  86 125 155 207 257 316 363
#     4  10  20  37  62  85 117 163 211 256 319 378
#     4   9  19  37  60  87 116 159 205 253 315 390
#
# _framework density 19.767132
#
# number of rings (size 3 to 8) (size 9 to 14) (size 15 to 20)
#    0.000    1.846    0.769    4.154    0.000    1.231 
#    2.769    6.923   10.154    0.000    0.000    0.000 
#    0.000    0.000    0.000    0.000    0.000    0.000 
#
# Total GULP energy -144805.004158 kJ/mol
# GULP energy per Si atom -5569.423237 kJ/mol
# Density = 1.972214 g / cm^3
# Si number density = 19.767132 Si / 1000 Ang^3
#
#
#
# Elastic Constant Matrix: (Units=GPa)
#
#
# Indices 1 2 3 4 5 6 
#
# 1 89.0392 42.3634 16.0789 0.0000 -9.1095 0.0000
# 2 42.3634 99.1268 34.5212 0.0000 -12.7723 0.0000
# 3 16.0789 34.5212 70.0995 0.0000 -12.2236 0.0000
# 4 0.0000 0.0000 0.0000 29.5965 0.0000 -8.8647
# 5 -9.1095 -12.7723 -12.2236 0.0000 29.5568 0.0000
# 6 0.0000 0.0000 0.0000 -8.8647 0.0000 21.2066
#
#
#
# Elastic Compliance Matrix: (Units=1/GPa)
#
#
# Indices 1 2 3 4 5 6 
#
# 1 0.014193 -0.005802 -0.000078 0.000000 0.001835 0.000000
# 2 -0.005802 0.014800 -0.005555 0.000000 0.002310 0.000000
# 3 -0.000078 -0.005555 0.017886 0.000000 0.004973 0.000000
# 4 0.000000 0.000000 0.000000 0.038624 0.000000 0.016145
# 5 0.001835 0.002310 0.004973 0.000000 0.037453 0.000000
# 6 0.000000 0.000000 0.000000 0.016145 0.000000 0.053904
#
#
# Mechanical properties :
#
#
# Convention : Reuss Voigt Hill
#
# Bulk Modulus (GPa) = 41.65111 49.35471 45.50291
# Shear Modulus (GPa) = 24.06935 27.09213 25.58074
#
# Velocity S-wave (km/s) = 3.49326 3.70613 3.60127
# Velocity P-wave (km/s) = 6.11450 6.58302 6.35308
#
# Compressibility (1/GPa) = 0.02400896
#
# Stress axis : x y z
#
# Youngs Moduli (GPa) = 70.45520 67.56869 55.90987
#
# Poissons Ratio (x) = 0.39204 0.00438
# Poissons Ratio (y) = 0.40879 0.31056
# Poissons Ratio (z) = 0.00552 0.37532
#
# Static dielectric constant tensor:
#      x y z
#    x 1.723130 0.000000 0.004070 
#    y 0.000000 1.740170 0.000000 
#    z 0.004070 0.000000 1.707500 
# 
# From -- ./inp_files/57057.got.cif
#   From: 2010.05.17/outbox.cif.g08.bks.cpg/sg15_29_cif.got.tgz:57057.got - 2010.06.03 18:47:42.
