data_PCOD9269641
_publ_section_title
;
Structure prediction by ZEFSAII (Michael W. Deem and Ramdas Pophale) SiO2 
 PCOD9269641
Probable space group: C 2/C
;
_chemical_formula_sum "Si O2"
_cell_formula_units_Z 52
_cell_length_a 6.186821
_cell_length_b 16.761156
_cell_length_c 26.169221
_cell_angle_alpha 90.000000
_cell_angle_beta 59.153018
_cell_angle_gamma 90.000000
_cell_volume 2329.821858
_symmetry_space_group_name_H-M "C 2/C"
_symmetry_group_IT_number 15
_symmetry_cell_setting 'monoclinic'
loop_
_space_group_symop_operation_xyz
x,y,z
-x,y,1/2-z
-x,-y,-z
x,-y,1/2+z
1/2+x,1/2+y,z
1/2-x,1/2+y,1/2-z
1/2-x,1/2-y,-z
1/2+x,1/2-y,1/2+z
loop_
_atom_site_type_symbol
_atom_site_label
_atom_site_fract_x
_atom_site_fract_y
_atom_site_fract_z
Si Si1 0.280111 0.694024 0.416004
Si Si2 0.294639 0.995165 0.981360
Si Si3 0.665428 0.436591 0.904379
Si Si4 0.082083 0.799559 0.353740
Si Si5 0.500000 0.344975 0.250000
Si Si6 0.008804 0.562698 0.689337
Si Si7 0.517598 0.841777 0.445148
O O1 0.499539 0.626209 0.393159
O O2 0.416433 0.772126 0.421583
O O3 0.161874 0.720697 0.376097
O O4 0.084254 0.673246 0.485155
O O5 0.385837 0.076664 0.942003
O O6 0.293121 0.918735 0.944293
O O7 0.039822 0.003734 0.044874
O O8 0.500000 0.000000 0.000000
O O9 0.877950 0.483171 0.848820
O O10 0.817364 0.834493 0.406177
O O11 0.061226 0.794553 0.294081
O O12 0.293505 0.865303 0.338758
O O13 0.736582 0.402048 0.207280
O O14 0.000000 0.544238 0.750000
#
# Coordination Sequence:
#
# PCOD9269641 Si02
#       7
#     8   8   8   8   4   8   8
#     4  10  22  36  58  93 137 172 201 262 339 402
#     4  10  20  34  58  91 126 165 208 256 315 384
#     4  10  21  37  57  91 128 160 207 260 324 391
#     4  11  20  37  63  92 122 165 222 272 320 393
#     4  10  22  38  64  94 116 164 230 296 322 382
#     4  10  22  41  67  88 117 160 221 281 325 377
#     4  10  21  37  58  92 133 171 208 257 327 404
#
# _framework density 22.319300999999999
#
# number of rings (size 3 to 8) (size 9 to 14) (size 15 to 20)
#    0.000    1.846    0.000    4.154    0.000    8.615 
#    0.000    0.000   13.538    0.000    0.000    0.000 
#    0.000    0.000    0.000    0.000    0.000    0.000 
#
# Total GULP energy -144919.889954 kJ/mol
# GULP energy per Si atom -5573.841921 kJ/mol
# Density = 2.226850 g / cm^3
# Si number density = 22.319301 Si / 1000 Ang^3
#
#
#
# Elastic Constant Matrix: (Units=GPa)
#
#
# Indices 1 2 3 4 5 6 
#
# 1 135.8693 56.9839 71.4472 0.0000 -4.0633 0.0000
# 2 56.9839 86.2374 46.9083 0.0000 5.5812 0.0000
# 3 71.4472 46.9083 100.0760 0.0000 6.7538 0.0000
# 4 0.0000 0.0000 0.0000 35.6288 0.0000 3.4545
# 5 -4.0633 5.5812 6.7538 0.0000 51.6179 0.0000
# 6 0.0000 0.0000 0.0000 3.4545 0.0000 34.0505
#
#
#
# Elastic Compliance Matrix: (Units=1/GPa)
#
#
# Indices 1 2 3 4 5 6 
#
# 1 0.013441 -0.005012 -0.007420 0.000000 0.002571 0.000000
# 2 -0.005012 0.017460 -0.004492 0.000000 -0.001695 0.000000
# 3 -0.007420 -0.004492 0.017557 0.000000 -0.002396 0.000000
# 4 0.000000 0.000000 0.000000 0.028346 0.000000 -0.002876
# 5 0.002571 -0.001695 -0.002396 0.000000 0.020072 0.000000
# 6 0.000000 0.000000 0.000000 -0.002876 0.000000 0.029660
#
#
# Mechanical properties :
#
#
# Convention : Reuss Voigt Hill
#
# Bulk Modulus (GPa) = 68.44191 74.76238 71.60215
# Shear Modulus (GPa) = 30.25652 34.04899 32.15276
#
# Velocity S-wave (km/s) = 3.68587 3.91005 3.79962
# Velocity P-wave (km/s) = 6.98897 7.34535 7.16937
#
# Compressibility (1/GPa) = 0.01461093
#
# Stress axis : x y z
#
# Youngs Moduli (GPa) = 74.40127 57.27222 56.95736
#
# Poissons Ratio (x) = 0.28702 0.42263
# Poissons Ratio (y) = 0.37287 0.25585
# Poissons Ratio (z) = 0.55206 0.25726
#
# Static dielectric constant tensor:
#      x y z
#    x 8.184090 0.000000 0.377020 
#    y 0.000000 1.987900 0.000000 
#    z 0.377020 0.000000 1.903630 
# 
# From -- ./inp_files/285795.got.cif
#   From: 2010.05.17/outbox.cif.g08.bks.cpg/sg15_143_cif.got.tgz:285795.got - 2010.06.03 18:47:42.
