data_PCOD9269175
_publ_section_title
;
Structure prediction by ZEFSAII (Michael W. Deem and Ramdas Pophale) SiO2 
 PCOD9269175
Probable space group: C 2/C
;
_chemical_formula_sum "Si O2"
_cell_formula_units_Z 44
_cell_length_a 12.953561
_cell_length_b 22.226480
_cell_length_c 8.879113
_cell_angle_alpha 90.000000
_cell_angle_beta 40.902003
_cell_angle_gamma 90.000000
_cell_volume 1673.849424
_symmetry_space_group_name_H-M "C 2/C"
_symmetry_group_IT_number 15
_symmetry_cell_setting 'monoclinic'
loop_
_space_group_symop_operation_xyz
x,y,z
-x,y,1/2-z
-x,-y,-z
x,-y,1/2+z
1/2+x,1/2+y,z
1/2-x,1/2+y,1/2-z
1/2-x,1/2-y,-z
1/2+x,1/2-y,1/2+z
loop_
_atom_site_type_symbol
_atom_site_label
_atom_site_fract_x
_atom_site_fract_y
_atom_site_fract_z
Si Si1 0.785701 0.883020 0.396609
Si Si2 0.189567 0.881321 0.789054
Si Si3 0.500000 0.790358 0.750000
Si Si4 0.319743 0.332869 0.031619
Si Si5 0.620537 0.008499 0.501966
Si Si6 0.970224 0.712205 0.967125
O O1 0.868065 0.881419 0.472565
O O2 0.653283 0.831160 0.557191
O O3 0.852831 0.871011 0.150834
O O4 0.692010 0.946554 0.486802
O O5 0.132118 0.857909 0.686871
O O6 0.236621 0.949737 0.703332
O O7 0.347487 0.840972 0.628985
O O8 0.503581 0.754693 0.900125
O O9 0.385304 0.265632 0.975029
O O10 0.129879 0.320427 0.240335
O O11 0.500000 0.039878 0.750000
O O12 0.500000 0.000000 0.500000
#
# Coordination Sequence:
#
# PCOD9269175 Si02
#       6
#     8   8   4   8   8   8
#     4  10  20  34  52  84 120 162 198 242 309 369
#     4  11  22  35  55  85 124 163 196 249 306 368
#     4   8  16  34  54  80 118 150 194 240 292 354
#     4  11  23  40  60  87 128 161 206 251 300 362
#     4  12  18  30  52  80 121 157 196 239 308 372
#     4  10  21  38  59  87 124 163 202 251 302 361
#
# _framework density 26.286712000000001
#
# number of rings (size 3 to 8) (size 9 to 14) (size 15 to 20)
#    0.000    1.455    2.727    5.455    0.000    6.545 
#    0.000    3.636    0.000    0.000    0.000    1.273 
#   10.909    0.182    0.000    0.000    0.000    0.000 
#
# Total GULP energy -122817.294045 kJ/mol
# GULP energy per Si atom -5582.604275 kJ/mol
# Density = 2.622688 g / cm^3
# Si number density = 26.286712 Si / 1000 Ang^3
#
#
#
# Elastic Constant Matrix: (Units=GPa)
#
#
# Indices 1 2 3 4 5 6 
#
# 1 136.6439 42.5217 71.9914 0.0000 65.7888 0.0000
# 2 42.5217 90.0654 20.1573 0.0000 13.1987 0.0000
# 3 71.9914 20.1573 246.8029 0.0000 37.5211 0.0000
# 4 0.0000 0.0000 0.0000 6.4358 0.0000 8.3042
# 5 65.7888 13.1987 37.5211 0.0000 44.7943 0.0000
# 6 0.0000 0.0000 0.0000 8.3042 0.0000 -34.9720
#
#
#
# Elastic Compliance Matrix: (Units=1/GPa)
#
#
# Indices 1 2 3 4 5 6 
#
# 1 0.030454 -0.007960 -0.002051 0.000000 -0.040664 0.000000
# 2 -0.007960 0.013737 0.000044 0.000000 0.007607 0.000000
# 3 -0.002051 0.000044 0.004802 0.000000 -0.001023 0.000000
# 4 0.000000 0.000000 0.000000 0.118940 0.000000 0.028243
# 5 -0.040664 0.007607 -0.001023 0.000000 0.080663 0.000000
# 6 0.000000 0.000000 0.000000 0.028243 0.000000 -0.021888
#
#
# Mechanical properties :
#
#
# Convention : Reuss Voigt Hill
#
# Bulk Modulus (GPa) = 34.41395 82.53921 58.47658
# Shear Modulus (GPa) = 19.50624 25.84107 22.67365
#
# Velocity S-wave (km/s) = 2.72703 3.13876 2.94011
# Velocity P-wave (km/s) = 4.79956 6.67859 5.81547
#
# Compressibility (1/GPa) = 0.02905798
#
# Stress axis : x y z
#
# Youngs Moduli (GPa) = 32.83614 72.79825 208.24457
#
# Poissons Ratio (x) = 0.57946 0.42714
# Poissons Ratio (y) = 0.26137 -0.00906
# Poissons Ratio (z) = 0.06735 -0.00317
#
# Static dielectric constant tensor:
#      x y z
#    x 1.643840 0.000000 -0.145710 
#    y 0.000000 1.933630 0.000000 
#    z -0.145710 0.000000 2.103270 
# 
# From -- ./inp_files/41628.got.cif
#   From: 2010.05.17/outbox.cif.g08.bks.cpg/sg15_21_cif.got.tgz:41628.got - 2010.06.03 18:47:42.
