data_PCOD9269115
_publ_section_title
;
Structure prediction by ZEFSAII (Michael W. Deem and Ramdas Pophale) SiO2 
 PCOD9269115
Probable space group: C 2/C
;
_chemical_formula_sum "Si O2"
_cell_formula_units_Z 56
_cell_length_a 21.427412
_cell_length_b 8.469655
_cell_length_c 16.830295
_cell_angle_alpha 90.000000
_cell_angle_beta 132.586988
_cell_angle_gamma 90.000000
_cell_volume 2248.810920
_symmetry_space_group_name_H-M "C 2/C"
_symmetry_group_IT_number 15
_symmetry_cell_setting 'monoclinic'
loop_
_space_group_symop_operation_xyz
x,y,z
-x,y,1/2-z
-x,-y,-z
x,-y,1/2+z
1/2+x,1/2+y,z
1/2-x,1/2+y,1/2-z
1/2-x,1/2-y,-z
1/2+x,1/2-y,1/2+z
loop_
_atom_site_type_symbol
_atom_site_label
_atom_site_fract_x
_atom_site_fract_y
_atom_site_fract_z
Si Si1 0.775001 0.715267 0.333744
Si Si2 0.513795 0.816180 0.023789
Si Si3 0.915741 0.807466 0.764683
Si Si4 0.166544 0.159261 0.459701
Si Si5 0.696703 0.153699 0.617491
Si Si6 0.363757 0.709551 0.588544
Si Si7 0.554666 0.320197 0.186349
O O1 0.678917 0.731563 0.284930
O O2 0.833063 0.810345 0.445994
O O3 0.766888 0.771766 0.236033
O O4 0.799713 0.532609 0.363485
O O5 0.519314 0.780515 0.121660
O O6 0.607647 0.777057 0.071944
O O7 0.449257 0.730416 0.908703
O O8 0.500000 0.000000 0.000000
O O9 0.907859 0.781138 0.663393
O O10 0.931157 0.992899 0.793333
O O11 0.250000 0.250000 0.500000
O O12 0.166251 0.971750 0.445280
O O13 0.693805 0.188543 0.520894
O O14 0.379233 0.756033 0.693875
O O15 0.460187 0.714877 0.637821
#
# Coordination Sequence:
#
# PCOD9269115 Si02
#       7
#     8   8   8   8   8   8   8
#     4  10  20  34  51  74 103 133 168 209 253 305
#     4  10  21  34  50  75 104 130 165 215 257 294
#     4   9  19  35  52  72  99 133 168 204 250 304
#     4   9  18  34  53  75 103 132 165 208 251 297
#     4  10  21  35  52  75 103 135 170 209 256 308
#     4   9  18  34  54  75 101 134 170 210 252 302
#     4   9  18  34  54  74  99 133 172 207 249 306
#
# _framework density 24.902049000000002
#
# number of rings (size 3 to 8) (size 9 to 14) (size 15 to 20)
#    0.000    2.571    0.000    1.286    0.000    3.429 
#    0.000    6.429    0.000    0.000    0.000    0.000 
#    0.000    0.000    0.000    0.000    0.000    0.000 
#
# Total GULP energy -156508.598091 kJ/mol
# GULP energy per Si atom -5589.592789 kJ/mol
# Density = 2.484537 g / cm^3
# Si number density = 24.902049 Si / 1000 Ang^3
#
#
#
# Elastic Constant Matrix: (Units=GPa)
#
#
# Indices 1 2 3 4 5 6 
#
# 1 92.2024 -8.0375 64.4048 0.0000 -19.8787 0.0000
# 2 -8.0375 59.5088 85.8575 0.0000 -25.9754 0.0000
# 3 64.4048 85.8575 321.5279 0.0000 -41.4172 0.0000
# 4 0.0000 0.0000 0.0000 52.4631 0.0000 -3.3752
# 5 -19.8787 -25.9754 -41.4172 0.0000 60.6476 0.0000
# 6 0.0000 0.0000 0.0000 -3.3752 0.0000 23.8687
#
#
#
# Elastic Compliance Matrix: (Units=1/GPa)
#
#
# Indices 1 2 3 4 5 6 
#
# 1 0.019166 0.016693 -0.007200 0.000000 0.008515 0.000000
# 2 0.016693 0.045251 -0.013405 0.000000 0.015698 0.000000
# 3 -0.007200 -0.013405 0.007772 0.000000 -0.002794 0.000000
# 4 0.000000 0.000000 0.000000 0.019236 0.000000 0.002720
# 5 0.008515 0.015698 -0.002794 0.000000 0.024095 0.000000
# 6 0.000000 0.000000 0.000000 0.002720 0.000000 0.042281
#
#
# Mechanical properties :
#
#
# Convention : Reuss Voigt Hill
#
# Bulk Modulus (GPa) = 15.53634 84.18766 49.86200
# Shear Modulus (GPa) = 26.72652 49.46350 38.09501
#
# Velocity S-wave (km/s) = 3.27963 4.46165 3.91550
# Velocity P-wave (km/s) = 4.53804 7.77320 6.36461
#
# Compressibility (1/GPa) = 0.06436524
#
# Stress axis : x y z
#
# Youngs Moduli (GPa) = 52.17645 22.09874 128.66698
#
# Poissons Ratio (x) = -0.36889 0.92637
# Poissons Ratio (y) = -0.87097 1.72479
# Poissons Ratio (z) = 0.37566 0.29623
#
# Static dielectric constant tensor:
#      x y z
#    x 2.076760 0.000000 -0.012710 
#    y 0.000000 1.854330 0.000000 
#    z -0.012710 0.000000 1.998100 
# 
# From -- ./inp_files/222083.got.cif
#   From: 2010.05.17/outbox.cif.g08.bks.cpg/sg15_112_cif.got.tgz:222083.got - 2010.06.03 18:47:42.
