data_PCOD9269748
_publ_section_title
;
Structure prediction by ZEFSAII (Michael W. Deem and Ramdas Pophale) SiO2 
 PCOD9269748
Probable space group: C 2/C
;
_chemical_formula_sum "Si O2"
_cell_formula_units_Z 52
_cell_length_a 5.092517
_cell_length_b 23.990917
_cell_length_c 25.961326
_cell_angle_alpha 90.000000
_cell_angle_beta 124.051318
_cell_angle_gamma 90.000000
_cell_volume 2627.954209
_symmetry_space_group_name_H-M "C 2/C"
_symmetry_group_IT_number 15
_symmetry_cell_setting 'monoclinic'
loop_
_space_group_symop_operation_xyz
x,y,z
-x,y,1/2-z
-x,-y,-z
x,-y,1/2+z
1/2+x,1/2+y,z
1/2-x,1/2+y,1/2-z
1/2-x,1/2-y,-z
1/2+x,1/2-y,1/2+z
loop_
_atom_site_type_symbol
_atom_site_label
_atom_site_fract_x
_atom_site_fract_y
_atom_site_fract_z
Si Si1 0.460161 0.061601 0.970578
Si Si2 0.380859 0.171947 0.794688
Si Si3 0.500000 0.872907 0.750000
Si Si4 0.217782 0.429595 0.385635
Si Si5 0.342317 0.948680 0.651889
Si Si6 0.042222 0.796590 0.817027
Si Si7 0.661878 0.105274 0.096066
O O1 0.655740 0.063333 0.939541
O O2 0.093829 0.074091 0.918206
O O3 0.573428 0.104889 0.026583
O O4 0.500000 0.000000 0.000000
O O5 0.500000 0.162027 0.750000
O O6 0.517672 0.122818 0.844363
O O7 0.520869 0.231902 0.827320
O O8 0.000000 0.175280 0.750000
O O9 0.593659 0.915495 0.715016
O O10 0.736227 0.830059 0.802783
O O11 0.115191 0.485557 0.344272
O O12 0.401138 0.927850 0.600436
O O13 0.995042 0.929746 0.634158
O O14 0.000000 0.801333 0.750000
O O15 0.308148 0.834500 0.872951
#
# Coordination Sequence:
#
# PCOD9269748 Si02
#       7
#     8   8   4   8   8   8   8
#     4  12  22  41  62  89 128 165 206 246 307 370
#     4  11  25  44  65  88 124 168 203 248 307 376
#     4  10  20  34  60  88 122 148 202 254 310 352
#     4  12  24  41  61  92 127 166 203 247 306 375
#     4  11  21  35  57  92 124 151 195 252 310 356
#     4  10  20  40  62  87 118 159 205 255 306 359
#     4  11  22  36  63  92 117 158 204 254 300 357
#
# _framework density 19.787255999999999
#
# number of rings (size 3 to 8) (size 9 to 14) (size 15 to 20)
#    0.000    0.923    5.385    2.308    1.077    0.000 
#    2.769    1.538    0.000    0.000    0.000    0.000 
#    0.000    0.000    0.000    0.000    0.000    0.000 
#
# Total GULP energy -145010.956300 kJ/mol
# GULP energy per Si atom -5577.344473 kJ/mol
# Density = 1.974222 g / cm^3
# Si number density = 19.787256 Si / 1000 Ang^3
#
#
#
# Elastic Constant Matrix: (Units=GPa)
#
#
# Indices 1 2 3 4 5 6 
#
# 1 65.2190 0.2780 -2.3405 0.0000 -9.2842 0.0000
# 2 0.2780 158.4560 48.7227 0.0000 2.0246 0.0000
# 3 -2.3405 48.7227 48.2193 0.0000 -8.8087 0.0000
# 4 0.0000 0.0000 0.0000 26.1423 0.0000 0.0364
# 5 -9.2842 2.0246 -8.8087 0.0000 30.1177 0.0000
# 6 0.0000 0.0000 0.0000 0.0364 0.0000 19.1096
#
#
#
# Elastic Compliance Matrix: (Units=1/GPa)
#
#
# Indices 1 2 3 4 5 6 
#
# 1 0.016284 -0.000987 0.002870 0.000000 0.005925 0.000000
# 2 -0.000987 0.009580 -0.010460 0.000000 -0.004008 0.000000
# 3 0.002870 -0.010460 0.033529 0.000000 0.011394 0.000000
# 4 0.000000 0.000000 0.000000 0.038252 0.000000 -0.000073
# 5 0.005925 -0.004008 0.011394 0.000000 0.038632 0.000000
# 6 0.000000 0.000000 0.000000 -0.000073 0.000000 0.052330
#
#
# Mechanical properties :
#
#
# Convention : Reuss Voigt Hill
#
# Bulk Modulus (GPa) = 23.67508 40.57940 32.12724
# Shear Modulus (GPa) = 22.74384 30.08953 26.41668
#
# Velocity S-wave (km/s) = 3.39399 3.90378 3.65778
# Velocity P-wave (km/s) = 5.22969 6.39310 5.84044
#
# Compressibility (1/GPa) = 0.04223850
#
# Stress axis : x y z
#
# Youngs Moduli (GPa) = 61.41134 104.38224 29.82514
#
# Poissons Ratio (x) = 0.10300 -0.08559
# Poissons Ratio (y) = 0.06060 0.31198
# Poissons Ratio (z) = -0.17624 1.09186
#
# Static dielectric constant tensor:
#      x y z
#    x 1.762440 0.000000 0.031250 
#    y 0.000000 1.685040 0.000000 
#    z 0.031250 0.000000 1.737080 
# 
# From -- ./inp_files/261322.got.cif
#   From: 2010.05.17/outbox.cif.g08.bks.cpg/sg15_131_cif.got.tgz:261322.got - 2010.06.03 18:47:42.
