data_PCOD9269795
_publ_section_title
;
Structure prediction by ZEFSAII (Michael W. Deem and Ramdas Pophale) SiO2 
 PCOD9269795
Probable space group: C 2/C
;
_chemical_formula_sum "Si O2"
_cell_formula_units_Z 56
_cell_length_a 11.899370
_cell_length_b 18.785743
_cell_length_c 18.330917
_cell_angle_alpha 90.000000
_cell_angle_beta 129.114920
_cell_angle_gamma 90.000000
_cell_volume 3179.305764
_symmetry_space_group_name_H-M "C 2/C"
_symmetry_group_IT_number 15
_symmetry_cell_setting 'monoclinic'
loop_
_space_group_symop_operation_xyz
x,y,z
-x,y,1/2-z
-x,-y,-z
x,-y,1/2+z
1/2+x,1/2+y,z
1/2-x,1/2+y,1/2-z
1/2-x,1/2-y,-z
1/2+x,1/2-y,1/2+z
loop_
_atom_site_type_symbol
_atom_site_label
_atom_site_fract_x
_atom_site_fract_y
_atom_site_fract_z
Si Si1 0.849508 0.536288 0.532894
Si Si2 0.670763 0.225989 0.745148
Si Si3 0.158920 0.693994 0.912864
Si Si4 0.880298 0.115280 0.761869
Si Si5 0.096082 0.887876 0.715330
Si Si6 0.660568 0.992981 0.640325
Si Si7 0.955199 0.005963 0.564732
O O1 0.812102 0.612676 0.552309
O O2 0.859043 0.538511 0.448827
O O3 0.717085 0.484777 0.498427
O O4 0.009392 0.508573 0.618346
O O5 0.685201 0.211227 0.838110
O O6 0.515409 0.199059 0.652042
O O7 0.801578 0.184533 0.760927
O O8 0.654557 0.309662 0.724321
O O9 0.250000 0.750000 0.000000
O O10 0.754838 0.065125 0.676324
O O11 0.000000 0.130609 0.750000
O O12 0.958084 0.067255 0.856213
O O13 0.000000 0.885101 0.750000
O O14 0.236347 0.937099 0.778659
O O15 0.994694 0.930136 0.617891
O O16 0.000000 0.000000 0.500000
#
# Coordination Sequence:
#
# PCOD9269795 Si02
#       7
#     8   8   8   8   8   8   8
#     4  11  19  34  57  90 116 146 200 248 301 348
#     4  11  23  38  60  91 120 160 204 251 312 368
#     4  11  21  35  60  91 125 149 194 265 315 352
#     4  11  21  42  58  82 124 168 200 240 304 381
#     4  11  19  40  61  84 117 155 204 243 308 360
#     4  10  20  34  61  85 111 154 203 244 292 363
#     4  11  22  37  62  90 120 154 201 254 305 360
#
# _framework density 17.613907999999999
#
# number of rings (size 3 to 8) (size 9 to 14) (size 15 to 20)
#    0.000    1.143    5.714    3.429    0.000    0.000 
#    0.000    1.429    0.000    2.571    0.000    0.000 
#    0.000    0.000    0.000    0.000    0.000    0.000 
#
# Total GULP energy -156128.673273 kJ/mol
# GULP energy per Si atom -5576.024045 kJ/mol
# Density = 1.757382 g / cm^3
# Si number density = 17.613908 Si / 1000 Ang^3
#
#
#
# Elastic Constant Matrix: (Units=GPa)
#
#
# Indices 1 2 3 4 5 6 
#
# 1 118.6831 55.1430 50.9351 0.0000 16.9632 0.0000
# 2 55.1430 97.7641 28.8162 0.0000 8.3292 0.0000
# 3 50.9351 28.8162 79.3514 0.0000 15.0321 0.0000
# 4 0.0000 0.0000 0.0000 13.8407 0.0000 2.7897
# 5 16.9632 8.3292 15.0321 0.0000 35.1878 0.0000
# 6 0.0000 0.0000 0.0000 2.7897 0.0000 25.9594
#
#
#
# Elastic Compliance Matrix: (Units=1/GPa)
#
#
# Indices 1 2 3 4 5 6 
#
# 1 0.014399 -0.005955 -0.006564 0.000000 -0.002728 0.000000
# 2 -0.005955 0.013951 -0.001264 0.000000 0.000109 0.000000
# 3 -0.006564 -0.001264 0.018082 0.000000 -0.004261 0.000000
# 4 0.000000 0.000000 0.000000 0.073851 0.000000 -0.007936
# 5 -0.002728 0.000109 -0.004261 0.000000 0.031529 0.000000
# 6 0.000000 0.000000 0.000000 -0.007936 0.000000 0.039375
#
#
# Mechanical properties :
#
#
# Convention : Reuss Voigt Hill
#
# Bulk Modulus (GPa) = 53.00460 62.84301 57.92380
# Shear Modulus (GPa) = 22.21827 25.72452 23.97140
#
# Velocity S-wave (km/s) = 3.55548 3.82575 3.69309
# Velocity P-wave (km/s) = 6.85661 7.43443 7.15135
#
# Compressibility (1/GPa) = 0.01886629
#
# Stress axis : x y z
#
# Youngs Moduli (GPa) = 69.44766 71.68006 55.30467
#
# Poissons Ratio (x) = 0.42684 0.36300
# Poissons Ratio (y) = 0.41354 0.06993
# Poissons Ratio (z) = 0.45582 0.09064
#
# Static dielectric constant tensor:
#      x y z
#    x 1.590090 0.000000 0.000630 
#    y 0.000000 1.616800 0.000000 
#    z 0.000630 0.000000 1.600240 
# 
# From -- ./inp_files/199581.got.cif
#   From: 2010.05.17/outbox.cif.g08.bks.cpg/sg15_100_cif.got.tgz:199581.got - 2010.06.03 18:47:42.
