data_PCOD9269151
_publ_section_title
;
Structure prediction by ZEFSAII (Michael W. Deem and Ramdas Pophale) SiO2 
 PCOD9269151
Probable space group: C 2/C
;
_chemical_formula_sum "Si O2"
_cell_formula_units_Z 60
_cell_length_a 29.999907
_cell_length_b 11.642952
_cell_length_c 7.771981
_cell_angle_alpha 90.000000
_cell_angle_beta 101.765716
_cell_angle_gamma 90.000000
_cell_volume 2657.619575
_symmetry_space_group_name_H-M "C 2/C"
_symmetry_group_IT_number 15
_symmetry_cell_setting 'monoclinic'
loop_
_space_group_symop_operation_xyz
x,y,z
-x,y,1/2-z
-x,-y,-z
x,-y,1/2+z
1/2+x,1/2+y,z
1/2-x,1/2+y,1/2-z
1/2-x,1/2-y,-z
1/2+x,1/2-y,1/2+z
loop_
_atom_site_type_symbol
_atom_site_label
_atom_site_fract_x
_atom_site_fract_y
_atom_site_fract_z
Si Si1 0.675802 0.702112 0.901013
Si Si2 0.438232 0.809926 0.376357
Si Si3 0.000000 0.961960 0.750000
Si Si4 0.080610 0.144631 0.826938
Si Si5 0.249490 0.343244 0.782510
Si Si6 0.707852 0.930170 0.427129
Si Si7 0.647236 0.914337 0.072528
Si Si8 0.034475 0.250357 0.477049
O O1 0.633599 0.619783 0.825560
O O2 0.717337 0.733623 0.805544
O O3 0.701128 0.665197 0.094869
O O4 0.651528 0.823869 0.921343
O O5 0.422864 0.703477 0.487337
O O6 0.403017 0.910159 0.392432
O O7 0.490978 0.832944 0.461285
O O8 0.437689 0.780230 0.173252
O O9 0.989873 0.872583 0.587047
O O10 0.954656 0.039561 0.718403
O O11 0.062665 0.235030 0.670681
O O12 0.243855 0.367948 0.577048
O O13 0.229761 0.453936 0.869413
O O14 0.683189 0.873613 0.246560
O O15 0.666238 0.966086 0.519776
#
# Coordination Sequence:
#
# PCOD9269151 Si02
#       8
#     8   8   4   8   8   8   8   8
#     4   9  20  34  54  77 109 135 182 218 267 314
#     4   9  19  33  52  79 106 130 190 217 255 320
#     4  10  20  34  52  76 116 140 190 212 262 322
#     4  11  19  34  53  78 107 151 176 223 266 311
#     4   9  18  37  52  78 106 138 175 225 262 324
#     4   9  18  33  59  75 102 139 171 214 283 310
#     4   9  18  34  55  82  99 136 176 220 258 336
#     4  10  21  33  54  77 106 158 174 222 265 318
#
# _framework density 22.576595999999999
#
# number of rings (size 3 to 8) (size 9 to 14) (size 15 to 20)
#    0.000    2.667    1.333    0.400    3.733    0.533 
#    2.400    0.000    0.000    3.200    0.000    0.000 
#    0.000    0.000    0.000    0.000    0.000    0.000 
#
# Total GULP energy -167196.755200 kJ/mol
# GULP energy per Si atom -5573.225173 kJ/mol
# Density = 2.252521 g / cm^3
# Si number density = 22.576596 Si / 1000 Ang^3
#
#
#
# Elastic Constant Matrix: (Units=GPa)
#
#
# Indices 1 2 3 4 5 6 
#
# 1 80.1420 12.1788 8.7835 0.0000 22.8541 0.0000
# 2 12.1788 24.5682 8.9943 0.0000 5.5921 0.0000
# 3 8.7835 8.9943 61.8332 0.0000 9.4861 0.0000
# 4 0.0000 0.0000 0.0000 14.3023 0.0000 7.5776
# 5 22.8541 5.5921 9.4861 0.0000 35.6923 0.0000
# 6 0.0000 0.0000 0.0000 7.5776 0.0000 16.5932
#
#
#
# Elastic Compliance Matrix: (Units=1/GPa)
#
#
# Indices 1 2 3 4 5 6 
#
# 1 0.016029 -0.005818 0.000004 0.000000 -0.009353 0.000000
# 2 -0.005818 0.046084 -0.005568 0.000000 -0.002015 0.000000
# 3 0.000004 -0.005568 0.017565 0.000000 -0.003799 0.000000
# 4 0.000000 0.000000 0.000000 0.092235 0.000000 -0.042121
# 5 -0.009353 -0.002015 -0.003799 0.000000 0.035331 0.000000
# 6 0.000000 0.000000 0.000000 -0.042121 0.000000 0.079501
#
#
# Mechanical properties :
#
#
# Convention : Reuss Voigt Hill
#
# Bulk Modulus (GPa) = 17.57045 25.16186 21.36616
# Shear Modulus (GPa) = 15.22165 22.42335 18.82250
#
# Velocity S-wave (km/s) = 2.59940 3.15495 2.89055
# Velocity P-wave (km/s) = 4.09983 4.94377 4.54145
#
# Compressibility (1/GPa) = 0.05691373
#
# Stress axis : x y z
#
# Youngs Moduli (GPa) = 62.38795 21.69938 56.93268
#
# Poissons Ratio (x) = 0.12626 -0.00025
# Poissons Ratio (y) = 0.36300 0.31699
# Poissons Ratio (z) = -0.00027 0.12082
#
# Static dielectric constant tensor:
#      x y z
#    x 1.908340 0.000000 -0.023870 
#    y 0.000000 1.890840 0.000000 
#    z -0.023870 0.000000 1.852660 
# 
# From -- ./inp_files/69763.got.cif
#   From: 2010.05.17/outbox.cif.g08.bks.cpg/sg15_35_cif.got.tgz:69763.got - 2010.06.03 18:47:42.
