data_PCOD9269245
_publ_section_title
;
Structure prediction by ZEFSAII (Michael W. Deem and Ramdas Pophale) SiO2 
 PCOD9269245
Probable space group: C 2/C
;
_chemical_formula_sum "Si O2"
_cell_formula_units_Z 40
_cell_length_a 20.872514
_cell_length_b 13.419757
_cell_length_c 17.821780
_cell_angle_alpha 90.000000
_cell_angle_beta 157.816907
_cell_angle_gamma 90.000000
_cell_volume 1884.799538
_symmetry_space_group_name_H-M "C 2/C"
_symmetry_group_IT_number 15
_symmetry_cell_setting 'monoclinic'
loop_
_space_group_symop_operation_xyz
x,y,z
-x,y,1/2-z
-x,-y,-z
x,-y,1/2+z
1/2+x,1/2+y,z
1/2-x,1/2+y,1/2-z
1/2-x,1/2-y,-z
1/2+x,1/2-y,1/2+z
loop_
_atom_site_type_symbol
_atom_site_label
_atom_site_fract_x
_atom_site_fract_y
_atom_site_fract_z
Si Si1 0.500000 0.987040 0.250000
Si Si2 0.500000 0.334356 0.250000
Si Si3 0.335451 0.463481 0.867559
Si Si4 0.041404 0.222647 0.630095
Si Si5 0.173577 0.970217 0.972573
Si Si6 0.624592 0.909383 0.036505
O O1 0.568250 0.049754 0.394903
O O2 0.659878 0.929440 0.387092
O O3 0.469863 0.274118 0.291811
O O4 0.345150 0.412445 0.071408
O O5 0.179732 0.498351 0.647709
O O6 0.500000 0.500000 0.000000
O O7 0.386244 0.348818 0.936440
O O8 0.325230 0.521750 0.936266
O O9 0.015207 0.336633 0.578382
O O10 0.211415 0.162868 0.794714
O O11 0.000000 0.925565 0.750000
#
# Coordination Sequence:
#
# PCOD9269245 Si02
#       6
#     4   4   8   8   8   8
#     4  12  21  34  56  86 117 148 183 222 290 348
#     4   8  15  32  50  74 109 146 165 220 276 330
#     4   9  19  39  55  78 117 152 187 227 280 334
#     4  10  20  34  54  78 116 144 186 227 276 339
#     4   9  18  34  57  81 111 146 184 226 276 338
#     4  11  23  34  54  84 110 153 182 228 281 330
#
# _framework density 21.222417
#
# number of rings (size 3 to 8) (size 9 to 14) (size 15 to 20)
#    0.600    1.600    2.000    1.800    5.600    2.400 
#    0.000    0.000    0.000    0.000    2.600    4.200 
#    0.000    0.000    0.000    0.000    0.000    0.000 
#
# Total GULP energy -111485.976115 kJ/mol
# GULP energy per Si atom -5574.298806 kJ/mol
# Density = 2.117411 g / cm^3
# Si number density = 21.222417 Si / 1000 Ang^3
#
#
#
# Elastic Constant Matrix: (Units=GPa)
#
#
# Indices 1 2 3 4 5 6 
#
# 1 111.3536 24.2806 55.3651 0.0004 -1.7942 0.0003
# 2 24.2806 37.2431 21.3854 0.0016 -17.9283 0.0009
# 3 55.3651 21.3854 120.8953 0.0005 -4.3232 0.0003
# 4 0.0004 0.0016 0.0005 16.2612 0.0001 7.8928
# 5 -1.7942 -17.9283 -4.3232 0.0001 53.4865 0.0000
# 6 0.0003 0.0009 0.0003 7.8928 0.0000 14.8412
#
#
#
# Elastic Compliance Matrix: (Units=1/GPa)
#
#
# Indices 1 2 3 4 5 6 
#
# 1 0.012751 -0.006640 -0.004743 0.000001 -0.002181 0.000000
# 2 -0.006640 0.039253 -0.003450 -0.000004 0.012656 0.000000
# 3 -0.004743 -0.003450 0.011039 0.000000 -0.000423 0.000000
# 4 0.000001 -0.000004 0.000000 0.082893 -0.000001 -0.044084
# 5 -0.002181 0.012656 -0.000423 -0.000001 0.022831 0.000000
# 6 0.000000 0.000000 0.000000 -0.044084 0.000000 0.090824
#
#
# Mechanical properties :
#
#
# Convention : Reuss Voigt Hill
#
# Bulk Modulus (GPa) = 29.96069 52.39491 41.17780
# Shear Modulus (GPa) = 16.64541 28.14850 22.39696
#
# Velocity S-wave (km/s) = 2.80363 3.64587 3.25213
# Velocity P-wave (km/s) = 4.96272 6.51653 5.79197
#
# Compressibility (1/GPa) = 0.03337707
#
# Stress axis : x y z
#
# Youngs Moduli (GPa) = 78.42338 25.47589 90.58851
#
# Poissons Ratio (x) = 0.16915 0.42967
# Poissons Ratio (y) = 0.52071 0.31255
# Poissons Ratio (z) = 0.37197 0.08790
#
# Static dielectric constant tensor:
#      x y z
#    x 1.784450 0.000000 0.086560 
#    y 0.000000 1.736350 0.000000 
#    z 0.086560 0.000000 1.924200 
# 
# From -- ./inp_files/46694.got.cif
#   From: 2010.05.17/outbox.cif.g08.bks.cpg/sg15_24_cif.got.tgz:46694.got - 2010.06.03 18:47:42.
