data_PCOD9269845
_publ_section_title
;
Structure prediction by ZEFSAII (Michael W. Deem and Ramdas Pophale) SiO2 
 PCOD9269845
Probable space group: C 2/C
;
_chemical_formula_sum "Si O2"
_cell_formula_units_Z 44
_cell_length_a 19.502643
_cell_length_b 5.153776
_cell_length_c 17.465895
_cell_angle_alpha 90.000000
_cell_angle_beta 103.156244
_cell_angle_gamma 90.000000
_cell_volume 1709.458912
_symmetry_space_group_name_H-M "C 2/C"
_symmetry_group_IT_number 15
_symmetry_cell_setting 'monoclinic'
loop_
_space_group_symop_operation_xyz
x,y,z
-x,y,1/2-z
-x,-y,-z
x,-y,1/2+z
1/2+x,1/2+y,z
1/2-x,1/2+y,1/2-z
1/2-x,1/2-y,-z
1/2+x,1/2-y,1/2+z
loop_
_atom_site_type_symbol
_atom_site_label
_atom_site_fract_x
_atom_site_fract_y
_atom_site_fract_z
Si Si1 0.126814 0.150115 0.298490
Si Si2 0.597113 0.691952 0.646806
Si Si3 0.822083 0.523184 0.080794
Si Si4 0.842286 0.989846 0.484147
Si Si5 0.265182 0.013985 0.304039
Si Si6 0.000000 0.167211 0.750000
O O1 0.119250 0.044219 0.209598
O O2 0.137840 0.443973 0.329991
O O3 0.199728 0.013146 0.345355
O O4 0.054963 0.022386 0.308426
O O5 0.597568 0.556869 0.564230
O O6 0.657698 0.909585 0.650175
O O7 0.536965 0.811075 0.687391
O O8 0.736955 0.535564 0.071964
O O9 0.836230 0.272832 0.030917
O O10 0.851937 0.759977 0.039442
O O11 0.243518 0.261354 0.247622
#
# Coordination Sequence:
#
# PCOD9269845 Si02
#       6
#     8   8   8   8   8   4
#     4   9  19  39  64  93 129 170 214 271 315 388
#     4   9  19  39  64  93 129 170 214 271 315 388
#     4  10  21  38  61  93 127 163 211 268 321 378
#     4  10  21  38  61  93 127 163 211 268 321 378
#     4  10  20  34  62  92 120 160 214 264 316 366
#     4   8  20  40  66  92 142 158 228 260 338 364
#
# _framework density 25.739141
#
# number of rings (size 3 to 8) (size 9 to 14) (size 15 to 20)
#    1.091    1.455    1.818    0.000    0.000    5.818 
#    3.273    2.727    0.000    0.000    0.000    0.000 
#    0.000    0.000    0.000    0.000    0.000    0.000 
#
# Total GULP energy -122585.682412 kJ/mol
# GULP energy per Si atom -5572.076473 kJ/mol
# Density = 2.568056 g / cm^3
# Si number density = 25.739141 Si / 1000 Ang^3
#
#
#
# Elastic Constant Matrix: (Units=GPa)
#
#
# Indices 1 2 3 4 5 6 
#
# 1 109.7606 -1.4477 17.2925 0.0000 -21.0790 0.0000
# 2 -1.4477 100.0245 29.3765 0.0000 4.6132 0.0000
# 3 17.2925 29.3765 97.3411 0.0000 -32.8474 0.0000
# 4 0.0000 0.0000 0.0000 45.2704 0.0000 9.1004
# 5 -21.0790 4.6132 -32.8474 0.0000 43.9839 0.0000
# 6 0.0000 0.0000 0.0000 9.1004 0.0000 23.9471
#
#
#
# Elastic Compliance Matrix: (Units=1/GPa)
#
#
# Indices 1 2 3 4 5 6 
#
# 1 0.010038 -0.000008 -0.000210 0.000000 0.004654 0.000000
# 2 -0.000008 0.011800 -0.005319 0.000000 -0.005214 0.000000
# 3 -0.000210 -0.005319 0.016137 0.000000 0.012508 0.000000
# 4 0.000000 0.000000 0.000000 0.023917 0.000000 -0.009089
# 5 0.004654 -0.005214 0.012508 0.000000 0.034854 0.000000
# 6 0.000000 0.000000 0.000000 -0.009089 0.000000 0.045213
#
#
# Mechanical properties :
#
#
# Convention : Reuss Voigt Hill
#
# Bulk Modulus (GPa) = 37.17458 44.17430 40.67444
# Shear Modulus (GPa) = 30.86460 40.10062 35.48261
#
# Velocity S-wave (km/s) = 3.46660 3.95139 3.71691
# Velocity P-wave (km/s) = 5.52244 6.16583 5.85298
#
# Compressibility (1/GPa) = 0.02690010
#
# Stress axis : x y z
#
# Youngs Moduli (GPa) = 99.62554 84.74515 61.97123
#
# Poissons Ratio (x) = 0.00064 0.01303
# Poissons Ratio (y) = 0.00076 0.32963
# Poissons Ratio (z) = 0.02095 0.45077
#
# Static dielectric constant tensor:
#      x y z
#    x 2.325600 0.000000 -0.060070 
#    y 0.000000 2.148280 0.000000 
#    z -0.060070 0.000000 2.156360 
# 
# From -- ./inp_files/250633.got.cif
#   From: 2010.05.17/outbox.cif.g08.bks.cpg/sg15_126_cif.got.tgz:250633.got - 2010.06.03 18:47:42.
