data_PCOD9269790
_publ_section_title
;
Structure prediction by ZEFSAII (Michael W. Deem and Ramdas Pophale) SiO2 
 PCOD9269790
Probable space group: C 2/C
;
_chemical_formula_sum "Si O2"
_cell_formula_units_Z 48
_cell_length_a 7.190417
_cell_length_b 11.486470
_cell_length_c 23.722326
_cell_angle_alpha 90.000000
_cell_angle_beta 82.909045
_cell_angle_gamma 90.000000
_cell_volume 1944.300703
_symmetry_space_group_name_H-M "C 2/C"
_symmetry_group_IT_number 15
_symmetry_cell_setting 'monoclinic'
loop_
_space_group_symop_operation_xyz
x,y,z
-x,y,1/2-z
-x,-y,-z
x,-y,1/2+z
1/2+x,1/2+y,z
1/2-x,1/2+y,1/2-z
1/2-x,1/2-y,-z
1/2+x,1/2-y,1/2+z
loop_
_atom_site_type_symbol
_atom_site_label
_atom_site_fract_x
_atom_site_fract_y
_atom_site_fract_z
Si Si1 0.500000 0.711004 0.250000
Si Si2 0.298955 0.699797 0.668418
Si Si3 0.750000 0.250000 0.000000
Si Si4 0.938118 0.954712 0.646885
Si Si5 0.548020 0.115828 0.106002
Si Si6 0.959029 0.868262 0.974550
Si Si7 0.087758 0.627502 0.563709
O O1 0.319668 0.789769 0.270093
O O2 0.516479 0.627985 0.303172
O O3 0.439462 0.590405 0.662684
O O4 0.398447 0.821427 0.651017
O O5 0.156937 0.673072 0.621769
O O6 0.890722 0.287913 0.940947
O O7 0.646876 0.391532 0.001417
O O8 0.726371 0.923401 0.635851
O O9 0.052103 0.923454 0.586116
O O10 0.494137 0.996646 0.075634
O O11 0.037175 0.730425 0.959247
O O12 0.773044 0.869704 0.017734
#
# Coordination Sequence:
#
# PCOD9269790 Si02
#       7
#     4   8   4   8   8   8   8
#     4  12  26  48  68  92 124 182 228 272 328 378
#     4  11  24  46  68  96 131 171 222 274 328 389
#     4  10  20  34  60  98 136 168 204 260 322 398
#     4  10  25  43  68  97 130 175 217 278 323 392
#     4  10  23  40  63 102 131 173 210 267 336 391
#     4  10  20  41  64 101 138 172 216 261 339 392
#     4  10  21  40  67  97 137 173 209 271 324 409
#
# _framework density 24.687539000000001
#
# number of rings (size 3 to 8) (size 9 to 14) (size 15 to 20)
#    0.000    1.667    3.333    0.000    2.333    7.333 
#    6.000    0.000    0.000    0.000    0.000    0.000 
#    0.000    0.000    0.000    0.000    0.000    0.000 
#
# Total GULP energy -133932.956928 kJ/mol
# GULP energy per Si atom -5580.539872 kJ/mol
# Density = 2.463135 g / cm^3
# Si number density = 24.687539 Si / 1000 Ang^3
#
#
#
# Elastic Constant Matrix: (Units=GPa)
#
#
# Indices 1 2 3 4 5 6 
#
# 1 53.3503 5.8606 12.9086 0.0000 -9.2455 0.0000
# 2 5.8606 128.4718 37.8318 0.0000 -15.4054 0.0000
# 3 12.9086 37.8318 117.8606 0.0000 -28.3152 0.0000
# 4 0.0000 0.0000 0.0000 34.6711 0.0000 -3.9779
# 5 -9.2455 -15.4054 -28.3152 0.0000 48.2363 0.0000
# 6 0.0000 0.0000 0.0000 -3.9779 0.0000 26.0746
#
#
#
# Elastic Compliance Matrix: (Units=1/GPa)
#
#
# Indices 1 2 3 4 5 6 
#
# 1 0.019600 -0.000133 -0.001411 0.000000 0.002886 0.000000
# 2 -0.000133 0.008669 -0.002455 0.000000 0.001302 0.000000
# 3 -0.001411 -0.002455 0.010680 0.000000 0.005215 0.000000
# 4 0.000000 0.000000 0.000000 0.029356 0.000000 0.004479
# 5 0.002886 0.001302 0.005215 0.000000 0.024761 0.000000
# 6 0.000000 0.000000 0.000000 0.004479 0.000000 0.039035
#
#
# Mechanical properties :
#
#
# Convention : Reuss Voigt Hill
#
# Bulk Modulus (GPa) = 32.30818 45.87607 39.09213
# Shear Modulus (GPa) = 33.24108 38.00184 35.62146
#
# Velocity S-wave (km/s) = 3.67341 3.92766 3.80266
# Velocity P-wave (km/s) = 5.57738 6.26033 5.92870
#
# Compressibility (1/GPa) = 0.03095191
#
# Stress axis : x y z
#
# Youngs Moduli (GPa) = 51.02005 115.35330 93.63255
#
# Poissons Ratio (x) = 0.01530 0.13209
# Poissons Ratio (y) = 0.00677 0.22990
# Poissons Ratio (z) = 0.07197 0.28323
#
# Static dielectric constant tensor:
#      x y z
#    x 2.195380 0.000000 0.021700 
#    y 0.000000 2.247080 0.000000 
#    z 0.021700 0.000000 1.951150 
# 
# From -- ./inp_files/263527.got.cif
#   From: 2010.05.17/outbox.cif.g08.bks.cpg/sg15_132_cif.got.tgz:263527.got - 2010.06.03 18:47:42.
