data_PCOD9269430
_publ_section_title
;
Structure prediction by ZEFSAII (Michael W. Deem and Ramdas Pophale) SiO2 
 PCOD9269430
Probable space group: C 2/C
;
_chemical_formula_sum "Si O2"
_cell_formula_units_Z 56
_cell_length_a 8.576638
_cell_length_b 26.866281
_cell_length_c 15.515041
_cell_angle_alpha 90.000000
_cell_angle_beta 120.534979
_cell_angle_gamma 90.000000
_cell_volume 3079.226691
_symmetry_space_group_name_H-M "C 2/C"
_symmetry_group_IT_number 15
_symmetry_cell_setting 'monoclinic'
loop_
_space_group_symop_operation_xyz
x,y,z
-x,y,1/2-z
-x,-y,-z
x,-y,1/2+z
1/2+x,1/2+y,z
1/2-x,1/2+y,1/2-z
1/2-x,1/2-y,-z
1/2+x,1/2-y,1/2+z
loop_
_atom_site_type_symbol
_atom_site_label
_atom_site_fract_x
_atom_site_fract_y
_atom_site_fract_z
Si Si1 0.187155 0.764464 0.339082
Si Si2 0.547442 0.983768 0.917529
Si Si3 0.293714 0.173258 0.703361
Si Si4 0.439243 0.304739 0.011590
Si Si5 0.122069 0.081420 0.042725
Si Si6 0.249740 0.057528 0.647682
Si Si7 0.674162 0.464289 0.738998
O O1 0.232935 0.805660 0.279452
O O2 0.354635 0.728461 0.411029
O O3 0.140072 0.788121 0.418304
O O4 0.000000 0.739737 0.250000
O O5 0.596538 0.029817 0.866585
O O6 0.723013 0.948840 0.963589
O O7 0.369393 0.955148 0.835422
O O8 0.500000 0.000000 0.000000
O O9 0.500000 0.189414 0.750000
O O10 0.287719 0.113094 0.692134
O O11 0.155184 0.194169 0.591592
O O12 0.376934 0.360851 0.978036
O O13 0.153330 0.071001 0.151404
O O14 0.925335 0.061182 0.962515
O O15 0.191508 0.020475 0.707428
O O16 0.500000 0.459705 0.750000
#
# Coordination Sequence:
#
# PCOD9269430 Si02
#       7
#     8   8   8   8   8   8   8
#     4   9  19  37  58  80 104 137 181 225 270 321
#     4  11  21  34  53  78 108 143 180 216 263 319
#     4  10  20  34  56  84 111 138 174 221 275 326
#     4   9  20  37  57  79 106 140 180 225 268 323
#     4  10  20  35  53  77 106 138 176 218 266 316
#     4  10  20  35  53  78 109 139 176 220 262 314
#     4  11  21  34  51  74 107 143 178 215 258 312
#
# _framework density 18.186385000000001
#
# number of rings (size 3 to 8) (size 9 to 14) (size 15 to 20)
#    0.000    2.000    0.000    6.000    0.000    6.857 
#    0.000    0.714    0.000    0.000    0.000    0.000 
#    0.000    0.000    0.000    0.000    0.000    0.000 
#
# Total GULP energy -156065.449352 kJ/mol
# GULP energy per Si atom -5573.766048 kJ/mol
# Density = 1.814499 g / cm^3
# Si number density = 18.186385 Si / 1000 Ang^3
#
#
#
# Elastic Constant Matrix: (Units=GPa)
#
#
# Indices 1 2 3 4 5 6 
#
# 1 98.5732 31.4170 50.5626 0.0000 4.6936 0.0000
# 2 31.4170 68.3767 39.6054 0.0000 13.3210 0.0000
# 3 50.5626 39.6054 116.9840 0.0000 17.6098 0.0000
# 4 0.0000 0.0000 0.0000 30.5069 0.0000 9.6448
# 5 4.6936 13.3210 17.6098 0.0000 32.6501 0.0000
# 6 0.0000 0.0000 0.0000 9.6448 0.0000 11.0119
#
#
#
# Elastic Compliance Matrix: (Units=1/GPa)
#
#
# Indices 1 2 3 4 5 6 
#
# 1 0.013851 -0.003912 -0.005010 0.000000 0.002307 0.000000
# 2 -0.003912 0.019915 -0.004259 0.000000 -0.005266 0.000000
# 3 -0.005010 -0.004259 0.012827 0.000000 -0.004460 0.000000
# 4 0.000000 0.000000 0.000000 0.045332 0.000000 -0.039704
# 5 0.002307 -0.005266 -0.004460 0.000000 0.034850 0.000000
# 6 0.000000 0.000000 0.000000 -0.039704 0.000000 0.125586
#
#
# Mechanical properties :
#
#
# Convention : Reuss Voigt Hill
#
# Bulk Modulus (GPa) = 49.42614 58.56710 53.99662
# Shear Modulus (GPa) = 17.51525 25.65705 21.58615
#
# Velocity S-wave (km/s) = 3.10675 3.76011 3.44894
# Velocity P-wave (km/s) = 6.33291 7.15018 6.75391
#
# Compressibility (1/GPa) = 0.02023221
#
# Stress axis : x y z
#
# Youngs Moduli (GPa) = 72.19490 50.21352 77.96242
#
# Poissons Ratio (x) = 0.19643 0.39057
# Poissons Ratio (y) = 0.28243 0.33202
# Poissons Ratio (z) = 0.36167 0.21385
#
# Static dielectric constant tensor:
#      x y z
#    x 1.575230 0.000000 0.004330 
#    y 0.000000 1.629390 0.000000 
#    z 0.004330 0.000000 1.622920 
# 
# From -- ./inp_files/138695.got.cif
#   From: 2010.05.17/outbox.cif.g08.bks.cpg/sg15_70_cif.got.tgz:138695.got - 2010.06.03 18:47:42.
