data_PCOD9269246
_publ_section_title
;
Structure prediction by ZEFSAII (Michael W. Deem and Ramdas Pophale) SiO2 
 PCOD9269246
Probable space group: C 2/C
;
_chemical_formula_sum "Si O2"
_cell_formula_units_Z 44
_cell_length_a 16.031814
_cell_length_b 27.981947
_cell_length_c 5.297645
_cell_angle_alpha 90.000000
_cell_angle_beta 64.251335
_cell_angle_gamma 90.000000
_cell_volume 2140.561166
_symmetry_space_group_name_H-M "C 2/C"
_symmetry_group_IT_number 15
_symmetry_cell_setting 'monoclinic'
loop_
_space_group_symop_operation_xyz
x,y,z
-x,y,1/2-z
-x,-y,-z
x,-y,1/2+z
1/2+x,1/2+y,z
1/2-x,1/2+y,1/2-z
1/2-x,1/2-y,-z
1/2+x,1/2-y,1/2+z
loop_
_atom_site_type_symbol
_atom_site_label
_atom_site_fract_x
_atom_site_fract_y
_atom_site_fract_z
Si Si1 0.395836 0.520463 0.152454
Si Si2 0.134295 0.871497 0.692040
Si Si3 0.321014 0.152072 0.733939
Si Si4 0.850260 0.819584 0.321677
Si Si5 0.408609 0.224163 0.998140
Si Si6 0.000000 0.352004 0.750000
O O1 0.350006 0.494048 0.449652
O O2 0.401363 0.576658 0.190023
O O3 0.500000 0.500000 0.000000
O O4 0.246062 0.875912 0.501074
O O5 0.101564 0.851191 0.464241
O O6 0.119346 0.834682 0.940850
O O7 0.500000 0.246362 0.750000
O O8 0.414379 0.125884 0.519719
O O9 0.347852 0.199424 0.859458
O O10 0.742329 0.832569 0.420649
O O11 0.863385 0.764960 0.226613
O O12 0.448061 0.181854 0.118765
#
# Coordination Sequence:
#
# PCOD9269246 Si02
#       6
#     8   8   8   8   8   4
#     4  10  21  41  63  85 115 154 185 238 298 362
#     4  10  22  38  56  87 109 149 201 243 291 351
#     4   9  21  35  58  78 118 152 210 242 291 347
#     4  10  22  37  57  82 121 156 200 250 282 344
#     4  10  21  36  50  83 118 167 200 243 295 333
#     4  10  20  34  54  78 116 156 202 238 294 342
#
# _framework density 20.555357000000001
#
# number of rings (size 3 to 8) (size 9 to 14) (size 15 to 20)
#    1.091    1.091    0.000    2.727    5.091    1.455 
#    9.818    0.000    0.000    0.000    0.000    1.273 
#    0.000    0.000    0.000    0.000    0.000    0.000 
#
# Total GULP energy -122637.589198 kJ/mol
# GULP energy per Si atom -5574.435873 kJ/mol
# Density = 2.050857 g / cm^3
# Si number density = 20.555357 Si / 1000 Ang^3
#
#
#
# Elastic Constant Matrix: (Units=GPa)
#
#
# Indices 1 2 3 4 5 6 
#
# 1 56.5663 7.7350 28.3782 0.0000 0.3225 0.0000
# 2 7.7350 52.1572 17.3060 0.0000 -11.4485 0.0000
# 3 28.3782 17.3060 108.2876 0.0000 12.4973 0.0000
# 4 0.0000 0.0000 0.0000 18.6644 0.0000 5.1384
# 5 0.3225 -11.4485 12.4973 0.0000 35.7379 0.0000
# 6 0.0000 0.0000 0.0000 5.1384 0.0000 8.1206
#
#
#
# Elastic Compliance Matrix: (Units=1/GPa)
#
#
# Indices 1 2 3 4 5 6 
#
# 1 0.020500 -0.000949 -0.005381 0.000000 0.001393 0.000000
# 2 -0.000949 0.022709 -0.004399 0.000000 0.008822 0.000000
# 3 -0.005381 -0.004399 0.011989 0.000000 -0.005553 0.000000
# 4 0.000000 0.000000 0.000000 0.064881 0.000000 -0.041054
# 5 0.001393 0.008822 -0.005553 0.000000 0.032737 0.000000
# 6 0.000000 0.000000 0.000000 -0.041054 0.000000 0.149121
#
#
# Mechanical properties :
#
#
# Convention : Reuss Voigt Hill
#
# Bulk Modulus (GPa) = 29.63834 35.98331 32.81082
# Shear Modulus (GPa) = 14.94136 23.41068 19.17602
#
# Velocity S-wave (km/s) = 2.69900 3.37843 3.05765
# Velocity P-wave (km/s) = 4.91558 5.72381 5.33502
#
# Compressibility (1/GPa) = 0.03374009
#
# Stress axis : x y z
#
# Youngs Moduli (GPa) = 48.78070 44.03462 83.41132
#
# Poissons Ratio (x) = 0.04178 0.44887
# Poissons Ratio (y) = 0.04629 0.36691
# Poissons Ratio (z) = 0.26251 0.19370
#
# Static dielectric constant tensor:
#      x y z
#    x 1.791010 0.000000 0.011210 
#    y 0.000000 1.681740 0.000000 
#    z 0.011210 0.000000 1.977420 
# 
# From -- ./inp_files/7632.got.cif
#   From: 2010.05.17/outbox.cif.g08.bks.cpg/sg15_4_cif.got.tgz:7632.got - 2010.06.03 18:47:42.
