data_PCOD9269360
_publ_section_title
;
Structure prediction by ZEFSAII (Michael W. Deem and Ramdas Pophale) SiO2 
 PCOD9269360
Probable space group: C 2/C
;
_chemical_formula_sum "Si O2"
_cell_formula_units_Z 64
_cell_length_a 17.767683
_cell_length_b 6.451566
_cell_length_c 23.519992
_cell_angle_alpha 90.000000
_cell_angle_beta 74.086530
_cell_angle_gamma 90.000000
_cell_volume 2592.759802
_symmetry_space_group_name_H-M "C 2/C"
_symmetry_group_IT_number 15
_symmetry_cell_setting 'monoclinic'
loop_
_space_group_symop_operation_xyz
x,y,z
-x,y,1/2-z
-x,-y,-z
x,-y,1/2+z
1/2+x,1/2+y,z
1/2-x,1/2+y,1/2-z
1/2-x,1/2-y,-z
1/2+x,1/2-y,1/2+z
loop_
_atom_site_type_symbol
_atom_site_label
_atom_site_fract_x
_atom_site_fract_y
_atom_site_fract_z
Si Si1 0.591628 0.982438 0.722034
Si Si2 0.701405 0.079768 0.845839
Si Si3 0.050545 0.937266 0.613945
Si Si4 0.307997 0.702224 0.716355
Si Si5 0.525110 0.299908 0.457271
Si Si6 0.820707 0.712291 0.401791
Si Si7 0.893713 0.445498 0.475309
Si Si8 0.408146 0.692647 0.194806
O O1 0.500000 0.949139 0.750000
O O2 0.611738 0.210406 0.740159
O O3 0.630374 0.834208 0.760581
O O4 0.631260 0.922958 0.654716
O O5 0.744721 0.151830 0.778186
O O6 0.740660 0.201598 0.890061
O O7 0.611651 0.145606 0.852528
O O8 0.713055 0.833612 0.835355
O O9 0.074607 0.734795 0.573105
O O10 0.999917 0.855713 0.676674
O O11 0.126165 0.081120 0.603245
O O12 0.984048 0.091473 0.601290
O O13 0.350074 0.491695 0.693118
O O14 0.500000 0.500000 0.500000
O O15 0.602296 0.184865 0.465946
O O16 0.456736 0.128143 0.471269
O O17 0.822612 0.568859 0.458499
#
# Coordination Sequence:
#
# PCOD9269360 Si02
#       8
#     8   8   8   8   8   8   8   8
#     4  10  21  33  48  76 105 138 178 228 281 325
#     4  10  21  35  51  71  99 147 194 226 267 332
#     4  10  20  34  55  87 112 140 183 235 286 332
#     4  10  20  36  52  66  97 143 191 225 267 323
#     4   8  16  32  56  85 115 143 173 222 290 349
#     4  10  21  34  53  79 108 140 189 230 279 339
#     4   9  17  33  57  84 114 140 175 228 286 349
#     4  11  22  35  53  74 109 150 191 234 276 324
#
# _framework density 24.684121000000001
#
# number of rings (size 3 to 8) (size 9 to 14) (size 15 to 20)
#    0.000    2.250    1.250    1.500    0.000    8.500 
#    0.000    0.000    0.000    0.750    0.000   30.625 
#    0.000    0.000    0.000    0.000    0.000    0.000 
#
# Total GULP energy -178306.574591 kJ/mol
# GULP energy per Si atom -5572.080456 kJ/mol
# Density = 2.462794 g / cm^3
# Si number density = 24.684121 Si / 1000 Ang^3
#
#
#
# Elastic Constant Matrix: (Units=GPa)
#
#
# Indices 1 2 3 4 5 6 
#
# 1 63.7158 18.0727 4.8515 -0.0001 21.0861 -0.0004
# 2 18.0727 127.3999 21.9463 -0.0002 14.5889 -0.0009
# 3 4.8515 21.9463 47.4612 0.0001 18.5098 0.0000
# 4 -0.0001 -0.0002 0.0001 31.0710 0.0002 17.3784
# 5 21.0861 14.5889 18.5098 0.0002 27.4665 -0.0001
# 6 -0.0004 -0.0009 0.0000 17.3784 -0.0001 22.7982
#
#
#
# Elastic Compliance Matrix: (Units=1/GPa)
#
#
# Indices 1 2 3 4 5 6 
#
# 1 0.022656 -0.001985 0.006747 0.000000 -0.020886 0.000000
# 2 -0.001985 0.008835 -0.003590 0.000000 -0.000750 0.000000
# 3 0.006747 -0.003590 0.031630 0.000000 -0.024588 0.000000
# 4 0.000000 0.000000 0.000000 0.056104 0.000000 -0.042767
# 5 -0.020886 -0.000750 -0.024588 0.000000 0.069410 0.000000
# 6 0.000000 0.000000 0.000000 -0.042767 0.000000 0.076463
#
#
# Mechanical properties :
#
#
# Convention : Reuss Voigt Hill
#
# Bulk Modulus (GPa) = 15.27516 36.47976 25.87746
# Shear Modulus (GPa) = 17.57007 29.18091 23.37549
#
# Velocity S-wave (km/s) = 2.67085 3.44201 3.08065
# Velocity P-wave (km/s) = 3.96395 5.53238 4.81249
#
# Compressibility (1/GPa) = 0.06546575
#
# Stress axis : x y z
#
# Youngs Moduli (GPa) = 44.13890 113.18449 31.61588
#
# Poissons Ratio (x) = 0.22461 -0.21332
# Poissons Ratio (y) = 0.08759 0.11350
# Poissons Ratio (z) = -0.29781 0.40634
#
# Static dielectric constant tensor:
#      x y z
#    x 2.035090 0.000000 0.025770 
#    y 0.000000 2.066680 0.000000 
#    z 0.025770 0.000000 2.006720 
# 
# From -- ./inp_files/299920.got.cif
#   From: 2010.05.17/outbox.cif.g08.bks.cpg/sg15_150_cif.got.tgz:299920.got - 2010.06.03 18:47:42.
