data_PCOD9269014
_publ_section_title
;
Structure prediction by ZEFSAII (Michael W. Deem and Ramdas Pophale) SiO2 
 PCOD9269014
Probable space group: C 2/C
;
_chemical_formula_sum "Si O2"
_cell_formula_units_Z 48
_cell_length_a 19.409292
_cell_length_b 7.428656
_cell_length_c 24.401902
_cell_angle_alpha 90.000000
_cell_angle_beta 33.505439
_cell_angle_gamma 90.000000
_cell_volume 1942.206477
_symmetry_space_group_name_H-M "C 2/C"
_symmetry_group_IT_number 15
_symmetry_cell_setting 'monoclinic'
loop_
_space_group_symop_operation_xyz
x,y,z
-x,y,1/2-z
-x,-y,-z
x,-y,1/2+z
1/2+x,1/2+y,z
1/2-x,1/2+y,1/2-z
1/2-x,1/2-y,-z
1/2+x,1/2-y,1/2+z
loop_
_atom_site_type_symbol
_atom_site_label
_atom_site_fract_x
_atom_site_fract_y
_atom_site_fract_z
Si Si1 0.532326 0.167184 0.549212
Si Si2 0.894092 0.760091 0.111312
Si Si3 0.111528 0.864344 0.212006
Si Si4 0.265241 0.949285 0.516306
Si Si5 0.284013 0.341967 0.675697
Si Si6 0.925819 0.938403 0.434252
O O1 0.598698 0.139860 0.447073
O O2 0.591941 0.041619 0.556773
O O3 0.389974 0.206331 0.627966
O O4 0.574295 0.365833 0.539591
O O5 0.816259 0.663254 0.209281
O O6 0.028815 0.805019 0.048366
O O7 0.837419 0.956735 0.135592
O O8 0.212642 0.728514 0.169494
O O9 0.000000 0.777996 0.250000
O O10 0.036681 0.940876 0.314696
O O11 0.178879 0.009316 0.127269
O O12 0.250000 0.750000 0.500000
O O13 0.205659 0.079317 0.509603
#
# Coordination Sequence:
#
# PCOD9269014 Si02
#       6
#     8   8   8   8   8   8
#     4  10  20  33  60  86 116 146 198 244 293 341
#     4  10  21  37  61  83 118 152 198 241 297 355
#     4   9  18  34  59  76 113 159 192 229 295 350
#     4   9  18  32  54  85 112 143 197 239 279 350
#     4  10  21  37  59  83 116 152 196 239 297 348
#     4   8  16  33  54  78 105 155 188 223 284 355
#
# _framework density 24.714161000000001
#
# number of rings (size 3 to 8) (size 9 to 14) (size 15 to 20)
#    0.000    2.667    0.000    2.000    7.000    0.667 
#    0.000    0.000   18.333   14.000    0.000    0.000 
#    0.000    0.000    0.000    0.000    0.000    0.000 
#
# Total GULP energy -134002.380188 kJ/mol
# GULP energy per Si atom -5583.432508 kJ/mol
# Density = 2.465791 g / cm^3
# Si number density = 24.714161 Si / 1000 Ang^3
#
#
#
# Elastic Constant Matrix: (Units=GPa)
#
#
# Indices 1 2 3 4 5 6 
#
# 1 193.3960 62.7968 30.2392 0.0023 -26.5936 -0.0049
# 2 62.7968 105.4270 18.8788 0.0025 -20.7469 -0.0040
# 3 30.2392 18.8788 43.4000 0.0023 -2.3356 -0.0058
# 4 0.0023 0.0025 0.0023 30.2930 -0.0004 -7.1073
# 5 -26.5936 -20.7469 -2.3356 -0.0004 50.1153 0.0017
# 6 -0.0049 -0.0040 -0.0058 -7.1073 0.0017 37.2712
#
#
#
# Elastic Compliance Matrix: (Units=1/GPa)
#
#
# Indices 1 2 3 4 5 6 
#
# 1 0.007035 -0.003130 -0.003417 0.000000 0.002278 0.000000
# 2 -0.003130 0.012575 -0.003106 0.000000 0.003400 0.000000
# 3 -0.003417 -0.003106 0.026674 -0.000001 -0.001856 0.000003
# 4 0.000000 0.000000 -0.000001 0.034557 0.000000 0.006590
# 5 0.002278 0.003400 -0.001856 0.000000 0.022484 -0.000001
# 6 0.000000 0.000000 0.000003 0.006590 -0.000001 0.028087
#
#
# Mechanical properties :
#
#
# Convention : Reuss Voigt Hill
#
# Bulk Modulus (GPa) = 37.06947 62.89473 49.98210
# Shear Modulus (GPa) = 31.30670 38.88977 35.09824
#
# Velocity S-wave (km/s) = 3.56301 3.97114 3.77260
# Velocity P-wave (km/s) = 5.65319 6.82135 6.26455
#
# Compressibility (1/GPa) = 0.02697638
#
# Stress axis : x y z
#
# Youngs Moduli (GPa) = 142.15455 79.52361 37.48994
#
# Poissons Ratio (x) = 0.24890 0.12812
# Poissons Ratio (y) = 0.44493 0.11645
# Poissons Ratio (z) = 0.48579 0.24702
#
# Static dielectric constant tensor:
#      x y z
#    x 1.995890 0.000000 -0.045760 
#    y 0.000000 1.918470 0.000000 
#    z -0.045760 0.000000 2.044100 
# 
# From -- ./inp_files/300462.got.cif
#   From: 2010.05.17/outbox.cif.g08.bks.cpg/sg15_151_cif.got.tgz:300462.got - 2010.06.03 18:47:42.
