data_PCOD9269645
_publ_section_title
;
Structure prediction by ZEFSAII (Michael W. Deem and Ramdas Pophale) SiO2 
 PCOD9269645
Probable space group: C 2/C
;
_chemical_formula_sum "Si O2"
_cell_formula_units_Z 44
_cell_length_a 16.408828
_cell_length_b 14.666741
_cell_length_c 7.749320
_cell_angle_alpha 90.000000
_cell_angle_beta 64.168263
_cell_angle_gamma 90.000000
_cell_volume 1678.628959
_symmetry_space_group_name_H-M "C 2/C"
_symmetry_group_IT_number 15
_symmetry_cell_setting 'monoclinic'
loop_
_space_group_symop_operation_xyz
x,y,z
-x,y,1/2-z
-x,-y,-z
x,-y,1/2+z
1/2+x,1/2+y,z
1/2-x,1/2+y,1/2-z
1/2-x,1/2-y,-z
1/2+x,1/2-y,1/2+z
loop_
_atom_site_type_symbol
_atom_site_label
_atom_site_fract_x
_atom_site_fract_y
_atom_site_fract_z
Si Si1 0.768618 0.191857 0.159214
Si Si2 0.758017 0.633424 0.826211
Si Si3 0.302304 0.518273 0.933296
Si Si4 0.530265 0.899540 0.417184
Si Si5 0.018760 0.204063 0.439348
Si Si6 0.500000 0.565946 0.750000
O O1 0.725395 0.262738 0.336995
O O2 0.874078 0.192778 0.118544
O O3 0.750000 0.250000 0.000000
O O4 0.751241 0.089116 0.110045
O O5 0.706631 0.568877 0.739342
O O6 0.862346 0.617290 0.678671
O O7 0.741014 0.581689 0.020614
O O8 0.409050 0.510972 0.871223
O O9 0.500000 0.894665 0.250000
O O10 0.489883 0.805702 0.531552
O O11 0.500000 0.000000 0.500000
O O12 0.978922 0.129535 0.604710
O O13 0.000000 0.195105 0.250000
#
# Coordination Sequence:
#
# PCOD9269645 Si02
#       6
#     8   8   8   8   8   4
#     4   8  17  37  64  86 125 168 205 258 323 383
#     4  10  20  39  61  88 131 161 208 268 313 391
#     4  10  21  40  63  91 126 168 215 260 325 384
#     4  10  20  34  58  92 123 164 209 261 331 393
#     4   9  19  37  61  89 126 164 220 268 315 390
#     4  10  22  42  64  92 124 174 222 262 328 376
#
# _framework density 26.211866000000001
#
# number of rings (size 3 to 8) (size 9 to 14) (size 15 to 20)
#    0.000    2.545    0.000    1.091    1.273    0.727 
#   16.364    0.909    0.000    0.000    0.000    0.000 
#    0.000    0.000    0.000    0.000    0.000    0.000 
#
# Total GULP energy -122879.822801 kJ/mol
# GULP energy per Si atom -5585.446491 kJ/mol
# Density = 2.615221 g / cm^3
# Si number density = 26.211866 Si / 1000 Ang^3
#
#
#
# Elastic Constant Matrix: (Units=GPa)
#
#
# Indices 1 2 3 4 5 6 
#
# 1 115.2173 19.0220 13.6998 0.0000 10.7398 0.0000
# 2 19.0220 156.2538 22.3795 0.0000 -17.2887 0.0000
# 3 13.6998 22.3795 74.8963 0.0000 16.4159 0.0000
# 4 0.0000 0.0000 0.0000 52.8657 0.0000 1.7770
# 5 10.7398 -17.2887 16.4159 0.0000 44.8654 0.0000
# 6 0.0000 0.0000 0.0000 1.7770 0.0000 33.1736
#
#
#
# Elastic Compliance Matrix: (Units=1/GPa)
#
#
# Indices 1 2 3 4 5 6 
#
# 1 0.009207 -0.001277 -0.000774 0.000000 -0.002413 0.000000
# 2 -0.001277 0.007443 -0.002920 0.000000 0.004242 0.000000
# 3 -0.000774 -0.002920 0.015842 0.000000 -0.006737 0.000000
# 4 0.000000 0.000000 0.000000 0.018950 0.000000 -0.001015
# 5 -0.002413 0.004242 -0.006737 0.000000 0.026966 0.000000
# 6 0.000000 0.000000 0.000000 -0.001015 0.000000 0.030199
#
#
# Mechanical properties :
#
#
# Convention : Reuss Voigt Hill
#
# Bulk Modulus (GPa) = 44.34476 50.72998 47.53737
# Shear Modulus (GPa) = 39.66175 45.59869 42.63022
#
# Velocity S-wave (km/s) = 3.89411 4.17540 4.03720
# Velocity P-wave (km/s) = 6.09699 6.53002 6.31722
#
# Compressibility (1/GPa) = 0.02255058
#
# Stress axis : x y z
#
# Youngs Moduli (GPa) = 108.61303 134.35539 63.12152
#
# Poissons Ratio (x) = 0.17157 0.04883
# Poissons Ratio (y) = 0.13870 0.18433
# Poissons Ratio (z) = 0.08403 0.39235
#
# Static dielectric constant tensor:
#      x y z
#    x 1.929450 0.000000 0.127480 
#    y 0.000000 2.176250 0.000000 
#    z 0.127480 0.000000 2.077520 
# 
# From -- ./inp_files/39071.got.cif
#   From: 2010.05.17/outbox.cif.g08.bks.cpg/sg15_20_cif.got.tgz:39071.got - 2010.06.03 18:47:42.
