data_PCOD9269510
_publ_section_title
;
Structure prediction by ZEFSAII (Michael W. Deem and Ramdas Pophale) SiO2 
 PCOD9269510
Probable space group: C 2/C
;
_chemical_formula_sum "Si O2"
_cell_formula_units_Z 36
_cell_length_a 9.371281
_cell_length_b 13.324911
_cell_length_c 12.832292
_cell_angle_alpha 90.000000
_cell_angle_beta 72.805049
_cell_angle_gamma 90.000000
_cell_volume 1530.767724
_symmetry_space_group_name_H-M "C 2/C"
_symmetry_group_IT_number 15
_symmetry_cell_setting 'monoclinic'
loop_
_space_group_symop_operation_xyz
x,y,z
-x,y,1/2-z
-x,-y,-z
x,-y,1/2+z
1/2+x,1/2+y,z
1/2-x,1/2+y,1/2-z
1/2-x,1/2-y,-z
1/2+x,1/2-y,1/2+z
loop_
_atom_site_type_symbol
_atom_site_label
_atom_site_fract_x
_atom_site_fract_y
_atom_site_fract_z
Si Si1 0.049597 0.308113 0.631103
Si Si2 0.500000 0.601541 0.250000
Si Si3 0.764357 0.008615 0.933002
Si Si4 0.010036 0.452807 0.129934
Si Si5 0.098471 0.832341 0.951721
O O1 0.999258 0.424264 0.639291
O O2 0.003516 0.244144 0.541528
O O3 0.228134 0.304114 0.596975
O O4 0.000000 0.260840 0.750000
O O5 0.644634 0.539071 0.181575
O O6 0.537621 0.657445 0.349001
O O7 0.880031 0.068638 0.980648
O O8 0.635001 0.076173 0.906271
O O9 0.665296 0.939424 0.033435
O O10 0.000000 0.414081 0.250000
#
# Coordination Sequence:
#
# PCOD9269510 Si02
#       5
#     8   4   8   8   8
#     4   9  18  38  61  79 109 156 192 233 289 352
#     4  12  22  36  56  86 124 148 186 242 294 342
#     4  10  20  34  57  84 114 151 191 236 291 339
#     4   9  18  37  61  82 112 154 196 237 284 350
#     4  10  22  36  57  84 117 150 191 238 293 344
#
# _framework density 23.517613000000001
#
# number of rings (size 3 to 8) (size 9 to 14) (size 15 to 20)
#    0.000    2.222    0.000    4.667    1.556    0.000 
#    0.000    4.444   44.000    0.000    0.000    0.000 
#    0.000    0.000    0.000    0.000    0.000    0.000 
#
# Total GULP energy -100411.242555 kJ/mol
# GULP energy per Si atom -5578.402364 kJ/mol
# Density = 2.346409 g / cm^3
# Si number density = 23.517613 Si / 1000 Ang^3
#
#
#
# Elastic Constant Matrix: (Units=GPa)
#
#
# Indices 1 2 3 4 5 6 
#
# 1 46.6397 24.7692 14.8662 0.0000 10.7770 0.0000
# 2 24.7692 41.4382 33.8947 0.0000 7.3576 0.0000
# 3 14.8662 33.8947 188.6637 0.0000 10.9191 0.0000
# 4 0.0000 0.0000 0.0000 26.6745 0.0000 -1.6905
# 5 10.7770 7.3576 10.9191 0.0000 53.9399 0.0000
# 6 0.0000 0.0000 0.0000 -1.6905 0.0000 0.2320
#
#
#
# Elastic Compliance Matrix: (Units=1/GPa)
#
#
# Indices 1 2 3 4 5 6 
#
# 1 0.032428 -0.019655 0.001210 0.000000 -0.004043 0.000000
# 2 -0.019655 0.040647 -0.005727 0.000000 -0.000458 0.000000
# 3 0.001210 -0.005727 0.006276 0.000000 -0.000731 0.000000
# 4 0.000000 0.000000 0.000000 0.069647 0.000000 0.507407
# 5 -0.004043 -0.000458 -0.000731 0.000000 0.019557 0.000000
# 6 0.000000 0.000000 0.000000 0.507407 0.000000 8.006245
#
#
# Mechanical properties :
#
#
# Convention : Reuss Voigt Hill
#
# Bulk Modulus (GPa) = 32.25167 47.08907 39.67037
# Shear Modulus (GPa) = 0.60728 29.71672 15.16200
#
# Velocity S-wave (km/s) = 0.50871 3.55856 2.54186
# Velocity P-wave (km/s) = 3.75349 6.07872 5.05171
#
# Compressibility (1/GPa) = 0.03100615
#
# Stress axis : x y z
#
# Youngs Moduli (GPa) = 30.83766 24.60208 159.32860
#
# Poissons Ratio (x) = 0.48356 -0.19278
# Poissons Ratio (y) = 0.60612 0.91251
# Poissons Ratio (z) = -0.03731 0.14090
#
# Static dielectric constant tensor:
#      x y z
#    x 1.882260 0.000000 0.022060 
#    y 0.000000 2.053000 0.000000 
#    z 0.022060 0.000000 1.913410 
# 
# From -- ./inp_files/77319.got.cif
#   From: 2010.05.17/outbox.cif.g08.bks.cpg/sg15_39_cif.got.tgz:77319.got - 2010.06.03 18:47:42.
