data_PCOD9269611
_publ_section_title
;
Structure prediction by ZEFSAII (Michael W. Deem and Ramdas Pophale) SiO2 
 PCOD9269611
Probable space group: C 2/C
;
_chemical_formula_sum "Si O2"
_cell_formula_units_Z 52
_cell_length_a 22.389012
_cell_length_b 14.335201
_cell_length_c 13.554852
_cell_angle_alpha 90.000000
_cell_angle_beta 137.875328
_cell_angle_gamma 90.000000
_cell_volume 2918.042577
_symmetry_space_group_name_H-M "C 2/C"
_symmetry_group_IT_number 15
_symmetry_cell_setting 'monoclinic'
loop_
_space_group_symop_operation_xyz
x,y,z
-x,y,1/2-z
-x,-y,-z
x,-y,1/2+z
1/2+x,1/2+y,z
1/2-x,1/2+y,1/2-z
1/2-x,1/2-y,-z
1/2+x,1/2-y,1/2+z
loop_
_atom_site_type_symbol
_atom_site_label
_atom_site_fract_x
_atom_site_fract_y
_atom_site_fract_z
Si Si1 0.880010 0.778647 0.001236
Si Si2 0.779839 0.918274 0.739717
Si Si3 0.046893 0.034825 0.157378
Si Si4 0.500000 0.684460 0.250000
Si Si5 0.233844 0.137204 0.757604
Si Si6 0.813451 0.259409 0.984036
Si Si7 0.580150 0.668981 0.731888
O O1 0.884984 0.783995 0.125587
O O2 0.982372 0.788111 0.088146
O O3 0.823098 0.864484 0.885812
O O4 0.825306 0.687555 0.902030
O O5 0.858772 0.922261 0.756119
O O6 0.704076 0.854183 0.598838
O O7 0.757496 0.025543 0.733077
O O8 0.994707 0.113792 0.151055
O O9 0.062468 0.939790 0.235587
O O10 0.000000 0.000000 0.000000
O O11 0.586961 0.746780 0.356711
O O12 0.209442 0.177329 0.621044
O O13 0.154025 0.166753 0.735894
O O14 0.750000 0.250000 0.000000
#
# Coordination Sequence:
#
# PCOD9269611 Si02
#       7
#     8   8   8   4   8   8   8
#     4  10  20  35  56  83 117 143 190 244 292 349
#     4  10  21  39  54  85 121 148 196 241 294 355
#     4  11  20  32  58  88 115 144 190 251 303 345
#     4  12  22  36  62  86 118 158 198 238 312 350
#     4  10  23  36  60  81 117 157 192 244 303 343
#     4  11  24  39  58  89 120 160 197 251 295 358
#     4  10  20  34  58  87 112 146 193 246 293 346
#
# _framework density 17.820163999999998
#
# number of rings (size 3 to 8) (size 9 to 14) (size 15 to 20)
#    0.000    1.538    3.077    3.231    2.154    0.000 
#    0.000    1.538    0.000    4.615    0.000    0.000 
#    0.000    0.000    0.000    0.000    0.000    0.000 
#
# Total GULP energy -145066.538126 kJ/mol
# GULP energy per Si atom -5579.482236 kJ/mol
# Density = 1.777960 g / cm^3
# Si number density = 17.820164 Si / 1000 Ang^3
#
#
#
# Elastic Constant Matrix: (Units=GPa)
#
#
# Indices 1 2 3 4 5 6 
#
# 1 94.3737 43.9617 47.1980 0.0000 7.9534 0.0000
# 2 43.9617 115.2485 53.7552 0.0000 10.8550 0.0000
# 3 47.1980 53.7552 118.6479 0.0000 12.9564 0.0000
# 4 0.0000 0.0000 0.0000 18.5187 0.0000 2.1113
# 5 7.9534 10.8550 12.9564 0.0000 30.3189 0.0000
# 6 0.0000 0.0000 0.0000 2.1113 0.0000 27.2620
#
#
#
# Elastic Compliance Matrix: (Units=1/GPa)
#
#
# Indices 1 2 3 4 5 6 
#
# 1 0.014305 -0.003511 -0.004015 0.000000 -0.000780 0.000000
# 2 -0.003511 0.011968 -0.003838 0.000000 -0.001724 0.000000
# 3 -0.004015 -0.003838 0.012062 0.000000 -0.002727 0.000000
# 4 0.000000 0.000000 0.000000 0.054480 0.000000 -0.004219
# 5 -0.000780 -0.001724 -0.002727 0.000000 0.034970 0.000000
# 6 0.000000 0.000000 0.000000 -0.004219 0.000000 0.037008
#
#
# Mechanical properties :
#
#
# Convention : Reuss Voigt Hill
#
# Bulk Modulus (GPa) = 64.06470 68.67776 66.37123
# Shear Modulus (GPa) = 25.94393 27.44360 26.69376
#
# Velocity S-wave (km/s) = 3.81973 3.92858 3.87454
# Velocity P-wave (km/s) = 7.44866 7.69424 7.57245
#
# Compressibility (1/GPa) = 0.01560922
#
# Stress axis : x y z
#
# Youngs Moduli (GPa) = 69.90492 83.55320 82.90532
#
# Poissons Ratio (x) = 0.29332 0.33285
# Poissons Ratio (y) = 0.24541 0.31816
# Poissons Ratio (z) = 0.28066 0.32065
#
# Static dielectric constant tensor:
#      x y z
#    x 1.639350 0.000000 -0.017490 
#    y 0.000000 1.601350 0.000000 
#    z -0.017490 0.000000 1.644580 
# 
# From -- ./inp_files/112788.got.cif
#   From: 2010.05.17/outbox.cif.g08.bks.cpg/sg15_57_cif.got.tgz:112788.got - 2010.06.03 18:47:42.
