data_PCOD9269869
_publ_section_title
;
Structure prediction by ZEFSAII (Michael W. Deem and Ramdas Pophale) SiO2 
 PCOD9269869
Probable space group: C 2/C
;
_chemical_formula_sum "Si O2"
_cell_formula_units_Z 56
_cell_length_a 22.452356
_cell_length_b 17.191097
_cell_length_c 8.699575
_cell_angle_alpha 90.000000
_cell_angle_beta 53.712503
_cell_angle_gamma 90.000000
_cell_volume 2706.634069
_symmetry_space_group_name_H-M "C 2/C"
_symmetry_group_IT_number 15
_symmetry_cell_setting 'monoclinic'
loop_
_space_group_symop_operation_xyz
x,y,z
-x,y,1/2-z
-x,-y,-z
x,-y,1/2+z
1/2+x,1/2+y,z
1/2-x,1/2+y,1/2-z
1/2-x,1/2-y,-z
1/2+x,1/2-y,1/2+z
loop_
_atom_site_type_symbol
_atom_site_label
_atom_site_fract_x
_atom_site_fract_y
_atom_site_fract_z
Si Si1 0.651359 0.616033 0.280756
Si Si2 0.346820 0.992297 0.111605
Si Si3 0.069978 0.576750 0.747237
Si Si4 0.716090 0.141415 0.975199
Si Si5 0.311489 0.476366 0.490913
Si Si6 0.073964 0.246608 0.230905
Si Si7 0.785491 0.282888 0.694926
O O1 0.640518 0.566303 0.452853
O O2 0.592280 0.681479 0.327982
O O3 0.728507 0.662373 0.189265
O O4 0.657246 0.552931 0.135989
O O5 0.408674 0.977855 0.144738
O O6 0.342420 0.916516 0.010468
O O7 0.267411 0.001353 0.311924
O O8 0.363945 0.064726 0.976429
O O9 0.063754 0.665648 0.809327
O O10 0.000000 0.556053 0.750000
O O11 0.737709 0.208856 0.825156
O O12 0.788158 0.088352 0.901098
O O13 0.692624 0.176230 0.176146
O O14 0.000000 0.227538 0.250000
O O15 0.145027 0.254193 0.009532
#
# Coordination Sequence:
#
# PCOD9269869 Si02
#       7
#     8   8   8   8   8   8   8
#     4  11  22  39  64  93 117 159 201 259 309 366
#     4  12  19  36  58  89 120 153 198 250 305 356
#     4  11  24  37  56  81 124 166 202 235 293 374
#     4  10  20  34  63  93 123 149 197 266 307 356
#     4  11  20  35  64  91 118 145 199 264 315 348
#     4  11  24  41  60  85 125 169 207 243 301 372
#     4  10  21  38  62  93 123 156 204 254 310 361
#
# _framework density 20.689903999999999
#
# number of rings (size 3 to 8) (size 9 to 14) (size 15 to 20)
#    0.000    1.143    2.857    5.143    0.000    0.000 
#    0.000    0.714    0.000    7.714    0.000    0.000 
#    0.000    0.000    0.000    0.000    0.000    0.000 
#
# Total GULP energy -156440.319034 kJ/mol
# GULP energy per Si atom -5587.154251 kJ/mol
# Density = 2.064281 g / cm^3
# Si number density = 20.689904 Si / 1000 Ang^3
#
#
#
# Elastic Constant Matrix: (Units=GPa)
#
#
# Indices 1 2 3 4 5 6 
#
# 1 96.9524 49.9450 13.6521 0.0000 26.2749 0.0000
# 2 49.9450 103.3586 19.0237 0.0000 27.1791 0.0000
# 3 13.6521 19.0237 26.3966 0.0000 12.1903 0.0000
# 4 0.0000 0.0000 0.0000 28.0269 0.0000 16.8690
# 5 26.2749 27.1791 12.1903 0.0000 16.7836 0.0000
# 6 0.0000 0.0000 0.0000 16.8690 0.0000 41.0048
#
#
#
# Elastic Compliance Matrix: (Units=1/GPa)
#
#
# Indices 1 2 3 4 5 6 
#
# 1 0.018773 -0.002270 0.005720 0.000000 -0.029866 0.000000
# 2 -0.002270 0.017133 -0.000003 0.000000 -0.024189 0.000000
# 3 0.005720 -0.000003 0.058775 0.000000 -0.051640 0.000000
# 4 0.000000 0.000000 0.000000 0.047422 0.000000 -0.019509
# 5 -0.029866 -0.024189 -0.051640 0.000000 0.183016 0.000000
# 6 0.000000 0.000000 0.000000 -0.019509 0.000000 0.032413
#
#
# Mechanical properties :
#
#
# Convention : Reuss Voigt Hill
#
# Bulk Modulus (GPa) = 9.84495 43.54990 26.69742
# Shear Modulus (GPa) = 13.00397 26.76884 19.88641
#
# Velocity S-wave (km/s) = 2.50974 3.60086 3.10363
# Velocity P-wave (km/s) = 3.62865 6.19539 5.07690
#
# Compressibility (1/GPa) = 0.10157494
#
# Stress axis : x y z
#
# Youngs Moduli (GPa) = 53.26928 58.36538 17.01392
#
# Poissons Ratio (x) = 0.13251 -0.09732
# Poissons Ratio (y) = 0.12094 0.00005
# Poissons Ratio (z) = -0.30470 0.00016
#
# Static dielectric constant tensor:
#      x y z
#    x 1.737270 0.000000 0.021390 
#    y 0.000000 1.789750 0.000000 
#    z 0.021390 0.000000 1.755750 
# 
# From -- ./inp_files/62405.got.cif
#   From: 2010.05.17/outbox.cif.g08.bks.cpg/sg15_32_cif.got.tgz:62405.got - 2010.06.03 18:47:42.
