data_PCOD9269472
_publ_section_title
;
Structure prediction by ZEFSAII (Michael W. Deem and Ramdas Pophale) SiO2 
 PCOD9269472
Probable space group: C 2/C
;
_chemical_formula_sum "Si O2"
_cell_formula_units_Z 60
_cell_length_a 21.923246
_cell_length_b 9.665299
_cell_length_c 23.273171
_cell_angle_alpha 90.000000
_cell_angle_beta 32.700116
_cell_angle_gamma 90.000000
_cell_volume 2664.183138
_symmetry_space_group_name_H-M "C 2/C"
_symmetry_group_IT_number 15
_symmetry_cell_setting 'monoclinic'
loop_
_space_group_symop_operation_xyz
x,y,z
-x,y,1/2-z
-x,-y,-z
x,-y,1/2+z
1/2+x,1/2+y,z
1/2-x,1/2+y,1/2-z
1/2-x,1/2-y,-z
1/2+x,1/2-y,1/2+z
loop_
_atom_site_type_symbol
_atom_site_label
_atom_site_fract_x
_atom_site_fract_y
_atom_site_fract_z
Si Si1 0.131373 0.916349 0.127061
Si Si2 0.018923 0.238526 0.116588
Si Si3 0.555903 0.023554 0.268585
Si Si4 0.168963 0.180902 0.167061
Si Si5 0.777980 0.167890 0.065371
Si Si6 0.250000 0.250000 0.000000
Si Si7 0.961365 0.358118 0.954884
Si Si8 0.388126 0.843140 0.562528
O O1 0.201572 0.794031 0.101287
O O2 0.000000 0.909611 0.250000
O O3 0.191080 0.060681 0.100576
O O4 0.157045 0.903093 0.039320
O O5 0.959795 0.377665 0.186712
O O6 0.943187 0.131230 0.211224
O O7 0.028048 0.245718 0.041326
O O8 0.144792 0.239614 0.039252
O O9 0.500000 0.036288 0.250000
O O10 0.686051 0.068249 0.165741
O O11 0.487211 0.124010 0.367002
O O12 0.163087 0.299397 0.123389
O O13 0.262106 0.192507 0.142521
O O14 0.870868 0.236423 0.032630
O O15 0.910065 0.501093 0.021114
O O16 0.075069 0.334323 0.901125
#
# Coordination Sequence:
#
# PCOD9269472 Si02
#       8
#     8   8   8   8   8   4   8   8
#     4  11  22  36  55  90 125 159 199 253 317 378
#     4  10  22  37  59  92 120 158 211 257 321 376
#     4  11  22  36  60  91 124 159 207 261 318 390
#     4  11  21  37  59  90 119 158 200 257 314 377
#     4  11  22  35  59  86 123 163 200 253 314 381
#     4  10  20  34  56  88 118 154 194 258 316 362
#     4  10  20  41  60  87 118 165 214 256 310 377
#     4   9  21  39  64  82 118 165 214 260 305 375
#
# _framework density 22.520975
#
# number of rings (size 3 to 8) (size 9 to 14) (size 15 to 20)
#    0.000    1.600    1.333    4.800    5.600    1.067 
#    0.000    0.000    0.000    0.800    0.000    0.000 
#    0.000    0.000    0.000    0.000    0.000    0.000 
#
# Total GULP energy -167073.581555 kJ/mol
# GULP energy per Si atom -5569.119385 kJ/mol
# Density = 2.246972 g / cm^3
# Si number density = 22.520975 Si / 1000 Ang^3
#
#
#
# Elastic Constant Matrix: (Units=GPa)
#
#
# Indices 1 2 3 4 5 6 
#
# 1 108.7752 11.0589 20.7274 0.0000 -8.9775 0.0000
# 2 11.0589 29.8593 -10.8824 0.0000 -0.8439 -0.0002
# 3 20.7274 -10.8824 84.6210 0.0000 -6.6380 0.0000
# 4 0.0000 0.0000 0.0000 28.5560 0.0000 -6.3557
# 5 -8.9775 -0.8439 -6.6380 0.0000 28.0715 0.0000
# 6 0.0000 -0.0002 0.0000 -6.3557 0.0000 18.9021
#
#
#
# Elastic Compliance Matrix: (Units=1/GPa)
#
#
# Indices 1 2 3 4 5 6 
#
# 1 0.010468 -0.004900 -0.002999 0.000000 0.002491 0.000000
# 2 -0.004900 0.037560 0.006109 0.000000 0.001007 0.000000
# 3 -0.002999 0.006109 0.013528 0.000000 0.002423 0.000000
# 4 0.000000 0.000000 0.000000 0.037852 0.000000 0.012727
# 5 0.002491 0.001007 0.002423 0.000000 0.037023 0.000000
# 6 0.000000 0.000000 0.000000 0.012727 0.000000 0.057184
#
#
# Mechanical properties :
#
#
# Convention : Reuss Voigt Hill
#
# Bulk Modulus (GPa) = 17.24786 29.45148 23.34967
# Shear Modulus (GPa) = 23.09259 28.59602 25.84430
#
# Velocity S-wave (km/s) = 3.20563 3.56722 3.39125
# Velocity P-wave (km/s) = 4.62349 5.48384 5.07194
#
# Compressibility (1/GPa) = 0.05797822
#
# Stress axis : x y z
#
# Youngs Moduli (GPa) = 95.52485 26.62390 73.92214
#
# Poissons Ratio (x) = 0.13045 0.22168
# Poissons Ratio (y) = 0.46805 -0.45163
# Poissons Ratio (z) = 0.28647 -0.16266
#
# Static dielectric constant tensor:
#      x y z
#    x 1.761050 0.000000 0.011420 
#    y 0.000000 1.641800 0.000000 
#    z 0.011420 0.000000 1.950930 
# 
# From -- ./inp_files/280081.got.cif
#   From: 2010.05.17/outbox.cif.g08.bks.cpg/sg15_141_cif.got.tgz:280081.got - 2010.06.03 18:47:42.
