data_PCOD9269281
_publ_section_title
;
Structure prediction by ZEFSAII (Michael W. Deem and Ramdas Pophale) SiO2 
 PCOD9269281
Probable space group: C 2/C
;
_chemical_formula_sum "Si O2"
_cell_formula_units_Z 52
_cell_length_a 26.960539
_cell_length_b 18.562494
_cell_length_c 5.522542
_cell_angle_alpha 90.000000
_cell_angle_beta 124.015250
_cell_angle_gamma 90.000000
_cell_volume 2290.868427
_symmetry_space_group_name_H-M "C 2/C"
_symmetry_group_IT_number 15
_symmetry_cell_setting 'monoclinic'
loop_
_space_group_symop_operation_xyz
x,y,z
-x,y,1/2-z
-x,-y,-z
x,-y,1/2+z
1/2+x,1/2+y,z
1/2-x,1/2+y,1/2-z
1/2-x,1/2-y,-z
1/2+x,1/2-y,1/2+z
loop_
_atom_site_type_symbol
_atom_site_label
_atom_site_fract_x
_atom_site_fract_y
_atom_site_fract_z
Si Si1 0.761617 0.529082 0.804596
Si Si2 0.943498 0.193132 0.981697
Si Si3 0.346312 0.663046 0.358971
Si Si4 0.883189 0.300190 0.198656
Si Si5 0.123425 0.971904 0.849101
Si Si6 0.000000 0.303476 0.750000
Si Si7 0.265595 0.832100 0.620105
O O1 0.788633 0.488747 0.114909
O O2 0.760556 0.612543 0.883312
O O3 0.692661 0.503775 0.579210
O O4 0.894961 0.149475 0.700862
O O5 0.973026 0.250076 0.876826
O O6 0.910872 0.243179 0.085991
O O7 0.000000 0.152253 0.250000
O O8 0.351161 0.747223 0.304117
O O9 0.404164 0.507712 0.967555
O O10 0.282252 0.649351 0.301591
O O11 0.940587 0.340218 0.473781
O O12 0.831367 0.340025 0.913198
O O13 0.132973 0.111737 0.303146
O O14 0.250000 0.750000 0.500000
#
# Coordination Sequence:
#
# PCOD9269281 Si02
#       7
#     8   8   8   8   8   4   8
#     4  10  22  41  57  79 122 175 205 227 288 380
#     4   9  18  35  54  75 109 152 193 229 295 373
#     4  11  21  33  54  83 120 153 185 243 308 352
#     4  10  20  34  54  84 116 147 189 238 305 359
#     4  10  21  36  56  77 109 160 210 237 276 352
#     4   8  18  36  54  74 108 156 192 226 290 376
#     4  12  22  34  57  95 127 150 190 260 311 343
#
# _framework density 22.698813000000001
#
# number of rings (size 3 to 8) (size 9 to 14) (size 15 to 20)
#    0.000    1.846    1.538    4.154    2.154    1.231 
#    0.000    0.000    0.000    0.923    0.000    1.077 
#    0.000    0.000    0.000    0.000    0.000    0.000 
#
# Total GULP energy -145095.600181 kJ/mol
# GULP energy per Si atom -5580.600007 kJ/mol
# Density = 2.264715 g / cm^3
# Si number density = 22.698813 Si / 1000 Ang^3
#
#
#
# Elastic Constant Matrix: (Units=GPa)
#
#
# Indices 1 2 3 4 5 6 
#
# 1 66.8875 11.3172 49.4230 0.0000 5.1329 0.0000
# 2 11.3172 68.9106 18.8674 0.0000 -14.5260 0.0000
# 3 49.4230 18.8674 166.7830 0.0000 -3.0858 0.0000
# 4 0.0000 0.0000 0.0000 36.6230 0.0000 -13.1914
# 5 5.1329 -14.5260 -3.0858 0.0000 43.0672 0.0000
# 6 0.0000 0.0000 0.0000 -13.1914 0.0000 8.4751
#
#
#
# Elastic Compliance Matrix: (Units=1/GPa)
#
#
# Indices 1 2 3 4 5 6 
#
# 1 0.019829 -0.002465 -0.005664 0.000000 -0.003600 0.000000
# 2 -0.002465 0.016409 -0.001019 0.000000 0.005755 0.000000
# 3 -0.005664 -0.001019 0.007806 0.000000 0.000890 0.000000
# 4 0.000000 0.000000 0.000000 0.062147 0.000000 0.096731
# 5 -0.003600 0.005755 0.000890 0.000000 0.025654 0.000000
# 6 0.000000 0.000000 0.000000 0.096731 0.000000 0.268553
#
#
# Mechanical properties :
#
#
# Convention : Reuss Voigt Hill
#
# Bulk Modulus (GPa) = 38.83846 51.31071 45.07459
# Shear Modulus (GPa) = 11.70206 32.49797 22.10002
#
# Velocity S-wave (km/s) = 2.27301 3.78789 3.12367
# Velocity P-wave (km/s) = 4.90268 6.46413 5.73677
#
# Compressibility (1/GPa) = 0.02574767
#
# Stress axis : x y z
#
# Youngs Moduli (GPa) = 50.43215 60.94374 128.10793
#
# Poissons Ratio (x) = 0.15021 0.72556
# Poissons Ratio (y) = 0.12430 0.13059
# Poissons Ratio (z) = 0.28563 0.06212
#
# Static dielectric constant tensor:
#      x y z
#    x 1.889320 0.000000 -0.047950 
#    y 0.000000 1.876060 0.000000 
#    z -0.047950 0.000000 1.943220 
# 
# From -- ./inp_files/17114.got.cif
#   From: 2010.05.17/outbox.cif.g08.bks.cpg/sg15_9_cif.got.tgz:17114.got - 2010.06.03 18:47:42.
