data_PCOD9269459
_publ_section_title
;
Structure prediction by ZEFSAII (Michael W. Deem and Ramdas Pophale) SiO2 
 PCOD9269459
Probable space group: C 2/C
;
_chemical_formula_sum "Si O2"
_cell_formula_units_Z 64
_cell_length_a 8.552404
_cell_length_b 29.557090
_cell_length_c 15.740504
_cell_angle_alpha 90.000000
_cell_angle_beta 129.261343
_cell_angle_gamma 90.000000
_cell_volume 3080.771397
_symmetry_space_group_name_H-M "C 2/C"
_symmetry_group_IT_number 15
_symmetry_cell_setting 'monoclinic'
loop_
_space_group_symop_operation_xyz
x,y,z
-x,y,1/2-z
-x,-y,-z
x,-y,1/2+z
1/2+x,1/2+y,z
1/2-x,1/2+y,1/2-z
1/2-x,1/2-y,-z
1/2+x,1/2-y,1/2+z
loop_
_atom_site_type_symbol
_atom_site_label
_atom_site_fract_x
_atom_site_fract_y
_atom_site_fract_z
Si Si1 0.943739 0.143166 0.140320
Si Si2 0.367339 0.674951 0.557047
Si Si3 0.066332 0.551988 0.369313
Si Si4 0.505340 0.592836 0.998022
Si Si5 0.456413 0.251553 0.634354
Si Si6 0.933874 0.446064 0.132436
Si Si7 0.817527 0.257567 0.644654
Si Si8 0.996623 0.385143 0.498417
O O1 0.000455 0.195240 0.157446
O O2 0.000000 0.123123 0.250000
O O3 0.702372 0.140890 0.047669
O O4 0.052155 0.116815 0.103154
O O5 0.514504 0.635422 0.573884
O O6 0.284537 0.705753 0.451636
O O7 0.435403 0.715872 0.640154
O O8 0.183881 0.647978 0.538110
O O9 0.305033 0.562413 0.461596
O O10 0.027103 0.498963 0.369658
O O11 0.965888 0.582793 0.406964
O O12 0.000000 0.562816 0.250000
O O13 0.304638 0.564685 0.946814
O O14 0.500000 0.234952 0.750000
O O15 0.250000 0.250000 0.500000
O O16 0.640683 0.235274 0.639440
O O17 0.000000 0.434094 0.250000
O O18 0.040422 0.416468 0.096445
O O19 0.000000 0.284196 0.750000
#
# Coordination Sequence:
#
# PCOD9269459 Si02
#       8
#     8   8   8   8   8   8   8   8
#     4  10  20  34  56  86 120 154 207 254 310 368
#     4  10  23  40  59  84 125 153 215 247 322 370
#     4  10  20  36  61  92 121 154 200 251 315 370
#     4  10  20  38  60  86 120 161 200 257 303 374
#     4  11  25  42  65  91 128 169 216 268 330 386
#     4  10  22  39  60  87 122 162 204 248 304 377
#     4  11  25  40  64  90 124 166 209 273 321 383
#     4  10  21  37  61  86 121 163 200 256 305 374
#
# _framework density 20.774018000000002
#
# number of rings (size 3 to 8) (size 9 to 14) (size 15 to 20)
#    0.000    1.750    1.250    2.250    7.000    3.000 
#    0.000    6.250    0.000   10.500    0.000    0.000 
#    0.000    0.000    0.000    0.000    0.000    0.000 
#
# Total GULP energy -178167.247143 kJ/mol
# GULP energy per Si atom -5567.726473 kJ/mol
# Density = 2.072674 g / cm^3
# Si number density = 20.774018 Si / 1000 Ang^3
#
#
#
# Elastic Constant Matrix: (Units=GPa)
#
#
# Indices 1 2 3 4 5 6 
#
# 1 63.0286 9.9547 5.0081 0.0000 -11.0161 0.0000
# 2 9.9547 52.3310 5.1304 0.0000 -19.5347 0.0000
# 3 5.0081 5.1304 73.7259 0.0000 -13.6783 0.0000
# 4 0.0000 0.0000 0.0000-1634.9607 0.0000 1377.7111
# 5 -11.0161 -19.5347 -13.6783 0.0000 32.6099 0.0000
# 6 0.0000 0.0000 0.0000 1377.7111 0.0000-1146.8431
#
#
#
# Elastic Compliance Matrix: (Units=1/GPa)
#
#
# Indices 1 2 3 4 5 6 
#
# 1 0.016942 -0.001411 -0.000160 0.000000 0.004811 0.000000
# 2 -0.001411 0.024815 0.001126 0.000000 0.014861 0.000000
# 3 -0.000160 0.001126 0.014760 0.000000 0.006812 0.000000
# 4 0.000000 0.000000 0.000000 0.049767 0.000000 0.059785
# 5 0.004811 0.014861 0.006812 0.000000 0.044050 0.000000
# 6 0.000000 0.000000 0.000000 0.059785 0.000000 0.070948
#
#
# Mechanical properties :
#
#
# Convention : Reuss Voigt Hill
#
# Bulk Modulus (GPa) = 17.97715 25.47466 21.72590
# Shear Modulus (GPa) = 20.77152 -538.57262 -258.90055
#
# Velocity S-wave (km/s) = 3.16552 -16.11880 -11.17576
# Velocity P-wave (km/s) = 4.69395 18.27927 12.49197
#
# Compressibility (1/GPa) = 0.05562618
#
# Stress axis : x y z
#
# Youngs Moduli (GPa) = 59.02404 40.29891 67.75062
#
# Poissons Ratio (x) = 0.05688 0.01085
# Poissons Ratio (y) = 0.08330 -0.07630
# Poissons Ratio (z) = 0.00945 -0.04538
#
# Static dielectric constant tensor:
#      x y z
#    x 1.728860 0.000000 0.177600 
#    y 0.000000 1.709000 0.000000 
#    z 0.177600 0.000000 0.184650 
# 
# From -- ./inp_files/139873.got.cif
#   From: 2010.05.17/outbox.cif.g08.bks.cpg/sg15_70_cif.got.tgz:139873.got - 2010.06.03 18:47:42.
