data_PCOD9269693
_publ_section_title
;
Structure prediction by ZEFSAII (Michael W. Deem and Ramdas Pophale) SiO2 
 PCOD9269693
Probable space group: C 2/C
;
_chemical_formula_sum "Si O2"
_cell_formula_units_Z 48
_cell_length_a 12.605198
_cell_length_b 20.324714
_cell_length_c 9.429878
_cell_angle_alpha 90.000000
_cell_angle_beta 78.788944
_cell_angle_gamma 90.000000
_cell_volume 2369.805708
_symmetry_space_group_name_H-M "C 2/C"
_symmetry_group_IT_number 15
_symmetry_cell_setting 'monoclinic'
loop_
_space_group_symop_operation_xyz
x,y,z
-x,y,1/2-z
-x,-y,-z
x,-y,1/2+z
1/2+x,1/2+y,z
1/2-x,1/2+y,1/2-z
1/2-x,1/2-y,-z
1/2+x,1/2-y,1/2+z
loop_
_atom_site_type_symbol
_atom_site_label
_atom_site_fract_x
_atom_site_fract_y
_atom_site_fract_z
Si Si1 0.904692 0.314342 0.153767
Si Si2 0.573784 0.536295 0.369560
Si Si3 0.522678 0.677548 0.414651
Si Si4 0.220613 0.181887 0.925689
Si Si5 0.780522 0.463692 0.396164
Si Si6 0.901419 0.456306 0.080927
O O1 0.787857 0.313628 0.261601
O O2 0.917552 0.378785 0.055199
O O3 0.000000 0.318450 0.250000
O O4 0.920411 0.246247 0.068166
O O5 0.500000 0.539826 0.250000
O O6 0.500000 0.500000 0.500000
O O7 0.591265 0.611376 0.415634
O O8 0.679158 0.491635 0.335191
O O9 0.500000 0.680451 0.250000
O O10 0.408929 0.675360 0.528108
O O11 0.250000 0.250000 0.000000
O O12 0.261535 0.109267 0.965899
O O13 0.875339 0.461681 0.254758
O O14 0.803871 0.514823 0.513947
O O15 0.000000 0.500000 0.000000
#
# Coordination Sequence:
#
# PCOD9269693 Si02
#       6
#     8   8   8   8   8   8
#     4  10  20  36  58  88 119 162 211 254 300 363
#     4  11  22  40  62  91 123 152 200 254 311 363
#     4  10  20  34  59  86 118 159 205 256 298 371
#     4  11  19  34  59  88 120 154 211 254 299 357
#     4  11  24  39  64  96 121 166 203 258 312 369
#     4  11  23  40  61  89 131 162 207 252 305 368
#
# _framework density 20.254825
#
# number of rings (size 3 to 8) (size 9 to 14) (size 15 to 20)
#    0.000    1.333    5.000    3.500    2.333    0.000 
#    0.000    0.833    0.000    4.000    0.000    0.000 
#    0.000    0.000    0.000    0.000    0.000    0.000 
#
# Total GULP energy -133755.118660 kJ/mol
# GULP energy per Si atom -5573.129944 kJ/mol
# Density = 2.020872 g / cm^3
# Si number density = 20.254825 Si / 1000 Ang^3
#
#
#
# Elastic Constant Matrix: (Units=GPa)
#
#
# Indices 1 2 3 4 5 6 
#
# 1 46.0096 22.9228 18.5171 0.0000 -11.7746 0.0000
# 2 22.9228 211.8224 37.1112 0.0000 4.1331 0.0000
# 3 18.5171 37.1112 75.8487 0.0000 -26.4636 0.0000
# 4 0.0000 0.0000 0.0000 35.9256 0.0000 -5.2735
# 5 -11.7746 4.1331 -26.4636 0.0000 35.0043 0.0000
# 6 0.0000 0.0000 0.0000 -5.2735 0.0000 24.1886
#
#
#
# Elastic Compliance Matrix: (Units=1/GPa)
#
#
# Indices 1 2 3 4 5 6 
#
# 1 0.025816 -0.002461 -0.002672 0.000000 0.006955 0.000000
# 2 -0.002461 0.005719 -0.003697 0.000000 -0.004298 0.000000
# 3 -0.002672 -0.003697 0.021031 0.000000 0.015438 0.000000
# 4 0.000000 0.000000 0.000000 0.028755 0.000000 0.006269
# 5 0.006955 -0.004298 0.015438 0.000000 0.043086 0.000000
# 6 0.000000 0.000000 0.000000 0.006269 0.000000 0.042708
#
#
# Mechanical properties :
#
#
# Convention : Reuss Voigt Hill
#
# Bulk Modulus (GPa) = 28.64803 54.53144 41.58974
# Shear Modulus (GPa) = 25.45678 36.03234 30.74456
#
# Velocity S-wave (km/s) = 3.54902 4.22234 3.90024
# Velocity P-wave (km/s) = 5.56494 7.12404 6.39220
#
# Compressibility (1/GPa) = 0.03490641
#
# Stress axis : x y z
#
# Youngs Moduli (GPa) = 38.73572 174.86075 47.54794
#
# Poissons Ratio (x) = 0.43039 0.12704
# Poissons Ratio (y) = 0.09534 0.17577
# Poissons Ratio (z) = 0.10349 0.64642
#
# Static dielectric constant tensor:
#      x y z
#    x 1.590140 0.000000 0.086800 
#    y 0.000000 1.782550 0.000000 
#    z 0.086800 0.000000 1.674260 
# 
# From -- ./inp_files/106278.got.cif
#   From: 2010.05.17/outbox.cif.g08.bks.cpg/sg15_54_cif.got.tgz:106278.got - 2010.06.03 18:47:42.
