data_PCOD9269640
_publ_section_title
;
Structure prediction by ZEFSAII (Michael W. Deem and Ramdas Pophale) SiO2 
 PCOD9269640
Probable space group: C 2/C
;
_chemical_formula_sum "Si O2"
_cell_formula_units_Z 44
_cell_length_a 25.479671
_cell_length_b 15.622976
_cell_length_c 11.607127
_cell_angle_alpha 90.000000
_cell_angle_beta 153.893298
_cell_angle_gamma 90.000000
_cell_volume 2033.193112
_symmetry_space_group_name_H-M "C 2/C"
_symmetry_group_IT_number 15
_symmetry_cell_setting 'monoclinic'
loop_
_space_group_symop_operation_xyz
x,y,z
-x,y,1/2-z
-x,-y,-z
x,-y,1/2+z
1/2+x,1/2+y,z
1/2-x,1/2+y,1/2-z
1/2-x,1/2-y,-z
1/2+x,1/2-y,1/2+z
loop_
_atom_site_type_symbol
_atom_site_label
_atom_site_fract_x
_atom_site_fract_y
_atom_site_fract_z
Si Si1 0.203752 0.030098 0.431232
Si Si2 0.143312 0.370942 0.739949
Si Si3 0.500000 0.804781 0.250000
Si Si4 0.133839 0.758742 0.417621
Si Si5 0.985698 0.076892 0.597760
Si Si6 0.772909 0.788992 0.416698
O O1 0.217134 0.109010 0.543764
O O2 0.315022 0.967142 0.651909
O O3 0.090864 0.968820 0.234874
O O4 0.151655 0.070499 0.210846
O O5 0.049116 0.361825 0.451813
O O6 0.253989 0.313606 0.910459
O O7 0.108495 0.323245 0.788635
O O8 0.604163 0.747148 0.397118
O O9 0.027088 0.825343 0.187726
O O10 0.173822 0.731262 0.624201
O O11 0.000000 0.035476 0.750000
O O12 0.750000 0.750000 0.500000
#
# Coordination Sequence:
#
# PCOD9269640 Si02
#       6
#     8   8   4   8   8   8
#     4  10  22  35  60  95 127 163 216 280 326 385
#     4   9  19  38  61  91 124 175 216 267 327 402
#     4  10  22  42  70  88 136 182 220 268 346 406
#     4   9  19  36  59  88 132 172 213 262 337 399
#     4  10  20  34  58  91 126 160 213 271 327 390
#     4  11  23  40  65  96 132 178 225 275 332 405
#
# _framework density 21.640836
#
# number of rings (size 3 to 8) (size 9 to 14) (size 15 to 20)
#    0.000    2.182    0.000    2.182    3.818    2.909 
#    0.000    0.909    6.000    0.000    0.000    0.000 
#    0.000    0.000    0.000    0.000    0.000    0.000 
#
# Total GULP energy -122630.850241 kJ/mol
# GULP energy per Si atom -5574.129556 kJ/mol
# Density = 2.159158 g / cm^3
# Si number density = 21.640836 Si / 1000 Ang^3
#
#
#
# Elastic Constant Matrix: (Units=GPa)
#
#
# Indices 1 2 3 4 5 6 
#
# 1 74.0218 31.6261 33.4443 0.0000 -18.4083 0.0000
# 2 31.6261 148.8093 82.8784 0.0000 -12.7539 0.0000
# 3 33.4443 82.8784 121.7586 0.0000 -37.2925 0.0000
# 4 0.0000 0.0000 0.0000 -414.1011 0.0000 -203.8728
# 5 -18.4083 -12.7539 -37.2925 0.0000 37.2188 0.0000
# 6 0.0000 0.0000 0.0000 -203.8728 0.0000 -81.7009
#
#
#
# Elastic Compliance Matrix: (Units=1/GPa)
#
#
# Indices 1 2 3 4 5 6 
#
# 1 0.016575 -0.002472 -0.000892 0.000000 0.006456 0.000000
# 2 -0.002472 0.011968 -0.009502 0.000000 -0.006642 0.000000
# 3 -0.000892 -0.009502 0.019900 0.000000 0.016243 0.000000
# 4 0.000000 0.000000 0.000000 0.010567 0.000000 -0.026369
# 5 0.006456 -0.006642 0.016243 0.000000 0.044060 0.000000
# 6 0.000000 0.000000 0.000000 -0.026369 0.000000 0.053559
#
#
# Mechanical properties :
#
#
# Convention : Reuss Voigt Hill
#
# Bulk Modulus (GPa) = 44.03236 71.16527 57.59881
# Shear Modulus (GPa) = 26.32520 -78.60724 -26.14102
#
# Velocity S-wave (km/s) = 3.49156 -6.03344 -3.47933
# Velocity P-wave (km/s) = 6.05357 3.94721 3.24540
#
# Compressibility (1/GPa) = 0.02271057
#
# Stress axis : x y z
#
# Youngs Moduli (GPa) = 60.33314 83.55573 50.25001
#
# Poissons Ratio (x) = 0.20657 0.04484
# Poissons Ratio (y) = 0.14915 0.47746
# Poissons Ratio (z) = 0.05384 0.79392
#
# Static dielectric constant tensor:
#      x y z
#    x 1.909600 0.000000 -0.038880 
#    y 0.000000 1.802700 0.000000 
#    z -0.038880 0.000000 1.844680 
# 
# From -- ./inp_files/123385.got.cif
#   From: 2010.05.17/outbox.cif.g08.bks.cpg/sg15_62_cif.got.tgz:123385.got - 2010.06.03 18:47:42.
