data_PCOD9269108
_publ_section_title
;
Structure prediction by ZEFSAII (Michael W. Deem and Ramdas Pophale) SiO2 
 PCOD9269108
Probable space group: C 2/C
;
_chemical_formula_sum "Si O2"
_cell_formula_units_Z 56
_cell_length_a 23.578305
_cell_length_b 13.590093
_cell_length_c 9.632979
_cell_angle_alpha 90.000000
_cell_angle_beta 62.813554
_cell_angle_gamma 90.000000
_cell_volume 2745.702810
_symmetry_space_group_name_H-M "C 2/C"
_symmetry_group_IT_number 15
_symmetry_cell_setting 'monoclinic'
loop_
_space_group_symop_operation_xyz
x,y,z
-x,y,1/2-z
-x,-y,-z
x,-y,1/2+z
1/2+x,1/2+y,z
1/2-x,1/2+y,1/2-z
1/2-x,1/2-y,-z
1/2+x,1/2-y,1/2+z
loop_
_atom_site_type_symbol
_atom_site_label
_atom_site_fract_x
_atom_site_fract_y
_atom_site_fract_z
Si Si1 0.756515 0.607426 0.207950
Si Si2 0.571297 0.242068 0.235145
Si Si3 0.355930 0.256564 0.628643
Si Si4 0.571992 0.179609 0.720939
Si Si5 0.850576 0.782611 0.109862
Si Si6 0.237423 0.408447 0.132925
Si Si7 0.953268 0.528685 0.175484
O O1 0.683759 0.643528 0.311316
O O2 0.799438 0.698948 0.211517
O O3 0.772825 0.512197 0.280127
O O4 0.766848 0.591236 0.030407
O O5 0.500000 0.260307 0.250000
O O6 0.601163 0.311584 0.320643
O O7 0.575062 0.136107 0.309604
O O8 0.620650 0.238467 0.052525
O O9 0.418729 0.244854 0.652864
O O10 0.310033 0.172802 0.746824
O O11 0.500000 0.175147 0.750000
O O12 0.612563 0.230410 0.556986
O O13 0.589053 0.065652 0.738725
O O14 0.808002 0.870663 0.096835
O O15 0.000000 0.544858 0.250000
O O16 0.000000 0.500000 0.000000
#
# Coordination Sequence:
#
# PCOD9269108 Si02
#       7
#     8   8   8   8   8   8   8
#     4  11  25  44  66  93 122 164 215 271 316 364
#     4  11  24  38  59  99 136 167 206 255 308 379
#     4  11  23  41  64  92 132 163 213 257 312 382
#     4  11  20  36  63  87 125 175 203 250 317 380
#     4  11  23  41  64  92 129 166 212 253 312 385
#     4  11  25  44  66  93 122 163 218 268 317 366
#     4  10  20  34  50  86 130 162 202 237 291 370
#
# _framework density 20.395506000000001
#
# number of rings (size 3 to 8) (size 9 to 14) (size 15 to 20)
#    0.000    1.143    2.857    5.143    8.000    1.143 
#    0.000    0.000    0.000    5.143    0.000    0.000 
#    0.000    0.000    0.000    0.000    0.000    0.000 
#
# Total GULP energy -156237.228467 kJ/mol
# GULP energy per Si atom -5579.901017 kJ/mol
# Density = 2.034909 g / cm^3
# Si number density = 20.395506 Si / 1000 Ang^3
#
#
#
# Elastic Constant Matrix: (Units=GPa)
#
#
# Indices 1 2 3 4 5 6 
#
# 1 88.2414 10.3093 -3.0355 0.0000 18.8887 0.0000
# 2 10.3093 36.1211 11.7592 0.0000 -1.6125 0.0000
# 3 -3.0355 11.7592 91.3518 0.0000 7.6266 0.0000
# 4 0.0000 0.0000 0.0000 6.1924 0.0000 10.2843
# 5 18.8887 -1.6125 7.6266 0.0000 33.1149 0.0000
# 6 0.0000 0.0000 0.0000 10.2843 0.0000 23.0057
#
#
#
# Elastic Compliance Matrix: (Units=1/GPa)
#
#
# Indices 1 2 3 4 5 6 
#
# 1 0.013791 -0.004903 0.001801 0.000000 -0.008520 0.000000
# 2 -0.004903 0.030812 -0.004576 0.000000 0.005351 0.000000
# 3 0.001801 -0.004576 0.011929 0.000000 -0.003997 0.000000
# 4 0.000000 0.000000 0.000000 0.626950 0.000000 -0.280265
# 5 -0.008520 0.005351 -0.003997 0.000000 0.036239 0.000000
# 6 0.000000 0.000000 0.000000 -0.280265 0.000000 0.168754
#
#
# Mechanical properties :
#
#
# Convention : Reuss Voigt Hill
#
# Bulk Modulus (GPa) = 24.28549 28.19782 26.24165
# Shear Modulus (GPa) = 5.44925 25.57470 15.51198
#
# Velocity S-wave (km/s) = 1.63633 3.54494 2.76081
# Velocity P-wave (km/s) = 3.93742 5.53272 4.80178
#
# Compressibility (1/GPa) = 0.04117686
#
# Stress axis : x y z
#
# Youngs Moduli (GPa) = 72.51118 32.45440 83.82742
#
# Poissons Ratio (x) = 0.15911 -0.15094
# Poissons Ratio (y) = 0.35550 0.38359
# Poissons Ratio (z) = -0.13057 0.14851
#
# Static dielectric constant tensor:
#      x y z
#    x 1.799520 0.000000 -0.019390 
#    y 0.000000 1.784780 0.000000 
#    z -0.019390 0.000000 1.713210 
# 
# From -- ./inp_files/61840.got.cif
#   From: 2010.05.17/outbox.cif.g08.bks.cpg/sg15_31_cif.got.tgz:61840.got - 2010.06.03 18:47:42.
