data_PCOD9269677
_publ_section_title
;
Structure prediction by ZEFSAII (Michael W. Deem and Ramdas Pophale) SiO2 
 PCOD9269677
Probable space group: C 2/C
;
_chemical_formula_sum "Si O2"
_cell_formula_units_Z 64
_cell_length_a 17.365394
_cell_length_b 32.617266
_cell_length_c 10.837846
_cell_angle_alpha 90.000000
_cell_angle_beta 151.672466
_cell_angle_gamma 90.000000
_cell_volume 2912.874068
_symmetry_space_group_name_H-M "C 2/C"
_symmetry_group_IT_number 15
_symmetry_cell_setting 'monoclinic'
loop_
_space_group_symop_operation_xyz
x,y,z
-x,y,1/2-z
-x,-y,-z
x,-y,1/2+z
1/2+x,1/2+y,z
1/2-x,1/2+y,1/2-z
1/2-x,1/2-y,-z
1/2+x,1/2-y,1/2+z
loop_
_atom_site_type_symbol
_atom_site_label
_atom_site_fract_x
_atom_site_fract_y
_atom_site_fract_z
Si Si1 0.319399 0.523549 0.933208
Si Si2 0.191699 0.933509 0.546648
Si Si3 0.184410 0.776962 0.024734
Si Si4 0.358360 0.193704 0.442324
Si Si5 0.426703 0.149994 0.931827
Si Si6 0.759303 0.095601 0.648499
Si Si7 0.879562 0.874007 0.844368
Si Si8 0.360455 0.078048 0.651998
O O1 0.297469 0.556873 0.793319
O O2 0.191790 0.536696 0.857116
O O3 0.500000 0.525378 0.250000
O O4 0.274091 0.476662 0.838228
O O5 0.277779 0.923260 0.538774
O O6 0.200604 0.895961 0.650871
O O7 0.000000 0.936947 0.250000
O O8 0.291656 0.815813 0.208479
O O9 0.250000 0.750000 0.000000
O O10 0.175407 0.741714 0.116009
O O11 0.000000 0.791178 0.750000
O O12 0.500000 0.188014 0.750000
O O13 0.415025 0.174938 0.391412
O O14 0.199816 0.170539 0.269543
O O15 0.370067 0.127395 0.977141
O O16 0.424980 0.111369 0.838263
O O17 0.928696 0.120827 0.878729
O O18 0.804859 0.900905 0.629429
O O19 0.500000 0.072504 0.750000
#
# Coordination Sequence:
#
# PCOD9269677 Si02
#       8
#     8   8   8   8   8   8   8   8
#     4  10  20  34  59  81 107 141 184 236 281 322
#     4   9  22  38  55  82 111 142 187 239 273 322
#     4  11  21  32  52  85 122 146 174 224 279 333
#     4  11  20  36  52  83 118 147 179 221 274 333
#     4  11  21  34  53  80 122 141 175 229 272 324
#     4  10  23  35  55  86 109 142 192 228 272 334
#     4  11  19  35  59  75 108 154 183 219 283 327
#     4  11  20  34  53  81 113 148 180 222 274 335
#
# _framework density 21.971426999999998
#
# number of rings (size 3 to 8) (size 9 to 14) (size 15 to 20)
#    0.000    1.500    6.250    0.000    5.250    1.500 
#    0.000    2.500    0.000    0.750    0.000    0.000 
#    0.000    0.000    0.000    0.000    0.000    0.000 
#
# Total GULP energy -178532.385865 kJ/mol
# GULP energy per Si atom -5579.137058 kJ/mol
# Density = 2.192142 g / cm^3
# Si number density = 21.971427 Si / 1000 Ang^3
#
#
#
# Elastic Constant Matrix: (Units=GPa)
#
#
# Indices 1 2 3 4 5 6 
#
# 1 111.8668 34.1446 18.5270 0.0000 15.9641 0.0000
# 2 34.1446 93.2860 21.5264 0.0000 19.6011 0.0000
# 3 18.5270 21.5264 52.8045 0.0000 11.8564 0.0000
# 4 0.0000 0.0000 0.0000 8.5533 0.0000 5.5293
# 5 15.9641 19.6011 11.8564 0.0000 23.5257 0.0000
# 6 0.0000 0.0000 0.0000 5.5293 0.0000 22.5823
#
#
#
# Elastic Compliance Matrix: (Units=1/GPa)
#
#
# Indices 1 2 3 4 5 6 
#
# 1 0.010616 -0.002614 -0.001726 0.000000 -0.004156 0.000000
# 2 -0.002614 0.014147 -0.002934 0.000000 -0.008534 0.000000
# 3 -0.001726 -0.002934 0.022470 0.000000 -0.007709 0.000000
# 4 0.000000 0.000000 0.000000 0.138900 0.000000 -0.034010
# 5 -0.004156 -0.008534 -0.007709 0.000000 0.056323 0.000000
# 6 0.000000 0.000000 0.000000 -0.034010 0.000000 0.052610
#
#
# Mechanical properties :
#
#
# Convention : Reuss Voigt Hill
#
# Bulk Modulus (GPa) = 30.59450 45.15037 37.87243
# Shear Modulus (GPa) = 15.60023 23.18287 19.39155
#
# Velocity S-wave (km/s) = 2.66752 3.25181 2.97405
# Velocity P-wave (km/s) = 4.84174 5.89010 5.39146
#
# Compressibility (1/GPa) = 0.03268562
#
# Stress axis : x y z
#
# Youngs Moduli (GPa) = 94.19716 70.68758 44.50333
#
# Poissons Ratio (x) = 0.18479 0.07681
# Poissons Ratio (y) = 0.24625 0.13056
# Poissons Ratio (z) = 0.16257 0.20737
#
# Static dielectric constant tensor:
#      x y z
#    x 1.875070 0.000000 -0.011100 
#    y 0.000000 1.770890 0.000000 
#    z -0.011100 0.000000 1.851360 
# 
# From -- ./inp_files/108653.got.cif
#   From: 2010.05.17/outbox.cif.g08.bks.cpg/sg15_55_cif.got.tgz:108653.got - 2010.06.03 18:47:42.
