data_PCOD9269126
_publ_section_title
;
Structure prediction by ZEFSAII (Michael W. Deem and Ramdas Pophale) SiO2 
 PCOD9269126
Probable space group: C 2/C
;
_chemical_formula_sum "Si O2"
_cell_formula_units_Z 56
_cell_length_a 26.770832
_cell_length_b 8.337143
_cell_length_c 12.723740
_cell_angle_alpha 90.000000
_cell_angle_beta 66.347310
_cell_angle_gamma 90.000000
_cell_volume 2601.277099
_symmetry_space_group_name_H-M "C 2/C"
_symmetry_group_IT_number 15
_symmetry_cell_setting 'monoclinic'
loop_
_space_group_symop_operation_xyz
x,y,z
-x,y,1/2-z
-x,-y,-z
x,-y,1/2+z
1/2+x,1/2+y,z
1/2-x,1/2+y,1/2-z
1/2-x,1/2-y,-z
1/2+x,1/2-y,1/2+z
loop_
_atom_site_type_symbol
_atom_site_label
_atom_site_fract_x
_atom_site_fract_y
_atom_site_fract_z
Si Si1 0.185043 0.476537 0.822284
Si Si2 0.773845 0.769038 0.824878
Si Si3 0.177265 0.923343 0.523930
Si Si4 0.921227 0.393506 0.842167
Si Si5 0.309749 0.781379 0.991644
Si Si6 0.005959 0.661193 0.424955
Si Si7 0.912147 0.705820 0.988252
O O1 0.186178 0.623618 0.740281
O O2 0.238030 0.361580 0.766491
O O3 0.130160 0.379179 0.893181
O O4 0.194109 0.576128 0.922207
O O5 0.806506 0.897199 0.867678
O O6 0.725340 0.677543 0.927487
O O7 0.120994 0.840829 0.542986
O O8 0.173836 0.103892 0.487180
O O9 0.859083 0.340224 0.875756
O O10 0.955669 0.373186 0.707947
O O11 0.949135 0.294553 0.916108
O O12 0.924831 0.571731 0.888726
O O13 0.250000 0.750000 0.000000
O O14 0.037624 0.767773 0.483711
O O15 0.000000 0.500000 0.500000
#
# Coordination Sequence:
#
# PCOD9269126 Si02
#       7
#     8   8   8   8   8   8   8
#     4  10  20  34  51  82 111 158 199 239 300 358
#     4  10  20  34  52  76 118 157 198 243 290 359
#     4  10  21  35  51  80 119 155 197 244 295 357
#     4   9  20  36  62  85 116 158 195 249 300 355
#     4  11  21  37  56  83 125 161 196 237 307 370
#     4   9  18  38  62  89 114 147 207 250 295 353
#     4   9  20  35  57  86 110 148 200 249 302 351
#
# _framework density 21.527888000000001
#
# number of rings (size 3 to 8) (size 9 to 14) (size 15 to 20)
#    0.000    2.286    1.429    0.857    4.000    2.286 
#    2.571    0.714    0.000    6.857    0.000    0.000 
#    0.000    0.000    0.000    0.000    0.000    0.000 
#
# Total GULP energy -155976.832242 kJ/mol
# GULP energy per Si atom -5570.601151 kJ/mol
# Density = 2.147889 g / cm^3
# Si number density = 21.527888 Si / 1000 Ang^3
#
#
#
# Elastic Constant Matrix: (Units=GPa)
#
#
# Indices 1 2 3 4 5 6 
#
# 1 83.6371 2.7184 -1.4985 0.0000 4.7371 0.0000
# 2 2.7184 52.2296 -14.1630 0.0000 -2.3294 0.0000
# 3 -1.4985 -14.1630 29.3661 0.0000 -1.5220 0.0000
# 4 0.0000 0.0000 0.0000 9.7225 0.0000 0.7021
# 5 4.7371 -2.3294 -1.5220 0.0000 19.8684 0.0000
# 6 0.0000 0.0000 0.0000 0.7021 0.0000 26.1492
#
#
#
# Elastic Compliance Matrix: (Units=1/GPa)
#
#
# Indices 1 2 3 4 5 6 
#
# 1 0.012151 -0.000735 0.000111 0.000000 -0.002975 0.000000
# 2 -0.000735 0.022304 0.010907 0.000000 0.003626 0.000000
# 3 0.000111 0.010907 0.039541 0.000000 0.004281 0.000000
# 4 0.000000 0.000000 0.000000 0.103054 0.000000 -0.002767
# 5 -0.002975 0.003626 0.004281 0.000000 0.051793 0.000000
# 6 0.000000 0.000000 0.000000 -0.002767 0.000000 0.038316
#
#
# Mechanical properties :
#
#
# Convention : Reuss Voigt Hill
#
# Bulk Modulus (GPa) = 10.57490 15.48296 13.02893
# Shear Modulus (GPa) = 17.97829 23.02642 20.50235
#
# Velocity S-wave (km/s) = 2.89297 3.27404 3.08939
# Velocity P-wave (km/s) = 4.01023 4.63682 4.33486
#
# Compressibility (1/GPa) = 0.09456358
#
# Stress axis : x y z
#
# Youngs Moduli (GPa) = 82.29926 44.83520 25.29022
#
# Poissons Ratio (x) = 0.03295 -0.00282
# Poissons Ratio (y) = 0.06048 -0.27585
# Poissons Ratio (z) = -0.00917 -0.48903
#
# Static dielectric constant tensor:
#      x y z
#    x 1.875760 0.000000 0.014840 
#    y 0.000000 1.798010 0.000000 
#    z 0.014840 0.000000 1.847650 
# 
# From -- ./inp_files/176156.got.cif
#   From: 2010.05.17/outbox.cif.g08.bks.cpg/sg15_89_cif.got.tgz:176156.got - 2010.06.03 18:47:42.
