data_PCOD9269827
_publ_section_title
;
Structure prediction by ZEFSAII (Michael W. Deem and Ramdas Pophale) SiO2 
 PCOD9269827
Probable space group: C 2/C
;
_chemical_formula_sum "Si O2"
_cell_formula_units_Z 44
_cell_length_a 14.840508
_cell_length_b 24.657543
_cell_length_c 11.541966
_cell_angle_alpha 90.000000
_cell_angle_beta 28.915330
_cell_angle_gamma 90.000000
_cell_volume 2042.159927
_symmetry_space_group_name_H-M "C 2/C"
_symmetry_group_IT_number 15
_symmetry_cell_setting 'monoclinic'
loop_
_space_group_symop_operation_xyz
x,y,z
-x,y,1/2-z
-x,-y,-z
x,-y,1/2+z
1/2+x,1/2+y,z
1/2-x,1/2+y,1/2-z
1/2-x,1/2-y,-z
1/2+x,1/2-y,1/2+z
loop_
_atom_site_type_symbol
_atom_site_label
_atom_site_fract_x
_atom_site_fract_y
_atom_site_fract_z
Si Si1 0.799714 0.389837 0.123577
Si Si2 0.160067 0.615704 0.340688
Si Si3 0.718785 0.312751 0.006919
Si Si4 0.343387 0.485885 0.505226
Si Si5 0.000000 0.517344 0.250000
Si Si6 0.963758 0.902526 0.659690
O O1 0.810006 0.346789 0.008632
O O2 0.597228 0.382463 0.406430
O O3 0.873888 0.444903 0.977486
O O4 0.939485 0.385561 0.074729
O O5 0.248846 0.559854 0.189091
O O6 0.257488 0.615229 0.354704
O O7 0.210672 0.664334 0.195492
O O8 0.500000 0.322983 0.250000
O O9 0.750000 0.250000 0.000000
O O10 0.468397 0.534086 0.416485
O O11 0.164175 0.510798 0.638565
O O12 0.500000 0.456623 0.250000
O O13 0.000000 0.884304 0.750000
#
# Coordination Sequence:
#
# PCOD9269827 Si02
#       6
#     8   8   8   8   4   8
#     4  11  21  40  62  91 128 159 208 268 327 366
#     4  11  21  39  61  89 128 161 210 275 312 372
#     4  12  22  39  70 104 126 149 198 270 346 379
#     4  10  20  35  57  85 126 170 221 254 322 363
#     4  10  20  34  62  86 122 162 218 276 324 354
#     4  11  25  38  56  87 127 184 217 244 300 379
#
# _framework density 21.545815000000001
#
# number of rings (size 3 to 8) (size 9 to 14) (size 15 to 20)
#    0.000    1.091    5.455    3.273    0.000    8.000 
#    0.000    0.000    0.000    1.091    0.000    0.000 
#    0.000    0.000    0.000    0.000    0.000    0.000 
#
# Total GULP energy -122690.144899 kJ/mol
# GULP energy per Si atom -5576.824768 kJ/mol
# Density = 2.149678 g / cm^3
# Si number density = 21.545815 Si / 1000 Ang^3
#
#
#
# Elastic Constant Matrix: (Units=GPa)
#
#
# Indices 1 2 3 4 5 6 
#
# 1 165.9693 37.6682 12.1090 -0.0052 -26.3035 0.0046
# 2 37.6682 76.8112 -6.7581 -0.0005 -1.3496 -0.0002
# 3 12.1090 -6.7581 40.0557 -0.0131 -12.8839 0.0123
# 4 -0.0052 -0.0005 -0.0131 6.1116 0.0087 -2.1203
# 5 -26.3035 -1.3496 -12.8839 0.0087 46.2669 -0.0121
# 6 0.0046 -0.0002 0.0123 -2.1203 -0.0121 8.3879
#
#
#
# Elastic Compliance Matrix: (Units=1/GPa)
#
#
# Indices 1 2 3 4 5 6 
#
# 1 0.007611 -0.003820 -0.001746 -0.000002 0.003729 0.000003
# 2 -0.003820 0.015184 0.003472 0.000006 -0.000762 -0.000002
# 3 -0.001746 0.003472 0.028330 0.000043 0.006998 -0.000020
# 4 -0.000002 0.000006 0.000043 0.179353 -0.000011 0.045337
# 5 0.003729 -0.000762 0.006998 -0.000011 0.025660 0.000022
# 6 0.000003 -0.000002 -0.000020 0.045337 0.000022 0.130680
#
#
# Mechanical properties :
#
#
# Convention : Reuss Voigt Hill
#
# Bulk Modulus (GPa) = 21.30581 40.98606 31.14594
# Shear Modulus (GPa) = 12.29551 28.14107 20.21829
#
# Velocity S-wave (km/s) = 2.39146 3.61793 3.06663
# Velocity P-wave (km/s) = 4.18754 6.04289 5.19866
#
# Compressibility (1/GPa) = 0.04693555
#
# Stress axis : x y z
#
# Youngs Moduli (GPa) = 131.39456 65.85672 35.29888
#
# Poissons Ratio (x) = 0.25160 0.06162
# Poissons Ratio (y) = 0.50197 -0.12254
# Poissons Ratio (z) = 0.22939 -0.22863
#
# Static dielectric constant tensor:
#      x y z
#    x 1.900140 0.000000 -0.005890 
#    y 0.000000 1.797940 0.000000 
#    z -0.005890 0.000000 1.944060 
# 
# From -- ./inp_files/101043.got.cif
#   From: 2010.05.17/outbox.cif.g08.bks.cpg/sg15_51_cif.got.tgz:101043.got - 2010.06.03 18:47:42.
