data_PCOD9269908
_publ_section_title
;
Structure prediction by ZEFSAII (Michael W. Deem and Ramdas Pophale) SiO2 
 PCOD9269908
Probable space group: C 2/C
;
_chemical_formula_sum "Si O2"
_cell_formula_units_Z 36
_cell_length_a 19.439380
_cell_length_b 8.287711
_cell_length_c 8.537431
_cell_angle_alpha 90.000000
_cell_angle_beta 100.735920
_cell_angle_gamma 90.000000
_cell_volume 1351.372560
_symmetry_space_group_name_H-M "C 2/C"
_symmetry_group_IT_number 15
_symmetry_cell_setting 'monoclinic'
loop_
_space_group_symop_operation_xyz
x,y,z
-x,y,1/2-z
-x,-y,-z
x,-y,1/2+z
1/2+x,1/2+y,z
1/2-x,1/2+y,1/2-z
1/2-x,1/2-y,-z
1/2+x,1/2-y,1/2+z
loop_
_atom_site_type_symbol
_atom_site_label
_atom_site_fract_x
_atom_site_fract_y
_atom_site_fract_z
Si Si1 0.500000 0.778347 0.750000
Si Si2 0.203301 0.357224 0.189266
Si Si3 0.286491 0.503637 0.463607
Si Si4 0.548921 0.152131 0.623354
Si Si5 0.572877 0.484334 0.123480
O O1 0.487059 0.844856 0.565174
O O2 0.434807 0.656502 0.752433
O O3 0.226416 0.385362 0.375307
O O4 0.211734 0.180745 0.118999
O O5 0.125174 0.429329 0.135773
O O6 0.264280 0.458429 0.129145
O O7 0.363472 0.440147 0.461674
O O8 0.500000 0.101176 0.750000
O O9 0.575257 0.332288 0.684841
O O10 0.500000 0.500000 0.000000
#
# Coordination Sequence:
#
# PCOD9269908 Si02
#       5
#     4   8   8   8   8
#     4  10  20  34  66 100 134 170 230 294 346 386
#     4  10  24  44  65  98 135 177 227 279 345 413
#     4  10  23  41  68  96 140 175 219 282 343 415
#     4  10  21  40  63  97 133 176 232 283 336 408
#     4   9  19  32  62 100 127 167 222 288 342 386
#
# _framework density 26.639581
#
# number of rings (size 3 to 8) (size 9 to 14) (size 15 to 20)
#    0.000    2.222    1.111    0.000   12.444    2.667 
#    4.000    1.111    0.000    2.667    0.000    0.000 
#    0.000    0.000    0.000    0.000    0.000    0.000 
#
# Total GULP energy -100448.409446 kJ/mol
# GULP energy per Si atom -5580.467191 kJ/mol
# Density = 2.657895 g / cm^3
# Si number density = 26.639581 Si / 1000 Ang^3
#
#
#
# Elastic Constant Matrix: (Units=GPa)
#
#
# Indices 1 2 3 4 5 6 
#
# 1 168.5088 9.1816 58.4496 0.0000 -23.4794 0.0000
# 2 9.1816 18.3655 63.7134 0.0000 -14.9732 0.0000
# 3 58.4496 63.7134 158.8207 0.0000 -15.2302 0.0000
# 4 0.0000 0.0000 0.0000 57.5469 0.0000 -0.4476
# 5 -23.4794 -14.9732 -15.2302 0.0000 45.5626 0.0000
# 6 0.0000 0.0000 0.0000 -0.4476 0.0000 17.4435
#
#
#
# Elastic Compliance Matrix: (Units=1/GPa)
#
#
# Indices 1 2 3 4 5 6 
#
# 1 0.005705 -0.011351 0.002457 0.000000 0.000031 0.000000
# 2 -0.011351 -0.088829 0.037660 0.000000 -0.022453 0.000000
# 3 0.002457 0.037660 -0.008686 0.000000 0.010739 0.000000
# 4 0.000000 0.000000 0.000000 0.017381 0.000000 0.000446
# 5 0.000031 -0.022453 0.010739 0.000000 0.018175 0.000000
# 6 0.000000 0.000000 0.000000 0.000446 0.000000 0.057339
#
#
# Mechanical properties :
#
#
# Convention : Reuss Voigt Hill
#
# Bulk Modulus (GPa) = -29.17233 67.59826 19.21297
# Shear Modulus (GPa) = -73.66704 38.40064 -17.63320
#
# Velocity S-wave (km/s) = -5.26434 3.80081 -2.57557
# Velocity P-wave (km/s) = 6.92283 6.68519 1.27156
#
# Compressibility (1/GPa) = -0.03427906
#
# Stress axis : x y z
#
# Youngs Moduli (GPa) = 175.28723 -11.25755 -115.13073
#
# Poissons Ratio (x) = -0.12779 0.28289
# Poissons Ratio (y) = 1.98971 4.33577
# Poissons Ratio (z) = -0.43070 0.42395
#
# Static dielectric constant tensor:
#      x y z
#    x 2.078150 0.000000 0.006960 
#    y 0.000000 2.300330 0.000000 
#    z 0.006960 0.000000 2.060570 
# 
# From -- ./inp_files/53608.got.cif
#   From: 2010.05.17/outbox.cif.g08.bks.cpg/sg15_27_cif.got.tgz:53608.got - 2010.06.03 18:47:42.
