data_PCOD9269359
_publ_section_title
;
Structure prediction by ZEFSAII (Michael W. Deem and Ramdas Pophale) SiO2 
 PCOD9269359
Probable space group: C 2/C
;
_chemical_formula_sum "Si O2"
_cell_formula_units_Z 48
_cell_length_a 7.407817
_cell_length_b 14.260782
_cell_length_c 20.768771
_cell_angle_alpha 90.000000
_cell_angle_beta 98.055540
_cell_angle_gamma 90.000000
_cell_volume 2172.389953
_symmetry_space_group_name_H-M "C 2/C"
_symmetry_group_IT_number 15
_symmetry_cell_setting 'monoclinic'
loop_
_space_group_symop_operation_xyz
x,y,z
-x,y,1/2-z
-x,-y,-z
x,-y,1/2+z
1/2+x,1/2+y,z
1/2-x,1/2+y,1/2-z
1/2-x,1/2-y,-z
1/2+x,1/2-y,1/2+z
loop_
_atom_site_type_symbol
_atom_site_label
_atom_site_fract_x
_atom_site_fract_y
_atom_site_fract_z
Si Si1 0.364343 0.455171 0.544248
Si Si2 0.946766 0.100249 0.181513
Si Si3 0.356327 0.754609 0.828081
Si Si4 0.273834 0.225290 0.811874
Si Si5 0.546731 0.717914 0.527641
Si Si6 0.837266 0.372512 0.445007
O O1 0.500000 0.500000 0.500000
O O2 0.454903 0.461045 0.618866
O O3 0.361410 0.347692 0.521558
O O4 0.184370 0.517740 0.541363
O O5 0.745626 0.145238 0.177264
O O6 0.000000 0.049969 0.250000
O O7 0.084723 0.188260 0.180801
O O8 0.571777 0.759199 0.823702
O O9 0.258314 0.698121 0.764792
O O10 0.342070 0.718388 0.900155
O O11 0.341594 0.151715 0.868924
O O12 0.353836 0.671291 0.538981
O O13 0.487525 0.815676 0.492249
#
# Coordination Sequence:
#
# PCOD9269359 Si02
#       6
#     8   8   8   8   8   8
#     4  10  20  34  55  86 118 157 200 246 320 365
#     4  10  20  37  59  85 115 156 197 251 308 369
#     4   9  19  32  60  87 106 153 207 238 305 377
#     4   9  17  36  59  81 113 155 197 251 303 371
#     4   9  17  33  55  81 115 152 195 252 297 369
#     4   9  17  32  57  80 115 156 194 245 309 362
#
# _framework density 22.095480999999999
#
# number of rings (size 3 to 8) (size 9 to 14) (size 15 to 20)
#    0.000    2.667    1.667    0.000    2.333    0.667 
#    9.000    0.833    0.000    0.000    8.667    0.000 
#    0.000    0.000    0.000    0.000    0.000    0.000 
#
# Total GULP energy -133835.789466 kJ/mol
# GULP energy per Si atom -5576.491228 kJ/mol
# Density = 2.204519 g / cm^3
# Si number density = 22.095481 Si / 1000 Ang^3
#
#
#
# Elastic Constant Matrix: (Units=GPa)
#
#
# Indices 1 2 3 4 5 6 
#
# 1 61.0720 14.7034 34.7723 0.0000 6.6731 0.0000
# 2 14.7034 80.1928 57.5911 0.0000 0.6183 0.0000
# 3 34.7723 57.5911 198.6379 0.0000 -8.8903 0.0000
# 4 0.0000 0.0000 0.0000 27.9641 0.0000 -12.4054
# 5 6.6731 0.6183 -8.8903 0.0000 29.1638 0.0000
# 6 0.0000 0.0000 0.0000 -12.4054 0.0000 29.2523
#
#
#
# Elastic Compliance Matrix: (Units=1/GPa)
#
#
# Indices 1 2 3 4 5 6 
#
# 1 0.019079 -0.001120 -0.003254 0.000000 -0.005334 0.000000
# 2 -0.001120 0.015904 -0.004480 0.000000 -0.001446 0.000000
# 3 -0.003254 -0.004480 0.007036 0.000000 0.002984 0.000000
# 4 0.000000 0.000000 0.000000 0.044047 0.000000 0.018679
# 5 -0.005334 -0.001446 0.002984 0.000000 0.036450 0.000000
# 6 0.000000 0.000000 0.000000 0.018679 0.000000 0.042107
#
#
# Mechanical properties :
#
#
# Convention : Reuss Voigt Hill
#
# Bulk Modulus (GPa) = 41.13252 61.55958 51.34605
# Shear Modulus (GPa) = 26.25586 32.79843 29.52715
#
# Velocity S-wave (km/s) = 3.45090 3.85697 3.65957
# Velocity P-wave (km/s) = 5.87661 6.91058 6.41446
#
# Compressibility (1/GPa) = 0.02431166
#
# Stress axis : x y z
#
# Youngs Moduli (GPa) = 52.41302 62.87911 142.12222
#
# Poissons Ratio (x) = 0.07045 0.46244
# Poissons Ratio (y) = 0.05872 0.63664
# Poissons Ratio (z) = 0.17054 0.28167
#
# Static dielectric constant tensor:
#      x y z
#    x 1.809680 0.000000 -0.006800 
#    y 0.000000 1.864870 0.000000 
#    z -0.006800 0.000000 1.844680 
# 
# From -- ./inp_files/231372.got.cif
#   From: 2010.05.17/outbox.cif.g08.bks.cpg/sg15_116_cif.got.tgz:231372.got - 2010.06.03 18:47:42.
