data_PCOD9269813
_publ_section_title
;
Structure prediction by ZEFSAII (Michael W. Deem and Ramdas Pophale) SiO2 
 PCOD9269813
Probable space group: C 2/C
;
_chemical_formula_sum "Si O2"
_cell_formula_units_Z 56
_cell_length_a 11.612037
_cell_length_b 15.663141
_cell_length_c 15.292196
_cell_angle_alpha 90.000000
_cell_angle_beta 68.135735
_cell_angle_gamma 90.000000
_cell_volume 2581.292691
_symmetry_space_group_name_H-M "C 2/C"
_symmetry_group_IT_number 15
_symmetry_cell_setting 'monoclinic'
loop_
_space_group_symop_operation_xyz
x,y,z
-x,y,1/2-z
-x,-y,-z
x,-y,1/2+z
1/2+x,1/2+y,z
1/2-x,1/2+y,1/2-z
1/2-x,1/2-y,-z
1/2+x,1/2-y,1/2+z
loop_
_atom_site_type_symbol
_atom_site_label
_atom_site_fract_x
_atom_site_fract_y
_atom_site_fract_z
Si Si1 0.488077 0.375738 0.350131
Si Si2 0.130964 0.438584 0.368458
Si Si3 0.920612 0.313839 0.857331
Si Si4 0.270428 0.566371 0.015359
Si Si5 0.656840 0.103570 0.561899
Si Si6 0.739512 0.806199 0.201964
Si Si7 0.335313 0.131350 0.137219
O O1 0.500000 0.417317 0.250000
O O2 0.410250 0.287961 0.356055
O O3 0.411398 0.425014 0.444817
O O4 0.621765 0.344791 0.343497
O O5 0.193460 0.431880 0.445690
O O6 0.176386 0.361203 0.295492
O O7 0.169231 0.534356 0.326762
O O8 0.982414 0.431977 0.410616
O O9 0.000000 0.341765 0.750000
O O10 0.020220 0.339482 0.903166
O O11 0.790754 0.359091 0.909927
O O12 0.238971 0.476876 0.068564
O O13 0.667130 0.174788 0.632779
O O14 0.703421 0.131511 0.453405
O O15 0.759545 0.704909 0.208832
#
# Coordination Sequence:
#
# PCOD9269813 Si02
#       7
#     8   8   8   8   8   8   8
#     4  10  21  39  58  89 130 172 204 265 328 388
#     4  11  21  40  68  93 124 169 221 267 324 387
#     4  10  20  34  61  94 123 160 220 272 319 374
#     4  11  20  38  63  91 126 166 212 267 323 381
#     4  11  22  39  66  92 129 169 218 271 323 389
#     4  11  24  39  66  95 131 171 216 266 328 398
#     4  10  21  41  62  93 130 168 207 272 335 369
#
# _framework density 21.694555000000001
#
# number of rings (size 3 to 8) (size 9 to 14) (size 15 to 20)
#    0.000    1.429    4.286    2.143    2.000    0.571 
#    0.000    0.000   15.714    0.000    0.000    0.000 
#    0.000    0.000    0.000    0.000    0.000    0.000 
#
# Total GULP energy -156345.862661 kJ/mol
# GULP energy per Si atom -5583.780809 kJ/mol
# Density = 2.164518 g / cm^3
# Si number density = 21.694555 Si / 1000 Ang^3
#
#
#
# Elastic Constant Matrix: (Units=GPa)
#
#
# Indices 1 2 3 4 5 6 
#
# 1 35.3364 3.6380 1.9514 0.0000 2.7983 0.0000
# 2 3.6380 105.1876 44.2943 0.0000 -8.6619 0.0000
# 3 1.9514 44.2943 65.3486 0.0000 -12.2482 0.0000
# 4 0.0000 0.0000 0.0000 30.0484 0.0000 -2.8519
# 5 2.7983 -8.6619 -12.2482 0.0000 33.5595 0.0000
# 6 0.0000 0.0000 0.0000 -2.8519 0.0000 23.9262
#
#
#
# Elastic Compliance Matrix: (Units=1/GPa)
#
#
# Indices 1 2 3 4 5 6 
#
# 1 0.028666 -0.000897 -0.000794 0.000000 -0.002911 0.000000
# 2 -0.000897 0.013333 -0.008965 0.000000 0.000244 0.000000
# 3 -0.000794 -0.008965 0.022522 0.000000 0.005972 0.000000
# 4 0.000000 0.000000 0.000000 0.033660 0.000000 0.004012
# 5 -0.002911 0.000244 0.005972 0.000000 0.032283 0.000000
# 6 0.000000 0.000000 0.000000 0.004012 0.000000 0.042273
#
#
# Mechanical properties :
#
#
# Convention : Reuss Voigt Hill
#
# Bulk Modulus (GPa) = 23.14261 33.96000 28.55130
# Shear Modulus (GPa) = 23.98628 27.90609 25.94618
#
# Velocity S-wave (km/s) = 3.32872 3.59042 3.46204
# Velocity P-wave (km/s) = 5.04623 5.73374 5.40094
#
# Compressibility (1/GPa) = 0.04321034
#
# Stress axis : x y z
#
# Youngs Moduli (GPa) = 34.88438 75.00195 44.40097
#
# Poissons Ratio (x) = 0.06727 0.03524
# Poissons Ratio (y) = 0.03129 0.39804
# Poissons Ratio (z) = 0.02769 0.67237
#
# Static dielectric constant tensor:
#      x y z
#    x 1.801820 0.000000 0.033700 
#    y 0.000000 1.811080 0.000000 
#    z 0.033700 0.000000 1.835320 
# 
# From -- ./inp_files/205024.got.cif
#   From: 2010.05.17/outbox.cif.g08.bks.cpg/sg15_103_cif.got.tgz:205024.got - 2010.06.03 18:47:42.
