data_PCOD9269658
_publ_section_title
;
Structure prediction by ZEFSAII (Michael W. Deem and Ramdas Pophale) SiO2 
 PCOD9269658
Probable space group: C 2/C
;
_chemical_formula_sum "Si O2"
_cell_formula_units_Z 48
_cell_length_a 13.666592
_cell_length_b 33.422575
_cell_length_c 5.690952
_cell_angle_alpha 90.000000
_cell_angle_beta 117.420902
_cell_angle_gamma 90.000000
_cell_volume 2307.414215
_symmetry_space_group_name_H-M "C 2/C"
_symmetry_group_IT_number 15
_symmetry_cell_setting 'monoclinic'
loop_
_space_group_symop_operation_xyz
x,y,z
-x,y,1/2-z
-x,-y,-z
x,-y,1/2+z
1/2+x,1/2+y,z
1/2-x,1/2+y,1/2-z
1/2-x,1/2-y,-z
1/2+x,1/2-y,1/2+z
loop_
_atom_site_type_symbol
_atom_site_label
_atom_site_fract_x
_atom_site_fract_y
_atom_site_fract_z
Si Si1 0.133006 0.480120 0.879238
Si Si2 0.885692 0.854432 0.504184
Si Si3 0.800421 0.782989 0.727836
Si Si4 0.313322 0.899269 0.367944
Si Si5 0.000000 0.200889 0.750000
Si Si6 0.110069 0.676793 0.261158
Si Si7 0.000000 0.378528 0.250000
O O1 0.167200 0.499822 0.668052
O O2 0.000000 0.479305 0.750000
O O3 0.177507 0.434825 0.938239
O O4 0.822496 0.823684 0.606107
O O5 0.807154 0.891742 0.367074
O O6 0.921338 0.828099 0.317507
O O7 0.000000 0.866646 0.750000
O O8 0.750000 0.750000 0.500000
O O9 0.703943 0.792098 0.804976
O O10 0.917867 0.775635 0.983834
O O11 0.342922 0.856398 0.511538
O O12 0.411730 0.905414 0.289893
O O13 0.000000 0.694572 0.250000
O O14 0.069637 0.650906 0.993743
#
# Coordination Sequence:
#
# PCOD9269658 Si02
#       7
#     8   8   8   8   4   8   4
#     4  10  23  38  60  98 143 183 216 265 338 412
#     4  10  22  42  65  92 118 165 222 274 322 385
#     4  11  23  43  65  93 126 167 215 277 336 402
#     4  11  21  38  65  91 128 172 216 271 320 396
#     4  10  22  46  64  88 122 163 226 265 334 396
#     4  10  21  38  61  93 123 164 212 268 328 391
#     4  10  20  34  58  94 124 159 218 259 318 394
#
# _framework density 20.802508
#
# number of rings (size 3 to 8) (size 9 to 14) (size 15 to 20)
#    0.000    1.667    3.333    1.500    5.833    0.667 
#    6.000    0.000    0.000    1.000    0.000    0.000 
#    0.000    0.000    0.000    0.000    0.000    0.000 
#
# Total GULP energy -134131.637438 kJ/mol
# GULP energy per Si atom -5588.818227 kJ/mol
# Density = 2.075516 g / cm^3
# Si number density = 20.802508 Si / 1000 Ang^3
#
#
#
# Elastic Constant Matrix: (Units=GPa)
#
#
# Indices 1 2 3 4 5 6 
#
# 1 102.9164 32.8847 33.3940 0.0000 8.4301 0.0000
# 2 32.8847 63.5061 22.8108 0.0000 2.7028 0.0000
# 3 33.3940 22.8108 99.7826 0.0000 10.6571 0.0000
# 4 0.0000 0.0000 0.0000 22.8823 0.0000 52.0902
# 5 8.4301 2.7028 10.6571 0.0000 29.7804 0.0000
# 6 0.0000 0.0000 0.0000 52.0902 0.0000 -111.9684
#
#
#
# Elastic Compliance Matrix: (Units=1/GPa)
#
#
# Indices 1 2 3 4 5 6 
#
# 1 0.012498 -0.005404 -0.002726 0.000000 -0.002072 0.000000
# 2 -0.005404 0.019493 -0.002726 0.000000 0.000736 0.000000
# 3 -0.002726 -0.002726 0.011903 0.000000 -0.003241 0.000000
# 4 0.000000 0.000000 0.000000 0.021224 0.000000 0.009874
# 5 -0.002072 0.000736 -0.003241 0.000000 0.035258 0.000000
# 6 0.000000 0.000000 0.000000 0.009874 0.000000 -0.004337
#
#
# Mechanical properties :
#
#
# Convention : Reuss Voigt Hill
#
# Bulk Modulus (GPa) = 45.08295 49.37599 47.22947
# Shear Modulus (GPa) = 39.95357 -0.05343 19.95007
#
# Velocity S-wave (km/s) = 4.38723 -0.16044 3.10017
# Velocity P-wave (km/s) = 6.88351 4.87368 5.96387
#
# Compressibility (1/GPa) = 0.02218134
#
# Stress axis : x y z
#
# Youngs Moduli (GPa) = 80.01537 51.30099 84.00991
#
# Poissons Ratio (x) = 0.27724 0.22900
# Poissons Ratio (y) = 0.43242 0.22902
# Poissons Ratio (z) = 0.21811 0.13985
#
# Static dielectric constant tensor:
#      x y z
#    x 1.775520 0.000000 -0.026320 
#    y 0.000000 1.714160 0.000000 
#    z -0.026320 0.000000 1.837490 
# 
# From -- ./inp_files/9183.got.cif
#   From: 2010.05.17/outbox.cif.g08.bks.cpg/sg15_5_cif.got.tgz:9183.got - 2010.06.03 18:47:42.
