data_PCOD9269273
_publ_section_title
;
Structure prediction by ZEFSAII (Michael W. Deem and Ramdas Pophale) SiO2 
 PCOD9269273
Probable space group: C 2/C
;
_chemical_formula_sum "Si O2"
_cell_formula_units_Z 36
_cell_length_a 25.625667
_cell_length_b 12.926310
_cell_length_c 25.387158
_cell_angle_alpha 90.000000
_cell_angle_beta 168.591432
_cell_angle_gamma 90.000000
_cell_volume 1663.407833
_symmetry_space_group_name_H-M "C 2/C"
_symmetry_group_IT_number 15
_symmetry_cell_setting 'monoclinic'
loop_
_space_group_symop_operation_xyz
x,y,z
-x,y,1/2-z
-x,-y,-z
x,-y,1/2+z
1/2+x,1/2+y,z
1/2-x,1/2+y,1/2-z
1/2-x,1/2-y,-z
1/2+x,1/2-y,1/2+z
loop_
_atom_site_type_symbol
_atom_site_label
_atom_site_fract_x
_atom_site_fract_y
_atom_site_fract_z
Si Si1 0.463162 0.987640 0.330631
Si Si2 0.141867 0.820560 0.963874
Si Si3 0.000000 0.446730 0.250000
Si Si4 0.704356 0.180634 0.267483
Si Si5 0.793433 0.325407 0.851066
O O1 0.560638 0.001834 0.365988
O O2 0.649584 0.921476 0.553908
O O3 0.379234 0.093168 0.274385
O O4 0.210858 0.912552 0.072292
O O5 0.856489 0.770945 0.684688
O O6 0.255332 0.873411 0.023087
O O7 0.996162 0.225111 0.565280
O O8 0.686866 0.138990 0.190332
O O9 0.023531 0.239889 0.087355
#
# Coordination Sequence:
#
# PCOD9269273 Si02
#       5
#     8   8   4   8   8
#     4  10  21  38  60  86 118 152 192 234 285 343
#     4  10  20  34  54  82 117 145 175 223 282 343
#     4   8  22  36  58  86 122 148 194 216 300 338
#     4  10  23  42  60  82 113 153 199 244 280 324
#     4  10  21  37  61  90 117 147 186 233 295 351
#
# _framework density 21.642319000000001
#
# number of rings (size 3 to 8) (size 9 to 14) (size 15 to 20)
#    1.333    0.889    0.000    2.667    0.000    3.556 
#    0.000    7.778    0.000    0.000    0.000    0.000 
#    0.000    0.000    0.000    0.000    0.000    0.000 
#
# Total GULP energy -100424.017792 kJ/mol
# GULP energy per Si atom -5579.112100 kJ/mol
# Density = 2.159306 g / cm^3
# Si number density = 21.642319 Si / 1000 Ang^3
#
#
#
# Elastic Constant Matrix: (Units=GPa)
#
#
# Indices 1 2 3 4 5 6 
#
# 1 145.8303 45.0167 -14.6855 0.3184 -11.3125 0.0987
# 2 45.0167 44.1345 -4.6185 0.4286 -5.1762 0.0749
# 3 -14.6855 -4.6185 70.4722 0.4630 10.3637 0.1778
# 4 0.3184 0.4286 0.4630 25.8992 0.0056 3.7665
# 5 -11.3125 -5.1762 10.3637 0.0056 26.1801 -0.0362
# 6 0.0987 0.0749 0.1778 3.7665 -0.0362 51.4664
#
#
#
# Elastic Compliance Matrix: (Units=1/GPa)
#
#
# Indices 1 2 3 4 5 6 
#
# 1 0.010245 -0.010096 0.001185 0.000021 0.001962 -0.000009
# 2 -0.010096 0.033203 -0.000264 -0.000422 0.002307 0.000004
# 3 0.001185 -0.000264 0.015241 -0.000276 -0.005574 -0.000038
# 4 0.000021 -0.000422 -0.000276 0.039038 0.000023 -0.002855
# 5 0.001962 0.002307 -0.005574 0.000023 0.041707 0.000040
# 6 -0.000009 0.000004 -0.000038 -0.002855 0.000040 0.019639
#
#
# Mechanical properties :
#
#
# Convention : Reuss Voigt Hill
#
# Bulk Modulus (GPa) = 24.79076 34.65138 29.72107
# Shear Modulus (GPa) = 26.19552 36.35743 31.27647
#
# Velocity S-wave (km/s) = 3.48283 4.10313 3.80564
# Velocity P-wave (km/s) = 5.25862 6.20430 5.75093
#
# Compressibility (1/GPa) = 0.04033761
#
# Stress axis : x y z
#
# Youngs Moduli (GPa) = 97.60478 30.11759 65.61194
#
# Poissons Ratio (x) = 0.30408 -0.07773
# Poissons Ratio (y) = 0.98545 0.01735
# Poissons Ratio (z) = -0.11563 0.00796
#
# Static dielectric constant tensor:
#      x y z
#    x 1.955900 -0.000030 -0.030150 
#    y -0.000030 1.729570 -0.000120 
#    z -0.030150 -0.000120 1.820980 
# 
# From -- ./inp_files/303381.got.cif
#   From: 2010.05.17/outbox.cif.g08.bks.cpg/sg15_152_cif.got.tgz:303381.got - 2010.06.03 18:47:42.
