data_PCOD9269606
_publ_section_title
;
Structure prediction by ZEFSAII (Michael W. Deem and Ramdas Pophale) SiO2 
 PCOD9269606
Probable space group: C 2/C
;
_chemical_formula_sum "Si O2"
_cell_formula_units_Z 60
_cell_length_a 22.672198
_cell_length_b 25.574533
_cell_length_c 8.826899
_cell_angle_alpha 90.000000
_cell_angle_beta 140.251045
_cell_angle_gamma 90.000000
_cell_volume 3272.646472
_symmetry_space_group_name_H-M "C 2/C"
_symmetry_group_IT_number 15
_symmetry_cell_setting 'monoclinic'
loop_
_space_group_symop_operation_xyz
x,y,z
-x,y,1/2-z
-x,-y,-z
x,-y,1/2+z
1/2+x,1/2+y,z
1/2-x,1/2+y,1/2-z
1/2-x,1/2-y,-z
1/2+x,1/2-y,1/2+z
loop_
_atom_site_type_symbol
_atom_site_label
_atom_site_fract_x
_atom_site_fract_y
_atom_site_fract_z
Si Si1 0.637448 0.517982 0.766145
Si Si2 0.821547 0.896874 0.702552
Si Si3 0.709144 0.617609 0.004856
Si Si4 0.182167 0.294041 0.934337
Si Si5 0.703867 0.197484 0.837738
Si Si6 0.986186 0.727753 0.901468
Si Si7 0.000000 0.992915 0.750000
Si Si8 0.505744 0.663417 0.584341
O O1 0.675229 0.458842 0.828495
O O2 0.563294 0.523505 0.756011
O O3 0.577835 0.534678 0.502429
O O4 0.714929 0.559723 0.949883
O O5 0.788434 0.886868 0.809248
O O6 0.762523 0.855184 0.488344
O O7 0.928950 0.880672 0.909923
O O8 0.785319 0.653210 0.081117
O O9 0.609394 0.643064 0.765323
O O10 0.077843 0.284840 0.677373
O O11 0.250000 0.250000 0.000000
O O12 0.193927 0.295097 0.138013
O O13 0.602548 0.196763 0.713121
O O14 0.750000 0.250000 0.000000
O O15 0.000000 0.719535 0.750000
O O16 0.975532 0.789410 0.916606
O O17 0.500000 0.680647 0.750000
#
# Coordination Sequence:
#
# PCOD9269606 Si02
#       8
#     8   8   8   8   8   8   4   8
#     4  11  22  38  56  87 130 166 210 253 306 363
#     4  11  23  39  60  87 127 169 210 253 303 365
#     4  11  23  39  60  87 127 169 210 253 303 365
#     4  12  25  42  63  91 123 162 208 256 309 370
#     4  12  25  42  63  91 123 162 208 256 309 370
#     4  12  24  42  63  89 124 161 206 257 311 369
#     4  10  20  36  58  86 128 170 208 248 304 372
#     4  10  20  34  58  86 124 168 204 252 301 354
#
# _framework density 18.333786
#
# number of rings (size 3 to 8) (size 9 to 14) (size 15 to 20)
#    0.000    0.800    4.000    5.200    3.733    0.000 
#    2.400    0.000    0.000    0.800    0.000    0.000 
#    0.000    0.000    0.000    0.000    0.000    0.000 
#
# Total GULP energy -167534.086304 kJ/mol
# GULP energy per Si atom -5584.469543 kJ/mol
# Density = 1.829206 g / cm^3
# Si number density = 18.333786 Si / 1000 Ang^3
#
#
#
# Elastic Constant Matrix: (Units=GPa)
#
#
# Indices 1 2 3 4 5 6 
#
# 1 86.2700 37.3229 36.2032 0.0000 -5.4817 0.0000
# 2 37.3229 106.1863 35.0921 0.0000 -2.8514 0.0000
# 3 36.2032 35.0921 96.0923 0.0000 -9.7745 0.0000
# 4 0.0000 0.0000 0.0000 26.6455 0.0000 4.1962
# 5 -5.4817 -2.8514 -9.7745 0.0000 33.9115 0.0000
# 6 0.0000 0.0000 0.0000 4.1962 0.0000 10.4724
#
#
#
# Elastic Compliance Matrix: (Units=1/GPa)
#
#
# Indices 1 2 3 4 5 6 
#
# 1 0.015085 -0.003901 -0.004166 0.000000 0.000910 0.000000
# 2 -0.003901 0.011721 -0.002858 0.000000 -0.000469 0.000000
# 3 -0.004166 -0.002858 0.013318 0.000000 0.002925 0.000000
# 4 0.000000 0.000000 0.000000 0.040058 0.000000 -0.016051
# 5 0.000910 -0.000469 0.002925 0.000000 0.030439 0.000000
# 6 0.000000 0.000000 0.000000 -0.016051 0.000000 0.101921
#
#
# Mechanical properties :
#
#
# Convention : Reuss Voigt Hill
#
# Bulk Modulus (GPa) = 54.72714 56.19832 55.46273
# Shear Modulus (GPa) = 20.79147 26.20122 23.49635
#
# Velocity S-wave (km/s) = 3.37122 3.78447 3.58381
# Velocity P-wave (km/s) = 6.71333 7.05803 6.88783
#
# Compressibility (1/GPa) = 0.01827247
#
# Stress axis : x y z
#
# Youngs Moduli (GPa) = 66.28923 85.32034 75.08820
#
# Poissons Ratio (x) = 0.33283 0.31284
# Poissons Ratio (y) = 0.25859 0.21462
# Poissons Ratio (z) = 0.27618 0.24387
#
# Static dielectric constant tensor:
#      x y z
#    x 1.693810 0.000000 -0.024820 
#    y 0.000000 1.652930 0.000000 
#    z -0.024820 0.000000 1.638950 
# 
# From -- ./inp_files/58771.got.cif
#   From: 2010.05.17/outbox.cif.g08.bks.cpg/sg15_30_cif.got.tgz:58771.got - 2010.06.03 18:47:42.
