data_PCOD9269046
_publ_section_title
;
Structure prediction by ZEFSAII (Michael W. Deem and Ramdas Pophale) SiO2 
 PCOD9269046
Probable space group: C 2/C
;
_chemical_formula_sum "Si O2"
_cell_formula_units_Z 44
_cell_length_a 9.590045
_cell_length_b 24.242150
_cell_length_c 9.293446
_cell_angle_alpha 90.000000
_cell_angle_beta 62.228927
_cell_angle_gamma 90.000000
_cell_volume 1911.708570
_symmetry_space_group_name_H-M "C 2/C"
_symmetry_group_IT_number 15
_symmetry_cell_setting 'monoclinic'
loop_
_space_group_symop_operation_xyz
x,y,z
-x,y,1/2-z
-x,-y,-z
x,-y,1/2+z
1/2+x,1/2+y,z
1/2-x,1/2+y,1/2-z
1/2-x,1/2-y,-z
1/2+x,1/2-y,1/2+z
loop_
_atom_site_type_symbol
_atom_site_label
_atom_site_fract_x
_atom_site_fract_y
_atom_site_fract_z
Si Si1 0.845193 0.027274 0.911284
Si Si2 0.500000 0.732062 0.750000
Si Si3 0.154719 0.101500 0.037964
Si Si4 0.807237 0.119323 0.165540
Si Si5 0.881707 0.582482 0.684902
Si Si6 0.341168 0.815845 0.015217
O O1 0.698195 0.035782 0.874636
O O2 0.000000 0.048249 0.750000
O O3 0.877343 0.964400 0.936219
O O4 0.809131 0.063401 0.069314
O O5 0.536227 0.768022 0.587417
O O6 0.328378 0.700810 0.829391
O O7 0.240825 0.113283 0.146480
O O8 0.991797 0.133007 0.094839
O O9 0.253972 0.109861 0.850358
O O10 0.712500 0.161657 0.115538
O O11 0.920027 0.633608 0.562430
O O12 0.000000 0.560162 0.750000
#
# Coordination Sequence:
#
# PCOD9269046 Si02
#       6
#     8   4   8   8   8   8
#     4  11  19  37  60  90 124 175 219 246 289 359
#     4  10  22  44  74  90 112 158 210 262 320 418
#     4  11  20  34  61  92 126 163 218 249 292 349
#     4  10  20  33  62  94 118 159 205 266 292 363
#     4  11  25  39  59  90 134 166 201 258 310 365
#     4  10  23  43  69  91 122 160 207 256 334 384
#
# _framework density 23.016062000000002
#
# number of rings (size 3 to 8) (size 9 to 14) (size 15 to 20)
#    0.000    1.455    3.636    2.727    5.091    0.727 
#    0.000    0.909   16.000    0.000    0.000    0.000 
#    0.000    0.000    0.000    0.000    0.000    0.000 
#
# Total GULP energy -122689.451832 kJ/mol
# GULP energy per Si atom -5576.793265 kJ/mol
# Density = 2.296368 g / cm^3
# Si number density = 23.016062 Si / 1000 Ang^3
#
#
#
# Elastic Constant Matrix: (Units=GPa)
#
#
# Indices 1 2 3 4 5 6 
#
# 1 117.6549 14.1353 30.0759 0.0000 16.8174 0.0000
# 2 14.1353 28.4095 6.4573 0.0000 4.4467 0.0000
# 3 30.0759 6.4573 80.1062 0.0000 11.9287 0.0000
# 4 0.0000 0.0000 0.0000 37.8803 0.0000 6.4130
# 5 16.8174 4.4467 11.9287 0.0000 50.1901 0.0000
# 6 0.0000 0.0000 0.0000 6.4130 0.0000 5.4021
#
#
#
# Elastic Compliance Matrix: (Units=1/GPa)
#
#
# Indices 1 2 3 4 5 6 
#
# 1 0.010103 -0.003956 -0.003133 0.000000 -0.002290 0.000000
# 2 -0.003956 0.037731 -0.001302 0.000000 -0.001708 0.000000
# 3 -0.003133 -0.001302 0.014090 0.000000 -0.002184 0.000000
# 4 0.000000 0.000000 0.000000 0.033039 0.000000 -0.039222
# 5 -0.002290 -0.001708 -0.002184 0.000000 0.021362 0.000000
# 6 0.000000 0.000000 0.000000 -0.039222 0.000000 0.231673
#
#
# Mechanical properties :
#
#
# Convention : Reuss Voigt Hill
#
# Bulk Modulus (GPa) = 22.15252 36.38971 29.27112
# Shear Modulus (GPa) = 13.16387 30.39466 21.77927
#
# Velocity S-wave (km/s) = 2.39413 3.63793 3.07948
# Velocity P-wave (km/s) = 4.15790 5.78713 5.03880
#
# Compressibility (1/GPa) = 0.04514158
#
# Stress axis : x y z
#
# Youngs Moduli (GPa) = 98.98021 26.50328 70.97287
#
# Poissons Ratio (x) = 0.10485 0.22238
# Poissons Ratio (y) = 0.39159 0.09239
# Poissons Ratio (z) = 0.31013 0.03450
#
# Static dielectric constant tensor:
#      x y z
#    x 1.953890 0.000000 -0.083630 
#    y 0.000000 1.871560 0.000000 
#    z -0.083630 0.000000 1.896810 
# 
# From -- ./inp_files/25475.got.cif
#   From: 2010.05.17/outbox.cif.g08.bks.cpg/sg15_13_cif.got.tgz:25475.got - 2010.06.03 18:47:42.
