data_PCOD9269445
_publ_section_title
;
Structure prediction by ZEFSAII (Michael W. Deem and Ramdas Pophale) SiO2 
 PCOD9269445
Probable space group: C 2/C
;
_chemical_formula_sum "Si O2"
_cell_formula_units_Z 56
_cell_length_a 28.222853
_cell_length_b 11.782810
_cell_length_c 8.695452
_cell_angle_alpha 90.000000
_cell_angle_beta 67.984889
_cell_angle_gamma 90.000000
_cell_volume 2680.782109
_symmetry_space_group_name_H-M "C 2/C"
_symmetry_group_IT_number 15
_symmetry_cell_setting 'monoclinic'
loop_
_space_group_symop_operation_xyz
x,y,z
-x,y,1/2-z
-x,-y,-z
x,-y,1/2+z
1/2+x,1/2+y,z
1/2-x,1/2+y,1/2-z
1/2-x,1/2-y,-z
1/2+x,1/2-y,1/2+z
loop_
_atom_site_type_symbol
_atom_site_label
_atom_site_fract_x
_atom_site_fract_y
_atom_site_fract_z
Si Si1 0.842025 0.414069 0.244680
Si Si2 0.452582 0.558844 0.201643
Si Si3 0.851552 0.345023 0.590755
Si Si4 0.585491 0.336183 0.337756
Si Si5 0.146596 0.014763 0.960144
Si Si6 0.266196 0.321595 0.127997
Si Si7 0.602032 0.287314 0.974617
O O1 0.847523 0.385159 0.418808
O O2 0.851239 0.545204 0.197952
O O3 0.786008 0.377013 0.250065
O O4 0.881132 0.332186 0.109829
O O5 0.500000 0.589194 0.250000
O O6 0.458164 0.433213 0.117905
O O7 0.404033 0.543893 0.378019
O O8 0.436792 0.651173 0.094803
O O9 0.901498 0.266040 0.561415
O O10 0.801467 0.265946 0.681028
O O11 0.633615 0.420399 0.315958
O O12 0.583806 0.281586 0.171651
O O13 0.196143 0.075441 0.963944
O O14 0.147896 0.881143 0.928112
O O15 0.250000 0.250000 0.000000
#
# Coordination Sequence:
#
# PCOD9269445 Si02
#       7
#     8   8   8   8   8   8   8
#     4  11  22  37  59  79 114 161 200 243 288 350
#     4  10  20  36  62  91 118 152 191 237 298 359
#     4  10  21  39  53  80 111 153 201 237 290 339
#     4   9  19  35  54  81 116 150 186 237 290 338
#     4   9  19  36  54  81 121 152 188 244 290 340
#     4   9  19  35  55  78 113 154 197 238 289 337
#     4  10  20  34  56  85 117 152 191 241 292 345
#
# _framework density 20.889426
#
# number of rings (size 3 to 8) (size 9 to 14) (size 15 to 20)
#    0.000    2.286    0.000    3.429    2.000    6.286 
#   15.429    3.571    0.000    0.857    0.000   13.000 
#    0.000    0.000    0.000    0.000    0.000    0.000 
#
# Total GULP energy -156012.521379 kJ/mol
# GULP energy per Si atom -5571.875764 kJ/mol
# Density = 2.084188 g / cm^3
# Si number density = 20.889426 Si / 1000 Ang^3
#
#
#
# Elastic Constant Matrix: (Units=GPa)
#
#
# Indices 1 2 3 4 5 6 
#
# 1 95.7960 38.5591 26.6547 0.0000 11.4785 0.0000
# 2 38.5591 128.2895 12.9038 0.0000 4.8614 0.0000
# 3 26.6547 12.9038 58.2782 0.0000 17.9318 0.0000
# 4 0.0000 0.0000 0.0000 33.8957 0.0000 6.8144
# 5 11.4785 4.8614 17.9318 0.0000 25.7718 0.0000
# 6 0.0000 0.0000 0.0000 6.8144 0.0000 33.0126
#
#
#
# Elastic Compliance Matrix: (Units=1/GPa)
#
#
# Indices 1 2 3 4 5 6 
#
# 1 0.013397 -0.003474 -0.004738 0.000000 -0.002015 0.000000
# 2 -0.003474 0.008876 -0.000429 0.000000 0.000172 0.000000
# 3 -0.004738 -0.000429 0.023854 0.000000 -0.014406 0.000000
# 4 0.000000 0.000000 0.000000 0.030780 0.000000 -0.006353
# 5 -0.002015 0.000172 -0.014406 0.000000 0.049691 0.000000
# 6 0.000000 0.000000 0.000000 -0.006353 0.000000 0.031603
#
#
# Mechanical properties :
#
#
# Convention : Reuss Voigt Hill
#
# Bulk Modulus (GPa) = 34.66927 48.73320 41.70124
# Shear Modulus (GPa) = 27.01295 32.15245 29.58270
#
# Velocity S-wave (km/s) = 3.59993 3.92749 3.76727
# Velocity P-wave (km/s) = 5.82339 6.62923 6.23933
#
# Compressibility (1/GPa) = 0.02884398
#
# Stress axis : x y z
#
# Youngs Moduli (GPa) = 74.64450 112.66843 41.92190
#
# Poissons Ratio (x) = 0.39137 0.19864
# Poissons Ratio (y) = 0.25929 0.01800
# Poissons Ratio (z) = 0.35368 0.04836
#
# Static dielectric constant tensor:
#      x y z
#    x 1.798760 0.000000 -0.011760 
#    y 0.000000 1.745250 0.000000 
#    z -0.011760 0.000000 1.844650 
# 
# From -- ./inp_files/69055.got.cif
#   From: 2010.05.17/outbox.cif.g08.bks.cpg/sg15_35_cif.got.tgz:69055.got - 2010.06.03 18:47:42.
