data_PCOD9269779
_publ_section_title
;
Structure prediction by ZEFSAII (Michael W. Deem and Ramdas Pophale) SiO2 
 PCOD9269779
Probable space group: C 2/C
;
_chemical_formula_sum "Si O2"
_cell_formula_units_Z 56
_cell_length_a 12.172021
_cell_length_b 24.896159
_cell_length_c 8.308864
_cell_angle_alpha 90.000000
_cell_angle_beta 67.183553
_cell_angle_gamma 90.000000
_cell_volume 2320.869506
_symmetry_space_group_name_H-M "C 2/C"
_symmetry_group_IT_number 15
_symmetry_cell_setting 'monoclinic'
loop_
_space_group_symop_operation_xyz
x,y,z
-x,y,1/2-z
-x,-y,-z
x,-y,1/2+z
1/2+x,1/2+y,z
1/2-x,1/2+y,1/2-z
1/2-x,1/2-y,-z
1/2+x,1/2-y,1/2+z
loop_
_atom_site_type_symbol
_atom_site_label
_atom_site_fract_x
_atom_site_fract_y
_atom_site_fract_z
Si Si1 0.741038 0.865260 0.012670
Si Si2 0.000000 0.982494 0.250000
Si Si3 0.500000 0.128866 0.750000
Si Si4 0.003509 0.840683 0.560800
Si Si5 0.425870 0.119611 0.451210
Si Si6 0.103595 0.745656 0.055939
Si Si7 0.675305 0.529505 0.897020
Si Si8 0.711736 0.593751 0.368999
O O1 0.854143 0.839639 0.039931
O O2 0.748947 0.872788 0.814343
O O3 0.618839 0.838566 0.137040
O O4 0.737793 0.926362 0.082366
O O5 0.927957 0.020616 0.412225
O O6 0.104801 0.951959 0.280192
O O7 0.472347 0.098640 0.596217
O O8 0.000000 0.854760 0.750000
O O9 0.934640 0.786009 0.562985
O O10 0.922288 0.886025 0.523913
O O11 0.500000 0.103141 0.250000
O O12 0.425873 0.184024 0.463462
O O13 0.293105 0.105315 0.475237
O O14 0.000000 0.760690 0.250000
O O15 0.250000 0.750000 0.000000
O O16 0.721308 0.469830 0.833078
#
# Coordination Sequence:
#
# PCOD9269779 Si02
#       8
#     8   4   4   8   8   8   8   8
#     4  11  25  45  66 102 141 184 242 287 353 432
#     4  10  20  34  60  93 138 168 223 290 342 414
#     4  12  28  46  72  99 138 190 245 288 350 430
#     4  10  23  42  73 105 139 180 234 296 364 431
#     4  11  25  48  70  98 145 189 234 299 353 419
#     4  11  25  46  69 105 142 180 236 290 368 434
#     4  11  22  39  62 100 134 188 229 285 351 420
#     4  11  22  45  69  98 146 184 223 304 361 407
#
# _framework density 24.128886999999999
#
# number of rings (size 3 to 8) (size 9 to 14) (size 15 to 20)
#    0.000    1.143    4.286    1.714    7.000    0.000 
#    3.857    2.857    0.000    0.000    0.000    0.000 
#    0.000    0.000    0.000    0.000    0.000    0.000 
#
# Total GULP energy -156200.801631 kJ/mol
# GULP energy per Si atom -5578.600058 kJ/mol
# Density = 2.407397 g / cm^3
# Si number density = 24.128887 Si / 1000 Ang^3
#
#
#
# Elastic Constant Matrix: (Units=GPa)
#
#
# Indices 1 2 3 4 5 6 
#
# 1 203.3378 20.4477 62.3371 0.0000 9.2632 0.0000
# 2 20.4477 42.8582 5.8712 0.0000 2.8014 0.0000
# 3 62.3371 5.8712 107.1683 0.0000 5.3944 0.0000
# 4 0.0000 0.0000 0.0000 27.2677 0.0000 -65.5566
# 5 9.2632 2.8014 5.3944 0.0000 60.3864 0.0000
# 6 0.0000 0.0000 0.0000 -65.5566 0.0000 1034.0099
#
#
#
# Elastic Compliance Matrix: (Units=1/GPa)
#
#
# Indices 1 2 3 4 5 6 
#
# 1 0.006257 -0.002474 -0.003477 0.000000 -0.000534 0.000000
# 2 -0.002474 0.024545 0.000133 0.000000 -0.000771 0.000000
# 3 -0.003477 0.000133 0.011371 0.000000 -0.000489 0.000000
# 4 0.000000 0.000000 0.000000 0.043269 0.000000 0.002743
# 5 -0.000534 -0.000771 -0.000489 0.000000 0.016721 0.000000
# 6 0.000000 0.000000 0.000000 0.002743 0.000000 0.001141
#
#
# Mechanical properties :
#
#
# Convention : Reuss Voigt Hill
#
# Bulk Modulus (GPa) = 32.74676 58.96403 45.85539
# Shear Modulus (GPa) = 39.96185 241.98001 140.97093
#
# Velocity S-wave (km/s) = 4.07404 10.02518 7.65186
# Velocity P-wave (km/s) = 5.97758 12.58951 9.85462
#
# Compressibility (1/GPa) = 0.03053738
#
# Stress axis : x y z
#
# Youngs Moduli (GPa) = 159.82011 40.74109 87.94327
#
# Poissons Ratio (x) = 0.10079 0.30579
# Poissons Ratio (y) = 0.39539 -0.01171
# Poissons Ratio (z) = 0.55571 -0.00543
#
# Static dielectric constant tensor:
#      x y z
#    x 1.969910 0.000000 -0.055890 
#    y 0.000000 1.889850 0.000000 
#    z -0.055890 0.000000 2.047810 
# 
# From -- ./inp_files/34247.got.cif
#   From: 2010.05.17/outbox.cif.g08.bks.cpg/sg15_18_cif.got.tgz:34247.got - 2010.06.03 18:47:42.
