data_PCOD9269624
_publ_section_title
;
Structure prediction by ZEFSAII (Michael W. Deem and Ramdas Pophale) SiO2 
 PCOD9269624
Probable space group: C 2/C
;
_chemical_formula_sum "Si O2"
_cell_formula_units_Z 60
_cell_length_a 16.821003
_cell_length_b 12.358785
_cell_length_c 14.881159
_cell_angle_alpha 90.000000
_cell_angle_beta 98.085827
_cell_angle_gamma 90.000000
_cell_volume 3062.846775
_symmetry_space_group_name_H-M "C 2/C"
_symmetry_group_IT_number 15
_symmetry_cell_setting 'monoclinic'
loop_
_space_group_symop_operation_xyz
x,y,z
-x,y,1/2-z
-x,-y,-z
x,-y,1/2+z
1/2+x,1/2+y,z
1/2-x,1/2+y,1/2-z
1/2-x,1/2-y,-z
1/2+x,1/2-y,1/2+z
loop_
_atom_site_type_symbol
_atom_site_label
_atom_site_fract_x
_atom_site_fract_y
_atom_site_fract_z
Si Si1 0.699258 0.472782 0.388865
Si Si2 0.500000 0.312764 0.250000
Si Si3 0.549594 0.613873 0.414179
Si Si4 0.764325 0.520052 0.104153
Si Si5 0.909378 0.960005 0.378227
Si Si6 0.642966 0.185052 0.920091
Si Si7 0.339290 0.238270 0.188404
Si Si8 0.793787 0.671655 0.376757
O O1 0.611844 0.531368 0.374893
O O2 0.730671 0.474558 0.496672
O O3 0.694686 0.352077 0.352100
O O4 0.760953 0.552401 0.349235
O O5 0.448787 0.388166 0.307708
O O6 0.434786 0.242394 0.186384
O O7 0.459660 0.571920 0.387013
O O8 0.572548 0.597196 0.522983
O O9 0.567742 0.736956 0.388574
O O10 0.685131 0.481169 0.145431
O O11 0.835326 0.430676 0.119016
O O12 0.795909 0.636643 0.136987
O O13 0.717873 0.260023 0.901032
O O14 0.647538 0.168765 0.028558
O O15 0.327438 0.224391 0.293123
#
# Coordination Sequence:
#
# PCOD9269624 Si02
#       8
#     8   4   8   8   8   8   8   8
#     4   9  19  38  56  87 115 154 192 246 282 342
#     4  12  24  36  56  86 124 144 190 240 296 330
#     4   9  17  35  61  84 112 147 195 235 285 336
#     4  10  22  37  60  84 120 154 197 229 292 350
#     4  10  20  34  58  89 110 147 192 245 280 333
#     4   9  17  36  57  83 112 155 187 237 281 353
#     4  12  23  35  59  86 118 153 188 245 289 347
#     4   9  19  32  58  83 113 145 202 232 284 335
#
# _framework density 19.589618999999999
#
# number of rings (size 3 to 8) (size 9 to 14) (size 15 to 20)
#    0.000    2.133    1.333    4.400    3.733    0.000 
#    0.000    0.000    2.933    2.400    0.000    0.000 
#    0.000    0.000    0.000    0.000    0.000    0.000 
#
# Total GULP energy -167412.232186 kJ/mol
# GULP energy per Si atom -5580.407740 kJ/mol
# Density = 1.954503 g / cm^3
# Si number density = 19.589619 Si / 1000 Ang^3
#
#
#
# Elastic Constant Matrix: (Units=GPa)
#
#
# Indices 1 2 3 4 5 6 
#
# 1 70.2328 58.7616 28.9591 0.0000 -8.8409 0.0000
# 2 58.7616 144.4061 27.6125 0.0000 -10.6033 0.0000
# 3 28.9591 27.6125 43.0182 0.0000 -12.8991 0.0000
# 4 0.0000 0.0000 0.0000 23.7267 0.0000 -0.1789
# 5 -8.8409 -10.6033 -12.8991 0.0000 19.7691 0.0000
# 6 0.0000 0.0000 0.0000 -0.1789 0.0000 36.6875
#
#
#
# Elastic Compliance Matrix: (Units=1/GPa)
#
#
# Indices 1 2 3 4 5 6 
#
# 1 0.026332 -0.008368 -0.012643 0.000000 -0.000962 0.000000
# 2 -0.008368 0.010574 -0.000716 0.000000 0.001462 0.000000
# 3 -0.012643 -0.000716 0.037802 0.000000 0.018627 0.000000
# 4 0.000000 0.000000 0.000000 0.042148 0.000000 0.000206
# 5 -0.000962 0.001462 0.018627 0.000000 0.063092 0.000000
# 6 0.000000 0.000000 0.000000 0.000206 0.000000 0.027258
#
#
# Mechanical properties :
#
#
# Convention : Reuss Voigt Hill
#
# Bulk Modulus (GPa) = 31.99592 54.25816 43.12704
# Shear Modulus (GPa) = 19.15137 25.52493 22.33815
#
# Velocity S-wave (km/s) = 3.13010 3.61360 3.38050
# Velocity P-wave (km/s) = 5.42512 6.72074 6.10738
#
# Compressibility (1/GPa) = 0.03125398
#
# Stress axis : x y z
#
# Youngs Moduli (GPa) = 37.97715 94.56967 26.45368
#
# Poissons Ratio (x) = 0.79135 0.33446
# Poissons Ratio (y) = 0.31779 0.01893
# Poissons Ratio (z) = 0.48015 0.06769
#
# Static dielectric constant tensor:
#      x y z
#    x 1.702570 0.000000 0.004430 
#    y 0.000000 1.699860 0.000000 
#    z 0.004430 0.000000 1.731850 
# 
# From -- ./inp_files/160940.got.cif
#   From: 2010.05.17/outbox.cif.g08.bks.cpg/sg15_81_cif.got.tgz:160940.got - 2010.06.03 18:47:42.
