data_PCOD9269429
_publ_section_title
;
Structure prediction by ZEFSAII (Michael W. Deem and Ramdas Pophale) SiO2 
 PCOD9269429
Probable space group: C 2/C
;
_chemical_formula_sum "Si O2"
_cell_formula_units_Z 48
_cell_length_a 8.180804
_cell_length_b 11.791025
_cell_length_c 22.331008
_cell_angle_alpha 90.000000
_cell_angle_beta 79.307033
_cell_angle_gamma 90.000000
_cell_volume 2116.646634
_symmetry_space_group_name_H-M "C 2/C"
_symmetry_group_IT_number 15
_symmetry_cell_setting 'monoclinic'
loop_
_space_group_symop_operation_xyz
x,y,z
-x,y,1/2-z
-x,-y,-z
x,-y,1/2+z
1/2+x,1/2+y,z
1/2-x,1/2+y,1/2-z
1/2-x,1/2-y,-z
1/2+x,1/2-y,1/2+z
loop_
_atom_site_type_symbol
_atom_site_label
_atom_site_fract_x
_atom_site_fract_y
_atom_site_fract_z
Si Si1 0.963005 0.681527 0.573582
Si Si2 0.920568 0.091183 0.370333
Si Si3 0.347705 0.608576 0.972906
Si Si4 0.264445 0.004483 0.813109
Si Si5 0.116445 0.511929 0.323922
Si Si6 0.707149 0.592136 0.941913
O O1 0.802906 0.683041 0.541849
O O2 0.910934 0.589724 0.627619
O O3 0.024614 0.795213 0.600565
O O4 0.131911 0.632919 0.533398
O O5 0.879337 0.992758 0.421764
O O6 0.755412 0.095863 0.340939
O O7 0.086559 0.055975 0.323131
O O8 0.534734 0.655913 0.966071
O O9 0.308714 0.539070 0.035990
O O10 0.313369 0.039462 0.742948
O O11 0.431936 0.937864 0.823575
O O12 0.240185 0.094932 0.868439
#
# Coordination Sequence:
#
# PCOD9269429 Si02
#       6
#     8   8   8   8   8   8
#     4  10  20  34  56  85 107 144 192 228 280 343
#     4  10  20  34  56  84 110 142 186 232 285 334
#     4   9  19  36  55  77 115 148 182 233 282 331
#     4   9  18  36  55  73 108 146 182 226 288 331
#     4   9  19  37  55  75 111 147 180 234 284 335
#     4   9  18  35  55  78 109 153 186 226 284 336
#
# _framework density 22.677381
#
# number of rings (size 3 to 8) (size 9 to 14) (size 15 to 20)
#    0.000    2.667    0.000    1.000    0.000    2.000 
#   12.000    7.500    7.333    0.000    0.000    0.000 
#    0.000    0.000    0.000    0.000    0.000    0.000 
#
# Total GULP energy -133801.753017 kJ/mol
# GULP energy per Si atom -5575.073042 kJ/mol
# Density = 2.262577 g / cm^3
# Si number density = 22.677381 Si / 1000 Ang^3
#
#
#
# Elastic Constant Matrix: (Units=GPa)
#
#
# Indices 1 2 3 4 5 6 
#
# 1 228.8768 59.2554 55.7106 0.0000 19.3719 0.0000
# 2 59.2554 51.9161 10.6248 0.0000 8.7062 0.0000
# 3 55.7106 10.6248 67.6266 0.0000 5.7450 0.0000
# 4 0.0000 0.0000 0.0000 13.8643 0.0000 10.2159
# 5 19.3719 8.7062 5.7450 0.0000 40.9031 0.0000
# 6 0.0000 0.0000 0.0000 10.2159 0.0000 34.4420
#
#
#
# Elastic Compliance Matrix: (Units=1/GPa)
#
#
# Indices 1 2 3 4 5 6 
#
# 1 0.007631 -0.007464 -0.005001 0.000000 -0.001323 0.000000
# 2 -0.007464 0.027818 0.002005 0.000000 -0.002668 0.000000
# 3 -0.005001 0.002005 0.018650 0.000000 -0.000678 0.000000
# 4 0.000000 0.000000 0.000000 0.092301 0.000000 -0.027378
# 5 -0.001323 -0.002668 -0.000678 0.000000 0.025737 0.000000
# 6 0.000000 0.000000 0.000000 -0.027378 0.000000 0.037155
#
#
# Mechanical properties :
#
#
# Convention : Reuss Voigt Hill
#
# Bulk Modulus (GPa) = 30.14030 66.62237 48.38134
# Shear Modulus (GPa) = 20.72344 32.69712 26.71028
#
# Velocity S-wave (km/s) = 3.02625 3.80127 3.43569
# Velocity P-wave (km/s) = 5.05279 6.97914 6.09258
#
# Compressibility (1/GPa) = 0.03317816
#
# Stress axis : x y z
#
# Youngs Moduli (GPa) = 131.04459 35.94730 53.62035
#
# Poissons Ratio (x) = 0.26833 0.26817
# Poissons Ratio (y) = 0.97817 -0.10752
# Poissons Ratio (z) = 0.65539 -0.07208
#
# Static dielectric constant tensor:
#      x y z
#    x 1.935710 0.000000 0.022420 
#    y 0.000000 1.902390 0.000000 
#    z 0.022420 0.000000 1.857950 
# 
# From -- ./inp_files/263727.got.cif
#   From: 2010.05.17/outbox.cif.g08.bks.cpg/sg15_132_cif.got.tgz:263727.got - 2010.06.03 18:47:42.
