data_PCOD9269011
_publ_section_title
;
Structure prediction by ZEFSAII (Michael W. Deem and Ramdas Pophale) SiO2 
 PCOD9269011
Probable space group: C 2/C
;
_chemical_formula_sum "Si O2"
_cell_formula_units_Z 44
_cell_length_a 12.404947
_cell_length_b 28.183642
_cell_length_c 8.551906
_cell_angle_alpha 90.000000
_cell_angle_beta 130.101936
_cell_angle_gamma 90.000000
_cell_volume 2286.964375
_symmetry_space_group_name_H-M "C 2/C"
_symmetry_group_IT_number 15
_symmetry_cell_setting 'monoclinic'
loop_
_space_group_symop_operation_xyz
x,y,z
-x,y,1/2-z
-x,-y,-z
x,-y,1/2+z
1/2+x,1/2+y,z
1/2-x,1/2+y,1/2-z
1/2-x,1/2-y,-z
1/2+x,1/2-y,1/2+z
loop_
_atom_site_type_symbol
_atom_site_label
_atom_site_fract_x
_atom_site_fract_y
_atom_site_fract_z
Si Si1 0.071763 0.225552 0.148075
Si Si2 0.500000 0.512274 0.750000
Si Si3 0.897412 0.067588 0.380032
Si Si4 0.379584 0.833707 0.353808
Si Si5 0.411109 0.645218 0.824962
Si Si6 0.809419 0.352070 0.923485
O O1 0.112395 0.276849 0.122707
O O2 0.209665 0.192495 0.288337
O O3 0.000000 0.233093 0.250000
O O4 0.959238 0.195049 0.945400
O O5 0.395906 0.545073 0.551562
O O6 0.582620 0.477101 0.713139
O O7 0.772814 0.101067 0.206456
O O8 0.034035 0.102641 0.512252
O O9 0.256622 0.854361 0.347583
O O10 0.539606 0.850598 0.518962
O O11 0.333841 0.847307 0.132968
O O12 0.500000 0.641129 0.750000
#
# Coordination Sequence:
#
# PCOD9269011 Si02
#       6
#     8   4   8   8   8   8
#     4  11  19  35  59  87 117 164 216 239 267 338
#     4  10  20  38  70  86 112 140 202 244 296 372
#     4  10  21  39  62  93 108 151 193 245 299 360
#     4  11  20  34  59  88 124 161 199 245 281 338
#     4  11  23  37  56  86 126 159 197 240 292 350
#     4  10  20  33  59  94 118 148 200 253 291 328
#
# _framework density 19.239477999999998
#
# number of rings (size 3 to 8) (size 9 to 14) (size 15 to 20)
#    0.000    1.455    4.545    2.727    2.545    0.727 
#    0.000    3.636    0.000   19.636    0.000    0.000 
#    0.000    0.000    0.000    0.000    0.000    0.000 
#
# Total GULP energy -122821.205620 kJ/mol
# GULP energy per Si atom -5582.782074 kJ/mol
# Density = 1.919569 g / cm^3
# Si number density = 19.239478 Si / 1000 Ang^3
#
#
#
# Elastic Constant Matrix: (Units=GPa)
#
#
# Indices 1 2 3 4 5 6 
#
# 1 90.9735 15.9512 5.0224 0.0000 28.8551 0.0000
# 2 15.9512 114.2591 29.5385 0.0000 8.3072 0.0000
# 3 5.0224 29.5385 38.0893 0.0000 17.1781 0.0000
# 4 0.0000 0.0000 0.0000 -19.7780 0.0000 22.7110
# 5 28.8551 8.3072 17.1781 0.0000 35.9692 0.0000
# 6 0.0000 0.0000 0.0000 22.7110 0.0000 -13.1600
#
#
#
# Elastic Compliance Matrix: (Units=1/GPa)
#
#
# Indices 1 2 3 4 5 6 
#
# 1 0.016091 -0.002985 0.007270 0.000000 -0.015691 0.000000
# 2 -0.002985 0.011608 -0.010807 0.000000 0.004875 0.000000
# 3 0.007270 -0.010807 0.044839 0.000000 -0.024750 0.000000
# 4 0.000000 0.000000 0.000000 0.051505 0.000000 0.088884
# 5 -0.015691 0.004875 -0.024750 0.000000 0.051083 0.000000
# 6 0.000000 0.000000 0.000000 0.088884 0.000000 0.077405
#
#
# Mechanical properties :
#
#
# Convention : Reuss Voigt Hill
#
# Bulk Modulus (GPa) = 16.80867 38.26066 27.53466
# Shear Modulus (GPa) = 17.51883 13.46023 15.48953
#
# Velocity S-wave (km/s) = 3.02083 2.64789 2.84049
# Velocity P-wave (km/s) = 4.57414 5.41093 5.01004
#
# Compressibility (1/GPa) = 0.05949310
#
# Stress axis : x y z
#
# Youngs Moduli (GPa) = 62.14588 86.14571 22.30217
#
# Poissons Ratio (x) = 0.25714 -0.16213
# Poissons Ratio (y) = 0.18550 0.24102
# Poissons Ratio (z) = -0.45178 0.93100
#
# Static dielectric constant tensor:
#      x y z
#    x 1.703250 0.000000 -0.039110 
#    y 0.000000 1.663370 0.000000 
#    z -0.039110 0.000000 1.701040 
# 
# From -- ./inp_files/33981.got.cif
#   From: 2010.05.17/outbox.cif.g08.bks.cpg/sg15_17_cif.got.tgz:33981.got - 2010.06.03 18:47:42.
