data_PCOD9269015
_publ_section_title
;
Structure prediction by ZEFSAII (Michael W. Deem and Ramdas Pophale) SiO2 
 PCOD9269015
Probable space group: C 2/C
;
_chemical_formula_sum "Si O2"
_cell_formula_units_Z 60
_cell_length_a 16.831702
_cell_length_b 8.831044
_cell_length_c 24.111257
_cell_angle_alpha 90.000000
_cell_angle_beta 114.427393
_cell_angle_gamma 90.000000
_cell_volume 3263.121401
_symmetry_space_group_name_H-M "C 2/C"
_symmetry_group_IT_number 15
_symmetry_cell_setting 'monoclinic'
loop_
_space_group_symop_operation_xyz
x,y,z
-x,y,1/2-z
-x,-y,-z
x,-y,1/2+z
1/2+x,1/2+y,z
1/2-x,1/2+y,1/2-z
1/2-x,1/2-y,-z
1/2+x,1/2-y,1/2+z
loop_
_atom_site_type_symbol
_atom_site_label
_atom_site_fract_x
_atom_site_fract_y
_atom_site_fract_z
Si Si1 0.000000 0.182816 0.750000
Si Si2 0.859266 0.950404 0.677141
Si Si3 0.498563 0.079322 0.339406
Si Si4 0.709372 0.823364 0.153708
Si Si5 0.740940 0.234180 0.063019
Si Si6 0.421335 0.955247 0.937055
Si Si7 0.192932 0.530340 0.359183
Si Si8 0.117877 0.669952 0.740698
O O1 0.066491 0.077104 0.802814
O O2 0.037928 0.295294 0.714147
O O3 0.777801 0.039294 0.680377
O O4 0.818231 0.872617 0.610666
O O5 0.894697 0.816367 0.725634
O O6 0.460861 0.103215 0.389866
O O7 0.603123 0.074788 0.364641
O O8 0.466160 0.916594 0.307290
O O9 0.632297 0.893957 0.094705
O O10 0.753545 0.681409 0.137179
O O11 0.674021 0.783237 0.203828
O O12 0.755178 0.400408 0.093105
O O13 0.649208 0.159291 0.055997
O O14 0.750000 0.250000 0.000000
O O15 0.500000 0.000000 0.000000
O O16 0.166730 0.451538 0.293564
#
# Coordination Sequence:
#
# PCOD9269015 Si02
#       8
#     4   8   8   8   8   8   8   8
#     4  12  22  36  58  96 132 156 210 256 324 378
#     4  10  22  35  58  91 125 157 205 258 310 374
#     4  11  21  38  63  89 128 163 201 258 314 379
#     4  10  20  38  59  90 118 159 202 253 307 373
#     4  10  23  43  65  86 121 167 219 259 315 381
#     4  10  23  44  63  87 120 164 210 263 314 365
#     4  11  20  37  61  89 118 161 204 249 314 370
#     4  10  20  33  60  86 126 160 198 240 315 369
#
# _framework density 18.387301000000001
#
# number of rings (size 3 to 8) (size 9 to 14) (size 15 to 20)
#    0.000    1.600    2.667    1.600    3.733    5.333 
#    2.400    2.667    0.000    0.000    0.000    0.000 
#    0.000    0.000    0.000    0.000    0.000    0.000 
#
# Total GULP energy -167390.080920 kJ/mol
# GULP energy per Si atom -5579.669364 kJ/mol
# Density = 1.834545 g / cm^3
# Si number density = 18.387301 Si / 1000 Ang^3
#
#
#
# Elastic Constant Matrix: (Units=GPa)
#
#
# Indices 1 2 3 4 5 6 
#
# 1 114.9607 62.1506 75.1078 0.0000 -9.1808 0.0000
# 2 62.1506 116.2754 57.0095 0.0000 -6.6352 0.0000
# 3 75.1078 57.0095 116.0730 0.0000 -18.7601 0.0000
# 4 0.0000 0.0000 0.0000 14.8318 0.0000 6.5112
# 5 -9.1808 -6.6352 -18.7601 0.0000 27.2625 0.0000
# 6 0.0000 0.0000 0.0000 6.5112 0.0000 29.5753
#
#
#
# Elastic Compliance Matrix: (Units=1/GPa)
#
#
# Indices 1 2 3 4 5 6 
#
# 1 0.016970 -0.004811 -0.008870 0.000000 -0.001560 0.000000
# 2 -0.004811 0.012727 -0.003262 0.000000 -0.000767 0.000000
# 3 -0.008870 -0.003262 0.017266 0.000000 0.008100 0.000000
# 4 0.000000 0.000000 0.000000 0.074636 0.000000 -0.016432
# 5 -0.001560 -0.000767 0.008100 0.000000 0.041543 0.000000
# 6 0.000000 0.000000 0.000000 -0.016432 0.000000 0.037430
#
#
# Mechanical properties :
#
#
# Convention : Reuss Voigt Hill
#
# Bulk Modulus (GPa) = 76.46663 81.76055 79.11359
# Shear Modulus (GPa) = 20.93648 24.53665 22.73657
#
# Velocity S-wave (km/s) = 3.37803 3.65695 3.52026
# Velocity P-wave (km/s) = 7.54266 7.89895 7.72286
#
# Compressibility (1/GPa) = 0.01307760
#
# Stress axis : x y z
#
# Youngs Moduli (GPa) = 58.92747 78.57140 57.91589
#
# Poissons Ratio (x) = 0.37798 0.51373
# Poissons Ratio (y) = 0.28348 0.18893
# Poissons Ratio (z) = 0.52270 0.25632
#
# Static dielectric constant tensor:
#      x y z
#    x 1.662710 0.000000 0.022630 
#    y 0.000000 1.622400 0.000000 
#    z 0.022630 0.000000 1.622130 
# 
# From -- ./inp_files/276327.got.cif
#   From: 2010.05.17/outbox.cif.g08.bks.cpg/sg15_139_cif.got.tgz:276327.got - 2010.06.03 18:47:42.
