data_PCOD9269174
_publ_section_title
;
Structure prediction by ZEFSAII (Michael W. Deem and Ramdas Pophale) SiO2 
 PCOD9269174
Probable space group: C 2/C
;
_chemical_formula_sum "Si O2"
_cell_formula_units_Z 64
_cell_length_a 19.961272
_cell_length_b 18.779549
_cell_length_c 11.794525
_cell_angle_alpha 90.000000
_cell_angle_beta 42.983383
_cell_angle_gamma 90.000000
_cell_volume 3014.408094
_symmetry_space_group_name_H-M "C 2/C"
_symmetry_group_IT_number 15
_symmetry_cell_setting 'monoclinic'
loop_
_space_group_symop_operation_xyz
x,y,z
-x,y,1/2-z
-x,-y,-z
x,-y,1/2+z
1/2+x,1/2+y,z
1/2-x,1/2+y,1/2-z
1/2-x,1/2-y,-z
1/2+x,1/2-y,1/2+z
loop_
_atom_site_type_symbol
_atom_site_label
_atom_site_fract_x
_atom_site_fract_y
_atom_site_fract_z
Si Si1 0.785323 0.701799 0.060324
Si Si2 0.192072 0.993001 0.361420
Si Si3 0.275746 0.458862 0.912607
Si Si4 0.280115 0.312553 0.377672
Si Si5 0.603729 0.377023 0.082644
Si Si6 0.007180 0.093214 0.372239
Si Si7 0.952585 0.755058 0.005678
Si Si8 0.124081 0.265218 0.427847
O O1 0.772416 0.619274 0.045378
O O2 0.894025 0.723350 0.971181
O O3 0.708745 0.725167 0.252214
O O4 0.750000 0.750000 0.000000
O O5 0.235133 0.975769 0.436769
O O6 0.095555 0.943015 0.465619
O O7 0.252402 0.995766 0.167640
O O8 0.151334 0.072912 0.431019
O O9 0.393814 0.452119 0.745379
O O10 0.250000 0.250000 0.500000
O O11 0.323925 0.374456 0.399835
O O12 0.367448 0.279781 0.195965
O O13 0.184684 0.325325 0.419759
O O14 0.500000 0.407918 0.250000
O O15 0.586884 0.296917 0.058831
O O16 0.012915 0.171638 0.416314
O O17 0.000000 0.109294 0.250000
O O18 0.034170 0.706482 0.964552
#
# Coordination Sequence:
#
# PCOD9269174 Si02
#       8
#     8   8   8   8   8   8   8   8
#     4  11  22  37  56  82 122 154 199 251 304 355
#     4  11  23  34  56  80 121 159 198 234 294 361
#     4  11  22  39  54  87 123 158 200 245 288 368
#     4   9  21  32  50  80 112 148 198 236 293 357
#     4  11  18  33  53  79 115 158 187 236 291 353
#     4  10  20  34  52  82 118 155 196 235 287 362
#     4  11  20  34  59  77 117 157 188 248 302 349
#     4  10  20  36  52  82 115 150 196 245 297 359
#
# _framework density 21.231365
#
# number of rings (size 3 to 8) (size 9 to 14) (size 15 to 20)
#    0.000    1.500    3.750    3.000    1.750    0.000 
#    0.000    0.000    0.000    0.000    0.000    0.875 
#    7.500    0.000    0.000    0.000    0.000    0.000 
#
# Total GULP energy -178321.976862 kJ/mol
# GULP energy per Si atom -5572.561777 kJ/mol
# Density = 2.118304 g / cm^3
# Si number density = 21.231365 Si / 1000 Ang^3
#
#
#
# Elastic Constant Matrix: (Units=GPa)
#
#
# Indices 1 2 3 4 5 6 
#
# 1 169.7566 29.5805 21.4094 0.0000 8.1511 0.0000
# 2 29.5805 56.7274 11.1583 0.0000 8.2170 0.0000
# 3 21.4094 11.1583 43.5345 0.0000 21.4876 0.0000
# 4 0.0000 0.0000 0.0000 19.2798 0.0000 14.1095
# 5 8.1511 8.2170 21.4876 0.0000 33.0881 0.0000
# 6 0.0000 0.0000 0.0000 14.1095 0.0000 24.3102
#
#
#
# Elastic Compliance Matrix: (Units=1/GPa)
#
#
# Indices 1 2 3 4 5 6 
#
# 1 0.006763 -0.003080 -0.003078 0.000000 0.001098 0.000000
# 2 -0.003080 0.020080 -0.002274 0.000000 -0.002751 0.000000
# 3 -0.003078 -0.002274 0.035931 0.000000 -0.022011 0.000000
# 4 0.000000 0.000000 0.000000 0.090166 0.000000 -0.052332
# 5 0.001098 -0.002751 -0.022011 0.000000 0.044929 0.000000
# 6 0.000000 0.000000 0.000000 -0.052332 0.000000 0.071508
#
#
# Mechanical properties :
#
#
# Convention : Reuss Voigt Hill
#
# Bulk Modulus (GPa) = 21.78226 43.81275 32.79751
# Shear Modulus (GPa) = 16.58125 29.19362 22.88744
#
# Velocity S-wave (km/s) = 2.79763 3.71215 3.28685
# Velocity P-wave (km/s) = 4.55164 6.24933 5.46679
#
# Compressibility (1/GPa) = 0.04590891
#
# Stress axis : x y z
#
# Youngs Moduli (GPa) = 147.86289 49.80055 27.83101
#
# Poissons Ratio (x) = 0.15339 0.08567
# Poissons Ratio (y) = 0.45543 0.06329
# Poissons Ratio (z) = 0.45518 0.11326
#
# Static dielectric constant tensor:
#      x y z
#    x 1.865860 0.000000 0.059230 
#    y 0.000000 1.783490 0.000000 
#    z 0.059230 0.000000 1.843010 
# 
# From -- ./inp_files/113649.got.cif
#   From: 2010.05.17/outbox.cif.g08.bks.cpg/sg15_57_cif.got.tgz:113649.got - 2010.06.03 18:47:42.
