data_PCOD9269267
_publ_section_title
;
Structure prediction by ZEFSAII (Michael W. Deem and Ramdas Pophale) SiO2 
 PCOD9269267
Probable space group: C 2/C
;
_chemical_formula_sum "Si O2"
_cell_formula_units_Z 56
_cell_length_a 27.884208
_cell_length_b 8.893537
_cell_length_c 11.247792
_cell_angle_alpha 90.000000
_cell_angle_beta 111.967964
_cell_angle_gamma 90.000000
_cell_volume 2586.806819
_symmetry_space_group_name_H-M "C 2/C"
_symmetry_group_IT_number 15
_symmetry_cell_setting 'monoclinic'
loop_
_space_group_symop_operation_xyz
x,y,z
-x,y,1/2-z
-x,-y,-z
x,-y,1/2+z
1/2+x,1/2+y,z
1/2-x,1/2+y,1/2-z
1/2-x,1/2-y,-z
1/2+x,1/2-y,1/2+z
loop_
_atom_site_type_symbol
_atom_site_label
_atom_site_fract_x
_atom_site_fract_y
_atom_site_fract_z
Si Si1 0.236093 0.275293 0.817961
Si Si2 0.349471 0.270428 0.977542
Si Si3 0.484196 0.330635 0.857990
Si Si4 0.267793 0.567401 0.109619
Si Si5 0.870370 0.802322 0.721038
Si Si6 0.668218 0.997196 0.889213
Si Si7 0.535207 0.652543 0.893433
O O1 0.288896 0.314753 0.943277
O O2 0.248682 0.321545 0.695898
O O3 0.229272 0.097400 0.826885
O O4 0.185634 0.368335 0.812312
O O5 0.354625 0.298954 0.843651
O O6 0.403636 0.332726 0.077849
O O7 0.350278 0.095054 0.013611
O O8 0.500000 0.243218 0.750000
O O9 0.425718 0.377372 0.771522
O O10 0.520528 0.476982 0.897448
O O11 0.478945 0.272090 0.990059
O O12 0.324183 0.610921 0.114156
O O13 0.223115 0.571348 0.971062
O O14 0.870328 0.628352 0.681989
O O15 0.500000 0.706665 0.750000
#
# Coordination Sequence:
#
# PCOD9269267 Si02
#       7
#     8   8   8   8   8   8   8
#     4  10  20  34  54  81 117 153 190 232 279 341
#     4   9  19  35  54  80 113 147 184 234 287 337
#     4   9  19  36  58  83 112 143 187 244 294 339
#     4  10  20  35  54  82 116 152 190 228 277 340
#     4  10  21  37  57  81 116 149 186 238 289 344
#     4  11  20  34  55  81 115 151 188 228 282 348
#     4   9  18  35  58  84 110 143 188 241 293 344
#
# _framework density 21.648311
#
# number of rings (size 3 to 8) (size 9 to 14) (size 15 to 20)
#    0.000    2.286    0.000    4.714    0.000    4.571 
#    0.000   10.714    0.000    5.143    0.000    0.000 
#    0.000    0.000    0.000    0.000    0.000    0.000 
#
# Total GULP energy -155881.067104 kJ/mol
# GULP energy per Si atom -5567.180968 kJ/mol
# Density = 2.159904 g / cm^3
# Si number density = 21.648311 Si / 1000 Ang^3
#
#
#
# Elastic Constant Matrix: (Units=GPa)
#
#
# Indices 1 2 3 4 5 6 
#
# 1 77.4682 14.4700 5.5782 0.0000 4.2974 0.0000
# 2 14.4700 61.1135 1.1523 0.0000 11.0150 0.0000
# 3 5.5782 1.1523 60.5382 0.0000 -3.0287 0.0000
# 4 0.0000 0.0000 0.0000 41.8906 0.0000 13.3198
# 5 4.2974 11.0150 -3.0287 0.0000 38.2224 0.0000
# 6 0.0000 0.0000 0.0000 13.3198 0.0000 40.8209
#
#
#
# Elastic Compliance Matrix: (Units=1/GPa)
#
#
# Indices 1 2 3 4 5 6 
#
# 1 0.013611 -0.003065 -0.001233 0.000000 -0.000745 0.000000
# 2 -0.003065 0.017970 -0.000303 0.000000 -0.004858 0.000000
# 3 -0.001233 -0.000303 0.016715 0.000000 0.001550 0.000000
# 4 0.000000 0.000000 0.000000 0.026635 0.000000 -0.008691
# 5 -0.000745 -0.004858 0.001550 0.000000 0.027769 0.000000
# 6 0.000000 0.000000 0.000000 -0.008691 0.000000 0.027333
#
#
# Mechanical properties :
#
#
# Convention : Reuss Voigt Hill
#
# Bulk Modulus (GPa) = 25.57897 26.83567 26.20732
# Shear Modulus (GPa) = 32.83688 36.04807 34.44248
#
# Velocity S-wave (km/s) = 3.89888 4.08507 3.99306
# Velocity P-wave (km/s) = 5.66654 5.88842 5.77855
#
# Compressibility (1/GPa) = 0.03909462
#
# Stress axis : x y z
#
# Youngs Moduli (GPa) = 73.46902 55.64812 59.82490
#
# Poissons Ratio (x) = 0.17058 0.07377
# Poissons Ratio (y) = 0.22520 0.01811
# Poissons Ratio (z) = 0.09059 0.01684
#
# Static dielectric constant tensor:
#      x y z
#    x 1.852220 0.000000 -0.020380 
#    y 0.000000 1.779960 0.000000 
#    z -0.020380 0.000000 1.838770 
# 
# From -- ./inp_files/125992.got.cif
#   From: 2010.05.17/outbox.cif.g08.bks.cpg/sg15_63_cif.got.tgz:125992.got - 2010.06.03 18:47:42.
