data_PCOD9269405
_publ_section_title
;
Structure prediction by ZEFSAII (Michael W. Deem and Ramdas Pophale) SiO2 
 PCOD9269405
Probable space group: C 2/C
;
_chemical_formula_sum "Si O2"
_cell_formula_units_Z 48
_cell_length_a 15.173028
_cell_length_b 13.264067
_cell_length_c 12.953127
_cell_angle_alpha 90.000000
_cell_angle_beta 68.048100
_cell_angle_gamma 90.000000
_cell_volume 2417.890211
_symmetry_space_group_name_H-M "C 2/C"
_symmetry_group_IT_number 15
_symmetry_cell_setting 'monoclinic'
loop_
_space_group_symop_operation_xyz
x,y,z
-x,y,1/2-z
-x,-y,-z
x,-y,1/2+z
1/2+x,1/2+y,z
1/2-x,1/2+y,1/2-z
1/2-x,1/2-y,-z
1/2+x,1/2-y,1/2+z
loop_
_atom_site_type_symbol
_atom_site_label
_atom_site_fract_x
_atom_site_fract_y
_atom_site_fract_z
Si Si1 0.506269 0.841373 0.864827
Si Si2 0.169673 0.239695 0.446640
Si Si3 0.291759 0.171145 0.795816
Si Si4 0.701333 0.864938 0.889019
Si Si5 0.606162 0.972325 0.124181
Si Si6 0.221885 0.962096 0.840186
O O1 0.500000 0.803900 0.750000
O O2 0.609127 0.825897 0.867571
O O3 0.483930 0.962548 0.869556
O O4 0.426042 0.789931 0.969472
O O5 0.250000 0.250000 0.500000
O O6 0.201061 0.294680 0.326075
O O7 0.155939 0.121748 0.420694
O O8 0.267105 0.267848 0.874714
O O9 0.388371 0.117011 0.793594
O O10 0.213309 0.082862 0.849402
O O11 0.759805 0.936823 0.786799
O O12 0.660412 0.924914 0.003250
O O13 0.677353 0.053830 0.144563
#
# Coordination Sequence:
#
# PCOD9269405 Si02
#       6
#     8   8   8   8   8   8
#     4  12  21  35  54  86 116 146 188 242 290 332
#     4  11  19  36  57  81 113 152 192 235 285 347
#     4   9  20  37  55  83 110 151 191 232 280 351
#     4  11  20  35  55  84 116 148 184 240 290 336
#     4  10  20  34  56  81 113 145 189 228 289 337
#     4   9  20  34  55  81 108 146 195 226 275 346
#
# _framework density 19.852017
#
# number of rings (size 3 to 8) (size 9 to 14) (size 15 to 20)
#    1.000    0.667    3.333    3.000    0.000    1.333 
#    0.000    0.833    0.000    0.000    0.000    0.000 
#    0.000    0.000    0.000    0.000    0.000    0.000 
#
# Total GULP energy -133612.155264 kJ/mol
# GULP energy per Si atom -5567.173136 kJ/mol
# Density = 1.980683 g / cm^3
# Si number density = 19.852017 Si / 1000 Ang^3
#
#
#
# Elastic Constant Matrix: (Units=GPa)
#
#
# Indices 1 2 3 4 5 6 
#
# 1 31.8067 -8.2416 -7.5555 0.0000 -4.1224 0.0000
# 2 -8.2416 71.9745 9.1017 0.0000 -9.5116 0.0000
# 3 -7.5555 9.1017 103.8608 0.0000 2.4442 0.0000
# 4 0.0000 0.0000 0.0000 30.8966 0.0000 -5.1298
# 5 -4.1224 -9.5116 2.4442 0.0000 21.4884 0.0000
# 6 0.0000 0.0000 0.0000 -5.1298 0.0000 25.8814
#
#
#
# Elastic Compliance Matrix: (Units=1/GPa)
#
#
# Indices 1 2 3 4 5 6 
#
# 1 0.034228 0.004804 0.001869 0.000000 0.008480 0.000000
# 2 0.004804 0.015652 -0.001210 0.000000 0.007988 0.000000
# 3 0.001869 -0.001210 0.009901 0.000000 -0.001303 0.000000
# 4 0.000000 0.000000 0.000000 0.033467 0.000000 0.006633
# 5 0.008480 0.007988 -0.001303 0.000000 0.051847 0.000000
# 6 0.000000 0.000000 0.000000 0.006633 0.000000 0.039953
#
#
# Mechanical properties :
#
#
# Convention : Reuss Voigt Hill
#
# Bulk Modulus (GPa) = 14.14289 21.58345 17.86317
# Shear Modulus (GPa) = 25.29186 29.94243 27.61715
#
# Velocity S-wave (km/s) = 3.57321 3.88787 3.73386
# Velocity P-wave (km/s) = 4.91563 5.57224 5.25420
#
# Compressibility (1/GPa) = 0.07070691
#
# Stress axis : x y z
#
# Youngs Moduli (GPa) = 29.21602 63.88764 101.00000
#
# Poissons Ratio (x) = -0.30689 -0.18881
# Poissons Ratio (y) = -0.14034 0.12223
# Poissons Ratio (z) = -0.05462 0.07732
#
# Static dielectric constant tensor:
#      x y z
#    x 1.686720 0.000000 0.007890 
#    y 0.000000 1.719200 0.000000 
#    z 0.007890 0.000000 1.752420 
# 
# From -- ./inp_files/96292.got.cif
#   From: 2010.05.17/outbox.cif.g08.bks.cpg/sg15_49_cif.got.tgz:96292.got - 2010.06.03 18:47:42.
