data_PCOD9269157
_publ_section_title
;
Structure prediction by ZEFSAII (Michael W. Deem and Ramdas Pophale) SiO2 
 PCOD9269157
Probable space group: C 2/C
;
_chemical_formula_sum "Si O2"
_cell_formula_units_Z 48
_cell_length_a 16.285168
_cell_length_b 9.531694
_cell_length_c 29.720514
_cell_angle_alpha 90.000000
_cell_angle_beta 29.102722
_cell_angle_gamma 90.000000
_cell_volume 2243.838436
_symmetry_space_group_name_H-M "C 2/C"
_symmetry_group_IT_number 15
_symmetry_cell_setting 'monoclinic'
loop_
_space_group_symop_operation_xyz
x,y,z
-x,y,1/2-z
-x,-y,-z
x,-y,1/2+z
1/2+x,1/2+y,z
1/2-x,1/2+y,1/2-z
1/2-x,1/2-y,-z
1/2+x,1/2-y,1/2+z
loop_
_atom_site_type_symbol
_atom_site_label
_atom_site_fract_x
_atom_site_fract_y
_atom_site_fract_z
Si Si1 0.024378 0.104493 0.095484
Si Si2 0.148354 0.588634 0.228297
Si Si3 0.401934 0.204620 0.460000
Si Si4 0.484019 0.078466 0.626675
Si Si5 0.601646 0.637844 0.794040
Si Si6 0.336605 0.553758 0.051974
O O1 0.836690 0.096863 0.161828
O O2 0.056403 0.265652 0.090905
O O3 0.008753 0.001442 0.145954
O O4 0.156991 0.036906 0.996942
O O5 0.043411 0.484515 0.310280
O O6 0.069430 0.744009 0.272169
O O7 0.185146 0.545169 0.159748
O O8 0.250000 0.250000 0.500000
O O9 0.423362 0.039001 0.447372
O O10 0.566699 0.275188 0.357389
O O11 0.367179 0.285074 0.522665
O O12 0.294117 0.092071 0.698364
O O13 0.500000 0.500000 0.000000
#
# Coordination Sequence:
#
# PCOD9269157 Si02
#       6
#     8   8   8   8   8   8
#     4   8  14  26  46  71  98 132 176 225 264 313
#     4   8  14  26  46  70  95 131 178 222 258 311
#     4  10  20  34  52  78 109 140 177 228 287 341
#     4   9  16  30  51  74 101 142 184 220 274 345
#     4   8  15  29  48  69  98 137 181 216 262 340
#     4   9  17  31  49  74 107 140 181 231 275 328
#
# _framework density 21.391915999999998
#
# number of rings (size 3 to 8) (size 9 to 14) (size 15 to 20)
#    0.000    3.333    0.000    2.000    0.000    0.000 
#    0.000   15.833    0.000    0.000    0.000    7.000 
#    0.000    0.000    0.000    0.000    0.000    0.000 
#
# Total GULP energy -133858.179989 kJ/mol
# GULP energy per Si atom -5577.424166 kJ/mol
# Density = 2.134323 g / cm^3
# Si number density = 21.391916 Si / 1000 Ang^3
#
#
#
# Elastic Constant Matrix: (Units=GPa)
#
#
# Indices 1 2 3 4 5 6 
#
# 1 50.5475 27.1841 27.0775 0.0001 2.2857 -0.0002
# 2 27.1841 215.2999 72.1126 0.0001 20.3142 -0.0001
# 3 27.0775 72.1126 130.8762 0.0000 9.4168 -0.0001
# 4 0.0001 0.0001 0.0000 38.8862 0.0000 6.3169
# 5 2.2857 20.3142 9.4168 0.0000 34.3492 0.0001
# 6 -0.0002 -0.0001 -0.0001 6.3169 0.0001 14.9121
#
#
#
# Elastic Compliance Matrix: (Units=1/GPa)
#
#
# Indices 1 2 3 4 5 6 
#
# 1 0.022690 -0.001628 -0.003833 0.000000 0.000504 0.000000
# 2 -0.001628 0.006042 -0.002798 0.000000 -0.002698 0.000000
# 3 -0.003833 -0.002798 0.010036 0.000000 -0.000842 0.000000
# 4 0.000000 0.000000 0.000000 0.027616 0.000000 -0.011699
# 5 0.000504 -0.002698 -0.000842 0.000000 0.030905 0.000000
# 6 0.000000 0.000000 0.000000 -0.011699 0.000000 0.072015
#
#
# Mechanical properties :
#
#
# Convention : Reuss Voigt Hill
#
# Bulk Modulus (GPa) = 44.94755 72.16355 58.55555
# Shear Modulus (GPa) = 25.87440 35.65280 30.76360
#
# Velocity S-wave (km/s) = 3.48162 4.08689 3.79634
# Velocity P-wave (km/s) = 6.10076 7.48849 6.82996
#
# Compressibility (1/GPa) = 0.02224815
#
# Stress axis : x y z
#
# Youngs Moduli (GPa) = 44.07262 165.50678 99.63911
#
# Poissons Ratio (x) = 0.26952 0.38195
# Poissons Ratio (y) = 0.07177 0.27880
# Poissons Ratio (z) = 0.16895 0.46311
#
# Static dielectric constant tensor:
#      x y z
#    x 1.803740 0.000000 -0.041140 
#    y 0.000000 1.787460 0.000000 
#    z -0.041140 0.000000 1.829850 
# 
# From -- ./inp_files/180906.got.cif
#   From: 2010.05.17/outbox.cif.g08.bks.cpg/sg15_91_cif.got.tgz:180906.got - 2010.06.03 18:47:42.
