data_PCOD9269792
_publ_section_title
;
Structure prediction by ZEFSAII (Michael W. Deem and Ramdas Pophale) SiO2 
 PCOD9269792
Probable space group: C 2/C
;
_chemical_formula_sum "Si O2"
_cell_formula_units_Z 60
_cell_length_a 12.626738
_cell_length_b 22.097408
_cell_length_c 12.870158
_cell_angle_alpha 90.000000
_cell_angle_beta 46.137696
_cell_angle_gamma 90.000000
_cell_volume 2589.142529
_symmetry_space_group_name_H-M "C 2/C"
_symmetry_group_IT_number 15
_symmetry_cell_setting 'monoclinic'
loop_
_space_group_symop_operation_xyz
x,y,z
-x,y,1/2-z
-x,-y,-z
x,-y,1/2+z
1/2+x,1/2+y,z
1/2-x,1/2+y,1/2-z
1/2-x,1/2-y,-z
1/2+x,1/2-y,1/2+z
loop_
_atom_site_type_symbol
_atom_site_label
_atom_site_fract_x
_atom_site_fract_y
_atom_site_fract_z
Si Si1 0.000000 0.323228 0.250000
Si Si2 0.655979 0.534617 0.404132
Si Si3 0.020217 0.860575 0.430380
Si Si4 0.509152 0.822892 0.850059
Si Si5 0.221006 0.790356 0.171679
Si Si6 0.742574 0.882184 0.845127
Si Si7 0.263600 0.915219 0.410108
Si Si8 0.062116 0.228232 0.347611
O O1 0.112607 0.371556 0.219542
O O2 0.945686 0.272578 0.371153
O O3 0.500000 0.500000 0.500000
O O4 0.616674 0.595511 0.494703
O O5 0.707716 0.560941 0.258832
O O6 0.765199 0.485714 0.379318
O O7 0.118142 0.847529 0.264457
O O8 0.116366 0.889284 0.457845
O O9 0.975907 0.797149 0.512788
O O10 0.500000 0.862044 0.750000
O O11 0.614331 0.767783 0.737123
O O12 0.600894 0.854408 0.881319
O O13 0.347407 0.805131 0.002645
O O14 0.304966 0.773633 0.221011
O O15 0.868803 0.829918 0.756225
O O16 0.726074 0.903091 0.974266
#
# Coordination Sequence:
#
# PCOD9269792 Si02
#       8
#     4   8   8   8   8   8   8   8
#     4  12  22  32  60 104 146 178 212 276 356 418
#     4   9  22  45  67  90 129 177 241 282 325 409
#     4  10  20  38  66  98 137 177 227 281 340 414
#     4  11  24  42  65  96 142 180 225 277 349 427
#     4  11  20  38  63  98 138 179 221 274 340 419
#     4  10  23  43  69  97 132 181 223 291 352 408
#     4  11  23  39  66  96 135 182 229 284 343 407
#     4  10  20  34  61 103 142 170 214 273 353 418
#
# _framework density 23.173694000000001
#
# number of rings (size 3 to 8) (size 9 to 14) (size 15 to 20)
#    0.000    1.600    2.667    2.000    1.867    5.333 
#    1.200    4.667    0.000    0.000    0.000    0.000 
#    0.000    0.000    0.000    0.000    0.000    0.000 
#
# Total GULP energy -167129.534597 kJ/mol
# GULP energy per Si atom -5570.984487 kJ/mol
# Density = 2.312095 g / cm^3
# Si number density = 23.173694 Si / 1000 Ang^3
#
#
#
# Elastic Constant Matrix: (Units=GPa)
#
#
# Indices 1 2 3 4 5 6 
#
# 1 83.6490 50.5550 19.1850 0.0000 5.7570 0.0000
# 2 50.5550 131.3434 59.6699 0.0000 6.3019 0.0000
# 3 19.1850 59.6699 100.9624 0.0000 3.6700 0.0000
# 4 0.0000 0.0000 0.0000 32.6534 0.0000 1.5449
# 5 5.7570 6.3019 3.6700 0.0000 28.6264 0.0000
# 6 0.0000 0.0000 0.0000 1.5449 0.0000 38.4576
#
#
#
# Elastic Compliance Matrix: (Units=1/GPa)
#
#
# Indices 1 2 3 4 5 6 
#
# 1 0.015725 -0.006338 0.000826 0.000000 -0.001873 0.000000
# 2 -0.006338 0.013028 -0.006468 0.000000 -0.000764 0.000000
# 3 0.000826 -0.006468 0.013588 0.000000 -0.000484 0.000000
# 4 0.000000 0.000000 0.000000 0.030683 0.000000 -0.001233
# 5 -0.001873 -0.000764 -0.000484 0.000000 0.035540 0.000000
# 6 0.000000 0.000000 0.000000 -0.001233 0.000000 0.026052
#
#
# Mechanical properties :
#
#
# Convention : Reuss Voigt Hill
#
# Bulk Modulus (GPa) = 54.40346 63.86384 59.13365
# Shear Modulus (GPa) = 30.35789 32.38380 31.37085
#
# Velocity S-wave (km/s) = 3.62334 3.74229 3.68329
# Velocity P-wave (km/s) = 6.40563 6.80379 6.60771
#
# Compressibility (1/GPa) = 0.01838118
#
# Stress axis : x y z
#
# Youngs Moduli (GPa) = 63.59456 76.75745 73.59541
#
# Poissons Ratio (x) = 0.48647 -0.06078
# Poissons Ratio (y) = 0.40305 0.47599
# Poissons Ratio (z) = -0.05252 0.49644
#
# Static dielectric constant tensor:
#      x y z
#    x 2.038190 0.000000 -0.001280 
#    y 0.000000 1.959180 0.000000 
#    z -0.001280 0.000000 1.929820 
# 
# From -- ./inp_files/156357.got.cif
#   From: 2010.05.17/outbox.cif.g08.bks.cpg/sg15_79_cif.got.tgz:156357.got - 2010.06.03 18:47:42.
