data_PCOD9269454
_publ_section_title
;
Structure prediction by ZEFSAII (Michael W. Deem and Ramdas Pophale) SiO2 
 PCOD9269454
Probable space group: C 2/C
;
_chemical_formula_sum "Si O2"
_cell_formula_units_Z 44
_cell_length_a 20.088747
_cell_length_b 12.237441
_cell_length_c 19.163107
_cell_angle_alpha 90.000000
_cell_angle_beta 21.783565
_cell_angle_gamma 90.000000
_cell_volume 1748.244141
_symmetry_space_group_name_H-M "C 2/C"
_symmetry_group_IT_number 15
_symmetry_cell_setting 'monoclinic'
loop_
_space_group_symop_operation_xyz
x,y,z
-x,y,1/2-z
-x,-y,-z
x,-y,1/2+z
1/2+x,1/2+y,z
1/2-x,1/2+y,1/2-z
1/2-x,1/2-y,-z
1/2+x,1/2-y,1/2+z
loop_
_atom_site_type_symbol
_atom_site_label
_atom_site_fract_x
_atom_site_fract_y
_atom_site_fract_z
Si Si1 0.337451 0.604683 0.854338
Si Si2 0.838170 0.482463 0.774480
Si Si3 0.000000 0.370886 0.750000
Si Si4 0.440140 0.679316 0.464224
Si Si5 0.679994 0.098941 0.450939
Si Si6 0.516170 0.615044 0.527955
O O1 0.500000 0.618188 0.750000
O O2 0.259850 0.480651 0.931758
O O3 0.409114 0.618137 0.705384
O O4 0.160803 0.676088 0.044507
O O5 0.563775 0.701820 0.948703
O O6 0.725391 0.390323 0.844531
O O7 0.887234 0.435376 0.801872
O O8 0.027869 0.526528 0.560623
O O9 0.414386 0.785941 0.442092
O O10 0.641559 0.636831 0.260699
O O11 0.294779 0.586425 0.588807
O O12 0.500000 0.500000 0.500000
#
# Coordination Sequence:
#
# PCOD9269454 Si02
#       6
#     8   8   4   8   8   8
#     4  11  20  39  60  88 122 160 198 245 294 361
#     4  10  20  36  55  82 112 160 196 239 291 353
#     4  10  20  34  56  86 118 148 206 232 296 364
#     4  11  21  38  52  87 123 161 194 247 294 350
#     4  11  21  35  59  79 125 157 197 237 294 364
#     4  10  20  38  60  83 125 154 202 253 296 343
#
# _framework density 25.168109999999999
#
# number of rings (size 3 to 8) (size 9 to 14) (size 15 to 20)
#    0.000    1.455    7.273    0.000    0.000    0.727 
#    4.909    2.727    0.000    0.000    0.000    1.273 
#    0.000    0.000    0.000    0.000    0.000    0.000 
#
# Total GULP energy -122619.565404 kJ/mol
# GULP energy per Si atom -5573.616609 kJ/mol
# Density = 2.511083 g / cm^3
# Si number density = 25.168110 Si / 1000 Ang^3
#
#
#
# Elastic Constant Matrix: (Units=GPa)
#
#
# Indices 1 2 3 4 5 6 
#
# 1 114.7567 23.5876 38.5679 0.0001 -11.9094 -0.0005
# 2 23.5876 83.0928 21.5455 -0.0058 -6.6731 0.0003
# 3 38.5679 21.5455 183.4165 -0.0024 -9.5523 0.0001
# 4 0.0001 -0.0058 -0.0024 5.0095 -0.0001 -2.5400
# 5 -11.9094 -6.6731 -9.5523 -0.0001 43.0644 0.0005
# 6 -0.0005 0.0003 0.0001 -2.5400 0.0005 22.8153
#
#
#
# Elastic Compliance Matrix: (Units=1/GPa)
#
#
# Indices 1 2 3 4 5 6 
#
# 1 0.009961 -0.002217 -0.001729 -0.000004 0.002028 0.000000
# 2 -0.002217 0.013019 -0.001002 0.000015 0.001182 0.000001
# 3 -0.001729 -0.001002 0.005969 0.000002 0.000691 0.000000
# 4 -0.000004 0.000015 0.000002 0.211563 0.000002 0.023553
# 5 0.002028 0.001182 0.000691 0.000002 0.024118 0.000000
# 6 0.000000 0.000001 0.000000 0.023553 0.000000 0.046452
#
#
# Mechanical properties :
#
#
# Convention : Reuss Voigt Hill
#
# Bulk Modulus (GPa) = 52.47879 60.96312 56.72096
# Shear Modulus (GPa) = 15.27521 34.01551 24.64536
#
# Velocity S-wave (km/s) = 2.46626 3.68031 3.13266
# Velocity P-wave (km/s) = 5.38577 6.50650 5.97248
#
# Compressibility (1/GPa) = 0.01905532
#
# Stress axis : x y z
#
# Youngs Moduli (GPa) = 100.39059 76.81313 167.52707
#
# Poissons Ratio (x) = 0.17026 0.28958
# Poissons Ratio (y) = 0.22253 0.16780
# Poissons Ratio (z) = 0.17353 0.07694
#
# Static dielectric constant tensor:
#      x y z
#    x 1.991320 0.000000 0.054670 
#    y 0.000000 2.134310 0.000000 
#    z 0.054670 0.000000 2.059460 
# 
# From -- ./inp_files/253203.got.cif
#   From: 2010.05.17/outbox.cif.g08.bks.cpg/sg15_127_cif.got.tgz:253203.got - 2010.06.03 18:47:42.
