data_PCOD9269555
_publ_section_title
;
Structure prediction by ZEFSAII (Michael W. Deem and Ramdas Pophale) SiO2 
 PCOD9269555
Probable space group: C 2/C
;
_chemical_formula_sum "Si O2"
_cell_formula_units_Z 60
_cell_length_a 10.345738
_cell_length_b 21.282059
_cell_length_c 14.002264
_cell_angle_alpha 90.000000
_cell_angle_beta 71.090115
_cell_angle_gamma 90.000000
_cell_volume 2916.607858
_symmetry_space_group_name_H-M "C 2/C"
_symmetry_group_IT_number 15
_symmetry_cell_setting 'monoclinic'
loop_
_space_group_symop_operation_xyz
x,y,z
-x,y,1/2-z
-x,-y,-z
x,-y,1/2+z
1/2+x,1/2+y,z
1/2-x,1/2+y,1/2-z
1/2-x,1/2-y,-z
1/2+x,1/2-y,1/2+z
loop_
_atom_site_type_symbol
_atom_site_label
_atom_site_fract_x
_atom_site_fract_y
_atom_site_fract_z
Si Si1 0.000000 0.186281 0.750000
Si Si2 0.734593 0.035247 0.359645
Si Si3 0.710003 0.142646 0.637888
Si Si4 0.231525 0.386938 0.347626
Si Si5 0.961096 0.622498 0.004574
Si Si6 0.184693 0.730520 0.339566
Si Si7 0.121972 0.865908 0.798307
Si Si8 0.559693 0.567632 0.015982
O O1 0.879759 0.143838 0.822817
O O2 0.929141 0.230482 0.689223
O O3 0.586490 0.060825 0.426343
O O4 0.788845 0.073984 0.256050
O O5 0.837582 0.053975 0.420457
O O6 0.740232 0.961786 0.343991
O O7 0.677321 0.134172 0.756616
O O8 0.601968 0.119029 0.586627
O O9 0.733692 0.217168 0.620090
O O10 0.848921 0.103226 0.584275
O O11 0.121804 0.368718 0.454225
O O12 0.883904 0.678641 0.077148
O O13 0.282688 0.694598 0.240455
O O14 0.000000 0.858343 0.750000
O O15 0.053816 0.884529 0.914786
O O16 0.500000 0.500000 0.000000
#
# Coordination Sequence:
#
# PCOD9269555 Si02
#       8
#     4   8   8   8   8   8   8   8
#     4  10  26  38  56  88 118 172 194 242 296 382
#     4   9  20  36  60  86 118 149 198 248 303 362
#     4  10  22  36  59  91 116 151 204 256 289 354
#     4  11  22  38  61  83 124 159 195 244 310 358
#     4  10  21  40  62  87 115 159 199 257 296 352
#     4  10  22  41  57  85 126 150 209 239 298 367
#     4   9  19  36  62  85 111 156 191 251 307 343
#     4  10  20  34  57  92 119 150 204 247 303 357
#
# _framework density 20.571843000000001
#
# number of rings (size 3 to 8) (size 9 to 14) (size 15 to 20)
#    0.000    2.133    0.000    2.800    6.533    4.800 
#    2.400    0.000   11.733    0.000    0.000    0.000 
#    0.000    0.000    0.000    0.000    0.000    0.000 
#
# Total GULP energy -167503.074775 kJ/mol
# GULP energy per Si atom -5583.435826 kJ/mol
# Density = 2.052502 g / cm^3
# Si number density = 20.571843 Si / 1000 Ang^3
#
#
#
# Elastic Constant Matrix: (Units=GPa)
#
#
# Indices 1 2 3 4 5 6 
#
# 1 57.9381 16.5517 27.9209 0.0000 -30.4438 0.0000
# 2 16.5517 108.7219 21.8753 0.0000 -21.7545 0.0000
# 3 27.9209 21.8753 74.2288 0.0000 -35.9069 0.0000
# 4 0.0000 0.0000 0.0000 29.4470 0.0000 -2.5362
# 5 -30.4438 -21.7545 -35.9069 0.0000 34.7639 0.0000
# 6 0.0000 0.0000 0.0000 -2.5362 0.0000 22.9329
#
#
#
# Elastic Compliance Matrix: (Units=1/GPa)
#
#
# Indices 1 2 3 4 5 6 
#
# 1 0.032389 0.000870 0.003087 0.000000 0.032097 0.000000
# 2 0.000870 0.010539 0.000251 0.000000 0.007617 0.000000
# 3 0.003087 0.000251 0.027221 0.000000 0.030977 0.000000
# 4 0.000000 0.000000 0.000000 0.034286 0.000000 0.003792
# 5 0.032097 0.007617 0.030977 0.000000 0.093635 0.000000
# 6 0.000000 0.000000 0.000000 0.003792 0.000000 0.044025
#
#
# Mechanical properties :
#
#
# Convention : Reuss Voigt Hill
#
# Bulk Modulus (GPa) = 12.72816 41.50939 27.11878
# Shear Modulus (GPa) = 19.24067 29.06483 24.15275
#
# Velocity S-wave (km/s) = 3.06157 3.76286 3.43019
# Velocity P-wave (km/s) = 4.32415 6.25303 5.37581
#
# Compressibility (1/GPa) = 0.07856596
#
# Stress axis : x y z
#
# Youngs Moduli (GPa) = 30.87466 94.88784 36.73627
#
# Poissons Ratio (x) = -0.08260 -0.11340
# Poissons Ratio (y) = -0.02687 -0.00923
# Poissons Ratio (z) = -0.09531 -0.02384
#
# Static dielectric constant tensor:
#      x y z
#    x 1.754090 0.000000 -0.022820 
#    y 0.000000 1.718640 0.000000 
#    z -0.022820 0.000000 1.737290 
# 
# From -- ./inp_files/147099.got.cif
#   From: 2010.05.17/outbox.cif.g08.bks.cpg/sg15_74_cif.got.tgz:147099.got - 2010.06.03 18:47:42.
