data_PCOD9269053
_publ_section_title
;
Structure prediction by ZEFSAII (Michael W. Deem and Ramdas Pophale) SiO2 
 PCOD9269053
Probable space group: C 2/C
;
_chemical_formula_sum "Si O2"
_cell_formula_units_Z 44
_cell_length_a 7.776766
_cell_length_b 31.066706
_cell_length_c 9.297083
_cell_angle_alpha 90.000000
_cell_angle_beta 117.535433
_cell_angle_gamma 90.000000
_cell_volume 1991.727652
_symmetry_space_group_name_H-M "C 2/C"
_symmetry_group_IT_number 15
_symmetry_cell_setting 'monoclinic'
loop_
_space_group_symop_operation_xyz
x,y,z
-x,y,1/2-z
-x,-y,-z
x,-y,1/2+z
1/2+x,1/2+y,z
1/2-x,1/2+y,1/2-z
1/2-x,1/2-y,-z
1/2+x,1/2-y,1/2+z
loop_
_atom_site_type_symbol
_atom_site_label
_atom_site_fract_x
_atom_site_fract_y
_atom_site_fract_z
Si Si1 0.500000 0.343813 0.250000
Si Si2 0.404731 0.273643 0.410531
Si Si3 0.000000 0.417107 0.250000
Si Si4 0.500000 0.766244 0.250000
Si Si5 0.500000 0.048668 0.250000
Si Si6 0.845606 0.984941 0.320142
Si Si7 0.500000 0.194686 0.250000
Si Si8 0.391911 0.879762 0.484151
O O1 0.536346 0.309761 0.393338
O O2 0.686144 0.373029 0.329595
O O3 0.463323 0.261601 0.593107
O O4 0.192237 0.293643 0.313463
O O5 0.391634 0.230352 0.309112
O O6 0.804769 0.446098 0.198865
O O7 0.033816 0.388950 0.406115
O O8 0.596279 0.079006 0.407725
O O9 0.676417 0.022037 0.243577
O O10 0.000000 0.977326 0.250000
O O11 0.000000 0.000000 0.500000
O O12 0.567393 0.161444 0.399540
#
# Coordination Sequence:
#
# PCOD9269053 Si02
#       8
#     4   8   4   4   4   8   4   8
#     4  11  24  39  64  89 126 189 226 276 346 401
#     4  10  21  40  62  92 122 174 243 274 333 409
#     4  11  26  42  66 107 136 172 230 277 330 421
#     4  10  20  33  64  89 124 150 222 316 322 381
#     4  10  24  45  66 105 140 176 228 274 336 418
#     4  11  23  43  77 100 134 182 222 275 333 403
#     4  10  22  41  64  86 132 185 218 287 342 397
#     4  11  24  42  63  94 142 175 219 287 346 397
#
# _framework density 22.091372
#
# number of rings (size 3 to 8) (size 9 to 14) (size 15 to 20)
#    0.000    1.455    0.000    4.364    3.818   10.182 
#    0.000    0.000    4.000    0.000    0.000    0.000 
#    0.000    0.000    0.000    0.000    0.000    0.000 
#
# Total GULP energy -122470.092029 kJ/mol
# GULP energy per Si atom -5566.822365 kJ/mol
# Density = 2.204109 g / cm^3
# Si number density = 22.091372 Si / 1000 Ang^3
#
#
#
# Elastic Constant Matrix: (Units=GPa)
#
#
# Indices 1 2 3 4 5 6 
#
# 1 146.7553 70.3161 59.8744 0.0000 -2.4902 0.0000
# 2 70.3161 117.4895 45.0759 0.0000 5.1704 0.0000
# 3 59.8744 45.0759 116.9196 0.0000 -16.7930 0.0000
# 4 0.0000 0.0000 0.0000 16.9114 0.0000 -19.2081
# 5 -2.4902 5.1704 -16.7930 0.0000 39.7176 0.0000
# 6 0.0000 0.0000 0.0000 -19.2081 0.0000 46.1257
#
#
#
# Elastic Compliance Matrix: (Units=1/GPa)
#
#
# Indices 1 2 3 4 5 6 
#
# 1 0.010661 -0.005009 -0.003555 0.000000 -0.000183 0.000000
# 2 -0.005009 0.012718 -0.002791 0.000000 -0.003150 0.000000
# 3 -0.003555 -0.002791 0.012211 0.000000 0.005303 0.000000
# 4 0.000000 0.000000 0.000000 0.112201 0.000000 0.046724
# 5 -0.000183 -0.003150 0.005303 0.000000 0.027819 0.000000
# 6 0.000000 0.000000 0.000000 0.046724 0.000000 0.041137
#
#
# Mechanical properties :
#
#
# Convention : Reuss Voigt Hill
#
# Bulk Modulus (GPa) = 77.62784 81.29970 79.46377
# Shear Modulus (GPa) = 20.51287 34.27747 27.39517
#
# Velocity S-wave (km/s) = 3.05051 3.94334 3.52530
# Velocity P-wave (km/s) = 6.90096 7.59043 7.25389
#
# Compressibility (1/GPa) = 0.01288198
#
# Stress axis : x y z
#
# Youngs Moduli (GPa) = 93.79859 78.62661 81.89419
#
# Poissons Ratio (x) = 0.39382 0.29112
# Poissons Ratio (y) = 0.46981 0.22854
# Poissons Ratio (z) = 0.33343 0.21942
#
# Static dielectric constant tensor:
#      x y z
#    x 1.978290 0.000000 -0.034640 
#    y 0.000000 1.793970 0.000000 
#    z -0.034640 0.000000 1.808630 
# 
# From -- ./inp_files/26310.got.cif
#   From: 2010.05.17/outbox.cif.g08.bks.cpg/sg15_14_cif.got.tgz:26310.got - 2010.06.03 18:47:42.
