data_PCOD9269202
_publ_section_title
;
Structure prediction by ZEFSAII (Michael W. Deem and Ramdas Pophale) SiO2 
 PCOD9269202
Probable space group: C 2/C
;
_chemical_formula_sum "Si O2"
_cell_formula_units_Z 56
_cell_length_a 13.832519
_cell_length_b 28.535820
_cell_length_c 7.283315
_cell_angle_alpha 90.000000
_cell_angle_beta 125.047032
_cell_angle_gamma 90.000000
_cell_volume 2353.614904
_symmetry_space_group_name_H-M "C 2/C"
_symmetry_group_IT_number 15
_symmetry_cell_setting 'monoclinic'
loop_
_space_group_symop_operation_xyz
x,y,z
-x,y,1/2-z
-x,-y,-z
x,-y,1/2+z
1/2+x,1/2+y,z
1/2-x,1/2+y,1/2-z
1/2-x,1/2-y,-z
1/2+x,1/2-y,1/2+z
loop_
_atom_site_type_symbol
_atom_site_label
_atom_site_fract_x
_atom_site_fract_y
_atom_site_fract_z
Si Si1 0.635895 0.437349 0.951273
Si Si2 0.137086 0.038212 0.877520
Si Si3 0.218429 0.384111 0.829102
Si Si4 0.203243 0.625751 0.724875
Si Si5 0.356695 0.218996 0.318600
Si Si6 0.999873 0.555245 0.533152
Si Si7 0.121869 0.274170 0.103647
O O1 0.500000 0.431030 0.750000
O O2 0.692708 0.486169 0.944032
O O3 0.644654 0.443499 0.180398
O O4 0.712210 0.390395 0.016827
O O5 0.000000 0.027989 0.750000
O O6 0.176492 0.076572 0.071480
O O7 0.174022 0.336150 0.686458
O O8 0.108401 0.419049 0.682268
O O9 0.250954 0.365400 0.070449
O O10 0.137067 0.673386 0.696602
O O11 0.115567 0.582454 0.595930
O O12 0.242309 0.245577 0.275445
O O13 0.487356 0.237904 0.518719
O O14 0.370602 0.224904 0.111664
O O15 0.000000 0.563243 0.750000
O O16 0.000000 0.500000 0.500000
#
# Coordination Sequence:
#
# PCOD9269202 Si02
#       7
#     8   8   8   8   8   8   8
#     4  10  20  34  55  79 113 154 197 238 298 353
#     4  10  20  34  53  79 115 154 195 244 291 354
#     4  10  20  37  57  85 120 155 198 248 305 352
#     4  10  20  37  59  83 119 156 196 252 298 363
#     4   9  17  33  58  89 122 156 193 259 301 361
#     4  12  24  36  58  88 119 157 200 244 306 369
#     4   9  17  33  59  89 121 153 201 248 311 351
#
# _framework density 23.793187
#
# number of rings (size 3 to 8) (size 9 to 14) (size 15 to 20)
#    0.000    2.000    1.429    3.857    0.000    4.571 
#   10.286    0.000    0.000    1.714    0.000    0.000 
#    0.000    0.000    0.000    0.000    0.000    0.000 
#
# Total GULP energy -155938.045850 kJ/mol
# GULP energy per Si atom -5569.215923 kJ/mol
# Density = 2.373903 g / cm^3
# Si number density = 23.793187 Si / 1000 Ang^3
#
#
#
# Elastic Constant Matrix: (Units=GPa)
#
#
# Indices 1 2 3 4 5 6 
#
# 1 51.0350 38.3676 42.1990 0.0000 21.8305 0.0000
# 2 38.3676 103.3038 38.3289 0.0000 37.6114 0.0000
# 3 42.1990 38.3289 106.1488 0.0000 22.3993 0.0000
# 4 0.0000 0.0000 0.0000 74.9762 0.0000 80.5636
# 5 21.8305 37.6114 22.3993 0.0000 56.1805 0.0000
# 6 0.0000 0.0000 0.0000 80.5636 0.0000 134.7272
#
#
#
# Elastic Compliance Matrix: (Units=1/GPa)
#
#
# Indices 1 2 3 4 5 6 
#
# 1 0.036222 -0.007848 -0.010596 0.000000 -0.004596 0.000000
# 2 -0.007848 0.015489 -0.001013 0.000000 -0.006916 0.000000
# 3 -0.010596 -0.001013 0.014180 0.000000 -0.000858 0.000000
# 4 0.000000 0.000000 0.000000 0.037312 0.000000 -0.022312
# 5 -0.004596 -0.006916 -0.000858 0.000000 0.024558 0.000000
# 6 0.000000 0.000000 0.000000 -0.022312 0.000000 0.020764
#
#
# Mechanical properties :
#
#
# Convention : Reuss Voigt Hill
#
# Bulk Modulus (GPa) = 37.07053 55.36430 46.21741
# Shear Modulus (GPa) = 25.45392 62.61626 44.03509
#
# Velocity S-wave (km/s) = 3.27433 5.13556 4.30669
# Velocity P-wave (km/s) = 5.46892 7.64754 6.64808
#
# Compressibility (1/GPa) = 0.02697561
#
# Stress axis : x y z
#
# Youngs Moduli (GPa) = 27.60722 64.56173 70.52089
#
# Poissons Ratio (x) = 0.50670 0.74726
# Poissons Ratio (y) = 0.21667 0.07147
# Poissons Ratio (z) = 0.29253 0.06543
#
# Static dielectric constant tensor:
#      x y z
#    x 2.127570 0.000000 0.025420 
#    y 0.000000 1.955830 0.000000 
#    z 0.025420 0.000000 2.024600 
# 
# From -- ./inp_files/52677.got.cif
#   From: 2010.05.17/outbox.cif.g08.bks.cpg/sg15_27_cif.got.tgz:52677.got - 2010.06.03 18:47:42.
