data_PCOD9269140
_publ_section_title
;
Structure prediction by ZEFSAII (Michael W. Deem and Ramdas Pophale) SiO2 
 PCOD9269140
Probable space group: C 2/C
;
_chemical_formula_sum "Si O2"
_cell_formula_units_Z 48
_cell_length_a 9.403384
_cell_length_b 17.826261
_cell_length_c 10.785410
_cell_angle_alpha 90.000000
_cell_angle_beta 83.566615
_cell_angle_gamma 90.000000
_cell_volume 1796.542953
_symmetry_space_group_name_H-M "C 2/C"
_symmetry_group_IT_number 15
_symmetry_cell_setting 'monoclinic'
loop_
_space_group_symop_operation_xyz
x,y,z
-x,y,1/2-z
-x,-y,-z
x,-y,1/2+z
1/2+x,1/2+y,z
1/2-x,1/2+y,1/2-z
1/2-x,1/2-y,-z
1/2+x,1/2-y,1/2+z
loop_
_atom_site_type_symbol
_atom_site_label
_atom_site_fract_x
_atom_site_fract_y
_atom_site_fract_z
Si Si1 0.261534 0.770154 0.851817
Si Si2 0.464920 0.402592 0.895954
Si Si3 0.845694 0.882707 0.280997
Si Si4 0.170753 0.414425 0.052422
Si Si5 0.731154 0.072329 0.047136
Si Si6 0.390009 0.241877 0.899856
O O1 0.368745 0.704723 0.803789
O O2 0.301256 0.857848 0.858738
O O3 0.152647 0.754953 0.741970
O O4 0.250000 0.750000 0.000000
O O5 0.500000 0.409636 0.750000
O O6 0.598790 0.444164 0.945435
O O7 0.516742 0.313963 0.568859
O O8 0.296104 0.416551 0.935264
O O9 0.764294 0.894630 0.162803
O O10 0.743089 0.909202 0.401058
O O11 0.000000 0.920174 0.250000
O O12 0.129441 0.500886 0.075040
O O13 0.063050 0.343042 0.065833
O O14 0.250000 0.250000 0.000000
#
# Coordination Sequence:
#
# PCOD9269140 Si02
#       6
#     8   8   8   8   8   8
#     4   9  19  35  49  71 100 140 173 204 255 318
#     4  11  20  31  52  76 106 131 172 208 259 314
#     4  10  20  34  52  73 104 134 172 209 260 315
#     4  10  22  33  50  78 110 133 167 218 267 307
#     4  11  21  32  53  80 103 134 170 222 263 306
#     4   9  19  35  49  71 104 143 171 202 257 323
#
# _framework density 26.717981999999999
#
# number of rings (size 3 to 8) (size 9 to 14) (size 15 to 20)
#    0.000    2.000    3.333    0.500    2.333    0.000 
#    0.000    0.000    0.000    1.000    0.000    3.500 
#    0.000    0.333    0.000    0.000    0.000    0.000 
#
# Total GULP energy -133715.216135 kJ/mol
# GULP energy per Si atom -5571.467339 kJ/mol
# Density = 2.665717 g / cm^3
# Si number density = 26.717982 Si / 1000 Ang^3
#
#
#
# Elastic Constant Matrix: (Units=GPa)
#
#
# Indices 1 2 3 4 5 6 
#
# 1 65.2172 7.4758 34.1635 0.0000 13.7206 0.0000
# 2 7.4758 221.2824 1.8027 0.0000 -10.9609 0.0000
# 3 34.1635 1.8027 95.1199 0.0000 15.1926 0.0000
# 4 0.0000 0.0000 0.0000 24.3565 0.0000 -1.1784
# 5 13.7206 -10.9609 15.1926 0.0000 14.7108 0.0000
# 6 0.0000 0.0000 0.0000 -1.1784 0.0000 23.3272
#
#
#
# Elastic Compliance Matrix: (Units=1/GPa)
#
#
# Indices 1 2 3 4 5 6 
#
# 1 0.021549 -0.001471 -0.005181 0.000000 -0.015844 0.000000
# 2 -0.001471 0.004841 -0.000430 0.000000 0.005422 0.000000
# 3 -0.005181 -0.000430 0.013965 0.000000 -0.009910 0.000000
# 4 0.000000 0.000000 0.000000 0.041157 0.000000 0.002079
# 5 -0.015844 0.005422 -0.009910 0.000000 0.097029 0.000000
# 6 0.000000 0.000000 0.000000 0.002079 0.000000 0.042974
#
#
# Mechanical properties :
#
#
# Convention : Reuss Voigt Hill
#
# Bulk Modulus (GPa) = 38.17937 52.05594 45.11765
# Shear Modulus (GPa) = 20.45752 35.02406 27.74079
#
# Velocity S-wave (km/s) = 2.77010 3.62454 3.22573
# Velocity P-wave (km/s) = 4.95500 6.08622 5.54951
#
# Compressibility (1/GPa) = 0.02619216
#
# Stress axis : x y z
#
# Youngs Moduli (GPa) = 46.40510 206.57414 71.60798
#
# Poissons Ratio (x) = 0.30379 0.37102
# Poissons Ratio (y) = 0.06824 0.03076
# Poissons Ratio (z) = 0.24044 0.08874
#
# Static dielectric constant tensor:
#      x y z
#    x 2.146920 0.000000 -0.022230 
#    y 0.000000 2.300180 0.000000 
#    z -0.022230 0.000000 2.046690 
# 
# From -- ./inp_files/106013.got.cif
#   From: 2010.05.17/outbox.cif.g08.bks.cpg/sg15_54_cif.got.tgz:106013.got - 2010.06.03 18:47:42.
