data_PCOD9269726
_publ_section_title
;
Structure prediction by ZEFSAII (Michael W. Deem and Ramdas Pophale) SiO2 
 PCOD9269726
Probable space group: C 2/C
;
_chemical_formula_sum "Si O2"
_cell_formula_units_Z 52
_cell_length_a 23.435376
_cell_length_b 10.015600
_cell_length_c 13.369301
_cell_angle_alpha 90.000000
_cell_angle_beta 38.729036
_cell_angle_gamma 90.000000
_cell_volume 1963.273350
_symmetry_space_group_name_H-M "C 2/C"
_symmetry_group_IT_number 15
_symmetry_cell_setting 'monoclinic'
loop_
_space_group_symop_operation_xyz
x,y,z
-x,y,1/2-z
-x,-y,-z
x,-y,1/2+z
1/2+x,1/2+y,z
1/2-x,1/2+y,1/2-z
1/2-x,1/2-y,-z
1/2+x,1/2-y,1/2+z
loop_
_atom_site_type_symbol
_atom_site_label
_atom_site_fract_x
_atom_site_fract_y
_atom_site_fract_z
Si Si1 0.582450 0.984478 0.034926
Si Si2 0.750267 0.942911 0.412650
Si Si3 0.115692 0.508329 0.766486
Si Si4 0.447854 0.631103 0.612213
Si Si5 0.500000 0.545342 0.750000
Si Si6 0.292240 0.739104 0.331293
Si Si7 0.890792 0.196491 0.478252
O O1 0.658579 0.083802 0.974513
O O2 0.592590 0.846972 0.085271
O O3 0.614155 0.950979 0.879202
O O4 0.477829 0.028012 0.163257
O O5 0.704915 0.966910 0.583074
O O6 0.794811 0.082132 0.308703
O O7 0.840263 0.855367 0.289591
O O8 0.120356 0.667799 0.783453
O O9 0.500000 0.500000 0.500000
O O10 0.493077 0.636248 0.660792
O O11 0.444682 0.698524 0.507644
O O12 0.580567 0.433036 0.625558
O O13 0.250000 0.750000 0.500000
O O14 0.217799 0.806598 0.361297
#
# Coordination Sequence:
#
# PCOD9269726 Si02
#       7
#     8   8   8   8   4   8   8
#     4  10  22  35  58  87 118 156 193 246 291 360
#     4  10  20  35  58  84 115 154 195 244 295 351
#     4  10  20  35  56  84 121 150 196 239 297 350
#     4  10  22  37  58  88 121 151 200 253 309 351
#     4  10  20  34  60  84 112 156 198 256 294 356
#     4   9  18  30  55  86 111 147 190 242 290 340
#     4  10  21  35  57  86 119 153 198 249 307 354
#
# _framework density 26.486377999999998
#
# number of rings (size 3 to 8) (size 9 to 14) (size 15 to 20)
#    0.000    2.154    0.000    3.231   10.769    1.231 
#    0.000    0.769    6.769    0.000    0.000    0.000 
#    0.000    0.000    0.000    0.000    0.000    0.000 
#
# Total GULP energy -144872.923004 kJ/mol
# GULP energy per Si atom -5572.035500 kJ/mol
# Density = 2.642609 g / cm^3
# Si number density = 26.486378 Si / 1000 Ang^3
#
#
#
# Elastic Constant Matrix: (Units=GPa)
#
#
# Indices 1 2 3 4 5 6 
#
# 1 123.5485 -2.0183 18.4725 0.0000 3.0464 0.0000
# 2 -2.0183 39.7745 0.9328 0.0001 -1.1883 -0.0001
# 3 18.4725 0.9328 93.4634 0.0000 -26.3628 0.0000
# 4 0.0000 0.0001 0.0000 16.8859 0.0000 -5.9387
# 5 3.0464 -1.1883 -26.3628 0.0000 45.2008 0.0000
# 6 0.0000 -0.0001 0.0000 -5.9387 0.0000 21.9585
#
#
#
# Elastic Compliance Matrix: (Units=1/GPa)
#
#
# Indices 1 2 3 4 5 6 
#
# 1 0.008475 0.000427 -0.002199 0.000000 -0.001843 0.000000
# 2 0.000427 0.025183 -0.000188 0.000000 0.000524 0.000000
# 3 -0.002199 -0.000188 0.013377 0.000000 0.007945 0.000000
# 4 0.000000 0.000000 0.000000 0.065446 0.000000 0.017700
# 5 -0.001843 0.000524 0.007945 0.000000 0.026895 0.000000
# 6 0.000000 0.000000 0.000000 0.017700 0.000000 0.050327
#
#
# Mechanical properties :
#
#
# Convention : Reuss Voigt Hill
#
# Bulk Modulus (GPa) = 23.19390 32.39560 27.79475
# Shear Modulus (GPa) = 24.03888 32.76901 28.40395
#
# Velocity S-wave (km/s) = 3.01590 3.52120 3.27830
# Velocity P-wave (km/s) = 4.57203 5.36558 4.98462
#
# Compressibility (1/GPa) = 0.04311479
#
# Stress axis : x y z
#
# Youngs Moduli (GPa) = 117.99154 39.70863 74.75545
#
# Poissons Ratio (x) = -0.01694 0.16439
# Poissons Ratio (y) = -0.05033 0.01405
# Poissons Ratio (z) = 0.25947 0.00746
#
# Static dielectric constant tensor:
#      x y z
#    x 2.136650 0.000000 0.005680 
#    y 0.000000 2.238400 0.000000 
#    z 0.005680 0.000000 2.119130 
# 
# From -- ./inp_files/118729.got.cif
#   From: 2010.05.17/outbox.cif.g08.bks.cpg/sg15_60_cif.got.tgz:118729.got - 2010.06.03 18:47:42.
