data_PCOD9269929
_publ_section_title
;
Structure prediction by ZEFSAII (Michael W. Deem and Ramdas Pophale) SiO2 
 PCOD9269929
Probable space group: C 2/C
;
_chemical_formula_sum "Si O2"
_cell_formula_units_Z 40
_cell_length_a 19.615337
_cell_length_b 27.553757
_cell_length_c 5.300085
_cell_angle_alpha 90.000000
_cell_angle_beta 58.588453
_cell_angle_gamma 90.000000
_cell_volume 2444.755137
_symmetry_space_group_name_H-M "C 2/C"
_symmetry_group_IT_number 15
_symmetry_cell_setting 'monoclinic'
loop_
_space_group_symop_operation_xyz
x,y,z
-x,y,1/2-z
-x,-y,-z
x,-y,1/2+z
1/2+x,1/2+y,z
1/2-x,1/2+y,1/2-z
1/2-x,1/2-y,-z
1/2+x,1/2-y,1/2+z
loop_
_atom_site_type_symbol
_atom_site_label
_atom_site_fract_x
_atom_site_fract_y
_atom_site_fract_z
Si Si1 0.000000 0.274174 0.750000
Si Si2 0.921540 0.133080 0.080017
Si Si3 0.090604 0.978915 0.806470
Si Si4 0.771092 0.185577 0.195913
Si Si5 0.000000 0.208807 0.250000
Si Si6 0.176173 0.701645 0.881628
O O1 0.985623 0.241584 0.525036
O O2 0.081051 0.303906 0.557055
O O3 0.914631 0.078814 0.196753
O O4 0.844236 0.148554 0.072716
O O5 0.931098 0.172132 0.287839
O O6 0.000000 0.135654 0.750000
O O7 0.129594 0.003259 0.489352
O O8 0.000000 0.000000 0.000000
O O9 0.807790 0.240115 0.133339
O O10 0.716906 0.182298 0.549768
O O11 0.718551 0.180447 0.047008
#
# Coordination Sequence:
#
# PCOD9269929 Si02
#       6
#     4   8   8   8   4   8
#     4  12  22  36  54  67  96 136 174 213 262 310
#     4  12  23  33  54  73 103 136 182 208 242 304
#     4  10  20  35  48  69  97 134 170 200 252 282
#     4  10  22  33  49  72  99 129 165 226 246 288
#     4  12  22  30  48  79  86 130 186 209 234 286
#     4  10  21  37  48  68 100 128 169 215 268 285
#
# _framework density 16.361554999999999
#
# number of rings (size 3 to 8) (size 9 to 14) (size 15 to 20)
#    0.000    1.200    5.000    2.400    8.400    0.000 
#    0.000    0.000    0.000    0.000    0.000    0.000 
#    0.000    0.000    0.000   18.000    0.000    0.000 
#
# Total GULP energy -111640.988979 kJ/mol
# GULP energy per Si atom -5582.049449 kJ/mol
# Density = 1.632432 g / cm^3
# Si number density = 16.361555 Si / 1000 Ang^3
#
#
#
# Elastic Constant Matrix: (Units=GPa)
#
#
# Indices 1 2 3 4 5 6 
#
# 1 107.4024 22.8561 59.7284 0.0000 -1.2514 0.0000
# 2 22.8561 43.8421 13.4376 0.0000 -2.3538 0.0000
# 3 59.7284 13.4376 101.2212 0.0000 11.7212 0.0000
# 4 0.0000 0.0000 0.0000 2.2936 0.0000 3.1189
# 5 -1.2514 -2.3538 11.7212 0.0000 38.8262 0.0000
# 6 0.0000 0.0000 0.0000 3.1189 0.0000 15.6542
#
#
#
# Elastic Compliance Matrix: (Units=1/GPa)
#
#
# Indices 1 2 3 4 5 6 
#
# 1 0.015239 -0.005150 -0.008631 0.000000 0.002785 0.000000
# 2 -0.005150 0.025750 -0.000561 0.000000 0.001564 0.000000
# 3 -0.008631 -0.000561 0.015629 0.000000 -0.005030 0.000000
# 4 0.000000 0.000000 0.000000 0.598014 0.000000 -0.119146
# 5 0.002785 0.001564 -0.005030 0.000000 0.027459 0.000000
# 6 0.000000 0.000000 0.000000 -0.119146 0.000000 0.087619
#
#
# Mechanical properties :
#
#
# Convention : Reuss Voigt Hill
#
# Bulk Modulus (GPa) = 35.79743 49.38998 42.59371
# Shear Modulus (GPa) = 6.19038 21.78438 13.98738
#
# Velocity S-wave (km/s) = 1.94723 3.65284 2.92703
# Velocity P-wave (km/s) = 5.19443 6.93132 6.12476
#
# Compressibility (1/GPa) = 0.02793496
#
# Stress axis : x y z
#
# Youngs Moduli (GPa) = 65.62140 38.83553 63.98251
#
# Poissons Ratio (x) = 0.19999 0.55223
# Poissons Ratio (y) = 0.33792 0.03589
# Poissons Ratio (z) = 0.56638 0.02178
#
# Static dielectric constant tensor:
#      x y z
#    x 1.580650 0.000000 0.034820 
#    y 0.000000 1.523530 0.000000 
#    z 0.034820 0.000000 1.556740 
# 
# From -- ./inp_files/11049.got.cif
#   From: 2010.05.17/outbox.cif.g08.bks.cpg/sg15_6_cif.got.tgz:11049.got - 2010.06.03 18:47:42.
