data_PCOD9269647
_publ_section_title
;
Structure prediction by ZEFSAII (Michael W. Deem and Ramdas Pophale) SiO2 
 PCOD9269647
Probable space group: C 2/C
;
_chemical_formula_sum "Si O2"
_cell_formula_units_Z 52
_cell_length_a 26.051003
_cell_length_b 7.341338
_cell_length_c 19.093130
_cell_angle_alpha 90.000000
_cell_angle_beta 44.693432
_cell_angle_gamma 90.000000
_cell_volume 2568.180695
_symmetry_space_group_name_H-M "C 2/C"
_symmetry_group_IT_number 15
_symmetry_cell_setting 'monoclinic'
loop_
_space_group_symop_operation_xyz
x,y,z
-x,y,1/2-z
-x,-y,-z
x,-y,1/2+z
1/2+x,1/2+y,z
1/2-x,1/2+y,1/2-z
1/2-x,1/2-y,-z
1/2+x,1/2-y,1/2+z
loop_
_atom_site_type_symbol
_atom_site_label
_atom_site_fract_x
_atom_site_fract_y
_atom_site_fract_z
Si Si1 0.759458 0.929482 0.897745
Si Si2 0.000000 0.941274 0.750000
Si Si3 0.654180 0.408056 0.060157
Si Si4 0.229943 0.808933 0.849794
Si Si5 0.033150 0.387105 0.313523
Si Si6 0.664572 0.860692 0.277147
Si Si7 0.115172 0.495475 0.595498
O O1 0.799125 0.971567 0.932324
O O2 0.760929 0.120887 0.853207
O O3 0.799426 0.771578 0.816371
O O4 0.675184 0.884173 0.997487
O O5 0.987362 0.813302 0.694450
O O6 0.929133 0.051719 0.839643
O O7 0.657832 0.191172 0.067967
O O8 0.682856 0.418625 0.953232
O O9 0.179372 0.741425 0.835486
O O10 0.293321 0.946086 0.763810
O O11 0.080249 0.388642 0.337742
O O12 0.087258 0.446890 0.198369
O O13 0.958867 0.505137 0.379328
#
# Coordination Sequence:
#
# PCOD9269647 Si02
#       7
#     8   4   8   8   8   8   8
#     4  11  22  41  66  95 120 165 212 271 313 376
#     4  10  20  34  58  92 124 154 204 258 306 378
#     4  11  21  39  65  95 123 161 215 263 316 369
#     4  11  25  40  64  95 124 168 213 262 313 380
#     4  10  21  37  58  92 125 164 201 254 326 371
#     4  12  23  42  64  89 134 166 211 259 324 372
#     4   9  20  37  61  92 123 156 213 263 311 368
#
# _framework density 20.247796000000001
#
# number of rings (size 3 to 8) (size 9 to 14) (size 15 to 20)
#    0.000    1.538    3.077    4.615    4.308    1.231 
#    0.000    3.846    3.385    0.000    0.000    0.000 
#    0.000    0.000    0.000    0.000    0.000    0.000 
#
# Total GULP energy -145080.966552 kJ/mol
# GULP energy per Si atom -5580.037175 kJ/mol
# Density = 2.020171 g / cm^3
# Si number density = 20.247796 Si / 1000 Ang^3
#
#
#
# Elastic Constant Matrix: (Units=GPa)
#
#
# Indices 1 2 3 4 5 6 
#
# 1 131.3782 17.7874 22.6129 -0.0361 13.7118 0.0826
# 2 17.7874 53.7596 -1.3538 -0.0143 3.5105 0.0318
# 3 22.6129 -1.3538 48.0017 -0.0438 -2.3104 0.1002
# 4 -0.0361 -0.0143 -0.0438 -75.4328 0.0098 230.3137
# 5 13.7118 3.5105 -2.3104 0.0098 25.5104 -0.0236
# 6 0.0826 0.0318 0.1002 230.3137 -0.0236 -477.9109
#
#
#
# Elastic Compliance Matrix: (Units=1/GPa)
#
#
# Indices 1 2 3 4 5 6 
#
# 1 0.009342 -0.002880 -0.004725 -0.000001 -0.005053 0.000000
# 2 -0.002880 0.019666 0.001864 -0.000001 -0.000989 0.000001
# 3 -0.004725 0.001864 0.023323 -0.000002 0.004396 0.000003
# 4 -0.000001 -0.000001 -0.000002 0.028122 0.000002 0.013552
# 5 -0.005053 -0.000989 0.004396 0.000002 0.042450 -0.000001
# 6 0.000000 0.000001 0.000003 0.013552 -0.000001 0.004439
#
#
# Mechanical properties :
#
#
# Convention : Reuss Voigt Hill
#
# Bulk Modulus (GPa) = 24.48139 34.58140 29.53139
# Shear Modulus (GPa) = 32.79958 -92.62715 -29.91378
#
# Velocity S-wave (km/s) = 4.02918 -6.77097 -3.84785
# Velocity P-wave (km/s) = 5.81058 6.63415 2.26375
#
# Compressibility (1/GPa) = 0.04084735
#
# Stress axis : x y z
#
# Youngs Moduli (GPa) = 107.04021 50.84968 42.87651
#
# Poissons Ratio (x) = 0.14645 0.20261
# Poissons Ratio (y) = 0.30829 -0.07991
# Poissons Ratio (z) = 0.50581 -0.09477
#
# Static dielectric constant tensor:
#      x y z
#    x 1.756200 0.000000 -0.021480 
#    y 0.000000 1.753090 0.000000 
#    z -0.021480 0.000000 1.754110 
# 
# From -- ./inp_files/221848.got.cif
#   From: 2010.05.17/outbox.cif.g08.bks.cpg/sg15_111_cif.got.tgz:221848.got - 2010.06.03 18:47:42.
