data_PCOD9269787
_publ_section_title
;
Structure prediction by ZEFSAII (Michael W. Deem and Ramdas Pophale) SiO2 
 PCOD9269787
Probable space group: C 2/C
;
_chemical_formula_sum "Si O2"
_cell_formula_units_Z 48
_cell_length_a 18.948564
_cell_length_b 11.588883
_cell_length_c 10.793600
_cell_angle_alpha 90.000000
_cell_angle_beta 55.977607
_cell_angle_gamma 90.000000
_cell_volume 1964.463109
_symmetry_space_group_name_H-M "C 2/C"
_symmetry_group_IT_number 15
_symmetry_cell_setting 'monoclinic'
loop_
_space_group_symop_operation_xyz
x,y,z
-x,y,1/2-z
-x,-y,-z
x,-y,1/2+z
1/2+x,1/2+y,z
1/2-x,1/2+y,1/2-z
1/2-x,1/2-y,-z
1/2+x,1/2-y,1/2+z
loop_
_atom_site_type_symbol
_atom_site_label
_atom_site_fract_x
_atom_site_fract_y
_atom_site_fract_z
Si Si1 0.786179 0.233397 0.598453
Si Si2 0.357813 0.950150 0.642623
Si Si3 0.676494 0.555840 0.771611
Si Si4 0.847441 0.726683 0.368056
Si Si5 0.969524 0.910237 0.638807
Si Si6 0.897933 0.698677 0.590163
O O1 0.750000 0.250000 0.500000
O O2 0.852676 0.335118 0.563742
O O3 0.830894 0.109900 0.582687
O O4 0.700301 0.228923 0.769746
O O5 0.353034 0.890635 0.782944
O O6 0.273492 0.014900 0.673252
O O7 0.416765 0.063067 0.591432
O O8 0.637871 0.661291 0.730493
O O9 0.628808 0.445965 0.769576
O O10 0.750000 0.750000 0.500000
O O11 0.901311 0.723327 0.440090
O O12 0.965058 0.779412 0.594612
O O13 0.000000 0.923471 0.750000
O O14 0.000000 0.000000 0.500000
#
# Coordination Sequence:
#
# PCOD9269787 Si02
#       6
#     8   8   8   8   8   8
#     4  10  21  33  61  97 131 160 200 279 347 393
#     4  10  20  34  60  96 130 158 199 281 340 385
#     4  10  21  37  60  93 124 166 217 264 329 393
#     4  11  18  36  60  92 132 162 202 265 349 407
#     4  12  27  46  68  90 132 188 232 278 314 403
#     4  11  23  38  60  95 128 170 223 268 335 395
#
# _framework density 24.434156000000002
#
# number of rings (size 3 to 8) (size 9 to 14) (size 15 to 20)
#    0.000    1.333    6.667    1.000    7.000    1.333 
#    0.000    0.000    0.000   13.000    0.000    0.000 
#    0.000    0.000    0.000    0.000    0.000    0.000 
#
# Total GULP energy -133703.620194 kJ/mol
# GULP energy per Si atom -5570.984175 kJ/mol
# Density = 2.437854 g / cm^3
# Si number density = 24.434156 Si / 1000 Ang^3
#
#
#
# Elastic Constant Matrix: (Units=GPa)
#
#
# Indices 1 2 3 4 5 6 
#
# 1 86.7960 63.9355 49.3844 0.0000 34.4459 0.0000
# 2 63.9355 140.2541 14.5900 0.0000 3.7697 0.0000
# 3 49.3844 14.5900 86.4861 0.0000 38.6357 0.0000
# 4 0.0000 0.0000 0.0000 21.5625 0.0000 2.3311
# 5 34.4459 3.7697 38.6357 0.0000 37.2595 0.0000
# 6 0.0000 0.0000 0.0000 2.3311 0.0000 40.8705
#
#
#
# Elastic Compliance Matrix: (Units=1/GPa)
#
#
# Indices 1 2 3 4 5 6 
#
# 1 0.036996 -0.015428 -0.007341 0.000000 -0.025029 0.000000
# 2 -0.015428 0.013711 0.001387 0.000000 0.011438 0.000000
# 3 -0.007341 0.001387 0.023383 0.000000 -0.017600 0.000000
# 4 0.000000 0.000000 0.000000 0.046665 0.000000 -0.002662
# 5 -0.025029 0.011438 -0.017600 0.000000 0.067071 0.000000
# 6 0.000000 0.000000 0.000000 -0.002662 0.000000 0.024619
#
#
# Mechanical properties :
#
#
# Convention : Reuss Voigt Hill
#
# Bulk Modulus (GPa) = 31.92306 63.26176 47.59241
# Shear Modulus (GPa) = 18.82162 32.31358 25.56760
#
# Velocity S-wave (km/s) = 2.77844 3.64053 3.23830
# Velocity P-wave (km/s) = 4.83593 6.60441 5.78811
#
# Compressibility (1/GPa) = 0.03132532
#
# Stress axis : x y z
#
# Youngs Moduli (GPa) = 27.02986 72.93232 42.76630
#
# Poissons Ratio (x) = 1.12523 0.31396
# Poissons Ratio (y) = 0.41703 -0.05932
# Poissons Ratio (z) = 0.19843 -0.10117
#
# Static dielectric constant tensor:
#      x y z
#    x 2.077850 0.000000 -0.150240 
#    y 0.000000 2.095130 0.000000 
#    z -0.150240 0.000000 2.134670 
# 
# From -- ./inp_files/110521.got.cif
#   From: 2010.05.17/outbox.cif.g08.bks.cpg/sg15_56_cif.got.tgz:110521.got - 2010.06.03 18:47:42.
