data_PCOD9269256
_publ_section_title
;
Structure prediction by ZEFSAII (Michael W. Deem and Ramdas Pophale) SiO2 
 PCOD9269256
Probable space group: C 2/C
;
_chemical_formula_sum "Si O2"
_cell_formula_units_Z 40
_cell_length_a 22.277501
_cell_length_b 5.056196
_cell_length_c 20.721675
_cell_angle_alpha 90.000000
_cell_angle_beta 51.766374
_cell_angle_gamma 90.000000
_cell_volume 1833.403284
_symmetry_space_group_name_H-M "C 2/C"
_symmetry_group_IT_number 15
_symmetry_cell_setting 'monoclinic'
loop_
_space_group_symop_operation_xyz
x,y,z
-x,y,1/2-z
-x,-y,-z
x,-y,1/2+z
1/2+x,1/2+y,z
1/2-x,1/2+y,1/2-z
1/2-x,1/2-y,-z
1/2+x,1/2-y,1/2+z
loop_
_atom_site_type_symbol
_atom_site_label
_atom_site_fract_x
_atom_site_fract_y
_atom_site_fract_z
Si Si1 0.095618 0.065900 0.756075
Si Si2 0.918031 0.003331 0.880777
Si Si3 0.794634 0.027219 0.704130
Si Si4 0.678383 0.971818 0.022602
Si Si5 0.264759 0.136708 0.385417
O O1 0.093928 0.925127 0.686947
O O2 0.136355 0.958788 0.793478
O O3 0.006193 0.082914 0.831037
O O4 0.150874 0.316160 0.701400
O O5 0.882583 0.760829 0.944086
O O6 0.870728 0.263714 0.928926
O O7 0.727656 0.833220 0.774178
O O8 0.794042 0.965099 0.628907
O O9 0.727502 0.953997 0.056606
O O10 0.733157 0.078038 0.929639
#
# Coordination Sequence:
#
# PCOD9269256 Si02
#       5
#     8   8   8   8   8
#     4   9  20  36  57  80 107 141 181 220 263 316
#     4  10  21  36  55  81 110 140 175 221 270 315
#     4  10  20  34  54  80 106 137 180 224 262 309
#     4  10  21  36  56  81 110 140 176 221 269 315
#     4   9  20  37  58  81 107 142 182 220 262 316
#
# _framework density 21.817349
#
# number of rings (size 3 to 8) (size 9 to 14) (size 15 to 20)
#    0.000    2.400    0.000    1.200    0.000   20.000 
#    0.000    2.000    0.000    0.000    0.000    0.000 
#    0.000    0.000    0.000    0.000    0.000    0.000 
#
# Total GULP energy -111408.036118 kJ/mol
# GULP energy per Si atom -5570.401806 kJ/mol
# Density = 2.176769 g / cm^3
# Si number density = 21.817349 Si / 1000 Ang^3
#
#
#
# Elastic Constant Matrix: (Units=GPa)
#
#
# Indices 1 2 3 4 5 6 
#
# 1 153.5202 4.5156 47.3405 0.0336 3.2032 0.0529
# 2 4.5156 51.3431 13.8655 0.0257 3.1460 0.0546
# 3 47.3405 13.8655 71.3788 -0.0135 -14.8214 0.0029
# 4 0.0336 0.0257 -0.0135 22.6638 -0.0262 8.6159
# 5 3.2032 3.1460 -14.8214 -0.0262 47.3878 -0.0075
# 6 0.0529 0.0546 0.0029 8.6159 -0.0075 20.3693
#
#
#
# Elastic Compliance Matrix: (Units=1/GPa)
#
#
# Indices 1 2 3 4 5 6 
#
# 1 0.008517 0.001149 -0.006424 -0.000013 -0.002661 -0.000020
# 2 0.001149 0.021062 -0.005518 -0.000012 -0.003202 -0.000055
# 3 -0.006424 -0.005518 0.020864 0.000030 0.007326 0.000019
# 4 -0.000013 -0.000012 0.000030 0.052578 0.000036 -0.022239
# 5 -0.002661 -0.003202 0.007326 0.000036 0.023786 0.000008
# 6 -0.000020 -0.000055 0.000019 -0.022239 0.000008 0.058501
#
#
# Mechanical properties :
#
#
# Convention : Reuss Voigt Hill
#
# Bulk Modulus (GPa) = 34.65554 45.29838 39.97696
# Shear Modulus (GPa) = 23.09334 32.11889 27.60611
#
# Velocity S-wave (km/s) = 3.25697 3.84105 3.56100
# Velocity P-wave (km/s) = 5.48294 6.36233 5.93893
#
# Compressibility (1/GPa) = 0.02885541
#
# Stress axis : x y z
#
# Youngs Moduli (GPa) = 117.41843 47.47828 47.93029
#
# Poissons Ratio (x) = -0.05455 0.30791
# Poissons Ratio (y) = -0.13491 0.26449
# Poissons Ratio (z) = 0.75432 0.26200
#
# Static dielectric constant tensor:
#      x y z
#    x 1.832920 -0.000030 0.030860 
#    y -0.000030 1.855660 -0.000020 
#    z 0.030860 -0.000020 1.838680 
# 
# From -- ./inp_files/212599.got.cif
#   From: 2010.05.17/outbox.cif.g08.bks.cpg/sg15_107_cif.got.tgz:212599.got - 2010.06.03 18:47:42.
