data_PCOD9269593
_publ_section_title
;
Structure prediction by ZEFSAII (Michael W. Deem and Ramdas Pophale) SiO2 
 PCOD9269593
Probable space group: C 2/C
;
_chemical_formula_sum "Si O2"
_cell_formula_units_Z 48
_cell_length_a 23.391369
_cell_length_b 17.188034
_cell_length_c 10.270285
_cell_angle_alpha 90.000000
_cell_angle_beta 143.216229
_cell_angle_gamma 90.000000
_cell_volume 2472.542623
_symmetry_space_group_name_H-M "C 2/C"
_symmetry_group_IT_number 15
_symmetry_cell_setting 'monoclinic'
loop_
_space_group_symop_operation_xyz
x,y,z
-x,y,1/2-z
-x,-y,-z
x,-y,1/2+z
1/2+x,1/2+y,z
1/2-x,1/2+y,1/2-z
1/2-x,1/2-y,-z
1/2+x,1/2-y,1/2+z
loop_
_atom_site_type_symbol
_atom_site_label
_atom_site_fract_x
_atom_site_fract_y
_atom_site_fract_z
Si Si1 0.948943 0.895027 0.524018
Si Si2 0.430796 0.418633 0.004911
Si Si3 0.751780 0.804150 0.131263
Si Si4 0.063482 0.579532 0.736445
Si Si5 0.726481 0.151489 0.188186
Si Si6 0.381786 0.909551 0.752525
O O1 0.849958 0.851715 0.317454
O O2 0.000000 0.869551 0.750000
O O3 0.021858 0.885273 0.538578
O O4 0.929145 0.987523 0.495784
O O5 0.500000 0.396594 0.250000
O O6 0.324658 0.389257 0.831481
O O7 0.752409 0.741914 0.247812
O O8 0.750000 0.750000 0.000000
O O9 0.663042 0.862260 0.949468
O O10 0.110761 0.500595 0.768177
O O11 0.000000 0.560236 0.750000
O O12 0.988449 0.612327 0.494340
O O13 0.145339 0.637411 0.932831
O O14 0.685307 0.110800 0.245634
#
# Coordination Sequence:
#
# PCOD9269593 Si02
#       6
#     8   8   8   8   8   8
#     4  10  22  38  60  86 117 153 193 241 289 342
#     4  10  20  38  62  88 114 151 199 241 283 343
#     4  10  20  35  55  81 113 153 187 228 294 348
#     4   9  18  33  55  83 110 147 192 236 283 339
#     4  10  20  34  58  85 113 147 186 236 293 345
#     4   9  18  34  54  81 113 148 190 234 286 343
#
# _framework density 19.413214
#
# number of rings (size 3 to 8) (size 9 to 14) (size 15 to 20)
#    0.000    2.333    0.000    3.000    0.000    6.000 
#    0.000    6.667    0.000    2.000    0.000    0.000 
#    0.000    0.000    0.000    0.000    0.000    0.000 
#
# Total GULP energy -133916.527754 kJ/mol
# GULP energy per Si atom -5579.855323 kJ/mol
# Density = 1.936903 g / cm^3
# Si number density = 19.413214 Si / 1000 Ang^3
#
#
#
# Elastic Constant Matrix: (Units=GPa)
#
#
# Indices 1 2 3 4 5 6 
#
# 1 64.2800 34.9277 63.6358 0.0000 3.1314 0.0000
# 2 34.9277 56.1920 80.1514 0.0000 4.6840 0.0000
# 3 63.6358 80.1514 191.4105 0.0000 -2.7523 0.0000
# 4 0.0000 0.0000 0.0000 -23.6180 0.0000 -43.1355
# 5 3.1314 4.6840 -2.7523 0.0000 28.8670 0.0000
# 6 0.0000 0.0000 0.0000 -43.1355 0.0000 -29.1553
#
#
#
# Elastic Compliance Matrix: (Units=1/GPa)
#
#
# Indices 1 2 3 4 5 6 
#
# 1 0.025025 -0.008706 -0.004699 0.000000 -0.001750 0.000000
# 2 -0.008706 0.049654 -0.018025 0.000000 -0.008831 0.000000
# 3 -0.004699 -0.018025 0.014404 0.000000 0.004808 0.000000
# 4 0.000000 0.000000 0.000000 0.024875 0.000000 -0.036803
# 5 -0.001750 -0.008831 0.004808 0.000000 0.036723 0.000000
# 6 0.000000 0.000000 0.000000 -0.036803 0.000000 0.020151
#
#
# Mechanical properties :
#
#
# Convention : Reuss Voigt Hill
#
# Bulk Modulus (GPa) = 38.13552 74.36803 56.25177
# Shear Modulus (GPa) = 20.62432 4.09656 12.36044
#
# Velocity S-wave (km/s) = 3.26296 1.45423 2.52603
# Velocity P-wave (km/s) = 5.82088 6.41956 6.12754
#
# Compressibility (1/GPa) = 0.02622227
#
# Stress axis : x y z
#
# Youngs Moduli (GPa) = 39.95999 20.13930 69.42732
#
# Poissons Ratio (x) = 0.17534 0.32626
# Poissons Ratio (y) = 0.34790 1.25141
# Poissons Ratio (z) = 0.18778 0.36301
#
# Static dielectric constant tensor:
#      x y z
#    x 1.681000 0.000000 -0.038370 
#    y 0.000000 1.671090 0.000000 
#    z -0.038370 0.000000 1.674250 
# 
# From -- ./inp_files/119495.got.cif
#   From: 2010.05.17/outbox.cif.g08.bks.cpg/sg15_60_cif.got.tgz:119495.got - 2010.06.03 18:47:42.
