data_PCOD9269186
_publ_section_title
;
Structure prediction by ZEFSAII (Michael W. Deem and Ramdas Pophale) SiO2 
 PCOD9269186
Probable space group: C 2/C
;
_chemical_formula_sum "Si O2"
_cell_formula_units_Z 48
_cell_length_a 23.858005
_cell_length_b 22.750901
_cell_length_c 9.389362
_cell_angle_alpha 90.000000
_cell_angle_beta 37.239937
_cell_angle_gamma 90.000000
_cell_volume 3084.145390
_symmetry_space_group_name_H-M "C 2/C"
_symmetry_group_IT_number 15
_symmetry_cell_setting 'monoclinic'
loop_
_space_group_symop_operation_xyz
x,y,z
-x,y,1/2-z
-x,-y,-z
x,-y,1/2+z
1/2+x,1/2+y,z
1/2-x,1/2+y,1/2-z
1/2-x,1/2-y,-z
1/2+x,1/2-y,1/2+z
loop_
_atom_site_type_symbol
_atom_site_label
_atom_site_fract_x
_atom_site_fract_y
_atom_site_fract_z
Si Si1 0.974864 0.256788 0.639104
Si Si2 0.110643 0.385072 0.047189
Si Si3 0.431171 0.986104 0.769128
Si Si4 0.320364 0.288238 0.260343
Si Si5 0.662944 0.228141 0.583930
Si Si6 0.661580 0.132017 0.122541
O O1 0.911101 0.212619 0.675314
O O2 0.916614 0.318780 0.760710
O O3 0.000000 0.240073 0.750000
O O4 0.069690 0.261222 0.360618
O O5 0.113454 0.452782 0.088967
O O6 0.158533 0.341500 0.061166
O O7 0.000000 0.371344 0.250000
O O8 0.157650 0.372102 0.801360
O O9 0.500000 0.963685 0.750000
O O10 0.363106 0.933196 0.876028
O O11 0.500000 0.000000 0.500000
O O12 0.250000 0.250000 0.500000
O O13 0.261043 0.347308 0.364636
O O14 0.337793 0.259356 0.070567
O O15 0.750000 0.250000 0.500000
#
# Coordination Sequence:
#
# PCOD9269186 Si02
#       6
#     8   8   8   8   8   8
#     4  11  21  34  54  78 108 146 178 221 269 322
#     4  11  19  35  52  74 112 148 168 227 270 308
#     4  11  20  32  52  77 106 147 182 208 266 329
#     4  10  20  34  53  75 108 142 179 221 267 319
#     4  12  21  34  54  80 109 143 184 222 272 324
#     4  11  20  35  53  77 113 144 176 218 267 323
#
# _framework density 15.563469
#
# number of rings (size 3 to 8) (size 9 to 14) (size 15 to 20)
#    0.000    1.000    8.333    3.000    0.000    1.333 
#    0.000    0.000    0.000    0.000    0.000    1.167 
#    0.000    0.000    0.000    0.000    0.000    0.000 
#
# Total GULP energy -133722.479753 kJ/mol
# GULP energy per Si atom -5571.769990 kJ/mol
# Density = 1.552805 g / cm^3
# Si number density = 15.563469 Si / 1000 Ang^3
#
#
#
# Elastic Constant Matrix: (Units=GPa)
#
#
# Indices 1 2 3 4 5 6 
#
# 1 114.7599 42.3453 40.7090 0.0000 -1.7275 0.0000
# 2 42.3453 88.9481 23.4766 0.0000 -15.1877 0.0000
# 3 40.7090 23.4766 73.7158 0.0000 4.0505 0.0000
# 4 0.0000 0.0000 0.0000 22.1576 0.0000 -3.1963
# 5 -1.7275 -15.1877 4.0505 0.0000 31.4224 0.0000
# 6 0.0000 0.0000 0.0000 -3.1963 0.0000 33.5488
#
#
#
# Elastic Compliance Matrix: (Units=1/GPa)
#
#
# Indices 1 2 3 4 5 6 
#
# 1 0.012263 -0.004599 -0.005260 0.000000 -0.000870 0.000000
# 2 -0.004599 0.015466 -0.002803 0.000000 0.007584 0.000000
# 3 -0.005260 -0.002803 0.017578 0.000000 -0.003910 0.000000
# 4 0.000000 0.000000 0.000000 0.045760 0.000000 0.004360
# 5 -0.000870 0.007584 -0.003910 0.000000 0.035946 0.000000
# 6 0.000000 0.000000 0.000000 0.004360 0.000000 0.030223
#
#
# Mechanical properties :
#
#
# Convention : Reuss Voigt Hill
#
# Bulk Modulus (GPa) = 50.03782 54.49839 52.26810
# Shear Modulus (GPa) = 26.42404 28.81862 27.62133
#
# Velocity S-wave (km/s) = 4.12494 4.30779 4.21735
# Velocity P-wave (km/s) = 7.40995 7.73535 7.57440
#
# Compressibility (1/GPa) = 0.01998488
#
# Stress axis : x y z
#
# Youngs Moduli (GPa) = 81.54300 64.65590 56.88958
#
# Poissons Ratio (x) = 0.29732 0.29924
# Poissons Ratio (y) = 0.37498 0.15946
# Poissons Ratio (z) = 0.42892 0.18122
#
# Static dielectric constant tensor:
#      x y z
#    x 1.549640 0.000000 0.003960 
#    y 0.000000 1.581250 0.000000 
#    z 0.003960 0.000000 1.519300 
# 
# From -- ./inp_files/40283.got.cif
#   From: 2010.05.17/outbox.cif.g08.bks.cpg/sg15_21_cif.got.tgz:40283.got - 2010.06.03 18:47:42.
