data_PCOD9269165
_publ_section_title
;
Structure prediction by ZEFSAII (Michael W. Deem and Ramdas Pophale) SiO2 
 PCOD9269165
Probable space group: C 2/C
;
_chemical_formula_sum "Si O2"
_cell_formula_units_Z 44
_cell_length_a 15.575320
_cell_length_b 20.559095
_cell_length_c 12.982713
_cell_angle_alpha 90.000000
_cell_angle_beta 148.784858
_cell_angle_gamma 90.000000
_cell_volume 2154.508891
_symmetry_space_group_name_H-M "C 2/C"
_symmetry_group_IT_number 15
_symmetry_cell_setting 'monoclinic'
loop_
_space_group_symop_operation_xyz
x,y,z
-x,y,1/2-z
-x,-y,-z
x,-y,1/2+z
1/2+x,1/2+y,z
1/2-x,1/2+y,1/2-z
1/2-x,1/2-y,-z
1/2+x,1/2-y,1/2+z
loop_
_atom_site_type_symbol
_atom_site_label
_atom_site_fract_x
_atom_site_fract_y
_atom_site_fract_z
Si Si1 0.517189 0.429547 0.569335
Si Si2 0.919231 0.315580 0.504787
Si Si3 0.461598 0.670478 0.829417
Si Si4 0.500000 0.089840 0.250000
Si Si5 0.661176 0.986699 0.529548
Si Si6 0.654247 0.082024 0.723763
O O1 0.500000 0.500000 0.500000
O O2 0.526124 0.379253 0.482853
O O3 0.345823 0.414965 0.453801
O O4 0.683722 0.438517 0.806261
O O5 0.970674 0.241847 0.571802
O O6 0.036160 0.363108 0.691647
O O7 0.904758 0.347649 0.377944
O O8 0.263517 0.325082 0.136168
O O9 0.500000 0.654521 0.750000
O O10 0.651552 0.041641 0.431784
O O11 0.489897 0.947005 0.354867
O O12 0.659655 0.032417 0.630856
#
# Coordination Sequence:
#
# PCOD9269165 Si02
#       6
#     8   8   8   4   8   8
#     4   9  19  35  49  71 103 139 187 214 252 316
#     4  10  21  33  48  78 115 139 176 212 266 334
#     4  11  22  33  52  79 113 147 169 217 271 327
#     4  10  20  34  52  80 114 138 176 224 264 320
#     4   9  17  32  54  69 100 146 173 217 264 302
#     4   8  17  32  49  71 101 137 178 216 251 315
#
# _framework density 20.422287000000001
#
# number of rings (size 3 to 8) (size 9 to 14) (size 15 to 20)
#    0.000    2.545    0.909    1.636    2.545    4.364 
#    0.000    0.909    0.000    0.000    0.000    1.273 
#    2.727    0.000    0.000    0.000    0.000    0.000 
#
# Total GULP energy -122622.124883 kJ/mol
# GULP energy per Si atom -5573.732949 kJ/mol
# Density = 2.037580 g / cm^3
# Si number density = 20.422287 Si / 1000 Ang^3
#
#
#
# Elastic Constant Matrix: (Units=GPa)
#
#
# Indices 1 2 3 4 5 6 
#
# 1 39.9635 47.0045 34.1214 0.0000 3.7146 0.0000
# 2 47.0045 137.2627 75.1880 0.0000 1.1872 0.0000
# 3 34.1214 75.1880 92.7863 0.0000 6.9098 0.0000
# 4 0.0000 0.0000 0.0000 39.7217 0.0000 -5.6918
# 5 3.7146 1.1872 6.9098 0.0000 13.1883 0.0000
# 6 0.0000 0.0000 0.0000 -5.6918 0.0000 21.9840
#
#
#
# Elastic Compliance Matrix: (Units=1/GPa)
#
#
# Indices 1 2 3 4 5 6 
#
# 1 0.045279 -0.011964 -0.006334 0.000000 -0.008358 0.000000
# 2 -0.011964 0.016530 -0.009506 0.000000 0.006862 0.000000
# 3 -0.006334 -0.009506 0.021451 0.000000 -0.008599 0.000000
# 4 0.000000 0.000000 0.000000 0.026145 0.000000 0.006769
# 5 -0.008358 0.006862 -0.008599 0.000000 0.082066 0.000000
# 6 0.000000 0.000000 0.000000 0.006769 0.000000 0.047240
#
#
# Mechanical properties :
#
#
# Convention : Reuss Voigt Hill
#
# Bulk Modulus (GPa) = 36.16433 64.73780 50.45106
# Shear Modulus (GPa) = 16.47246 22.55873 19.51559
#
# Velocity S-wave (km/s) = 2.84314 3.32718 3.09464
# Velocity P-wave (km/s) = 5.34084 6.82118 6.12589
#
# Compressibility (1/GPa) = 0.02765156
#
# Stress axis : x y z
#
# Youngs Moduli (GPa) = 22.08513 60.49566 46.61884
#
# Poissons Ratio (x) = 0.72375 0.29529
# Poissons Ratio (y) = 0.26422 0.44318
# Poissons Ratio (z) = 0.13989 0.57510
#
# Static dielectric constant tensor:
#      x y z
#    x 1.743820 0.000000 0.002370 
#    y 0.000000 1.730600 0.000000 
#    z 0.002370 0.000000 1.837160 
# 
# From -- ./inp_files/219913.got.cif
#   From: 2010.05.17/outbox.cif.g08.bks.cpg/sg15_110_cif.got.tgz:219913.got - 2010.06.03 18:47:42.
