data_PCOD9269666
_publ_section_title
;
Structure prediction by ZEFSAII (Michael W. Deem and Ramdas Pophale) SiO2 
 PCOD9269666
Probable space group: C 2/C
;
_chemical_formula_sum "Si O2"
_cell_formula_units_Z 36
_cell_length_a 11.838473
_cell_length_b 16.665714
_cell_length_c 14.406824
_cell_angle_alpha 90.000000
_cell_angle_beta 38.480072
_cell_angle_gamma 90.000000
_cell_volume 1768.672668
_symmetry_space_group_name_H-M "C 2/C"
_symmetry_group_IT_number 15
_symmetry_cell_setting 'monoclinic'
loop_
_space_group_symop_operation_xyz
x,y,z
-x,y,1/2-z
-x,-y,-z
x,-y,1/2+z
1/2+x,1/2+y,z
1/2-x,1/2+y,1/2-z
1/2-x,1/2-y,-z
1/2+x,1/2-y,1/2+z
loop_
_atom_site_type_symbol
_atom_site_label
_atom_site_fract_x
_atom_site_fract_y
_atom_site_fract_z
Si Si1 0.109151 0.699470 0.959651
Si Si2 0.000000 0.131342 0.750000
Si Si3 0.476377 0.614364 0.970124
Si Si4 0.404508 0.068418 0.211627
Si Si5 0.112249 0.389131 0.270085
O O1 0.317125 0.682687 0.854944
O O2 0.091289 0.677290 0.862844
O O3 0.058248 0.790164 0.013501
O O4 0.983914 0.636626 0.094888
O O5 0.019577 0.084323 0.639847
O O6 0.673203 0.603433 0.887953
O O7 0.309973 0.578680 0.134147
O O8 0.500000 0.079135 0.250000
O O9 0.445157 0.977172 0.155326
O O10 0.000000 0.371938 0.250000
#
# Coordination Sequence:
#
# PCOD9269666 Si02
#       5
#     8   4   8   8   8
#     4  11  22  37  62  91 119 154 196 247 297 348
#     4  10  20  34  58  96 122 140 186 246 312 354
#     4  11  22  37  62  91 119 154 196 247 297 348
#     4  11  21  37  62  89 123 154 189 249 301 352
#     4  10  24  42  57  80 122 165 205 233 283 349
#
# _framework density 20.354247000000001
#
# number of rings (size 3 to 8) (size 9 to 14) (size 15 to 20)
#    0.000    1.333    2.222    4.667    3.111    0.889 
#    0.000    1.111    0.000    0.000    0.000    0.000 
#    0.000    0.000    0.000    0.000    0.000    0.000 
#
# Total GULP energy -100621.210501 kJ/mol
# GULP energy per Si atom -5590.067250 kJ/mol
# Density = 2.030792 g / cm^3
# Si number density = 20.354247 Si / 1000 Ang^3
#
#
#
# Elastic Constant Matrix: (Units=GPa)
#
#
# Indices 1 2 3 4 5 6 
#
# 1 138.0559 4.3875 37.4579 -0.0011 -7.9613 0.0005
# 2 4.3875 33.3808 6.2087 -0.0013 14.4621 0.0006
# 3 37.4579 6.2087 89.7748 -0.0022 -8.4167 0.0016
# 4 -0.0011 -0.0013 -0.0022 16.1257 0.0016 -3.7045
# 5 -7.9613 14.4621 -8.4167 0.0016 24.0221 -0.0009
# 6 0.0005 0.0006 0.0016 -3.7045 -0.0009 10.9982
#
#
#
# Elastic Compliance Matrix: (Units=1/GPa)
#
#
# Indices 1 2 3 4 5 6 
#
# 1 0.008290 -0.001671 -0.003093 0.000000 0.002670 0.000000
# 2 -0.001671 0.043422 -0.004972 0.000005 -0.028437 -0.000002
# 3 -0.003093 -0.004972 0.013398 0.000000 0.006663 -0.000001
# 4 0.000000 0.000005 0.000000 0.067214 -0.000007 0.022639
# 5 0.002670 -0.028437 0.006663 -0.000007 0.061968 0.000003
# 6 0.000000 -0.000002 -0.000001 0.022639 0.000003 0.098549
#
#
# Mechanical properties :
#
#
# Convention : Reuss Voigt Hill
#
# Bulk Modulus (GPa) = 21.91146 39.70218 30.80682
# Shear Modulus (GPa) = 15.26602 24.43970 19.85286
#
# Velocity S-wave (km/s) = 2.74161 3.46890 3.12647
# Velocity P-wave (km/s) = 4.56184 5.96593 5.31049
#
# Compressibility (1/GPa) = 0.04563822
#
# Stress axis : x y z
#
# Youngs Moduli (GPa) = 120.63184 23.02973 74.63811
#
# Poissons Ratio (x) = 0.03848 0.23085
# Poissons Ratio (y) = 0.20156 0.37110
# Poissons Ratio (z) = 0.37311 0.11450
#
# Static dielectric constant tensor:
#      x y z
#    x 1.702840 0.000000 0.011890 
#    y 0.000000 1.711750 0.000000 
#    z 0.011890 0.000000 1.750510 
# 
# From -- ./inp_files/28719.got.cif
#   From: 2010.05.17/outbox.cif.g08.bks.cpg/sg15_15_cif.got.tgz:28719.got - 2010.06.03 18:47:42.
