data_PCOD9269350
_publ_section_title
;
Structure prediction by ZEFSAII (Michael W. Deem and Ramdas Pophale) SiO2 
 PCOD9269350
Probable space group: C 2/C
;
_chemical_formula_sum "Si O2"
_cell_formula_units_Z 64
_cell_length_a 11.435533
_cell_length_b 28.051643
_cell_length_c 23.761724
_cell_angle_alpha 90.000000
_cell_angle_beta 153.640474
_cell_angle_gamma 90.000000
_cell_volume 3384.370605
_symmetry_space_group_name_H-M "C 2/C"
_symmetry_group_IT_number 15
_symmetry_cell_setting 'monoclinic'
loop_
_space_group_symop_operation_xyz
x,y,z
-x,y,1/2-z
-x,-y,-z
x,-y,1/2+z
1/2+x,1/2+y,z
1/2-x,1/2+y,1/2-z
1/2-x,1/2-y,-z
1/2+x,1/2-y,1/2+z
loop_
_atom_site_type_symbol
_atom_site_label
_atom_site_fract_x
_atom_site_fract_y
_atom_site_fract_z
Si Si1 0.201785 0.850440 0.711462
Si Si2 0.506752 0.265481 0.434286
Si Si3 0.660365 0.146173 0.759485
Si Si4 0.602264 0.825950 0.466699
Si Si5 0.806502 0.944405 0.864268
Si Si6 0.694160 0.549679 0.637902
Si Si7 0.731379 0.263274 0.650131
Si Si8 0.695735 0.162156 0.127813
O O1 0.151928 0.899186 0.657333
O O2 0.320933 0.808222 0.725489
O O3 0.371550 0.860176 0.840716
O O4 0.917672 0.827014 0.602535
O O5 0.750000 0.250000 0.500000
O O6 0.347017 0.308008 0.337832
O O7 0.599057 0.281557 0.535872
O O8 0.332510 0.218608 0.371575
O O9 0.500000 0.149875 0.750000
O O10 0.486060 0.147635 0.628010
O O11 0.817372 0.096482 0.829012
O O12 0.470741 0.773695 0.409311
O O13 0.539362 0.846682 0.502363
O O14 0.500000 0.942497 0.750000
O O15 0.860082 0.996944 0.861385
O O16 0.999114 0.942122 0.001208
O O17 0.000000 0.547793 0.750000
O O18 0.000000 0.235920 0.750000
O O19 0.000000 0.148461 0.250000
#
# Coordination Sequence:
#
# PCOD9269350 Si02
#       8
#     8   8   8   8   8   8   8   8
#     4  11  19  33  54  76 103 141 182 218 265 323
#     4  11  21  32  48  74 106 136 171 213 259 312
#     4  11  20  34  55  77 102 140 180 212 259 324
#     4  10  21  35  51  73 103 140 180 220 262 316
#     4  10  20  34  55  85 115 139 172 225 279 320
#     4   9  19  35  54  81 113 141 174 220 276 327
#     4  11  21  33  49  74 106 140 177 217 263 318
#     4   9  20  34  48  69 100 136 172 212 254 303
#
# _framework density 18.910457999999998
#
# number of rings (size 3 to 8) (size 9 to 14) (size 15 to 20)
#    0.000    1.750    0.000    6.375    0.000    3.000 
#    0.000    0.000    0.000    0.750    0.000   11.375 
#    0.000    0.000    0.000    0.000    0.000    0.000 
#
# Total GULP energy -178325.180309 kJ/mol
# GULP energy per Si atom -5572.661885 kJ/mol
# Density = 1.886742 g / cm^3
# Si number density = 18.910458 Si / 1000 Ang^3
#
#
#
# Elastic Constant Matrix: (Units=GPa)
#
#
# Indices 1 2 3 4 5 6 
#
# 1 67.3249 33.9961 30.5599 -0.0070 -21.1151 -0.0034
# 2 33.9961 77.9540 21.1924 -0.0076 -12.7532 -0.0026
# 3 30.5599 21.1924 98.8241 -0.0014 -25.6654 0.0029
# 4 -0.0070 -0.0076 -0.0014 26.7974 0.0144 -4.1442
# 5 -21.1151 -12.7532 -25.6654 0.0144 41.6879 0.0012
# 6 -0.0034 -0.0026 0.0029 -4.1442 0.0012 13.9836
#
#
#
# Elastic Compliance Matrix: (Units=1/GPa)
#
#
# Indices 1 2 3 4 5 6 
#
# 1 0.022512 -0.007737 -0.003518 0.000001 0.006869 0.000004
# 2 -0.007737 0.016566 -0.001025 0.000003 0.000518 0.000002
# 3 -0.003518 -0.001025 0.012954 -0.000005 0.005879 -0.000006
# 4 0.000001 0.000003 -0.000005 0.039110 -0.000016 0.011591
# 5 0.006869 0.000518 0.005879 -0.000016 0.031245 -0.000007
# 6 0.000004 0.000002 -0.000006 0.011591 -0.000007 0.074948
#
#
# Mechanical properties :
#
#
# Convention : Reuss Voigt Hill
#
# Bulk Modulus (GPa) = 36.40390 46.17776 41.29083
# Shear Modulus (GPa) = 21.64019 27.05075 24.34547
#
# Velocity S-wave (km/s) = 3.38649 3.78625 3.59194
# Velocity P-wave (km/s) = 5.88078 6.60200 6.25180
#
# Compressibility (1/GPa) = 0.02746959
#
# Stress axis : x y z
#
# Youngs Moduli (GPa) = 44.42140 60.36553 77.19768
#
# Poissons Ratio (x) = 0.46706 0.27160
# Poissons Ratio (y) = 0.34370 0.07916
# Poissons Ratio (z) = 0.15628 0.06190
#
# Static dielectric constant tensor:
#      x y z
#    x 1.760490 0.000000 -0.016820 
#    y 0.000000 1.652400 -0.000030 
#    z -0.016820 -0.000030 1.709370 
# 
# From -- ./inp_files/271311.got.cif
#   From: 2010.05.17/outbox.cif.g08.bks.cpg/sg15_136_cif.got.tgz:271311.got - 2010.06.03 18:47:42.
