data_PCOD9269877
_publ_section_title
;
Structure prediction by ZEFSAII (Michael W. Deem and Ramdas Pophale) SiO2 
 PCOD9269877
Probable space group: C 2/C
;
_chemical_formula_sum "Si O2"
_cell_formula_units_Z 56
_cell_length_a 28.973058
_cell_length_b 9.463580
_cell_length_c 9.616739
_cell_angle_alpha 90.000000
_cell_angle_beta 65.538454
_cell_angle_gamma 90.000000
_cell_volume 2400.121608
_symmetry_space_group_name_H-M "C 2/C"
_symmetry_group_IT_number 15
_symmetry_cell_setting 'monoclinic'
loop_
_space_group_symop_operation_xyz
x,y,z
-x,y,1/2-z
-x,-y,-z
x,-y,1/2+z
1/2+x,1/2+y,z
1/2-x,1/2+y,1/2-z
1/2-x,1/2-y,-z
1/2+x,1/2-y,1/2+z
loop_
_atom_site_type_symbol
_atom_site_label
_atom_site_fract_x
_atom_site_fract_y
_atom_site_fract_z
Si Si1 0.139897 0.226917 0.482583
Si Si2 0.000000 0.501649 0.750000
Si Si3 0.781971 0.410043 0.966760
Si Si4 0.278945 0.559936 0.242367
Si Si5 0.000000 0.000686 0.750000
Si Si6 0.069986 0.757996 0.686831
Si Si7 0.472094 0.256870 0.449389
Si Si8 0.325484 0.797969 0.345216
O O1 0.164587 0.079164 0.395790
O O2 0.176647 0.289413 0.554651
O O3 0.080071 0.228025 0.576688
O O4 0.150037 0.330220 0.337148
O O5 0.047465 0.607382 0.666833
O O6 0.000550 0.389345 0.622849
O O7 0.756679 0.408347 0.845611
O O8 0.810056 0.559174 0.935760
O O9 0.741208 0.426212 0.145036
O O10 0.283071 0.685496 0.352166
O O11 0.993252 0.110579 0.632668
O O12 0.045287 0.895942 0.652119
O O13 0.129936 0.768320 0.619408
O O14 0.047489 0.763744 0.871062
#
# Coordination Sequence:
#
# PCOD9269877 Si02
#       8
#     8   4   8   8   4   8   8   8
#     4   9  21  36  54  85 116 152 195 251 290 354
#     4  10  20  34  64  88 110 166 194 250 294 364
#     4  12  19  39  62  83 120 159 198 251 303 352
#     4  10  22  36  58  86 116 153 198 242 304 356
#     4  10  22  36  64  84 118 166 186 248 304 372
#     4  10  20  39  58  88 122 151 202 244 302 358
#     4  10  20  39  58  88 122 151 202 244 302 358
#     4   9  21  36  54  85 116 152 195 251 290 354
#
# _framework density 23.332152000000001
#
# number of rings (size 3 to 8) (size 9 to 14) (size 15 to 20)
#    0.857    1.143    1.429    2.571    0.000    1.143 
#    0.000    0.000    6.286    0.000    0.000    0.000 
#    0.000    0.000    0.000    0.000    0.000    0.143 
#
# Total GULP energy -155886.065848 kJ/mol
# GULP energy per Si atom -5567.359495 kJ/mol
# Density = 2.327905 g / cm^3
# Si number density = 23.332152 Si / 1000 Ang^3
#
#
#
# Elastic Constant Matrix: (Units=GPa)
#
#
# Indices 1 2 3 4 5 6 
#
# 1 102.2425 31.5830 15.2931 0.0000 10.8493 0.0000
# 2 31.5830 112.1281 18.2595 0.0000 2.6809 0.0000
# 3 15.2931 18.2595 42.4398 0.0000 -5.4880 0.0000
# 4 0.0000 0.0000 0.0000 22.8902 0.0000 10.5043
# 5 10.8493 2.6809 -5.4880 0.0000 20.5200 0.0000
# 6 0.0000 0.0000 0.0000 10.5043 0.0000 31.4620
#
#
#
# Elastic Compliance Matrix: (Units=1/GPa)
#
#
# Indices 1 2 3 4 5 6 
#
# 1 0.011928 -0.002518 -0.004131 0.000000 -0.007082 0.000000
# 2 -0.002518 0.010241 -0.003625 0.000000 -0.000976 0.000000
# 3 -0.004131 -0.003625 0.027920 0.000000 0.010125 0.000000
# 4 0.000000 0.000000 0.000000 0.051591 0.000000 -0.017225
# 5 -0.007082 -0.000976 0.010125 0.000000 0.055313 0.000000
# 6 0.000000 0.000000 0.000000 -0.017225 0.000000 0.037535
#
#
# Mechanical properties :
#
#
# Convention : Reuss Voigt Hill
#
# Bulk Modulus (GPa) = 33.85022 43.00909 38.42965
# Shear Modulus (GPa) = 22.22978 27.75276 24.99127
#
# Velocity S-wave (km/s) = 3.09002 3.45260 3.27633
# Velocity P-wave (km/s) = 5.22211 5.86237 5.55148
#
# Compressibility (1/GPa) = 0.02954190
#
# Stress axis : x y z
#
# Youngs Moduli (GPa) = 83.83793 97.64451 35.81622
#
# Poissons Ratio (x) = 0.24584 0.14795
# Poissons Ratio (y) = 0.21108 0.12984
# Poissons Ratio (z) = 0.34631 0.35399
#
# Static dielectric constant tensor:
#      x y z
#    x 1.958890 0.000000 -0.017270 
#    y 0.000000 1.878870 0.000000 
#    z -0.017270 0.000000 1.903890 
# 
# From -- ./inp_files/65574.got.cif
#   From: 2010.05.17/outbox.cif.g08.bks.cpg/sg15_33_cif.got.tgz:65574.got - 2010.06.03 18:47:42.
