data_PCOD9269811
_publ_section_title
;
Structure prediction by ZEFSAII (Michael W. Deem and Ramdas Pophale) SiO2 
 PCOD9269811
Probable space group: C 2/C
;
_chemical_formula_sum "Si O2"
_cell_formula_units_Z 52
_cell_length_a 16.735556
_cell_length_b 11.265629
_cell_length_c 25.334034
_cell_angle_alpha 90.000000
_cell_angle_beta 150.160498
_cell_angle_gamma 90.000000
_cell_volume 2376.599344
_symmetry_space_group_name_H-M "C 2/C"
_symmetry_group_IT_number 15
_symmetry_cell_setting 'monoclinic'
loop_
_space_group_symop_operation_xyz
x,y,z
-x,y,1/2-z
-x,-y,-z
x,-y,1/2+z
1/2+x,1/2+y,z
1/2-x,1/2+y,1/2-z
1/2-x,1/2-y,-z
1/2+x,1/2-y,1/2+z
loop_
_atom_site_type_symbol
_atom_site_label
_atom_site_fract_x
_atom_site_fract_y
_atom_site_fract_z
Si Si1 0.340928 0.189780 0.262216
Si Si2 0.913717 0.836062 0.974476
Si Si3 0.996085 0.921087 0.187949
Si Si4 0.339387 0.147487 0.017693
Si Si5 0.570976 0.329565 0.694770
Si Si6 0.348226 0.411674 0.475863
Si Si7 0.000000 0.653906 0.750000
O O1 0.234917 0.153696 0.151413
O O2 0.419365 0.318854 0.297528
O O3 0.496332 0.107447 0.360995
O O4 0.223624 0.193263 0.244929
O O5 0.891889 0.714954 0.994227
O O6 0.911203 0.952327 0.010151
O O7 0.070959 0.846639 0.028386
O O8 0.805416 0.944029 0.070349
O O9 0.000000 0.875633 0.250000
O O10 0.088158 0.042877 0.232582
O O11 0.250000 0.250000 0.000000
O O12 0.420442 0.345384 0.568139
O O13 0.545576 0.234576 0.725683
O O14 0.158778 0.414624 0.359315
#
# Coordination Sequence:
#
# PCOD9269811 Si02
#       7
#     8   8   8   8   8   8   4
#     4  10  22  39  66  92 124 166 210 257 313 374
#     4  10  20  40  60  90 123 161 210 262 305 369
#     4  11  21  41  65  91 128 165 204 261 316 367
#     4  10  20  34  61  93 122 157 208 258 306 365
#     4  11  24  43  62  92 129 165 208 259 321 373
#     4  10  23  39  63  87 123 165 208 258 317 368
#     4  12  24  40  62  88 126 168 208 256 316 386
#
# _framework density 21.880002999999999
#
# number of rings (size 3 to 8) (size 9 to 14) (size 15 to 20)
#    0.000    1.538    2.308    3.231    0.000    6.154 
#    0.000    3.846    0.000    0.000    0.000    0.000 
#    0.000    0.000    0.000    0.000    0.000    0.000 
#
# Total GULP energy -145249.593671 kJ/mol
# GULP energy per Si atom -5586.522833 kJ/mol
# Density = 2.183020 g / cm^3
# Si number density = 21.880003 Si / 1000 Ang^3
#
#
#
# Elastic Constant Matrix: (Units=GPa)
#
#
# Indices 1 2 3 4 5 6 
#
# 1 104.9041 27.4828 29.8123 0.0001 6.6210 0.0000
# 2 27.4828 37.2647 -18.0516 0.0002 6.2361 0.0001
# 3 29.8123 -18.0516 118.0535 0.0007 17.8850 0.0001
# 4 0.0001 0.0002 0.0007 16.5204 0.0002 -4.7445
# 5 6.6210 6.2361 17.8850 0.0002 32.8831 0.0000
# 6 0.0000 0.0001 0.0001 -4.7445 0.0000 33.2394
#
#
#
# Elastic Compliance Matrix: (Units=1/GPa)
#
#
# Indices 1 2 3 4 5 6 
#
# 1 0.015099 -0.014899 -0.006603 0.000000 0.003377 0.000000
# 2 -0.014899 0.046112 0.012733 -0.000001 -0.012670 0.000000
# 3 -0.006603 0.012733 0.013350 -0.000001 -0.008346 0.000000
# 4 0.000000 -0.000001 -0.000001 0.063119 0.000000 0.009009
# 5 0.003377 -0.012670 -0.008346 0.000000 0.036673 0.000000
# 6 0.000000 0.000000 0.000000 0.009009 0.000000 0.031371
#
#
# Mechanical properties :
#
#
# Convention : Reuss Voigt Hill
#
# Bulk Modulus (GPa) = 17.53700 37.63438 27.58569
# Shear Modulus (GPa) = 20.63827 31.26048 25.94937
#
# Velocity S-wave (km/s) = 3.07457 3.78395 3.44755
# Velocity P-wave (km/s) = 4.54273 6.02733 5.33691
#
# Compressibility (1/GPa) = 0.05702231
#
# Stress axis : x y z
#
# Youngs Moduli (GPa) = 66.22906 21.68653 74.90872
#
# Poissons Ratio (x) = 0.32311 0.49461
# Poissons Ratio (y) = 0.98676 -0.95381
# Poissons Ratio (z) = 0.43730 -0.27613
#
# Static dielectric constant tensor:
#      x y z
#    x 1.791030 0.000000 -0.038810 
#    y 0.000000 1.765950 0.000000 
#    z -0.038810 0.000000 1.869280 
# 
# From -- ./inp_files/298886.got.cif
#   From: 2010.05.17/outbox.cif.g08.bks.cpg/sg15_150_cif.got.tgz:298886.got - 2010.06.03 18:47:42.
