data_PCOD9269649
_publ_section_title
;
Structure prediction by ZEFSAII (Michael W. Deem and Ramdas Pophale) SiO2 
 PCOD9269649
Probable space group: C 2/C
;
_chemical_formula_sum "Si O2"
_cell_formula_units_Z 64
_cell_length_a 14.606855
_cell_length_b 16.883319
_cell_length_c 26.268444
_cell_angle_alpha 90.000000
_cell_angle_beta 151.303851
_cell_angle_gamma 90.000000
_cell_volume 3110.562830
_symmetry_space_group_name_H-M "C 2/C"
_symmetry_group_IT_number 15
_symmetry_cell_setting 'monoclinic'
loop_
_space_group_symop_operation_xyz
x,y,z
-x,y,1/2-z
-x,-y,-z
x,-y,1/2+z
1/2+x,1/2+y,z
1/2-x,1/2+y,1/2-z
1/2-x,1/2-y,-z
1/2+x,1/2-y,1/2+z
loop_
_atom_site_type_symbol
_atom_site_label
_atom_site_fract_x
_atom_site_fract_y
_atom_site_fract_z
Si Si1 0.769395 0.028316 0.278323
Si Si2 0.310695 0.149702 0.590914
Si Si3 0.022431 0.046432 0.820518
Si Si4 0.588782 0.311289 0.604914
Si Si5 0.744322 0.144657 0.815583
Si Si6 0.180017 0.337650 0.877198
Si Si7 0.671523 0.975192 0.947455
Si Si8 0.434388 0.281665 0.319847
O O1 0.861739 0.098153 0.355774
O O2 0.551071 0.045864 0.158719
O O3 0.887105 0.013686 0.284796
O O4 0.768735 0.945090 0.307666
O O5 0.531335 0.174606 0.695975
O O6 0.261396 0.139575 0.626675
O O7 0.130520 0.203364 0.487448
O O8 0.303127 0.065294 0.558581
O O9 0.958801 0.135867 0.802173
O O10 0.000000 0.033077 0.750000
O O11 0.224059 0.037544 0.948006
O O12 0.655614 0.303917 0.578938
O O13 0.736296 0.257228 0.706588
O O14 0.902111 0.196680 0.863132
O O15 0.244603 0.416208 0.938651
O O16 0.000000 0.353688 0.750000
O O17 0.099014 0.276702 0.879933
#
# Coordination Sequence:
#
# PCOD9269649 Si02
#       8
#     8   8   8   8   8   8   8   8
#     4  10  20  38  60  91 120 161 203 269 302 372
#     4  10  21  36  63  93 119 164 207 259 314 364
#     4  11  24  41  60  85 127 165 211 253 313 379
#     4  11  20  36  61  90 125 160 207 254 313 368
#     4   9  21  38  59  90 133 158 208 253 313 376
#     4  10  20  34  58  92 127 156 197 252 314 374
#     4  11  21  37  64  93 120 160 206 267 319 361
#     4  10  22  41  56  87 128 169 195 255 310 376
#
# _framework density 20.575054000000002
#
# number of rings (size 3 to 8) (size 9 to 14) (size 15 to 20)
#    0.000    1.750    3.750    1.875    5.250    2.500 
#    2.250    0.000    2.750    0.000    0.000    0.000 
#    0.000    0.000    0.000    0.000    0.000    0.000 
#
# Total GULP energy -178596.581471 kJ/mol
# GULP energy per Si atom -5581.143171 kJ/mol
# Density = 2.052822 g / cm^3
# Si number density = 20.575054 Si / 1000 Ang^3
#
#
#
# Elastic Constant Matrix: (Units=GPa)
#
#
# Indices 1 2 3 4 5 6 
#
# 1 103.7894 12.8372 19.5187 -0.0005 -7.9993 -0.0001
# 2 12.8372 15.9992 5.8540 -0.0005 1.5007 0.0000
# 3 19.5187 5.8540 77.0895 -0.0002 3.2688 0.0000
# 4 -0.0005 -0.0005 -0.0002 14.6257 0.0004 5.7334
# 5 -7.9993 1.5007 3.2688 0.0004 35.4177 -0.0001
# 6 -0.0001 0.0000 0.0000 5.7334 -0.0001 25.8572
#
#
#
# Elastic Compliance Matrix: (Units=1/GPa)
#
#
# Indices 1 2 3 4 5 6 
#
# 1 0.011382 -0.008562 -0.002365 0.000000 0.003152 0.000000
# 2 -0.008562 0.070915 -0.003020 0.000003 -0.004660 -0.000001
# 3 -0.002365 -0.003020 0.013872 0.000000 -0.001686 0.000000
# 4 0.000000 0.000003 0.000000 0.074881 -0.000001 -0.016604
# 5 0.003152 -0.004660 -0.001686 -0.000001 0.029299 0.000000
# 6 0.000000 -0.000001 0.000000 -0.016604 0.000000 0.042355
#
#
# Mechanical properties :
#
#
# Convention : Reuss Voigt Hill
#
# Bulk Modulus (GPa) = 14.64684 30.36645 22.50664
# Shear Modulus (GPa) = 17.04405 25.75800 21.40103
#
# Velocity S-wave (km/s) = 2.88129 3.54206 3.22863
# Velocity P-wave (km/s) = 4.26653 5.61420 4.98611
#
# Compressibility (1/GPa) = 0.06827412
#
# Stress axis : x y z
#
# Youngs Moduli (GPa) = 87.86068 14.10130 72.08969
#
# Poissons Ratio (x) = 0.12074 0.17051
# Poissons Ratio (y) = 0.75230 0.21768
# Poissons Ratio (z) = 0.20781 0.04258
#
# Static dielectric constant tensor:
#      x y z
#    x 1.727600 0.000000 0.025840 
#    y 0.000000 1.712570 0.000000 
#    z 0.025840 0.000000 1.815940 
# 
# From -- ./inp_files/274848.got.cif
#   From: 2010.05.17/outbox.cif.g08.bks.cpg/sg15_138_cif.got.tgz:274848.got - 2010.06.03 18:47:42.
