data_PCOD9269352
_publ_section_title
;
Structure prediction by ZEFSAII (Michael W. Deem and Ramdas Pophale) SiO2 
 PCOD9269352
Probable space group: C 2/C
;
_chemical_formula_sum "Si O2"
_cell_formula_units_Z 52
_cell_length_a 26.118820
_cell_length_b 11.468027
_cell_length_c 7.746168
_cell_angle_alpha 90.000000
_cell_angle_beta 98.151769
_cell_angle_gamma 90.000000
_cell_volume 2296.776393
_symmetry_space_group_name_H-M "C 2/C"
_symmetry_group_IT_number 15
_symmetry_cell_setting 'monoclinic'
loop_
_space_group_symop_operation_xyz
x,y,z
-x,y,1/2-z
-x,-y,-z
x,-y,1/2+z
1/2+x,1/2+y,z
1/2-x,1/2+y,1/2-z
1/2-x,1/2-y,-z
1/2+x,1/2-y,1/2+z
loop_
_atom_site_type_symbol
_atom_site_label
_atom_site_fract_x
_atom_site_fract_y
_atom_site_fract_z
Si Si1 0.700798 0.881403 0.719829
Si Si2 0.462666 0.083339 0.869748
Si Si3 0.000000 0.051834 0.250000
Si Si4 0.819346 0.848270 0.419375
Si Si5 0.060772 0.141796 0.594837
Si Si6 0.411654 0.136593 0.179614
Si Si7 0.238565 0.942069 0.433690
O O1 0.696501 0.786289 0.565150
O O2 0.648282 0.860208 0.800423
O O3 0.710259 0.007441 0.637306
O O4 0.746343 0.875780 0.884217
O O5 0.500000 0.855055 0.250000
O O6 0.428033 0.153375 0.988764
O O7 0.571878 0.007381 0.254010
O O8 0.500000 0.000000 0.000000
O O9 0.046335 0.964405 0.215412
O O10 0.020156 0.124851 0.421592
O O11 0.880752 0.865170 0.447045
O O12 0.792829 0.941356 0.530158
O O13 0.796099 0.873498 0.217819
O O14 0.059129 0.265039 0.693633
#
# Coordination Sequence:
#
# PCOD9269352 Si02
#       7
#     8   8   4   8   8   8   8
#     4  10  20  34  55  85 119 158 191 238 286 349
#     4   9  19  35  56  85 115 152 197 241 294 360
#     4  10  22  42  60  86 112 150 210 252 312 340
#     4  10  20  36  57  86 114 154 197 239 294 347
#     4  10  22  39  63  83 117 155 201 259 295 356
#     4  10  20  37  58  86 122 157 198 244 298 354
#     4  10  20  34  57  83 121 156 194 237 291 343
#
# _framework density 22.640428
#
# number of rings (size 3 to 8) (size 9 to 14) (size 15 to 20)
#    0.000    2.154    0.000    2.769    3.231    0.000 
#    4.154    0.000    0.000   22.154    0.000    0.000 
#    0.000    0.000    0.000    0.000    0.000    0.000 
#
# Total GULP energy -145188.022858 kJ/mol
# GULP energy per Si atom -5584.154725 kJ/mol
# Density = 2.258890 g / cm^3
# Si number density = 22.640428 Si / 1000 Ang^3
#
#
#
# Elastic Constant Matrix: (Units=GPa)
#
#
# Indices 1 2 3 4 5 6 
#
# 1 103.9614 27.3723 3.0446 0.0000 -21.0158 0.0000
# 2 27.3723 76.4533 18.1131 0.0000 -1.9799 0.0000
# 3 3.0446 18.1131 62.2492 0.0000 -15.7915 0.0000
# 4 0.0000 0.0000 0.0000 25.5590 0.0000 -3.1075
# 5 -21.0158 -1.9799 -15.7915 0.0000 34.5988 0.0000
# 6 0.0000 0.0000 0.0000 -3.1075 0.0000 26.5114
#
#
#
# Elastic Compliance Matrix: (Units=1/GPa)
#
#
# Indices 1 2 3 4 5 6 
#
# 1 0.012627 -0.005021 0.003072 0.000000 0.008784 0.000000
# 2 -0.005021 0.016089 -0.005628 0.000000 -0.004698 0.000000
# 3 0.003072 -0.005628 0.020293 0.000000 0.010806 0.000000
# 4 0.000000 0.000000 0.000000 0.039691 0.000000 0.004652
# 5 0.008784 -0.004698 0.010806 0.000000 0.038902 0.000000
# 6 0.000000 0.000000 0.000000 0.004652 0.000000 0.038265
#
#
# Mechanical properties :
#
#
# Convention : Reuss Voigt Hill
#
# Bulk Modulus (GPa) = 29.53757 37.74711 33.64234
# Shear Modulus (GPa) = 26.00034 30.27609 28.13821
#
# Velocity S-wave (km/s) = 3.39249 3.66082 3.52920
# Velocity P-wave (km/s) = 5.33104 5.88026 5.61237
#
# Compressibility (1/GPa) = 0.03385519
#
# Stress axis : x y z
#
# Youngs Moduli (GPa) = 79.19701 62.15358 49.27798
#
# Poissons Ratio (x) = 0.31207 -0.15137
# Poissons Ratio (y) = 0.39765 0.27732
# Poissons Ratio (z) = -0.24328 0.34978
#
# Static dielectric constant tensor:
#      x y z
#    x 1.858670 0.000000 -0.043650 
#    y 0.000000 1.785540 0.000000 
#    z -0.043650 0.000000 1.850360 
# 
# From -- ./inp_files/65215.got.cif
#   From: 2010.05.17/outbox.cif.g08.bks.cpg/sg15_33_cif.got.tgz:65215.got - 2010.06.03 18:47:42.
