data_PCOD9269989
_publ_section_title
;
Structure prediction by ZEFSAII (Michael W. Deem and Ramdas Pophale) SiO2 
 PCOD9269989
Probable space group: C 2/C
;
_chemical_formula_sum "Si O2"
_cell_formula_units_Z 32
_cell_length_a 4.955517
_cell_length_b 32.126639
_cell_length_c 10.189999
_cell_angle_alpha 90.000000
_cell_angle_beta 70.627622
_cell_angle_gamma 90.000000
_cell_volume 1530.439987
_symmetry_space_group_name_H-M "C 2/C"
_symmetry_group_IT_number 15
_symmetry_cell_setting 'monoclinic'
loop_
_space_group_symop_operation_xyz
x,y,z
-x,y,1/2-z
-x,-y,-z
x,-y,1/2+z
1/2+x,1/2+y,z
1/2-x,1/2+y,1/2-z
1/2-x,1/2-y,-z
1/2+x,1/2-y,1/2+z
loop_
_atom_site_type_symbol
_atom_site_label
_atom_site_fract_x
_atom_site_fract_y
_atom_site_fract_z
Si Si1 0.022933 0.304984 0.027900
Si Si2 0.188240 0.981144 0.084611
Si Si3 0.872181 0.780965 0.632148
Si Si4 0.189249 0.391846 0.343123
O O1 0.970306 0.352415 0.071905
O O2 0.852815 0.269172 0.134500
O O3 0.904155 0.297913 0.898630
O O4 0.352914 0.293698 0.000315
O O5 0.000000 0.988959 0.250000
O O6 0.244139 0.931471 0.077099
O O7 0.500000 0.000000 0.000000
O O8 0.000000 0.000000 0.000000
O O9 0.000000 0.795666 0.750000
O O10 0.500000 0.376123 0.250000
O O11 0.000000 0.407134 0.250000
#
# Coordination Sequence:
#
# PCOD9269989 Si02
#       4
#     8   8   8   8
#     4  10  21  35  55  81 110 151 199 240 292 354
#     4  11  23  43  67  95 128 165 210 264 328 394
#     4  10  20  35  53  78 115 154 191 241 297 353
#     4  11  22  39  63  89 117 155 207 260 304 369
#
# _framework density 20.909020000000002
#
# number of rings (size 3 to 8) (size 9 to 14) (size 15 to 20)
#    0.000    1.500    0.000    6.750    0.000    4.000 
#    0.000    7.500    0.000    0.000    0.000    0.000 
#    0.000    0.000    0.000    0.000    0.000    0.000 
#
# Total GULP energy -89130.513153 kJ/mol
# GULP energy per Si atom -5570.657072 kJ/mol
# Density = 2.086143 g / cm^3
# Si number density = 20.909020 Si / 1000 Ang^3
#
#
#
# Elastic Constant Matrix: (Units=GPa)
#
#
# Indices 1 2 3 4 5 6 
#
# 1 169.7610 30.1084 27.2871 0.0000 3.0173 0.0000
# 2 30.1084 140.7031 36.2237 0.0000 5.3179 0.0000
# 3 27.2871 36.2237 61.9771 0.0000 0.1138 0.0000
# 4 0.0000 0.0000 0.0000 0.6052 0.0000 3.5772
# 5 3.0173 5.3179 0.1138 0.0000 42.2404 0.0000
# 6 0.0000 0.0000 0.0000 3.5772 0.0000 30.8589
#
#
#
# Elastic Compliance Matrix: (Units=1/GPa)
#
#
# Indices 1 2 3 4 5 6 
#
# 1 0.006413 -0.000744 -0.002388 0.000000 -0.000358 0.000000
# 2 -0.000744 0.008498 -0.004638 0.000000 -0.001004 0.000000
# 3 -0.002388 -0.004638 0.019896 0.000000 0.000701 0.000000
# 4 0.000000 0.000000 0.000000 5.249239 0.000000 -0.608493
# 5 -0.000358 -0.001004 0.000701 0.000000 0.023824 0.000000
# 6 0.000000 0.000000 0.000000 -0.608493 0.000000 0.102942
#
#
# Mechanical properties :
#
#
# Convention : Reuss Voigt Hill
#
# Bulk Modulus (GPa) = 51.90037 62.18664 57.04350
# Shear Modulus (GPa) = 0.92034 33.32903 17.12468
#
# Velocity S-wave (km/s) = 0.66417 3.99683 2.86494
# Velocity P-wave (km/s) = 5.04619 7.14882 6.18747
#
# Compressibility (1/GPa) = 0.01926769
#
# Stress axis : x y z
#
# Youngs Moduli (GPa) = 155.93874 117.67131 50.26245
#
# Poissons Ratio (x) = 0.08754 0.12002
# Poissons Ratio (y) = 0.11601 0.23310
# Poissons Ratio (z) = 0.37237 0.54571
#
# Static dielectric constant tensor:
#      x y z
#    x 1.770570 0.000000 -0.040660 
#    y 0.000000 1.707580 0.000000 
#    z -0.040660 0.000000 1.949240 
# 
# From -- ./inp_files/72800.got.cif
#   From: 2010.05.17/outbox.cif.g08.bks.cpg/sg15_37_cif.got.tgz:72800.got - 2010.06.03 18:47:42.
