data_PCOD9269584
_publ_section_title
;
Structure prediction by ZEFSAII (Michael W. Deem and Ramdas Pophale) SiO2 
 PCOD9269584
Probable space group: C 2/C
;
_chemical_formula_sum "Si O2"
_cell_formula_units_Z 48
_cell_length_a 15.534611
_cell_length_b 30.892692
_cell_length_c 10.510245
_cell_angle_alpha 90.000000
_cell_angle_beta 154.652740
_cell_angle_gamma 90.000000
_cell_volume 2159.323436
_symmetry_space_group_name_H-M "C 2/C"
_symmetry_group_IT_number 15
_symmetry_cell_setting 'monoclinic'
loop_
_space_group_symop_operation_xyz
x,y,z
-x,y,1/2-z
-x,-y,-z
x,-y,1/2+z
1/2+x,1/2+y,z
1/2-x,1/2+y,1/2-z
1/2-x,1/2-y,-z
1/2+x,1/2-y,1/2+z
loop_
_atom_site_type_symbol
_atom_site_label
_atom_site_fract_x
_atom_site_fract_y
_atom_site_fract_z
Si Si1 0.172426 0.976850 0.643061
Si Si2 0.602333 0.203304 0.688209
Si Si3 0.093144 0.109370 0.173611
Si Si4 0.953152 0.538429 0.321409
Si Si5 0.684631 0.109263 0.770565
Si Si6 0.319722 0.703272 0.235130
O O1 0.141682 0.926955 0.637251
O O2 0.230181 0.977361 0.566864
O O3 0.000000 0.000000 0.500000
O O4 0.382972 0.999663 0.966411
O O5 0.630729 0.157991 0.655916
O O6 0.596742 0.249920 0.613653
O O7 0.395981 0.199159 0.488446
O O8 0.784470 0.205309 0.034901
O O9 0.266732 0.110295 0.513995
O O10 0.069526 0.158275 0.091123
O O11 0.889960 0.096574 0.974541
O O12 0.000000 0.560929 0.250000
O O13 0.024268 0.573765 0.518751
#
# Coordination Sequence:
#
# PCOD9269584 Si02
#       6
#     8   8   8   8   8   8
#     4  11  24  42  61  86 115 152 198 245 295 343
#     4   9  16  27  47  74 114 143 184 223 292 354
#     4  10  20  34  58  83 117 148 193 240 297 348
#     4  11  26  41  60  86 119 156 198 242 293 352
#     4  10  20  36  56  85 115 154 189 239 293 355
#     4   9  16  27  45  78 110 147 177 234 290 351
#
# _framework density 22.229185999999999
#
# number of rings (size 3 to 8) (size 9 to 14) (size 15 to 20)
#    0.000    2.000    1.667    2.000    4.667    6.000 
#    0.000    0.000    0.000    0.000    0.000   10.500 
#    0.000    0.000    0.000    0.000    0.000    0.000 
#
# Total GULP energy -133689.385816 kJ/mol
# GULP energy per Si atom -5570.391076 kJ/mol
# Density = 2.217859 g / cm^3
# Si number density = 22.229186 Si / 1000 Ang^3
#
#
#
# Elastic Constant Matrix: (Units=GPa)
#
#
# Indices 1 2 3 4 5 6 
#
# 1 107.8947 26.7789 34.4576 0.0000 44.0963 0.0000
# 2 26.7789 143.0108 14.5722 0.0000 13.5368 0.0000
# 3 34.4576 14.5722 38.7277 0.0000 36.2277 0.0000
# 4 0.0000 0.0000 0.0000 27.9646 0.0000 12.8216
# 5 44.0963 13.5368 36.2277 0.0000 41.3150 0.0000
# 6 0.0000 0.0000 0.0000 12.8216 0.0000 32.4501
#
#
#
# Elastic Compliance Matrix: (Units=1/GPa)
#
#
# Indices 1 2 3 4 5 6 
#
# 1 0.017585 -0.001786 0.011326 0.000000 -0.028115 0.000000
# 2 -0.001786 0.007453 -0.003973 0.000000 0.002948 0.000000
# 3 0.011326 -0.003973 0.152047 0.000000 -0.144111 0.000000
# 4 0.000000 0.000000 0.000000 0.043671 0.000000 -0.017255
# 5 -0.028115 0.002948 -0.144111 0.000000 0.179612 0.000000
# 6 0.000000 0.000000 0.000000 -0.017255 0.000000 0.037634
#
#
# Mechanical properties :
#
#
# Convention : Reuss Voigt Hill
#
# Bulk Modulus (GPa) = 5.31294 49.02784 27.17039
# Shear Modulus (GPa) = 10.21227 34.60091 22.40659
#
# Velocity S-wave (km/s) = 2.14571 3.94960 3.17832
# Velocity P-wave (km/s) = 2.92130 6.55001 5.07132
#
# Compressibility (1/GPa) = 0.18821957
#
# Stress axis : x y z
#
# Youngs Moduli (GPa) = 56.86699 134.18064 6.57690
#
# Poissons Ratio (x) = 0.23959 -0.07449
# Poissons Ratio (y) = 0.10154 0.02613
# Poissons Ratio (z) = -0.64406 0.53307
#
# Static dielectric constant tensor:
#      x y z
#    x 1.971550 0.000000 -0.068270 
#    y 0.000000 1.869990 0.000000 
#    z -0.068270 0.000000 1.917760 
# 
# From -- ./inp_files/101681.got.cif
#   From: 2010.05.17/outbox.cif.g08.bks.cpg/sg15_51_cif.got.tgz:101681.got - 2010.06.03 18:47:42.
