data_PCOD9269076
_publ_section_title
;
Structure prediction by ZEFSAII (Michael W. Deem and Ramdas Pophale) SiO2 
 PCOD9269076
Probable space group: C 2/C
;
_chemical_formula_sum "Si O2"
_cell_formula_units_Z 44
_cell_length_a 14.178255
_cell_length_b 32.963861
_cell_length_c 14.252015
_cell_angle_alpha 90.000000
_cell_angle_beta 20.648713
_cell_angle_gamma 90.000000
_cell_volume 2348.904991
_symmetry_space_group_name_H-M "C 2/C"
_symmetry_group_IT_number 15
_symmetry_cell_setting 'monoclinic'
loop_
_space_group_symop_operation_xyz
x,y,z
-x,y,1/2-z
-x,-y,-z
x,-y,1/2+z
1/2+x,1/2+y,z
1/2-x,1/2+y,1/2-z
1/2-x,1/2-y,-z
1/2+x,1/2-y,1/2+z
loop_
_atom_site_type_symbol
_atom_site_label
_atom_site_fract_x
_atom_site_fract_y
_atom_site_fract_z
Si Si1 0.176967 0.616949 0.416724
Si Si2 0.683714 0.722956 0.902553
Si Si3 0.610406 0.648303 0.870312
Si Si4 0.380643 0.042578 0.145157
Si Si5 0.059302 0.926960 0.303055
Si Si6 0.500000 0.835480 0.250000
O O1 0.201017 0.569478 0.370023
O O2 0.887673 0.629236 0.646491
O O3 0.175611 0.634684 0.521796
O O4 0.394118 0.639514 0.152006
O O5 0.657420 0.696413 0.831546
O O6 0.812798 0.693428 0.860941
O O7 0.895151 0.759402 0.696604
O O8 0.519748 0.620711 0.867416
O O9 0.130871 0.046746 0.449648
O O10 0.632828 0.062675 0.963164
O O11 0.500000 0.000000 0.000000
O O12 0.000000 0.934434 0.250000
#
# Coordination Sequence:
#
# PCOD9269076 Si02
#       6
#     8   8   8   8   8   4
#     4   9  19  33  51  71 101 148 175 212 263 323
#     4  11  21  32  50  76 106 143 180 225 273 318
#     4   9  19  35  52  72 104 138 178 218 268 320
#     4  10  20  37  58  80 117 141 174 229 289 322
#     4  10  20  37  61  84 102 143 190 226 265 334
#     4  10  20  34  48  74 110 142 190 216 258 336
#
# _framework density 18.732133000000001
#
# number of rings (size 3 to 8) (size 9 to 14) (size 15 to 20)
#    0.000    2.182    0.000    3.818    0.000    5.818 
#    3.273    0.000    0.000    1.091    0.000    0.000 
#    0.000    0.000    0.000    0.000    0.000    0.000 
#
# Total GULP energy -122544.664983 kJ/mol
# GULP energy per Si atom -5570.212045 kJ/mol
# Density = 1.868950 g / cm^3
# Si number density = 18.732133 Si / 1000 Ang^3
#
#
#
# Elastic Constant Matrix: (Units=GPa)
#
#
# Indices 1 2 3 4 5 6 
#
# 1 33.8518 19.6281 -3.0015 0.0004 7.1542 0.0003
# 2 19.6281 73.5745 -14.5014 -0.0003 8.1261 0.0001
# 3 -3.0015 -14.5014 94.8910 0.0030 -3.7652 -0.0053
# 4 0.0004 -0.0003 0.0030 17.7242 0.0001 -2.9337
# 5 7.1542 8.1261 -3.7652 0.0001 25.4006 0.0003
# 6 0.0003 0.0001 -0.0053 -2.9337 0.0003 20.4356
#
#
#
# Elastic Compliance Matrix: (Units=1/GPa)
#
#
# Indices 1 2 3 4 5 6 
#
# 1 0.036255 -0.008954 -0.000516 -0.000001 -0.007423 -0.000001
# 2 -0.008954 0.016683 0.002167 0.000000 -0.002494 0.000001
# 3 -0.000516 0.002167 0.010896 -0.000001 0.001067 0.000003
# 4 -0.000001 0.000000 -0.000001 0.057793 0.000000 0.008297
# 5 -0.007423 -0.002494 0.001067 0.000000 0.042416 0.000000
# 6 -0.000001 0.000001 0.000003 0.008297 0.000000 0.050125
#
#
# Mechanical properties :
#
#
# Convention : Reuss Voigt Hill
#
# Bulk Modulus (GPa) = 20.31346 22.95198 21.63272
# Shear Modulus (GPa) = 20.39289 26.05823 23.22556
#
# Velocity S-wave (km/s) = 3.30306 3.73379 3.52501
# Velocity P-wave (km/s) = 5.04130 5.55586 5.30482
#
# Compressibility (1/GPa) = 0.04922843
#
# Stress axis : x y z
#
# Youngs Moduli (GPa) = 27.58218 59.94117 91.77984
#
# Poissons Ratio (x) = 0.53671 0.04737
# Poissons Ratio (y) = 0.24697 -0.19892
# Poissons Ratio (z) = 0.01424 -0.12991
#
# Static dielectric constant tensor:
#      x y z
#    x 1.656580 0.000000 0.002520 
#    y 0.000000 1.715710 0.000000 
#    z 0.002520 0.000000 1.639910 
# 
# From -- ./inp_files/8486.got.cif
#   From: 2010.05.17/outbox.cif.g08.bks.cpg/sg15_5_cif.got.tgz:8486.got - 2010.06.03 18:47:42.
