data_PCOD9269907
_publ_section_title
;
Structure prediction by ZEFSAII (Michael W. Deem and Ramdas Pophale) SiO2 
 PCOD9269907
Probable space group: C 2/C
;
_chemical_formula_sum "Si O2"
_cell_formula_units_Z 40
_cell_length_a 14.572012
_cell_length_b 11.587015
_cell_length_c 9.464416
_cell_angle_alpha 90.000000
_cell_angle_beta 104.851735
_cell_angle_gamma 90.000000
_cell_volume 1544.643496
_symmetry_space_group_name_H-M "C 2/C"
_symmetry_group_IT_number 15
_symmetry_cell_setting 'monoclinic'
loop_
_space_group_symop_operation_xyz
x,y,z
-x,y,1/2-z
-x,-y,-z
x,-y,1/2+z
1/2+x,1/2+y,z
1/2-x,1/2+y,1/2-z
1/2-x,1/2-y,-z
1/2+x,1/2-y,1/2+z
loop_
_atom_site_type_symbol
_atom_site_label
_atom_site_fract_x
_atom_site_fract_y
_atom_site_fract_z
Si Si1 0.671841 0.689033 0.371719
Si Si2 0.607760 0.088414 0.290399
Si Si3 0.638257 0.219386 0.551695
Si Si4 0.929131 0.960703 0.094770
Si Si5 0.935565 0.628145 0.537649
O O1 0.750000 0.750000 0.500000
O O2 0.681085 0.743521 0.219256
O O3 0.651300 0.553416 0.386624
O O4 0.578521 0.745287 0.405418
O O5 0.500000 0.139970 0.250000
O O6 0.677193 0.152366 0.427679
O O7 0.625503 0.102073 0.129607
O O8 0.595698 0.961570 0.353659
O O9 0.610097 0.340159 0.472516
O O10 0.547991 0.132630 0.549309
O O11 0.000000 0.941303 0.250000
O O12 0.000000 0.000000 0.000000
#
# Coordination Sequence:
#
# PCOD9269907 Si02
#       5
#     8   8   8   8   8
#     4  12  26  44  62  93 142 179 220 284 354 409
#     4  10  20  34  66 100 125 159 215 280 332 391
#     4  11  22  41  69  99 128 173 231 285 337 405
#     4  12  22  43  75 102 126 177 239 294 338 410
#     4  11  20  40  66  96 132 173 224 278 334 407
#
# _framework density 25.895942999999999
#
# number of rings (size 3 to 8) (size 9 to 14) (size 15 to 20)
#    0.000    0.800    4.000    7.200    0.000    0.000 
#    7.200    1.000    0.000    0.000    0.000    0.000 
#    0.000    0.000    0.000    0.000    0.000    0.000 
#
# Total GULP energy -111626.215428 kJ/mol
# GULP energy per Si atom -5581.310771 kJ/mol
# Density = 2.583700 g / cm^3
# Si number density = 25.895943 Si / 1000 Ang^3
#
#
#
# Elastic Constant Matrix: (Units=GPa)
#
#
# Indices 1 2 3 4 5 6 
#
# 1 60.2912 8.0316 32.9305 0.0000 1.0025 0.0000
# 2 8.0316 154.3633 74.8797 0.0000 8.3057 0.0000
# 3 32.9305 74.8797 301.0684 0.0000 13.4535 0.0000
# 4 0.0000 0.0000 0.0000 56.2673 0.0000 -7.1095
# 5 1.0025 8.3057 13.4535 0.0000 45.2200 0.0000
# 6 0.0000 0.0000 0.0000 -7.1095 0.0000 4.3025
#
#
#
# Elastic Compliance Matrix: (Units=1/GPa)
#
#
# Indices 1 2 3 4 5 6 
#
# 1 0.017642 0.000014 -0.001941 0.000000 0.000184 0.000000
# 2 0.000014 0.007397 -0.001805 0.000000 -0.000822 0.000000
# 3 -0.001941 -0.001805 0.004019 0.000000 -0.000821 0.000000
# 4 0.000000 0.000000 0.000000 0.022462 0.000000 0.037117
# 5 0.000184 -0.000822 -0.000821 0.000000 0.022505 0.000000
# 6 0.000000 0.000000 0.000000 0.037117 0.000000 0.293758
#
#
# Mechanical properties :
#
#
# Convention : Reuss Voigt Hill
#
# Bulk Modulus (GPa) = 46.30881 83.04518 64.67699
# Shear Modulus (GPa) = 13.07377 47.81669 30.44523
#
# Velocity S-wave (km/s) = 2.24934 4.30175 3.43253
# Velocity P-wave (km/s) = 4.96664 7.53736 6.38276
#
# Compressibility (1/GPa) = 0.02159416
#
# Stress axis : x y z
#
# Youngs Moduli (GPa) = 56.68425 135.18829 248.79610
#
# Poissons Ratio (x) = -0.00188 0.48299
# Poissons Ratio (y) = -0.00079 0.44896
# Poissons Ratio (z) = 0.11004 0.24395
#
# Static dielectric constant tensor:
#      x y z
#    x 2.261510 0.000000 -0.030990 
#    y 0.000000 2.010380 0.000000 
#    z -0.030990 0.000000 2.112910 
# 
# From -- ./inp_files/54242.got.cif
#   From: 2010.05.17/outbox.cif.g08.bks.cpg/sg15_28_cif.got.tgz:54242.got - 2010.06.03 18:47:42.
