data_PCOD9269086
_publ_section_title
;
Structure prediction by ZEFSAII (Michael W. Deem and Ramdas Pophale) SiO2 
 PCOD9269086
Probable space group: C 2/C
;
_chemical_formula_sum "Si O2"
_cell_formula_units_Z 56
_cell_length_a 19.106302
_cell_length_b 26.127616
_cell_length_c 7.195963
_cell_angle_alpha 90.000000
_cell_angle_beta 61.149470
_cell_angle_gamma 90.000000
_cell_volume 3146.376463
_symmetry_space_group_name_H-M "C 2/C"
_symmetry_group_IT_number 15
_symmetry_cell_setting 'monoclinic'
loop_
_space_group_symop_operation_xyz
x,y,z
-x,y,1/2-z
-x,-y,-z
x,-y,1/2+z
1/2+x,1/2+y,z
1/2-x,1/2+y,1/2-z
1/2-x,1/2-y,-z
1/2+x,1/2-y,1/2+z
loop_
_atom_site_type_symbol
_atom_site_label
_atom_site_fract_x
_atom_site_fract_y
_atom_site_fract_z
Si Si1 0.993961 0.780203 0.978366
Si Si2 0.008819 0.059982 0.018298
Si Si3 0.123186 0.860887 0.844921
Si Si4 0.362114 0.365344 0.120359
Si Si5 0.575065 0.181618 0.239059
Si Si6 0.713387 0.814001 0.838165
Si Si7 0.216074 0.299402 0.278872
O O1 0.074485 0.808360 0.937251
O O2 0.000000 0.771068 0.750000
O O3 0.924501 0.821584 0.098015
O O4 0.969663 0.729669 0.111991
O O5 0.000000 0.069055 0.250000
O O6 0.936502 0.093186 0.021671
O O7 0.096281 0.083043 0.859331
O O8 0.000000 0.000000 0.000000
O O9 0.134764 0.866578 0.608026
O O10 0.211928 0.851210 0.802925
O O11 0.274907 0.344359 0.275621
O O12 0.500000 0.149742 0.250000
O O13 0.635813 0.166335 0.327610
O O14 0.635254 0.197049 0.997408
O O15 0.739568 0.755522 0.751239
O O16 0.701749 0.808678 0.076621
#
# Coordination Sequence:
#
# PCOD9269086 Si02
#       7
#     8   8   8   8   8   8   8
#     4   9  17  30  47  65  92 134 175 205 251 298
#     4   9  17  32  51  77 105 134 167 202 252 308
#     4   8  16  32  51  67  94 140 173 200 253 306
#     4   8  15  31  51  66  96 137 168 208 246 304
#     4  12  24  30  45  69  97 129 175 221 252 301
#     4  10  20  34  50  65  97 135 175 216 256 302
#     4  10  20  34  49  70  94 134 178 217 254 298
#
# _framework density 17.798251
#
# number of rings (size 3 to 8) (size 9 to 14) (size 15 to 20)
#    0.000    2.571    1.429    3.000    4.000    0.000 
#    2.571    1.429    0.000    0.000    0.000    0.000 
#    0.000    1.143    0.571    0.000    0.000    0.000 
#
# Total GULP energy -156048.382881 kJ/mol
# GULP energy per Si atom -5573.156531 kJ/mol
# Density = 1.775774 g / cm^3
# Si number density = 17.798251 Si / 1000 Ang^3
#
#
#
# Elastic Constant Matrix: (Units=GPa)
#
#
# Indices 1 2 3 4 5 6 
#
# 1 137.9849 34.1671 29.3376 0.0000 -4.3915 0.0000
# 2 34.1671 70.2299 12.5539 0.0000 -13.3413 0.0000
# 3 29.3376 12.5539 71.3799 0.0000 -1.2286 0.0000
# 4 0.0000 0.0000 0.0000 8.8861 0.0000 -1.6385
# 5 -4.3915 -13.3413 -1.2286 0.0000 30.5937 0.0000
# 6 0.0000 0.0000 0.0000 -1.6385 0.0000 16.5971
#
#
#
# Elastic Compliance Matrix: (Units=1/GPa)
#
#
# Indices 1 2 3 4 5 6 
#
# 1 0.008814 -0.003863 -0.002953 0.000000 -0.000538 0.000000
# 2 -0.003863 0.017722 -0.001407 0.000000 0.007117 0.000000
# 3 -0.002953 -0.001407 0.015463 0.000000 -0.000416 0.000000
# 4 0.000000 0.000000 0.000000 0.114622 0.000000 0.011316
# 5 -0.000538 0.007117 -0.000416 0.000000 0.035696 0.000000
# 6 0.000000 0.000000 0.000000 0.011316 0.000000 0.061369
#
#
# Mechanical properties :
#
#
# Convention : Reuss Voigt Hill
#
# Bulk Modulus (GPa) = 39.13079 47.96798 43.54938
# Shear Modulus (GPa) = 17.94377 24.78445 21.36411
#
# Velocity S-wave (km/s) = 3.17862 3.73570 3.46836
# Velocity P-wave (km/s) = 5.95861 6.75402 6.36874
#
# Compressibility (1/GPa) = 0.02555532
#
# Stress axis : x y z
#
# Youngs Moduli (GPa) = 113.45270 56.42849 64.66902
#
# Poissons Ratio (x) = 0.21796 0.19094
# Poissons Ratio (y) = 0.43821 0.09097
# Poissons Ratio (z) = 0.33499 0.07938
#
# Static dielectric constant tensor:
#      x y z
#    x 1.716950 0.000000 0.036510 
#    y 0.000000 1.589350 0.000000 
#    z 0.036510 0.000000 1.680740 
# 
# From -- ./inp_files/58276.got.cif
#   From: 2010.05.17/outbox.cif.g08.bks.cpg/sg15_30_cif.got.tgz:58276.got - 2010.06.03 18:47:42.
