data_PCOD9269418
_publ_section_title
;
Structure prediction by ZEFSAII (Michael W. Deem and Ramdas Pophale) SiO2 
 PCOD9269418
Probable space group: C 2/C
;
_chemical_formula_sum "Si O2"
_cell_formula_units_Z 48
_cell_length_a 8.880033
_cell_length_b 16.401310
_cell_length_c 17.289348
_cell_angle_alpha 90.000000
_cell_angle_beta 90.746684
_cell_angle_gamma 90.000000
_cell_volume 2517.878981
_symmetry_space_group_name_H-M "C 2/C"
_symmetry_group_IT_number 15
_symmetry_cell_setting 'monoclinic'
loop_
_space_group_symop_operation_xyz
x,y,z
-x,y,1/2-z
-x,-y,-z
x,-y,1/2+z
1/2+x,1/2+y,z
1/2-x,1/2+y,1/2-z
1/2-x,1/2-y,-z
1/2+x,1/2-y,1/2+z
loop_
_atom_site_type_symbol
_atom_site_label
_atom_site_fract_x
_atom_site_fract_y
_atom_site_fract_z
Si Si1 0.939456 0.251005 0.583732
Si Si2 0.306214 0.992943 0.073944
Si Si3 0.854339 0.831872 0.922773
Si Si4 0.114009 0.580039 0.088710
Si Si5 0.085566 0.073033 0.333010
Si Si6 0.551927 0.410520 0.161793
O O1 0.902209 0.216957 0.498653
O O2 0.778380 0.279451 0.618167
O O3 0.042203 0.330703 0.581271
O O4 0.018082 0.176606 0.626432
O O5 0.217791 0.942290 0.139156
O O6 0.222675 0.080027 0.060823
O O7 0.476788 0.016367 0.098346
O O8 0.309923 0.944440 0.992844
O O9 0.002678 0.854027 0.876479
O O10 0.236095 0.580709 0.158201
O O11 0.000000 0.071295 0.250000
O O12 0.048993 0.985253 0.371495
O O13 0.500000 0.404814 0.250000
#
# Coordination Sequence:
#
# PCOD9269418 Si02
#       6
#     8   8   8   8   8   8
#     4  10  20  34  56  83 111 142 182 235 287 328
#     4   9  19  37  59  83 109 144 190 236 283 340
#     4   9  19  36  55  78 110 147 184 224 278 341
#     4  10  20  35  60  88 111 140 187 245 292 332
#     4  10  21  37  55  77 110 152 191 224 275 349
#     4  10  21  37  54  77 111 151 189 225 281 344
#
# _framework density 19.063663999999999
#
# number of rings (size 3 to 8) (size 9 to 14) (size 15 to 20)
#    0.000    2.333    0.000    2.000    0.000    8.000 
#    0.000   12.500    0.000    0.000    0.000    0.000 
#    0.000    0.000    0.000    0.000    0.000    0.000 
#
# Total GULP energy -133673.714964 kJ/mol
# GULP energy per Si atom -5569.738124 kJ/mol
# Density = 1.902027 g / cm^3
# Si number density = 19.063664 Si / 1000 Ang^3
#
#
#
# Elastic Constant Matrix: (Units=GPa)
#
#
# Indices 1 2 3 4 5 6 
#
# 1 111.5458 42.8229 53.5117 0.0000 10.5709 0.0000
# 2 42.8229 100.2405 30.4536 0.0000 0.4686 0.0000
# 3 53.5117 30.4536 58.8971 0.0000 4.9328 0.0000
# 4 0.0000 0.0000 0.0000 -22.5348 0.0000 -0.0728
# 5 10.5709 0.4686 4.9328 0.0000 25.0538 0.0000
# 6 0.0000 0.0000 0.0000 -0.0728 0.0000 13.8402
#
#
#
# Elastic Compliance Matrix: (Units=1/GPa)
#
#
# Indices 1 2 3 4 5 6 
#
# 1 0.017091 -0.003176 -0.013510 0.000000 -0.004492 0.000000
# 2 -0.003176 0.012450 -0.003706 0.000000 0.001837 0.000000
# 3 -0.013510 -0.003706 0.031201 0.000000 -0.000374 0.000000
# 4 0.000000 0.000000 0.000000 -0.044375 0.000000 -0.000233
# 5 -0.004492 0.001837 -0.000374 0.000000 0.041848 0.000000
# 6 0.000000 0.000000 0.000000 -0.000233 0.000000 0.072252
#
#
# Mechanical properties :
#
#
# Convention : Reuss Voigt Hill
#
# Bulk Modulus (GPa) = 50.10368 58.25108 54.17738
# Shear Modulus (GPa) = 28.10516 12.86484 20.48500
#
# Velocity S-wave (km/s) = 3.84380 2.60058 3.28160
# Velocity P-wave (km/s) = 6.78521 6.29601 6.54518
#
# Compressibility (1/GPa) = 0.01995862
#
# Stress axis : x y z
#
# Youngs Moduli (GPa) = 58.51067 80.32122 32.05058
#
# Poissons Ratio (x) = 0.25509 0.43300
# Poissons Ratio (y) = 0.18582 0.11877
# Poissons Ratio (z) = 0.79047 0.29765
#
# Static dielectric constant tensor:
#      x y z
#    x 1.700020 0.000000 -0.043090 
#    y 0.000000 1.653450 0.000000 
#    z -0.043090 0.000000 1.385070 
# 
# From -- ./inp_files/189218.got.cif
#   From: 2010.05.17/outbox.cif.g08.bks.cpg/sg15_95_cif.got.tgz:189218.got - 2010.06.03 18:47:42.
