data_PCOD9269841
_publ_section_title
;
Structure prediction by ZEFSAII (Michael W. Deem and Ramdas Pophale) SiO2 
 PCOD9269841
Probable space group: C 2/C
;
_chemical_formula_sum "Si O2"
_cell_formula_units_Z 60
_cell_length_a 12.829465
_cell_length_b 13.769773
_cell_length_c 17.959321
_cell_angle_alpha 90.000000
_cell_angle_beta 78.024000
_cell_angle_gamma 90.000000
_cell_volume 3103.617999
_symmetry_space_group_name_H-M "C 2/C"
_symmetry_group_IT_number 15
_symmetry_cell_setting 'monoclinic'
loop_
_space_group_symop_operation_xyz
x,y,z
-x,y,1/2-z
-x,-y,-z
x,-y,1/2+z
1/2+x,1/2+y,z
1/2-x,1/2+y,1/2-z
1/2-x,1/2-y,-z
1/2+x,1/2-y,1/2+z
loop_
_atom_site_type_symbol
_atom_site_label
_atom_site_fract_x
_atom_site_fract_y
_atom_site_fract_z
Si Si1 0.657251 0.703206 0.375866
Si Si2 0.500000 0.804544 0.750000
Si Si3 0.751985 0.117265 0.673802
Si Si4 0.843499 0.835071 0.320127
Si Si5 0.704329 0.919358 0.759805
Si Si6 0.056414 0.754734 0.662307
Si Si7 0.125942 0.004669 0.464716
Si Si8 0.668717 0.543140 0.120408
O O1 0.743643 0.787293 0.377241
O O2 0.704033 0.645855 0.295000
O O3 0.543186 0.754129 0.379664
O O4 0.650853 0.614615 0.434858
O O5 0.557346 0.734873 0.682913
O O6 0.592631 0.868409 0.769046
O O7 0.810013 0.164393 0.737248
O O8 0.661832 0.186248 0.649707
O O9 0.836148 0.072511 0.603046
O O10 0.698590 0.021665 0.718121
O O11 0.874179 0.942550 0.339473
O O12 0.732014 0.934515 0.841468
O O13 0.092265 0.865554 0.643513
O O14 0.000000 0.741968 0.750000
O O15 0.186228 0.975902 0.531416
O O16 0.000000 0.000000 0.500000
#
# Coordination Sequence:
#
# PCOD9269841 Si02
#       8
#     8   4   8   8   8   8   8   8
#     4  10  20  40  60  89 120 156 206 251 311 347
#     4  10  20  34  62  92 116 148 204 266 302 338
#     4  10  23  38  61  91 122 155 211 249 314 359
#     4  10  22  37  63  91 115 156 209 262 296 362
#     4   9  20  38  59  88 121 155 202 261 294 362
#     4  12  20  36  64  93 116 157 203 263 303 354
#     4  11  24  41  60  89 128 169 195 251 306 378
#     4  11  23  37  59  88 123 162 198 243 306 367
#
# _framework density 19.332276
#
# number of rings (size 3 to 8) (size 9 to 14) (size 15 to 20)
#    0.000    1.600    4.000    0.800    3.733    1.067 
#    0.000    0.000    0.000    8.000    0.000    0.000 
#    0.000    0.000    0.000    0.000    0.000    0.000 
#
# Total GULP energy -167249.534537 kJ/mol
# GULP energy per Si atom -5574.984485 kJ/mol
# Density = 1.928828 g / cm^3
# Si number density = 19.332276 Si / 1000 Ang^3
#
#
#
# Elastic Constant Matrix: (Units=GPa)
#
#
# Indices 1 2 3 4 5 6 
#
# 1 82.4886 49.8975 29.6837 0.0000 -25.3981 0.0000
# 2 49.8975 88.8204 23.9040 0.0000 -11.5672 0.0000
# 3 29.6837 23.9040 70.0665 0.0000 -3.6605 0.0000
# 4 0.0000 0.0000 0.0000 21.6659 0.0000 1.1580
# 5 -25.3981 -11.5672 -3.6605 0.0000 18.7727 0.0000
# 6 0.0000 0.0000 0.0000 1.1580 0.0000 12.3056
#
#
#
# Elastic Compliance Matrix: (Units=1/GPa)
#
#
# Indices 1 2 3 4 5 6 
#
# 1 0.033426 -0.011833 -0.008226 0.000000 0.036328 0.000000
# 2 -0.011833 0.017534 -0.001253 0.000000 -0.005450 0.000000
# 3 -0.008226 -0.001253 0.017744 0.000000 -0.008442 0.000000
# 4 0.000000 0.000000 0.000000 0.046389 0.000000 -0.004365
# 5 0.036328 -0.005450 -0.008442 0.000000 0.097414 0.000000
# 6 0.000000 0.000000 0.000000 -0.004365 0.000000 0.081675
#
#
# Mechanical properties :
#
#
# Convention : Reuss Voigt Hill
#
# Bulk Modulus (GPa) = 38.34603 49.81621 44.08112
# Shear Modulus (GPa) = 14.47177 19.74153 17.10665
#
# Velocity S-wave (km/s) = 2.73899 3.19904 2.97791
# Velocity P-wave (km/s) = 5.46636 6.28248 5.88857
#
# Compressibility (1/GPa) = 0.02607832
#
# Stress axis : x y z
#
# Youngs Moduli (GPa) = 29.91640 57.03210 56.35783
#
# Poissons Ratio (x) = 0.67488 0.46361
# Poissons Ratio (y) = 0.35401 0.07064
# Poissons Ratio (z) = 0.24610 0.07149
#
# Static dielectric constant tensor:
#      x y z
#    x 1.711610 0.000000 0.019380 
#    y 0.000000 1.707800 0.000000 
#    z 0.019380 0.000000 1.684150 
# 
# From -- ./inp_files/198305.got.cif
#   From: 2010.05.17/outbox.cif.g08.bks.cpg/sg15_100_cif.got.tgz:198305.got - 2010.06.03 18:47:42.
