data_PCOD9269504
_publ_section_title
;
Structure prediction by ZEFSAII (Michael W. Deem and Ramdas Pophale) SiO2 
 PCOD9269504
Probable space group: C 2/C
;
_chemical_formula_sum "Si O2"
_cell_formula_units_Z 40
_cell_length_a 15.939395
_cell_length_b 15.873972
_cell_length_c 13.515786
_cell_angle_alpha 90.000000
_cell_angle_beta 151.087614
_cell_angle_gamma 90.000000
_cell_volume 1653.368815
_symmetry_space_group_name_H-M "C 2/C"
_symmetry_group_IT_number 15
_symmetry_cell_setting 'monoclinic'
loop_
_space_group_symop_operation_xyz
x,y,z
-x,y,1/2-z
-x,-y,-z
x,-y,1/2+z
1/2+x,1/2+y,z
1/2-x,1/2+y,1/2-z
1/2-x,1/2-y,-z
1/2+x,1/2-y,1/2+z
loop_
_atom_site_type_symbol
_atom_site_label
_atom_site_fract_x
_atom_site_fract_y
_atom_site_fract_z
Si Si1 0.556421 0.817446 0.130764
Si Si2 0.301896 0.961590 0.089558
Si Si3 0.113938 0.115932 0.000506
Si Si4 0.663142 0.367152 0.769142
Si Si5 0.947691 0.275057 0.804895
O O1 0.676853 0.886146 0.308012
O O2 0.579886 0.724262 0.199756
O O3 0.363783 0.846451 0.955849
O O4 0.558999 0.808309 0.014478
O O5 0.500000 0.978424 0.250000
O O6 0.201526 0.038576 0.035726
O O7 0.176535 0.929626 0.873266
O O8 0.092271 0.095817 0.093936
O O9 0.259497 0.188185 0.133662
O O10 0.946992 0.172437 0.800804
O O11 0.000000 0.305216 0.750000
#
# Coordination Sequence:
#
# PCOD9269504 Si02
#       5
#     8   8   8   8   8
#     4   9  19  35  56  81 107 141 180 218 268 320
#     4  10  20  34  57  83 107 138 182 226 261 313
#     4  10  21  36  56  81 106 141 183 220 265 320
#     4   9  19  36  57  80 109 142 176 220 270 316
#     4  10  20  35  55  77 108 143 176 217 268 320
#
# _framework density 24.19303
#
# number of rings (size 3 to 8) (size 9 to 14) (size 15 to 20)
#    0.000    2.400    0.000    1.800    0.000    8.800 
#    0.000    2.000    0.000   14.400    0.000    0.000 
#    0.000    0.000    0.000    0.000    0.000    0.000 
#
# Total GULP energy -111713.706131 kJ/mol
# GULP energy per Si atom -5585.685307 kJ/mol
# Density = 2.413797 g / cm^3
# Si number density = 24.193030 Si / 1000 Ang^3
#
#
#
# Elastic Constant Matrix: (Units=GPa)
#
#
# Indices 1 2 3 4 5 6 
#
# 1 101.5960 64.8400 34.9365 -0.0001 -14.0648 0.0000
# 2 64.8400 158.8699 32.9894 0.0000 -11.9228 0.0000
# 3 34.9365 32.9894 47.0188 -0.0001 -18.1981 0.0000
# 4 -0.0001 0.0000 -0.0001 19.5265 0.0000 -10.1003
# 5 -14.0648 -11.9228 -18.1981 0.0000 29.2282 0.0000
# 6 0.0000 0.0000 0.0000 -10.1003 0.0000 41.7291
#
#
#
# Elastic Compliance Matrix: (Units=1/GPa)
#
#
# Indices 1 2 3 4 5 6 
#
# 1 0.015717 -0.004673 -0.008181 0.000000 0.000563 0.000000
# 2 -0.004673 0.008759 -0.002847 0.000000 -0.000448 0.000000
# 3 -0.008181 -0.002847 0.036061 0.000000 0.017354 0.000000
# 4 0.000000 0.000000 0.000000 0.058542 0.000000 0.014170
# 5 0.000563 -0.000448 0.017354 0.000000 0.045107 0.000000
# 6 0.000000 0.000000 0.000000 0.014170 0.000000 0.027394
#
#
# Mechanical properties :
#
#
# Convention : Reuss Voigt Hill
#
# Bulk Modulus (GPa) = 34.32356 63.66849 48.99603
# Shear Modulus (GPa) = 21.48742 29.74467 25.61605
#
# Velocity S-wave (km/s) = 2.98344 3.51019 3.25748
# Velocity P-wave (km/s) = 5.10745 6.54237 5.86893
#
# Compressibility (1/GPa) = 0.02913450
#
# Stress axis : x y z
#
# Youngs Moduli (GPa) = 63.62595 114.16394 27.73062
#
# Poissons Ratio (x) = 0.53354 0.22687
# Poissons Ratio (y) = 0.29735 0.07894
# Poissons Ratio (z) = 0.52054 0.32499
#
# Static dielectric constant tensor:
#      x y z
#    x 1.967220 0.000000 -0.031890 
#    y 0.000000 1.815340 0.000000 
#    z -0.031890 0.000000 2.038730 
# 
# From -- ./inp_files/46906.got.cif
#   From: 2010.05.17/outbox.cif.g08.bks.cpg/sg15_24_cif.got.tgz:46906.got - 2010.06.03 18:47:42.
