data_PCOD9269823
_publ_section_title
;
Structure prediction by ZEFSAII (Michael W. Deem and Ramdas Pophale) SiO2 
 PCOD9269823
Probable space group: C 2/C
;
_chemical_formula_sum "Si O2"
_cell_formula_units_Z 44
_cell_length_a 16.937633
_cell_length_b 9.613075
_cell_length_c 14.040505
_cell_angle_alpha 90.000000
_cell_angle_beta 101.762043
_cell_angle_gamma 90.000000
_cell_volume 2238.111114
_symmetry_space_group_name_H-M "C 2/C"
_symmetry_group_IT_number 15
_symmetry_cell_setting 'monoclinic'
loop_
_space_group_symop_operation_xyz
x,y,z
-x,y,1/2-z
-x,-y,-z
x,-y,1/2+z
1/2+x,1/2+y,z
1/2-x,1/2+y,1/2-z
1/2-x,1/2-y,-z
1/2+x,1/2-y,1/2+z
loop_
_atom_site_type_symbol
_atom_site_label
_atom_site_fract_x
_atom_site_fract_y
_atom_site_fract_z
Si Si1 0.234621 0.613678 0.360127
Si Si2 0.626392 0.600340 0.563450
Si Si3 0.000000 0.737753 0.250000
Si Si4 0.852792 0.661975 0.965360
Si Si5 0.555089 0.405784 0.415724
Si Si6 0.122873 0.608127 0.147423
O O1 0.300656 0.490999 0.379079
O O2 0.178714 0.604239 0.440746
O O3 0.281246 0.758917 0.391160
O O4 0.186386 0.607021 0.249968
O O5 0.607403 0.540625 0.453297
O O6 0.540255 0.568418 0.593906
O O7 0.641657 0.762679 0.582016
O O8 0.934518 0.838824 0.185243
O O9 0.961166 0.645665 0.321951
O O10 0.882453 0.535008 0.909750
O O11 0.916114 0.784671 0.004758
#
# Coordination Sequence:
#
# PCOD9269823 Si02
#       6
#     8   8   4   8   8   8
#     4  10  20  39  58  90 115 161 193 242 300 364
#     4   9  20  34  61  82 118 151 199 241 295 344
#     4  10  20  34  62  84 114 162 200 238 296 362
#     4  10  21  36  65  83 121 154 199 245 302 351
#     4   9  18  39  57  85 112 160 197 238 291 362
#     4  11  21  37  61  89 117 156 198 247 293 359
#
# _framework density 19.659434000000001
#
# number of rings (size 3 to 8) (size 9 to 14) (size 15 to 20)
#    0.000    2.182    1.818    1.091    0.000    3.636 
#    0.000    0.000   12.000    2.182    0.000    0.000 
#    0.000    0.000    0.000    0.000    0.000    0.000 
#
# Total GULP energy -122647.040473 kJ/mol
# GULP energy per Si atom -5574.865476 kJ/mol
# Density = 1.961469 g / cm^3
# Si number density = 19.659434 Si / 1000 Ang^3
#
#
#
# Elastic Constant Matrix: (Units=GPa)
#
#
# Indices 1 2 3 4 5 6 
#
# 1 59.4682 20.4998 15.8391 0.0000 3.6645 0.0000
# 2 20.4998 96.6499 48.6717 0.0000 -16.0717 0.0000
# 3 15.8391 48.6717 87.3135 0.0000 4.9753 0.0000
# 4 0.0000 0.0000 0.0000 25.6608 0.0000 2.7133
# 5 3.6645 -16.0717 4.9753 0.0000 26.5127 0.0000
# 6 0.0000 0.0000 0.0000 2.7133 0.0000 28.9089
#
#
#
# Elastic Compliance Matrix: (Units=1/GPa)
#
#
# Indices 1 2 3 4 5 6 
#
# 1 0.018877 -0.004605 -0.000556 0.000000 -0.005296 0.000000
# 2 -0.004605 0.018987 -0.010554 0.000000 0.014127 0.000000
# 3 -0.000556 -0.010554 0.017989 0.000000 -0.009697 0.000000
# 4 0.000000 0.000000 0.000000 0.039361 0.000000 -0.003694
# 5 -0.005296 0.014127 -0.009697 0.000000 0.048833 0.000000
# 6 0.000000 0.000000 0.000000 -0.003694 0.000000 0.034938
#
#
# Mechanical properties :
#
#
# Convention : Reuss Voigt Hill
#
# Bulk Modulus (GPa) = 40.94116 45.93921 43.44018
# Shear Modulus (GPa) = 22.87742 26.77788 24.82765
#
# Velocity S-wave (km/s) = 3.41499 3.69465 3.55757
# Velocity P-wave (km/s) = 6.03489 6.45127 6.24655
#
# Compressibility (1/GPa) = 0.02442530
#
# Stress axis : x y z
#
# Youngs Moduli (GPa) = 52.97324 52.66715 55.58834
#
# Poissons Ratio (x) = 0.24252 0.03090
# Poissons Ratio (y) = 0.24393 0.58667
# Poissons Ratio (z) = 0.02944 0.55584
#
# Static dielectric constant tensor:
#      x y z
#    x 1.738860 0.000000 0.012940 
#    y 0.000000 1.691890 0.000000 
#    z 0.012940 0.000000 1.729810 
# 
# From -- ./inp_files/122117.got.cif
#   From: 2010.05.17/outbox.cif.g08.bks.cpg/sg15_62_cif.got.tgz:122117.got - 2010.06.03 18:47:42.
