data_PCOD9269567
_publ_section_title
;
Structure prediction by ZEFSAII (Michael W. Deem and Ramdas Pophale) SiO2 
 PCOD9269567
Probable space group: C 2/C
;
_chemical_formula_sum "Si O2"
_cell_formula_units_Z 52
_cell_length_a 13.885558
_cell_length_b 13.029859
_cell_length_c 24.721722
_cell_angle_alpha 90.000000
_cell_angle_beta 30.067422
_cell_angle_gamma 90.000000
_cell_volume 2240.968433
_symmetry_space_group_name_H-M "C 2/C"
_symmetry_group_IT_number 15
_symmetry_cell_setting 'monoclinic'
loop_
_space_group_symop_operation_xyz
x,y,z
-x,y,1/2-z
-x,-y,-z
x,-y,1/2+z
1/2+x,1/2+y,z
1/2-x,1/2+y,1/2-z
1/2-x,1/2-y,-z
1/2+x,1/2-y,1/2+z
loop_
_atom_site_type_symbol
_atom_site_label
_atom_site_fract_x
_atom_site_fract_y
_atom_site_fract_z
Si Si1 0.189621 0.150038 0.493191
Si Si2 0.000000 0.829459 0.250000
Si Si3 0.703067 0.542154 0.378232
Si Si4 0.269939 0.832118 0.300360
Si Si5 0.367542 0.840605 0.565146
Si Si6 0.324432 0.261824 0.661792
Si Si7 0.192289 0.460635 0.465812
O O1 0.250000 0.250000 0.500000
O O2 0.269920 0.119029 0.394544
O O3 0.255047 0.056109 0.498285
O O4 0.960433 0.159971 0.599305
O O5 0.116143 0.771085 0.240302
O O6 0.157005 0.897980 0.143540
O O7 0.500000 0.500000 0.500000
O O8 0.819428 0.441785 0.302560
O O9 0.673622 0.615090 0.340438
O O10 0.362640 0.797293 0.198953
O O11 0.280603 0.736502 0.335877
O O12 0.520896 0.773122 0.457768
O O13 0.485625 0.909412 0.551778
O O14 0.291331 0.923314 0.560462
#
# Coordination Sequence:
#
# PCOD9269567 Si02
#       7
#     8   4   8   8   8   8   8
#     4  11  18  38  65  91 120 165 214 264 315 370
#     4  10  20  34  58 104 120 158 224 274 300 376
#     4  10  22  39  63  93 129 163 213 270 325 381
#     4  11  22  39  63  93 127 169 212 264 329 383
#     4  10  21  38  59  92 133 165 208 262 325 394
#     4  11  21  37  65  91 127 169 218 265 320 384
#     4  10  20  35  60  92 127 163 206 266 322 369
#
# _framework density 23.204253000000001
#
# number of rings (size 3 to 8) (size 9 to 14) (size 15 to 20)
#    0.000    1.538    6.154    0.923    0.000    3.692 
#    0.000    0.769    0.000    0.923    0.000    0.000 
#    0.000    0.000    0.000    0.000    0.000    0.000 
#
# Total GULP energy -145208.514123 kJ/mol
# GULP energy per Si atom -5584.942851 kJ/mol
# Density = 2.315144 g / cm^3
# Si number density = 23.204253 Si / 1000 Ang^3
#
#
#
# Elastic Constant Matrix: (Units=GPa)
#
#
# Indices 1 2 3 4 5 6 
#
# 1 70.6033 38.4407 24.7858 0.0002 16.2674 0.0000
# 2 38.4407 135.9585 12.2079 0.0003 22.3008 0.0003
# 3 24.7858 12.2079 44.0086 -0.0037 24.7027 -0.0001
# 4 0.0002 0.0003 -0.0037 32.3996 0.0009 14.5523
# 5 16.2674 22.3008 24.7027 0.0009 37.3646 0.0002
# 6 0.0000 0.0003 -0.0001 14.5523 0.0002 43.6686
#
#
#
# Elastic Compliance Matrix: (Units=1/GPa)
#
#
# Indices 1 2 3 4 5 6 
#
# 1 0.020388 -0.004999 -0.010794 -0.000002 0.001244 0.000001
# 2 -0.004999 0.009395 0.003395 0.000001 -0.005675 0.000000
# 3 -0.010794 0.003395 0.041914 0.000006 -0.025038 -0.000002
# 4 -0.000002 0.000001 0.000006 0.036298 -0.000005 -0.012096
# 5 0.001244 -0.005675 -0.025038 -0.000005 0.046162 0.000001
# 6 0.000001 0.000000 -0.000002 -0.012096 0.000001 0.026931
#
#
# Mechanical properties :
#
#
# Convention : Reuss Voigt Hill
#
# Bulk Modulus (GPa) = 21.32153 44.60437 32.96295
# Shear Modulus (GPa) = 22.57154 34.36229 28.46691
#
# Velocity S-wave (km/s) = 3.12225 3.85237 3.50637
# Velocity P-wave (km/s) = 4.71238 6.24915 5.53437
#
# Compressibility (1/GPa) = 0.04690096
#
# Stress axis : x y z
#
# Youngs Moduli (GPa) = 49.04745 106.44257 23.85820
#
# Poissons Ratio (x) = 0.53215 0.25753
# Poissons Ratio (y) = 0.24521 -0.08100
# Poissons Ratio (z) = 0.52942 -0.36140
#
# Static dielectric constant tensor:
#      x y z
#    x 1.717620 0.000000 0.038410 
#    y 0.000000 1.920880 0.000000 
#    z 0.038410 0.000000 1.849870 
# 
# From -- ./inp_files/273791.got.cif
#   From: 2010.05.17/outbox.cif.g08.bks.cpg/sg15_137_cif.got.tgz:273791.got - 2010.06.03 18:47:42.
