data_PCOD9269588
_publ_section_title
;
Structure prediction by ZEFSAII (Michael W. Deem and Ramdas Pophale) SiO2 
 PCOD9269588
Probable space group: C 2/C
;
_chemical_formula_sum "Si O2"
_cell_formula_units_Z 52
_cell_length_a 22.596492
_cell_length_b 15.234074
_cell_length_c 18.297998
_cell_angle_alpha 90.000000
_cell_angle_beta 157.581029
_cell_angle_gamma 90.000000
_cell_volume 2402.229872
_symmetry_space_group_name_H-M "C 2/C"
_symmetry_group_IT_number 15
_symmetry_cell_setting 'monoclinic'
loop_
_space_group_symop_operation_xyz
x,y,z
-x,y,1/2-z
-x,-y,-z
x,-y,1/2+z
1/2+x,1/2+y,z
1/2-x,1/2+y,1/2-z
1/2-x,1/2-y,-z
1/2+x,1/2-y,1/2+z
loop_
_atom_site_type_symbol
_atom_site_label
_atom_site_fract_x
_atom_site_fract_y
_atom_site_fract_z
Si Si1 0.979187 0.156114 0.310659
Si Si2 0.872258 0.506353 0.791459
Si Si3 0.169688 0.299944 0.280448
Si Si4 0.000000 0.866333 0.250000
Si Si5 0.984895 0.018669 0.585934
Si Si6 0.298928 0.179458 0.163821
Si Si7 0.948270 0.805184 0.993651
O O1 0.148210 0.191285 0.527066
O O2 0.000000 0.128915 0.250000
O O3 0.863812 0.235689 0.191147
O O4 0.929405 0.072877 0.302972
O O5 0.890330 0.601220 0.774992
O O6 0.697489 0.505829 0.624462
O O7 0.873669 0.418006 0.744602
O O8 0.000000 0.500000 0.000000
O O9 0.085996 0.252632 0.116399
O O10 0.012629 0.928113 0.193303
O O11 0.158730 0.814049 0.446250
O O12 0.012105 0.094776 0.556990
O O13 0.210567 0.185729 0.141556
O O14 0.430527 0.252075 0.317820
#
# Coordination Sequence:
#
# PCOD9269588 Si02
#       7
#     8   8   8   4   8   8   8
#     4  11  23  41  59  85 112 158 194 236 284 353
#     4   9  17  33  54  82 111 154 180 228 288 347
#     4  11  22  36  62  85 115 147 195 241 288 336
#     4   8  16  34  56  78 110 162 190 222 282 358
#     4   9  20  34  58  80 117 152 191 230 289 349
#     4  10  20  34  58  84 119 153 194 233 286 353
#     4  10  20  36  56  91 115 150 191 240 291 343
#
# _framework density 21.646553999999998
#
# number of rings (size 3 to 8) (size 9 to 14) (size 15 to 20)
#    0.000    2.462    2.308    1.385    2.154    3.077 
#    0.000    3.077    0.000    0.000    4.000    0.000 
#    0.000    0.000    0.000    0.000    0.000    0.000 
#
# Total GULP energy -144956.868155 kJ/mol
# GULP energy per Si atom -5575.264160 kJ/mol
# Density = 2.159729 g / cm^3
# Si number density = 21.646554 Si / 1000 Ang^3
#
#
#
# Elastic Constant Matrix: (Units=GPa)
#
#
# Indices 1 2 3 4 5 6 
#
# 1 44.8756 25.0946 6.8236 -0.0001 -17.2065 0.0000
# 2 25.0946 194.2962 42.4252 0.0000 4.6694 0.0000
# 3 6.8236 42.4252 109.6684 0.0000 -27.2667 0.0001
# 4 -0.0001 0.0000 0.0000 74.2419 0.0000 9.8900
# 5 -17.2065 4.6694 -27.2667 0.0000 26.6913 0.0001
# 6 0.0000 0.0000 0.0001 9.8900 0.0001 28.7550
#
#
#
# Elastic Compliance Matrix: (Units=1/GPa)
#
#
# Indices 1 2 3 4 5 6 
#
# 1 0.039541 -0.008160 0.009904 0.000000 0.037036 0.000000
# 2 -0.008160 0.007699 -0.005514 0.000000 -0.012239 0.000000
# 3 0.009904 -0.005514 0.016705 0.000000 0.024415 0.000000
# 4 0.000000 0.000000 0.000000 0.014116 0.000000 -0.004855
# 5 0.037036 -0.012239 0.024415 0.000000 0.088423 0.000000
# 6 0.000000 0.000000 0.000000 -0.004855 0.000000 0.036446
#
#
# Mechanical properties :
#
#
# Convention : Reuss Voigt Hill
#
# Bulk Modulus (GPa) = 17.72817 55.28079 36.50448
# Shear Modulus (GPa) = 21.80826 44.23742 33.02284
#
# Velocity S-wave (km/s) = 3.17751 4.52555 3.91006
# Velocity P-wave (km/s) = 4.65507 7.27330 6.10617
#
# Compressibility (1/GPa) = 0.05640739
#
# Stress axis : x y z
#
# Youngs Moduli (GPa) = 25.29008 129.89169 59.86115
#
# Poissons Ratio (x) = 1.05988 -0.59289
# Poissons Ratio (y) = 0.20636 0.33005
# Poissons Ratio (z) = -0.25048 0.71617
#
# Static dielectric constant tensor:
#      x y z
#    x 1.844600 0.000000 -0.035430 
#    y 0.000000 1.845250 0.000000 
#    z -0.035430 0.000000 1.783210 
# 
# From -- ./inp_files/257816.got.cif
#   From: 2010.05.17/outbox.cif.g08.bks.cpg/sg15_129_cif.got.tgz:257816.got - 2010.06.03 18:47:42.
