data_PCOD9269662
_publ_section_title
;
Structure prediction by ZEFSAII (Michael W. Deem and Ramdas Pophale) SiO2 
 PCOD9269662
Probable space group: C 2/C
;
_chemical_formula_sum "Si O2"
_cell_formula_units_Z 52
_cell_length_a 24.700816
_cell_length_b 10.805089
_cell_length_c 10.488316
_cell_angle_alpha 90.000000
_cell_angle_beta 51.883600
_cell_angle_gamma 90.000000
_cell_volume 2202.352270
_symmetry_space_group_name_H-M "C 2/C"
_symmetry_group_IT_number 15
_symmetry_cell_setting 'monoclinic'
loop_
_space_group_symop_operation_xyz
x,y,z
-x,y,1/2-z
-x,-y,-z
x,-y,1/2+z
1/2+x,1/2+y,z
1/2-x,1/2+y,1/2-z
1/2-x,1/2-y,-z
1/2+x,1/2-y,1/2+z
loop_
_atom_site_type_symbol
_atom_site_label
_atom_site_fract_x
_atom_site_fract_y
_atom_site_fract_z
Si Si1 0.650080 0.169119 0.040700
Si Si2 0.739641 0.950713 0.010338
Si Si3 0.555568 0.757895 0.469159
Si Si4 0.609777 0.463000 0.763065
Si Si5 0.000000 0.942973 0.250000
Si Si6 0.088250 0.783366 0.384149
Si Si7 0.731520 0.265291 0.314547
O O1 0.714385 0.240493 0.881005
O O2 0.680190 0.048163 0.066693
O O3 0.595809 0.147864 0.002711
O O4 0.612657 0.245873 0.205793
O O5 0.813974 0.009045 0.875443
O O6 0.735270 0.843739 0.911137
O O7 0.746657 0.889820 0.139858
O O8 0.608996 0.679706 0.306475
O O9 0.529472 0.650874 0.602366
O O10 0.485499 0.785765 0.493175
O O11 0.560782 0.473502 0.714155
O O12 0.578816 0.567835 0.901288
O O13 0.153353 0.760263 0.378866
#
# Coordination Sequence:
#
# PCOD9269662 Si02
#       7
#     8   8   8   8   4   8   8
#     4  12  23  43  72  94 135 185 228 280 343 421
#     4  11  27  42  67  96 139 178 223 294 342 407
#     4  11  22  41  62 101 134 170 233 285 335 410
#     4  11  22  36  64  99 131 172 216 295 346 392
#     4  10  20  34  58  94 136 164 212 284 346 394
#     4  11  23  39  70  98 131 177 229 285 341 412
#     4  11  26  45  62 103 135 172 234 284 346 412
#
# _framework density 23.611117
#
# number of rings (size 3 to 8) (size 9 to 14) (size 15 to 20)
#    0.000    0.923    6.154    2.308    6.462    0.000 
#    0.000    0.769    3.385    0.000    0.000    0.000 
#    0.000    0.000    0.000    0.000    0.000    0.000 
#
# Total GULP energy -145207.179248 kJ/mol
# GULP energy per Si atom -5584.891510 kJ/mol
# Density = 2.355738 g / cm^3
# Si number density = 23.611117 Si / 1000 Ang^3
#
#
#
# Elastic Constant Matrix: (Units=GPa)
#
#
# Indices 1 2 3 4 5 6 
#
# 1 195.0939 36.9926 20.7771 0.0000 -31.1683 0.0000
# 2 36.9926 42.0314 9.3809 0.0000 -7.3517 0.0000
# 3 20.7771 9.3809 52.6521 0.0000 -12.0798 0.0000
# 4 0.0000 0.0000 0.0000 22.8463 0.0000 -0.7762
# 5 -31.1683 -7.3517 -12.0798 0.0000 36.0021 0.0000
# 6 0.0000 0.0000 0.0000 -0.7762 0.0000 37.5519
#
#
#
# Elastic Compliance Matrix: (Units=1/GPa)
#
#
# Indices 1 2 3 4 5 6 
#
# 1 0.006924 -0.005106 -0.000744 0.000000 0.004702 0.000000
# 2 -0.005106 0.029051 -0.003049 0.000000 0.000489 0.000000
# 3 -0.000744 -0.003049 0.021168 0.000000 0.005836 0.000000
# 4 0.000000 0.000000 0.000000 0.043802 0.000000 0.000905
# 5 0.004702 0.000489 0.005836 0.000000 0.033905 0.000000
# 6 0.000000 0.000000 0.000000 0.000905 0.000000 0.026649
#
#
# Mechanical properties :
#
#
# Convention : Reuss Voigt Hill
#
# Bulk Modulus (GPa) = 25.41500 47.11983 36.26742
# Shear Modulus (GPa) = 25.98586 34.12185 30.05385
#
# Velocity S-wave (km/s) = 3.32109 3.80565 3.57160
# Velocity P-wave (km/s) = 5.04912 6.26982 5.69228
#
# Compressibility (1/GPa) = 0.03934684
#
# Stress axis : x y z
#
# Youngs Moduli (GPa) = 144.41813 34.42173 47.24039
#
# Poissons Ratio (x) = 0.17575 0.03514
# Poissons Ratio (y) = 0.73736 0.14404
# Poissons Ratio (z) = 0.10743 0.10495
#
# Static dielectric constant tensor:
#      x y z
#    x 2.000850 0.000000 -0.003240 
#    y 0.000000 1.889070 0.000000 
#    z -0.003240 0.000000 1.954130 
# 
# From -- ./inp_files/117938.got.cif
#   From: 2010.05.17/outbox.cif.g08.bks.cpg/sg15_59_cif.got.tgz:117938.got - 2010.06.03 18:47:42.
