data_PCOD9269916
_publ_section_title
;
Structure prediction by ZEFSAII (Michael W. Deem and Ramdas Pophale) SiO2 
 PCOD9269916
Probable space group: C 2/C
;
_chemical_formula_sum "Si O2"
_cell_formula_units_Z 36
_cell_length_a 15.744718
_cell_length_b 21.542355
_cell_length_c 8.811183
_cell_angle_alpha 90.000000
_cell_angle_beta 39.605512
_cell_angle_gamma 90.000000
_cell_volume 1905.202704
_symmetry_space_group_name_H-M "C 2/C"
_symmetry_group_IT_number 15
_symmetry_cell_setting 'monoclinic'
loop_
_space_group_symop_operation_xyz
x,y,z
-x,y,1/2-z
-x,-y,-z
x,-y,1/2+z
1/2+x,1/2+y,z
1/2-x,1/2+y,1/2-z
1/2-x,1/2-y,-z
1/2+x,1/2-y,1/2+z
loop_
_atom_site_type_symbol
_atom_site_label
_atom_site_fract_x
_atom_site_fract_y
_atom_site_fract_z
Si Si1 0.500000 0.715985 0.750000
Si Si2 0.222732 0.348179 0.648031
Si Si3 0.970791 0.566457 0.968355
Si Si4 0.632706 0.831468 0.434101
Si Si5 0.847337 0.242048 0.510154
O O1 0.627599 0.672511 0.598818
O O2 0.444875 0.764597 0.953379
O O3 0.146216 0.349142 0.592237
O O4 0.173687 0.296715 0.837620
O O5 0.180619 0.412073 0.786029
O O6 0.000000 0.566658 0.750000
O O7 0.063625 0.618373 0.922177
O O8 0.000000 0.500000 0.000000
O O9 0.783556 0.818703 0.173681
O O10 0.750000 0.250000 0.500000
O O11 0.000000 0.238826 0.250000
#
# Coordination Sequence:
#
# PCOD9269916 Si02
#       5
#     4   8   8   8   8
#     4  10  20  34  66  94 132 166 198 258 320 372
#     4  11  22  38  62  93 129 167 214 254 323 379
#     4  12  25  44  67  91 122 169 219 266 313 387
#     4  11  22  38  60  91 126 168 211 255 322 377
#     4  11  23  34  57  93 135 168 208 269 323 383
#
# _framework density 18.895627999999999
#
# number of rings (size 3 to 8) (size 9 to 14) (size 15 to 20)
#    0.000    0.889    2.222    7.333    9.333    0.000 
#    0.000    0.000    2.444    2.667    0.000    0.000 
#    0.000    0.000    0.000    0.000    0.000    0.000 
#
# Total GULP energy -100330.266273 kJ/mol
# GULP energy per Si atom -5573.903682 kJ/mol
# Density = 1.885262 g / cm^3
# Si number density = 18.895628 Si / 1000 Ang^3
#
#
#
# Elastic Constant Matrix: (Units=GPa)
#
#
# Indices 1 2 3 4 5 6 
#
# 1 137.2061 53.8198 74.9256 0.0000 14.1191 0.0000
# 2 53.8198 111.1981 52.8139 0.0000 -3.7452 0.0000
# 3 74.9256 52.8139 157.9477 0.0000 -3.7692 0.0000
# 4 0.0000 0.0000 0.0000 21.6027 0.0000 2.2538
# 5 14.1191 -3.7452 -3.7692 0.0000 50.1263 0.0000
# 6 0.0000 0.0000 0.0000 2.2538 0.0000 38.1655
#
#
#
# Elastic Compliance Matrix: (Units=1/GPa)
#
#
# Indices 1 2 3 4 5 6 
#
# 1 0.011461 -0.003626 -0.004315 0.000000 -0.003824 0.000000
# 2 -0.003626 0.011852 -0.002201 0.000000 0.001741 0.000000
# 3 -0.004315 -0.002201 0.009156 0.000000 0.001739 0.000000
# 4 0.000000 0.000000 0.000000 0.046577 0.000000 -0.002751
# 5 -0.003824 0.001741 0.001739 0.000000 0.021287 0.000000
# 6 0.000000 0.000000 0.000000 -0.002751 0.000000 0.026364
#
#
# Mechanical properties :
#
#
# Convention : Reuss Voigt Hill
#
# Bulk Modulus (GPa) = 82.08169 85.49673 83.78921
# Shear Modulus (GPa) = 33.10281 36.96508 35.03394
#
# Velocity S-wave (km/s) = 4.19008 4.42778 4.31057
# Velocity P-wave (km/s) = 8.18186 8.45490 8.31950
#
# Compressibility (1/GPa) = 0.01218299
#
# Stress axis : x y z
#
# Youngs Moduli (GPa) = 87.25500 84.37234 109.21930
#
# Poissons Ratio (x) = 0.30595 0.47132
# Poissons Ratio (y) = 0.31640 0.24044
# Poissons Ratio (z) = 0.37654 0.18574
#
# Static dielectric constant tensor:
#      x y z
#    x 1.734450 0.000000 -0.009570 
#    y 0.000000 1.651540 0.000000 
#    z -0.009570 0.000000 1.762020 
# 
# From -- ./inp_files/49557.got.cif
#   From: 2010.05.17/outbox.cif.g08.bks.cpg/sg15_25_cif.got.tgz:49557.got - 2010.06.03 18:47:42.
