data_PCOD9269084
_publ_section_title
;
Structure prediction by ZEFSAII (Michael W. Deem and Ramdas Pophale) SiO2 
 PCOD9269084
Probable space group: C 2/C
;
_chemical_formula_sum "Si O2"
_cell_formula_units_Z 48
_cell_length_a 20.645850
_cell_length_b 26.650810
_cell_length_c 5.149546
_cell_angle_alpha 90.000000
_cell_angle_beta 94.993560
_cell_angle_gamma 90.000000
_cell_volume 2822.673310
_symmetry_space_group_name_H-M "C 2/C"
_symmetry_group_IT_number 15
_symmetry_cell_setting 'monoclinic'
loop_
_space_group_symop_operation_xyz
x,y,z
-x,y,1/2-z
-x,-y,-z
x,-y,1/2+z
1/2+x,1/2+y,z
1/2-x,1/2+y,1/2-z
1/2-x,1/2-y,-z
1/2+x,1/2-y,1/2+z
loop_
_atom_site_type_symbol
_atom_site_label
_atom_site_fract_x
_atom_site_fract_y
_atom_site_fract_z
Si Si1 0.119590 0.868070 0.407936
Si Si2 0.067614 0.178458 0.381848
Si Si3 0.683717 0.204261 0.234304
Si Si4 0.425395 0.521233 0.491492
Si Si5 0.737367 0.683198 0.738199
Si Si6 0.542131 0.208199 0.001230
O O1 0.118678 0.840754 0.686916
O O2 0.087123 0.922365 0.426441
O O3 0.191346 0.862329 0.311278
O O4 0.077775 0.839453 0.176441
O O5 0.000000 0.157172 0.250000
O O6 0.062370 0.238063 0.386445
O O7 0.694368 0.265113 0.232089
O O8 0.705630 0.189132 0.529957
O O9 0.611559 0.187952 0.125052
O O10 0.732625 0.181903 0.036810
O O11 0.500000 0.500000 0.500000
O O12 0.395190 0.513937 0.199803
O O13 0.500000 0.214656 0.250000
O O14 0.500000 0.183801 0.750000
#
# Coordination Sequence:
#
# PCOD9269084 Si02
#       6
#     8   8   8   8   8   8
#     4  12  22  36  52  69  94 123 180 211 274 311
#     4  11  23  30  47  71  92 126 162 219 258 299
#     4  10  20  34  49  70 101 124 166 206 259 305
#     4  10  23  38  50  68  92 126 166 216 273 313
#     4  10  21  32  51  70  93 132 162 214 258 300
#     4  11  21  34  47  71 101 128 166 200 259 300
#
# _framework density 17.005155999999999
#
# number of rings (size 3 to 8) (size 9 to 14) (size 15 to 20)
#    0.000    1.333    1.667    5.500   11.667    0.000 
#    0.000    0.000    0.000    0.000    0.000    0.000 
#    0.000    0.000    0.000    0.000    0.000   58.333 
#
# Total GULP energy -133747.207366 kJ/mol
# GULP energy per Si atom -5572.800307 kJ/mol
# Density = 1.696645 g / cm^3
# Si number density = 17.005156 Si / 1000 Ang^3
#
#
#
# Elastic Constant Matrix: (Units=GPa)
#
#
# Indices 1 2 3 4 5 6 
#
# 1 84.4884 12.0848 13.5551 0.0000 11.2092 0.0000
# 2 12.0848 31.6723 5.0099 0.0000 -12.6320 0.0000
# 3 13.5551 5.0099 87.5662 0.0000 1.3598 0.0000
# 4 0.0000 0.0000 0.0000 12.3439 0.0000 -8.2095
# 5 11.2092 -12.6320 1.3598 0.0000 31.1049 0.0000
# 6 0.0000 0.0000 0.0000 -8.2095 0.0000 15.9853
#
#
#
# Elastic Compliance Matrix: (Units=1/GPa)
#
#
# Indices 1 2 3 4 5 6 
#
# 1 0.014502 -0.008753 -0.001609 0.000000 -0.008710 0.000000
# 2 -0.008753 0.043467 -0.001456 0.000000 0.020870 0.000000
# 3 -0.001609 -0.001456 0.011760 0.000000 -0.000526 0.000000
# 4 0.000000 0.000000 0.000000 0.123035 0.000000 0.063187
# 5 -0.008710 0.020870 -0.000526 0.000000 0.043787 0.000000
# 6 0.000000 0.000000 0.000000 0.063187 0.000000 0.095008
#
#
# Mechanical properties :
#
#
# Convention : Reuss Voigt Hill
#
# Bulk Modulus (GPa) = 21.69470 29.44739 25.57104
# Shear Modulus (GPa) = 13.49314 23.42529 18.45921
#
# Velocity S-wave (km/s) = 2.81992 3.71555 3.29828
# Velocity P-wave (km/s) = 4.83612 5.98008 5.43826
#
# Compressibility (1/GPa) = 0.04609421
#
# Stress axis : x y z
#
# Youngs Moduli (GPa) = 68.95804 23.00586 85.03088
#
# Poissons Ratio (x) = 0.20136 0.13680
# Poissons Ratio (y) = 0.60356 0.12381
# Poissons Ratio (z) = 0.11094 0.03350
#
# Static dielectric constant tensor:
#      x y z
#    x 1.657120 0.000000 0.012200 
#    y 0.000000 1.564250 0.000000 
#    z 0.012200 0.000000 1.628820 
# 
# From -- ./inp_files/11084.got.cif
#   From: 2010.05.17/outbox.cif.g08.bks.cpg/sg15_6_cif.got.tgz:11084.got - 2010.06.03 18:47:42.
