data_PCOD9269338
_publ_section_title
;
Structure prediction by ZEFSAII (Michael W. Deem and Ramdas Pophale) SiO2 
 PCOD9269338
Probable space group: C 2/C
;
_chemical_formula_sum "Si O2"
_cell_formula_units_Z 64
_cell_length_a 23.424168
_cell_length_b 12.048217
_cell_length_c 12.730231
_cell_angle_alpha 90.000000
_cell_angle_beta 97.024270
_cell_angle_gamma 90.000000
_cell_volume 3565.753539
_symmetry_space_group_name_H-M "C 2/C"
_symmetry_group_IT_number 15
_symmetry_cell_setting 'monoclinic'
loop_
_space_group_symop_operation_xyz
x,y,z
-x,y,1/2-z
-x,-y,-z
x,-y,1/2+z
1/2+x,1/2+y,z
1/2-x,1/2+y,1/2-z
1/2-x,1/2-y,-z
1/2+x,1/2-y,1/2+z
loop_
_atom_site_type_symbol
_atom_site_label
_atom_site_fract_x
_atom_site_fract_y
_atom_site_fract_z
Si Si1 0.843111 0.763308 0.087149
Si Si2 0.571233 0.615486 0.498485
Si Si3 0.058370 0.851200 0.529230
Si Si4 0.741052 0.140900 0.069617
Si Si5 0.064659 0.086484 0.258781
Si Si6 0.338713 0.285691 0.319086
Si Si7 0.744622 0.418016 0.539618
Si Si8 0.687650 0.515933 0.241119
O O1 0.864512 0.758237 0.211444
O O2 0.799280 0.662561 0.057996
O O3 0.897058 0.775761 0.022453
O O4 0.801976 0.869437 0.053225
O O5 0.572947 0.481444 0.510397
O O6 0.508184 0.657562 0.517872
O O7 0.576441 0.638355 0.375202
O O8 0.619568 0.668704 0.581264
O O9 0.062323 0.835052 0.656001
O O10 0.691880 0.178877 0.139050
O O11 0.789681 0.090922 0.158121
O O12 0.750000 0.250000 0.000000
O O13 0.732720 0.037776 0.990112
O O14 0.118819 0.009071 0.244686
O O15 0.000000 0.034806 0.250000
O O16 0.295451 0.387902 0.279665
O O17 0.709462 0.422787 0.640795
#
# Coordination Sequence:
#
# PCOD9269338 Si02
#       8
#     8   8   8   8   8   8   8   8
#     4  11  22  38  61  84 122 161 202 254 300 376
#     4  10  21  35  55  88 124 154 198 251 311 371
#     4  10  20  35  57  86 120 162 195 248 314 365
#     4  12  25  39  60  87 124 166 206 259 308 367
#     4  10  20  34  55  82 120 158 195 240 300 371
#     4  12  22  37  60  88 121 158 200 255 305 365
#     4  11  23  39  57  85 119 164 211 247 304 365
#     4  12  21  38  56  85 124 160 199 244 307 368
#
# _framework density 17.948521
#
# number of rings (size 3 to 8) (size 9 to 14) (size 15 to 20)
#    0.000    1.000    6.250    1.500    0.000    0.500 
#    0.000    0.000    0.000    0.750    0.000    0.000 
#    0.000    0.000    0.000    0.000    0.000    0.000 
#
# Total GULP energy -178252.506089 kJ/mol
# GULP energy per Si atom -5570.390815 kJ/mol
# Density = 1.790767 g / cm^3
# Si number density = 17.948521 Si / 1000 Ang^3
#
#
#
# Elastic Constant Matrix: (Units=GPa)
#
#
# Indices 1 2 3 4 5 6 
#
# 1 90.6094 34.1818 41.6915 0.0000 -17.5647 0.0000
# 2 34.1818 78.8561 28.9349 0.0000 -5.9745 0.0000
# 3 41.6915 28.9349 135.9334 0.0000 -6.4922 0.0000
# 4 0.0000 0.0000 0.0000 20.6607 0.0000 -6.8855
# 5 -17.5647 -5.9745 -6.4922 0.0000 33.8804 0.0000
# 6 0.0000 0.0000 0.0000 -6.8855 0.0000 13.5185
#
#
#
# Elastic Compliance Matrix: (Units=1/GPa)
#
#
# Indices 1 2 3 4 5 6 
#
# 1 0.015837 -0.005093 -0.003456 0.000000 0.006650 0.000000
# 2 -0.005093 0.015514 -0.001752 0.000000 -0.000240 0.000000
# 3 -0.003456 -0.001752 0.008769 0.000000 -0.000420 0.000000
# 4 0.000000 0.000000 0.000000 0.058297 0.000000 0.029693
# 5 0.006650 -0.000240 -0.000420 0.000000 0.032840 0.000000
# 6 0.000000 0.000000 0.000000 0.029693 0.000000 0.089096
#
#
# Mechanical properties :
#
#
# Convention : Reuss Voigt Hill
#
# Bulk Modulus (GPa) = 51.23176 57.22393 54.22784
# Shear Modulus (GPa) = 20.20534 26.98463 23.59499
#
# Velocity S-wave (km/s) = 3.35884 3.88164 3.62966
# Velocity P-wave (km/s) = 6.60667 7.21394 6.91697
#
# Compressibility (1/GPa) = 0.01951914
#
# Stress axis : x y z
#
# Youngs Moduli (GPa) = 63.14422 64.45993 114.03587
#
# Poissons Ratio (x) = 0.32829 0.39405
# Poissons Ratio (y) = 0.32159 0.19975
# Poissons Ratio (z) = 0.21820 0.11291
#
# Static dielectric constant tensor:
#      x y z
#    x 1.638740 0.000000 0.000120 
#    y 0.000000 1.611900 0.000000 
#    z 0.000120 0.000000 1.691380 
# 
# From -- ./inp_files/117589.got.cif
#   From: 2010.05.17/outbox.cif.g08.bks.cpg/sg15_59_cif.got.tgz:117589.got - 2010.06.03 18:47:42.
