data_PCOD9269083
_publ_section_title
;
Structure prediction by ZEFSAII (Michael W. Deem and Ramdas Pophale) SiO2 
 PCOD9269083
Probable space group: C 2/C
;
_chemical_formula_sum "Si O2"
_cell_formula_units_Z 56
_cell_length_a 22.462540
_cell_length_b 26.089558
_cell_length_c 18.636904
_cell_angle_alpha 90.000000
_cell_angle_beta 160.834222
_cell_angle_gamma 90.000000
_cell_volume 3585.696900
_symmetry_space_group_name_H-M "C 2/C"
_symmetry_group_IT_number 15
_symmetry_cell_setting 'monoclinic'
loop_
_space_group_symop_operation_xyz
x,y,z
-x,y,1/2-z
-x,-y,-z
x,-y,1/2+z
1/2+x,1/2+y,z
1/2-x,1/2+y,1/2-z
1/2-x,1/2-y,-z
1/2+x,1/2-y,1/2+z
loop_
_atom_site_type_symbol
_atom_site_label
_atom_site_fract_x
_atom_site_fract_y
_atom_site_fract_z
Si Si1 0.968144 0.302358 0.129266
Si Si2 0.364093 0.911060 0.028717
Si Si3 0.807382 0.098708 0.855301
Si Si4 0.980521 0.051248 0.527132
Si Si5 0.556847 0.944545 0.534545
Si Si6 0.476489 0.522856 0.308107
Si Si7 0.127226 0.810759 0.966333
O O1 0.841389 0.352121 0.976203
O O2 0.903989 0.245662 0.036055
O O3 0.000000 0.296599 0.250000
O O4 0.164576 0.314143 0.321226
O O5 0.500000 0.908774 0.250000
O O6 0.446545 0.941792 0.055813
O O7 0.187004 0.939780 0.854839
O O8 0.589419 0.096234 0.602302
O O9 0.889114 0.146272 0.991794
O O10 0.903026 0.090886 0.887344
O O11 0.853141 0.050047 0.959192
O O12 0.769060 0.065569 0.292560
O O13 0.000000 0.000000 0.500000
O O14 0.049711 0.031951 0.683054
O O15 0.500000 0.000000 0.500000
O O16 0.500000 0.520412 0.250000
O O17 0.000000 0.818540 0.750000
#
# Coordination Sequence:
#
# PCOD9269083 Si02
#       7
#     8   8   8   8   8   8   8
#     4  10  22  33  44  67  96 131 168 212 248 275
#     4  11  22  32  47  73  97 131 174 208 238 285
#     4  11  21  33  52  69  92 132 169 204 246 296
#     4  10  20  34  49  69  93 126 160 207 253 295
#     4  12  19  34  49  68  96 122 169 207 247 291
#     4  11  21  33  49  71  96 126 170 207 246 294
#     4  11  22  33  48  67  95 134 170 214 247 279
#
# _framework density 15.617604999999999
#
# number of rings (size 3 to 8) (size 9 to 14) (size 15 to 20)
#    0.000    1.143    7.143    3.000    8.000    0.000 
#    0.000    0.000    0.000    0.000    0.000    0.000 
#    0.000    0.000    0.000    6.429    0.571    0.571 
#
# Total GULP energy -156023.466012 kJ/mol
# GULP energy per Si atom -5572.266643 kJ/mol
# Density = 1.558206 g / cm^3
# Si number density = 15.617605 Si / 1000 Ang^3
#
#
#
# Elastic Constant Matrix: (Units=GPa)
#
#
# Indices 1 2 3 4 5 6 
#
# 1 105.4448 58.4536 32.2299 -0.0001 15.8841 -0.0001
# 2 58.4536 86.4805 33.9636 -0.0001 -0.9306 -0.0001
# 3 32.2299 33.9636 84.9762 -0.0003 23.6507 -0.0001
# 4 -0.0001 -0.0001 -0.0003 19.6168 -0.0001 -2.0498
# 5 15.8841 -0.9306 23.6507 -0.0001 25.3481 -0.0001
# 6 -0.0001 -0.0001 -0.0001 -2.0498 -0.0001 25.7497
#
#
#
# Elastic Compliance Matrix: (Units=1/GPa)
#
#
# Indices 1 2 3 4 5 6 
#
# 1 0.018402 -0.013535 0.002402 0.000000 -0.014269 0.000000
# 2 -0.013535 0.024845 -0.010011 0.000000 0.018734 0.000000
# 3 0.002402 -0.010011 0.020774 0.000000 -0.021255 0.000000
# 4 0.000000 0.000000 0.000000 0.051404 0.000000 0.004092
# 5 -0.014269 0.018734 -0.021255 0.000000 0.068912 0.000000
# 6 0.000000 0.000000 0.000000 0.004092 0.000000 0.039161
#
#
# Mechanical properties :
#
#
# Convention : Reuss Voigt Hill
#
# Bulk Modulus (GPa) = 46.01294 58.46618 52.23956
# Shear Modulus (GPa) = 18.31288 24.29322 21.30305
#
# Velocity S-wave (km/s) = 3.42801 3.94826 3.69730
# Velocity P-wave (km/s) = 6.72269 7.63560 7.19364
#
# Compressibility (1/GPa) = 0.02173301
#
# Stress axis : x y z
#
# Youngs Moduli (GPa) = 54.34095 40.24950 48.13694
#
# Poissons Ratio (x) = 0.54478 -0.11561
# Poissons Ratio (y) = 0.73551 0.48188
# Poissons Ratio (z) = -0.13050 0.40292
#
# Static dielectric constant tensor:
#      x y z
#    x 1.451460 0.000000 0.002610 
#    y 0.000000 1.573300 0.000000 
#    z 0.002610 0.000000 1.572410 
# 
# From -- ./inp_files/217091.got.cif
#   From: 2010.05.17/outbox.cif.g08.bks.cpg/sg15_109_cif.got.tgz:217091.got - 2010.06.03 18:47:42.
