data_PCOD9269066
_publ_section_title
;
Structure prediction by ZEFSAII (Michael W. Deem and Ramdas Pophale) SiO2 
 PCOD9269066
Probable space group: C 2/C
;
_chemical_formula_sum "Si O2"
_cell_formula_units_Z 36
_cell_length_a 27.101324
_cell_length_b 12.184105
_cell_length_c 5.445201
_cell_angle_alpha 90.000000
_cell_angle_beta 75.611686
_cell_angle_gamma 90.000000
_cell_volume 1741.637250
_symmetry_space_group_name_H-M "C 2/C"
_symmetry_group_IT_number 15
_symmetry_cell_setting 'monoclinic'
loop_
_space_group_symop_operation_xyz
x,y,z
-x,y,1/2-z
-x,-y,-z
x,-y,1/2+z
1/2+x,1/2+y,z
1/2-x,1/2+y,1/2-z
1/2-x,1/2-y,-z
1/2+x,1/2-y,1/2+z
loop_
_atom_site_type_symbol
_atom_site_label
_atom_site_fract_x
_atom_site_fract_y
_atom_site_fract_z
Si Si1 0.000000 0.427999 0.250000
Si Si2 0.888116 0.426963 0.405282
Si Si3 0.352894 0.477763 0.745226
Si Si4 0.305586 0.762817 0.311863
Si Si5 0.741353 0.063298 0.922401
O O1 0.055468 0.372186 0.178208
O O2 0.000000 0.500000 0.500000
O O3 0.885068 0.490699 0.670862
O O4 0.844290 0.338062 0.416471
O O5 0.381562 0.506600 0.463058
O O6 0.330327 0.355759 0.758470
O O7 0.303085 0.559331 0.824673
O O8 0.250000 0.750000 0.500000
O O9 0.290364 0.826336 0.080233
O O10 0.728411 0.990832 0.697368
#
# Coordination Sequence:
#
# PCOD9269066 Si02
#       5
#     4   8   8   8   8
#     4   8  16  36  60  80 110 138 174 232 284 324
#     4  10  22  38  58  86 112 144 184 228 278 334
#     4  10  22  35  46  65  97 138 176 212 252 305
#     4  12  22  34  54  76 109 147 182 220 275 322
#     4  10  20  34  46  66  96 135 172 212 251 311
#
# _framework density 20.670207000000001
#
# number of rings (size 3 to 8) (size 9 to 14) (size 15 to 20)
#    0.000    1.778    4.444    1.333    0.000    7.111 
#    0.000    0.000    0.000    0.000    0.000    1.556 
#    0.000    0.000    0.000    0.000    0.000    0.000 
#
# Total GULP energy -100369.480948 kJ/mol
# GULP energy per Si atom -5576.082275 kJ/mol
# Density = 2.062316 g / cm^3
# Si number density = 20.670207 Si / 1000 Ang^3
#
#
#
# Elastic Constant Matrix: (Units=GPa)
#
#
# Indices 1 2 3 4 5 6 
#
# 1 109.7864 10.2143 5.2259 0.0000 -2.6382 0.0000
# 2 10.2143 66.4662 32.5876 0.0000 13.7756 0.0000
# 3 5.2259 32.5876 148.0257 0.0000 35.4210 0.0000
# 4 0.0000 0.0000 0.0000 22.6619 0.0000 7.1246
# 5 -2.6382 13.7756 35.4210 0.0000 25.4676 0.0000
# 6 0.0000 0.0000 0.0000 7.1246 0.0000 22.7913
#
#
#
# Elastic Compliance Matrix: (Units=1/GPa)
#
#
# Indices 1 2 3 4 5 6 
#
# 1 0.009362 -0.001708 -0.000611 0.000000 0.002743 0.000000
# 2 -0.001708 0.017797 -0.002266 0.000000 -0.006652 0.000000
# 3 -0.000611 -0.002266 0.010489 0.000000 -0.013425 0.000000
# 4 0.000000 0.000000 0.000000 0.048936 0.000000 -0.015298
# 5 0.002743 -0.006652 -0.013425 0.000000 0.061820 0.000000
# 6 0.000000 0.000000 0.000000 -0.015298 0.000000 0.048658
#
#
# Mechanical properties :
#
#
# Convention : Reuss Voigt Hill
#
# Bulk Modulus (GPa) = 35.11397 46.70376 40.90886
# Shear Modulus (GPa) = 23.17757 32.60087 27.88922
#
# Velocity S-wave (km/s) = 3.35222 3.97570 3.67720
# Velocity P-wave (km/s) = 5.65754 6.61201 6.15331
#
# Compressibility (1/GPa) = 0.02847870
#
# Stress axis : x y z
#
# Youngs Moduli (GPa) = 106.80908 56.18806 95.34212
#
# Poissons Ratio (x) = 0.09596 0.05826
# Poissons Ratio (y) = 0.18241 0.21605
# Poissons Ratio (z) = 0.06527 0.12732
#
# Static dielectric constant tensor:
#      x y z
#    x 1.762030 0.000000 0.029670 
#    y 0.000000 1.819600 0.000000 
#    z 0.029670 0.000000 1.836230 
# 
# From -- ./inp_files/16706.got.cif
#   From: 2010.05.17/outbox.cif.g08.bks.cpg/sg15_9_cif.got.tgz:16706.got - 2010.06.03 18:47:42.
