data_PCOD9269632
_publ_section_title
;
Structure prediction by ZEFSAII (Michael W. Deem and Ramdas Pophale) SiO2 
 PCOD9269632
Probable space group: C 2/C
;
_chemical_formula_sum "Si O2"
_cell_formula_units_Z 52
_cell_length_a 12.778157
_cell_length_b 29.700468
_cell_length_c 6.973207
_cell_angle_alpha 90.000000
_cell_angle_beta 51.463985
_cell_angle_gamma 90.000000
_cell_volume 2070.099187
_symmetry_space_group_name_H-M "C 2/C"
_symmetry_group_IT_number 15
_symmetry_cell_setting 'monoclinic'
loop_
_space_group_symop_operation_xyz
x,y,z
-x,y,1/2-z
-x,-y,-z
x,-y,1/2+z
1/2+x,1/2+y,z
1/2-x,1/2+y,1/2-z
1/2-x,1/2-y,-z
1/2+x,1/2-y,1/2+z
loop_
_atom_site_type_symbol
_atom_site_label
_atom_site_fract_x
_atom_site_fract_y
_atom_site_fract_z
Si Si1 0.808857 0.035896 0.531672
Si Si2 0.501694 0.161038 0.021140
Si Si3 0.535159 0.062546 0.922759
Si Si4 0.113617 0.756245 0.772968
Si Si5 0.000000 0.893734 0.750000
Si Si6 0.309065 0.654912 0.179531
Si Si7 0.762961 0.060728 0.139970
O O1 0.674474 0.039103 0.811866
O O2 0.921246 0.070383 0.475475
O O3 0.778879 0.054933 0.353104
O O4 0.837837 0.983188 0.477575
O O5 0.500000 0.155811 0.250000
O O6 0.350118 0.161522 0.114674
O O7 0.568204 0.115501 0.868979
O O8 0.573056 0.207580 0.896993
O O9 0.500000 0.045159 0.750000
O O10 0.399233 0.058994 0.200275
O O11 0.250000 0.750000 0.500000
O O12 0.133517 0.794768 0.912602
O O13 0.000000 0.769327 0.750000
O O14 0.106386 0.862492 0.735448
O O15 0.313772 0.611172 0.033551
#
# Coordination Sequence:
#
# PCOD9269632 Si02
#       7
#     8   8   8   8   4   8   8
#     4  10  20  34  58  90 124 176 211 271 324 391
#     4  11  25  42  66 101 140 168 208 288 351 398
#     4   9  19  37  65  92 124 170 231 271 313 391
#     4  12  24  42  76  98 124 178 235 273 331 408
#     4  10  22  38  66  92 132 172 236 272 308 400
#     4  10  22  41  63  94 127 169 223 274 323 394
#     4   9  20  36  60  88 129 162 220 270 323 385
#
# _framework density 25.11957
#
# number of rings (size 3 to 8) (size 9 to 14) (size 15 to 20)
#    0.000    1.846    2.308    1.846    6.462    5.538 
#    0.000    0.769    5.077    1.846    0.000    0.000 
#    0.000    0.000    0.000    0.000    0.000    0.000 
#
# Total GULP energy -145231.059220 kJ/mol
# GULP energy per Si atom -5585.809970 kJ/mol
# Density = 2.506240 g / cm^3
# Si number density = 25.119570 Si / 1000 Ang^3
#
#
#
# Elastic Constant Matrix: (Units=GPa)
#
#
# Indices 1 2 3 4 5 6 
#
# 1 92.9237 26.2257 46.4814 0.0000 -27.2099 0.0000
# 2 26.2257 206.8592 26.2441 0.0000 -23.0506 0.0000
# 3 46.4814 26.2441 57.7047 0.0000 -12.7229 0.0000
# 4 0.0000 0.0000 0.0000 28.8150 0.0000 -10.4886
# 5 -27.2099 -23.0506 -12.7229 0.0000 37.9719 0.0000
# 6 0.0000 0.0000 0.0000 -10.4886 0.0000 34.6629
#
#
#
# Elastic Compliance Matrix: (Units=1/GPa)
#
#
# Indices 1 2 3 4 5 6 
#
# 1 0.021166 0.000368 -0.014926 0.000000 0.010389 0.000000
# 2 0.000368 0.005370 -0.002118 0.000000 0.002814 0.000000
# 3 -0.014926 -0.002118 0.029882 0.000000 -0.001969 0.000000
# 4 0.000000 0.000000 0.000000 0.039000 0.000000 0.011801
# 5 0.010389 0.002814 -0.001969 0.000000 0.034828 0.000000
# 6 0.000000 0.000000 0.000000 0.011801 0.000000 0.032420
#
#
# Mechanical properties :
#
#
# Convention : Reuss Voigt Hill
#
# Bulk Modulus (GPa) = 43.35563 61.70998 52.53281
# Shear Modulus (GPa) = 24.54516 37.52572 31.03544
#
# Velocity S-wave (km/s) = 3.12930 3.86927 3.51879
# Velocity P-wave (km/s) = 5.50944 6.67694 6.12109
#
# Compressibility (1/GPa) = 0.02306505
#
# Stress axis : x y z
#
# Youngs Moduli (GPa) = 47.24563 186.22597 33.46536
#
# Poissons Ratio (x) = -0.06851 0.49950
# Poissons Ratio (y) = -0.01738 0.07089
# Poissons Ratio (z) = 0.70518 0.39446
#
# Static dielectric constant tensor:
#      x y z
#    x 2.042670 0.000000 0.004190 
#    y 0.000000 2.006850 0.000000 
#    z 0.004190 0.000000 2.015740 
# 
# From -- ./inp_files/44782.got.cif
#   From: 2010.05.17/outbox.cif.g08.bks.cpg/sg15_23_cif.got.tgz:44782.got - 2010.06.03 18:47:42.
