data_PCOD9269660
_publ_section_title
;
Structure prediction by ZEFSAII (Michael W. Deem and Ramdas Pophale) SiO2 
 PCOD9269660
Probable space group: C 2/C
;
_chemical_formula_sum "Si O2"
_cell_formula_units_Z 64
_cell_length_a 26.041259
_cell_length_b 11.525272
_cell_length_c 21.578500
_cell_angle_alpha 90.000000
_cell_angle_beta 152.109433
_cell_angle_gamma 90.000000
_cell_volume 3029.563511
_symmetry_space_group_name_H-M "C 2/C"
_symmetry_group_IT_number 15
_symmetry_cell_setting 'monoclinic'
loop_
_space_group_symop_operation_xyz
x,y,z
-x,y,1/2-z
-x,-y,-z
x,-y,1/2+z
1/2+x,1/2+y,z
1/2-x,1/2+y,1/2-z
1/2-x,1/2-y,-z
1/2+x,1/2-y,1/2+z
loop_
_atom_site_type_symbol
_atom_site_label
_atom_site_fract_x
_atom_site_fract_y
_atom_site_fract_z
Si Si1 0.282199 0.761254 0.244034
Si Si2 0.174988 0.369768 0.739246
Si Si3 0.063174 0.647185 0.490270
Si Si4 0.884845 0.353326 0.592011
Si Si5 0.341284 0.440442 0.466162
Si Si6 0.662367 0.595198 0.922224
Si Si7 0.559636 0.555155 0.122326
Si Si8 0.907302 0.838333 0.282290
O O1 0.196403 0.693989 0.197084
O O2 0.347126 0.846975 0.360493
O O3 0.224107 0.825711 0.125141
O O4 0.371607 0.668733 0.316878
O O5 0.172330 0.269857 0.789846
O O6 0.269888 0.459639 0.855459
O O7 0.050003 0.415410 0.610316
O O8 0.103378 0.605433 0.466209
O O9 0.018505 0.780418 0.428485
O O10 0.859630 0.215880 0.566218
O O11 0.784644 0.407707 0.523398
O O12 0.349375 0.485557 0.545298
O O13 0.462838 0.428339 0.568559
O O14 0.500000 0.872688 0.750000
O O15 0.586492 0.616356 0.780742
O O16 0.633580 0.448611 0.223916
O O17 0.500000 0.500000 0.000000
#
# Coordination Sequence:
#
# PCOD9269660 Si02
#       8
#     8   8   8   8   8   8   8   8
#     4  12  23  40  62  89 138 169 220 270 317 401
#     4  10  21  38  62 102 129 162 215 275 335 389
#     4  10  20  34  58  94 129 161 204 269 339 381
#     4  11  19  34  61  93 137 163 204 274 336 389
#     4  12  25  40  64  94 130 175 217 271 334 400
#     4  11  22  35  59  96 129 169 212 264 332 391
#     4  12  22  41  67  91 125 176 225 264 326 394
#     4  10  20  38  64  99 128 164 217 272 332 386
#
# _framework density 21.125156
#
# number of rings (size 3 to 8) (size 9 to 14) (size 15 to 20)
#    0.750    0.250    3.750    6.000    0.000    0.500 
#    0.000    0.625    2.750    0.000    0.000    0.000 
#    0.000    0.000    0.000    0.000    0.000    0.000 
#
# Total GULP energy -178588.235986 kJ/mol
# GULP energy per Si atom -5580.882375 kJ/mol
# Density = 2.107707 g / cm^3
# Si number density = 21.125156 Si / 1000 Ang^3
#
#
#
# Elastic Constant Matrix: (Units=GPa)
#
#
# Indices 1 2 3 4 5 6 
#
# 1 129.0733 29.7943 27.0823 0.0000 14.4923 0.0000
# 2 29.7943 54.0543 10.8285 0.0000 -6.0192 0.0000
# 3 27.0823 10.8285 64.0582 0.0000 5.6028 0.0000
# 4 0.0000 0.0000 0.0000 27.4183 0.0000 -6.9390
# 5 14.4923 -6.0192 5.6028 0.0000 41.3834 0.0000
# 6 0.0000 0.0000 0.0000 -6.9390 0.0000 29.9216
#
#
#
# Elastic Compliance Matrix: (Units=1/GPa)
#
#
# Indices 1 2 3 4 5 6 
#
# 1 0.010056 -0.005375 -0.003002 0.000000 -0.003897 0.000000
# 2 -0.005375 0.022467 -0.001999 0.000000 0.005421 0.000000
# 3 -0.003002 -0.001999 0.017357 0.000000 -0.001590 0.000000
# 4 0.000000 0.000000 0.000000 0.038746 0.000000 0.008985
# 5 -0.003897 0.005421 -0.001590 0.000000 0.026533 0.000000
# 6 0.000000 0.000000 0.000000 0.008985 0.000000 0.035504
#
#
# Mechanical properties :
#
#
# Convention : Reuss Voigt Hill
#
# Bulk Modulus (GPa) = 34.33303 42.51068 38.42185
# Shear Modulus (GPa) = 27.60535 31.71005 29.65770
#
# Velocity S-wave (km/s) = 3.61882 3.87855 3.75094
# Velocity P-wave (km/s) = 5.80936 6.34228 6.08166
#
# Compressibility (1/GPa) = 0.02912647
#
# Stress axis : x y z
#
# Youngs Moduli (GPa) = 99.44616 44.51001 57.61386
#
# Poissons Ratio (x) = 0.23925 0.17295
# Poissons Ratio (y) = 0.53454 0.11520
# Poissons Ratio (z) = 0.29852 0.08900
#
# Static dielectric constant tensor:
#      x y z
#    x 1.809060 0.000000 0.006040 
#    y 0.000000 1.774160 0.000000 
#    z 0.006040 0.000000 1.834850 
# 
# From -- ./inp_files/257517.got.cif
#   From: 2010.05.17/outbox.cif.g08.bks.cpg/sg15_129_cif.got.tgz:257517.got - 2010.06.03 18:47:42.
