data_PCOD9269402
_publ_section_title
;
Structure prediction by ZEFSAII (Michael W. Deem and Ramdas Pophale) SiO2 
 PCOD9269402
Probable space group: C 2/C
;
_chemical_formula_sum "Si O2"
_cell_formula_units_Z 48
_cell_length_a 13.036023
_cell_length_b 13.469473
_cell_length_c 14.646121
_cell_angle_alpha 90.000000
_cell_angle_beta 105.420909
_cell_angle_gamma 90.000000
_cell_volume 2479.103547
_symmetry_space_group_name_H-M "C 2/C"
_symmetry_group_IT_number 15
_symmetry_cell_setting 'monoclinic'
loop_
_space_group_symop_operation_xyz
x,y,z
-x,y,1/2-z
-x,-y,-z
x,-y,1/2+z
1/2+x,1/2+y,z
1/2-x,1/2+y,1/2-z
1/2-x,1/2-y,-z
1/2+x,1/2-y,1/2+z
loop_
_atom_site_type_symbol
_atom_site_label
_atom_site_fract_x
_atom_site_fract_y
_atom_site_fract_z
Si Si1 0.752607 0.466506 0.143675
Si Si2 0.104258 0.276444 0.339966
Si Si3 0.264171 0.331819 0.771115
Si Si4 0.018994 0.845164 0.564484
Si Si5 0.625343 0.640684 0.763881
Si Si6 0.881336 0.963967 0.059862
O O1 0.843059 0.384393 0.150620
O O2 0.782170 0.560702 0.214046
O O3 0.659954 0.411440 0.178539
O O4 0.704547 0.503086 0.036230
O O5 0.189418 0.197659 0.317753
O O6 0.000000 0.274810 0.250000
O O7 0.063043 0.241287 0.429165
O O8 0.370490 0.325243 0.858127
O O9 0.181467 0.246882 0.778405
O O10 0.052987 0.873135 0.470683
O O11 0.962604 0.944460 0.590585
O O12 0.500000 0.646148 0.750000
O O13 0.666450 0.572435 0.856999
#
# Coordination Sequence:
#
# PCOD9269402 Si02
#       6
#     8   8   8   8   8   8
#     4  10  21  36  55  81 108 141 182 222 268 318
#     4   9  18  34  56  78 106 143 179 220 267 320
#     4   9  19  33  53  77 103 139 178 217 268 318
#     4   9  17  32  52  75 102 133 173 216 262 311
#     4  11  21  35  55  79 109 142 181 225 269 320
#     4  10  20  34  56  81 108 141 179 225 269 315
#
# _framework density 19.361837999999999
#
# number of rings (size 3 to 8) (size 9 to 14) (size 15 to 20)
#    0.000    2.333    0.000    4.000    0.000    6.667 
#    0.000    1.667    0.000   10.000    0.000    0.000 
#    0.000    0.000    0.000    0.000    0.000    0.000 
#
# Total GULP energy -133801.378147 kJ/mol
# GULP energy per Si atom -5575.057423 kJ/mol
# Density = 1.931777 g / cm^3
# Si number density = 19.361838 Si / 1000 Ang^3
#
#
#
# Elastic Constant Matrix: (Units=GPa)
#
#
# Indices 1 2 3 4 5 6 
#
# 1 40.6891 20.4102 16.0157 0.0000 -11.7256 0.0000
# 2 20.4102 84.1062 12.6000 0.0000 3.6092 0.0000
# 3 16.0157 12.6000 49.5430 0.0000 -4.1614 0.0000
# 4 0.0000 0.0000 0.0000 26.7153 0.0000 -3.2253
# 5 -11.7256 3.6092 -4.1614 0.0000 12.6279 0.0000
# 6 0.0000 0.0000 0.0000 -3.2253 0.0000 43.4665
#
#
#
# Elastic Compliance Matrix: (Units=1/GPa)
#
#
# Indices 1 2 3 4 5 6 
#
# 1 0.046433 -0.011902 -0.008306 0.000000 0.043780 0.000000
# 2 -0.011902 0.015689 -0.001489 0.000000 -0.016026 0.000000
# 3 -0.008306 -0.001489 0.023280 0.000000 0.000385 0.000000
# 4 0.000000 0.000000 0.000000 0.037770 0.000000 0.002803
# 5 0.043780 -0.016026 0.000385 0.000000 0.124549 0.000000
# 6 0.000000 0.000000 0.000000 0.002803 0.000000 0.023214
#
#
# Mechanical properties :
#
#
# Convention : Reuss Voigt Hill
#
# Bulk Modulus (GPa) = 23.80474 30.26556 27.03515
# Shear Modulus (GPa) = 15.22852 24.91608 20.07230
#
# Velocity S-wave (km/s) = 2.80754 3.59118 3.22327
# Velocity P-wave (km/s) = 4.77819 5.73245 5.27693
#
# Compressibility (1/GPa) = 0.04200845
#
# Stress axis : x y z
#
# Youngs Moduli (GPa) = 21.53663 63.73967 42.95455
#
# Poissons Ratio (x) = 0.75865 0.35677
# Poissons Ratio (y) = 0.25633 0.06394
# Poissons Ratio (z) = 0.17888 0.09488
#
# Static dielectric constant tensor:
#      x y z
#    x 1.665500 0.000000 -0.005400 
#    y 0.000000 1.686570 0.000000 
#    z -0.005400 0.000000 1.699770 
# 
# From -- ./inp_files/152105.got.cif
#   From: 2010.05.17/outbox.cif.g08.bks.cpg/sg15_77_cif.got.tgz:152105.got - 2010.06.03 18:47:42.
