data_PCOD9269912
_publ_section_title
;
Structure prediction by ZEFSAII (Michael W. Deem and Ramdas Pophale) SiO2 
 PCOD9269912
Probable space group: C 2/C
;
_chemical_formula_sum "Si O2"
_cell_formula_units_Z 44
_cell_length_a 24.837849
_cell_length_b 16.839676
_cell_length_c 13.313728
_cell_angle_alpha 90.000000
_cell_angle_beta 19.646130
_cell_angle_gamma 90.000000
_cell_volume 1872.224529
_symmetry_space_group_name_H-M "C 2/C"
_symmetry_group_IT_number 15
_symmetry_cell_setting 'monoclinic'
loop_
_space_group_symop_operation_xyz
x,y,z
-x,y,1/2-z
-x,-y,-z
x,-y,1/2+z
1/2+x,1/2+y,z
1/2-x,1/2+y,1/2-z
1/2-x,1/2-y,-z
1/2+x,1/2-y,1/2+z
loop_
_atom_site_type_symbol
_atom_site_label
_atom_site_fract_x
_atom_site_fract_y
_atom_site_fract_z
Si Si1 0.443271 0.776110 0.734370
Si Si2 0.890598 0.562505 0.577479
Si Si3 0.167964 0.875218 0.287410
Si Si4 0.500000 0.287235 0.750000
Si Si5 0.275660 0.019229 0.988131
Si Si6 0.714525 0.303421 0.660223
O O1 0.500000 0.767846 0.750000
O O2 0.525730 0.854183 0.539812
O O3 0.533563 0.707127 0.517030
O O4 0.260060 0.802319 0.070836
O O5 0.789248 0.586404 0.658404
O O6 0.781572 0.529164 0.857624
O O7 0.042073 0.504685 0.300518
O O8 0.026079 0.841539 0.605416
O O9 0.158125 0.948852 0.229166
O O10 0.657749 0.233364 0.485121
O O11 0.242140 0.104524 0.093233
O O12 0.750000 0.250000 0.500000
#
# Coordination Sequence:
#
# PCOD9269912 Si02
#       6
#     8   8   8   4   8   8
#     4   9  16  37  63  78 122 169 197 247 324 363
#     4   9  17  36  61  87 117 161 209 244 304 379
#     4  10  21  40  61  87 122 171 211 252 313 388
#     4  12  24  40  64  92 128 168 212 258 330 368
#     4  10  20  34  66  90 115 161 212 252 307 378
#     4  12  23  40  64  97 126 157 212 270 313 368
#
# _framework density 23.501453999999999
#
# number of rings (size 3 to 8) (size 9 to 14) (size 15 to 20)
#    0.000    1.818    5.455    1.636    2.545    0.000 
#    1.636    4.545    0.000    0.000    0.000    0.000 
#    0.000    0.000    0.000    0.000    0.000    0.000 
#
# Total GULP energy -122910.523740 kJ/mol
# GULP energy per Si atom -5586.841988 kJ/mol
# Density = 2.344796 g / cm^3
# Si number density = 23.501454 Si / 1000 Ang^3
#
#
#
# Elastic Constant Matrix: (Units=GPa)
#
#
# Indices 1 2 3 4 5 6 
#
# 1 52.7506 10.7631 42.7371 0.0005 -0.7842 -0.0002
# 2 10.7631 149.5965 79.0259 0.0015 19.4599 -0.0005
# 3 42.7371 79.0259 144.5507 0.0016 16.5510 -0.0005
# 4 0.0005 0.0015 0.0016 60.2361 -0.0004 9.5400
# 5 -0.7842 19.4599 16.5510 -0.0004 50.6828 0.0000
# 6 -0.0002 -0.0005 -0.0005 9.5400 0.0000 26.3709
#
#
#
# Elastic Compliance Matrix: (Units=1/GPa)
#
#
# Indices 1 2 3 4 5 6 
#
# 1 0.026172 0.002862 -0.009581 0.000000 0.002435 0.000000
# 2 0.002862 0.009912 -0.006061 0.000000 -0.001782 0.000000
# 3 -0.009581 -0.006061 0.013313 0.000000 -0.002168 0.000000
# 4 0.000000 0.000000 0.000000 0.017610 0.000000 -0.006371
# 5 0.002435 -0.001782 -0.002168 0.000000 0.021161 0.000000
# 6 0.000000 0.000000 0.000000 -0.006371 0.000000 0.040225
#
#
# Mechanical properties :
#
#
# Convention : Reuss Voigt Hill
#
# Bulk Modulus (GPa) = 41.95410 67.99447 54.97428
# Shear Modulus (GPa) = 30.88337 41.74939 36.31638
#
# Velocity S-wave (km/s) = 3.62899 4.21938 3.93527
# Velocity P-wave (km/s) = 5.95398 7.26171 6.64012
#
# Compressibility (1/GPa) = 0.02383558
#
# Stress axis : x y z
#
# Youngs Moduli (GPa) = 38.20915 100.88319 75.11709
#
# Poissons Ratio (x) = -0.28868 0.71970
# Poissons Ratio (y) = -0.10934 0.45529
# Poissons Ratio (z) = 0.36608 0.61146
#
# Static dielectric constant tensor:
#      x y z
#    x 1.967030 0.000000 -0.052220 
#    y 0.000000 1.856700 0.000000 
#    z -0.052220 0.000000 1.931730 
# 
# From -- ./inp_files/182708.got.cif
#   From: 2010.05.17/outbox.cif.g08.bks.cpg/sg15_92_cif.got.tgz:182708.got - 2010.06.03 18:47:42.
