data_PCOD9269269
_publ_section_title
;
Structure prediction by ZEFSAII (Michael W. Deem and Ramdas Pophale) SiO2 
 PCOD9269269
Probable space group: C 2/C
;
_chemical_formula_sum "Si O2"
_cell_formula_units_Z 64
_cell_length_a 16.777103
_cell_length_b 14.628692
_cell_length_c 14.369786
_cell_angle_alpha 90.000000
_cell_angle_beta 69.168907
_cell_angle_gamma 90.000000
_cell_volume 3296.201859
_symmetry_space_group_name_H-M "C 2/C"
_symmetry_group_IT_number 15
_symmetry_cell_setting 'monoclinic'
loop_
_space_group_symop_operation_xyz
x,y,z
-x,y,1/2-z
-x,-y,-z
x,-y,1/2+z
1/2+x,1/2+y,z
1/2-x,1/2+y,1/2-z
1/2-x,1/2-y,-z
1/2+x,1/2-y,1/2+z
loop_
_atom_site_type_symbol
_atom_site_label
_atom_site_fract_x
_atom_site_fract_y
_atom_site_fract_z
Si Si1 0.651264 0.833778 0.478966
Si Si2 0.810397 0.832057 0.868777
Si Si3 0.752486 0.407669 0.226955
Si Si4 0.829781 0.873200 0.512417
Si Si5 0.724885 0.893009 0.732414
Si Si6 0.596615 0.478787 0.180135
Si Si7 0.806449 0.632310 0.904682
Si Si8 0.585284 0.052772 0.157269
O O1 0.679378 0.850298 0.361126
O O2 0.739641 0.861003 0.495265
O O3 0.631077 0.727852 0.501853
O O4 0.581772 0.896804 0.558911
O O5 0.751070 0.823363 0.801357
O O6 0.874818 0.915343 0.823389
O O7 0.848363 0.732778 0.876984
O O8 0.751153 0.863336 0.979512
O O9 0.787828 0.511195 0.210563
O O10 0.660610 0.416930 0.216468
O O11 0.750000 0.380402 0.335247
O O12 0.803071 0.901710 0.627151
O O13 0.885376 0.944499 0.432212
O O14 0.642861 0.881935 0.701130
O O15 0.500000 0.466817 0.250000
O O16 0.867357 0.544052 0.878761
O O17 0.500000 0.037332 0.250000
#
# Coordination Sequence:
#
# PCOD9269269 Si02
#       8
#     8   8   8   8   8   8   8   8
#     4   9  17  31  52  75 102 138 177 216 260 314
#     4  10  20  36  57  77 103 144 188 220 252 313
#     4   9  17  33  55  76 102 139 180 215 255 314
#     4   9  17  31  52  75 102 138 177 216 260 314
#     4   9  17  33  55  76 102 139 180 215 255 314
#     4  10  20  34  54  82 112 136 168 223 281 322
#     4  10  20  36  57  77 103 144 188 220 252 313
#     4  10  20  34  54  82 112 136 168 223 281 322
#
# _framework density 19.416285999999999
#
# number of rings (size 3 to 8) (size 9 to 14) (size 15 to 20)
#    0.000    2.500    0.000    4.500    0.000    2.000 
#    0.000   11.250    0.000    6.000    0.000    0.000 
#    0.000    0.000    0.000    0.000    0.000    0.000 
#
# Total GULP energy -178242.219614 kJ/mol
# GULP energy per Si atom -5570.069363 kJ/mol
# Density = 1.937209 g / cm^3
# Si number density = 19.416286 Si / 1000 Ang^3
#
#
#
# Elastic Constant Matrix: (Units=GPa)
#
#
# Indices 1 2 3 4 5 6 
#
# 1 23.3280 5.5216 32.0208 0.0000 -6.2149 0.0000
# 2 5.5216 84.1849 19.5344 0.0000 -11.0165 0.0000
# 3 32.0208 19.5344 109.7867 0.0000 5.8228 0.0000
# 4 0.0000 0.0000 0.0000 49.5291 0.0000 9.1315
# 5 -6.2149 -11.0165 5.8228 0.0000 24.1386 0.0000
# 6 0.0000 0.0000 0.0000 9.1315 0.0000 9.3060
#
#
#
# Elastic Compliance Matrix: (Units=1/GPa)
#
#
# Indices 1 2 3 4 5 6 
#
# 1 0.089871 0.005033 -0.028825 0.000000 0.032389 0.000000
# 2 0.005033 0.013684 -0.004358 0.000000 0.008592 0.000000
# 3 -0.028825 -0.004358 0.019034 0.000000 -0.014002 0.000000
# 4 0.000000 0.000000 0.000000 0.024649 0.000000 -0.024187
# 5 0.032389 0.008592 -0.014002 0.000000 0.057066 0.000000
# 6 0.000000 0.000000 0.000000 -0.024187 0.000000 0.131191
#
#
# Mechanical properties :
#
#
# Convention : Reuss Voigt Hill
#
# Bulk Modulus (GPa) = 15.08588 36.82812 25.95700
# Shear Modulus (GPa) = 12.08040 27.27625 19.67833
#
# Velocity S-wave (km/s) = 2.49706 3.75215 3.18700
# Velocity P-wave (km/s) = 4.01252 6.14657 5.19041
#
# Compressibility (1/GPa) = 0.06628715
#
# Stress axis : x y z
#
# Youngs Moduli (GPa) = 11.12702 73.07655 52.53748
#
# Poissons Ratio (x) = -0.36777 1.51442
# Poissons Ratio (y) = -0.05600 0.22898
# Poissons Ratio (z) = 0.32074 0.31850
#
# Static dielectric constant tensor:
#      x y z
#    x 1.695650 0.000000 0.038120 
#    y 0.000000 1.723680 0.000000 
#    z 0.038120 0.000000 1.699430 
# 
# From -- ./inp_files/162257.got.cif
#   From: 2010.05.17/outbox.cif.g08.bks.cpg/sg15_82_cif.got.tgz:162257.got - 2010.06.03 18:47:42.
