data_PCOD9269617
_publ_section_title
;
Structure prediction by ZEFSAII (Michael W. Deem and Ramdas Pophale) SiO2 
 PCOD9269617
Probable space group: C 2/C
;
_chemical_formula_sum "Si O2"
_cell_formula_units_Z 64
_cell_length_a 26.811420
_cell_length_b 15.802329
_cell_length_c 18.560939
_cell_angle_alpha 90.000000
_cell_angle_beta 154.856978
_cell_angle_gamma 90.000000
_cell_volume 3341.230242
_symmetry_space_group_name_H-M "C 2/C"
_symmetry_group_IT_number 15
_symmetry_cell_setting 'monoclinic'
loop_
_space_group_symop_operation_xyz
x,y,z
-x,y,1/2-z
-x,-y,-z
x,-y,1/2+z
1/2+x,1/2+y,z
1/2-x,1/2+y,1/2-z
1/2-x,1/2-y,-z
1/2+x,1/2-y,1/2+z
loop_
_atom_site_type_symbol
_atom_site_label
_atom_site_fract_x
_atom_site_fract_y
_atom_site_fract_z
Si Si1 0.726354 0.905786 0.369423
Si Si2 0.624952 0.653156 0.877120
Si Si3 0.877344 0.516159 0.379218
Si Si4 0.519383 0.189089 0.969735
Si Si5 0.327164 0.748811 0.703561
Si Si6 0.936244 0.135280 0.045539
Si Si7 0.266903 0.424220 0.197528
Si Si8 0.169898 0.974674 0.860327
O O1 0.613481 0.846440 0.206230
O O2 0.847182 0.867515 0.496508
O O3 0.734720 0.928191 0.464440
O O4 0.711183 0.990419 0.300517
O O5 0.500000 0.657941 0.750000
O O6 0.629556 0.720055 0.817845
O O7 0.641475 0.561199 0.864919
O O8 0.731406 0.678233 0.068650
O O9 0.891166 0.610887 0.426918
O O10 0.844932 0.453828 0.402308
O O11 0.000000 0.500000 0.500000
O O12 0.536407 0.267985 0.939258
O O13 0.563449 0.223379 0.104732
O O14 0.262022 0.666954 0.652696
O O15 0.055457 0.083854 0.211163
O O16 0.869224 0.090392 0.890464
O O17 0.294382 0.494906 0.172998
#
# Coordination Sequence:
#
# PCOD9269617 Si02
#       8
#     8   8   8   8   8   8   8   8
#     4  10  21  37  58  83 113 148 188 240 290 338
#     4  10  20  34  58  88 116 151 187 232 293 348
#     4   9  19  37  58  81 109 146 189 228 280 346
#     4  10  21  37  57  81 111 151 195 235 283 347
#     4   9  20  37  56  87 119 143 187 241 290 343
#     4  10  21  37  57  83 115 150 192 240 287 342
#     4   9  20  38  59  83 113 150 190 238 291 342
#     4  11  21  37  57  82 115 150 193 239 288 344
#
# _framework density 19.154623000000001
#
# number of rings (size 3 to 8) (size 9 to 14) (size 15 to 20)
#    0.000    2.250    0.000    2.250    0.000    6.500 
#    0.000    7.500    0.000    0.000    0.000    0.000 
#    0.000    0.000    0.000    0.000    0.000    0.000 
#
# Total GULP energy -178337.970239 kJ/mol
# GULP energy per Si atom -5573.061570 kJ/mol
# Density = 1.911103 g / cm^3
# Si number density = 19.154623 Si / 1000 Ang^3
#
#
#
# Elastic Constant Matrix: (Units=GPa)
#
#
# Indices 1 2 3 4 5 6 
#
# 1 95.2786 30.1452 38.1298 0.0000 7.0629 0.0000
# 2 30.1452 94.7260 46.8570 0.0000 4.3812 0.0000
# 3 38.1298 46.8570 59.8691 0.0000 7.4621 0.0000
# 4 0.0000 0.0000 0.0000 36.2116 0.0000 -3.6920
# 5 7.0629 4.3812 7.4621 0.0000 23.3129 0.0000
# 6 0.0000 0.0000 0.0000 -3.6920 0.0000 10.8500
#
#
#
# Elastic Compliance Matrix: (Units=1/GPa)
#
#
# Indices 1 2 3 4 5 6 
#
# 1 0.014134 -0.000111 -0.008732 0.000000 -0.001466 0.000000
# 2 -0.000111 0.017255 -0.013576 0.000000 0.001136 0.000000
# 3 -0.008732 -0.013576 0.033582 0.000000 -0.005552 0.000000
# 4 0.000000 0.000000 0.000000 0.028608 0.000000 0.009735
# 5 -0.001466 0.001136 -0.005552 0.000000 0.044903 0.000000
# 6 0.000000 0.000000 0.000000 0.009735 0.000000 0.095478
#
#
# Mechanical properties :
#
#
# Convention : Reuss Voigt Hill
#
# Bulk Modulus (GPa) = 49.66965 53.34864 51.50914
# Shear Modulus (GPa) = 17.51265 23.05768 20.28517
#
# Velocity S-wave (km/s) = 3.02698 3.47330 3.25779
# Velocity P-wave (km/s) = 6.18094 6.63303 6.41097
#
# Compressibility (1/GPa) = 0.02013302
#
# Stress axis : x y z
#
# Youngs Moduli (GPa) = 70.75219 57.95504 29.77801
#
# Poissons Ratio (x) = 0.00641 0.26003
# Poissons Ratio (y) = 0.00782 0.40426
# Poissons Ratio (z) = 0.61784 0.78678
#
# Static dielectric constant tensor:
#      x y z
#    x 1.666290 0.000000 -0.025280 
#    y 0.000000 1.693360 0.000000 
#    z -0.025280 0.000000 1.676750 
# 
# From -- ./inp_files/259466.got.cif
#   From: 2010.05.17/outbox.cif.g08.bks.cpg/sg15_130_cif.got.tgz:259466.got - 2010.06.03 18:47:42.
