data_PCOD9269027
_publ_section_title
;
Structure prediction by ZEFSAII (Michael W. Deem and Ramdas Pophale) SiO2 
 PCOD9269027
Probable space group: C 2/C
;
_chemical_formula_sum "Si O2"
_cell_formula_units_Z 40
_cell_length_a 9.252159
_cell_length_b 16.481838
_cell_length_c 13.693704
_cell_angle_alpha 90.000000
_cell_angle_beta 66.045401
_cell_angle_gamma 90.000000
_cell_volume 1908.327383
_symmetry_space_group_name_H-M "C 2/C"
_symmetry_group_IT_number 15
_symmetry_cell_setting 'monoclinic'
loop_
_space_group_symop_operation_xyz
x,y,z
-x,y,1/2-z
-x,-y,-z
x,-y,1/2+z
1/2+x,1/2+y,z
1/2-x,1/2+y,1/2-z
1/2-x,1/2-y,-z
1/2+x,1/2-y,1/2+z
loop_
_atom_site_type_symbol
_atom_site_label
_atom_site_fract_x
_atom_site_fract_y
_atom_site_fract_z
Si Si1 0.388501 0.941663 0.151518
Si Si2 0.336135 0.564019 0.603512
Si Si3 0.490975 0.125391 0.364605
Si Si4 0.319207 0.585365 0.977527
Si Si5 0.169960 0.665277 0.497637
O O1 0.296398 0.926849 0.277303
O O2 0.262806 0.950672 0.097652
O O3 0.507100 0.867984 0.092512
O O4 0.484333 0.026933 0.131356
O O5 0.499261 0.602615 0.596669
O O6 0.341920 0.470253 0.568909
O O7 0.293278 0.603797 0.511877
O O8 0.500000 0.147187 0.250000
O O9 0.316628 0.147549 0.451853
O O10 0.627109 0.161195 0.395659
O O11 0.250000 0.750000 0.500000
#
# Coordination Sequence:
#
# PCOD9269027 Si02
#       5
#     8   8   8   8   8
#     4  11  19  39  65  91 124 173 214 256 324 376
#     4  11  20  36  61  94 127 161 209 262 320 371
#     4  11  19  39  63  91 121 167 217 265 313 372
#     4  10  20  33  60  97 122 151 211 274 306 363
#     4  11  23  40  61  89 128 165 212 254 321 390
#
# _framework density 20.960764000000001
#
# number of rings (size 3 to 8) (size 9 to 14) (size 15 to 20)
#    0.000    1.200    6.000    2.400    0.000    0.000 
#    0.000   11.000    0.000    0.000    0.000    0.000 
#    0.000    0.000    0.000    0.000    0.000    0.000 
#
# Total GULP energy -111370.718339 kJ/mol
# GULP energy per Si atom -5568.535917 kJ/mol
# Density = 2.091306 g / cm^3
# Si number density = 20.960764 Si / 1000 Ang^3
#
#
#
# Elastic Constant Matrix: (Units=GPa)
#
#
# Indices 1 2 3 4 5 6 
#
# 1 166.0185 28.5258 46.8414 0.0000 12.1204 0.0000
# 2 28.5258 55.6534 24.6132 0.0000 0.0039 0.0000
# 3 46.8414 24.6132 90.7263 0.0000 27.8367 0.0000
# 4 0.0000 0.0000 0.0000 3.6763 0.0000 1.8493
# 5 12.1204 0.0039 27.8367 0.0000 38.8608 0.0000
# 6 0.0000 0.0000 0.0000 1.8493 0.0000 27.0981
#
#
#
# Elastic Compliance Matrix: (Units=1/GPa)
#
#
# Indices 1 2 3 4 5 6 
#
# 1 0.007314 -0.002369 -0.003119 0.000000 -0.000047 0.000000
# 2 -0.002369 0.022000 -0.006372 0.000000 0.005301 0.000000
# 3 -0.003119 -0.006372 0.018024 0.000000 -0.011937 0.000000
# 4 0.000000 0.000000 0.000000 0.281686 0.000000 -0.019223
# 5 -0.000047 0.005301 -0.011937 0.000000 0.034298 0.000000
# 6 0.000000 0.000000 0.000000 -0.019223 0.000000 0.038215
#
#
# Mechanical properties :
#
#
# Convention : Reuss Voigt Hill
#
# Bulk Modulus (GPa) = 42.34081 56.92876 49.63479
# Shear Modulus (GPa) = 11.54389 28.08822 19.81606
#
# Velocity S-wave (km/s) = 2.34933 3.66462 3.07805
# Velocity P-wave (km/s) = 5.25386 6.71748 6.03024
#
# Compressibility (1/GPa) = 0.02361788
#
# Stress axis : x y z
#
# Youngs Moduli (GPa) = 136.72451 45.45384 55.48270
#
# Poissons Ratio (x) = 0.10770 0.17305
# Poissons Ratio (y) = 0.32396 0.35351
# Poissons Ratio (z) = 0.42645 0.28961
#
# Static dielectric constant tensor:
#      x y z
#    x 1.820610 0.000000 -0.022410 
#    y 0.000000 1.846320 0.000000 
#    z -0.022410 0.000000 1.779420 
# 
# From -- ./inp_files/133099.got.cif
#   From: 2010.05.17/outbox.cif.g08.bks.cpg/sg15_67_cif.got.tgz:133099.got - 2010.06.03 18:47:42.
