data_PCOD9269753
_publ_section_title
;
Structure prediction by ZEFSAII (Michael W. Deem and Ramdas Pophale) SiO2 
 PCOD9269753
Probable space group: C 2/C
;
_chemical_formula_sum "Si O2"
_cell_formula_units_Z 48
_cell_length_a 25.382633
_cell_length_b 5.536398
_cell_length_c 16.881132
_cell_angle_alpha 90.000000
_cell_angle_beta 62.770216
_cell_angle_gamma 90.000000
_cell_volume 2109.378723
_symmetry_space_group_name_H-M "C 2/C"
_symmetry_group_IT_number 15
_symmetry_cell_setting 'monoclinic'
loop_
_space_group_symop_operation_xyz
x,y,z
-x,y,1/2-z
-x,-y,-z
x,-y,1/2+z
1/2+x,1/2+y,z
1/2-x,1/2+y,1/2-z
1/2-x,1/2-y,-z
1/2+x,1/2-y,1/2+z
loop_
_atom_site_type_symbol
_atom_site_label
_atom_site_fract_x
_atom_site_fract_y
_atom_site_fract_z
Si Si1 0.567845 0.518229 0.181688
Si Si2 0.247554 0.448309 0.931744
Si Si3 0.159714 0.745494 0.728466
Si Si4 0.945162 0.250041 0.467252
Si Si5 0.920997 0.751651 0.572639
Si Si6 0.655360 0.855015 0.592053
O O1 0.500000 0.499047 0.250000
O O2 0.610221 0.573331 0.226152
O O3 0.575144 0.721961 0.109528
O O4 0.592517 0.272044 0.128108
O O5 0.273591 0.343514 0.832210
O O6 0.295795 0.648966 0.921620
O O7 0.250000 0.250000 0.000000
O O8 0.181694 0.543692 0.991300
O O9 0.136135 0.708425 0.832400
O O10 0.155795 0.523755 0.669354
O O11 0.930701 0.505694 0.516517
O O12 0.016849 0.226592 0.421097
O O13 0.918481 0.012225 0.530105
#
# Coordination Sequence:
#
# PCOD9269753 Si02
#       6
#     8   8   8   8   8   8
#     4  11  22  35  55  90 125 158 206 256 312 367
#     4   8  16  34  54  89 111 144 195 262 307 357
#     4  10  20  34  60  89 114 157 214 258 300 371
#     4  10  23  39  55  83 127 169 196 248 310 368
#     4  10  22  39  58  82 124 167 208 241 302 376
#     4   9  19  32  58  87 116 149 195 258 309 357
#
# _framework density 22.755516
#
# number of rings (size 3 to 8) (size 9 to 14) (size 15 to 20)
#    0.000    2.333    1.667    0.000    7.000    2.000 
#    0.000    0.000    0.000    0.000   26.000    0.000 
#    0.000    0.000    0.000    0.000    0.000    0.000 
#
# Total GULP energy -133825.625927 kJ/mol
# GULP energy per Si atom -5576.067747 kJ/mol
# Density = 2.270372 g / cm^3
# Si number density = 22.755516 Si / 1000 Ang^3
#
#
#
# Elastic Constant Matrix: (Units=GPa)
#
#
# Indices 1 2 3 4 5 6 
#
# 1 24.7262 8.3427 21.2577 0.0058 -11.1323 0.0056
# 2 8.3427 107.4738 51.8905 0.0110 -18.1266 0.0481
# 3 21.2577 51.8905 163.1446 0.0020 -47.6613 0.0091
# 4 0.0058 0.0110 0.0020 29.1813 -0.0020 -11.7656
# 5 -11.1323 -18.1266 -47.6613 -0.0020 41.6087 0.0012
# 6 0.0056 0.0481 0.0091 -11.7656 0.0012 24.9278
#
#
#
# Elastic Compliance Matrix: (Units=1/GPa)
#
#
# Indices 1 2 3 4 5 6 
#
# 1 0.047463 -0.000552 -0.003561 -0.000015 0.008379 -0.000016
# 2 -0.000552 0.011038 -0.003122 -0.000015 0.001085 -0.000027
# 3 -0.003561 -0.003122 0.010387 0.000004 0.009585 0.000004
# 4 -0.000015 -0.000015 0.000004 0.042322 -0.000005 0.019976
# 5 0.008379 0.001085 0.009585 -0.000005 0.037727 -0.000012
# 6 -0.000016 -0.000027 0.000004 0.019976 -0.000012 0.049544
#
#
# Mechanical properties :
#
#
# Convention : Reuss Voigt Hill
#
# Bulk Modulus (GPa) = 18.37624 50.92515 34.65069
# Shear Modulus (GPa) = 21.63664 33.40049 27.51857
#
# Velocity S-wave (km/s) = 3.08690 3.83534 3.48129
# Velocity P-wave (km/s) = 4.56052 6.48390 5.60532
#
# Compressibility (1/GPa) = 0.05441811
#
# Stress axis : x y z
#
# Youngs Moduli (GPa) = 21.06901 90.59845 96.27818
#
# Poissons Ratio (x) = 0.04999 0.34285
# Poissons Ratio (y) = 0.01163 0.30057
# Poissons Ratio (z) = 0.07503 0.28283
#
# Static dielectric constant tensor:
#      x y z
#    x 1.854470 -0.000010 0.005100 
#    y -0.000010 1.927730 -0.000010 
#    z 0.005100 -0.000010 1.866990 
# 
# From -- ./inp_files/220850.got.cif
#   From: 2010.05.17/outbox.cif.g08.bks.cpg/sg15_111_cif.got.tgz:220850.got - 2010.06.03 18:47:42.
