data_PCOD9269994
_publ_section_title
;
Structure prediction by ZEFSAII (Michael W. Deem and Ramdas Pophale) SiO2 
 PCOD9269994
Probable space group: C 2/C
;
_chemical_formula_sum "Si O2"
_cell_formula_units_Z 64
_cell_length_a 20.216300
_cell_length_b 23.021249
_cell_length_c 8.753216
_cell_angle_alpha 90.000000
_cell_angle_beta 57.719252
_cell_angle_gamma 90.000000
_cell_volume 3444.146990
_symmetry_space_group_name_H-M "C 2/C"
_symmetry_group_IT_number 15
_symmetry_cell_setting 'monoclinic'
loop_
_space_group_symop_operation_xyz
x,y,z
-x,y,1/2-z
-x,-y,-z
x,-y,1/2+z
1/2+x,1/2+y,z
1/2-x,1/2+y,1/2-z
1/2-x,1/2-y,-z
1/2+x,1/2-y,1/2+z
loop_
_atom_site_type_symbol
_atom_site_label
_atom_site_fract_x
_atom_site_fract_y
_atom_site_fract_z
Si Si1 0.895471 0.348841 0.261326
Si Si2 0.458502 0.727808 0.136173
Si Si3 0.417126 0.970302 0.115090
Si Si4 0.648544 0.071180 0.123421
Si Si5 0.316283 0.708939 0.122325
Si Si6 0.141819 0.672025 0.345572
Si Si7 0.896108 0.801147 0.209300
Si Si8 0.240223 0.341224 0.305963
O O1 0.947694 0.297567 0.122340
O O2 0.927100 0.413043 0.204145
O O3 0.886640 0.332282 0.447099
O O4 0.810782 0.352022 0.282314
O O5 0.500000 0.720299 0.250000
O O6 0.369400 0.708235 0.209702
O O7 0.514511 0.693460 0.950238
O O8 0.351925 0.013887 0.268073
O O9 0.396535 0.949613 0.970517
O O10 0.500000 0.000000 0.000000
O O11 0.611482 0.120164 0.277740
O O12 0.718254 0.109053 0.956768
O O13 0.236695 0.672996 0.235043
O O14 0.289864 0.775689 0.115374
O O15 0.368595 0.688072 0.915617
O O16 0.117445 0.733157 0.306824
O O17 0.833436 0.835287 0.181665
#
# Coordination Sequence:
#
# PCOD9269994 Si02
#       8
#     8   8   8   8   8   8   8   8
#     4  10  23  37  52  84 114 162 194 236 278 335
#     4  11  23  33  51  83 121 150 187 224 285 350
#     4  11  25  39  56  79 116 152 201 242 287 320
#     4  11  21  39  56  78 104 151 194 248 274 337
#     4  10  20  35  53  81 109 153 186 237 287 346
#     4  11  20  35  59  75 111 147 203 235 287 335
#     4  11  19  35  55  82 111 149 190 239 283 355
#     4   9  19  35  57  78 108 147 200 230 289 328
#
# _framework density 18.582249999999998
#
# number of rings (size 3 to 8) (size 9 to 14) (size 15 to 20)
#    0.000    1.500    3.750    2.250    3.500    2.500 
#    2.250    0.000    0.000    0.000    0.000    0.000 
#    0.000   18.000    0.000    0.000    0.000    0.000 
#
# Total GULP energy -178264.545608 kJ/mol
# GULP energy per Si atom -5570.767050 kJ/mol
# Density = 1.853996 g / cm^3
# Si number density = 18.582250 Si / 1000 Ang^3
#
#
#
# Elastic Constant Matrix: (Units=GPa)
#
#
# Indices 1 2 3 4 5 6 
#
# 1 97.1377 23.4254 15.4685 0.0000 -0.9301 0.0000
# 2 23.4254 44.5000 16.1188 0.0000 0.1229 0.0000
# 3 15.4685 16.1188 53.3922 0.0000 -1.8006 0.0000
# 4 0.0000 0.0000 0.0000 16.1429 0.0000 4.4262
# 5 -0.9301 0.1229 -1.8006 0.0000 26.2210 0.0000
# 6 0.0000 0.0000 0.0000 4.4262 0.0000 26.0011
#
#
#
# Elastic Compliance Matrix: (Units=1/GPa)
#
#
# Indices 1 2 3 4 5 6 
#
# 1 0.011939 -0.005655 -0.001740 0.000000 0.000330 0.000000
# 2 -0.005655 0.027921 -0.006818 0.000000 -0.000800 0.000000
# 3 -0.001740 -0.006818 0.021340 0.000000 0.001436 0.000000
# 4 0.000000 0.000000 0.000000 0.064980 0.000000 -0.011061
# 5 0.000330 -0.000800 0.001436 0.000000 0.038251 0.000000
# 6 0.000000 0.000000 0.000000 -0.011061 0.000000 0.040343
#
#
# Mechanical properties :
#
#
# Convention : Reuss Voigt Hill
#
# Bulk Modulus (GPa) = 30.51294 33.89504 32.20399
# Shear Modulus (GPa) = 20.48136 23.00748 21.74442
#
# Velocity S-wave (km/s) = 3.32354 3.52254 3.42449
# Velocity P-wave (km/s) = 5.58427 5.90123 5.74494
#
# Compressibility (1/GPa) = 0.03277298
#
# Stress axis : x y z
#
# Youngs Moduli (GPa) = 83.76076 35.81590 46.86003
#
# Poissons Ratio (x) = 0.20255 0.08156
# Poissons Ratio (y) = 0.47369 0.31947
# Poissons Ratio (z) = 0.14578 0.24418
#
# Static dielectric constant tensor:
#      x y z
#    x 1.711900 0.000000 -0.000810 
#    y 0.000000 1.638590 0.000000 
#    z -0.000810 0.000000 1.702080 
# 
# From -- ./inp_files/57836.got.cif
#   From: 2010.05.17/outbox.cif.g08.bks.cpg/sg15_29_cif.got.tgz:57836.got - 2010.06.03 18:47:42.
