data_PCOD9269773
_publ_section_title
;
Structure prediction by ZEFSAII (Michael W. Deem and Ramdas Pophale) SiO2 
 PCOD9269773
Probable space group: C 2/C
;
_chemical_formula_sum "Si O2"
_cell_formula_units_Z 44
_cell_length_a 8.288994
_cell_length_b 30.164629
_cell_length_c 12.199051
_cell_angle_alpha 90.000000
_cell_angle_beta 37.988633
_cell_angle_gamma 90.000000
_cell_volume 1877.403125
_symmetry_space_group_name_H-M "C 2/C"
_symmetry_group_IT_number 15
_symmetry_cell_setting 'monoclinic'
loop_
_space_group_symop_operation_xyz
x,y,z
-x,y,1/2-z
-x,-y,-z
x,-y,1/2+z
1/2+x,1/2+y,z
1/2-x,1/2+y,1/2-z
1/2-x,1/2-y,-z
1/2+x,1/2-y,1/2+z
loop_
_atom_site_type_symbol
_atom_site_label
_atom_site_fract_x
_atom_site_fract_y
_atom_site_fract_z
Si Si1 0.347946 0.300140 0.943441
Si Si2 0.000000 0.741082 0.250000
Si Si3 0.076154 0.550993 0.965583
Si Si4 0.437860 0.688882 0.933920
Si Si5 0.053673 0.913766 0.063290
Si Si6 0.220715 0.397385 0.043355
O O1 0.500000 0.305889 0.750000
O O2 0.250000 0.250000 0.000000
O O3 0.517972 0.304946 0.961531
O O4 0.176300 0.344830 0.046315
O O5 0.874169 0.778508 0.235648
O O6 0.852370 0.709694 0.415527
O O7 0.178471 0.566153 0.030796
O O8 0.323028 0.560984 0.752363
O O9 0.838297 0.578535 0.038796
O O10 0.000000 0.500000 0.000000
O O11 0.456834 0.637935 0.895891
O O12 0.983394 0.910883 0.970881
O O13 0.000000 0.410266 0.250000
#
# Coordination Sequence:
#
# PCOD9269773 Si02
#       6
#     8   4   8   8   8   8
#     4  11  22  36  57  88 126 167 210 254 304 374
#     4  10  20  34  60  92 126 164 224 248 302 390
#     4  10  20  37  65  91 112 159 205 260 329 383
#     4  10  21  37  59  91 128 173 208 265 316 371
#     4   9  20  39  61  88 126 157 206 259 321 383
#     4   9  20  39  62  87 123 162 204 256 320 376
#
# _framework density 23.436627999999999
#
# number of rings (size 3 to 8) (size 9 to 14) (size 15 to 20)
#    0.000    2.182    0.000    2.727    0.000    8.000 
#    3.273    0.000   14.000    0.000    0.000    0.000 
#    0.000    0.000    0.000    0.000    0.000    0.000 
#
# Total GULP energy -122548.268795 kJ/mol
# GULP energy per Si atom -5570.375854 kJ/mol
# Density = 2.338329 g / cm^3
# Si number density = 23.436628 Si / 1000 Ang^3
#
#
#
# Elastic Constant Matrix: (Units=GPa)
#
#
# Indices 1 2 3 4 5 6 
#
# 1 158.0228 78.5983 20.8116 0.0000 24.7445 0.0000
# 2 78.5983 188.4986 23.1226 0.0000 -3.1741 0.0000
# 3 20.8116 23.1226 80.5172 0.0000 22.8458 0.0000
# 4 0.0000 0.0000 0.0000 20.2285 0.0000 -2.8220
# 5 24.7445 -3.1741 22.8458 0.0000 25.0745 0.0000
# 6 0.0000 0.0000 0.0000 -2.8220 0.0000 27.9500
#
#
#
# Elastic Compliance Matrix: (Units=1/GPa)
#
#
# Indices 1 2 3 4 5 6 
#
# 1 0.010520 -0.004909 0.002444 0.000000 -0.013230 0.000000
# 2 -0.004909 0.007948 -0.003606 0.000000 0.009136 0.000000
# 3 0.002444 -0.003606 0.018392 0.000000 -0.019626 0.000000
# 4 0.000000 0.000000 0.000000 0.050141 0.000000 0.005062
# 5 -0.013230 0.009136 -0.019626 0.000000 0.071974 0.000000
# 6 0.000000 0.000000 0.000000 0.005062 0.000000 0.036289
#
#
# Mechanical properties :
#
#
# Convention : Reuss Voigt Hill
#
# Bulk Modulus (GPa) = 40.45479 74.67819 57.56649
# Shear Modulus (GPa) = 23.18624 34.95102 29.06863
#
# Velocity S-wave (km/s) = 3.14875 3.86592 3.52562
# Velocity P-wave (km/s) = 5.52434 7.20140 6.41789
#
# Compressibility (1/GPa) = 0.02471895
#
# Stress axis : x y z
#
# Youngs Moduli (GPa) = 95.06147 125.81591 54.37147
#
# Poissons Ratio (x) = 0.61762 -0.13291
# Poissons Ratio (y) = 0.46665 0.19605
# Poissons Ratio (z) = -0.23237 0.45367
#
# Static dielectric constant tensor:
#      x y z
#    x 2.081960 0.000000 -0.126870 
#    y 0.000000 1.506610 0.000000 
#    z -0.126870 0.000000 2.037050 
# 
# From -- ./inp_files/81087.got.cif
#   From: 2010.05.17/outbox.cif.g08.bks.cpg/sg15_41_cif.got.tgz:81087.got - 2010.06.03 18:47:42.
