data_PCOD9269139
_publ_section_title
;
Structure prediction by ZEFSAII (Michael W. Deem and Ramdas Pophale) SiO2 
 PCOD9269139
Probable space group: C 2/C
;
_chemical_formula_sum "Si O2"
_cell_formula_units_Z 36
_cell_length_a 13.477617
_cell_length_b 13.553150
_cell_length_c 10.009001
_cell_angle_alpha 90.000000
_cell_angle_beta 136.797118
_cell_angle_gamma 90.000000
_cell_volume 1251.614796
_symmetry_space_group_name_H-M "C 2/C"
_symmetry_group_IT_number 15
_symmetry_cell_setting 'monoclinic'
loop_
_space_group_symop_operation_xyz
x,y,z
-x,y,1/2-z
-x,-y,-z
x,-y,1/2+z
1/2+x,1/2+y,z
1/2-x,1/2+y,1/2-z
1/2-x,1/2-y,-z
1/2+x,1/2-y,1/2+z
loop_
_atom_site_type_symbol
_atom_site_label
_atom_site_fract_x
_atom_site_fract_y
_atom_site_fract_z
Si Si1 0.500000 0.375821 0.750000
Si Si2 0.800986 0.019652 0.436037
Si Si3 0.000000 0.487875 0.750000
Si Si4 0.439218 0.825941 0.467978
Si Si5 0.000000 0.831762 0.250000
Si Si6 0.234179 0.683382 0.150378
O O1 0.433569 0.443664 0.566162
O O2 0.644472 0.322183 0.844396
O O3 0.651450 0.970759 0.340232
O O4 0.858842 0.099733 0.600945
O O5 0.770342 0.087182 0.278438
O O6 0.052502 0.420515 0.928201
O O7 0.498247 0.738990 0.622048
O O8 0.284731 0.784558 0.272234
O O9 0.561456 0.827662 0.471978
#
# Coordination Sequence:
#
# PCOD9269139 Si02
#       6
#     4   8   4   8   4   8
#     4  11  22  35  48  67 102 141 164 186 234 297
#     4   9  18  33  51  73  97 128 165 198 238 284
#     4   9  16  31  56  79  96 115 158 216 246 271
#     4   9  17  31  52  79  98 120 158 203 253 282
#     4   8  14  28  54  76  98 122 154 206 246 284
#     4  10  20  34  52  72  98 128 163 203 239 286
#
# _framework density 28.762843
#
# number of rings (size 3 to 8) (size 9 to 14) (size 15 to 20)
#    0.000    2.667    0.000    2.000    0.000    6.222 
#    0.000    6.667    0.000    0.000    0.000    0.000 
#    0.000    0.000    0.000    0.000    0.000    0.000 
#
# Total GULP energy -100729.401483 kJ/mol
# GULP energy per Si atom -5596.077860 kJ/mol
# Density = 2.869738 g / cm^3
# Si number density = 28.762843 Si / 1000 Ang^3
#
#
#
# Elastic Constant Matrix: (Units=GPa)
#
#
# Indices 1 2 3 4 5 6 
#
# 1 142.9358 19.8349 27.1875 0.0000 38.2634 0.0000
# 2 19.8349 58.9196 47.7734 0.0000 11.8227 0.0000
# 3 27.1875 47.7734 112.0627 0.0000 34.6532 0.0000
# 4 0.0000 0.0000 0.0000 61.6639 0.0000 4.0419
# 5 38.2634 11.8227 34.6532 0.0000 56.2329 0.0000
# 6 0.0000 0.0000 0.0000 4.0419 0.0000 33.3047
#
#
#
# Elastic Compliance Matrix: (Units=1/GPa)
#
#
# Indices 1 2 3 4 5 6 
#
# 1 0.008768 -0.002327 0.000690 0.000000 -0.005902 0.000000
# 2 -0.002327 0.026685 -0.011818 0.000000 0.003256 0.000000
# 3 0.000690 -0.011818 0.016272 0.000000 -0.008012 0.000000
# 4 0.000000 0.000000 0.000000 0.016347 0.000000 -0.001984
# 5 -0.005902 0.003256 -0.008012 0.000000 0.026052 0.000000
# 6 0.000000 0.000000 0.000000 -0.001984 0.000000 0.030267
#
#
# Mechanical properties :
#
#
# Convention : Reuss Voigt Hill
#
# Bulk Modulus (GPa) = 40.29931 55.94551 48.12241
# Shear Modulus (GPa) = 31.33382 44.84843 38.09113
#
# Velocity S-wave (km/s) = 3.30416 3.95302 3.64306
# Velocity P-wave (km/s) = 5.34771 6.35043 5.87052
#
# Compressibility (1/GPa) = 0.02481432
#
# Stress axis : x y z
#
# Youngs Moduli (GPa) = 114.05479 37.47452 61.45488
#
# Poissons Ratio (x) = 0.08719 -0.04239
# Poissons Ratio (y) = 0.26536 0.72629
# Poissons Ratio (z) = -0.07867 0.44288
#
# Static dielectric constant tensor:
#      x y z
#    x 2.196110 0.000000 -0.105760 
#    y 0.000000 2.312360 0.000000 
#    z -0.105760 0.000000 2.198570 
# 
# From -- ./inp_files/28758.got.cif
#   From: 2010.05.17/outbox.cif.g08.bks.cpg/sg15_15_cif.got.tgz:28758.got - 2010.06.03 18:47:42.
