data_PCOD9269817
_publ_section_title
;
Structure prediction by ZEFSAII (Michael W. Deem and Ramdas Pophale) SiO2 
 PCOD9269817
Probable space group: C 2/C
;
_chemical_formula_sum "Si O2"
_cell_formula_units_Z 40
_cell_length_a 4.848838
_cell_length_b 21.282821
_cell_length_c 19.655485
_cell_angle_alpha 90.000000
_cell_angle_beta 112.949877
_cell_angle_gamma 90.000000
_cell_volume 1867.831895
_symmetry_space_group_name_H-M "C 2/C"
_symmetry_group_IT_number 15
_symmetry_cell_setting 'monoclinic'
loop_
_space_group_symop_operation_xyz
x,y,z
-x,y,1/2-z
-x,-y,-z
x,-y,1/2+z
1/2+x,1/2+y,z
1/2-x,1/2+y,1/2-z
1/2-x,1/2-y,-z
1/2+x,1/2-y,1/2+z
loop_
_atom_site_type_symbol
_atom_site_label
_atom_site_fract_x
_atom_site_fract_y
_atom_site_fract_z
Si Si1 0.322865 0.384779 0.941449
Si Si2 0.722650 0.753837 0.079539
Si Si3 0.335530 0.942403 0.298943
Si Si4 0.801418 0.465954 0.923474
Si Si5 0.771287 0.162479 0.898689
O O1 0.318914 0.318181 0.902532
O O2 0.984502 0.402789 0.925043
O O3 0.480729 0.442869 0.918833
O O4 0.508605 0.375528 0.029411
O O5 0.439458 0.793792 0.075421
O O6 0.020172 0.792876 0.127594
O O7 0.750000 0.750000 0.000000
O O8 0.500000 0.973493 0.250000
O O9 0.556120 0.885769 0.340190
O O10 0.000000 0.920197 0.250000
O O11 0.295487 0.989409 0.358048
O O12 0.000000 0.500000 0.000000
#
# Coordination Sequence:
#
# PCOD9269817 Si02
#       5
#     8   8   8   8   8
#     4  11  21  37  64  98 129 161 208 273 327 366
#     4  10  20  34  61  97 128 156 199 262 330 381
#     4  12  27  43  63  92 134 177 219 265 333 398
#     4  12  24  39  66  93 133 169 218 270 318 385
#     4  11  21  38  63  92 133 160 208 269 326 385
#
# _framework density 21.415201
#
# number of rings (size 3 to 8) (size 9 to 14) (size 15 to 20)
#    0.000    0.800    2.000    9.000    2.800    0.000 
#    0.000    0.000    0.000   18.000    0.000    0.000 
#    0.000    0.000    0.000    0.000    0.000    0.000 
#
# Total GULP energy -111852.236573 kJ/mol
# GULP energy per Si atom -5592.611829 kJ/mol
# Density = 2.136646 g / cm^3
# Si number density = 21.415201 Si / 1000 Ang^3
#
#
#
# Elastic Constant Matrix: (Units=GPa)
#
#
# Indices 1 2 3 4 5 6 
#
# 1 86.4399 5.8748 14.8763 0.0000 11.9129 0.0000
# 2 5.8748 82.8947 33.0051 0.0000 6.3894 0.0000
# 3 14.8763 33.0051 69.2142 0.0000 7.7604 0.0000
# 4 0.0000 0.0000 0.0000 14.6565 0.0000 -0.3839
# 5 11.9129 6.3894 7.7604 0.0000 36.8884 0.0000
# 6 0.0000 0.0000 0.0000 -0.3839 0.0000 56.5513
#
#
#
# Elastic Compliance Matrix: (Units=1/GPa)
#
#
# Indices 1 2 3 4 5 6 
#
# 1 0.012458 0.000369 -0.002453 0.000000 -0.003571 0.000000
# 2 0.000369 0.014946 -0.007070 0.000000 -0.001221 0.000000
# 3 -0.002453 -0.007070 0.018558 0.000000 -0.001887 0.000000
# 4 0.000000 0.000000 0.000000 0.068241 0.000000 0.000463
# 5 -0.003571 -0.001221 -0.001887 0.000000 0.028871 0.000000
# 6 0.000000 0.000000 0.000000 0.000463 0.000000 0.017686
#
#
# Mechanical properties :
#
#
# Convention : Reuss Voigt Hill
#
# Bulk Modulus (GPa) = 36.16019 38.45123 37.30571
# Shear Modulus (GPa) = 26.55534 33.93875 30.24704
#
# Velocity S-wave (km/s) = 3.52522 3.98527 3.76228
# Velocity P-wave (km/s) = 5.78718 6.25864 6.02752
#
# Compressibility (1/GPa) = 0.02765472
#
# Stress axis : x y z
#
# Youngs Moduli (GPa) = 80.26964 66.90632 53.88514
#
# Poissons Ratio (x) = -0.02470 0.13219
# Poissons Ratio (y) = -0.02963 0.38095
# Poissons Ratio (z) = 0.19692 0.47300
#
# Static dielectric constant tensor:
#      x y z
#    x 1.763720 0.000000 -0.011290 
#    y 0.000000 1.831060 0.000000 
#    z -0.011290 0.000000 1.797370 
# 
# From -- ./inp_files/185399.got.cif
#   From: 2010.05.17/outbox.cif.g08.bks.cpg/sg15_93_cif.got.tgz:185399.got - 2010.06.03 18:47:42.
