data_PCOD9269638
_publ_section_title
;
Structure prediction by ZEFSAII (Michael W. Deem and Ramdas Pophale) SiO2 
 PCOD9269638
Probable space group: C 2/C
;
_chemical_formula_sum "Si O2"
_cell_formula_units_Z 48
_cell_length_a 13.005786
_cell_length_b 16.049092
_cell_length_c 26.138980
_cell_angle_alpha 90.000000
_cell_angle_beta 155.088894
_cell_angle_gamma 90.000000
_cell_volume 2298.137736
_symmetry_space_group_name_H-M "C 2/C"
_symmetry_group_IT_number 15
_symmetry_cell_setting 'monoclinic'
loop_
_space_group_symop_operation_xyz
x,y,z
-x,y,1/2-z
-x,-y,-z
x,-y,1/2+z
1/2+x,1/2+y,z
1/2-x,1/2+y,1/2-z
1/2-x,1/2-y,-z
1/2+x,1/2-y,1/2+z
loop_
_atom_site_type_symbol
_atom_site_label
_atom_site_fract_x
_atom_site_fract_y
_atom_site_fract_z
Si Si1 0.294767 0.864500 0.274659
Si Si2 0.499569 0.285875 0.590350
Si Si3 0.753134 0.763692 0.107223
Si Si4 0.079660 0.106533 0.977355
Si Si5 0.777124 0.928281 0.442940
Si Si6 0.774528 0.554346 0.877331
O O1 0.296660 0.764619 0.286208
O O2 0.057282 0.892238 0.137820
O O3 0.522556 0.885404 0.340999
O O4 0.327638 0.910858 0.343858
O O5 0.534395 0.253162 0.548507
O O6 0.471596 0.384693 0.570204
O O7 0.250000 0.250000 0.500000
O O8 0.753502 0.862638 0.099787
O O9 0.000000 0.743610 0.250000
O O10 0.711110 0.694605 0.045639
O O11 0.881676 0.089454 0.933673
O O12 0.249462 0.026073 0.059421
O O13 0.500000 0.515482 0.750000
O O14 0.000000 0.500000 0.000000
#
# Coordination Sequence:
#
# PCOD9269638 Si02
#       6
#     8   8   8   8   8   8
#     4  10  20  36  59  84 123 157 211 257 307 376
#     4   8  16  34  54  77 111 158 189 239 295 354
#     4   9  19  38  59  81 120 159 197 255 321 366
#     4  10  20  34  58  91 122 156 202 247 317 384
#     4   9  19  34  56  85 125 157 194 249 313 368
#     4  10  23  44  66  87 122 165 215 271 313 368
#
# _framework density 20.886475999999998
#
# number of rings (size 3 to 8) (size 9 to 14) (size 15 to 20)
#    0.000    2.667    0.000    0.500    2.333    4.000 
#    3.000   12.500    0.000    0.000    0.000    0.000 
#    0.000    0.000    0.000    0.000    0.000    0.000 
#
# Total GULP energy -133613.275686 kJ/mol
# GULP energy per Si atom -5567.219820 kJ/mol
# Density = 2.083894 g / cm^3
# Si number density = 20.886476 Si / 1000 Ang^3
#
#
#
# Elastic Constant Matrix: (Units=GPa)
#
#
# Indices 1 2 3 4 5 6 
#
# 1 58.4415 23.7955 17.8417 0.0024 5.7343 0.0001
# 2 23.7955 97.3077 50.4976 0.0050 -24.7379 -0.0008
# 3 17.8417 50.4976 86.1332 0.0109 -14.0197 -0.0021
# 4 0.0024 0.0050 0.0109 30.5883 0.0012 -1.9898
# 5 5.7343 -24.7379 -14.0197 0.0012 29.2077 0.0010
# 6 0.0001 -0.0008 -0.0021 -1.9898 0.0010 24.5387
#
#
#
# Elastic Compliance Matrix: (Units=1/GPa)
#
#
# Indices 1 2 3 4 5 6 
#
# 1 0.021766 -0.007046 -0.002218 0.000001 -0.011306 0.000000
# 2 -0.007046 0.019651 -0.007731 -0.000001 0.014316 -0.000001
# 3 -0.002218 -0.007731 0.016930 -0.000005 0.002014 0.000001
# 4 0.000001 -0.000001 -0.000005 0.032866 -0.000004 0.002665
# 5 -0.011306 0.014316 0.002014 -0.000004 0.049549 -0.000002
# 6 0.000000 -0.000001 0.000001 0.002665 -0.000002 0.040968
#
#
# Mechanical properties :
#
#
# Convention : Reuss Voigt Hill
#
# Bulk Modulus (GPa) = 41.05593 47.35022 44.20308
# Shear Modulus (GPa) = 22.33741 26.85010 24.59376
#
# Velocity S-wave (km/s) = 3.27382 3.58931 3.43519
# Velocity P-wave (km/s) = 5.83009 6.31641 6.07811
#
# Compressibility (1/GPa) = 0.02435702
#
# Stress axis : x y z
#
# Youngs Moduli (GPa) = 45.94234 50.88723 59.06728
#
# Poissons Ratio (x) = 0.35854 0.13102
# Poissons Ratio (y) = 0.32370 0.45667
# Poissons Ratio (z) = 0.10191 0.39343
#
# Static dielectric constant tensor:
#      x y z
#    x 1.790230 0.000000 0.028570 
#    y 0.000000 1.792880 0.000000 
#    z 0.028570 0.000000 1.772650 
# 
# From -- ./inp_files/314126.got.cif
#   From: 2010.05.17/outbox.cif.g08.bks.cpg/sg15_158_cif.got.tgz:314126.got - 2010.06.03 18:47:42.
