data_PCOD9269629
_publ_section_title
;
Structure prediction by ZEFSAII (Michael W. Deem and Ramdas Pophale) SiO2 
 PCOD9269629
Probable space group: C 2/C
;
_chemical_formula_sum "Si O2"
_cell_formula_units_Z 56
_cell_length_a 12.164441
_cell_length_b 21.339372
_cell_length_c 10.979733
_cell_angle_alpha 90.000000
_cell_angle_beta 82.912910
_cell_angle_gamma 90.000000
_cell_volume 2828.360195
_symmetry_space_group_name_H-M "C 2/C"
_symmetry_group_IT_number 15
_symmetry_cell_setting 'monoclinic'
loop_
_space_group_symop_operation_xyz
x,y,z
-x,y,1/2-z
-x,-y,-z
x,-y,1/2+z
1/2+x,1/2+y,z
1/2-x,1/2+y,1/2-z
1/2-x,1/2-y,-z
1/2+x,1/2-y,1/2+z
loop_
_atom_site_type_symbol
_atom_site_label
_atom_site_fract_x
_atom_site_fract_y
_atom_site_fract_z
Si Si1 0.931886 0.493412 0.133514
Si Si2 0.249432 0.894462 0.173213
Si Si3 0.373924 0.480231 0.119170
Si Si4 0.081681 0.815916 0.623904
Si Si5 0.115872 0.673963 0.661795
Si Si6 0.927639 0.100003 0.997899
Si Si7 0.775926 0.410745 0.554490
O O1 0.862291 0.430027 0.127429
O O2 0.846531 0.551721 0.143316
O O3 0.000000 0.492014 0.250000
O O4 0.000000 0.500000 0.000000
O O5 0.183190 0.946332 0.260643
O O6 0.284633 0.837295 0.255206
O O7 0.175231 0.878421 0.068143
O O8 0.388066 0.554988 0.114253
O O9 0.493216 0.447712 0.087266
O O10 0.297590 0.460368 0.013770
O O11 0.115273 0.743674 0.608009
O O12 0.189637 0.859709 0.616079
O O13 0.000000 0.820703 0.750000
O O14 0.006803 0.843666 0.525815
O O15 0.142056 0.623634 0.552882
O O16 0.000000 0.665788 0.750000
#
# Coordination Sequence:
#
# PCOD9269629 Si02
#       7
#     8   8   8   8   8   8   8
#     4  12  25  39  59  92 124 163 206 256 319 380
#     4  11  21  36  61  85 120 160 199 250 317 373
#     4   9  19  34  55  90 124 149 185 253 326 373
#     4  10  23  38  60  86 119 163 207 257 312 373
#     4  10  21  42  60  81 119 171 212 250 307 373
#     4  10  20  34  58  90 118 151 198 252 309 378
#     4  10  20  39  60  87 119 162 201 258 314 371
#
# _framework density 19.799455999999999
#
# number of rings (size 3 to 8) (size 9 to 14) (size 15 to 20)
#    0.000    1.714    1.429    3.857    2.000    0.000 
#    0.000    4.286    0.000    0.000    0.000    0.000 
#    0.000    0.000    0.000    0.000    0.000    0.000 
#
# Total GULP energy -156339.744526 kJ/mol
# GULP energy per Si atom -5583.562305 kJ/mol
# Density = 1.975439 g / cm^3
# Si number density = 19.799456 Si / 1000 Ang^3
#
#
#
# Elastic Constant Matrix: (Units=GPa)
#
#
# Indices 1 2 3 4 5 6 
#
# 1 105.8916 48.1697 37.4040 0.0000 22.9853 0.0000
# 2 48.1697 118.0857 20.7055 0.0000 24.0184 0.0000
# 3 37.4040 20.7055 50.2881 0.0000 15.1969 0.0000
# 4 0.0000 0.0000 0.0000 17.1687 0.0000 -5.0759
# 5 22.9853 24.0184 15.1969 0.0000 47.9013 0.0000
# 6 0.0000 0.0000 0.0000 -5.0759 0.0000 22.8451
#
#
#
# Elastic Compliance Matrix: (Units=1/GPa)
#
#
# Indices 1 2 3 4 5 6 
#
# 1 0.014866 -0.004067 -0.008675 0.000000 -0.002342 0.000000
# 2 -0.004067 0.010890 -0.000441 0.000000 -0.003369 0.000000
# 3 -0.008675 -0.000441 0.027866 0.000000 -0.004457 0.000000
# 4 0.000000 0.000000 0.000000 0.062341 0.000000 0.013851
# 5 -0.002342 -0.003369 -0.004457 0.000000 0.025103 0.000000
# 6 0.000000 0.000000 0.000000 0.013851 0.000000 0.046851
#
#
# Mechanical properties :
#
#
# Convention : Reuss Voigt Hill
#
# Bulk Modulus (GPa) = 36.68788 54.09153 45.38971
# Shear Modulus (GPa) = 22.38451 28.78210 25.58331
#
# Velocity S-wave (km/s) = 3.36603 3.81685 3.59851
# Velocity P-wave (km/s) = 5.80318 6.84131 6.34351
#
# Compressibility (1/GPa) = 0.02725696
#
# Stress axis : x y z
#
# Youngs Moduli (GPa) = 67.26615 91.82819 35.88557
#
# Poissons Ratio (x) = 0.37344 0.31132
# Poissons Ratio (y) = 0.27356 0.01582
# Poissons Ratio (z) = 0.58355 0.04048
#
# Static dielectric constant tensor:
#      x y z
#    x 1.738910 0.000000 -0.047770 
#    y 0.000000 1.697050 0.000000 
#    z -0.047770 0.000000 1.762710 
# 
# From -- ./inp_files/88973.got.cif
#   From: 2010.05.17/outbox.cif.g08.bks.cpg/sg15_45_cif.got.tgz:88973.got - 2010.06.03 18:47:42.
