data_PCOD9269872
_publ_section_title
;
Structure prediction by ZEFSAII (Michael W. Deem and Ramdas Pophale) SiO2 
 PCOD9269872
Probable space group: C 2/C
;
_chemical_formula_sum "Si O2"
_cell_formula_units_Z 44
_cell_length_a 22.894336
_cell_length_b 6.392524
_cell_length_c 22.654905
_cell_angle_alpha 90.000000
_cell_angle_beta 40.912434
_cell_angle_gamma 90.000000
_cell_volume 2171.405121
_symmetry_space_group_name_H-M "C 2/C"
_symmetry_group_IT_number 15
_symmetry_cell_setting 'monoclinic'
loop_
_space_group_symop_operation_xyz
x,y,z
-x,y,1/2-z
-x,-y,-z
x,-y,1/2+z
1/2+x,1/2+y,z
1/2-x,1/2+y,1/2-z
1/2-x,1/2-y,-z
1/2+x,1/2-y,1/2+z
loop_
_atom_site_type_symbol
_atom_site_label
_atom_site_fract_x
_atom_site_fract_y
_atom_site_fract_z
Si Si1 0.466545 0.554236 0.960710
Si Si2 0.410220 0.172564 0.220775
Si Si3 0.464894 0.202062 0.868533
Si Si4 0.000000 0.947115 0.250000
Si Si5 0.270561 0.724527 0.090631
Si Si6 0.216190 0.477735 0.013409
O O1 0.537748 0.700940 0.870674
O O2 0.454719 0.331433 0.936394
O O3 0.500000 0.500000 0.000000
O O4 0.370772 0.670348 0.032980
O O5 0.437519 0.298757 0.259203
O O6 0.303166 0.177643 0.303880
O O7 0.445235 0.934508 0.198887
O O8 0.455285 0.390119 0.829056
O O9 0.390776 0.030875 0.908722
O O10 0.250599 0.602181 0.044232
O O11 0.258463 0.954941 0.072359
O O12 0.250000 0.250000 0.000000
#
# Coordination Sequence:
#
# PCOD9269872 Si02
#       6
#     8   8   8   4   8   8
#     4  11  26  48  62  90 134 175 224 274 316 386
#     4  11  23  41  64  97 128 170 220 268 331 396
#     4  11  21  40  65  92 130 172 206 268 335 388
#     4  10  20  34  64 100 136 154 202 274 330 402
#     4  11  23  40  65  96 133 166 214 275 325 395
#     4  11  20  36  65 100 131 164 207 266 345 393
#
# _framework density 20.263376000000001
#
# number of rings (size 3 to 8) (size 9 to 14) (size 15 to 20)
#    0.000    1.091    3.636    3.818    5.091    2.182 
#    3.273    0.000    0.000    0.000    0.000    0.000 
#    0.000    0.000    0.000    0.000    0.000    0.000 
#
# Total GULP energy -122684.742237 kJ/mol
# GULP energy per Si atom -5576.579193 kJ/mol
# Density = 2.021726 g / cm^3
# Si number density = 20.263376 Si / 1000 Ang^3
#
#
#
# Elastic Constant Matrix: (Units=GPa)
#
#
# Indices 1 2 3 4 5 6 
#
# 1 119.7900 21.6669 57.3399 0.0005 9.7009 0.0007
# 2 21.6669 53.2868 13.5042 0.0110 0.7976 -0.0171
# 3 57.3399 13.5042 119.1583 -0.0017 -21.1193 -0.0002
# 4 0.0005 0.0110 -0.0017 25.1438 0.0011 -7.7915
# 5 9.7009 0.7976 -21.1193 0.0011 31.2794 -0.0034
# 6 0.0007 -0.0171 -0.0002 -7.7915 -0.0034 11.0816
#
#
#
# Elastic Compliance Matrix: (Units=1/GPa)
#
#
# Indices 1 2 3 4 5 6 
#
# 1 0.013396 -0.003354 -0.007710 -0.000002 -0.009275 -0.000011
# 2 -0.003354 0.020300 -0.000675 0.000001 0.000067 0.000032
# 3 -0.007710 -0.000675 0.014319 0.000002 0.012077 0.000005
# 4 -0.000002 0.000001 0.000002 0.050850 0.000004 0.035753
# 5 -0.009275 0.000067 0.012077 0.000004 0.042999 0.000017
# 6 -0.000011 0.000032 0.000005 0.035753 0.000017 0.115378
#
#
# Mechanical properties :
#
#
# Convention : Reuss Voigt Hill
#
# Bulk Modulus (GPa) = 40.75359 53.02856 46.89107
# Shear Modulus (GPa) = 17.30702 26.81589 22.06145
#
# Velocity S-wave (km/s) = 2.92568 3.64176 3.30318
# Velocity P-wave (km/s) = 5.61857 6.62644 6.14321
#
# Compressibility (1/GPa) = 0.02453772
#
# Stress axis : x y z
#
# Youngs Moduli (GPa) = 74.64703 49.26052 69.83604
#
# Poissons Ratio (x) = 0.16523 0.53845
# Poissons Ratio (y) = 0.25039 0.04711
# Poissons Ratio (z) = 0.57554 0.03323
#
# Static dielectric constant tensor:
#      x y z
#    x 1.739270 -0.000050 -0.190730 
#    y -0.000050 1.842920 0.000170 
#    z -0.190730 0.000170 2.344520 
# 
# From -- ./inp_files/281141.got.cif
#   From: 2010.05.17/outbox.cif.g08.bks.cpg/sg15_141_cif.got.tgz:281141.got - 2010.06.03 18:47:42.
