data_PCOD9269540
_publ_section_title
;
Structure prediction by ZEFSAII (Michael W. Deem and Ramdas Pophale) SiO2 
 PCOD9269540
Probable space group: C 2/C
;
_chemical_formula_sum "Si O2"
_cell_formula_units_Z 56
_cell_length_a 26.275990
_cell_length_b 15.762577
_cell_length_c 9.733842
_cell_angle_alpha 90.000000
_cell_angle_beta 146.839413
_cell_angle_gamma 90.000000
_cell_volume 2205.200079
_symmetry_space_group_name_H-M "C 2/C"
_symmetry_group_IT_number 15
_symmetry_cell_setting 'monoclinic'
loop_
_space_group_symop_operation_xyz
x,y,z
-x,y,1/2-z
-x,-y,-z
x,-y,1/2+z
1/2+x,1/2+y,z
1/2-x,1/2+y,1/2-z
1/2-x,1/2-y,-z
1/2+x,1/2-y,1/2+z
loop_
_atom_site_type_symbol
_atom_site_label
_atom_site_fract_x
_atom_site_fract_y
_atom_site_fract_z
Si Si1 0.099270 0.887404 0.241121
Si Si2 0.617658 0.510100 0.528787
Si Si3 0.246866 0.658171 0.754722
Si Si4 0.447277 0.948889 0.494152
Si Si5 0.064467 0.691415 0.174481
Si Si6 0.767737 0.399738 0.997378
Si Si7 0.191580 0.337736 0.711066
O O1 0.068170 0.927253 0.025980
O O2 0.059662 0.792894 0.169437
O O3 0.212225 0.872547 0.503445
O O4 0.076557 0.951828 0.314202
O O5 0.696259 0.572429 0.643449
O O6 0.670242 0.442553 0.744214
O O7 0.142840 0.657594 0.458442
O O8 0.245296 0.669990 0.914554
O O9 0.293038 0.737777 0.783479
O O10 0.500000 0.971092 0.750000
O O11 0.468962 0.851050 0.504691
O O12 0.338504 0.963447 0.234856
O O13 0.500000 0.000000 0.500000
O O14 0.104434 0.660033 0.117281
O O15 0.811637 0.378181 0.948031
#
# Coordination Sequence:
#
# PCOD9269540 Si02
#       7
#     8   8   8   8   8   8   8
#     4  10  20  34  57  89 122 157 192 256 314 361
#     4  11  19  32  57  91 119 152 191 256 312 356
#     4  11  18  36  56  85 124 149 196 253 312 362
#     4  12  28  42  60  84 124 171 208 247 290 371
#     4  11  21  40  58  81 126 170 207 240 309 373
#     4  11  24  35  55  87 124 153 200 243 307 364
#     4  10  21  34  59  84 119 160 195 252 311 366
#
# _framework density 25.394521000000001
#
# number of rings (size 3 to 8) (size 9 to 14) (size 15 to 20)
#    0.000    1.143    5.714    2.143    2.000    0.000 
#    0.000    0.000    0.000    0.000    0.000    4.000 
#    0.000    0.000    0.000    0.000    0.000    0.000 
#
# Total GULP energy -156715.974902 kJ/mol
# GULP energy per Si atom -5596.999104 kJ/mol
# Density = 2.533672 g / cm^3
# Si number density = 25.394521 Si / 1000 Ang^3
#
#
#
# Elastic Constant Matrix: (Units=GPa)
#
#
# Indices 1 2 3 4 5 6 
#
# 1 91.9112 35.8177 30.1649 0.0000 -33.8903 0.0000
# 2 35.8177 106.4840 32.5226 0.0000 -20.4178 0.0000
# 3 30.1649 32.5226 78.9969 0.0000 -29.5958 0.0000
# 4 0.0000 0.0000 0.0000 29.3611 0.0000 -3.7282
# 5 -33.8903 -20.4178 -29.5958 0.0000 46.3382 0.0000
# 6 0.0000 0.0000 0.0000 -3.7282 0.0000 41.4913
#
#
#
# Elastic Compliance Matrix: (Units=1/GPa)
#
#
# Indices 1 2 3 4 5 6 
#
# 1 0.016048 -0.003190 -0.001241 0.000000 0.009539 0.000000
# 2 -0.003190 0.011602 -0.003309 0.000000 0.000666 0.000000
# 3 -0.001241 -0.003309 0.017889 0.000000 0.009060 0.000000
# 4 0.000000 0.000000 0.000000 0.034452 0.000000 0.003096
# 5 0.009539 0.000666 0.009060 0.000000 0.034637 0.000000
# 6 0.000000 0.000000 0.000000 0.003096 0.000000 0.024380
#
#
# Mechanical properties :
#
#
# Convention : Reuss Voigt Hill
#
# Bulk Modulus (GPa) = 33.26755 52.71136 42.98946
# Shear Modulus (GPa) = 30.39387 35.36391 32.87889
#
# Velocity S-wave (km/s) = 3.46333 3.73578 3.60213
# Velocity P-wave (km/s) = 5.39644 6.27775 5.85370
#
# Compressibility (1/GPa) = 0.03005932
#
# Stress axis : x y z
#
# Youngs Moduli (GPa) = 62.31471 86.18896 55.89956
#
# Poissons Ratio (x) = 0.27493 0.06937
# Poissons Ratio (y) = 0.19878 0.18498
# Poissons Ratio (z) = 0.07733 0.28521
#
# Static dielectric constant tensor:
#      x y z
#    x 1.897350 0.000000 -0.100830 
#    y 0.000000 2.034240 0.000000 
#    z -0.100830 0.000000 1.890330 
# 
# From -- ./inp_files/67172.got.cif
#   From: 2010.05.17/outbox.cif.g08.bks.cpg/sg15_34_cif.got.tgz:67172.got - 2010.06.03 18:47:42.
