data_PCOD9269772
_publ_section_title
;
Structure prediction by ZEFSAII (Michael W. Deem and Ramdas Pophale) SiO2 
 PCOD9269772
Probable space group: C 2/C
;
_chemical_formula_sum "Si O2"
_cell_formula_units_Z 52
_cell_length_a 7.837082
_cell_length_b 23.872811
_cell_length_c 12.995868
_cell_angle_alpha 90.000000
_cell_angle_beta 119.538441
_cell_angle_gamma 90.000000
_cell_volume 2115.412349
_symmetry_space_group_name_H-M "C 2/C"
_symmetry_group_IT_number 15
_symmetry_cell_setting 'monoclinic'
loop_
_space_group_symop_operation_xyz
x,y,z
-x,y,1/2-z
-x,-y,-z
x,-y,1/2+z
1/2+x,1/2+y,z
1/2-x,1/2+y,1/2-z
1/2-x,1/2-y,-z
1/2+x,1/2-y,1/2+z
loop_
_atom_site_type_symbol
_atom_site_label
_atom_site_fract_x
_atom_site_fract_y
_atom_site_fract_z
Si Si1 0.408650 0.097083 0.612968
Si Si2 0.500000 0.395615 0.750000
Si Si3 0.569019 0.974096 0.887735
Si Si4 0.096550 0.357158 0.590561
Si Si5 0.352721 0.748474 0.787405
Si Si6 0.446313 0.585306 0.457770
Si Si7 0.603290 0.715665 0.033638
O O1 0.500000 0.108901 0.750000
O O2 0.468344 0.143819 0.546982
O O3 0.174335 0.088050 0.555851
O O4 0.476641 0.036540 0.587037
O O5 0.330968 0.356817 0.655383
O O6 0.563890 0.428482 0.667531
O O7 0.500000 0.980325 0.750000
O O8 0.459860 0.918140 0.888449
O O9 0.799405 0.958181 0.967567
O O10 0.057038 0.309866 0.660580
O O11 0.500000 0.718680 0.750000
O O12 0.390347 0.722182 0.912325
O O13 0.844600 0.759773 0.837216
O O14 0.364623 0.648593 0.450972
O O15 0.750000 0.750000 0.000000
#
# Coordination Sequence:
#
# PCOD9269772 Si02
#       7
#     8   4   8   8   8   8   8
#     4  10  25  40  58  90 138 170 211 263 327 380
#     4  10  20  34  60  92 116 162 208 252 314 366
#     4  11  19  37  66  96 124 165 221 270 314 375
#     4  11  20  38  64  89 126 167 217 261 314 386
#     4  10  20  36  62  96 120 158 209 266 312 382
#     4  11  21  40  65  92 129 168 213 262 318 386
#     4  10  20  36  62  96 125 157 211 265 317 378
#
# _framework density 24.581496000000001
#
# number of rings (size 3 to 8) (size 9 to 14) (size 15 to 20)
#    0.000    1.538    3.077    3.231    0.000    1.231 
#    0.000    5.385    3.385    0.000    0.000    0.000 
#    0.000    0.000    0.000    0.000    0.000    0.000 
#
# Total GULP energy -144812.960853 kJ/mol
# GULP energy per Si atom -5569.729264 kJ/mol
# Density = 2.452555 g / cm^3
# Si number density = 24.581496 Si / 1000 Ang^3
#
#
#
# Elastic Constant Matrix: (Units=GPa)
#
#
# Indices 1 2 3 4 5 6 
#
# 1 23.3720 7.3971 9.1486 0.0000 6.9795 0.0000
# 2 7.3971 85.0259 27.5442 0.0000 -9.7336 0.0000
# 3 9.1486 27.5442 172.2729 0.0000 10.8157 0.0000
# 4 0.0000 0.0000 0.0000 13.3740 0.0000 1.5581
# 5 6.9795 -9.7336 10.8157 0.0000 29.1269 0.0000
# 6 0.0000 0.0000 0.0000 1.5581 0.0000 16.2362
#
#
#
# Elastic Compliance Matrix: (Units=1/GPa)
#
#
# Indices 1 2 3 4 5 6 
#
# 1 0.048804 -0.005468 -0.000889 0.000000 -0.013192 0.000000
# 2 -0.005468 0.013770 -0.002337 0.000000 0.006780 0.000000
# 3 -0.000889 -0.002337 0.006411 0.000000 -0.002948 0.000000
# 4 0.000000 0.000000 0.000000 0.075618 0.000000 -0.007257
# 5 -0.013192 0.006780 -0.002948 0.000000 0.040854 0.000000
# 6 0.000000 0.000000 0.000000 -0.007257 0.000000 0.062287
#
#
# Mechanical properties :
#
#
# Convention : Reuss Voigt Hill
#
# Bulk Modulus (GPa) = 19.38113 40.98341 30.18227
# Shear Modulus (GPa) = 17.70970 27.51946 22.61458
#
# Velocity S-wave (km/s) = 2.68703 3.34955 3.03641
# Velocity P-wave (km/s) = 4.18669 5.62743 4.95966
#
# Compressibility (1/GPa) = 0.05159657
#
# Stress axis : x y z
#
# Youngs Moduli (GPa) = 20.49004 72.62164 155.98891
#
# Poissons Ratio (x) = 0.39709 0.13872
# Poissons Ratio (y) = 0.11204 0.36453
# Poissons Ratio (z) = 0.01822 0.16971
#
# Static dielectric constant tensor:
#      x y z
#    x 2.171740 0.000000 0.008130 
#    y 0.000000 2.000790 0.000000 
#    z 0.008130 0.000000 2.007570 
# 
# From -- ./inp_files/137523.got.cif
#   From: 2010.05.17/outbox.cif.g08.bks.cpg/sg15_69_cif.got.tgz:137523.got - 2010.06.03 18:47:42.
