data_PCOD9269979
_publ_section_title
;
Structure prediction by ZEFSAII (Michael W. Deem and Ramdas Pophale) SiO2 
 PCOD9269979
Probable space group: C 2/C
;
_chemical_formula_sum "Si O2"
_cell_formula_units_Z 28
_cell_length_a 20.749699
_cell_length_b 15.630080
_cell_length_c 5.035882
_cell_angle_alpha 90.000000
_cell_angle_beta 108.269286
_cell_angle_gamma 90.000000
_cell_volume 1550.909134
_symmetry_space_group_name_H-M "C 2/C"
_symmetry_group_IT_number 15
_symmetry_cell_setting 'monoclinic'
loop_
_space_group_symop_operation_xyz
x,y,z
-x,y,1/2-z
-x,-y,-z
x,-y,1/2+z
1/2+x,1/2+y,z
1/2-x,1/2+y,1/2-z
1/2-x,1/2-y,-z
1/2+x,1/2-y,1/2+z
loop_
_atom_site_type_symbol
_atom_site_label
_atom_site_fract_x
_atom_site_fract_y
_atom_site_fract_z
Si Si1 0.500000 0.937729 0.750000
Si Si2 0.176484 0.231694 0.535277
Si Si3 0.636118 0.833247 0.009791
Si Si4 0.768527 0.943441 0.242604
O O1 0.566842 0.879636 0.847072
O O2 0.500000 0.000000 0.500000
O O3 0.250000 0.250000 0.500000
O O4 0.165485 0.284509 0.790476
O O5 0.127123 0.267134 0.242621
O O6 0.276206 0.478699 0.956450
O O7 0.692947 0.902991 0.168034
O O8 0.679403 0.632073 0.614651
#
# Coordination Sequence:
#
# PCOD9269979 Si02
#       4
#     4   8   8   8
#     4  12  24  38  56  84 114 150 186 216 256 324
#     4  10  20  35  53  76 107 144 181 221 272 326
#     4  11  21  36  53  77 113 148 177 215 265 330
#     4  11  19  31  52  80 106 134 171 224 272 310
#
# _framework density 18.053925
#
# number of rings (size 3 to 8) (size 9 to 14) (size 15 to 20)
#    0.000    1.143    0.000   12.000    0.000    0.000 
#    0.000    0.000    0.000    0.000    0.000   20.000 
#    0.000    0.000    0.000    0.000    0.000    0.000 
#
# Total GULP energy -78188.738372 kJ/mol
# GULP energy per Si atom -5584.909884 kJ/mol
# Density = 1.801283 g / cm^3
# Si number density = 18.053925 Si / 1000 Ang^3
#
#
#
# Elastic Constant Matrix: (Units=GPa)
#
#
# Indices 1 2 3 4 5 6 
#
# 1 41.5022 38.3397 29.6149 0.0000 7.3789 0.0000
# 2 38.3397 90.7680 40.2650 0.0000 13.2716 0.0000
# 3 29.6149 40.2650 116.6128 0.0000 -2.5494 0.0000
# 4 0.0000 0.0000 0.0000 60.0894 0.0000 -5.8584
# 5 7.3789 13.2716 -2.5494 0.0000 29.1740 0.0000
# 6 0.0000 0.0000 0.0000 -5.8584 0.0000 27.9797
#
#
#
# Elastic Compliance Matrix: (Units=1/GPa)
#
#
# Indices 1 2 3 4 5 6 
#
# 1 0.042750 -0.014790 -0.005850 0.000000 -0.004596 0.000000
# 2 -0.014790 0.019405 -0.003061 0.000000 -0.005354 0.000000
# 3 -0.005850 -0.003061 0.011202 0.000000 0.003851 0.000000
# 4 0.000000 0.000000 0.000000 0.016989 0.000000 0.003557
# 5 -0.004596 -0.005354 0.003851 0.000000 0.038212 0.000000
# 6 0.000000 0.000000 0.000000 0.003557 0.000000 0.036485
#
#
# Mechanical properties :
#
#
# Convention : Reuss Voigt Hill
#
# Bulk Modulus (GPa) = 38.52982 51.70247 45.11615
# Shear Modulus (GPa) = 22.61443 32.82618 27.72031
#
# Velocity S-wave (km/s) = 3.54306 4.26870 3.92269
# Velocity P-wave (km/s) = 6.17459 7.27981 6.74986
#
# Compressibility (1/GPa) = 0.02595392
#
# Stress axis : x y z
#
# Youngs Moduli (GPa) = 23.39191 51.53259 89.26650
#
# Poissons Ratio (x) = 0.76217 0.52224
# Poissons Ratio (y) = 0.34597 0.27328
# Poissons Ratio (z) = 0.13685 0.15776
#
# Static dielectric constant tensor:
#      x y z
#    x 1.590640 0.000000 0.005760 
#    y 0.000000 1.658670 0.000000 
#    z 0.005760 0.000000 1.639130 
# 
# From -- ./inp_files/12434.got.cif
#   From: 2010.05.17/outbox.cif.g08.bks.cpg/sg15_7_cif.got.tgz:12434.got - 2010.06.03 18:47:42.
