data_PCOD9269697
_publ_section_title
;
Structure prediction by ZEFSAII (Michael W. Deem and Ramdas Pophale) SiO2 
 PCOD9269697
Probable space group: C 2/C
;
_chemical_formula_sum "Si O2"
_cell_formula_units_Z 52
_cell_length_a 11.012986
_cell_length_b 14.550882
_cell_length_c 18.523404
_cell_angle_alpha 90.000000
_cell_angle_beta 114.327950
_cell_angle_gamma 90.000000
_cell_volume 2704.768320
_symmetry_space_group_name_H-M "C 2/C"
_symmetry_group_IT_number 15
_symmetry_cell_setting 'monoclinic'
loop_
_space_group_symop_operation_xyz
x,y,z
-x,y,1/2-z
-x,-y,-z
x,-y,1/2+z
1/2+x,1/2+y,z
1/2-x,1/2+y,1/2-z
1/2-x,1/2-y,-z
1/2+x,1/2-y,1/2+z
loop_
_atom_site_type_symbol
_atom_site_label
_atom_site_fract_x
_atom_site_fract_y
_atom_site_fract_z
Si Si1 0.742928 0.882031 0.432025
Si Si2 0.510887 0.190825 0.334640
Si Si3 0.225090 0.310946 0.113192
Si Si4 0.000000 0.200448 0.250000
Si Si5 0.602390 0.050609 0.472535
Si Si6 0.545669 0.291070 0.915607
Si Si7 0.258441 0.323811 0.281472
O O1 0.634248 0.800638 0.420587
O O2 0.875501 0.848619 0.505479
O O3 0.763796 0.890460 0.351258
O O4 0.688253 0.974983 0.452212
O O5 0.500000 0.154665 0.250000
O O6 0.644992 0.251194 0.371610
O O7 0.521259 0.111364 0.395483
O O8 0.384906 0.256398 0.316896
O O9 0.248888 0.359299 0.197165
O O10 0.096998 0.244292 0.091586
O O11 0.192402 0.382638 0.043060
O O12 0.033283 0.155390 0.335645
O O13 0.126017 0.263471 0.260962
O O14 0.500000 0.000000 0.500000
#
# Coordination Sequence:
#
# PCOD9269697 Si02
#       7
#     8   8   8   4   8   8   8
#     4  10  20  34  59  88 120 149 197 247 294 342
#     4  10  23  42  63  84 120 161 199 237 299 364
#     4  10  20  40  61  85 116 161 201 239 294 364
#     4   8  16  28  58  84 108 140 204 238 272 338
#     4  12  24  36  58  94 123 152 195 253 302 345
#     4   9  17  34  57  85 114 155 198 233 290 348
#     4   9  19  37  63  85 112 160 201 240 291 359
#
# _framework density 19.225304999999999
#
# number of rings (size 3 to 8) (size 9 to 14) (size 15 to 20)
#    0.000    2.154    1.538    1.385    4.308    1.231 
#    1.385    3.077    5.077    0.000    0.000    0.000 
#    0.000    0.000    0.000    0.000    0.000    0.000 
#
# Total GULP energy -145079.743618 kJ/mol
# GULP energy per Si atom -5579.990139 kJ/mol
# Density = 1.918155 g / cm^3
# Si number density = 19.225305 Si / 1000 Ang^3
#
#
#
# Elastic Constant Matrix: (Units=GPa)
#
#
# Indices 1 2 3 4 5 6 
#
# 1 101.8013 25.3650 49.9478 0.0000 5.8616 0.0000
# 2 25.3650 42.1172 52.8702 0.0000 -8.4496 0.0000
# 3 49.9478 52.8702 142.2602 0.0000 -5.0974 0.0000
# 4 0.0000 0.0000 0.0000 13.3792 0.0000 -14.9281
# 5 5.8616 -8.4496 -5.0974 0.0000 35.0443 0.0000
# 6 0.0000 0.0000 0.0000 -14.9281 0.0000 14.0986
#
#
#
# Elastic Compliance Matrix: (Units=1/GPa)
#
#
# Indices 1 2 3 4 5 6 
#
# 1 0.012596 -0.004888 -0.002738 0.000000 -0.003684 0.000000
# 2 -0.004888 0.048988 -0.016121 0.000000 0.010284 0.000000
# 3 -0.002738 -0.016121 0.013932 0.000000 -0.001403 0.000000
# 4 0.000000 0.000000 0.000000 -0.412008 0.000000 -0.436248
# 5 -0.003684 0.010284 -0.001403 0.000000 0.031427 0.000000
# 6 0.000000 0.000000 0.000000 -0.436248 0.000000 -0.390985
#
#
# Mechanical properties :
#
#
# Convention : Reuss Voigt Hill
#
# Bulk Modulus (GPa) = 35.68752 60.28275 47.98514
# Shear Modulus (GPa) = -7.82210 23.03745 7.60768
#
# Velocity S-wave (km/s) = -2.01928 3.46539 1.99141
# Velocity P-wave (km/s) = 3.62856 6.88737 5.50465
#
# Compressibility (1/GPa) = 0.02802100
#
# Stress axis : x y z
#
# Youngs Moduli (GPa) = 79.38728 20.41333 71.77839
#
# Poissons Ratio (x) = 0.09979 0.19652
# Poissons Ratio (y) = 0.38807 1.15715
# Poissons Ratio (z) = 0.21736 0.32909
#
# Static dielectric constant tensor:
#      x y z
#    x 1.655450 0.000000 -0.018360 
#    y 0.000000 1.618550 0.000000 
#    z -0.018360 0.000000 1.724800 
# 
# From -- ./inp_files/198042.got.cif
#   From: 2010.05.17/outbox.cif.g08.bks.cpg/sg15_100_cif.got.tgz:198042.got - 2010.06.03 18:47:42.
