data_PCOD9269607
_publ_section_title
;
Structure prediction by ZEFSAII (Michael W. Deem and Ramdas Pophale) SiO2 
 PCOD9269607
Probable space group: C 2/C
;
_chemical_formula_sum "Si O2"
_cell_formula_units_Z 36
_cell_length_a 13.552882
_cell_length_b 26.038867
_cell_length_c 5.395810
_cell_angle_alpha 90.000000
_cell_angle_beta 57.795827
_cell_angle_gamma 90.000000
_cell_volume 1611.239062
_symmetry_space_group_name_H-M "C 2/C"
_symmetry_group_IT_number 15
_symmetry_cell_setting 'monoclinic'
loop_
_space_group_symop_operation_xyz
x,y,z
-x,y,1/2-z
-x,-y,-z
x,-y,1/2+z
1/2+x,1/2+y,z
1/2-x,1/2+y,1/2-z
1/2-x,1/2-y,-z
1/2+x,1/2-y,1/2+z
loop_
_atom_site_type_symbol
_atom_site_label
_atom_site_fract_x
_atom_site_fract_y
_atom_site_fract_z
Si Si1 0.861005 0.531228 0.959165
Si Si2 0.844368 0.292550 0.603027
Si Si3 0.283004 0.874966 0.317513
Si Si4 0.000000 0.639747 0.250000
Si Si5 0.118756 0.185317 0.741009
O O1 0.835806 0.495758 0.753704
O O2 0.786380 0.583365 0.028311
O O3 0.000000 0.542974 0.750000
O O4 0.822180 0.319240 0.370326
O O5 0.940728 0.325334 0.620269
O O6 0.885309 0.234128 0.568421
O O7 0.722556 0.300261 0.911311
O O8 0.165069 0.864065 0.329129
O O9 0.391014 0.891754 0.999302
O O10 0.000000 0.178948 0.750000
#
# Coordination Sequence:
#
# PCOD9269607 Si02
#       5
#     8   8   8   4   8
#     4  10  23  39  64  95 128 162 209 270 330 386
#     4  10  20  37  58  87 122 162 201 252 307 372
#     4  11  23  37  62  88 123 167 206 254 322 379
#     4  10  20  34  58  86 126 156 200 248 308 376
#     4  10  22  39  58  88 124 162 210 254 304 376
#
# _framework density 22.343053000000001
#
# number of rings (size 3 to 8) (size 9 to 14) (size 15 to 20)
#    0.000    1.778    1.111    2.667   10.889    0.889 
#    4.000    0.000    0.000    1.333    0.000    0.000 
#    0.000    0.000    0.000    0.000    0.000    0.000 
#
# Total GULP energy -100658.261793 kJ/mol
# GULP energy per Si atom -5592.125655 kJ/mol
# Density = 2.229220 g / cm^3
# Si number density = 22.343053 Si / 1000 Ang^3
#
#
#
# Elastic Constant Matrix: (Units=GPa)
#
#
# Indices 1 2 3 4 5 6 
#
# 1 195.9214 68.1840 25.9923 0.0000 15.3360 0.0000
# 2 68.1840 89.8011 14.7875 0.0000 15.3223 0.0000
# 3 25.9923 14.7875 54.2146 0.0000 3.8429 0.0000
# 4 0.0000 0.0000 0.0000 23.9172 0.0000 24.5325
# 5 15.3360 15.3223 3.8429 0.0000 32.6464 0.0000
# 6 0.0000 0.0000 0.0000 24.5325 0.0000 29.1293
#
#
#
# Elastic Compliance Matrix: (Units=1/GPa)
#
#
# Indices 1 2 3 4 5 6 
#
# 1 0.007165 -0.004971 -0.002023 0.000000 -0.000794 0.000000
# 2 -0.004971 0.016032 -0.001635 0.000000 -0.004997 0.000000
# 3 -0.002023 -0.001635 0.019905 0.000000 -0.000625 0.000000
# 4 0.000000 0.000000 0.000000 0.307119 0.000000 -0.258653
# 5 -0.000794 -0.004997 -0.000625 0.000000 0.033423 0.000000
# 6 0.000000 0.000000 0.000000 -0.258653 0.000000 0.252166
#
#
# Mechanical properties :
#
#
# Convention : Reuss Voigt Hill
#
# Bulk Modulus (GPa) = 38.69443 61.98497 50.33970
# Shear Modulus (GPa) = 7.55648 32.53677 20.04663
#
# Velocity S-wave (km/s) = 1.84102 3.82021 2.99861
# Velocity P-wave (km/s) = 4.67708 6.87468 5.87947
#
# Compressibility (1/GPa) = 0.02584351
#
# Stress axis : x y z
#
# Youngs Moduli (GPa) = 139.57211 62.37416 50.23771
#
# Poissons Ratio (x) = 0.31009 0.10162
# Poissons Ratio (y) = 0.69387 0.08215
# Poissons Ratio (z) = 0.28232 0.10200
#
# Static dielectric constant tensor:
#      x y z
#    x 1.789760 0.000000 0.019630 
#    y 0.000000 1.876220 0.000000 
#    z 0.019630 0.000000 1.904540 
# 
# From -- ./inp_files/4814.got.cif
#   From: 2010.05.17/outbox.cif.g08.bks.cpg/sg15_3_cif.got.tgz:4814.got - 2010.06.03 18:47:42.
