data_PCOD9269546
_publ_section_title
;
Structure prediction by ZEFSAII (Michael W. Deem and Ramdas Pophale) SiO2 
 PCOD9269546
Probable space group: C 2/C
;
_chemical_formula_sum "Si O2"
_cell_formula_units_Z 44
_cell_length_a 17.978894
_cell_length_b 14.729675
_cell_length_c 9.670723
_cell_angle_alpha 90.000000
_cell_angle_beta 43.765821
_cell_angle_gamma 90.000000
_cell_volume 1771.498141
_symmetry_space_group_name_H-M "C 2/C"
_symmetry_group_IT_number 15
_symmetry_cell_setting 'monoclinic'
loop_
_space_group_symop_operation_xyz
x,y,z
-x,y,1/2-z
-x,-y,-z
x,-y,1/2+z
1/2+x,1/2+y,z
1/2-x,1/2+y,1/2-z
1/2-x,1/2-y,-z
1/2+x,1/2-y,1/2+z
loop_
_atom_site_type_symbol
_atom_site_label
_atom_site_fract_x
_atom_site_fract_y
_atom_site_fract_z
Si Si1 0.416228 0.419952 0.608427
Si Si2 0.198311 0.484066 0.312327
Si Si3 0.278006 0.710946 0.613191
Si Si4 0.153889 0.387067 0.637171
Si Si5 0.000000 0.189033 0.250000
Si Si6 0.135370 0.200598 0.551173
O O1 0.500000 0.500000 0.500000
O O2 0.297623 0.458875 0.742388
O O3 0.434063 0.368592 0.727169
O O4 0.443030 0.356634 0.441434
O O5 0.248933 0.396121 0.166292
O O6 0.132003 0.443722 0.528510
O O7 0.134647 0.550327 0.295239
O O8 0.250000 0.750000 0.500000
O O9 0.403936 0.735414 0.462416
O O10 0.210475 0.756706 0.826721
O O11 0.103821 0.287331 0.685524
O O12 0.283573 0.364365 0.472137
#
# Coordination Sequence:
#
# PCOD9269546 Si02
#       6
#     8   8   8   8   4   8
#     4  11  21  34  56  93 135 162 203 267 335 381
#     4  10  20  34  57  90 124 167 212 268 316 391
#     4  11  21  36  57  88 132 175 216 266 325 382
#     4   9  19  35  58  84 123 166 221 257 318 389
#     4  12  22  36  58  92 136 164 214 268 318 392
#     4   9  20  37  55  83 134 175 212 259 327 400
#
# _framework density 24.837734999999999
#
# number of rings (size 3 to 8) (size 9 to 14) (size 15 to 20)
#    0.000    1.818    3.636    1.091    5.091    0.000 
#    0.000    0.000    0.000    0.000    0.000   11.455 
#    0.000    0.000    0.000    0.000    0.000    0.000 
#
# Total GULP energy -123047.935659 kJ/mol
# GULP energy per Si atom -5593.087985 kJ/mol
# Density = 2.478120 g / cm^3
# Si number density = 24.837735 Si / 1000 Ang^3
#
#
#
# Elastic Constant Matrix: (Units=GPa)
#
#
# Indices 1 2 3 4 5 6 
#
# 1 124.2685 62.8861 26.0715 0.0000 30.0597 0.0000
# 2 62.8861 129.1169 23.1749 0.0000 19.4173 0.0000
# 3 26.0715 23.1749 66.6455 0.0000 15.7958 0.0000
# 4 0.0000 0.0000 0.0000 30.9299 0.0000 10.5537
# 5 30.0597 19.4173 15.7958 0.0000 42.2279 0.0000
# 6 0.0000 0.0000 0.0000 10.5537 0.0000 70.4145
#
#
#
# Elastic Compliance Matrix: (Units=1/GPa)
#
#
# Indices 1 2 3 4 5 6 
#
# 1 0.012246 -0.004769 -0.001740 0.000000 -0.005874 0.000000
# 2 -0.004769 0.010476 -0.001580 0.000000 -0.000831 0.000000
# 3 -0.001740 -0.001580 0.017303 0.000000 -0.004507 0.000000
# 4 0.000000 0.000000 0.000000 0.034074 0.000000 -0.005107
# 5 -0.005874 -0.000831 -0.004507 0.000000 0.029930 0.000000
# 6 0.000000 0.000000 0.000000 -0.005107 0.000000 0.014967
#
#
# Mechanical properties :
#
#
# Convention : Reuss Voigt Hill
#
# Bulk Modulus (GPa) = 41.93417 60.47732 51.20575
# Shear Modulus (GPa) = 34.93450 42.57433 38.75442
#
# Velocity S-wave (km/s) = 3.75441 4.14466 3.95435
# Velocity P-wave (km/s) = 5.97613 6.87794 6.44283
#
# Compressibility (1/GPa) = 0.02384690
#
# Stress axis : x y z
#
# Youngs Moduli (GPa) = 81.65749 95.45390 57.79233
#
# Poissons Ratio (x) = 0.45521 0.10058
# Poissons Ratio (y) = 0.38941 0.09133
# Poissons Ratio (z) = 0.14211 0.15085
#
# Static dielectric constant tensor:
#      x y z
#    x 2.288770 0.000000 0.290830 
#    y 0.000000 2.011980 0.000000 
#    z 0.290830 0.000000 2.800870 
# 
# From -- ./inp_files/47401.got.cif
#   From: 2010.05.17/outbox.cif.g08.bks.cpg/sg15_24_cif.got.tgz:47401.got - 2010.06.03 18:47:42.
