data_PCOD9269233
_publ_section_title
;
Structure prediction by ZEFSAII (Michael W. Deem and Ramdas Pophale) SiO2 
 PCOD9269233
Probable space group: C 2/C
;
_chemical_formula_sum "Si O2"
_cell_formula_units_Z 52
_cell_length_a 23.443187
_cell_length_b 17.586023
_cell_length_c 7.073984
_cell_angle_alpha 90.000000
_cell_angle_beta 92.069154
_cell_angle_gamma 90.000000
_cell_volume 2914.506977
_symmetry_space_group_name_H-M "C 2/C"
_symmetry_group_IT_number 15
_symmetry_cell_setting 'monoclinic'
loop_
_space_group_symop_operation_xyz
x,y,z
-x,y,1/2-z
-x,-y,-z
x,-y,1/2+z
1/2+x,1/2+y,z
1/2-x,1/2+y,1/2-z
1/2-x,1/2-y,-z
1/2+x,1/2-y,1/2+z
loop_
_atom_site_type_symbol
_atom_site_label
_atom_site_fract_x
_atom_site_fract_y
_atom_site_fract_z
Si Si1 0.897939 0.011714 0.684878
Si Si2 0.163147 0.246047 0.820682
Si Si3 0.550758 0.322781 0.390939
Si Si4 0.798878 0.814386 0.524955
Si Si5 0.690400 0.488090 0.073025
Si Si6 0.738831 0.354330 0.587961
Si Si7 0.500000 0.395209 0.750000
O O1 0.826001 0.006306 0.679754
O O2 0.948055 0.949845 0.686180
O O3 0.921697 0.097852 0.683506
O O4 0.881709 0.000342 0.933479
O O5 0.103278 0.235006 0.913826
O O6 0.152961 0.222543 0.600969
O O7 0.198385 0.322928 0.858696
O O8 0.210083 0.185125 0.903896
O O9 0.500000 0.296779 0.250000
O O10 0.522610 0.344333 0.584129
O O11 0.750000 0.750000 0.500000
O O12 0.790122 0.900684 0.449443
O O13 0.803903 0.827022 0.748637
O O14 0.736007 0.555753 0.082413
#
# Coordination Sequence:
#
# PCOD9269233 Si02
#       7
#     8   8   8   8   8   8   4
#     4  12  20  31  47  70 103 140 177 209 246 305
#     4  10  21  37  50  73 104 141 177 220 263 305
#     4  12  23  34  49  71 103 143 180 214 252 307
#     4  10  21  34  52  76 105 142 175 217 264 317
#     4  12  19  31  53  74 101 142 176 209 261 313
#     4  10  20  34  54  73 101 140 178 217 263 314
#     4  12  24  34  46  70 102 146 188 214 246 302
#
# _framework density 17.841784000000001
#
# number of rings (size 3 to 8) (size 9 to 14) (size 15 to 20)
#    0.000    0.923    6.923    1.385    0.000    0.000 
#    0.000    0.000    0.000    0.000    0.000    0.000 
#    0.000    4.923    2.615    0.385    0.000    0.000 
#
# Total GULP energy -144734.636541 kJ/mol
# GULP energy per Si atom -5566.716790 kJ/mol
# Density = 1.780117 g / cm^3
# Si number density = 17.841784 Si / 1000 Ang^3
#
#
#
# Elastic Constant Matrix: (Units=GPa)
#
#
# Indices 1 2 3 4 5 6 
#
# 1 98.3318 62.6599 38.7324 0.0000 -5.8907 0.0000
# 2 62.6599 91.0994 28.9841 0.0000 -2.4500 0.0000
# 3 38.7324 28.9841 94.5848 0.0000 -2.8528 0.0000
# 4 0.0000 0.0000 0.0000 21.0696 0.0000 -5.2212
# 5 -5.8907 -2.4500 -2.8528 0.0000 29.1555 0.0000
# 6 0.0000 0.0000 0.0000 -5.2212 0.0000 29.4467
#
#
#
# Elastic Compliance Matrix: (Units=1/GPa)
#
#
# Indices 1 2 3 4 5 6 
#
# 1 0.019759 -0.012157 -0.004289 0.000000 0.002551 0.000000
# 2 -0.012157 0.019656 -0.001072 0.000000 -0.000909 0.000000
# 3 -0.004289 -0.001072 0.012666 0.000000 0.000283 0.000000
# 4 0.000000 0.000000 0.000000 0.049643 0.000000 0.008802
# 5 0.002551 -0.000909 0.000283 0.000000 0.034765 0.000000
# 6 0.000000 0.000000 0.000000 0.008802 0.000000 0.035520
#
#
# Mechanical properties :
#
#
# Convention : Reuss Voigt Hill
#
# Bulk Modulus (GPa) = 58.67293 60.52987 59.60140
# Shear Modulus (GPa) = 23.50427 26.17700 24.84064
#
# Velocity S-wave (km/s) = 3.63350 3.83453 3.73537
# Velocity P-wave (km/s) = 7.11053 7.32150 7.21678
#
# Compressibility (1/GPa) = 0.01704364
#
# Stress axis : x y z
#
# Youngs Moduli (GPa) = 50.61024 50.87566 78.95214
#
# Poissons Ratio (x) = 0.61851 0.33861
# Poissons Ratio (y) = 0.61529 0.08465
# Poissons Ratio (z) = 0.21706 0.05455
#
# Static dielectric constant tensor:
#      x y z
#    x 1.578490 0.000000 -0.021770 
#    y 0.000000 1.564020 0.000000 
#    z -0.021770 0.000000 2.219020 
# 
# From -- ./inp_files/61236.got.cif
#   From: 2010.05.17/outbox.cif.g08.bks.cpg/sg15_31_cif.got.tgz:61236.got - 2010.06.03 18:47:42.
