data_PCOD9269465
_publ_section_title
;
Structure prediction by ZEFSAII (Michael W. Deem and Ramdas Pophale) SiO2 
 PCOD9269465
Probable space group: C 2/C
;
_chemical_formula_sum "Si O2"
_cell_formula_units_Z 40
_cell_length_a 8.284795
_cell_length_b 28.112052
_cell_length_c 8.404804
_cell_angle_alpha 90.000000
_cell_angle_beta 100.406044
_cell_angle_gamma 90.000000
_cell_volume 1925.304460
_symmetry_space_group_name_H-M "C 2/C"
_symmetry_group_IT_number 15
_symmetry_cell_setting 'monoclinic'
loop_
_space_group_symop_operation_xyz
x,y,z
-x,y,1/2-z
-x,-y,-z
x,-y,1/2+z
1/2+x,1/2+y,z
1/2-x,1/2+y,1/2-z
1/2-x,1/2-y,-z
1/2+x,1/2-y,1/2+z
loop_
_atom_site_type_symbol
_atom_site_label
_atom_site_fract_x
_atom_site_fract_y
_atom_site_fract_z
Si Si1 0.556897 0.737425 0.444892
Si Si2 0.455646 0.836902 0.922419
Si Si3 0.874128 0.136730 0.973538
Si Si4 0.430523 0.548170 0.559419
Si Si5 0.857905 0.587704 0.832186
O O1 0.500000 0.735273 0.250000
O O2 0.750000 0.750000 0.500000
O O3 0.485327 0.784130 0.515921
O O4 0.530113 0.686711 0.525826
O O5 0.500000 0.844435 0.750000
O O6 0.263211 0.849292 0.919893
O O7 0.551026 0.872913 0.050478
O O8 0.767679 0.117076 0.804990
O O9 0.999530 0.093526 0.024723
O O10 0.500000 0.549934 0.750000
O O11 0.500000 0.500000 0.500000
O O12 0.238440 0.553735 0.563019
O O13 0.000000 0.563794 0.750000
#
# Coordination Sequence:
#
# PCOD9269465 Si02
#       5
#     8   8   8   8   8
#     4  10  20  36  57  83 119 162 203 247 297 357
#     4  10  20  34  56  87 117 152 195 241 289 349
#     4   9  20  39  57  80 115 156 194 237 294 352
#     4  10  22  39  60  84 111 146 189 240 296 353
#     4   9  19  40  61  80 116 156 192 239 294 353
#
# _framework density 20.775935
#
# number of rings (size 3 to 8) (size 9 to 14) (size 15 to 20)
#    0.000    2.400    0.000    3.000    0.000    8.000 
#    0.000   16.000    0.000    0.000    0.000    0.000 
#    0.000    0.000    0.000    0.000    0.000    0.000 
#
# Total GULP energy -111387.139947 kJ/mol
# GULP energy per Si atom -5569.356997 kJ/mol
# Density = 2.072865 g / cm^3
# Si number density = 20.775935 Si / 1000 Ang^3
#
#
#
# Elastic Constant Matrix: (Units=GPa)
#
#
# Indices 1 2 3 4 5 6 
#
# 1 99.0493 70.8558 31.6430 0.0000 -21.9839 0.0000
# 2 70.8558 140.5074 4.4786 0.0000 -38.1329 0.0000
# 3 31.6430 4.4786 59.1945 0.0000 -15.7479 0.0000
# 4 0.0000 0.0000 0.0000 0.0189 0.0000 -5.7685
# 5 -21.9839 -38.1329 -15.7479 0.0000 33.5838 0.0000
# 6 0.0000 0.0000 0.0000 -5.7685 0.0000 27.7418
#
#
#
# Elastic Compliance Matrix: (Units=1/GPa)
#
#
# Indices 1 2 3 4 5 6 
#
# 1 0.020975 -0.011504 -0.011613 0.000000 -0.004777 0.000000
# 2 -0.011504 0.016977 0.009129 0.000000 0.016027 0.000000
# 3 -0.011613 0.009129 0.026445 0.000000 0.015164 0.000000
# 4 0.000000 0.000000 0.000000 -0.847041 0.000000 -0.176131
# 5 -0.004777 0.016027 0.015164 0.000000 0.051957 0.000000
# 6 0.000000 0.000000 0.000000 -0.176131 0.000000 -0.000577
#
#
# Mechanical properties :
#
#
# Convention : Reuss Voigt Hill
#
# Bulk Modulus (GPa) = 27.45711 56.96734 42.21223
# Shear Modulus (GPa) = -7.23434 25.05382 8.90974
#
# Velocity S-wave (km/s) = -1.86806 3.47638 2.07311
# Velocity P-wave (km/s) = 2.93116 6.60250 5.10807
#
# Compressibility (1/GPa) = 0.03642044
#
# Stress axis : x y z
#
# Youngs Moduli (GPa) = 47.67598 58.90394 37.81473
#
# Poissons Ratio (x) = 0.67761 0.43914
# Poissons Ratio (y) = 0.54845 -0.34520
# Poissons Ratio (z) = 0.55366 -0.53771
#
# Static dielectric constant tensor:
#      x y z
#    x 1.954990 0.000000 -0.013630 
#    y 0.000000 1.791670 0.000000 
#    z -0.013630 0.000000 1.722040 
# 
# From -- ./inp_files/24576.got.cif
#   From: 2010.05.17/outbox.cif.g08.bks.cpg/sg15_13_cif.got.tgz:24576.got - 2010.06.03 18:47:42.
