data_PCOD9269492
_publ_section_title
;
Structure prediction by ZEFSAII (Michael W. Deem and Ramdas Pophale) SiO2 
 PCOD9269492
Probable space group: C 2/C
;
_chemical_formula_sum "Si O2"
_cell_formula_units_Z 48
_cell_length_a 13.416140
_cell_length_b 24.092143
_cell_length_c 13.739670
_cell_angle_alpha 90.000000
_cell_angle_beta 142.283295
_cell_angle_gamma 90.000000
_cell_volume 2716.806834
_symmetry_space_group_name_H-M "C 2/C"
_symmetry_group_IT_number 15
_symmetry_cell_setting 'monoclinic'
loop_
_space_group_symop_operation_xyz
x,y,z
-x,y,1/2-z
-x,-y,-z
x,-y,1/2+z
1/2+x,1/2+y,z
1/2-x,1/2+y,1/2-z
1/2-x,1/2-y,-z
1/2+x,1/2-y,1/2+z
loop_
_atom_site_type_symbol
_atom_site_label
_atom_site_fract_x
_atom_site_fract_y
_atom_site_fract_z
Si Si1 0.535559 0.578121 0.509701
Si Si2 0.106249 0.191530 0.478468
Si Si3 0.166254 0.424377 0.638985
Si Si4 0.408363 0.482815 0.084879
Si Si5 0.918330 0.516090 0.088165
Si Si6 0.240950 0.690207 0.110521
O O1 0.607875 0.638707 0.550278
O O2 0.350696 0.573672 0.323822
O O3 0.631986 0.533127 0.519649
O O4 0.521236 0.557825 0.609091
O O5 0.153336 0.251073 0.557382
O O6 0.226418 0.181518 0.479531
O O7 0.921822 0.193653 0.295719
O O8 0.137119 0.467528 0.528262
O O9 0.148569 0.362075 0.585007
O O10 0.040517 0.443678 0.624893
O O11 0.500000 0.505670 0.250000
O O12 0.245666 0.454874 0.999387
O O13 0.000000 0.493945 0.250000
#
# Coordination Sequence:
#
# PCOD9269492 Si02
#       6
#     8   8   8   8   8   8
#     4  10  20  34  57  78 104 146 174 210 263 317
#     4   9  18  34  55  75 104 133 175 213 263 307
#     4  10  20  35  55  78 108 141 175 212 265 312
#     4  11  21  35  54  79 108 139 177 213 260 315
#     4  11  21  35  52  80 109 138 175 217 260 311
#     4   9  18  35  53  77 103 137 169 218 261 308
#
# _framework density 17.667798999999999
#
# number of rings (size 3 to 8) (size 9 to 14) (size 15 to 20)
#    0.000    2.000    3.333    1.000    2.333    0.000 
#   12.000    0.000    0.000    2.000    0.000    0.000 
#    0.000    0.000    0.000    0.000    0.000    0.000 
#
# Total GULP energy -133823.493442 kJ/mol
# GULP energy per Si atom -5575.978893 kJ/mol
# Density = 1.762759 g / cm^3
# Si number density = 17.667799 Si / 1000 Ang^3
#
#
#
# Elastic Constant Matrix: (Units=GPa)
#
#
# Indices 1 2 3 4 5 6 
#
# 1 115.9434 63.7524 25.5233 0.0000 -7.0065 0.0000
# 2 63.7524 134.6292 5.4342 0.0000 -6.1003 0.0000
# 3 25.5233 5.4342 19.5908 0.0000 -10.4472 0.0000
# 4 0.0000 0.0000 0.0000 23.7226 0.0000 4.3654
# 5 -7.0065 -6.1003 -10.4472 0.0000 24.5755 0.0000
# 6 0.0000 0.0000 0.0000 4.3654 0.0000 23.2464
#
#
#
# Elastic Compliance Matrix: (Units=1/GPa)
#
#
# Indices 1 2 3 4 5 6 
#
# 1 0.018113 -0.007894 -0.025474 0.000000 -0.007625 0.000000
# 2 -0.007894 0.010983 0.009688 0.000000 0.004594 0.000000
# 3 -0.025474 0.009688 0.102100 0.000000 0.038546 0.000000
# 4 0.000000 0.000000 0.000000 0.043663 0.000000 -0.008199
# 5 -0.007625 0.004594 0.038546 0.000000 0.056044 0.000000
# 6 0.000000 0.000000 0.000000 -0.008199 0.000000 0.044557
#
#
# Mechanical properties :
#
#
# Convention : Reuss Voigt Hill
#
# Bulk Modulus (GPa) = 11.92801 51.06481 31.49641
# Shear Modulus (GPa) = 14.25459 26.00581 20.13020
#
# Velocity S-wave (km/s) = 2.84352 3.84074 3.37912
# Velocity P-wave (km/s) = 4.18889 6.97380 5.75242
#
# Compressibility (1/GPa) = 0.08383628
#
# Stress axis : x y z
#
# Youngs Moduli (GPa) = 55.21018 91.04803 9.79431
#
# Poissons Ratio (x) = 0.71876 0.24950
# Poissons Ratio (y) = 0.43585 -0.09489
# Poissons Ratio (z) = 1.40641 -0.88210
#
# Static dielectric constant tensor:
#      x y z
#    x 1.612930 0.000000 0.017400 
#    y 0.000000 1.581840 0.000000 
#    z 0.017400 0.000000 1.651830 
# 
# From -- ./inp_files/31889.got.cif
#   From: 2010.05.17/outbox.cif.g08.bks.cpg/sg15_16_cif.got.tgz:31889.got - 2010.06.03 18:47:42.
