data_PCOD9269884
_publ_section_title
;
Structure prediction by ZEFSAII (Michael W. Deem and Ramdas Pophale) SiO2 
 PCOD9269884
Probable space group: C 2/C
;
_chemical_formula_sum "Si O2"
_cell_formula_units_Z 52
_cell_length_a 21.491171
_cell_length_b 9.855607
_cell_length_c 10.839622
_cell_angle_alpha 90.000000
_cell_angle_beta 103.079547
_cell_angle_gamma 90.000000
_cell_volume 2236.360863
_symmetry_space_group_name_H-M "C 2/C"
_symmetry_group_IT_number 15
_symmetry_cell_setting 'monoclinic'
loop_
_space_group_symop_operation_xyz
x,y,z
-x,y,1/2-z
-x,-y,-z
x,-y,1/2+z
1/2+x,1/2+y,z
1/2-x,1/2+y,1/2-z
1/2-x,1/2-y,-z
1/2+x,1/2-y,1/2+z
loop_
_atom_site_type_symbol
_atom_site_label
_atom_site_fract_x
_atom_site_fract_y
_atom_site_fract_z
Si Si1 0.121016 0.640204 0.161619
Si Si2 0.500000 0.884281 0.750000
Si Si3 0.134849 0.116713 0.486157
Si Si4 0.925921 0.617870 0.993331
Si Si5 0.857681 0.012713 0.263580
Si Si6 0.315111 0.241019 0.101505
Si Si7 0.490708 0.352801 0.876157
O O1 0.058900 0.694239 0.211264
O O2 0.135765 0.736855 0.053142
O O3 0.099770 0.491928 0.112164
O O4 0.180122 0.636276 0.282114
O O5 0.464510 0.956587 0.620810
O O6 0.160547 0.117937 0.356234
O O7 0.058835 0.082600 0.439849
O O8 0.164660 0.014384 0.603678
O O9 0.968973 0.738161 0.960356
O O10 0.866115 0.692854 0.025322
O O11 0.932661 0.044502 0.321365
O O12 0.837821 0.877544 0.180600
O O13 0.250000 0.250000 0.000000
O O14 0.500000 0.278139 0.750000
#
# Coordination Sequence:
#
# PCOD9269884 Si02
#       7
#     8   4   8   8   8   8   8
#     4  10  22  39  62  96 126 167 214 264 321 396
#     4  10  20  34  64  90 134 164 200 248 326 394
#     4  10  20  37  59  96 134 166 199 256 325 404
#     4  11  22  39  64  96 126 175 209 263 324 389
#     4  10  21  38  60  89 125 166 210 259 318 382
#     4  10  24  46  63  84 124 175 224 272 324 371
#     4  10  21  34  61 100 136 160 203 257 323 408
#
# _framework density 23.252061999999999
#
# number of rings (size 3 to 8) (size 9 to 14) (size 15 to 20)
#    0.000    1.846    1.538    1.846    1.077    6.154 
#   16.615    0.000    0.000    1.846    0.000    0.000 
#    0.000    0.000    0.000    0.000    0.000    0.000 
#
# Total GULP energy -144797.837968 kJ/mol
# GULP energy per Si atom -5569.147614 kJ/mol
# Density = 2.319914 g / cm^3
# Si number density = 23.252062 Si / 1000 Ang^3
#
#
#
# Elastic Constant Matrix: (Units=GPa)
#
#
# Indices 1 2 3 4 5 6 
#
# 1 21.6745 8.4277 39.6905 0.0000 10.6728 0.0000
# 2 8.4277 54.7068 44.2611 0.0000 11.5919 0.0000
# 3 39.6905 44.2611 185.0156 0.0000 15.7803 0.0000
# 4 0.0000 0.0000 0.0000 40.1290 0.0000 -1.7891
# 5 10.6728 11.5919 15.7803 0.0000 39.0879 0.0000
# 6 0.0000 0.0000 0.0000 -1.7891 0.0000 -0.3845
#
#
#
# Elastic Compliance Matrix: (Units=1/GPa)
#
#
# Indices 1 2 3 4 5 6 
#
# 1 0.086233 0.005228 -0.018237 0.000000 -0.017734 0.000000
# 2 0.005228 0.023847 -0.006319 0.000000 -0.005949 0.000000
# 3 -0.018237 -0.006319 0.010610 0.000000 0.002570 0.000000
# 4 0.000000 0.000000 0.000000 0.020638 0.000000 -0.096027
# 5 -0.017734 -0.005949 0.002570 0.000000 0.031152 0.000000
# 6 0.000000 0.000000 0.000000 -0.096027 0.000000 -2.153836
#
#
# Mechanical properties :
#
#
# Convention : Reuss Voigt Hill
#
# Bulk Modulus (GPa) = 12.19014 49.57283 30.88148
# Shear Modulus (GPa) = -2.61048 27.03430 12.21191
#
# Velocity S-wave (km/s) = -1.06072 3.41348 2.29420
# Velocity P-wave (km/s) = 1.93748 6.07469 4.50864
#
# Compressibility (1/GPa) = 0.08203354
#
# Stress axis : x y z
#
# Youngs Moduli (GPa) = 11.59645 41.93437 94.25220
#
# Poissons Ratio (x) = -0.21925 1.71892
# Poissons Ratio (y) = -0.06063 0.59559
# Poissons Ratio (z) = 0.21149 0.26499
#
# Static dielectric constant tensor:
#      x y z
#    x 1.897140 0.000000 -0.028130 
#    y 0.000000 1.904810 0.000000 
#    z -0.028130 0.000000 1.962660 
# 
# From -- ./inp_files/122061.got.cif
#   From: 2010.05.17/outbox.cif.g08.bks.cpg/sg15_62_cif.got.tgz:122061.got - 2010.06.03 18:47:42.
