data_PCOD9269322
_publ_section_title
;
Structure prediction by ZEFSAII (Michael W. Deem and Ramdas Pophale) SiO2 
 PCOD9269322
Probable space group: C 2/C
;
_chemical_formula_sum "Si O2"
_cell_formula_units_Z 44
_cell_length_a 10.144105
_cell_length_b 14.047646
_cell_length_c 13.974651
_cell_angle_alpha 90.000000
_cell_angle_beta 100.429737
_cell_angle_gamma 90.000000
_cell_volume 1958.496297
_symmetry_space_group_name_H-M "C 2/C"
_symmetry_group_IT_number 15
_symmetry_cell_setting 'monoclinic'
loop_
_space_group_symop_operation_xyz
x,y,z
-x,y,1/2-z
-x,-y,-z
x,-y,1/2+z
1/2+x,1/2+y,z
1/2-x,1/2+y,1/2-z
1/2-x,1/2-y,-z
1/2+x,1/2-y,1/2+z
loop_
_atom_site_type_symbol
_atom_site_label
_atom_site_fract_x
_atom_site_fract_y
_atom_site_fract_z
Si Si1 0.604911 0.135280 0.448496
Si Si2 0.500000 0.937399 0.750000
Si Si3 0.784223 0.046490 0.972142
Si Si4 0.151875 0.622218 0.788412
Si Si5 0.986937 0.059754 0.353574
Si Si6 0.335888 0.749587 0.369441
O O1 0.498449 0.117722 0.350042
O O2 0.576281 0.189439 0.543156
O O3 0.717131 0.198740 0.411155
O O4 0.673345 0.033694 0.481896
O O5 0.627945 0.008879 0.769015
O O6 0.712435 0.128915 0.901524
O O7 0.891972 0.002247 0.910769
O O8 0.870009 0.071130 0.075980
O O9 0.227332 0.679127 0.716606
O O10 0.000000 0.658045 0.750000
O O11 0.918303 0.162645 0.336841
O O12 0.000000 0.016897 0.250000
#
# Coordination Sequence:
#
# PCOD9269322 Si02
#       6
#     8   4   8   8   8   8
#     4   9  19  36  55  79 109 149 185 228 274 336
#     4   8  18  36  54  76 108 140 192 218 268 338
#     4   9  20  39  57  85 111 147 195 226 273 341
#     4   9  19  36  56  81 113 141 183 235 272 332
#     4  10  21  37  59  83 114 149 186 234 279 331
#     4  10  20  34  55  80 116 144 181 234 282 322
#
# _framework density 22.466215999999999
#
# number of rings (size 3 to 8) (size 9 to 14) (size 15 to 20)
#    0.545    2.182    0.000    0.545    2.545    2.182 
#    0.000    3.636    0.000    0.000    0.000    0.000 
#    0.000    0.000    0.000    0.000    0.000    0.000 
#
# Total GULP energy -122647.065350 kJ/mol
# GULP energy per Si atom -5574.866607 kJ/mol
# Density = 2.241508 g / cm^3
# Si number density = 22.466216 Si / 1000 Ang^3
#
#
#
# Elastic Constant Matrix: (Units=GPa)
#
#
# Indices 1 2 3 4 5 6 
#
# 1 35.4804 -4.1369 18.5108 0.0000 15.8865 0.0000
# 2 -4.1369 33.7058 11.0516 0.0000 -4.3982 0.0000
# 3 18.5108 11.0516 98.2625 0.0000 21.2370 0.0000
# 4 0.0000 0.0000 0.0000 23.4149 0.0000 0.0329
# 5 15.8865 -4.3982 21.2370 0.0000 34.5136 0.0000
# 6 0.0000 0.0000 0.0000 0.0329 0.0000 0.4149
#
#
#
# Elastic Compliance Matrix: (Units=1/GPa)
#
#
# Indices 1 2 3 4 5 6 
#
# 1 0.037215 0.004240 -0.004501 0.000000 -0.013820 0.000000
# 2 0.004240 0.032821 -0.005735 0.000000 0.005760 0.000000
# 3 -0.004501 -0.005735 0.013125 0.000000 -0.006736 0.000000
# 4 0.000000 0.000000 0.000000 0.042713 0.000000 -0.003388
# 5 -0.013820 0.005760 -0.006736 0.000000 0.040214 0.000000
# 6 0.000000 0.000000 0.000000 -0.003388 0.000000 2.410497
#
#
# Mechanical properties :
#
#
# Convention : Reuss Voigt Hill
#
# Bulk Modulus (GPa) = 14.05083 24.25552 19.15317
# Shear Modulus (GPa) = 1.91402 21.13690 11.52546
#
# Velocity S-wave (km/s) = 0.92402 3.07062 2.26744
# Velocity P-wave (km/s) = 2.72143 4.83648 3.92414
#
# Compressibility (1/GPa) = 0.07117018
#
# Stress axis : x y z
#
# Youngs Moduli (GPa) = 26.87085 30.46843 76.18835
#
# Poissons Ratio (x) = -0.12918 0.34289
# Poissons Ratio (y) = -0.11393 0.43693
# Poissons Ratio (z) = 0.12093 0.17473
#
# Static dielectric constant tensor:
#      x y z
#    x 1.885050 0.000000 -0.019840 
#    y 0.000000 1.825410 0.000000 
#    z -0.019840 0.000000 1.906030 
# 
# From -- ./inp_files/86174.got.cif
#   From: 2010.05.17/outbox.cif.g08.bks.cpg/sg15_44_cif.got.tgz:86174.got - 2010.06.03 18:47:42.
