data_PCOD9269219
_publ_section_title
;
Structure prediction by ZEFSAII (Michael W. Deem and Ramdas Pophale) SiO2 
 PCOD9269219
Probable space group: C 2/C
;
_chemical_formula_sum "Si O2"
_cell_formula_units_Z 56
_cell_length_a 11.367803
_cell_length_b 33.754808
_cell_length_c 8.852856
_cell_angle_alpha 90.000000
_cell_angle_beta 60.255415
_cell_angle_gamma 90.000000
_cell_volume 2949.430901
_symmetry_space_group_name_H-M "C 2/C"
_symmetry_group_IT_number 15
_symmetry_cell_setting 'monoclinic'
loop_
_space_group_symop_operation_xyz
x,y,z
-x,y,1/2-z
-x,-y,-z
x,-y,1/2+z
1/2+x,1/2+y,z
1/2-x,1/2+y,1/2-z
1/2-x,1/2-y,-z
1/2+x,1/2-y,1/2+z
loop_
_atom_site_type_symbol
_atom_site_label
_atom_site_fract_x
_atom_site_fract_y
_atom_site_fract_z
Si Si1 0.235246 0.209557 0.705805
Si Si2 0.130929 0.676095 0.583187
Si Si3 0.349107 0.632830 0.917836
Si Si4 0.853691 0.033005 0.259847
Si Si5 0.998172 0.268898 0.590448
Si Si6 0.651383 0.622726 0.222248
Si Si7 0.153209 0.955410 0.092209
O O1 0.289981 0.198817 0.835703
O O2 0.226314 0.169830 0.610615
O O3 0.348634 0.238222 0.560687
O O4 0.091797 0.230468 0.819214
O O5 0.238481 0.648265 0.434579
O O6 0.000000 0.657023 0.750000
O O7 0.072294 0.705830 0.495037
O O8 0.500000 0.634084 0.750000
O O9 0.287718 0.588804 0.924184
O O10 0.355639 0.634229 0.095926
O O11 0.802458 0.077002 0.327423
O O12 0.000000 0.032091 0.250000
O O13 0.782461 0.992925 0.362861
O O14 0.860304 0.033099 0.074746
O O15 0.000000 0.291232 0.750000
O O16 0.500000 0.627035 0.250000
O O17 0.000000 0.951266 0.250000
#
# Coordination Sequence:
#
# PCOD9269219 Si02
#       7
#     8   8   8   8   8   8   8
#     4  11  23  39  58  81 109 142 182 227 276 329
#     4  10  23  40  57  81 111 147 185 225 274 328
#     4  10  20  34  53  83 115 146 184 228 276 327
#     4   9  16  26  44  74 109 144 179 219 269 317
#     4  11  23  39  58  80 107 140 180 227 277 329
#     4  10  20  34  55  83 115 148 185 229 273 321
#     4   9  16  26  44  72 111 145 175 219 269 319
#
# _framework density 18.986715
#
# number of rings (size 3 to 8) (size 9 to 14) (size 15 to 20)
#    0.000    2.000    0.000    4.714    0.000    5.714 
#    0.000    0.000    0.000    0.000    0.000   17.000 
#    0.000    0.000    0.000    0.000    0.000    0.000 
#
# Total GULP energy -156072.604946 kJ/mol
# GULP energy per Si atom -5574.021605 kJ/mol
# Density = 1.894350 g / cm^3
# Si number density = 18.986715 Si / 1000 Ang^3
#
#
#
# Elastic Constant Matrix: (Units=GPa)
#
#
# Indices 1 2 3 4 5 6 
#
# 1 79.0227 53.2808 47.4122 0.0000 11.7366 0.0000
# 2 53.2808 108.5190 64.3436 0.0000 3.0275 0.0000
# 3 47.4122 64.3436 124.5825 0.0000 7.9272 0.0000
# 4 0.0000 0.0000 0.0000 23.9427 0.0000 6.6150
# 5 11.7366 3.0275 7.9272 0.0000 29.8908 0.0000
# 6 0.0000 0.0000 0.0000 6.6150 0.0000 -19.4086
#
#
#
# Elastic Compliance Matrix: (Units=1/GPa)
#
#
# Indices 1 2 3 4 5 6 
#
# 1 0.021218 -0.008208 -0.003416 0.000000 -0.006594 0.000000
# 2 -0.008208 0.016465 -0.005573 0.000000 0.003033 0.000000
# 3 -0.003416 -0.005573 0.012291 0.000000 -0.001354 0.000000
# 4 0.000000 0.000000 0.000000 0.038172 0.000000 0.013010
# 5 -0.006594 0.003033 -0.001354 0.000000 0.036096 0.000000
# 6 0.000000 0.000000 0.000000 0.013010 0.000000 -0.047089
#
#
# Mechanical properties :
#
#
# Convention : Reuss Voigt Hill
#
# Bulk Modulus (GPa) = 64.18583 71.35525 67.77054
# Shear Modulus (GPa) = 42.83051 16.69082 29.76066
#
# Velocity S-wave (km/s) = 4.75469 2.96814 3.96339
# Velocity P-wave (km/s) = 8.00137 7.02921 7.53099
#
# Compressibility (1/GPa) = 0.01557976
#
# Stress axis : x y z
#
# Youngs Moduli (GPa) = 47.13037 60.73617 81.35922
#
# Poissons Ratio (x) = 0.49853 0.27792
# Poissons Ratio (y) = 0.38685 0.45340
# Poissons Ratio (z) = 0.16099 0.33847
#
# Static dielectric constant tensor:
#      x y z
#    x 1.668520 0.000000 0.016680 
#    y 0.000000 1.720220 0.000000 
#    z 0.016680 0.000000 1.665050 
# 
# From -- ./inp_files/35576.got.cif
#   From: 2010.05.17/outbox.cif.g08.bks.cpg/sg15_18_cif.got.tgz:35576.got - 2010.06.03 18:47:42.
