data_PCOD9269236
_publ_section_title
;
Structure prediction by ZEFSAII (Michael W. Deem and Ramdas Pophale) SiO2 
 PCOD9269236
Probable space group: C 2/C
;
_chemical_formula_sum "Si O2"
_cell_formula_units_Z 40
_cell_length_a 20.259372
_cell_length_b 18.416678
_cell_length_c 5.196682
_cell_angle_alpha 90.000000
_cell_angle_beta 73.809060
_cell_angle_gamma 90.000000
_cell_volume 1862.033262
_symmetry_space_group_name_H-M "C 2/C"
_symmetry_group_IT_number 15
_symmetry_cell_setting 'monoclinic'
loop_
_space_group_symop_operation_xyz
x,y,z
-x,y,1/2-z
-x,-y,-z
x,-y,1/2+z
1/2+x,1/2+y,z
1/2-x,1/2+y,1/2-z
1/2-x,1/2-y,-z
1/2+x,1/2-y,1/2+z
loop_
_atom_site_type_symbol
_atom_site_label
_atom_site_fract_x
_atom_site_fract_y
_atom_site_fract_z
Si Si1 0.735767 0.185595 0.226154
Si Si2 0.634907 0.468826 0.353012
Si Si3 0.710609 0.973709 0.694468
Si Si4 0.925648 0.179372 0.737777
Si Si5 0.367139 0.733449 0.303177
O O1 0.717186 0.110286 0.115856
O O2 0.677763 0.206213 0.498616
O O3 0.805739 0.175507 0.314350
O O4 0.750000 0.250000 0.000000
O O5 0.603645 0.477203 0.671568
O O6 0.714214 0.491243 0.320191
O O7 0.624017 0.390220 0.240309
O O8 0.675262 0.018116 0.508230
O O9 0.922474 0.211615 0.455603
O O10 0.000000 0.154665 0.750000
O O11 0.900041 0.236431 0.983607
#
# Coordination Sequence:
#
# PCOD9269236 Si02
#       5
#     8   8   8   8   8
#     4  11  23  38  66  89 121 165 212 266 324 371
#     4  10  20  34  54  76 114 161 213 245 294 341
#     4  10  21  34  55  84 122 156 199 248 313 368
#     4  12  24  40  59  86 125 171 215 260 294 362
#     4  11  23  38  60  87 117 158 215 259 316 359
#
# _framework density 21.481891000000001
#
# number of rings (size 3 to 8) (size 9 to 14) (size 15 to 20)
#    0.000    1.200    2.000    6.600    5.600    0.800 
#    0.000    0.000    0.000    0.000    0.000    0.000 
#    0.000   16.000    0.000    0.000    0.000    0.000 
#
# Total GULP energy -111384.595782 kJ/mol
# GULP energy per Si atom -5569.229789 kJ/mol
# Density = 2.143300 g / cm^3
# Si number density = 21.481891 Si / 1000 Ang^3
#
#
#
# Elastic Constant Matrix: (Units=GPa)
#
#
# Indices 1 2 3 4 5 6 
#
# 1 38.2070 -5.3106 27.3697 0.0000 16.7862 0.0000
# 2 -5.3106 78.1707 35.5781 0.0000 2.4980 0.0000
# 3 27.3697 35.5781 143.0341 0.0000 38.0506 0.0000
# 4 0.0000 0.0000 0.0000 27.2261 0.0000 6.8880
# 5 16.7862 2.4980 38.0506 0.0000 35.4015 0.0000
# 6 0.0000 0.0000 0.0000 6.8880 0.0000 12.6894
#
#
#
# Elastic Compliance Matrix: (Units=1/GPa)
#
#
# Indices 1 2 3 4 5 6 
#
# 1 0.035642 0.005023 -0.004873 0.000000 -0.012017 0.000000
# 2 0.005023 0.015544 -0.005465 0.000000 0.002395 0.000000
# 3 -0.004873 -0.005465 0.011996 0.000000 -0.010197 0.000000
# 4 0.000000 0.000000 0.000000 0.042576 0.000000 -0.023111
# 5 -0.012017 0.002395 -0.010197 0.000000 0.044737 0.000000
# 6 0.000000 0.000000 0.000000 -0.023111 0.000000 0.091351
#
#
# Mechanical properties :
#
#
# Convention : Reuss Voigt Hill
#
# Bulk Modulus (GPa) = 19.02834 41.63179 30.33007
# Shear Modulus (GPa) = 18.51900 28.51505 23.51703
#
# Velocity S-wave (km/s) = 2.93930 3.64730 3.31227
# Velocity P-wave (km/s) = 4.51623 6.09583 5.36449
#
# Compressibility (1/GPa) = 0.05255318
#
# Stress axis : x y z
#
# Youngs Moduli (GPa) = 28.05702 64.33154 83.36250
#
# Poissons Ratio (x) = -0.32314 0.40619
# Poissons Ratio (y) = -0.14093 0.45556
# Poissons Ratio (z) = 0.13671 0.35156
#
# Static dielectric constant tensor:
#      x y z
#    x 1.786270 0.000000 -0.036660 
#    y 0.000000 1.810510 0.000000 
#    z -0.036660 0.000000 2.046560 
# 
# From -- ./inp_files/12749.got.cif
#   From: 2010.05.17/outbox.cif.g08.bks.cpg/sg15_7_cif.got.tgz:12749.got - 2010.06.03 18:47:42.
