data_PCOD9269554
_publ_section_title
;
Structure prediction by ZEFSAII (Michael W. Deem and Ramdas Pophale) SiO2 
 PCOD9269554
Probable space group: C 2/C
;
_chemical_formula_sum "Si O2"
_cell_formula_units_Z 36
_cell_length_a 15.363199
_cell_length_b 19.634181
_cell_length_c 17.945795
_cell_angle_alpha 90.000000
_cell_angle_beta 164.269061
_cell_angle_gamma 90.000000
_cell_volume 1467.638519
_symmetry_space_group_name_H-M "C 2/C"
_symmetry_group_IT_number 15
_symmetry_cell_setting 'monoclinic'
loop_
_space_group_symop_operation_xyz
x,y,z
-x,y,1/2-z
-x,-y,-z
x,-y,1/2+z
1/2+x,1/2+y,z
1/2-x,1/2+y,1/2-z
1/2-x,1/2-y,-z
1/2+x,1/2-y,1/2+z
loop_
_atom_site_type_symbol
_atom_site_label
_atom_site_fract_x
_atom_site_fract_y
_atom_site_fract_z
Si Si1 0.500327 0.793186 0.111131
Si Si2 0.500000 0.892237 0.750000
Si Si3 0.948289 0.889872 0.994294
Si Si4 0.500000 0.486037 0.250000
Si Si5 0.500000 0.119790 0.750000
Si Si6 0.898753 0.037913 0.312534
O O1 0.373645 0.832370 0.079775
O O2 0.720359 0.732393 0.326432
O O3 0.755310 0.841595 0.279822
O O4 0.709918 0.857173 0.858598
O O5 0.248754 0.939079 0.498573
O O6 0.767769 0.912621 0.768935
O O7 0.074632 0.962459 0.130799
O O8 0.288330 0.527634 0.136246
O O9 0.237748 0.072448 0.572069
#
# Coordination Sequence:
#
# PCOD9269554 Si02
#       6
#     8   4   8   4   4   8
#     4  11  25  44  65  91 126 172 218 259 310 380
#     4  10  21  38  58  85 122 165 209 258 308 368
#     4   9  20  39  63  91 128 167 214 264 314 377
#     4  10  20  34  57  91 131 163 196 248 326 394
#     4  10  21  40  67  96 129 162 205 268 330 384
#     4   9  18  35  62  97 128 163 205 263 332 381
#
# _framework density 24.529201
#
# number of rings (size 3 to 8) (size 9 to 14) (size 15 to 20)
#    0.000    2.222    0.000    3.333    0.000    8.000 
#    0.000    3.333    0.000    0.000    0.000    0.000 
#    0.000    0.000    0.000    0.000    0.000    0.000 
#
# Total GULP energy -100620.107605 kJ/mol
# GULP energy per Si atom -5590.005978 kJ/mol
# Density = 2.447337 g / cm^3
# Si number density = 24.529201 Si / 1000 Ang^3
#
#
#
# Elastic Constant Matrix: (Units=GPa)
#
#
# Indices 1 2 3 4 5 6 
#
# 1 173.0534 28.6628 33.9414 0.0170 19.3207 0.3573
# 2 28.6628 76.9297 18.8563 0.1995 14.2086 1.0889
# 3 33.9414 18.8563 85.1376 0.2387 0.7277 0.5860
# 4 0.0170 0.1995 0.2387 32.9944 0.1805 -2.2092
# 5 19.3207 14.2086 0.7277 0.1805 45.2910 0.3819
# 6 0.3573 1.0889 0.5860 -2.2092 0.3819 -18.8837
#
#
#
# Elastic Compliance Matrix: (Units=1/GPa)
#
#
# Indices 1 2 3 4 5 6 
#
# 1 0.006751 -0.001503 -0.002338 0.000030 -0.002370 -0.000083
# 2 -0.001503 0.014948 -0.002682 -0.000003 -0.004011 0.000670
# 3 -0.002338 -0.002682 0.013256 -0.000070 0.001624 0.000254
# 4 0.000030 -0.000003 -0.000070 0.030073 -0.000101 -0.003522
# 5 -0.002370 -0.004011 0.001624 -0.000101 0.024321 0.000278
# 6 -0.000083 0.000670 0.000254 -0.003522 0.000278 -0.052493
#
#
# Mechanical properties :
#
#
# Convention : Reuss Voigt Hill
#
# Bulk Modulus (GPa) = 45.64263 55.33795 50.49029
# Shear Modulus (GPa) = 87.40702 28.79102 58.09902
#
# Velocity S-wave (km/s) = 5.97589 3.42971 4.87207
# Velocity P-wave (km/s) = 8.14020 6.18813 7.23034
#
# Compressibility (1/GPa) = 0.02190934
#
# Stress axis : x y z
#
# Youngs Moduli (GPa) = 148.12998 66.90050 75.43700
#
# Poissons Ratio (x) = 0.10058 0.17634
# Poissons Ratio (y) = 0.22271 0.20229
# Poissons Ratio (z) = 0.34627 0.17940
#
# Static dielectric constant tensor:
#      x y z
#    x 2.034110 -0.000200 -0.018760 
#    y -0.000200 1.962210 -0.000620 
#    z -0.018760 -0.000620 1.997910 
# 
# From -- ./inp_files/206864.got.cif
#   From: 2010.05.17/outbox.cif.g08.bks.cpg/sg15_104_cif.got.tgz:206864.got - 2010.06.03 18:47:42.
