data_PCOD9269132
_publ_section_title
;
Structure prediction by ZEFSAII (Michael W. Deem and Ramdas Pophale) SiO2 
 PCOD9269132
Probable space group: C 2/C
;
_chemical_formula_sum "Si O2"
_cell_formula_units_Z 56
_cell_length_a 23.080646
_cell_length_b 11.978924
_cell_length_c 25.916645
_cell_angle_alpha 90.000000
_cell_angle_beta 158.688921
_cell_angle_gamma 90.000000
_cell_volume 2604.155857
_symmetry_space_group_name_H-M "C 2/C"
_symmetry_group_IT_number 15
_symmetry_cell_setting 'monoclinic'
loop_
_space_group_symop_operation_xyz
x,y,z
-x,y,1/2-z
-x,-y,-z
x,-y,1/2+z
1/2+x,1/2+y,z
1/2-x,1/2+y,1/2-z
1/2-x,1/2-y,-z
1/2+x,1/2-y,1/2+z
loop_
_atom_site_type_symbol
_atom_site_label
_atom_site_fract_x
_atom_site_fract_y
_atom_site_fract_z
Si Si1 0.178397 0.354212 0.973730
Si Si2 0.363845 0.159487 0.899304
Si Si3 0.500000 0.008788 0.750000
Si Si4 0.776275 0.971748 0.407535
Si Si5 0.501116 0.673512 0.634579
Si Si6 0.956142 0.113944 0.433624
Si Si7 0.129655 0.521484 0.174678
Si Si8 0.500000 0.394261 0.250000
O O1 0.097257 0.288041 0.953129
O O2 0.054318 0.423286 0.838974
O O3 0.250000 0.250000 0.000000
O O4 0.323770 0.442357 0.099708
O O5 0.226855 0.909358 0.734312
O O6 0.177148 0.171280 0.757656
O O7 0.367434 0.102901 0.845701
O O8 0.464882 0.075212 0.018853
O O9 0.348782 0.067002 0.652171
O O10 0.886008 0.073211 0.520875
O O11 0.678756 0.014028 0.275650
O O12 0.907144 0.881790 0.496296
O O13 0.528807 0.667421 0.719448
O O14 0.947703 0.220352 0.463804
O O15 0.000000 0.000000 0.500000
#
# Coordination Sequence:
#
# PCOD9269132 Si02
#       8
#     8   8   4   8   8   8   8   4
#     4  10  20  34  51  87 124 177 211 252 323 400
#     4  11  25  44  70  94 135 175 224 280 321 400
#     4  12  23  40  58  88 137 176 218 281 326 405
#     4  11  24  43  62  96 136 166 227 267 340 401
#     4  11  23  36  60  91 136 177 211 265 333 409
#     4  10  24  42  63  98 134 171 218 269 333 392
#     4  10  25  44  66 101 125 178 228 269 340 386
#     4  10  21  34  52  88 129 168 220 245 330 407
#
# _framework density 21.504090000000001
#
# number of rings (size 3 to 8) (size 9 to 14) (size 15 to 20)
#    0.000    1.429    4.286    1.714   10.000    0.000 
#    0.000    0.000    0.000    0.857    0.000    1.000 
#    0.000    0.000    0.000    0.000    0.000    0.000 
#
# Total GULP energy -155898.422657 kJ/mol
# GULP energy per Si atom -5567.800809 kJ/mol
# Density = 2.145515 g / cm^3
# Si number density = 21.504090 Si / 1000 Ang^3
#
#
#
# Elastic Constant Matrix: (Units=GPa)
#
#
# Indices 1 2 3 4 5 6 
#
# 1 133.4930 31.6592 45.1681 -0.0008 32.1013 -0.0003
# 2 31.6592 47.8096 17.1108 -0.0023 6.2742 -0.0001
# 3 45.1681 17.1108 125.4547 -0.0026 22.3260 -0.0004
# 4 -0.0008 -0.0023 -0.0026 9.8948 -0.0001 -3.9526
# 5 32.1013 6.2742 22.3260 -0.0001 41.5947 0.0001
# 6 -0.0003 -0.0001 -0.0004 -3.9526 0.0001 19.3940
#
#
#
# Elastic Compliance Matrix: (Units=1/GPa)
#
#
# Indices 1 2 3 4 5 6 
#
# 1 0.011149 -0.005780 -0.002045 -0.000001 -0.006635 0.000000
# 2 -0.005780 0.025121 -0.001619 0.000005 0.001541 0.000001
# 3 -0.002045 -0.001619 0.009512 0.000002 -0.003283 0.000001
# 4 -0.000001 0.000005 0.000002 0.110021 -0.000001 0.022423
# 5 -0.006635 0.001541 -0.003283 -0.000001 0.030692 0.000000
# 6 0.000000 0.000001 0.000001 0.022423 0.000000 0.056132
#
#
# Mechanical properties :
#
#
# Convention : Reuss Voigt Hill
#
# Bulk Modulus (GPa) = 37.18356 54.95930 46.07143
# Shear Modulus (GPa) = 18.48549 28.36463 23.42506
#
# Velocity S-wave (km/s) = 2.93512 3.63579 3.30408
# Velocity P-wave (km/s) = 5.36801 6.57559 6.00225
#
# Compressibility (1/GPa) = 0.02689361
#
# Stress axis : x y z
#
# Youngs Moduli (GPa) = 89.69079 39.80670 105.12553
#
# Poissons Ratio (x) = 0.23010 0.21498
# Poissons Ratio (y) = 0.51845 0.17024
# Poissons Ratio (z) = 0.18342 0.06446
#
# Static dielectric constant tensor:
#      x y z
#    x 1.888350 0.000000 0.029550 
#    y 0.000000 1.770570 0.000000 
#    z 0.029550 0.000000 1.956090 
# 
# From -- ./inp_files/302487.got.cif
#   From: 2010.05.17/outbox.cif.g08.bks.cpg/sg15_152_cif.got.tgz:302487.got - 2010.06.03 18:47:42.
