data_PCOD9269221
_publ_section_title
;
Structure prediction by ZEFSAII (Michael W. Deem and Ramdas Pophale) SiO2 
 PCOD9269221
Probable space group: C 2/C
;
_chemical_formula_sum "Si O2"
_cell_formula_units_Z 56
_cell_length_a 15.817802
_cell_length_b 25.412317
_cell_length_c 9.733635
_cell_angle_alpha 90.000000
_cell_angle_beta 127.132134
_cell_angle_gamma 90.000000
_cell_volume 3119.302772
_symmetry_space_group_name_H-M "C 2/C"
_symmetry_group_IT_number 15
_symmetry_cell_setting 'monoclinic'
loop_
_space_group_symop_operation_xyz
x,y,z
-x,y,1/2-z
-x,-y,-z
x,-y,1/2+z
1/2+x,1/2+y,z
1/2-x,1/2+y,1/2-z
1/2-x,1/2-y,-z
1/2+x,1/2-y,1/2+z
loop_
_atom_site_type_symbol
_atom_site_label
_atom_site_fract_x
_atom_site_fract_y
_atom_site_fract_z
Si Si1 0.773652 0.166960 0.500537
Si Si2 0.588873 0.616418 0.637452
Si Si3 0.404018 0.766197 0.550396
Si Si4 0.594521 0.218106 0.762695
Si Si5 0.322584 0.673056 0.040153
Si Si6 0.342029 0.395413 0.828599
Si Si7 0.581344 0.501339 0.702712
O O1 0.858759 0.155881 0.703744
O O2 0.663503 0.184055 0.460815
O O3 0.821522 0.217588 0.469320
O O4 0.768917 0.119505 0.386253
O O5 0.623104 0.635481 0.519651
O O6 0.461285 0.613911 0.505970
O O7 0.628671 0.559645 0.733412
O O8 0.500000 0.757158 0.750000
O O9 0.438686 0.772294 0.427025
O O10 0.500000 0.189776 0.750000
O O11 0.617383 0.272084 0.870102
O O12 0.705321 0.187366 0.873524
O O13 0.320231 0.644119 0.183377
O O14 0.341340 0.452959 0.756486
O O15 0.500000 0.494480 0.750000
O O16 0.500000 0.500000 0.500000
#
# Coordination Sequence:
#
# PCOD9269221 Si02
#       7
#     8   8   8   8   8   8   8
#     4  11  23  36  55  83 113 148 191 223 280 340
#     4  11  20  36  54  81 118 152 183 226 276 335
#     4  11  24  39  57  81 113 148 191 239 276 327
#     4  11  24  39  56  81 113 149 189 240 277 325
#     4  11  23  36  55  83 115 148 192 225 279 343
#     4  11  20  34  56  84 113 152 181 225 281 338
#     4  10  20  34  53  83 116 149 188 228 276 338
#
# _framework density 17.952729999999999
#
# number of rings (size 3 to 8) (size 9 to 14) (size 15 to 20)
#    0.000    1.143    2.857    6.000    4.000    0.000 
#    0.000    0.000    0.000    0.000    0.000    6.000 
#    0.000    0.000    0.000    0.000    0.000    0.000 
#
# Total GULP energy -156128.090928 kJ/mol
# GULP energy per Si atom -5576.003247 kJ/mol
# Density = 1.791187 g / cm^3
# Si number density = 17.952730 Si / 1000 Ang^3
#
#
#
# Elastic Constant Matrix: (Units=GPa)
#
#
# Indices 1 2 3 4 5 6 
#
# 1 79.9943 19.2522 19.4276 0.0000 -20.3574 0.0000
# 2 19.2522 60.9951 2.3635 0.0000 -3.7077 0.0000
# 3 19.4276 2.3635 58.7421 0.0000 -21.6110 0.0000
# 4 0.0000 0.0000 0.0000 19.9129 0.0000 -4.8976
# 5 -20.3574 -3.7077 -21.6110 0.0000 35.8801 0.0000
# 6 0.0000 0.0000 0.0000 -4.8976 0.0000 21.2164
#
#
#
# Elastic Compliance Matrix: (Units=1/GPa)
#
#
# Indices 1 2 3 4 5 6 
#
# 1 0.016005 -0.004523 -0.002495 0.000000 0.007110 0.000000
# 2 -0.004523 0.017777 0.000658 0.000000 -0.000333 0.000000
# 3 -0.002495 0.000658 0.022259 0.000000 0.012059 0.000000
# 4 0.000000 0.000000 0.000000 0.053242 0.000000 0.012290
# 5 0.007110 -0.000333 0.012059 0.000000 0.039134 0.000000
# 6 0.000000 0.000000 0.000000 0.012290 0.000000 0.049970
#
#
# Mechanical properties :
#
#
# Convention : Reuss Voigt Hill
#
# Bulk Modulus (GPa) = 23.08393 31.31315 27.19854
# Shear Modulus (GPa) = 22.16841 25.98109 24.07475
#
# Velocity S-wave (km/s) = 3.51781 3.80833 3.66595
# Velocity P-wave (km/s) = 5.42090 6.06776 5.75342
#
# Compressibility (1/GPa) = 0.04332018
#
# Stress axis : x y z
#
# Youngs Moduli (GPa) = 62.48074 56.25380 44.92599
#
# Poissons Ratio (x) = 0.25443 0.11211
# Poissons Ratio (y) = 0.28259 -0.02957
# Poissons Ratio (z) = 0.15591 -0.03702
#
# Static dielectric constant tensor:
#      x y z
#    x 1.636270 0.000000 -0.018840 
#    y 0.000000 1.845690 0.000000 
#    z -0.018840 0.000000 1.597000 
# 
# From -- ./inp_files/43447.got.cif
#   From: 2010.05.17/outbox.cif.g08.bks.cpg/sg15_22_cif.got.tgz:43447.got - 2010.06.03 18:47:42.
