data_PCOD9269013
_publ_section_title
;
Structure prediction by ZEFSAII (Michael W. Deem and Ramdas Pophale) SiO2 
 PCOD9269013
Probable space group: C 2/C
;
_chemical_formula_sum "Si O2"
_cell_formula_units_Z 40
_cell_length_a 9.399579
_cell_length_b 21.259229
_cell_length_c 15.711266
_cell_angle_alpha 90.000000
_cell_angle_beta 37.892699
_cell_angle_gamma 90.000000
_cell_volume 1928.262025
_symmetry_space_group_name_H-M "C 2/C"
_symmetry_group_IT_number 15
_symmetry_cell_setting 'monoclinic'
loop_
_space_group_symop_operation_xyz
x,y,z
-x,y,1/2-z
-x,-y,-z
x,-y,1/2+z
1/2+x,1/2+y,z
1/2-x,1/2+y,1/2-z
1/2-x,1/2-y,-z
1/2+x,1/2-y,1/2+z
loop_
_atom_site_type_symbol
_atom_site_label
_atom_site_fract_x
_atom_site_fract_y
_atom_site_fract_z
Si Si1 0.476214 0.271401 0.443352
Si Si2 0.249541 0.030041 0.863754
Si Si3 0.340400 0.854940 0.453462
Si Si4 0.823776 0.110876 0.757334
Si Si5 0.062443 0.222634 0.335028
O O1 0.250000 0.250000 0.500000
O O2 0.570702 0.335259 0.354443
O O3 0.687229 0.223966 0.324955
O O4 0.420669 0.277669 0.569455
O O5 0.500000 0.994628 0.750000
O O6 0.293781 0.090705 0.905594
O O7 0.215457 0.051553 0.783277
O O8 0.000000 0.000000 0.000000
O O9 0.561114 0.871576 0.407366
O O10 0.428958 0.787682 0.373436
O O11 0.100384 0.835993 0.609308
O O12 0.000000 0.102391 0.750000
#
# Coordination Sequence:
#
# PCOD9269013 Si02
#       5
#     8   8   8   8   8
#     4  11  20  34  54  92 129 162 198 252 307 376
#     4  10  21  42  67  86 118 166 216 261 321 372
#     4   9  19  36  59  85 115 163 204 246 307 381
#     4  10  20  37  62  85 118 164 205 247 315 375
#     4  10  20  33  60  85 122 167 206 242 314 383
#
# _framework density 20.744067999999999
#
# number of rings (size 3 to 8) (size 9 to 14) (size 15 to 20)
#    0.000    2.000    2.000    3.000    2.800    2.400 
#    3.600    4.000    4.400    0.000    0.000    0.000 
#    0.000    0.000    0.000    0.000    0.000    0.000 
#
# Total GULP energy -111468.945808 kJ/mol
# GULP energy per Si atom -5573.447290 kJ/mol
# Density = 2.069685 g / cm^3
# Si number density = 20.744068 Si / 1000 Ang^3
#
#
#
# Elastic Constant Matrix: (Units=GPa)
#
#
# Indices 1 2 3 4 5 6 
#
# 1 190.8956 27.9969 70.2717 0.0005 -16.1081 -0.0004
# 2 27.9969 22.9237 17.8996 -0.0003 -13.4768 0.0001
# 3 70.2717 17.8996 131.0506 0.0033 -26.1142 -0.0013
# 4 0.0005 -0.0003 0.0033 26.2508 -0.0013 -2.9834
# 5 -16.1081 -13.4768 -26.1142 -0.0013 48.1432 0.0005
# 6 -0.0004 0.0001 -0.0013 -2.9834 0.0005 15.3829
#
#
#
# Elastic Compliance Matrix: (Units=1/GPa)
#
#
# Indices 1 2 3 4 5 6 
#
# 1 0.007382 -0.007268 -0.003228 0.000000 -0.001316 0.000000
# 2 -0.007268 0.062127 -0.001802 0.000002 0.013982 -0.000001
# 3 -0.003228 -0.001802 0.010418 -0.000001 0.004067 0.000000
# 4 0.000000 0.000002 -0.000001 0.038953 0.000001 0.007555
# 5 -0.001316 0.013982 0.004067 0.000001 0.026451 -0.000001
# 6 0.000000 -0.000001 0.000000 0.007555 -0.000001 0.066472
#
#
# Mechanical properties :
#
#
# Convention : Reuss Voigt Hill
#
# Bulk Modulus (GPa) = 18.07325 64.13401 41.10363
# Shear Modulus (GPa) = 19.62002 33.20216 26.41109
#
# Velocity S-wave (km/s) = 3.07874 4.00504 3.57205
# Velocity P-wave (km/s) = 4.62273 7.23679 6.07210
#
# Compressibility (1/GPa) = 0.05533038
#
# Stress axis : x y z
#
# Youngs Moduli (GPa) = 135.47293 16.09606 95.98995
#
# Poissons Ratio (x) = 0.11699 0.30981
# Poissons Ratio (y) = 0.98468 0.17298
# Poissons Ratio (z) = 0.43724 0.02901
#
# Static dielectric constant tensor:
#      x y z
#    x 1.787740 0.000000 -0.013850 
#    y 0.000000 1.801840 0.000000 
#    z -0.013850 0.000000 1.818290 
# 
# From -- ./inp_files/137100.got.cif
#   From: 2010.05.17/outbox.cif.g08.bks.cpg/sg15_69_cif.got.tgz:137100.got - 2010.06.03 18:47:42.
