data_PCOD9269124
_publ_section_title
;
Structure prediction by ZEFSAII (Michael W. Deem and Ramdas Pophale) SiO2 
 PCOD9269124
Probable space group: C 2/C
;
_chemical_formula_sum "Si O2"
_cell_formula_units_Z 60
_cell_length_a 24.015533
_cell_length_b 12.090377
_cell_length_c 11.230668
_cell_angle_alpha 90.000000
_cell_angle_beta 114.148086
_cell_angle_gamma 90.000000
_cell_volume 2975.543667
_symmetry_space_group_name_H-M "C 2/C"
_symmetry_group_IT_number 15
_symmetry_cell_setting 'monoclinic'
loop_
_space_group_symop_operation_xyz
x,y,z
-x,y,1/2-z
-x,-y,-z
x,-y,1/2+z
1/2+x,1/2+y,z
1/2-x,1/2+y,1/2-z
1/2-x,1/2-y,-z
1/2+x,1/2-y,1/2+z
loop_
_atom_site_type_symbol
_atom_site_label
_atom_site_fract_x
_atom_site_fract_y
_atom_site_fract_z
Si Si1 0.395548 0.308683 0.494127
Si Si2 0.237896 0.472032 0.899521
Si Si3 0.799808 0.870997 0.611564
Si Si4 0.000000 0.872715 0.750000
Si Si5 0.090541 0.966882 0.641866
Si Si6 0.641190 0.685211 0.002841
Si Si7 0.726354 0.176774 0.725754
Si Si8 0.847633 0.723068 0.228960
O O1 0.336955 0.330549 0.527108
O O2 0.451683 0.300083 0.633767
O O3 0.406671 0.417859 0.423556
O O4 0.383861 0.216044 0.384366
O O5 0.300641 0.400116 0.949501
O O6 0.230911 0.555740 0.783491
O O7 0.181237 0.390163 0.843694
O O8 0.245450 0.550833 0.020223
O O9 0.848030 0.942276 0.729689
O O10 0.779871 0.767646 0.673626
O O11 0.963635 0.947564 0.812900
O O12 0.090896 0.872761 0.540058
O O13 0.669345 0.792989 0.091976
O O14 0.620392 0.715226 0.852556
O O15 0.787784 0.204279 0.708689
#
# Coordination Sequence:
#
# PCOD9269124 Si02
#       8
#     8   8   8   4   8   8   8   8
#     4  11  21  39  54  84 113 147 191 237 289 341
#     4  11  19  33  52  81 116 162 190 225 259 340
#     4  10  20  34  56  81 118 159 186 226 279 326
#     4  10  24  38  62  86 102 150 194 240 298 350
#     4  10  20  38  60  79 117 146 185 235 292 348
#     4  10  21  35  50  80 119 157 175 226 291 335
#     4  10  20  34  51  81 118 156 200 221 260 335
#     4  11  23  33  52  79 118 158 189 223 290 329
#
# _framework density 20.164382
#
# number of rings (size 3 to 8) (size 9 to 14) (size 15 to 20)
#    0.000    1.600    2.667    3.200    1.867    5.333 
#    0.000    0.000    0.000    0.000    0.000    8.400 
#    0.000    0.000    0.000    0.000    0.000    0.000 
#
# Total GULP energy -167664.379835 kJ/mol
# GULP energy per Si atom -5588.812661 kJ/mol
# Density = 2.011849 g / cm^3
# Si number density = 20.164382 Si / 1000 Ang^3
#
#
#
# Elastic Constant Matrix: (Units=GPa)
#
#
# Indices 1 2 3 4 5 6 
#
# 1 66.8005 13.5104 36.5010 0.0000 -18.2311 0.0000
# 2 13.5104 60.7659 36.7123 0.0000 -2.6714 0.0000
# 3 36.5010 36.7123 136.2303 0.0000 -14.2695 0.0000
# 4 0.0000 0.0000 0.0000 22.5899 0.0000 -0.4300
# 5 -18.2311 -2.6714 -14.2695 0.0000 38.2379 0.0000
# 6 0.0000 0.0000 0.0000 -0.4300 0.0000 8.3637
#
#
#
# Elastic Compliance Matrix: (Units=1/GPa)
#
#
# Indices 1 2 3 4 5 6 
#
# 1 0.019594 -0.001594 -0.004010 0.000000 0.007734 0.000000
# 2 -0.001594 0.019801 -0.005041 0.000000 -0.001258 0.000000
# 3 -0.004010 -0.005041 0.009924 0.000000 0.001439 0.000000
# 4 0.000000 0.000000 0.000000 0.044311 0.000000 0.002278
# 5 0.007734 -0.001258 0.001439 0.000000 0.030289 0.000000
# 6 0.000000 0.000000 0.000000 0.002278 0.000000 0.119682
#
#
# Mechanical properties :
#
#
# Convention : Reuss Voigt Hill
#
# Bulk Modulus (GPa) = 35.67609 48.58270 42.12939
# Shear Modulus (GPa) = 18.23253 25.64314 21.93783
#
# Velocity S-wave (km/s) = 3.01025 3.56997 3.30199
# Velocity P-wave (km/s) = 5.46014 6.41393 5.95616
#
# Compressibility (1/GPa) = 0.02802998
#
# Stress axis : x y z
#
# Youngs Moduli (GPa) = 51.03479 50.50213 100.76303
#
# Poissons Ratio (x) = 0.08048 0.40411
# Poissons Ratio (y) = 0.08133 0.50794
# Poissons Ratio (z) = 0.20467 0.25458
#
# Static dielectric constant tensor:
#      x y z
#    x 1.710210 0.000000 0.000730 
#    y 0.000000 1.722610 0.000000 
#    z 0.000730 0.000000 1.808610 
# 
# From -- ./inp_files/122472.got.cif
#   From: 2010.05.17/outbox.cif.g08.bks.cpg/sg15_62_cif.got.tgz:122472.got - 2010.06.03 18:47:42.
