data_PCOD9269852
_publ_section_title
;
Structure prediction by ZEFSAII (Michael W. Deem and Ramdas Pophale) SiO2 
 PCOD9269852
Probable space group: C 2/C
;
_chemical_formula_sum "Si O2"
_cell_formula_units_Z 48
_cell_length_a 20.225996
_cell_length_b 6.855362
_cell_length_c 20.105684
_cell_angle_alpha 90.000000
_cell_angle_beta 40.044582
_cell_angle_gamma 90.000000
_cell_volume 1793.614331
_symmetry_space_group_name_H-M "C 2/C"
_symmetry_group_IT_number 15
_symmetry_cell_setting 'monoclinic'
loop_
_space_group_symop_operation_xyz
x,y,z
-x,y,1/2-z
-x,-y,-z
x,-y,1/2+z
1/2+x,1/2+y,z
1/2-x,1/2+y,1/2-z
1/2-x,1/2-y,-z
1/2+x,1/2-y,1/2+z
loop_
_atom_site_type_symbol
_atom_site_label
_atom_site_fract_x
_atom_site_fract_y
_atom_site_fract_z
Si Si1 0.832832 0.756023 0.119466
Si Si2 0.598800 0.446785 0.216211
Si Si3 0.116381 0.103889 0.340796
Si Si4 0.114975 0.587951 0.682429
Si Si5 0.041279 0.486920 0.875185
Si Si6 0.184711 0.489626 0.488828
O O1 0.724911 0.706815 0.239803
O O2 0.909424 0.615078 0.100042
O O3 0.815769 0.683906 0.057630
O O4 0.868885 0.976680 0.104562
O O5 0.500000 0.380860 0.250000
O O6 0.589383 0.448764 0.303192
O O7 0.609042 0.678733 0.193408
O O8 0.712308 0.372250 0.108959
O O9 0.037003 0.280410 0.395573
O O10 0.118258 0.485794 0.751849
O O11 0.185286 0.534280 0.566336
O O12 0.000000 0.534872 0.750000
O O13 0.928312 0.408049 0.942984
#
# Coordination Sequence:
#
# PCOD9269852 Si02
#       6
#     8   8   8   8   8   8
#     4  11  21  38  62  90 127 166 209 256 308 377
#     4   9  18  35  59  88 121 161 206 257 308 367
#     4  10  21  37  62  89 119 173 204 250 318 364
#     4   8  16  32  56  86 119 160 203 247 306 365
#     4  10  20  38  62  91 130 162 206 259 310 376
#     4  10  20  34  62  94 122 166 210 259 314 366
#
# _framework density 26.761604999999999
#
# number of rings (size 3 to 8) (size 9 to 14) (size 15 to 20)
#    0.000    2.333    1.667    2.000    0.000    0.667 
#    0.000    2.500    0.000    9.000    0.000    0.000 
#    0.000    0.000    0.000    0.000    0.000    0.000 
#
# Total GULP energy -134226.422376 kJ/mol
# GULP energy per Si atom -5592.767599 kJ/mol
# Density = 2.670069 g / cm^3
# Si number density = 26.761605 Si / 1000 Ang^3
#
#
#
# Elastic Constant Matrix: (Units=GPa)
#
#
# Indices 1 2 3 4 5 6 
#
# 1 164.1335 31.1184 62.2888 -0.0006 -11.1348 0.0004
# 2 31.1184 99.1917 28.0973 -0.0054 5.8154 0.0080
# 3 62.2888 28.0973 136.9036 0.0005 10.0889 0.0010
# 4 -0.0006 -0.0054 0.0005 25.9612 0.0003 8.6475
# 5 -11.1348 5.8154 10.0889 0.0003 62.9507 -0.0005
# 6 0.0004 0.0080 0.0010 8.6475 -0.0005 7.9057
#
#
#
# Elastic Compliance Matrix: (Units=1/GPa)
#
#
# Indices 1 2 3 4 5 6 
#
# 1 0.007823 -0.001618 -0.003380 -0.000001 0.002075 0.000003
# 2 -0.001618 0.011064 -0.001455 0.000009 -0.001075 -0.000021
# 3 -0.003380 -0.001455 0.009285 -0.000001 -0.001951 0.000001
# 4 -0.000001 0.000009 -0.000001 0.060597 -0.000002 -0.066283
# 5 0.002075 -0.001075 -0.001951 -0.000002 0.016665 0.000004
# 6 0.000003 -0.000021 0.000001 -0.066283 0.000004 0.198993
#
#
# Mechanical properties :
#
#
# Convention : Reuss Voigt Hill
#
# Bulk Modulus (GPa) = 65.51034 71.47085 68.49060
# Shear Modulus (GPa) = 15.50758 37.94515 26.72637
#
# Velocity S-wave (km/s) = 2.40983 3.76958 3.16362
# Velocity P-wave (km/s) = 5.68115 6.76097 6.24445
#
# Compressibility (1/GPa) = 0.01526476
#
# Stress axis : x y z
#
# Youngs Moduli (GPa) = 127.82919 90.37943 107.70348
#
# Poissons Ratio (x) = 0.14627 0.36404
# Poissons Ratio (y) = 0.20688 0.15673
# Poissons Ratio (z) = 0.43207 0.13152
#
# Static dielectric constant tensor:
#      x y z
#    x 2.068750 0.000000 0.008280 
#    y 0.000000 2.111600 0.000000 
#    z 0.008280 0.000000 2.186140 
# 
# From -- ./inp_files/251783.got.cif
#   From: 2010.05.17/outbox.cif.g08.bks.cpg/sg15_126_cif.got.tgz:251783.got - 2010.06.03 18:47:42.
