data_PCOD9269603
_publ_section_title
;
Structure prediction by ZEFSAII (Michael W. Deem and Ramdas Pophale) SiO2 
 PCOD9269603
Probable space group: C 2/C
;
_chemical_formula_sum "Si O2"
_cell_formula_units_Z 60
_cell_length_a 8.820995
_cell_length_b 23.996790
_cell_length_c 22.512699
_cell_angle_alpha 90.000000
_cell_angle_beta 139.807640
_cell_angle_gamma 90.000000
_cell_volume 3075.371127
_symmetry_space_group_name_H-M "C 2/C"
_symmetry_group_IT_number 15
_symmetry_cell_setting 'monoclinic'
loop_
_space_group_symop_operation_xyz
x,y,z
-x,y,1/2-z
-x,-y,-z
x,-y,1/2+z
1/2+x,1/2+y,z
1/2-x,1/2+y,1/2-z
1/2-x,1/2-y,-z
1/2+x,1/2-y,1/2+z
loop_
_atom_site_type_symbol
_atom_site_label
_atom_site_fract_x
_atom_site_fract_y
_atom_site_fract_z
Si Si1 0.230172 0.039808 0.359905
Si Si2 0.606751 0.227492 0.545954
Si Si3 0.508004 0.410326 0.018103
Si Si4 0.728031 0.987417 0.489237
Si Si5 0.547901 0.308189 0.109970
Si Si6 0.811258 0.842724 0.604574
Si Si7 0.234545 0.162309 0.148735
Si Si8 0.000000 0.248335 0.250000
O O1 0.208517 0.022173 0.422679
O O2 0.275799 0.106437 0.380529
O O3 0.000000 0.031732 0.250000
O O4 0.456629 0.006436 0.403879
O O5 0.526470 0.265623 0.465521
O O6 0.398846 0.183823 0.497261
O O7 0.669270 0.273534 0.613846
O O8 0.834795 0.193832 0.592398
O O9 0.385435 0.462200 0.012506
O O10 0.312552 0.375543 0.922926
O O11 0.702583 0.434438 0.030778
O O12 0.596006 0.367053 0.093590
O O13 0.785758 0.284995 0.209168
O O14 0.900906 0.792220 0.670920
O O15 0.042109 0.859813 0.637561
O O16 0.500000 0.158520 0.250000
#
# Coordination Sequence:
#
# PCOD9269603 Si02
#       8
#     8   8   8   8   8   8   8   4
#     4  11  23  41  66  92 123 159 217 265 322 383
#     4   9  19  34  55  84 125 158 197 243 314 367
#     4  10  21  40  62  85 125 164 210 256 319 377
#     4  10  23  42  63  91 123 164 210 270 321 372
#     4   9  18  35  56  83 115 164 195 245 304 375
#     4  11  20  35  60  89 120 164 204 260 313 376
#     4  11  22  34  59  94 124 160 216 265 305 373
#     4  10  20  34  58  86 122 152 204 256 308 372
#
# _framework density 19.509840000000001
#
# number of rings (size 3 to 8) (size 9 to 14) (size 15 to 20)
#    0.000    1.867    2.000    2.000    1.867    2.133 
#    2.400    1.333    0.000    1.600    0.000    0.000 
#    0.000    0.000    0.000    0.000    0.000    0.000 
#
# Total GULP energy -167309.081480 kJ/mol
# GULP energy per Si atom -5576.969383 kJ/mol
# Density = 1.946543 g / cm^3
# Si number density = 19.509840 Si / 1000 Ang^3
#
#
#
# Elastic Constant Matrix: (Units=GPa)
#
#
# Indices 1 2 3 4 5 6 
#
# 1 82.1416 38.8686 27.2376 0.0000 20.8300 -0.0001
# 2 38.8686 99.0462 57.1591 0.0000 15.4261 0.0000
# 3 27.2376 57.1591 80.3207 0.0000 23.9399 -0.0002
# 4 0.0000 0.0000 0.0000 24.8694 0.0000 -5.4493
# 5 20.8300 15.4261 23.9399 0.0000 24.0566 0.0000
# 6 -0.0001 0.0000 -0.0002 -5.4493 0.0000 34.2452
#
#
#
# Elastic Compliance Matrix: (Units=1/GPa)
#
#
# Indices 1 2 3 4 5 6 
#
# 1 0.017858 -0.006348 0.002640 0.000000 -0.014019 0.000000
# 2 -0.006348 0.019434 -0.013650 0.000000 0.006618 0.000000
# 3 0.002640 -0.013650 0.027497 0.000000 -0.020897 0.000000
# 4 0.000000 0.000000 0.000000 0.041663 0.000000 0.006630
# 5 -0.014019 0.006618 -0.020897 0.000000 0.070259 0.000000
# 6 0.000000 0.000000 0.000000 0.006630 0.000000 0.030256
#
#
# Mechanical properties :
#
#
# Convention : Reuss Voigt Hill
#
# Bulk Modulus (GPa) = 33.25235 56.44880 44.85057
# Shear Modulus (GPa) = 19.86451 25.85046 22.85749
#
# Velocity S-wave (km/s) = 3.19435 3.64400 3.42656
# Velocity P-wave (km/s) = 5.53950 6.83383 6.22042
#
# Compressibility (1/GPa) = 0.03007306
#
# Stress axis : x y z
#
# Youngs Moduli (GPa) = 55.99883 51.45645 36.36796
#
# Poissons Ratio (x) = 0.32665 -0.09602
# Poissons Ratio (y) = 0.35549 0.49641
# Poissons Ratio (z) = -0.14785 0.70237
#
# Static dielectric constant tensor:
#      x y z
#    x 1.708250 0.000000 -0.005760 
#    y 0.000000 1.693800 0.000000 
#    z -0.005760 0.000000 1.684500 
# 
# From -- ./inp_files/234611.got.cif
#   From: 2010.05.17/outbox.cif.g08.bks.cpg/sg15_118_cif.got.tgz:234611.got - 2010.06.03 18:47:42.
