data_PCOD9269762
_publ_section_title
;
Structure prediction by ZEFSAII (Michael W. Deem and Ramdas Pophale) SiO2 
 PCOD9269762
Probable space group: C 2/C
;
_chemical_formula_sum "Si O2"
_cell_formula_units_Z 16
_cell_length_a 8.314683
_cell_length_b 4.977066
_cell_length_c 16.918889
_cell_angle_alpha 90.000000
_cell_angle_beta 133.773624
_cell_angle_gamma 90.000000
_cell_volume 505.563275
_symmetry_space_group_name_H-M "C 2/C"
_symmetry_group_IT_number 15
_symmetry_cell_setting 'monoclinic'
loop_
_space_group_symop_operation_xyz
x,y,z
-x,y,1/2-z
-x,-y,-z
x,-y,1/2+z
1/2+x,1/2+y,z
1/2-x,1/2+y,1/2-z
1/2-x,1/2-y,-z
1/2+x,1/2-y,1/2+z
loop_
_atom_site_type_symbol
_atom_site_label
_atom_site_fract_x
_atom_site_fract_y
_atom_site_fract_z
Si Si1 0.750000 0.250000 0.500000
Si Si2 0.000000 0.508796 0.250000
Si Si3 0.065399 0.717514 0.610324
O O1 0.604076 0.539578 0.454896
O O2 0.978671 0.423045 0.562107
O O3 0.103161 0.324105 0.217680
O O4 0.199178 0.699769 0.351894
#
# Coordination Sequence:
#
# PCOD9269762 Si02
#       3
#     4   4   8
#     4   8  16  36  64  90 124 162 204 250 304 362
#     4  10  20  34  60  90 124 162 204 250 300 354
#     4   9  18  34  62  91 124 162 204 251 302 360
#
# _framework density 31.647864999999999
#
# number of rings (size 3 to 8) (size 9 to 14) (size 15 to 20)
#    0.000    3.000    0.000    0.000    0.000    2.000 
#    0.000    0.000    0.000  210.000    0.000    0.000 
#    0.000    0.000    0.000    0.000    0.000    0.000 
#
# Total GULP energy -44670.894132 kJ/mol
# GULP energy per Si atom -5583.861767 kJ/mol
# Density = 3.157583 g / cm^3
# Si number density = 31.647865 Si / 1000 Ang^3
#
#
#
# Elastic Constant Matrix: (Units=GPa)
#
#
# Indices 1 2 3 4 5 6 
#
# 1 172.7880 77.2000 -15.0000 -0.0001 -0.4721 0.0000
# 2 77.2000 379.8751 113.7067 -0.0002 35.4121 0.0004
# 3 -15.0000 113.7067 152.1446 0.0000 41.5501 0.0000
# 4 -0.0001 -0.0002 0.0000 75.5911 -0.0001 16.3521
# 5 -0.4721 35.4121 41.5501 -0.0001 43.0062 0.0000
# 6 0.0000 0.0004 0.0000 16.3521 0.0000 43.0874
#
#
#
# Elastic Compliance Matrix: (Units=1/GPa)
#
#
# Indices 1 2 3 4 5 6 
#
# 1 0.006914 -0.002065 0.002364 0.000000 -0.000507 0.000000
# 2 -0.002065 0.004015 -0.003118 0.000000 -0.000316 0.000000
# 3 0.002364 -0.003118 0.011448 0.000000 -0.008467 0.000000
# 4 0.000000 0.000000 0.000000 0.014412 0.000000 -0.005470
# 5 -0.000507 -0.000316 -0.008467 0.000000 0.031688 0.000000
# 6 0.000000 0.000000 0.000000 -0.005470 0.000000 0.025284
#
#
# Mechanical properties :
#
#
# Convention : Reuss Voigt Hill
#
# Bulk Modulus (GPa) = 59.74302 117.40234 88.57268
# Shear Modulus (GPa) = 47.62791 67.59700 57.61246
#
# Velocity S-wave (km/s) = 3.88356 4.62660 4.27127
# Velocity P-wave (km/s) = 6.24722 8.10664 7.23690
#
# Compressibility (1/GPa) = 0.01673836
#
# Stress axis : x y z
#
# Youngs Moduli (GPa) = 144.63349 249.07168 87.34932
#
# Poissons Ratio (x) = 0.51442 -0.20647
# Poissons Ratio (y) = 0.29872 0.27234
# Poissons Ratio (z) = -0.34187 0.77656
#
# Static dielectric constant tensor:
#      x y z
#    x 2.811240 0.000000 -0.318530 
#    y 0.000000 1.995730 0.000000 
#    z -0.318530 0.000000 2.451200 
# 
# From -- ./inp_files/127546.got.cif
#   From: 2010.05.17/outbox.cif.g08.bks.cpg/sg15_64_cif.got.tgz:127546.got - 2010.06.03 18:47:42.
