data_PCOD9269064
_publ_section_title
;
Structure prediction by ZEFSAII (Michael W. Deem and Ramdas Pophale) SiO2 
 PCOD9269064
Probable space group: C 2/C
;
_chemical_formula_sum "Si O2"
_cell_formula_units_Z 56
_cell_length_a 17.060804
_cell_length_b 22.236581
_cell_length_c 14.039986
_cell_angle_alpha 90.000000
_cell_angle_beta 32.650248
_cell_angle_gamma 90.000000
_cell_volume 2873.645551
_symmetry_space_group_name_H-M "C 2/C"
_symmetry_group_IT_number 15
_symmetry_cell_setting 'monoclinic'
loop_
_space_group_symop_operation_xyz
x,y,z
-x,y,1/2-z
-x,-y,-z
x,-y,1/2+z
1/2+x,1/2+y,z
1/2-x,1/2+y,1/2-z
1/2-x,1/2-y,-z
1/2+x,1/2-y,1/2+z
loop_
_atom_site_type_symbol
_atom_site_label
_atom_site_fract_x
_atom_site_fract_y
_atom_site_fract_z
Si Si1 0.730591 0.936132 0.984995
Si Si2 0.208783 0.732812 0.724852
Si Si3 0.500000 0.366139 0.750000
Si Si4 0.566199 0.938505 0.886534
Si Si5 0.944175 0.336797 0.440197
Si Si6 0.877827 0.049712 0.130619
Si Si7 0.011214 0.175620 0.025695
Si Si8 0.500000 0.035823 0.250000
O O1 0.807403 0.954149 0.807597
O O2 0.860408 0.907903 0.913005
O O3 0.621586 0.882885 0.067889
O O4 0.638103 0.991242 0.116890
O O5 0.323192 0.783572 0.571050
O O6 0.319703 0.687743 0.662081
O O7 0.101763 0.694194 0.766234
O O8 0.090433 0.770182 0.905720
O O9 0.518018 0.328741 0.828830
O O10 0.739022 0.951153 0.704256
O O11 0.497952 0.929631 0.852069
O O12 0.546272 0.880120 0.975333
O O13 0.500000 0.000000 0.000000
O O14 0.954993 0.113797 0.042345
O O15 0.000000 0.000000 0.000000
#
# Coordination Sequence:
#
# PCOD9269064 Si02
#       8
#     8   8   4   8   8   8   8   4
#     4  10  22  37  52  86 120 154 196 243 297 361
#     4  10  20  36  58  79 111 156 200 240 292 352
#     4  10  20  34  45  72 120 145 194 234 276 352
#     4  11  22  40  60  89 121 155 202 251 300 363
#     4  10  20  41  57  86 118 151 210 243 293 366
#     4  10  21  38  58  82 115 153 198 244 296 351
#     4  10  21  35  50  80 107 153 193 236 290 349
#     4  12  24  36  65  88 120 165 194 248 314 354
#
# _framework density 19.487442000000001
#
# number of rings (size 3 to 8) (size 9 to 14) (size 15 to 20)
#    0.000    1.714    7.143    0.000    8.000    0.571 
#    0.000    0.000    0.000    0.857    0.000    0.000 
#    0.000    0.000    0.000    0.000    0.000    0.000 
#
# Total GULP energy -156054.864512 kJ/mol
# GULP energy per Si atom -5573.388018 kJ/mol
# Density = 1.944309 g / cm^3
# Si number density = 19.487442 Si / 1000 Ang^3
#
#
#
# Elastic Constant Matrix: (Units=GPa)
#
#
# Indices 1 2 3 4 5 6 
#
# 1 78.8543 35.9009 28.9481 0.0018 -16.0594 0.0005
# 2 35.9009 88.6163 44.4576 0.0003 -15.5316 -0.0001
# 3 28.9481 44.4576 108.3708 0.0031 -37.2338 0.0001
# 4 0.0018 0.0003 0.0031 37.1467 -0.0016 -10.8514
# 5 -16.0594 -15.5316 -37.2338 -0.0016 34.5201 -0.0004
# 6 0.0005 -0.0001 0.0001 -10.8514 -0.0004 16.7359
#
#
#
# Elastic Compliance Matrix: (Units=1/GPa)
#
#
# Indices 1 2 3 4 5 6 
#
# 1 0.016327 -0.005557 -0.000526 -0.000001 0.004528 -0.000001
# 2 -0.005557 0.016101 -0.005593 0.000001 -0.001373 0.000001
# 3 -0.000526 -0.005593 0.017022 -0.000001 0.015599 0.000000
# 4 -0.000001 0.000001 -0.000001 0.033211 0.000001 0.021533
# 5 0.004528 -0.001373 0.015599 0.000001 0.047283 0.000001
# 6 -0.000001 0.000001 0.000000 0.021533 0.000001 0.073714
#
#
# Mechanical properties :
#
#
# Convention : Reuss Voigt Hill
#
# Bulk Modulus (GPa) = 38.31594 54.93941 46.62768
# Shear Modulus (GPa) = 21.21277 28.78287 24.99782
#
# Velocity S-wave (km/s) = 3.30288 3.84734 3.58546
# Velocity P-wave (km/s) = 5.85234 6.92744 6.41246
#
# Compressibility (1/GPa) = 0.02609880
#
# Stress axis : x y z
#
# Youngs Moduli (GPa) = 61.24880 62.10809 58.74835
#
# Poissons Ratio (x) = 0.34514 0.03089
# Poissons Ratio (y) = 0.34036 0.32855
# Poissons Ratio (z) = 0.03220 0.34734
#
# Static dielectric constant tensor:
#      x y z
#    x 1.725000 0.000000 -0.011160 
#    y 0.000000 1.711090 0.000000 
#    z -0.011160 0.000000 1.733750 
# 
# From -- ./inp_files/211878.got.cif
#   From: 2010.05.17/outbox.cif.g08.bks.cpg/sg15_106_cif.got.tgz:211878.got - 2010.06.03 18:47:42.
