data_PCOD9269833
_publ_section_title
;
Structure prediction by ZEFSAII (Michael W. Deem and Ramdas Pophale) SiO2 
 PCOD9269833
Probable space group: C 2/C
;
_chemical_formula_sum "Si O2"
_cell_formula_units_Z 44
_cell_length_a 5.226956
_cell_length_b 19.501418
_cell_length_c 19.959573
_cell_angle_alpha 90.000000
_cell_angle_beta 79.752185
_cell_angle_gamma 90.000000
_cell_volume 2002.084191
_symmetry_space_group_name_H-M "C 2/C"
_symmetry_group_IT_number 15
_symmetry_cell_setting 'monoclinic'
loop_
_space_group_symop_operation_xyz
x,y,z
-x,y,1/2-z
-x,-y,-z
x,-y,1/2+z
1/2+x,1/2+y,z
1/2-x,1/2+y,1/2-z
1/2-x,1/2-y,-z
1/2+x,1/2-y,1/2+z
loop_
_atom_site_type_symbol
_atom_site_label
_atom_site_fract_x
_atom_site_fract_y
_atom_site_fract_z
Si Si1 0.795374 0.323274 0.416397
Si Si2 0.000000 0.656153 0.250000
Si Si3 0.755668 0.331763 0.005159
Si Si4 0.220501 0.915640 0.295928
Si Si5 0.676743 0.171529 0.380298
Si Si6 0.076413 0.058973 0.324299
O O1 0.542610 0.350799 0.468649
O O2 0.766773 0.353097 0.343680
O O3 0.784031 0.239934 0.412307
O O4 0.059365 0.347179 0.439872
O O5 0.145912 0.694311 0.303297
O O6 0.176178 0.606631 0.197349
O O7 0.750000 0.250000 0.000000
O O8 0.916682 0.351234 0.931767
O O9 0.500000 0.933045 0.250000
O O10 0.000000 0.901053 0.250000
O O11 0.133549 0.982035 0.344002
O O12 0.864651 0.105887 0.370082
O O13 0.000000 0.048044 0.250000
#
# Coordination Sequence:
#
# PCOD9269833 Si02
#       6
#     8   4   8   8   8   8
#     4  11  24  40  65  94 125 166 214 254 322 384
#     4  10  20  34  62  88 118 152 212 254 312 364
#     4  10  22  42  62  89 129 173 201 256 326 384
#     4  11  23  42  65  90 131 170 206 264 328 382
#     4  10  22  36  64  89 125 157 216 263 313 368
#     4   9  20  38  57  89 120 170 202 256 320 381
#
# _framework density 21.977096
#
# number of rings (size 3 to 8) (size 9 to 14) (size 15 to 20)
#    0.000    1.818    0.909    3.273    8.909    2.182 
#    0.000    1.818    0.000    0.000    0.000    0.000 
#    0.000    0.000    0.000    0.000    0.000    0.000 
#
# Total GULP energy -122678.953536 kJ/mol
# GULP energy per Si atom -5576.316070 kJ/mol
# Density = 2.192707 g / cm^3
# Si number density = 21.977096 Si / 1000 Ang^3
#
#
#
# Elastic Constant Matrix: (Units=GPa)
#
#
# Indices 1 2 3 4 5 6 
#
# 1 100.0399 22.3511 24.8699 0.0000 3.8130 0.0000
# 2 22.3511 68.2298 26.9750 0.0000 -6.3834 0.0000
# 3 24.8699 26.9750 79.3626 0.0000 16.1472 0.0000
# 4 0.0000 0.0000 0.0000 12.7419 0.0000 7.2348
# 5 3.8130 -6.3834 16.1472 0.0000 42.3292 0.0000
# 6 0.0000 0.0000 0.0000 7.2348 0.0000 -93.2720
#
#
#
# Elastic Compliance Matrix: (Units=1/GPa)
#
#
# Indices 1 2 3 4 5 6 
#
# 1 0.011247 -0.002742 -0.002496 0.000000 -0.000475 0.000000
# 2 -0.002742 0.018702 -0.006637 0.000000 0.005599 0.000000
# 3 -0.002496 -0.006637 0.017125 0.000000 -0.007309 0.000000
# 4 0.000000 0.000000 0.000000 0.075170 0.000000 0.005831
# 5 -0.000475 0.005599 -0.007309 0.000000 0.027300 0.000000
# 6 0.000000 0.000000 0.000000 0.005831 0.000000 -0.010269
#
#
# Mechanical properties :
#
#
# Convention : Reuss Voigt Hill
#
# Bulk Modulus (GPa) = 42.87172 44.00271 43.43721
# Shear Modulus (GPa) = 29.27390 3.92224 16.59807
#
# Velocity S-wave (km/s) = 3.65364 1.33737 2.75115
# Velocity P-wave (km/s) = 6.11135 4.73817 5.46804
#
# Compressibility (1/GPa) = 0.02332540
#
# Stress axis : x y z
#
# Youngs Moduli (GPa) = 88.91076 53.46929 58.39266
#
# Poissons Ratio (x) = 0.14661 0.14575
# Poissons Ratio (y) = 0.24380 0.38754
# Poissons Ratio (z) = 0.22192 0.35486
#
# Static dielectric constant tensor:
#      x y z
#    x 2.342800 0.000000 0.011900 
#    y 0.000000 1.796450 0.000000 
#    z 0.011900 0.000000 1.957640 
# 
# From -- ./inp_files/184902.got.cif
#   From: 2010.05.17/outbox.cif.g08.bks.cpg/sg15_93_cif.got.tgz:184902.got - 2010.06.03 18:47:42.
