data_PCOD9269892
_publ_section_title
;
Structure prediction by ZEFSAII (Michael W. Deem and Ramdas Pophale) SiO2 
 PCOD9269892
Probable space group: C 2/C
;
_chemical_formula_sum "Si O2"
_cell_formula_units_Z 60
_cell_length_a 12.178808
_cell_length_b 19.717784
_cell_length_c 11.539623
_cell_angle_alpha 90.000000
_cell_angle_beta 126.816093
_cell_angle_gamma 90.000000
_cell_volume 2218.452178
_symmetry_space_group_name_H-M "C 2/C"
_symmetry_group_IT_number 15
_symmetry_cell_setting 'monoclinic'
loop_
_space_group_symop_operation_xyz
x,y,z
-x,y,1/2-z
-x,-y,-z
x,-y,1/2+z
1/2+x,1/2+y,z
1/2-x,1/2+y,1/2-z
1/2-x,1/2-y,-z
1/2+x,1/2-y,1/2+z
loop_
_atom_site_type_symbol
_atom_site_label
_atom_site_fract_x
_atom_site_fract_y
_atom_site_fract_z
Si Si1 0.719098 0.829265 0.467066
Si Si2 0.813917 0.869649 0.287875
Si Si3 0.942532 0.616038 0.451667
Si Si4 0.000000 0.171015 0.250000
Si Si5 0.387129 0.013232 0.074419
Si Si6 0.106470 0.841281 0.584419
Si Si7 0.649926 0.230269 0.293927
Si Si8 0.159672 0.989316 0.624444
O O1 0.750000 0.750000 0.500000
O O2 0.719179 0.854689 0.337745
O O3 0.577699 0.844905 0.440319
O O4 0.860095 0.862596 0.610122
O O5 0.795614 0.805799 0.195186
O O6 0.799458 0.950146 0.262270
O O7 0.970698 0.857623 0.428001
O O8 0.890131 0.543508 0.475032
O O9 0.877040 0.676560 0.330368
O O10 0.067628 0.585586 0.454373
O O11 0.937720 0.201528 0.329904
O O12 0.500000 0.001648 0.250000
O O13 0.247836 0.010487 0.061481
O O14 0.216167 0.806454 0.571433
O O15 0.166792 0.912226 0.669993
O O16 0.500000 0.234611 0.250000
O O17 0.000000 0.000000 0.500000
#
# Coordination Sequence:
#
# PCOD9269892 Si02
#       8
#     8   8   8   4   8   8   8   8
#     4  11  19  38  62  93 132 169 226 286 350 418
#     4  10  22  40  63  96 133 172 231 294 341 419
#     4  11  22  40  67  93 136 183 220 295 349 423
#     4  10  20  34  64  94 114 170 236 268 338 416
#     4  11  24  42  64 104 141 175 237 294 365 421
#     4  10  21  39  66  95 127 179 230 283 349 417
#     4  12  24  43  69  96 139 187 231 283 363 433
#     4  10  21  41  68  93 135 183 232 289 346 426
#
# _framework density 27.045884000000001
#
# number of rings (size 3 to 8) (size 9 to 14) (size 15 to 20)
#    0.000    1.333    4.000    2.000    0.000    0.533 
#    4.800    0.000    2.933    0.000    0.000    0.000 
#    0.000    0.000    0.000    0.000    0.000    0.000 
#
# Total GULP energy -167134.931242 kJ/mol
# GULP energy per Si atom -5571.164375 kJ/mol
# Density = 2.698433 g / cm^3
# Si number density = 27.045884 Si / 1000 Ang^3
#
#
#
# Elastic Constant Matrix: (Units=GPa)
#
#
# Indices 1 2 3 4 5 6 
#
# 1 188.1680 55.6748 47.0983 0.0000 3.4212 0.0000
# 2 55.6748 201.4319 32.3755 0.0000 3.1246 0.0000
# 3 47.0983 32.3755 76.5693 0.0000 8.3058 0.0000
# 4 0.0000 0.0000 0.0000 16.6088 0.0000 1.0562
# 5 3.4212 3.1246 8.3058 0.0000 19.1311 0.0000
# 6 0.0000 0.0000 0.0000 1.0562 0.0000 47.4177
#
#
#
# Elastic Compliance Matrix: (Units=1/GPa)
#
#
# Indices 1 2 3 4 5 6 
#
# 1 0.006568 -0.001250 -0.003575 0.000000 0.000582 0.000000
# 2 -0.001250 0.005565 -0.001584 0.000000 0.000003 0.000000
# 3 -0.003575 -0.001584 0.016614 0.000000 -0.006315 0.000000
# 4 0.000000 0.000000 0.000000 0.060294 0.000000 -0.001343
# 5 0.000582 0.000003 -0.006315 0.000000 0.054908 0.000000
# 6 0.000000 0.000000 0.000000 -0.001343 0.000000 0.021119
#
#
# Mechanical properties :
#
#
# Convention : Reuss Voigt Hill
#
# Bulk Modulus (GPa) = 62.77974 81.82960 72.30467
# Shear Modulus (GPa) = 27.29317 38.69956 32.99637
#
# Velocity S-wave (km/s) = 3.18015 3.78681 3.49666
# Velocity P-wave (km/s) = 6.06194 7.03146 6.56462
#
# Compressibility (1/GPa) = 0.01592871
#
# Stress axis : x y z
#
# Youngs Moduli (GPa) = 152.24315 179.70981 60.19072
#
# Poissons Ratio (x) = 0.22462 0.21517
# Poissons Ratio (y) = 0.19029 0.09536
# Poissons Ratio (z) = 0.54425 0.28471
#
# Static dielectric constant tensor:
#      x y z
#    x 2.197390 0.000000 0.050890 
#    y 0.000000 2.208930 0.000000 
#    z 0.050890 0.000000 2.243100 
# 
# From -- ./inp_files/147193.got.cif
#   From: 2010.05.17/outbox.cif.g08.bks.cpg/sg15_74_cif.got.tgz:147193.got - 2010.06.03 18:47:42.
