data_PCOD9269911
_publ_section_title
;
Structure prediction by ZEFSAII (Michael W. Deem and Ramdas Pophale) SiO2 
 PCOD9269911
Probable space group: C 2/C
;
_chemical_formula_sum "Si O2"
_cell_formula_units_Z 52
_cell_length_a 16.228197
_cell_length_b 15.738312
_cell_length_c 13.261628
_cell_angle_alpha 90.000000
_cell_angle_beta 57.427506
_cell_angle_gamma 90.000000
_cell_volume 2854.328140
_symmetry_space_group_name_H-M "C 2/C"
_symmetry_group_IT_number 15
_symmetry_cell_setting 'monoclinic'
loop_
_space_group_symop_operation_xyz
x,y,z
-x,y,1/2-z
-x,-y,-z
x,-y,1/2+z
1/2+x,1/2+y,z
1/2-x,1/2+y,1/2-z
1/2-x,1/2-y,-z
1/2+x,1/2-y,1/2+z
loop_
_atom_site_type_symbol
_atom_site_label
_atom_site_fract_x
_atom_site_fract_y
_atom_site_fract_z
Si Si1 0.532472 0.905957 0.010793
Si Si2 0.144851 0.786663 0.173791
Si Si3 0.459727 0.453854 0.174668
Si Si4 0.873470 0.267488 0.044322
Si Si5 0.629434 0.412238 0.904586
Si Si6 0.000000 0.463246 0.250000
Si Si7 0.853083 0.600382 0.251557
O O1 0.451864 0.839466 0.020672
O O2 0.536053 0.908229 0.129948
O O3 0.631137 0.896404 0.879839
O O4 0.500000 0.000000 0.000000
O O5 0.089807 0.864877 0.261237
O O6 0.260977 0.799378 0.118095
O O7 0.116446 0.694657 0.235178
O O8 0.120946 0.774590 0.071157
O O9 0.500000 0.493816 0.250000
O O10 0.386101 0.519109 0.171949
O O11 0.550823 0.438123 0.040672
O O12 0.888139 0.187012 0.108584
O O13 0.742681 0.414031 0.860120
O O14 0.917745 0.527248 0.260397
#
# Coordination Sequence:
#
# PCOD9269911 Si02
#       7
#     8   8   8   8   8   4   8
#     4  10  21  35  59  86 121 152 190 247 296 360
#     4  10  20  34  66  88 111 150 197 261 295 346
#     4  11  22  37  59  84 115 156 200 247 291 343
#     4  10  20  38  60  91 117 151 199 246 310 351
#     4  10  23  38  56  85 119 157 196 241 294 352
#     4  10  22  36  58  90 120 158 190 238 316 362
#     4  10  21  37  58  88 118 148 196 247 298 355
#
# _framework density 18.217948
#
# number of rings (size 3 to 8) (size 9 to 14) (size 15 to 20)
#    0.000    1.846    1.538    2.769    5.385    1.231 
#    1.385    0.000    0.000    1.846    0.000    0.000 
#    0.000    0.000    0.000    0.000    0.000    0.000 
#
# Total GULP energy -144844.475561 kJ/mol
# GULP energy per Si atom -5570.941368 kJ/mol
# Density = 1.817648 g / cm^3
# Si number density = 18.217948 Si / 1000 Ang^3
#
#
#
# Elastic Constant Matrix: (Units=GPa)
#
#
# Indices 1 2 3 4 5 6 
#
# 1 58.8523 44.2987 39.6824 0.0000 0.2922 0.0000
# 2 44.2987 96.1508 32.7979 0.0000 -1.0641 0.0000
# 3 39.6824 32.7979 93.8876 0.0000 2.0452 0.0000
# 4 0.0000 0.0000 0.0000 28.0092 0.0000 10.3650
# 5 0.2922 -1.0641 2.0452 0.0000 30.4275 0.0000
# 6 0.0000 0.0000 0.0000 10.3650 0.0000 9.1718
#
#
#
# Elastic Compliance Matrix: (Units=1/GPa)
#
#
# Indices 1 2 3 4 5 6 
#
# 1 0.032111 -0.011541 -0.009539 0.000000 -0.000071 0.000000
# 2 -0.011541 0.015970 -0.000716 0.000000 0.000717 0.000000
# 3 -0.009539 -0.000716 0.014953 0.000000 -0.000939 0.000000
# 4 0.000000 0.000000 0.000000 0.061366 0.000000 -0.069349
# 5 -0.000071 0.000717 -0.000939 0.000000 0.032954 0.000000
# 6 0.000000 0.000000 0.000000 -0.069349 0.000000 0.187401
#
#
# Mechanical properties :
#
#
# Convention : Reuss Voigt Hill
#
# Bulk Modulus (GPa) = 51.43635 53.60541 52.52088
# Shear Modulus (GPa) = 12.66372 22.32914 17.49643
#
# Velocity S-wave (km/s) = 2.63938 3.50475 3.10239
# Velocity P-wave (km/s) = 6.13055 6.77245 6.45948
#
# Compressibility (1/GPa) = 0.01944150
#
# Stress axis : x y z
#
# Youngs Moduli (GPa) = 31.14208 62.61771 66.87449
#
# Poissons Ratio (x) = 0.72268 0.63790
# Poissons Ratio (y) = 0.35942 0.04791
# Poissons Ratio (z) = 0.29706 0.04486
#
# Static dielectric constant tensor:
#      x y z
#    x 1.645330 0.000000 0.014610 
#    y 0.000000 1.629510 0.000000 
#    z 0.014610 0.000000 1.714510 
# 
# From -- ./inp_files/161842.got.cif
#   From: 2010.05.17/outbox.cif.g08.bks.cpg/sg15_81_cif.got.tgz:161842.got - 2010.06.03 18:47:42.
