data_PCOD9269031
_publ_section_title
;
Structure prediction by ZEFSAII (Michael W. Deem and Ramdas Pophale) SiO2 
 PCOD9269031
Probable space group: C 2/C
;
_chemical_formula_sum "Si O2"
_cell_formula_units_Z 64
_cell_length_a 9.034191
_cell_length_b 20.285793
_cell_length_c 24.695002
_cell_angle_alpha 90.000000
_cell_angle_beta 131.000514
_cell_angle_gamma 90.000000
_cell_volume 3415.598384
_symmetry_space_group_name_H-M "C 2/C"
_symmetry_group_IT_number 15
_symmetry_cell_setting 'monoclinic'
loop_
_space_group_symop_operation_xyz
x,y,z
-x,y,1/2-z
-x,-y,-z
x,-y,1/2+z
1/2+x,1/2+y,z
1/2-x,1/2+y,1/2-z
1/2-x,1/2-y,-z
1/2+x,1/2-y,1/2+z
loop_
_atom_site_type_symbol
_atom_site_label
_atom_site_fract_x
_atom_site_fract_y
_atom_site_fract_z
Si Si1 0.725221 0.005123 0.069925
Si Si2 0.475441 0.632538 0.101691
Si Si3 0.477420 0.752092 0.309712
Si Si4 0.343003 0.640363 0.760089
Si Si5 0.253218 0.349223 0.444047
Si Si6 0.662444 0.040798 0.334659
Si Si7 0.931257 0.460216 0.359368
Si Si8 0.048895 0.917553 0.103860
O O1 0.720571 0.981643 0.130961
O O2 0.846170 0.955394 0.061396
O O3 0.830831 0.074956 0.088182
O O4 0.500000 0.000000 0.000000
O O5 0.525653 0.681633 0.162292
O O6 0.672125 0.597235 0.126135
O O7 0.360138 0.669242 0.025330
O O8 0.500000 0.749703 0.250000
O O9 0.279474 0.792787 0.272973
O O10 0.645558 0.794292 0.381634
O O11 0.500000 0.637741 0.750000
O O12 0.190502 0.580159 0.714598
O O13 0.431809 0.631119 0.840754
O O14 0.414442 0.382125 0.443689
O O15 0.092108 0.406577 0.418010
O O16 0.500000 0.053853 0.250000
O O17 0.545256 0.022278 0.361288
O O18 0.782071 0.973345 0.351175
#
# Coordination Sequence:
#
# PCOD9269031 Si02
#       8
#     8   8   8   8   8   8   8   8
#     4  11  22  37  58  94 131 156 192 253 322 379
#     4  11  25  40  61  91 128 169 199 250 325 380
#     4  11  24  43  65  86 118 169 219 263 302 361
#     4  11  20  37  64  91 115 156 215 268 293 350
#     4  10  21  40  64  87 121 160 215 255 297 374
#     4  10  21  35  58  90 127 158 196 248 310 378
#     4  10  20  33  61  90 121 156 201 253 308 355
#     4  10  20  35  63  93 118 156 210 251 305 358
#
# _framework density 18.737566000000001
#
# number of rings (size 3 to 8) (size 9 to 14) (size 15 to 20)
#    0.000    1.500    5.000    0.375    1.750    3.000 
#    0.000    0.000    0.000    1.500    0.000    0.000 
#    0.000    0.000    0.000    0.000    0.000    0.000 
#
# Total GULP energy -178534.179354 kJ/mol
# GULP energy per Si atom -5579.193105 kJ/mol
# Density = 1.869492 g / cm^3
# Si number density = 18.737566 Si / 1000 Ang^3
#
#
#
# Elastic Constant Matrix: (Units=GPa)
#
#
# Indices 1 2 3 4 5 6 
#
# 1 102.5521 31.9395 12.9123 0.0000 2.2830 0.0000
# 2 31.9395 79.5529 22.3562 0.0000 -0.4772 0.0000
# 3 12.9123 22.3562 74.5592 0.0000 -3.7249 0.0000
# 4 0.0000 0.0000 0.0000 16.9471 0.0000 -8.0775
# 5 2.2830 -0.4772 -3.7249 0.0000 30.3215 0.0000
# 6 0.0000 0.0000 0.0000 -8.0775 0.0000 21.0725
#
#
#
# Elastic Compliance Matrix: (Units=1/GPa)
#
#
# Indices 1 2 3 4 5 6 
#
# 1 0.011203 -0.004308 -0.000698 0.000000 -0.000997 0.000000
# 2 -0.004308 0.015386 -0.003863 0.000000 0.000092 0.000000
# 3 -0.000698 -0.003863 0.014782 0.000000 0.001808 0.000000
# 4 0.000000 0.000000 0.000000 0.072198 0.000000 0.027675
# 5 -0.000997 0.000092 0.001808 0.000000 0.033278 0.000000
# 6 0.000000 0.000000 0.000000 0.027675 0.000000 0.058063
#
#
# Mechanical properties :
#
#
# Convention : Reuss Voigt Hill
#
# Bulk Modulus (GPa) = 42.31381 43.45334 42.88357
# Shear Modulus (GPa) = 21.68966 26.29865 23.99416
#
# Velocity S-wave (km/s) = 3.40597 3.75043 3.58234
# Velocity P-wave (km/s) = 6.17243 6.48037 6.32827
#
# Compressibility (1/GPa) = 0.02363295
#
# Stress axis : x y z
#
# Youngs Moduli (GPa) = 89.26316 64.99521 67.65151
#
# Poissons Ratio (x) = 0.27997 0.04724
# Poissons Ratio (y) = 0.38450 0.26132
# Poissons Ratio (z) = 0.06234 0.25106
#
# Static dielectric constant tensor:
#      x y z
#    x 1.646150 0.000000 -0.016480 
#    y 0.000000 1.640270 0.000000 
#    z -0.016480 0.000000 1.684340 
# 
# From -- ./inp_files/266147.got.cif
#   From: 2010.05.17/outbox.cif.g08.bks.cpg/sg15_134_cif.got.tgz:266147.got - 2010.06.03 18:47:42.
