data_PCOD9269343
_publ_section_title
;
Structure prediction by ZEFSAII (Michael W. Deem and Ramdas Pophale) SiO2 
 PCOD9269343
Probable space group: C 2/C
;
_chemical_formula_sum "Si O2"
_cell_formula_units_Z 48
_cell_length_a 16.057187
_cell_length_b 8.856331
_cell_length_c 16.189034
_cell_angle_alpha 90.000000
_cell_angle_beta 87.016485
_cell_angle_gamma 90.000000
_cell_volume 2299.085788
_symmetry_space_group_name_H-M "C 2/C"
_symmetry_group_IT_number 15
_symmetry_cell_setting 'monoclinic'
loop_
_space_group_symop_operation_xyz
x,y,z
-x,y,1/2-z
-x,-y,-z
x,-y,1/2+z
1/2+x,1/2+y,z
1/2-x,1/2+y,1/2-z
1/2-x,1/2-y,-z
1/2+x,1/2-y,1/2+z
loop_
_atom_site_type_symbol
_atom_site_label
_atom_site_fract_x
_atom_site_fract_y
_atom_site_fract_z
Si Si1 0.576574 0.580088 0.599801
Si Si2 0.562190 0.894577 0.650201
Si Si3 0.352243 0.873318 0.440887
Si Si4 0.604563 0.031483 0.820260
Si Si5 0.028232 0.198953 0.421492
Si Si6 0.242899 0.113279 0.110506
O O1 0.573444 0.718608 0.663502
O O2 0.564304 0.652374 0.508944
O O3 0.503225 0.457936 0.617217
O O4 0.664142 0.494226 0.598636
O O5 0.626657 0.954421 0.579736
O O6 0.582426 0.005042 0.725721
O O7 0.466294 0.926863 0.632143
O O8 0.442037 0.791330 0.440451
O O9 0.301508 0.870775 0.527547
O O10 0.297311 0.779514 0.377063
O O11 0.587054 0.196063 0.861007
O O12 0.695914 0.963636 0.827631
#
# Coordination Sequence:
#
# PCOD9269343 Si02
#       6
#     8   8   8   8   8   8
#     4  10  20  35  58  88 111 137 187 245 287 330
#     4  10  21  37  54  77 111 150 188 223 277 346
#     4   9  19  36  55  75 109 149 182 223 279 335
#     4  10  21  37  55  77 110 152 188 221 278 346
#     4   9  19  37  59  81 110 145 183 232 290 339
#     4  10  20  34  55  83 109 140 186 234 277 326
#
# _framework density 20.877863000000001
#
# number of rings (size 3 to 8) (size 9 to 14) (size 15 to 20)
#    0.000    2.333    0.000    2.000    0.000    8.000 
#    0.000   10.000    0.000    0.000    0.000    0.000 
#    0.000    0.000    0.000    0.000    0.000    0.000 
#
# Total GULP energy -133714.739056 kJ/mol
# GULP energy per Si atom -5571.447461 kJ/mol
# Density = 2.083034 g / cm^3
# Si number density = 20.877863 Si / 1000 Ang^3
#
#
#
# Elastic Constant Matrix: (Units=GPa)
#
#
# Indices 1 2 3 4 5 6 
#
# 1 92.5470 20.8855 6.0825 0.0000 22.1270 0.0000
# 2 20.8855 107.0352 7.1353 0.0000 3.7211 0.0000
# 3 6.0825 7.1353 18.8451 0.0000 11.4058 0.0000
# 4 0.0000 0.0000 0.0000 17.4774 0.0000 6.4998
# 5 22.1270 3.7211 11.4058 0.0000 28.0701 0.0000
# 6 0.0000 0.0000 0.0000 6.4998 0.0000 8.5070
#
#
#
# Elastic Compliance Matrix: (Units=1/GPa)
#
#
# Indices 1 2 3 4 5 6 
#
# 1 0.014082 -0.002579 0.003903 0.000000 -0.012345 0.000000
# 2 -0.002579 0.010058 -0.004508 0.000000 0.002531 0.000000
# 3 0.003903 -0.004508 0.072953 0.000000 -0.032122 0.000000
# 4 0.000000 0.000000 0.000000 0.079929 0.000000 -0.061070
# 5 -0.012345 0.002531 -0.032122 0.000000 0.058073 0.000000
# 6 0.000000 0.000000 0.000000 -0.061070 0.000000 0.164212
#
#
# Mechanical properties :
#
#
# Convention : Reuss Voigt Hill
#
# Bulk Modulus (GPa) = 11.02233 31.84822 21.43528
# Shear Modulus (GPa) = 11.47006 23.09914 17.28460
#
# Velocity S-wave (km/s) = 2.34645 3.32986 2.88043
# Velocity P-wave (km/s) = 3.55415 5.48376 4.62080
#
# Compressibility (1/GPa) = 0.09072490
#
# Stress axis : x y z
#
# Youngs Moduli (GPa) = 71.01128 99.41889 13.70748
#
# Poissons Ratio (x) = 0.25639 -0.05349
# Poissons Ratio (y) = 0.18313 0.06179
# Poissons Ratio (z) = -0.27713 0.44819
#
# Static dielectric constant tensor:
#      x y z
#    x 1.745390 0.000000 0.019210 
#    y 0.000000 1.811380 0.000000 
#    z 0.019210 0.000000 1.799980 
# 
# From -- ./inp_files/202969.got.cif
#   From: 2010.05.17/outbox.cif.g08.bks.cpg/sg15_102_cif.got.tgz:202969.got - 2010.06.03 18:47:42.
