data_PCOD9269257
_publ_section_title
;
Structure prediction by ZEFSAII (Michael W. Deem and Ramdas Pophale) SiO2 
 PCOD9269257
Probable space group: C 2/C
;
_chemical_formula_sum "Si O2"
_cell_formula_units_Z 48
_cell_length_a 27.201140
_cell_length_b 10.042814
_cell_length_c 8.552794
_cell_angle_alpha 90.000000
_cell_angle_beta 101.042632
_cell_angle_gamma 90.000000
_cell_volume 2293.159038
_symmetry_space_group_name_H-M "C 2/C"
_symmetry_group_IT_number 15
_symmetry_cell_setting 'monoclinic'
loop_
_space_group_symop_operation_xyz
x,y,z
-x,y,1/2-z
-x,-y,-z
x,-y,1/2+z
1/2+x,1/2+y,z
1/2-x,1/2+y,1/2-z
1/2-x,1/2-y,-z
1/2+x,1/2-y,1/2+z
loop_
_atom_site_type_symbol
_atom_site_label
_atom_site_fract_x
_atom_site_fract_y
_atom_site_fract_z
Si Si1 0.893597 0.956643 0.781890
Si Si2 0.196203 0.844581 0.610138
Si Si3 0.500000 0.372365 0.750000
Si Si4 0.053847 0.653111 0.989730
Si Si5 0.265787 0.381772 0.221675
Si Si6 0.000000 0.435066 0.750000
Si Si7 0.643416 0.690002 0.549804
O O1 0.862591 0.869735 0.891014
O O2 0.953345 0.945138 0.803502
O O3 0.868856 0.898810 0.609186
O O4 0.880451 0.106248 0.821323
O O5 0.213783 0.698839 0.678917
O O6 0.210928 0.862534 0.437731
O O7 0.226347 0.964440 0.719978
O O8 0.527061 0.278439 0.892570
O O9 0.034765 0.527312 0.880384
O O10 0.034905 0.644355 0.154062
O O11 0.112994 0.674869 0.014471
O O12 0.299083 0.303364 0.370734
#
# Coordination Sequence:
#
# PCOD9269257 Si02
#       7
#     8   8   4   8   8   4   8
#     4  10  20  34  55  81 114 145 179 228 277 329
#     4  10  21  38  60  84 115 150 186 234 285 337
#     4   9  20  35  52  82 110 141 186 221 270 332
#     4   9  19  34  52  73 103 141 182 226 271 322
#     4  10  21  38  59  85 113 147 189 231 285 341
#     4   9  18  35  52  70 102 143 184 229 272 316
#     4  10  20  34  54  80 109 142 179 224 277 330
#
# _framework density 20.931823999999999
#
# number of rings (size 3 to 8) (size 9 to 14) (size 15 to 20)
#    0.000    2.333    0.000    4.000    0.000    8.667 
#    0.000   10.000    0.000    0.000    0.000    0.000 
#    0.000    0.000    0.000    0.000    0.000    0.000 
#
# Total GULP energy -133716.303704 kJ/mol
# GULP energy per Si atom -5571.512654 kJ/mol
# Density = 2.088418 g / cm^3
# Si number density = 20.931824 Si / 1000 Ang^3
#
#
#
# Elastic Constant Matrix: (Units=GPa)
#
#
# Indices 1 2 3 4 5 6 
#
# 1 73.9495 4.1811 -4.9409 0.0000 -5.0790 0.0000
# 2 4.1811 24.0819 -3.0140 0.0000 -4.8647 0.0000
# 3 -4.9409 -3.0140 81.5757 0.0000 -9.0758 0.0000
# 4 0.0000 0.0000 0.0000 -1.2241 0.0000 -10.2419
# 5 -5.0790 -4.8647 -9.0758 0.0000 20.2636 0.0000
# 6 0.0000 0.0000 0.0000 -10.2419 0.0000 27.7345
#
#
#
# Elastic Compliance Matrix: (Units=1/GPa)
#
#
# Indices 1 2 3 4 5 6 
#
# 1 0.013941 -0.001531 0.001195 0.000000 0.003662 0.000000
# 2 -0.001531 0.044482 0.002838 0.000000 0.011566 0.000000
# 3 0.001195 0.002838 0.013203 0.000000 0.006894 0.000000
# 4 0.000000 0.000000 0.000000 -0.199749 0.000000 -0.073764
# 5 0.003662 0.011566 0.006894 0.000000 0.056132 0.000000
# 6 0.000000 0.000000 0.000000 -0.073764 0.000000 0.008816
#
#
# Mechanical properties :
#
#
# Convention : Reuss Voigt Hill
#
# Bulk Modulus (GPa) = 13.04983 19.11772 16.08377
# Shear Modulus (GPa) = -117.27427 21.58018 -47.84704
#
# Velocity S-wave (km/s) = -7.49322 3.21436 -4.78624
# Velocity P-wave (km/s) = 8.28351 4.78846 4.77950
#
# Compressibility (1/GPa) = 0.07662935
#
# Stress axis : x y z
#
# Youngs Moduli (GPa) = 71.73257 22.48078 75.74157
#
# Poissons Ratio (x) = 0.03442 -0.09053
# Poissons Ratio (y) = 0.10982 -0.21492
# Poissons Ratio (z) = -0.08574 -0.06379
#
# Static dielectric constant tensor:
#      x y z
#    x 1.825250 0.000000 -0.000160 
#    y 0.000000 1.754060 0.000000 
#    z -0.000160 0.000000 1.779360 
# 
# From -- ./inp_files/64886.got.cif
#   From: 2010.05.17/outbox.cif.g08.bks.cpg/sg15_33_cif.got.tgz:64886.got - 2010.06.03 18:47:42.
