data_PCOD9269812
_publ_section_title
;
Structure prediction by ZEFSAII (Michael W. Deem and Ramdas Pophale) SiO2 
 PCOD9269812
Probable space group: C 2/C
;
_chemical_formula_sum "Si O2"
_cell_formula_units_Z 64
_cell_length_a 21.585024
_cell_length_b 20.046037
_cell_length_c 9.119245
_cell_angle_alpha 90.000000
_cell_angle_beta 123.728093
_cell_angle_gamma 90.000000
_cell_volume 3281.687596
_symmetry_space_group_name_H-M "C 2/C"
_symmetry_group_IT_number 15
_symmetry_cell_setting 'monoclinic'
loop_
_space_group_symop_operation_xyz
x,y,z
-x,y,1/2-z
-x,-y,-z
x,-y,1/2+z
1/2+x,1/2+y,z
1/2-x,1/2+y,1/2-z
1/2-x,1/2-y,-z
1/2+x,1/2-y,1/2+z
loop_
_atom_site_type_symbol
_atom_site_label
_atom_site_fract_x
_atom_site_fract_y
_atom_site_fract_z
Si Si1 0.198817 0.346314 0.160925
Si Si2 0.410875 0.753980 0.653946
Si Si3 0.246538 0.018271 0.846399
Si Si4 0.641165 0.506025 0.458681
Si Si5 0.395585 0.354367 0.687207
Si Si6 0.845527 0.753993 0.386518
Si Si7 0.932997 0.124249 0.548032
Si Si8 0.720428 0.129365 0.025845
O O1 0.207969 0.414044 0.079143
O O2 0.274718 0.302040 0.256620
O O3 0.188217 0.361175 0.319771
O O4 0.131489 0.306153 0.002550
O O5 0.500000 0.757485 0.750000
O O6 0.388892 0.759886 0.793973
O O7 0.384221 0.681586 0.559581
O O8 0.171056 0.021542 0.843929
O O9 0.217417 0.022236 0.642337
O O10 0.285084 0.947147 0.926264
O O11 0.595369 0.573664 0.378313
O O12 0.603013 0.448082 0.499601
O O13 0.395244 0.294724 0.570671
O O14 0.309712 0.356667 0.633497
O O15 0.446471 0.352210 0.899042
O O16 0.815494 0.685681 0.418698
O O17 0.000000 0.117126 0.750000
#
# Coordination Sequence:
#
# PCOD9269812 Si02
#       8
#     8   8   8   8   8   8   8   8
#     4  11  21  38  63  95 121 157 207 255 307 367
#     4  11  26  42  59  88 126 163 203 254 305 373
#     4  11  20  35  60  93 123 152 193 262 318 353
#     4  11  20  36  57  87 129 156 200 255 307 350
#     4  10  20  38  57  88 128 156 199 264 298 355
#     4  11  21  38  66  92 114 161 211 254 316 357
#     4  11  23  39  56  79 124 173 206 241 292 371
#     4  10  20  34  61  94 122 150 194 268 316 349
#
# _framework density 19.502161000000001
#
# number of rings (size 3 to 8) (size 9 to 14) (size 15 to 20)
#    0.000    1.250    6.250    4.125    1.750    0.500 
#    0.000    5.625    0.000    3.000    0.000    0.000 
#    0.000    0.000    0.000    0.000    0.000    0.000 
#
# Total GULP energy -178576.412790 kJ/mol
# GULP energy per Si atom -5580.512900 kJ/mol
# Density = 1.945777 g / cm^3
# Si number density = 19.502161 Si / 1000 Ang^3
#
#
#
# Elastic Constant Matrix: (Units=GPa)
#
#
# Indices 1 2 3 4 5 6 
#
# 1 56.2816 16.6619 22.9882 0.0000 -12.9391 0.0000
# 2 16.6619 54.7457 11.9596 0.0000 -0.5867 0.0000
# 3 22.9882 11.9596 104.6520 0.0000 -9.9510 0.0000
# 4 0.0000 0.0000 0.0000 29.7740 0.0000 -8.1201
# 5 -12.9391 -0.5867 -9.9510 0.0000 21.0866 0.0000
# 6 0.0000 0.0000 0.0000 -8.1201 0.0000 11.4162
#
#
#
# Elastic Compliance Matrix: (Units=1/GPa)
#
#
# Indices 1 2 3 4 5 6 
#
# 1 0.024013 -0.006448 -0.003302 0.000000 0.012997 0.000000
# 2 -0.006448 0.020471 -0.001304 0.000000 -0.004002 0.000000
# 3 -0.003302 -0.001304 0.010714 0.000000 0.002994 0.000000
# 4 0.000000 0.000000 0.000000 0.041669 0.000000 0.029638
# 5 0.012997 -0.004002 0.002994 0.000000 0.056700 0.000000
# 6 0.000000 0.000000 0.000000 0.029638 0.000000 0.108676
#
#
# Mechanical properties :
#
#
# Convention : Reuss Voigt Hill
#
# Bulk Modulus (GPa) = 30.21937 35.43320 32.82628
# Shear Modulus (GPa) = 16.92726 23.39334 20.16030
#
# Velocity S-wave (km/s) = 2.94933 3.46717 3.21868
# Velocity P-wave (km/s) = 5.20837 5.85121 5.53912
#
# Compressibility (1/GPa) = 0.03309136
#
# Stress axis : x y z
#
# Youngs Moduli (GPa) = 41.64328 48.85059 93.33164
#
# Poissons Ratio (x) = 0.31498 0.30819
# Poissons Ratio (y) = 0.26851 0.12166
# Poissons Ratio (z) = 0.13751 0.06368
#
# Static dielectric constant tensor:
#      x y z
#    x 1.706290 0.000000 -0.107850 
#    y 0.000000 1.724730 0.000000 
#    z -0.107850 0.000000 2.108990 
# 
# From -- ./inp_files/63421.got.cif
#   From: 2010.05.17/outbox.cif.g08.bks.cpg/sg15_32_cif.got.tgz:63421.got - 2010.06.03 18:47:42.
