data_PCOD9269162
_publ_section_title
;
Structure prediction by ZEFSAII (Michael W. Deem and Ramdas Pophale) SiO2 
 PCOD9269162
Probable space group: C 2/C
;
_chemical_formula_sum "Si O2"
_cell_formula_units_Z 48
_cell_length_a 10.792889
_cell_length_b 15.941465
_cell_length_c 12.758175
_cell_angle_alpha 90.000000
_cell_angle_beta 96.862408
_cell_angle_gamma 90.000000
_cell_volume 2179.375127
_symmetry_space_group_name_H-M "C 2/C"
_symmetry_group_IT_number 15
_symmetry_cell_setting 'monoclinic'
loop_
_space_group_symop_operation_xyz
x,y,z
-x,y,1/2-z
-x,-y,-z
x,-y,1/2+z
1/2+x,1/2+y,z
1/2-x,1/2+y,1/2-z
1/2-x,1/2-y,-z
1/2+x,1/2-y,1/2+z
loop_
_atom_site_type_symbol
_atom_site_label
_atom_site_fract_x
_atom_site_fract_y
_atom_site_fract_z
Si Si1 0.827785 0.680458 0.134393
Si Si2 0.444730 0.579289 0.109044
Si Si3 0.567500 0.754280 0.061755
Si Si4 0.154540 0.349735 0.400432
Si Si5 0.280447 0.823104 0.855196
Si Si6 0.305858 0.506780 0.404267
O O1 0.706551 0.741617 0.118675
O O2 0.861897 0.671661 0.259439
O O3 0.774617 0.590642 0.092341
O O4 0.920719 0.715752 0.056963
O O5 0.499398 0.663869 0.058976
O O6 0.345302 0.621903 0.177188
O O7 0.567729 0.525583 0.148747
O O8 0.365025 0.523731 0.020280
O O9 0.487948 0.819310 0.123079
O O10 0.239186 0.272137 0.372195
O O11 0.168226 0.355472 0.528851
O O12 0.212442 0.433492 0.358148
#
# Coordination Sequence:
#
# PCOD9269162 Si02
#       6
#     8   8   8   8   8   8
#     4  10  20  34  52  80 109 140 178 217 261 318
#     4   8  16  33  54  74 100 137 174 216 263 313
#     4   9  19  34  53  75 109 146 174 211 265 319
#     4   9  18  34  54  76 104 140 176 220 264 311
#     4   9  18  34  55  76 104 141 181 213 260 323
#     4   9  17  31  52  76 100 126 173 222 263 303
#
# _framework density 22.024663
#
# number of rings (size 3 to 8) (size 9 to 14) (size 15 to 20)
#    0.000    3.000    0.000    1.000    0.000    7.333 
#    0.000   13.333    0.000    2.000    0.000    0.000 
#    0.000    0.000    0.000    0.000    0.000    0.000 
#
# Total GULP energy -133774.107885 kJ/mol
# GULP energy per Si atom -5573.921162 kJ/mol
# Density = 2.197453 g / cm^3
# Si number density = 22.024663 Si / 1000 Ang^3
#
#
#
# Elastic Constant Matrix: (Units=GPa)
#
#
# Indices 1 2 3 4 5 6 
#
# 1 89.4695 43.6641 8.6811 0.0000 -20.8136 0.0000
# 2 43.6641 74.3375 10.3231 0.0000 1.0233 0.0000
# 3 8.6811 10.3231 92.6879 0.0000 -11.9527 0.0000
# 4 0.0000 0.0000 0.0000 14.1071 0.0000 1.3128
# 5 -20.8136 1.0233 -11.9527 0.0000 22.2299 0.0000
# 6 0.0000 0.0000 0.0000 1.3128 0.0000 40.6688
#
#
#
# Elastic Compliance Matrix: (Units=1/GPa)
#
#
# Indices 1 2 3 4 5 6 
#
# 1 0.023689 -0.014599 0.002529 0.000000 0.024212 0.000000
# 2 -0.014599 0.022711 -0.003287 0.000000 -0.016482 0.000000
# 3 0.002529 -0.003287 0.012081 0.000000 0.009015 0.000000
# 4 0.000000 0.000000 0.000000 0.071100 0.000000 -0.002295
# 5 0.024212 -0.016482 0.009015 0.000000 0.073260 0.000000
# 6 0.000000 0.000000 0.000000 -0.002295 0.000000 0.024663
#
#
# Mechanical properties :
#
#
# Convention : Reuss Voigt Hill
#
# Bulk Modulus (GPa) = 36.01469 42.42570 39.22020
# Shear Modulus (GPa) = 18.69359 28.32293 23.50826
#
# Velocity S-wave (km/s) = 2.91650 3.58992 3.27059
# Velocity P-wave (km/s) = 5.26582 6.04053 5.66643
#
# Compressibility (1/GPa) = 0.02776645
#
# Stress axis : x y z
#
# Youngs Moduli (GPa) = 42.21433 44.03242 82.77659
#
# Poissons Ratio (x) = 0.64282 -0.20938
# Poissons Ratio (y) = 0.61628 0.27213
# Poissons Ratio (z) = -0.10678 0.14476
#
# Static dielectric constant tensor:
#      x y z
#    x 1.878500 0.000000 0.030680 
#    y 0.000000 1.775910 0.000000 
#    z 0.030680 0.000000 1.854520 
# 
# From -- ./inp_files/144684.got.cif
#   From: 2010.05.17/outbox.cif.g08.bks.cpg/sg15_73_cif.got.tgz:144684.got - 2010.06.03 18:47:42.
