data_PCOD9269158
_publ_section_title
;
Structure prediction by ZEFSAII (Michael W. Deem and Ramdas Pophale) SiO2 
 PCOD9269158
Probable space group: C 2/C
;
_chemical_formula_sum "Si O2"
_cell_formula_units_Z 64
_cell_length_a 7.190629
_cell_length_b 23.933641
_cell_length_c 24.764186
_cell_angle_alpha 90.000000
_cell_angle_beta 140.438770
_cell_angle_gamma 90.000000
_cell_volume 2714.392468
_symmetry_space_group_name_H-M "C 2/C"
_symmetry_group_IT_number 15
_symmetry_cell_setting 'monoclinic'
loop_
_space_group_symop_operation_xyz
x,y,z
-x,y,1/2-z
-x,-y,-z
x,-y,1/2+z
1/2+x,1/2+y,z
1/2-x,1/2+y,1/2-z
1/2-x,1/2-y,-z
1/2+x,1/2-y,1/2+z
loop_
_atom_site_type_symbol
_atom_site_label
_atom_site_fract_x
_atom_site_fract_y
_atom_site_fract_z
Si Si1 0.304152 0.003263 0.601049
Si Si2 0.972812 0.130122 0.326796
Si Si3 0.960615 0.311921 0.990762
Si Si4 0.614756 0.117649 0.351005
Si Si5 0.058453 0.814031 0.009335
Si Si6 0.409478 0.387902 0.145773
Si Si7 0.526483 0.122712 0.671121
Si Si8 0.739022 0.008898 0.100268
O O1 0.364806 0.063115 0.640851
O O2 0.331721 0.948497 0.643405
O O3 0.562101 0.994637 0.615936
O O4 0.000000 0.000000 0.500000
O O5 0.771597 0.143743 0.333996
O O6 0.729951 0.129800 0.225479
O O7 0.247435 0.171010 0.394154
O O8 0.102550 0.068048 0.364505
O O9 0.059801 0.248126 0.010046
O O10 0.760330 0.315455 0.000358
O O11 0.222536 0.355387 0.059171
O O12 0.800753 0.141470 0.442357
O O13 0.278895 0.831770 0.105667
O O14 0.730574 0.365223 0.229839
O O15 0.214817 0.382089 0.157166
O O16 0.437781 0.454011 0.141652
O O17 0.500000 0.000000 0.000000
#
# Coordination Sequence:
#
# PCOD9269158 Si02
#       8
#     8   8   8   8   8   8   8   8
#     4  11  20  33  54  78 106 138 174 214 265 318
#     4  10  20  34  52  78 110 140 172 215 266 317
#     4   9  17  30  48  72 104 138 173 214 259 306
#     4  10  20  34  52  78 110 140 172 215 266 317
#     4   9  17  30  48  72 104 138 173 214 259 306
#     4   9  17  29  47  72 100 128 164 209 254 303
#     4   9  17  29  47  72 100 128 164 209 254 303
#     4  11  20  33  54  78 106 138 174 214 265 318
#
# _framework density 23.578022000000001
#
# number of rings (size 3 to 8) (size 9 to 14) (size 15 to 20)
#    0.000    2.250    2.500    1.500    0.000    2.500 
#    0.000    5.000    0.000    0.750    0.000    0.000 
#    0.000    0.000    0.000    0.000    0.000    0.000 
#
# Total GULP energy -178863.893694 kJ/mol
# GULP energy per Si atom -5589.496678 kJ/mol
# Density = 2.352436 g / cm^3
# Si number density = 23.578022 Si / 1000 Ang^3
#
#
#
# Elastic Constant Matrix: (Units=GPa)
#
#
# Indices 1 2 3 4 5 6 
#
# 1 75.0175 -17.4897 -10.6188 0.0000 12.7883 0.0000
# 2 -17.4897 87.0938 30.5401 0.0000 9.7804 0.0000
# 3 -10.6188 30.5401 147.7060 0.0000 16.5458 0.0000
# 4 0.0000 0.0000 0.0000 13.2384 0.0000 -5.8911
# 5 12.7883 9.7804 16.5458 0.0000 23.8349 0.0000
# 6 0.0000 0.0000 0.0000 -5.8911 0.0000 8.2275
#
#
#
# Elastic Compliance Matrix: (Units=1/GPa)
#
#
# Indices 1 2 3 4 5 6 
#
# 1 0.016494 0.004041 0.001656 0.000000 -0.011657 0.000000
# 2 0.004041 0.013658 -0.001803 0.000000 -0.006521 0.000000
# 3 0.001656 -0.001803 0.007892 0.000000 -0.005628 0.000000
# 4 0.000000 0.000000 0.000000 0.110863 0.000000 0.079381
# 5 -0.011657 -0.006521 -0.005628 0.000000 0.054792 0.000000
# 6 0.000000 0.000000 0.000000 0.079381 0.000000 0.178383
#
#
# Mechanical properties :
#
#
# Convention : Reuss Voigt Hill
#
# Bulk Modulus (GPa) = 21.81905 34.96450 28.39178
# Shear Modulus (GPa) = 12.83462 29.55255 21.19359
#
# Velocity S-wave (km/s) = 2.33566 3.54417 3.00137
# Velocity P-wave (km/s) = 4.06790 5.62225 4.90701
#
# Compressibility (1/GPa) = 0.04583151
#
# Stress axis : x y z
#
# Youngs Moduli (GPa) = 60.62845 73.21851 126.70330
#
# Poissons Ratio (x) = -0.29584 -0.20984
# Poissons Ratio (y) = -0.24497 0.22845
# Poissons Ratio (z) = -0.10041 0.13201
#
# Static dielectric constant tensor:
#      x y z
#    x 2.015310 0.000000 -0.040360 
#    y 0.000000 1.837190 0.000000 
#    z -0.040360 0.000000 1.900490 
# 
# From -- ./inp_files/309144.got.cif
#   From: 2010.05.17/outbox.cif.g08.bks.cpg/sg15_155_cif.got.tgz:309144.got - 2010.06.03 18:47:42.
