data_PCOD9269862
_publ_section_title
;
Structure prediction by ZEFSAII (Michael W. Deem and Ramdas Pophale) SiO2 
 PCOD9269862
Probable space group: C 2/C
;
_chemical_formula_sum "Si O2"
_cell_formula_units_Z 44
_cell_length_a 12.720350
_cell_length_b 13.465683
_cell_length_c 18.680462
_cell_angle_alpha 90.000000
_cell_angle_beta 31.476034
_cell_angle_gamma 90.000000
_cell_volume 1670.719656
_symmetry_space_group_name_H-M "C 2/C"
_symmetry_group_IT_number 15
_symmetry_cell_setting 'monoclinic'
loop_
_space_group_symop_operation_xyz
x,y,z
-x,y,1/2-z
-x,-y,-z
x,-y,1/2+z
1/2+x,1/2+y,z
1/2-x,1/2+y,1/2-z
1/2-x,1/2-y,-z
1/2+x,1/2-y,1/2+z
loop_
_atom_site_type_symbol
_atom_site_label
_atom_site_fract_x
_atom_site_fract_y
_atom_site_fract_z
Si Si1 0.179196 0.838844 0.094221
Si Si2 0.644688 0.771274 0.984655
Si Si3 0.237034 0.015100 0.436291
Si Si4 0.768758 0.026898 0.354871
Si Si5 0.500000 0.146426 0.750000
Si Si6 0.656140 0.610078 0.344380
O O1 0.000000 0.803476 0.250000
O O2 0.293241 0.915744 0.083385
O O3 0.250000 0.750000 0.000000
O O4 0.142752 0.919239 0.052962
O O5 0.651511 0.885478 0.962021
O O6 0.814306 0.716592 0.835474
O O7 0.750000 0.750000 0.000000
O O8 0.422273 0.723475 0.112400
O O9 0.283115 0.084242 0.340932
O O10 0.411061 0.936901 0.355684
O O11 0.059803 0.940758 0.518121
O O12 0.000000 0.037642 0.250000
O O13 0.762887 0.060150 0.274993
#
# Coordination Sequence:
#
# PCOD9269862 Si02
#       6
#     8   8   8   8   4   8
#     4  11  24  44  66  91 126 187 239 281 335 413
#     4  11  18  33  62  99 134 170 215 268 349 417
#     4  10  21  40  63  95 134 178 226 279 336 395
#     4  11  18  37  62  91 129 170 215 275 346 406
#     4  10  20  34  62  98 130 176 222 266 330 422
#     4  10  20  37  63  97 135 175 213 279 344 404
#
# _framework density 26.335955999999999
#
# number of rings (size 3 to 8) (size 9 to 14) (size 15 to 20)
#    0.000    1.455    6.364    1.091    1.273    0.000 
#    3.273    1.818    0.000    3.273    0.000    0.000 
#    0.000    0.000    0.000    0.000    0.000    0.000 
#
# Total GULP energy -122472.403863 kJ/mol
# GULP energy per Si atom -5566.927448 kJ/mol
# Density = 2.627601 g / cm^3
# Si number density = 26.335956 Si / 1000 Ang^3
#
#
#
# Elastic Constant Matrix: (Units=GPa)
#
#
# Indices 1 2 3 4 5 6 
#
# 1 85.5261 34.6587 60.1844 -0.0016 20.1680 0.0005
# 2 34.6587 189.5482 85.4543 -0.0012 10.3102 0.0006
# 3 60.1844 85.4543 152.0019 -0.0033 43.4655 0.0023
# 4 -0.0016 -0.0012 -0.0033 65.5382 0.0018 -0.8927
# 5 20.1680 10.3102 43.4655 0.0018 48.8531 -0.0008
# 6 0.0005 0.0006 0.0023 -0.8927 -0.0008 9.7707
#
#
#
# Elastic Compliance Matrix: (Units=1/GPa)
#
#
# Indices 1 2 3 4 5 6 
#
# 1 0.016279 -0.000236 -0.005909 0.000000 -0.001414 0.000001
# 2 -0.000236 0.007355 -0.004863 0.000000 0.002871 0.000001
# 3 -0.005909 -0.004863 0.014299 0.000001 -0.009257 -0.000004
# 4 0.000000 0.000000 0.000001 0.015277 -0.000001 0.001396
# 5 -0.001414 0.002871 -0.009257 -0.000001 0.028683 0.000004
# 6 0.000001 0.000001 -0.000004 0.001396 0.000004 0.102474
#
#
# Mechanical properties :
#
#
# Convention : Reuss Voigt Hill
#
# Bulk Modulus (GPa) = 62.81947 87.51900 75.16924
# Shear Modulus (GPa) = 23.61961 41.28433 32.45197
#
# Velocity S-wave (km/s) = 2.99801 3.96359 3.51412
# Velocity P-wave (km/s) = 5.99074 7.36550 6.71341
#
# Compressibility (1/GPa) = 0.01591863
#
# Stress axis : x y z
#
# Youngs Moduli (GPa) = 61.42765 135.96511 69.93443
#
# Poissons Ratio (x) = 0.03207 0.41324
# Poissons Ratio (y) = 0.01449 0.34006
# Poissons Ratio (z) = 0.36297 0.66114
#
# Static dielectric constant tensor:
#      x y z
#    x 2.118470 0.000000 -0.003240 
#    y 0.000000 2.185060 0.000000 
#    z -0.003240 0.000000 2.277360 
# 
# From -- ./inp_files/204956.got.cif
#   From: 2010.05.17/outbox.cif.g08.bks.cpg/sg15_103_cif.got.tgz:204956.got - 2010.06.03 18:47:42.
