data_PCOD9269372
_publ_section_title
;
Structure prediction by ZEFSAII (Michael W. Deem and Ramdas Pophale) SiO2 
 PCOD9269372
Probable space group: C 2/C
;
_chemical_formula_sum "Si O2"
_cell_formula_units_Z 56
_cell_length_a 20.615496
_cell_length_b 11.739898
_cell_length_c 15.768643
_cell_angle_alpha 90.000000
_cell_angle_beta 51.258556
_cell_angle_gamma 90.000000
_cell_volume 2976.697856
_symmetry_space_group_name_H-M "C 2/C"
_symmetry_group_IT_number 15
_symmetry_cell_setting 'monoclinic'
loop_
_space_group_symop_operation_xyz
x,y,z
-x,y,1/2-z
-x,-y,-z
x,-y,1/2+z
1/2+x,1/2+y,z
1/2-x,1/2+y,1/2-z
1/2-x,1/2-y,-z
1/2+x,1/2-y,1/2+z
loop_
_atom_site_type_symbol
_atom_site_label
_atom_site_fract_x
_atom_site_fract_y
_atom_site_fract_z
Si Si1 0.077808 0.082620 0.542766
Si Si2 0.037286 0.451901 0.127461
Si Si3 0.099063 0.957635 0.832594
Si Si4 0.113548 0.312449 0.310315
Si Si5 0.296665 0.447472 0.406824
Si Si6 0.691104 0.148216 0.570771
Si Si7 0.858813 0.666214 0.524378
O O1 0.115706 0.037870 0.421137
O O2 0.127451 0.058408 0.588839
O O3 0.086845 0.219800 0.532991
O O4 0.985719 0.028057 0.617313
O O5 0.103219 0.352428 0.094704
O O6 0.084853 0.558496 0.048276
O O7 0.000000 0.486416 0.250000
O O8 0.966202 0.394693 0.129838
O O9 0.090096 0.821662 0.821442
O O10 0.168420 0.007378 0.711942
O O11 0.171246 0.347458 0.185485
O O12 0.157932 0.334157 0.362126
O O13 0.236803 0.537194 0.501168
O O14 0.232399 0.342799 0.444183
O O15 0.750000 0.250000 0.500000
#
# Coordination Sequence:
#
# PCOD9269372 Si02
#       7
#     8   8   8   8   8   8   8
#     4  10  23  40  60  84 124 153 204 244 287 362
#     4   9  20  35  58  84 117 157 198 240 292 352
#     4  10  22  39  60  91 113 159 200 246 297 355
#     4  10  20  38  61  86 122 151 199 249 294 353
#     4  11  22  37  62  87 123 155 197 241 308 350
#     4  10  20  34  55  90 118 149 190 247 300 348
#     4  10  22  40  58  87 119 159 201 237 293 357
#
# _framework density 18.812792999999999
#
# number of rings (size 3 to 8) (size 9 to 14) (size 15 to 20)
#    0.000    2.000    1.429    1.286    4.000    2.286 
#    0.000    1.429    0.000    0.000    0.000    0.000 
#    0.000    0.000    0.000    0.000    0.000    0.000 
#
# Total GULP energy -155905.987996 kJ/mol
# GULP energy per Si atom -5568.071000 kJ/mol
# Density = 1.876997 g / cm^3
# Si number density = 18.812793 Si / 1000 Ang^3
#
#
#
# Elastic Constant Matrix: (Units=GPa)
#
#
# Indices 1 2 3 4 5 6 
#
# 1 92.0847 44.6888 36.7285 0.0000 11.7506 0.0000
# 2 44.6888 78.3406 46.0612 0.0000 2.1280 0.0000
# 3 36.7285 46.0612 96.4767 0.0000 0.9668 0.0000
# 4 0.0000 0.0000 0.0000 10.5106 0.0000 -0.7625
# 5 11.7506 2.1280 0.9668 0.0000 20.5605 0.0000
# 6 0.0000 0.0000 0.0000 -0.7625 0.0000 28.1608
#
#
#
# Elastic Compliance Matrix: (Units=1/GPa)
#
#
# Indices 1 2 3 4 5 6 
#
# 1 0.016790 -0.007835 -0.002565 0.000000 -0.008664 0.000000
# 2 -0.007835 0.021445 -0.007282 0.000000 0.002600 0.000000
# 3 -0.002565 -0.007282 0.014803 0.000000 0.001523 0.000000
# 4 0.000000 0.000000 0.000000 0.095330 0.000000 0.002581
# 5 -0.008664 0.002600 0.001523 0.000000 0.053248 0.000000
# 6 0.000000 0.000000 0.000000 0.002581 0.000000 0.035580
#
#
# Mechanical properties :
#
#
# Convention : Reuss Voigt Hill
#
# Bulk Modulus (GPa) = 56.57516 57.98432 57.27974
# Shear Modulus (GPa) = 17.95653 21.14127 19.54890
#
# Velocity S-wave (km/s) = 3.09283 3.35591 3.22705
# Velocity P-wave (km/s) = 6.54921 6.77531 6.66322
#
# Compressibility (1/GPa) = 0.01767560
#
# Stress axis : x y z
#
# Youngs Moduli (GPa) = 59.55829 46.63135 67.55417
#
# Poissons Ratio (x) = 0.36534 0.17326
# Poissons Ratio (y) = 0.46662 0.49192
# Poissons Ratio (z) = 0.15275 0.33957
#
# Static dielectric constant tensor:
#      x y z
#    x 1.692010 0.000000 0.012850 
#    y 0.000000 1.645020 0.000000 
#    z 0.012850 0.000000 1.642030 
# 
# From -- ./inp_files/161258.got.cif
#   From: 2010.05.17/outbox.cif.g08.bks.cpg/sg15_81_cif.got.tgz:161258.got - 2010.06.03 18:47:42.
