data_PCOD9269578
_publ_section_title
;
Structure prediction by ZEFSAII (Michael W. Deem and Ramdas Pophale) SiO2 
 PCOD9269578
Probable space group: C 2/C
;
_chemical_formula_sum "Si O2"
_cell_formula_units_Z 36
_cell_length_a 12.812304
_cell_length_b 7.259192
_cell_length_c 18.695937
_cell_angle_alpha 90.000000
_cell_angle_beta 128.937678
_cell_angle_gamma 90.000000
_cell_volume 1352.531720
_symmetry_space_group_name_H-M "C 2/C"
_symmetry_group_IT_number 15
_symmetry_cell_setting 'monoclinic'
loop_
_space_group_symop_operation_xyz
x,y,z
-x,y,1/2-z
-x,-y,-z
x,-y,1/2+z
1/2+x,1/2+y,z
1/2-x,1/2+y,1/2-z
1/2-x,1/2-y,-z
1/2+x,1/2-y,1/2+z
loop_
_atom_site_type_symbol
_atom_site_label
_atom_site_fract_x
_atom_site_fract_y
_atom_site_fract_z
Si Si1 0.595233 0.775846 0.922096
Si Si2 0.255581 0.827114 0.289163
Si Si3 0.500000 0.123022 0.250000
Si Si4 0.472126 0.391592 0.563131
Si Si5 0.661193 0.197160 0.104341
O O1 0.573373 0.935660 0.853263
O O2 0.556033 0.557155 0.893217
O O3 0.494960 0.835471 0.940889
O O4 0.750000 0.750000 0.000000
O O5 0.126392 0.723959 0.266002
O O6 0.396622 0.721694 0.358297
O O7 0.224856 0.840056 0.190450
O O8 0.266520 0.011773 0.340073
O O9 0.500000 0.500000 0.500000
O O10 0.349987 0.264646 0.481453
#
# Coordination Sequence:
#
# PCOD9269578 Si02
#       5
#     8   8   4   8   8
#     4  10  21  38  59  85 115 154 194 239 297 353
#     4  11  21  38  59  87 116 154 198 240 298 350
#     4  10  20  34  58  82 114 150 188 238 286 342
#     4  10  20  37  60  84 114 154 197 239 290 359
#     4  10  21  37  60  83 115 157 195 243 294 357
#
# _framework density 26.61675
#
# number of rings (size 3 to 8) (size 9 to 14) (size 15 to 20)
#    0.000    1.778    0.000    7.333    0.000    1.778 
#    0.000    6.667    0.000   10.667    0.000    0.000 
#    0.000    0.000    0.000    0.000    0.000    0.000 
#
# Total GULP energy -100235.242619 kJ/mol
# GULP energy per Si atom -5568.624590 kJ/mol
# Density = 2.655617 g / cm^3
# Si number density = 26.616750 Si / 1000 Ang^3
#
#
#
# Elastic Constant Matrix: (Units=GPa)
#
#
# Indices 1 2 3 4 5 6 
#
# 1 79.9989 4.1094 37.0308 0.0000 -2.1828 0.0000
# 2 4.1094 82.4671 28.6790 0.0000 10.6987 0.0000
# 3 37.0308 28.6790 177.2702 0.0000 12.5484 0.0000
# 4 0.0000 0.0000 0.0000 49.3175 0.0000 3.4577
# 5 -2.1828 10.6987 12.5484 0.0000 37.0795 0.0000
# 6 0.0000 0.0000 0.0000 3.4577 0.0000 6.6838
#
#
#
# Elastic Compliance Matrix: (Units=1/GPa)
#
#
# Indices 1 2 3 4 5 6 
#
# 1 0.013963 0.000135 -0.003067 0.000000 0.001821 0.000000
# 2 0.000135 0.013202 -0.001941 0.000000 -0.003144 0.000000
# 3 -0.003067 -0.001941 0.006730 0.000000 -0.001898 0.000000
# 4 0.000000 0.000000 0.000000 0.021040 0.000000 -0.010885
# 5 0.001821 -0.003144 -0.001898 0.000000 0.028626 0.000000
# 6 0.000000 0.000000 0.000000 -0.010885 0.000000 0.155247
#
#
# Mechanical properties :
#
#
# Convention : Reuss Voigt Hill
#
# Bulk Modulus (GPa) = 41.41273 53.26384 47.33828
# Shear Modulus (GPa) = 19.48510 36.61063 28.04787
#
# Velocity S-wave (km/s) = 2.70860 3.71276 3.24970
# Velocity P-wave (km/s) = 5.03733 6.19954 5.64841
#
# Compressibility (1/GPa) = 0.02414716
#
# Stress axis : x y z
#
# Youngs Moduli (GPa) = 71.61857 75.74363 148.58103
#
# Poissons Ratio (x) = -0.01020 0.45577
# Poissons Ratio (y) = -0.00965 0.28846
# Poissons Ratio (z) = 0.21969 0.14705
#
# Static dielectric constant tensor:
#      x y z
#    x 2.089010 0.000000 -0.102620 
#    y 0.000000 2.360520 0.000000 
#    z -0.102620 0.000000 2.327050 
# 
# From -- ./inp_files/150219.got.cif
#   From: 2010.05.17/outbox.cif.g08.bks.cpg/sg15_76_cif.got.tgz:150219.got - 2010.06.03 18:47:42.
