data_PCOD9269759
_publ_section_title
;
Structure prediction by ZEFSAII (Michael W. Deem and Ramdas Pophale) SiO2 
 PCOD9269759
Probable space group: C 2/C
;
_chemical_formula_sum "Si O2"
_cell_formula_units_Z 44
_cell_length_a 15.482751
_cell_length_b 13.241083
_cell_length_c 12.484125
_cell_angle_alpha 90.000000
_cell_angle_beta 56.712122
_cell_angle_gamma 90.000000
_cell_volume 2139.421124
_symmetry_space_group_name_H-M "C 2/C"
_symmetry_group_IT_number 15
_symmetry_cell_setting 'monoclinic'
loop_
_space_group_symop_operation_xyz
x,y,z
-x,y,1/2-z
-x,-y,-z
x,-y,1/2+z
1/2+x,1/2+y,z
1/2-x,1/2+y,1/2-z
1/2-x,1/2-y,-z
1/2+x,1/2-y,1/2+z
loop_
_atom_site_type_symbol
_atom_site_label
_atom_site_fract_x
_atom_site_fract_y
_atom_site_fract_z
Si Si1 0.507027 0.121272 0.005857
Si Si2 0.899947 0.283603 0.389505
Si Si3 0.261128 0.811770 0.157606
Si Si4 0.266984 0.092598 0.422125
Si Si5 0.500000 0.894122 0.750000
Si Si6 0.695370 0.379064 0.424348
O O1 0.418162 0.159551 0.988914
O O2 0.619631 0.161695 0.894765
O O3 0.495085 0.157624 0.137013
O O4 0.500000 0.000000 0.000000
O O5 0.801178 0.327763 0.396458
O O6 0.886602 0.168846 0.438367
O O7 0.000000 0.298172 0.250000
O O8 0.246825 0.693863 0.138549
O O9 0.190213 0.845704 0.304319
O O10 0.242652 0.873767 0.060201
O O11 0.387166 0.055056 0.334059
O O12 0.200592 0.998877 0.429237
#
# Coordination Sequence:
#
# PCOD9269759 Si02
#       6
#     8   8   8   8   4   8
#     4  11  21  35  62  89 123 159 200 257 301 360
#     4  11  23  40  60  93 125 157 212 253 310 374
#     4  10  21  39  61  91 126 155 207 259 302 373
#     4  10  22  38  62  93 123 161 207 258 312 362
#     4  10  20  34  60  90 116 156 204 248 308 362
#     4  11  23  39  65  88 124 168 200 259 315 367
#
# _framework density 20.566312
#
# number of rings (size 3 to 8) (size 9 to 14) (size 15 to 20)
#    0.000    1.455    1.818    4.364    2.545    2.909 
#    0.000    0.909   18.000    0.000    0.000    0.000 
#    0.000    0.000    0.000    0.000    0.000    0.000 
#
# Total GULP energy -122717.353778 kJ/mol
# GULP energy per Si atom -5578.061535 kJ/mol
# Density = 2.051950 g / cm^3
# Si number density = 20.566312 Si / 1000 Ang^3
#
#
#
# Elastic Constant Matrix: (Units=GPa)
#
#
# Indices 1 2 3 4 5 6 
#
# 1 31.5412 8.9268 2.3333 0.0000 15.5410 0.0000
# 2 8.9268 125.1714 15.2317 0.0000 16.8983 0.0000
# 3 2.3333 15.2317 79.7949 0.0000 28.7023 0.0000
# 4 0.0000 0.0000 0.0000 9.0386 0.0000 -2.2739
# 5 15.5410 16.8983 28.7023 0.0000 33.5458 0.0000
# 6 0.0000 0.0000 0.0000 -2.2739 0.0000 17.2741
#
#
#
# Elastic Compliance Matrix: (Units=1/GPa)
#
#
# Indices 1 2 3 4 5 6 
#
# 1 0.045143 -0.000484 0.008967 0.000000 -0.028342 0.000000
# 2 -0.000484 0.008578 -0.000216 0.000000 -0.003912 0.000000
# 3 0.008967 -0.000216 0.019887 0.000000 -0.021061 0.000000
# 4 0.000000 0.000000 0.000000 0.114426 0.000000 0.015063
# 5 -0.028342 -0.003912 -0.021061 0.000000 0.062931 0.000000
# 6 0.000000 0.000000 0.000000 0.015063 0.000000 0.059873
#
#
# Mechanical properties :
#
#
# Convention : Reuss Voigt Hill
#
# Bulk Modulus (GPa) = 11.09377 32.16568 21.62973
# Shear Modulus (GPa) = 15.41540 25.97275 20.69407
#
# Velocity S-wave (km/s) = 2.74075 3.55756 3.17553
# Velocity P-wave (km/s) = 3.92702 5.70516 4.89747
#
# Compressibility (1/GPa) = 0.09014068
#
# Stress axis : x y z
#
# Youngs Moduli (GPa) = 22.15185 116.57756 50.28461
#
# Poissons Ratio (x) = 0.05647 -0.45091
# Poissons Ratio (y) = 0.01073 0.01087
# Poissons Ratio (z) = -0.19864 0.02521
#
# Static dielectric constant tensor:
#      x y z
#    x 1.749350 0.000000 -0.011910 
#    y 0.000000 1.734930 0.000000 
#    z -0.011910 0.000000 1.771300 
# 
# From -- ./inp_files/104074.got.cif
#   From: 2010.05.17/outbox.cif.g08.bks.cpg/sg15_53_cif.got.tgz:104074.got - 2010.06.03 18:47:42.
