data_PCOD9269052
_publ_section_title
;
Structure prediction by ZEFSAII (Michael W. Deem and Ramdas Pophale) SiO2 
 PCOD9269052
Probable space group: C 2/C
;
_chemical_formula_sum "Si O2"
_cell_formula_units_Z 44
_cell_length_a 9.229213
_cell_length_b 29.183685
_cell_length_c 7.180356
_cell_angle_alpha 90.000000
_cell_angle_beta 111.889822
_cell_angle_gamma 90.000000
_cell_volume 1794.539898
_symmetry_space_group_name_H-M "C 2/C"
_symmetry_group_IT_number 15
_symmetry_cell_setting 'monoclinic'
loop_
_space_group_symop_operation_xyz
x,y,z
-x,y,1/2-z
-x,-y,-z
x,-y,1/2+z
1/2+x,1/2+y,z
1/2-x,1/2+y,1/2-z
1/2-x,1/2-y,-z
1/2+x,1/2-y,1/2+z
loop_
_atom_site_type_symbol
_atom_site_label
_atom_site_fract_x
_atom_site_fract_y
_atom_site_fract_z
Si Si1 0.500000 0.528815 0.750000
Si Si2 0.182466 0.375313 0.989616
Si Si3 0.500000 0.343952 0.250000
Si Si4 0.084704 0.229044 0.483453
Si Si5 0.253231 0.532721 0.902049
Si Si6 0.500000 0.106035 0.750000
Si Si7 0.500000 0.200659 0.250000
Si Si8 0.500000 0.038912 0.250000
O O1 0.385988 0.554527 0.835990
O O2 0.370205 0.496320 0.588261
O O3 0.365355 0.372667 0.089412
O O4 0.090138 0.365430 0.137635
O O5 0.140969 0.335403 0.824119
O O6 0.111473 0.424941 0.908442
O O7 0.416967 0.312643 0.369277
O O8 0.250000 0.250000 0.500000
O O9 0.000000 0.217130 0.250000
O O10 0.998985 0.267994 0.567129
O O11 0.134256 0.572921 0.906212
O O12 0.131616 0.497201 0.742464
#
# Coordination Sequence:
#
# PCOD9269052 Si02
#       8
#     4   8   4   8   8   4   4   4
#     4  10  20  33  64  89 124 150 218 328 332 367
#     4  11  24  42  63  94 142 181 217 292 345 405
#     4  11  26  44  64 111 142 170 236 283 334 421
#     4  11  23  43  77 102 135 184 219 281 338 407
#     4  10  21  40  62  96 123 172 248 281 336 418
#     4  11  24  39  64  89 128 193 230 272 356 413
#     4  10  24  43  68 105 138 172 236 268 338 430
#     4  10  22  41  64  86 134 187 224 287 344 407
#
# _framework density 24.518820999999999
#
# number of rings (size 3 to 8) (size 9 to 14) (size 15 to 20)
#    0.000    1.455    0.000    4.364    3.818   10.182 
#    0.000    0.000    0.000    0.000    0.000    0.000 
#    0.000    0.000    0.000    0.000    0.000    0.000 
#
# Total GULP energy -122700.778883 kJ/mol
# GULP energy per Si atom -5577.308131 kJ/mol
# Density = 2.446302 g / cm^3
# Si number density = 24.518821 Si / 1000 Ang^3
#
#
#
# Elastic Constant Matrix: (Units=GPa)
#
#
# Indices 1 2 3 4 5 6 
#
# 1 164.8749 28.6660 25.5914 0.0000 29.0063 0.0000
# 2 28.6660 80.8558 21.5864 0.0000 5.9993 0.0000
# 3 25.5914 21.5864 83.4071 0.0000 31.6198 0.0000
# 4 0.0000 0.0000 0.0000 29.0685 0.0000 2.7009
# 5 29.0063 5.9993 31.6198 0.0000 50.7468 0.0000
# 6 0.0000 0.0000 0.0000 2.7009 0.0000 29.6290
#
#
#
# Elastic Compliance Matrix: (Units=1/GPa)
#
#
# Indices 1 2 3 4 5 6 
#
# 1 0.007128 -0.002194 -0.000226 0.000000 -0.003674 0.000000
# 2 -0.002194 0.013983 -0.003659 0.000000 0.001881 0.000000
# 3 -0.000226 -0.003659 0.016749 0.000000 -0.009874 0.000000
# 4 0.000000 0.000000 0.000000 0.034695 0.000000 -0.003163
# 5 -0.003674 0.001881 -0.009874 0.000000 0.027736 0.000000
# 6 0.000000 0.000000 0.000000 -0.003163 0.000000 0.034039
#
#
# Mechanical properties :
#
#
# Convention : Reuss Voigt Hill
#
# Bulk Modulus (GPa) = 38.90807 53.42503 46.16655
# Shear Modulus (GPa) = 32.24644 38.77513 35.51078
#
# Velocity S-wave (km/s) = 3.63046 3.98105 3.80979
# Velocity P-wave (km/s) = 5.78591 6.55503 6.18244
#
# Compressibility (1/GPa) = 0.02570161
#
# Stress axis : x y z
#
# Youngs Moduli (GPa) = 140.28827 71.51647 59.70480
#
# Poissons Ratio (x) = 0.15692 0.01352
# Poissons Ratio (y) = 0.30781 0.21844
# Poissons Ratio (z) = 0.03177 0.26165
#
# Static dielectric constant tensor:
#      x y z
#    x 1.991270 0.000000 -0.016800 
#    y 0.000000 1.944840 0.000000 
#    z -0.016800 0.000000 2.289750 
# 
# From -- ./inp_files/26311.got.cif
#   From: 2010.05.17/outbox.cif.g08.bks.cpg/sg15_14_cif.got.tgz:26311.got - 2010.06.03 18:47:42.
