data_PCOD9269400
_publ_section_title
;
Structure prediction by ZEFSAII (Michael W. Deem and Ramdas Pophale) SiO2 
 PCOD9269400
Probable space group: C 2/C
;
_chemical_formula_sum "Si O2"
_cell_formula_units_Z 52
_cell_length_a 8.251342
_cell_length_b 12.833139
_cell_length_c 26.226775
_cell_angle_alpha 90.000000
_cell_angle_beta 108.923974
_cell_angle_gamma 90.000000
_cell_volume 2627.062707
_symmetry_space_group_name_H-M "C 2/C"
_symmetry_group_IT_number 15
_symmetry_cell_setting 'monoclinic'
loop_
_space_group_symop_operation_xyz
x,y,z
-x,y,1/2-z
-x,-y,-z
x,-y,1/2+z
1/2+x,1/2+y,z
1/2-x,1/2+y,1/2-z
1/2-x,1/2-y,-z
1/2+x,1/2-y,1/2+z
loop_
_atom_site_type_symbol
_atom_site_label
_atom_site_fract_x
_atom_site_fract_y
_atom_site_fract_z
Si Si1 0.247879 0.258776 0.938466
Si Si2 0.849047 0.423087 0.811263
Si Si3 0.900896 0.664550 0.516240
Si Si4 0.719888 0.138186 0.733792
Si Si5 0.000000 0.185549 0.250000
Si Si6 0.449510 0.949020 0.569532
Si Si7 0.016810 0.202163 0.827055
O O1 0.433191 0.219060 0.941760
O O2 0.100026 0.198499 0.891778
O O3 0.203576 0.378554 0.924189
O O4 0.250000 0.250000 0.000000
O O5 0.862352 0.525371 0.778583
O O6 0.653182 0.383336 0.788130
O O7 0.906419 0.459159 0.873063
O O8 0.967234 0.323153 0.810433
O O9 0.750000 0.750000 0.500000
O O10 0.961277 0.617218 0.467357
O O11 0.871958 0.558123 0.544030
O O12 0.587750 0.233599 0.719948
O O13 0.846788 0.157835 0.699134
O O14 0.837784 0.145479 0.796614
#
# Coordination Sequence:
#
# PCOD9269400 Si02
#       7
#     8   8   8   8   4   8   8
#     4   9  18  35  57  79 110 145 178 224 276 325
#     4  10  20  36  55  78 111 143 178 225 272 323
#     4  10  20  34  56  81 107 141 185 229 272 324
#     4  10  20  35  56  80 112 147 181 224 278 325
#     4  10  22  34  54  84 106 136 184 224 266 330
#     4   9  20  36  53  78 110 144 179 222 275 327
#     4   9  19  35  55  80 110 145 183 221 270 332
#
# _framework density 19.793970000000002
#
# number of rings (size 3 to 8) (size 9 to 14) (size 15 to 20)
#    0.000    2.462    0.000    1.846    0.000    5.538 
#    0.000    0.000    0.000   11.077    0.000    0.000 
#    0.000    0.000    0.000    0.000    0.000    0.000 
#
# Total GULP energy -144761.657384 kJ/mol
# GULP energy per Si atom -5567.756053 kJ/mol
# Density = 1.974892 g / cm^3
# Si number density = 19.793970 Si / 1000 Ang^3
#
#
#
# Elastic Constant Matrix: (Units=GPa)
#
#
# Indices 1 2 3 4 5 6 
#
# 1 36.2447 32.0140 21.2094 0.0000 11.0662 0.0000
# 2 32.0140 116.0132 49.6541 0.0000 20.6096 0.0000
# 3 21.2094 49.6541 125.2718 0.0000 30.1485 0.0000
# 4 0.0000 0.0000 0.0000 23.8617 0.0000 9.2902
# 5 11.0662 20.6096 30.1485 0.0000 18.0786 0.0000
# 6 0.0000 0.0000 0.0000 9.2902 0.0000 4.8644
#
#
#
# Elastic Compliance Matrix: (Units=1/GPa)
#
#
# Indices 1 2 3 4 5 6 
#
# 1 0.039369 -0.008295 0.000244 0.000000 -0.015050 0.000000
# 2 -0.008295 0.012933 -0.002331 0.000000 -0.005779 0.000000
# 3 0.000244 -0.002331 0.013800 0.000000 -0.020506 0.000000
# 4 0.000000 0.000000 0.000000 0.163431 0.000000 -0.312129
# 5 -0.015050 -0.005779 -0.020506 0.000000 0.105310 0.000000
# 6 0.000000 0.000000 0.000000 -0.312129 0.000000 0.801698
#
#
# Mechanical properties :
#
#
# Convention : Reuss Voigt Hill
#
# Bulk Modulus (GPa) = 22.05621 53.69830 37.87726
# Shear Modulus (GPa) = 4.26469 21.00442 12.63455
#
# Velocity S-wave (km/s) = 1.46943 3.26107 2.52921
# Velocity P-wave (km/s) = 3.74780 6.43171 5.26369
#
# Compressibility (1/GPa) = 0.04533870
#
# Stress axis : x y z
#
# Youngs Moduli (GPa) = 25.40080 77.32149 72.46184
#
# Poissons Ratio (x) = 0.64138 -0.01771
# Poissons Ratio (y) = 0.21070 0.16892
# Poissons Ratio (z) = -0.00621 0.18025
#
# Static dielectric constant tensor:
#      x y z
#    x 1.734570 0.000000 -0.017270 
#    y 0.000000 1.711570 0.000000 
#    z -0.017270 0.000000 1.742880 
# 
# From -- ./inp_files/287570.got.cif
#   From: 2010.05.17/outbox.cif.g08.bks.cpg/sg15_144_cif.got.tgz:287570.got - 2010.06.03 18:47:42.
