data_PCOD9269900
_publ_section_title
;
Structure prediction by ZEFSAII (Michael W. Deem and Ramdas Pophale) SiO2 
 PCOD9269900
Probable space group: C 2/C
;
_chemical_formula_sum "Si O2"
_cell_formula_units_Z 64
_cell_length_a 27.175990
_cell_length_b 8.630513
_cell_length_c 13.796915
_cell_angle_alpha 90.000000
_cell_angle_beta 56.600644
_cell_angle_gamma 90.000000
_cell_volume 2701.559472
_symmetry_space_group_name_H-M "C 2/C"
_symmetry_group_IT_number 15
_symmetry_cell_setting 'monoclinic'
loop_
_space_group_symop_operation_xyz
x,y,z
-x,y,1/2-z
-x,-y,-z
x,-y,1/2+z
1/2+x,1/2+y,z
1/2-x,1/2+y,1/2-z
1/2-x,1/2-y,-z
1/2+x,1/2-y,1/2+z
loop_
_atom_site_type_symbol
_atom_site_label
_atom_site_fract_x
_atom_site_fract_y
_atom_site_fract_z
Si Si1 0.647675 0.470090 0.246029
Si Si2 0.038789 0.221793 0.934731
Si Si3 0.270363 0.325631 0.111457
Si Si4 0.353605 0.237470 0.858487
Si Si5 0.442836 0.953544 0.747289
Si Si6 0.637350 0.310838 0.071840
Si Si7 0.535181 0.479760 0.611656
Si Si8 0.779363 0.849530 0.670747
O O1 0.601281 0.358333 0.345418
O O2 0.616525 0.615087 0.225405
O O3 0.673142 0.374826 0.126648
O O4 0.686408 0.551684 0.284771
O O5 0.040282 0.387371 0.878376
O O6 0.992631 0.114463 0.926062
O O7 0.030699 0.182048 0.057141
O O8 0.209667 0.274263 0.126387
O O9 0.267873 0.250289 0.220996
O O10 0.261080 0.510060 0.122105
O O11 0.328807 0.268781 0.993259
O O12 0.396299 0.093362 0.798121
O O13 0.500000 0.990023 0.750000
O O14 0.409395 0.811168 0.836889
O O15 0.599812 0.450804 0.064659
O O16 0.678230 0.246234 0.941988
O O17 0.500000 0.472553 0.750000
#
# Coordination Sequence:
#
# PCOD9269900 Si02
#       8
#     8   8   8   8   8   8   8   8
#     4  10  20  39  63  94 124 173 220 278 326 400
#     4  10  20  34  64  96 131 174 237 268 322 402
#     4  10  24  45  66  98 131 181 229 288 342 405
#     4  10  23  45  68  92 145 177 225 284 350 401
#     4  11  22  42  66 102 141 182 221 280 343 413
#     4  11  20  38  65  96 132 176 230 276 332 395
#     4  11  18  34  61  95 129 179 226 279 319 387
#     4  11  23  40  67  95 133 170 230 283 345 399
#
# _framework density 23.690021000000002
#
# number of rings (size 3 to 8) (size 9 to 14) (size 15 to 20)
#    0.000    1.500    6.250    0.000    1.750    2.000 
#    2.250    1.250    0.000    6.000    0.000    0.000 
#    0.000    0.000    0.000    0.000    0.000    0.125 
#
# Total GULP energy -178599.218506 kJ/mol
# GULP energy per Si atom -5581.225578 kJ/mol
# Density = 2.363610 g / cm^3
# Si number density = 23.690021 Si / 1000 Ang^3
#
#
#
# Elastic Constant Matrix: (Units=GPa)
#
#
# Indices 1 2 3 4 5 6 
#
# 1 22.3443 -7.4261 1.5508 0.0000 -0.2443 0.0000
# 2 -7.4261 54.8584 25.1667 0.0000 -4.8606 0.0000
# 3 1.5508 25.1667 132.4900 0.0000 7.2148 0.0000
# 4 0.0000 0.0000 0.0000 22.5623 0.0000 -5.6390
# 5 -0.2443 -4.8606 7.2148 0.0000 19.9524 0.0000
# 6 0.0000 0.0000 0.0000 -5.6390 0.0000 31.9858
#
#
#
# Elastic Compliance Matrix: (Units=1/GPa)
#
#
# Indices 1 2 3 4 5 6 
#
# 1 0.047512 0.007731 -0.002202 0.000000 0.003261 0.000000
# 2 0.007731 0.022051 -0.004669 0.000000 0.007155 0.000000
# 3 -0.002202 -0.004669 0.008695 0.000000 -0.004308 0.000000
# 4 0.000000 0.000000 0.000000 0.046365 0.000000 0.008174
# 5 0.003261 0.007155 -0.004308 0.000000 0.053460 0.000000
# 6 0.000000 0.000000 0.000000 0.008174 0.000000 0.032705
#
#
# Mechanical properties :
#
#
# Convention : Reuss Voigt Hill
#
# Bulk Modulus (GPa) = 12.50345 27.58616 20.04481
# Shear Modulus (GPa) = 21.21096 27.59353 24.40224
#
# Velocity S-wave (km/s) = 2.99549 3.41658 3.21294
# Velocity P-wave (km/s) = 4.15372 5.21862 4.71632
#
# Compressibility (1/GPa) = 0.07997791
#
# Stress axis : x y z
#
# Youngs Moduli (GPa) = 21.04727 45.34946 115.00911
#
# Poissons Ratio (x) = -0.35059 0.25328
# Poissons Ratio (y) = -0.16271 0.53695
# Poissons Ratio (z) = 0.04635 0.21172
#
# Static dielectric constant tensor:
#      x y z
#    x 1.975490 0.000000 0.059190 
#    y 0.000000 1.923080 0.000000 
#    z 0.059190 0.000000 1.954660 
# 
# From -- ./inp_files/180791.got.cif
#   From: 2010.05.17/outbox.cif.g08.bks.cpg/sg15_91_cif.got.tgz:180791.got - 2010.06.03 18:47:42.
