data_PCOD9269277
_publ_section_title
;
Structure prediction by ZEFSAII (Michael W. Deem and Ramdas Pophale) SiO2 
 PCOD9269277
Probable space group: C 2/C
;
_chemical_formula_sum "Si O2"
_cell_formula_units_Z 48
_cell_length_a 14.600422
_cell_length_b 35.352840
_cell_length_c 5.251862
_cell_angle_alpha 90.000000
_cell_angle_beta 55.459691
_cell_angle_gamma 90.000000
_cell_volume 2232.989028
_symmetry_space_group_name_H-M "C 2/C"
_symmetry_group_IT_number 15
_symmetry_cell_setting 'monoclinic'
loop_
_space_group_symop_operation_xyz
x,y,z
-x,y,1/2-z
-x,-y,-z
x,-y,1/2+z
1/2+x,1/2+y,z
1/2-x,1/2+y,1/2-z
1/2-x,1/2-y,-z
1/2+x,1/2-y,1/2+z
loop_
_atom_site_type_symbol
_atom_site_label
_atom_site_fract_x
_atom_site_fract_y
_atom_site_fract_z
Si Si1 0.392507 0.836228 0.781048
Si Si2 0.302555 0.311094 0.024010
Si Si3 0.132475 0.519280 0.086276
Si Si4 0.126651 0.893257 0.578134
Si Si5 0.340986 0.764188 0.654181
Si Si6 0.264893 0.905979 0.845170
O O1 0.500000 0.852500 0.750000
O O2 0.427603 0.795144 0.616208
O O3 0.342746 0.868933 0.680635
O O4 0.290573 0.825253 0.127606
O O5 0.379207 0.276285 0.993585
O O6 0.369101 0.348670 0.850550
O O7 0.230273 0.290241 0.923866
O O8 0.174812 0.489567 0.234335
O O9 0.162654 0.559172 0.165931
O O10 0.000000 0.516802 0.250000
O O11 0.196224 0.912779 0.695351
O O12 0.000000 0.905973 0.750000
O O13 0.183414 0.897792 0.212605
O O14 0.250000 0.750000 0.000000
#
# Coordination Sequence:
#
# PCOD9269277 Si02
#       6
#     8   8   8   8   8   8
#     4  10  20  34  54  83 116 155 194 240 308 371
#     4   9  19  36  53  76 112 154 200 259 298 351
#     4  10  21  39  66 101 133 163 194 227 290 377
#     4  11  23  41  63  87 116 162 217 257 301 350
#     4   9  17  35  52  71 113 149 197 252 302 353
#     4  11  22  41  64  91 124 158 194 257 301 351
#
# _framework density 21.495853
#
# number of rings (size 3 to 8) (size 9 to 14) (size 15 to 20)
#    0.000    2.000    1.667    2.000    0.000    0.667 
#    9.000    1.667    0.000   10.000    0.000    0.000 
#    0.000    0.000    0.000    0.000    0.000    0.000 
#
# Total GULP energy -133689.393466 kJ/mol
# GULP energy per Si atom -5570.391394 kJ/mol
# Density = 2.144693 g / cm^3
# Si number density = 21.495853 Si / 1000 Ang^3
#
#
#
# Elastic Constant Matrix: (Units=GPa)
#
#
# Indices 1 2 3 4 5 6 
#
# 1 106.4624 23.9480 21.0646 0.0000 8.2062 0.0000
# 2 23.9480 91.2259 6.1521 0.0000 11.8705 0.0000
# 3 21.0646 6.1521 41.0886 0.0000 12.8760 0.0000
# 4 0.0000 0.0000 0.0000 20.1824 0.0000 16.2367
# 5 8.2062 11.8705 12.8760 0.0000 15.4560 0.0000
# 6 0.0000 0.0000 0.0000 16.2367 0.0000 32.0669
#
#
#
# Elastic Compliance Matrix: (Units=1/GPa)
#
#
# Indices 1 2 3 4 5 6 
#
# 1 0.011010 -0.002615 -0.005481 0.000000 0.000730 0.000000
# 2 -0.002615 0.012869 0.002810 0.000000 -0.010835 0.000000
# 3 -0.005481 0.002810 0.035850 0.000000 -0.029114 0.000000
# 4 0.000000 0.000000 0.000000 0.083605 0.000000 -0.042332
# 5 0.000730 -0.010835 -0.029114 0.000000 0.096888 0.000000
# 6 0.000000 0.000000 0.000000 -0.042332 0.000000 0.052619
#
#
# Mechanical properties :
#
#
# Convention : Reuss Voigt Hill
#
# Bulk Modulus (GPa) = 20.34394 37.90068 29.12231
# Shear Modulus (GPa) = 15.63476 26.04854 20.84165
#
# Velocity S-wave (km/s) = 2.69985 3.48486 3.11716
# Velocity P-wave (km/s) = 4.38219 5.81913 5.15101
#
# Compressibility (1/GPa) = 0.04915468
#
# Stress axis : x y z
#
# Youngs Moduli (GPa) = 90.82986 77.70697 27.89362
#
# Poissons Ratio (x) = 0.20324 0.15289
# Poissons Ratio (y) = 0.23756 -0.07837
# Poissons Ratio (z) = 0.49786 -0.21832
#
# Static dielectric constant tensor:
#      x y z
#    x 1.833890 0.000000 0.049370 
#    y 0.000000 1.874890 0.000000 
#    z 0.049370 0.000000 1.844210 
# 
# From -- ./inp_files/8945.got.cif
#   From: 2010.05.17/outbox.cif.g08.bks.cpg/sg15_5_cif.got.tgz:8945.got - 2010.06.03 18:47:42.
