data_PCOD9269146
_publ_section_title
;
Structure prediction by ZEFSAII (Michael W. Deem and Ramdas Pophale) SiO2 
 PCOD9269146
Probable space group: C 2/C
;
_chemical_formula_sum "Si O2"
_cell_formula_units_Z 64
_cell_length_a 34.522900
_cell_length_b 11.507296
_cell_length_c 8.607417
_cell_angle_alpha 90.000000
_cell_angle_beta 96.246592
_cell_angle_gamma 90.000000
_cell_volume 3399.125702
_symmetry_space_group_name_H-M "C 2/C"
_symmetry_group_IT_number 15
_symmetry_cell_setting 'monoclinic'
loop_
_space_group_symop_operation_xyz
x,y,z
-x,y,1/2-z
-x,-y,-z
x,-y,1/2+z
1/2+x,1/2+y,z
1/2-x,1/2+y,1/2-z
1/2-x,1/2-y,-z
1/2+x,1/2-y,1/2+z
loop_
_atom_site_type_symbol
_atom_site_label
_atom_site_fract_x
_atom_site_fract_y
_atom_site_fract_z
Si Si1 0.407331 0.455077 0.975227
Si Si2 0.640876 0.620645 0.334398
Si Si3 0.042622 0.119356 0.717355
Si Si4 0.043000 0.615757 0.223116
Si Si5 0.405661 0.046283 0.971276
Si Si6 0.234531 0.620149 0.818787
Si Si7 0.731675 0.384753 0.819599
Si Si8 0.357100 0.876881 0.161422
O O1 0.387507 0.386091 0.826434
O O2 0.437834 0.542266 0.906885
O O3 0.373787 0.527340 0.048429
O O4 0.429844 0.386558 0.119028
O O5 0.685000 0.602126 0.298639
O O6 0.638732 0.748467 0.406264
O O7 0.038755 0.252478 0.663355
O O8 0.000000 0.076429 0.750000
O O9 0.070024 0.614164 0.388275
O O10 0.064070 0.537025 0.105165
O O11 0.000000 0.572078 0.250000
O O12 0.382893 0.115657 0.828655
O O13 0.373821 0.970458 0.049856
O O14 0.250189 0.503174 0.742629
O O15 0.241120 0.753520 0.756470
O O16 0.188036 0.606123 0.817392
O O17 0.254117 0.620391 0.996605
#
# Coordination Sequence:
#
# PCOD9269146 Si02
#       8
#     8   8   8   8   8   8   8   8
#     4  10  20  34  53  76 102 134 172 210 256 305
#     4  10  20  35  54  76 104 136 172 214 258 307
#     4  10  20  34  52  75 103 134 169 210 255 304
#     4  10  20  34  52  75 103 134 169 210 255 304
#     4  10  20  34  53  76 102 134 172 210 256 305
#     4  10  21  37  56  80 109 141 178 220 266 317
#     4  10  21  37  56  80 109 141 178 220 266 317
#     4  10  20  35  54  76 104 136 172 214 258 307
#
# _framework density 18.828372000000002
#
# number of rings (size 3 to 8) (size 9 to 14) (size 15 to 20)
#    0.000    2.000    0.000    3.750    0.000    0.500 
#    0.000    6.250    0.000   12.000    0.000    0.000 
#    0.000    0.000    0.000    0.000    0.000    0.000 
#
# Total GULP energy -178443.745432 kJ/mol
# GULP energy per Si atom -5576.367045 kJ/mol
# Density = 1.878552 g / cm^3
# Si number density = 18.828372 Si / 1000 Ang^3
#
#
#
# Elastic Constant Matrix: (Units=GPa)
#
#
# Indices 1 2 3 4 5 6 
#
# 1 62.3696 18.8867 -17.6007 0.0000 0.0090 0.0000
# 2 18.8867 88.9844 3.0208 0.0000 -16.8306 0.0000
# 3 -17.6007 3.0208 28.5497 0.0000 -1.9041 0.0000
# 4 0.0000 0.0000 0.0000 17.9788 0.0000 -81.0021
# 5 0.0090 -16.8306 -1.9041 0.0000 20.3254 0.0000
# 6 0.0000 0.0000 0.0000 -81.0021 0.0000 335.5108
#
#
#
# Elastic Compliance Matrix: (Units=1/GPa)
#
#
# Indices 1 2 3 4 5 6 
#
# 1 0.021632 -0.005710 0.013710 0.000000 -0.003453 0.000000
# 2 -0.005710 0.014845 -0.004298 0.000000 0.011893 0.000000
# 3 0.013710 -0.004298 0.043970 0.000000 0.000554 0.000000
# 4 0.000000 0.000000 0.000000 -0.633918 0.000000 -0.153046
# 5 -0.003453 0.011893 0.000554 0.000000 0.059101 0.000000
# 6 0.000000 0.000000 0.000000 -0.153046 0.000000 -0.033969
#
#
# Mechanical properties :
#
#
# Convention : Reuss Voigt Hill
#
# Bulk Modulus (GPa) = 11.38279 20.94634 16.16456
# Shear Modulus (GPa) = -9.87247 86.46946 38.29850
#
# Velocity S-wave (km/s) = -2.29233 6.78416 4.51498
# Velocity P-wave (km/s) = 0.97350 8.51560 5.98196
#
# Compressibility (1/GPa) = 0.08785190
#
# Stress axis : x y z
#
# Youngs Moduli (GPa) = 46.22792 67.36227 22.74256
#
# Poissons Ratio (x) = 0.38463 -0.31180
# Poissons Ratio (y) = 0.26396 0.09774
# Poissons Ratio (z) = -0.63378 0.28950
#
# Static dielectric constant tensor:
#      x y z
#    x 1.626630 0.000000 0.000620 
#    y 0.000000 1.654170 0.000000 
#    z 0.000620 0.000000 1.613200 
# 
# From -- ./inp_files/69370.got.cif
#   From: 2010.05.17/outbox.cif.g08.bks.cpg/sg15_35_cif.got.tgz:69370.got - 2010.06.03 18:47:42.
