data_PCOD9269314
_publ_section_title
;
Structure prediction by ZEFSAII (Michael W. Deem and Ramdas Pophale) SiO2 
 PCOD9269314
Probable space group: C 2/C
;
_chemical_formula_sum "Si O2"
_cell_formula_units_Z 60
_cell_length_a 15.816370
_cell_length_b 25.847544
_cell_length_c 7.658376
_cell_angle_alpha 90.000000
_cell_angle_beta 82.861162
_cell_angle_gamma 90.000000
_cell_volume 3106.583164
_symmetry_space_group_name_H-M "C 2/C"
_symmetry_group_IT_number 15
_symmetry_cell_setting 'monoclinic'
loop_
_space_group_symop_operation_xyz
x,y,z
-x,y,1/2-z
-x,-y,-z
x,-y,1/2+z
1/2+x,1/2+y,z
1/2-x,1/2+y,1/2-z
1/2-x,1/2-y,-z
1/2+x,1/2-y,1/2+z
loop_
_atom_site_type_symbol
_atom_site_label
_atom_site_fract_x
_atom_site_fract_y
_atom_site_fract_z
Si Si1 0.837099 0.866715 0.633388
Si Si2 0.500000 0.163672 0.250000
Si Si3 0.237215 0.688496 0.693974
Si Si4 0.975617 0.941818 0.551931
Si Si5 0.939852 0.668206 0.603407
Si Si6 0.609858 0.361003 0.484469
Si Si7 0.189545 0.699236 0.294474
Si Si8 0.975016 0.784532 0.461377
O O1 0.852659 0.874145 0.837135
O O2 0.742271 0.842622 0.665796
O O3 0.897753 0.821805 0.538087
O O4 0.879849 0.919684 0.547375
O O5 0.469434 0.134684 0.430915
O O6 0.589064 0.192399 0.284337
O O7 0.157597 0.667117 0.818261
O O8 0.316129 0.649452 0.670766
O O9 0.207455 0.693644 0.498149
O O10 0.272688 0.743601 0.753081
O O11 0.041286 0.902711 0.441835
O O12 0.000000 0.935480 0.750000
O O13 0.000000 0.000000 0.500000
O O14 0.956086 0.727490 0.535288
O O15 0.000000 0.657583 0.750000
O O16 0.559374 0.307444 0.530401
O O17 0.000000 0.788196 0.250000
#
# Coordination Sequence:
#
# PCOD9269314 Si02
#       8
#     8   4   8   8   8   8   8   8
#     4   9  18  35  53  71 104 144 179 222 280 338
#     4  12  24  34  50  74 100 138 192 236 270 322
#     4  10  20  34  55  71 102 148 186 227 279 337
#     4   9  18  33  55  82 112 142 177 227 282 339
#     4  12  22  35  49  70 104 142 187 233 275 311
#     4   9  19  34  52  74 103 142 182 221 277 334
#     4  10  20  35  52  77 101 142 193 232 276 330
#     4  11  20  29  46  72 101 136 183 225 265 318
#
# _framework density 19.313825999999999
#
# number of rings (size 3 to 8) (size 9 to 14) (size 15 to 20)
#    0.000    1.867    3.333    2.800    1.867    3.733 
#    0.000    0.000    0.000    0.000    0.000    0.000 
#    2.000    4.800    0.000    0.133    0.000    0.000 
#
# Total GULP energy -167236.954875 kJ/mol
# GULP energy per Si atom -5574.565163 kJ/mol
# Density = 1.926987 g / cm^3
# Si number density = 19.313826 Si / 1000 Ang^3
#
#
#
# Elastic Constant Matrix: (Units=GPa)
#
#
# Indices 1 2 3 4 5 6 
#
# 1 136.3152 30.7056 44.3156 0.0000 -33.1378 0.0000
# 2 30.7056 62.1561 13.9698 0.0000 -15.3338 0.0000
# 3 44.3156 13.9698 84.8330 0.0000 -23.0358 0.0000
# 4 0.0000 0.0000 0.0000 20.1043 0.0000 -6.4223
# 5 -33.1378 -15.3338 -23.0358 0.0000 45.5378 0.0000
# 6 0.0000 0.0000 0.0000 -6.4223 0.0000 13.4384
#
#
#
# Elastic Compliance Matrix: (Units=1/GPa)
#
#
# Indices 1 2 3 4 5 6 
#
# 1 0.010354 -0.003155 -0.003630 0.000000 0.004635 0.000000
# 2 -0.003155 0.018672 -0.000397 0.000000 0.003790 0.000000
# 3 -0.003630 -0.000397 0.015065 0.000000 0.004845 0.000000
# 4 0.000000 0.000000 0.000000 0.058703 0.000000 0.028054
# 5 0.004635 0.003790 0.004845 0.000000 0.029060 0.000000
# 6 0.000000 0.000000 0.000000 0.028054 0.000000 0.087821
#
#
# Mechanical properties :
#
#
# Convention : Reuss Voigt Hill
#
# Bulk Modulus (GPa) = 33.64171 51.25403 42.44787
# Shear Modulus (GPa) = 20.49609 28.77033 24.63321
#
# Velocity S-wave (km/s) = 3.26116 3.86375 3.57517
# Velocity P-wave (km/s) = 5.62463 6.81908 6.25045
#
# Compressibility (1/GPa) = 0.02972501
#
# Stress axis : x y z
#
# Youngs Moduli (GPa) = 96.58311 53.55728 66.37699
#
# Poissons Ratio (x) = 0.16899 0.24097
# Poissons Ratio (y) = 0.30475 0.02637
# Poissons Ratio (z) = 0.35063 0.02127
#
# Static dielectric constant tensor:
#      x y z
#    x 1.715060 0.000000 0.008780 
#    y 0.000000 1.685760 0.000000 
#    z 0.008780 0.000000 1.800890 
# 
# From -- ./inp_files/43167.got.cif
#   From: 2010.05.17/outbox.cif.g08.bks.cpg/sg15_22_cif.got.tgz:43167.got - 2010.06.03 18:47:42.
