data_PCOD9269695
_publ_section_title
;
Structure prediction by ZEFSAII (Michael W. Deem and Ramdas Pophale) SiO2 
 PCOD9269695
Probable space group: C 2/C
;
_chemical_formula_sum "Si O2"
_cell_formula_units_Z 40
_cell_length_a 22.183940
_cell_length_b 12.157492
_cell_length_c 17.847135
_cell_angle_alpha 90.000000
_cell_angle_beta 29.154412
_cell_angle_gamma 90.000000
_cell_volume 2344.915634
_symmetry_space_group_name_H-M "C 2/C"
_symmetry_group_IT_number 15
_symmetry_cell_setting 'monoclinic'
loop_
_space_group_symop_operation_xyz
x,y,z
-x,y,1/2-z
-x,-y,-z
x,-y,1/2+z
1/2+x,1/2+y,z
1/2-x,1/2+y,1/2-z
1/2-x,1/2-y,-z
1/2+x,1/2-y,1/2+z
loop_
_atom_site_type_symbol
_atom_site_label
_atom_site_fract_x
_atom_site_fract_y
_atom_site_fract_z
Si Si1 0.000217 0.171200 0.991888
Si Si2 0.244541 0.163541 0.622350
Si Si3 0.362885 0.480206 0.053134
Si Si4 0.638339 0.375912 0.081650
Si Si5 0.606217 0.911975 0.402028
O O1 0.120975 0.176972 0.806715
O O2 0.046359 0.116329 0.018586
O O3 0.905473 0.086155 0.056007
O O4 0.942442 0.290339 0.064004
O O5 0.294215 0.282021 0.540756
O O6 0.207668 0.105541 0.584674
O O7 0.343829 0.100483 0.566382
O O8 0.225337 0.445889 0.224619
O O9 0.372075 0.516716 0.957859
O O10 0.500000 0.335131 0.250000
O O11 0.500000 0.000000 0.500000
#
# Coordination Sequence:
#
# PCOD9269695 Si02
#       5
#     8   8   8   8   8
#     4  10  20  39  56  86 114 147 195 228 291 339
#     4  10  20  34  59  87 117 142 184 246 290 330
#     4  10  21  35  59  82 114 153 181 235 286 342
#     4  11  19  34  57  88 117 147 182 238 295 337
#     4  11  22  35  59  86 115 147 191 241 278 333
#
# _framework density 17.058181999999999
#
# number of rings (size 3 to 8) (size 9 to 14) (size 15 to 20)
#    0.000    1.600    4.000    1.200    2.800    1.600 
#    0.000    0.000    0.000    4.800    0.000    0.000 
#    0.000    0.000    0.000    0.000    0.000    0.000 
#
# Total GULP energy -111568.291006 kJ/mol
# GULP energy per Si atom -5578.414550 kJ/mol
# Density = 1.701936 g / cm^3
# Si number density = 17.058182 Si / 1000 Ang^3
#
#
#
# Elastic Constant Matrix: (Units=GPa)
#
#
# Indices 1 2 3 4 5 6 
#
# 1 128.0526 53.2531 37.0204 0.0000 -6.7444 0.0000
# 2 53.2531 108.5207 52.6977 0.0000 -15.3630 0.0000
# 3 37.0204 52.6977 73.4598 0.0000 -9.9861 0.0000
# 4 0.0000 0.0000 0.0000 29.9302 0.0000 4.8546
# 5 -6.7444 -15.3630 -9.9861 0.0000 28.9222 0.0000
# 6 0.0000 0.0000 0.0000 4.8546 0.0000 12.4920
#
#
#
# Elastic Compliance Matrix: (Units=1/GPa)
#
#
# Indices 1 2 3 4 5 6 
#
# 1 0.010076 -0.003864 -0.002377 0.000000 -0.000524 0.000000
# 2 -0.003864 0.016128 -0.009003 0.000000 0.004557 0.000000
# 3 -0.002377 -0.009003 0.021555 0.000000 0.002106 0.000000
# 4 0.000000 0.000000 0.000000 0.035659 0.000000 -0.013858
# 5 -0.000524 0.004557 0.002106 0.000000 0.037601 0.000000
# 6 0.000000 0.000000 0.000000 -0.013858 0.000000 0.085436
#
#
# Mechanical properties :
#
#
# Convention : Reuss Voigt Hill
#
# Bulk Modulus (GPa) = 57.89930 66.21950 62.05940
# Shear Modulus (GPa) = 20.60150 25.40635 23.00392
#
# Velocity S-wave (km/s) = 3.47900 3.86345 3.67625
# Velocity P-wave (km/s) = 7.08194 7.66849 7.38104
#
# Compressibility (1/GPa) = 0.01727137
#
# Stress axis : x y z
#
# Youngs Moduli (GPa) = 99.24635 62.00364 46.39237
#
# Poissons Ratio (x) = 0.23961 0.11027
# Poissons Ratio (y) = 0.38353 0.41766
# Poissons Ratio (z) = 0.23589 0.55820
#
# Static dielectric constant tensor:
#      x y z
#    x 1.607430 0.000000 -0.021540 
#    y 0.000000 1.556740 0.000000 
#    z -0.021540 0.000000 1.563150 
# 
# From -- ./inp_files/68958.got.cif
#   From: 2010.05.17/outbox.cif.g08.bks.cpg/sg15_35_cif.got.tgz:68958.got - 2010.06.03 18:47:42.
