data_PCOD9269614
_publ_section_title
;
Structure prediction by ZEFSAII (Michael W. Deem and Ramdas Pophale) SiO2 
 PCOD9269614
Probable space group: C 2/C
;
_chemical_formula_sum "Si O2"
_cell_formula_units_Z 60
_cell_length_a 13.036663
_cell_length_b 18.413145
_cell_length_c 14.014820
_cell_angle_alpha 90.000000
_cell_angle_beta 90.000000
_cell_angle_gamma 90.000000
_cell_volume 3364.201007
_symmetry_space_group_name_H-M "C 2/C"
_symmetry_group_IT_number 15
_symmetry_cell_setting 'monoclinic'
loop_
_space_group_symop_operation_xyz
x,y,z
-x,y,1/2-z
-x,-y,-z
x,-y,1/2+z
1/2+x,1/2+y,z
1/2-x,1/2+y,1/2-z
1/2-x,1/2-y,-z
1/2+x,1/2-y,1/2+z
loop_
_atom_site_type_symbol
_atom_site_label
_atom_site_fract_x
_atom_site_fract_y
_atom_site_fract_z
Si Si1 0.500000 0.457270 0.750000
Si Si2 0.202095 0.847551 0.571864
Si Si3 0.279157 0.454977 0.750000
Si Si4 0.882808 0.581781 0.750000
Si Si5 0.500000 0.416927 0.534549
Si Si6 0.379285 0.190452 0.573922
Si Si7 0.879285 0.309548 0.426078
Si Si8 0.202095 0.152448 0.428136
O O1 0.390238 0.495490 0.750000
O O2 0.500000 0.413056 0.650955
O O3 0.223831 0.903464 0.657212
O O4 0.159799 0.769743 0.606714
O O5 0.304658 0.833548 0.511642
O O6 0.107738 0.879655 0.508147
O O7 0.191943 0.514123 0.750000
O O8 0.276169 0.403465 0.657212
O O9 0.868162 0.632442 0.658015
O O10 0.868162 0.632442 0.841985
O O11 0.000000 0.555810 0.750000
O O12 0.500000 0.500000 0.500000
O O13 0.392263 0.379655 0.508147
O O14 0.500000 0.195139 0.548139
O O15 0.304658 0.166452 0.488358
O O16 0.340200 0.269743 0.606714
#
# Coordination Sequence:
#
# PCOD9269614 Si02
#       8
#     4   8   8   8   8   8   8   8
#     4   8  20  34  52  80 110 146 172 226 284 336
#     4  10  21  37  61  82 114 151 187 236 283 339
#     4  10  21  37  57  86 110 144 190 232 289 328
#     4  10  23  38  59  82 113 149 189 233 275 340
#     4  10  20  34  58  88 114 143 189 238 285 333
#     4  10  21  39  58  83 112 151 192 227 279 346
#     4  10  21  39  58  83 112 151 192 227 279 346
#     4  10  21  37  61  82 114 151 187 236 283 339
#
# _framework density 17.834845000000001
#
# number of rings (size 3 to 8) (size 9 to 14) (size 15 to 20)
#    0.000    2.133    1.333    0.800    7.467    1.067 
#    0.000    2.667    0.000    0.000    0.000    0.000 
#    0.000    0.000    0.000    0.000    0.000    0.000 
#
# Total GULP energy -167200.485786 kJ/mol
# GULP energy per Si atom -5573.349526 kJ/mol
# Density = 1.779425 g / cm^3
# Si number density = 17.834845 Si / 1000 Ang^3
#
#
#
# Elastic Constant Matrix: (Units=GPa)
#
#
# Indices 1 2 3 4 5 6 
#
# 1 179.9539 100.3462 61.2053 0.0000 0.0006 0.0000
# 2 100.3462 130.3584 35.8058 0.0000 0.0007 0.0000
# 3 61.2053 35.8058 48.8846 0.0000 0.0004 0.0000
# 4 0.0000 0.0000 0.0000 -44.7290 0.0000 -0.0004
# 5 0.0006 0.0007 0.0004 0.0000 13.7566 0.0000
# 6 0.0000 0.0000 0.0000 -0.0004 0.0000 41.6706
#
#
#
# Elastic Compliance Matrix: (Units=1/GPa)
#
#
# Indices 1 2 3 4 5 6 
#
# 1 0.013564 -0.007231 -0.011686 0.000000 0.000000 0.000000
# 2 -0.007231 0.013458 -0.000804 0.000000 0.000000 0.000000
# 3 -0.011686 -0.000804 0.035676 0.000000 0.000000 0.000000
# 4 0.000000 0.000000 0.000000 -0.022357 0.000000 0.000000
# 5 0.000000 0.000000 0.000000 0.000000 0.072693 0.000000
# 6 0.000000 0.000000 0.000000 0.000000 0.000000 0.023998
#
#
# Mechanical properties :
#
#
# Convention : Reuss Voigt Hill
#
# Bulk Modulus (GPa) = 42.99868 83.76795 63.38332
# Shear Modulus (GPa) = 27.14059 12.92896 20.03477
#
# Velocity S-wave (km/s) = 3.90522 2.69537 3.35528
# Velocity P-wave (km/s) = 6.67054 7.53375 7.11524
#
# Compressibility (1/GPa) = 0.02325653
#
# Stress axis : x y z
#
# Youngs Moduli (GPa) = 73.72542 74.30310 28.02989
#
# Poissons Ratio (x) = 0.53731 0.32755
# Poissons Ratio (y) = 0.53313 0.02253
# Poissons Ratio (z) = 0.86154 0.05973
#
# Static dielectric constant tensor:
#      x y z
#    x 1.636110 0.000000 0.000000 
#    y 0.000000 1.592060 0.000000 
#    z 0.000000 0.000000 1.623950 
# 
# From -- ./inp_files/145670.got.cif
#   From: 2010.05.17/outbox.cif.g08.bks.cpg/sg15_73_cif.got.tgz:145670.got - 2010.06.03 18:47:42.
