data_PCOD9269966
_publ_section_title
;
Structure prediction by ZEFSAII (Michael W. Deem and Ramdas Pophale) SiO2 
 PCOD9269966
Probable space group: C 2/C
;
_chemical_formula_sum "Si O2"
_cell_formula_units_Z 60
_cell_length_a 27.312365
_cell_length_b 17.128767
_cell_length_c 8.618042
_cell_angle_alpha 90.000000
_cell_angle_beta 128.628701
_cell_angle_gamma 90.000000
_cell_volume 3149.637829
_symmetry_space_group_name_H-M "C 2/C"
_symmetry_group_IT_number 15
_symmetry_cell_setting 'monoclinic'
loop_
_space_group_symop_operation_xyz
x,y,z
-x,y,1/2-z
-x,-y,-z
x,-y,1/2+z
1/2+x,1/2+y,z
1/2-x,1/2+y,1/2-z
1/2-x,1/2-y,-z
1/2+x,1/2-y,1/2+z
loop_
_atom_site_type_symbol
_atom_site_label
_atom_site_fract_x
_atom_site_fract_y
_atom_site_fract_z
Si Si1 0.034678 0.930995 0.982822
Si Si2 0.500000 0.815301 0.250000
Si Si3 0.270852 0.387392 0.774285
Si Si4 0.690225 0.695869 0.861298
Si Si5 0.512420 0.284176 0.451367
Si Si6 0.831095 0.055361 0.883785
Si Si7 0.637954 0.814176 0.545276
Si Si8 0.851851 0.825504 0.681632
O O1 0.000000 0.911631 0.750000
O O2 0.105366 0.955473 0.086712
O O3 0.031110 0.857516 0.090361
O O4 0.000000 0.000000 0.000000
O O5 0.494174 0.769134 0.404711
O O6 0.569528 0.853052 0.397168
O O7 0.289700 0.478099 0.805632
O O8 0.197914 0.371110 0.667781
O O9 0.290140 0.339419 0.660269
O O10 0.316260 0.349444 0.992634
O O11 0.704215 0.627984 0.765566
O O12 0.638754 0.755511 0.695093
O O13 0.750000 0.750000 0.000000
O O14 0.500000 0.254697 0.250000
O O15 0.584093 0.315313 0.596895
O O16 0.854636 0.094178 0.089456
O O17 0.649535 0.750954 0.430514
#
# Coordination Sequence:
#
# PCOD9269966 Si02
#       8
#     8   4   8   8   8   8   8   8
#     4  12  23  35  46  75 116 159 196 232 274 340
#     4  10  20  40  60  82 116 144 198 258 298 358
#     4  11  21  33  55  83 109 154 198 232 294 359
#     4   9  20  36  55  80 111 149 189 237 290 345
#     4  11  21  35  56  83 112 161 197 233 286 348
#     4  11  22  36  54  78 118 155 195 243 288 350
#     4   9  20  38  56  79 114 146 188 250 303 348
#     4  10  20  35  52  80 111 151 190 241 287 350
#
# _framework density 19.049810000000001
#
# number of rings (size 3 to 8) (size 9 to 14) (size 15 to 20)
#    0.000    1.600    2.000    4.000    5.600    0.000 
#    0.000    0.000    0.000    0.000    0.000    8.400 
#    0.000    0.000    0.000    0.000    0.000    0.267 
#
# Total GULP energy -167074.335916 kJ/mol
# GULP energy per Si atom -5569.144531 kJ/mol
# Density = 1.900645 g / cm^3
# Si number density = 19.049810 Si / 1000 Ang^3
#
#
#
# Elastic Constant Matrix: (Units=GPa)
#
#
# Indices 1 2 3 4 5 6 
#
# 1 81.9503 20.1056 37.2036 0.0000 19.5470 0.0000
# 2 20.1056 59.4419 27.8040 0.0000 18.2618 0.0000
# 3 37.2036 27.8040 92.1836 0.0000 8.5547 0.0000
# 4 0.0000 0.0000 0.0000 22.0139 0.0000 7.3011
# 5 19.5470 18.2618 8.5547 0.0000 43.1296 0.0000
# 6 0.0000 0.0000 0.0000 7.3011 0.0000 15.0096
#
#
#
# Elastic Compliance Matrix: (Units=1/GPa)
#
#
# Indices 1 2 3 4 5 6 
#
# 1 0.016494 -0.001065 -0.005790 0.000000 -0.005876 0.000000
# 2 -0.001065 0.022170 -0.005532 0.000000 -0.007807 0.000000
# 3 -0.005790 -0.005532 0.014662 0.000000 0.002058 0.000000
# 4 0.000000 0.000000 0.000000 0.054164 0.000000 -0.026347
# 5 -0.005876 -0.007807 0.002058 0.000000 0.028746 0.000000
# 6 0.000000 0.000000 0.000000 -0.026347 0.000000 0.079440
#
#
# Mechanical properties :
#
#
# Convention : Reuss Voigt Hill
#
# Bulk Modulus (GPa) = 35.02576 44.86692 39.94634
# Shear Modulus (GPa) = 20.00254 25.92811 22.96532
#
# Velocity S-wave (km/s) = 3.24390 3.69327 3.47586
# Velocity P-wave (km/s) = 5.69709 6.46456 6.09292
#
# Compressibility (1/GPa) = 0.02855042
#
# Stress axis : x y z
#
# Youngs Moduli (GPa) = 60.62829 45.10668 68.20234
#
# Poissons Ratio (x) = 0.04806 0.39489
# Poissons Ratio (y) = 0.06460 0.37731
# Poissons Ratio (z) = 0.35104 0.24954
#
# Static dielectric constant tensor:
#      x y z
#    x 1.721000 0.000000 -0.032990 
#    y 0.000000 1.662600 0.000000 
#    z -0.032990 0.000000 1.759900 
# 
# From -- ./inp_files/67006.got.cif
#   From: 2010.05.17/outbox.cif.g08.bks.cpg/sg15_34_cif.got.tgz:67006.got - 2010.06.03 18:47:42.
