data_PCOD9269026
_publ_section_title
;
Structure prediction by ZEFSAII (Michael W. Deem and Ramdas Pophale) SiO2 
 PCOD9269026
Probable space group: C 2/C
;
_chemical_formula_sum "Si O2"
_cell_formula_units_Z 64
_cell_length_a 11.867068
_cell_length_b 15.719033
_cell_length_c 27.790738
_cell_angle_alpha 90.000000
_cell_angle_beta 148.717298
_cell_angle_gamma 90.000000
_cell_volume 2691.876575
_symmetry_space_group_name_H-M "C 2/C"
_symmetry_group_IT_number 15
_symmetry_cell_setting 'monoclinic'
loop_
_space_group_symop_operation_xyz
x,y,z
-x,y,1/2-z
-x,-y,-z
x,-y,1/2+z
1/2+x,1/2+y,z
1/2-x,1/2+y,1/2-z
1/2-x,1/2-y,-z
1/2+x,1/2-y,1/2+z
loop_
_atom_site_type_symbol
_atom_site_label
_atom_site_fract_x
_atom_site_fract_y
_atom_site_fract_z
Si Si1 0.727734 0.089548 0.361743
Si Si2 0.032486 0.862330 0.158995
Si Si3 0.457917 0.028028 0.117097
Si Si4 0.982385 0.291342 0.575803
Si Si5 0.983399 0.656821 0.874181
Si Si6 0.771164 0.225701 0.636502
Si Si7 0.433855 0.447268 0.840968
Si Si8 0.369377 0.294817 0.650454
O O1 0.500000 0.079970 0.250000
O O2 0.713827 0.027225 0.401382
O O3 0.740881 0.181648 0.390612
O O4 0.900040 0.088069 0.382181
O O5 0.241842 0.868993 0.269041
O O6 0.101720 0.780306 0.152673
O O7 0.823824 0.842137 0.115277
O O8 0.992397 0.955438 0.123376
O O9 0.455851 0.111851 0.083749
O O10 0.695719 0.041735 0.229046
O O11 0.422721 0.936273 0.080302
O O12 0.750000 0.250000 0.500000
O O13 0.120836 0.292487 0.577601
O O14 0.931377 0.708846 0.903210
O O15 0.084665 0.715446 0.869103
O O16 0.000000 0.230214 0.750000
O O17 0.562970 0.380753 0.854198
O O18 0.500000 0.293692 0.750000
#
# Coordination Sequence:
#
# PCOD9269026 Si02
#       8
#     8   8   8   8   8   8   8   8
#     4   9  16  29  52  82 119 147 185 242 306 349
#     4  10  20  35  59  89 121 158 198 247 306 358
#     4  10  20  35  59  89 121 158 198 247 306 358
#     4  12  26  43  59  85 129 174 200 237 305 376
#     4  10  20  33  60  96 118 145 198 265 307 342
#     4   9  16  29  52  82 119 147 185 242 306 349
#     4  10  20  33  60  96 118 145 198 265 307 342
#     4  12  22  37  63  91 127 154 202 260 303 352
#
# _framework density 23.775234000000001
#
# number of rings (size 3 to 8) (size 9 to 14) (size 15 to 20)
#    0.000    1.750    5.000    0.000    3.500    1.000 
#    0.000    1.250    0.000    1.500    0.000    0.000 
#    0.000    0.000    0.000    0.000    0.000    0.000 
#
# Total GULP energy -178370.183708 kJ/mol
# GULP energy per Si atom -5574.068241 kJ/mol
# Density = 2.372112 g / cm^3
# Si number density = 23.775234 Si / 1000 Ang^3
#
#
#
# Elastic Constant Matrix: (Units=GPa)
#
#
# Indices 1 2 3 4 5 6 
#
# 1 163.0189 32.6010 20.3713 0.0001 3.6968 0.0000
# 2 32.6010 108.5199 6.8623 0.0000 -12.2054 0.0000
# 3 20.3713 6.8623 45.5977 -0.0003 12.9225 0.0001
# 4 0.0001 0.0000 -0.0003 21.8264 0.0000 -1.0578
# 5 3.6968 -12.2054 12.9225 0.0000 26.9232 0.0000
# 6 0.0000 0.0000 0.0001 -1.0578 0.0000 25.6942
#
#
#
# Elastic Compliance Matrix: (Units=1/GPa)
#
#
# Indices 1 2 3 4 5 6 
#
# 1 0.006866 -0.001963 -0.002607 0.000000 -0.000581 0.000000
# 2 -0.001963 0.010675 -0.002520 0.000000 0.006318 0.000000
# 3 -0.002607 -0.002520 0.027428 0.000000 -0.013949 0.000000
# 4 0.000000 0.000000 0.000000 0.045908 0.000000 0.001890
# 5 -0.000581 0.006318 -0.013949 0.000000 0.046782 0.000000
# 6 0.000000 0.000000 0.000000 0.001890 0.000000 0.038997
#
#
# Mechanical properties :
#
#
# Convention : Reuss Voigt Hill
#
# Bulk Modulus (GPa) = 32.48027 48.53395 40.50711
# Shear Modulus (GPa) = 24.86334 32.04224 28.45279
#
# Velocity S-wave (km/s) = 3.23734 3.67511 3.46315
# Velocity P-wave (km/s) = 5.25974 6.20214 5.75028
#
# Compressibility (1/GPa) = 0.03078792
#
# Stress axis : x y z
#
# Youngs Moduli (GPa) = 145.64879 93.67989 36.45872
#
# Poissons Ratio (x) = 0.18390 0.09506
# Poissons Ratio (y) = 0.28592 0.09188
# Poissons Ratio (z) = 0.37974 0.23608
#
# Static dielectric constant tensor:
#      x y z
#    x 1.863980 0.000000 -0.082340 
#    y 0.000000 1.963100 0.000000 
#    z -0.082340 0.000000 3.285830 
# 
# From -- ./inp_files/311219.got.cif
#   From: 2010.05.17/outbox.cif.g08.bks.cpg/sg15_156_cif.got.tgz:311219.got - 2010.06.03 18:47:42.
