data_PCOD9269176
_publ_section_title
;
Structure prediction by ZEFSAII (Michael W. Deem and Ramdas Pophale) SiO2 
 PCOD9269176
Probable space group: C 2/C
;
_chemical_formula_sum "Si O2"
_cell_formula_units_Z 60
_cell_length_a 14.155549
_cell_length_b 20.640074
_cell_length_c 14.904941
_cell_angle_alpha 90.000000
_cell_angle_beta 143.206073
_cell_angle_gamma 90.000000
_cell_volume 2608.258436
_symmetry_space_group_name_H-M "C 2/C"
_symmetry_group_IT_number 15
_symmetry_cell_setting 'monoclinic'
loop_
_space_group_symop_operation_xyz
x,y,z
-x,y,1/2-z
-x,-y,-z
x,-y,1/2+z
1/2+x,1/2+y,z
1/2-x,1/2+y,1/2-z
1/2-x,1/2-y,-z
1/2+x,1/2-y,1/2+z
loop_
_atom_site_type_symbol
_atom_site_label
_atom_site_fract_x
_atom_site_fract_y
_atom_site_fract_z
Si Si1 0.317201 0.899805 0.422113
Si Si2 0.124362 0.454589 0.283523
Si Si3 0.572807 0.493399 0.709811
Si Si4 0.670545 0.272244 0.846217
Si Si5 0.780455 0.084575 0.457740
Si Si6 0.500000 0.000000 0.500000
Si Si7 0.148318 0.138186 0.169471
Si Si8 0.692844 0.657261 0.649449
O O1 0.264425 0.882905 0.482083
O O2 0.236226 0.854563 0.286475
O O3 0.245331 0.973810 0.351711
O O4 0.494259 0.921101 0.537464
O O5 0.176182 0.520031 0.371141
O O6 0.043960 0.472270 0.130587
O O7 0.272165 0.410701 0.373044
O O8 0.000000 0.417668 0.250000
O O9 0.500000 0.471700 0.750000
O O10 0.457064 0.552555 0.593596
O O11 0.601294 0.434428 0.665550
O O12 0.500000 0.293847 0.750000
O O13 0.721953 0.326839 0.812682
O O14 0.684155 0.208285 0.796117
O O15 0.750000 0.250000 0.000000
O O16 0.764253 0.129477 0.359026
O O17 0.984860 0.174437 0.014605
#
# Coordination Sequence:
#
# PCOD9269176 Si02
#       8
#     8   8   8   8   8   4   8   8
#     4  10  21  38  61  95 134 164 211 259 334 407
#     4  11  21  38  60  93 139 173 210 263 335 412
#     4  10  20  34  62  99 127 160 204 268 326 394
#     4  12  27  49  68  93 128 170 232 292 338 393
#     4  11  21  38  64 100 131 168 211 270 334 411
#     4  10  20  34  52  84 130 178 198 246 318 400
#     4  12  22  40  66  94 130 172 227 279 332 397
#     4  11  23  41  65  89 124 177 220 275 335 394
#
# _framework density 23.003854
#
# number of rings (size 3 to 8) (size 9 to 14) (size 15 to 20)
#    0.000    1.067    5.333    2.800    0.000    0.000 
#   12.000    0.667    0.000    0.000    0.000    0.000 
#    0.000    0.000    0.000    0.000    0.000    0.000 
#
# Total GULP energy -167016.473310 kJ/mol
# GULP energy per Si atom -5567.215777 kJ/mol
# Density = 2.295150 g / cm^3
# Si number density = 23.003854 Si / 1000 Ang^3
#
#
#
# Elastic Constant Matrix: (Units=GPa)
#
#
# Indices 1 2 3 4 5 6 
#
# 1 129.1556 31.7559 38.5728 0.0000 -59.0242 0.0000
# 2 31.7559 43.0545 20.6094 0.0000 -15.2267 0.0000
# 3 38.5728 20.6094 76.4831 0.0000 -27.6711 0.0000
# 4 0.0000 0.0000 0.0000 26.3624 0.0000 -12.3655
# 5 -59.0242 -15.2267 -27.6711 0.0000 42.0022 0.0000
# 6 0.0000 0.0000 0.0000 -12.3655 0.0000 29.2759
#
#
#
# Elastic Compliance Matrix: (Units=1/GPa)
#
#
# Indices 1 2 3 4 5 6 
#
# 1 0.023168 -0.006775 0.001355 0.000000 0.030993 0.000000
# 2 -0.006775 0.030061 -0.005495 0.000000 -0.002244 0.000000
# 3 0.001355 -0.005495 0.018171 0.000000 0.011883 0.000000
# 4 0.000000 0.000000 0.000000 0.047305 0.000000 0.019981
# 5 0.030993 -0.002244 0.011883 0.000000 0.074377 0.000000
# 6 0.000000 0.000000 0.000000 0.019981 0.000000 0.042597
#
#
# Mechanical properties :
#
#
# Convention : Reuss Voigt Hill
#
# Bulk Modulus (GPa) = 20.17417 47.84105 34.00761
# Shear Modulus (GPa) = 18.24601 30.04511 24.14556
#
# Velocity S-wave (km/s) = 2.81939 3.61791 3.24332
# Velocity P-wave (km/s) = 4.40313 6.18825 5.37038
#
# Compressibility (1/GPa) = 0.04956834
#
# Stress axis : x y z
#
# Youngs Moduli (GPa) = 43.16350 33.26621 55.03134
#
# Poissons Ratio (x) = 0.22539 -0.07454
# Poissons Ratio (y) = 0.29245 0.30239
# Poissons Ratio (z) = -0.05847 0.18279
#
# Static dielectric constant tensor:
#      x y z
#    x 1.397500 0.000000 -0.150840 
#    y 0.000000 1.882650 0.000000 
#    z -0.150840 0.000000 1.748050 
# 
# From -- ./inp_files/156381.got.cif
#   From: 2010.05.17/outbox.cif.g08.bks.cpg/sg15_79_cif.got.tgz:156381.got - 2010.06.03 18:47:42.
