data_PCOD9269683
_publ_section_title
;
Structure prediction by ZEFSAII (Michael W. Deem and Ramdas Pophale) SiO2 
 PCOD9269683
Probable space group: C 2/C
;
_chemical_formula_sum "Si O2"
_cell_formula_units_Z 48
_cell_length_a 9.565640
_cell_length_b 18.136914
_cell_length_c 19.830251
_cell_angle_alpha 90.000000
_cell_angle_beta 47.226143
_cell_angle_gamma 90.000000
_cell_volume 2525.371345
_symmetry_space_group_name_H-M "C 2/C"
_symmetry_group_IT_number 15
_symmetry_cell_setting 'monoclinic'
loop_
_space_group_symop_operation_xyz
x,y,z
-x,y,1/2-z
-x,-y,-z
x,-y,1/2+z
1/2+x,1/2+y,z
1/2-x,1/2+y,1/2-z
1/2-x,1/2-y,-z
1/2+x,1/2-y,1/2+z
loop_
_atom_site_type_symbol
_atom_site_label
_atom_site_fract_x
_atom_site_fract_y
_atom_site_fract_z
Si Si1 0.974298 0.853254 0.330013
Si Si2 0.366266 0.915999 0.975902
Si Si3 0.889441 0.589046 0.971836
Si Si4 0.400816 0.814283 0.211128
Si Si5 0.232159 0.710082 0.077953
Si Si6 0.431394 0.304440 0.931467
O O1 0.841762 0.899145 0.423760
O O2 0.868572 0.775598 0.348359
O O3 0.000000 0.893255 0.250000
O O4 0.179315 0.832528 0.291393
O O5 0.511838 0.894374 0.988296
O O6 0.378316 0.864685 0.905603
O O7 0.394250 0.002323 0.955495
O O8 0.007627 0.632038 0.875537
O O9 0.673331 0.618412 0.045430
O O10 0.500000 0.824519 0.250000
O O11 0.445385 0.732033 0.168653
O O12 0.431623 0.693978 0.048617
O O13 0.250000 0.750000 0.000000
O O14 0.250000 0.250000 0.000000
#
# Coordination Sequence:
#
# PCOD9269683 Si02
#       6
#     8   8   8   8   8   8
#     4  11  19  38  59  84 113 149 195 242 290 332
#     4  10  22  39  62  82 116 161 191 230 287 355
#     4  10  22  41  57  85 120 155 194 229 287 355
#     4  11  23  36  59  86 115 148 191 249 290 331
#     4  10  20  34  59  84 107 149 190 228 280 342
#     4  10  20  36  56  83 113 144 189 233 278 340
#
# _framework density 19.007104999999999
#
# number of rings (size 3 to 8) (size 9 to 14) (size 15 to 20)
#    0.000    1.667    3.333    3.000   11.667    0.667 
#    0.000    3.333    0.000    0.000    0.000    0.000 
#    0.000    0.000    0.000    0.000    0.000    0.000 
#
# Total GULP energy -133789.451435 kJ/mol
# GULP energy per Si atom -5574.560476 kJ/mol
# Density = 1.896384 g / cm^3
# Si number density = 19.007105 Si / 1000 Ang^3
#
#
#
# Elastic Constant Matrix: (Units=GPa)
#
#
# Indices 1 2 3 4 5 6 
#
# 1 159.8629 33.2156 8.5948 0.0000 -13.9269 -0.0001
# 2 33.2156 75.0340 3.1919 -0.0001 2.3275 0.0000
# 3 8.5948 3.1919 38.3380 -0.0005 -8.2170 0.0000
# 4 0.0000 -0.0001 -0.0005 16.2836 -0.0001 -0.6553
# 5 -13.9269 2.3275 -8.2170 -0.0001 29.9701 0.0001
# 6 -0.0001 0.0000 0.0000 -0.6553 0.0001 24.1752
#
#
#
# Elastic Compliance Matrix: (Units=1/GPa)
#
#
# Indices 1 2 3 4 5 6 
#
# 1 0.007277 -0.003303 -0.000613 0.000000 0.003470 0.000000
# 2 -0.003303 0.014932 -0.001148 0.000000 -0.003009 0.000000
# 3 -0.000613 -0.001148 0.027915 0.000001 0.007458 0.000000
# 4 0.000000 0.000000 0.000001 0.061479 0.000000 0.001666
# 5 0.003470 -0.003009 0.007458 0.000000 0.037258 0.000000
# 6 0.000000 0.000000 0.000000 0.001666 0.000000 0.041410
#
#
# Mechanical properties :
#
#
# Convention : Reuss Voigt Hill
#
# Bulk Modulus (GPa) = 25.00169 40.35995 32.68082
# Shear Modulus (GPa) = 23.39420 29.30129 26.34774
#
# Velocity S-wave (km/s) = 3.51210 3.93058 3.72722
# Velocity P-wave (km/s) = 5.44324 6.47144 5.97948
#
# Compressibility (1/GPa) = 0.03999729
#
# Stress axis : x y z
#
# Youngs Moduli (GPa) = 137.42215 66.97233 35.82283
#
# Poissons Ratio (x) = 0.22120 0.02195
# Poissons Ratio (y) = 0.45388 0.04111
# Poissons Ratio (z) = 0.08419 0.07686
#
# Static dielectric constant tensor:
#      x y z
#    x 1.704000 0.000000 0.034240 
#    y 0.000000 1.706450 0.000000 
#    z 0.034240 0.000000 1.737700 
# 
# From -- ./inp_files/232502.got.cif
#   From: 2010.05.17/outbox.cif.g08.bks.cpg/sg15_117_cif.got.tgz:232502.got - 2010.06.03 18:47:42.
