data_PCOD9269200
_publ_section_title
;
Structure prediction by ZEFSAII (Michael W. Deem and Ramdas Pophale) SiO2 
 PCOD9269200
Probable space group: C 2/C
;
_chemical_formula_sum "Si O2"
_cell_formula_units_Z 44
_cell_length_a 11.349802
_cell_length_b 15.094243
_cell_length_c 24.730109
_cell_angle_alpha 90.000000
_cell_angle_beta 145.813138
_cell_angle_gamma 90.000000
_cell_volume 2380.563801
_symmetry_space_group_name_H-M "C 2/C"
_symmetry_group_IT_number 15
_symmetry_cell_setting 'monoclinic'
loop_
_space_group_symop_operation_xyz
x,y,z
-x,y,1/2-z
-x,-y,-z
x,-y,1/2+z
1/2+x,1/2+y,z
1/2-x,1/2+y,1/2-z
1/2-x,1/2-y,-z
1/2+x,1/2-y,1/2+z
loop_
_atom_site_type_symbol
_atom_site_label
_atom_site_fract_x
_atom_site_fract_y
_atom_site_fract_z
Si Si1 0.824021 0.701614 0.352706
Si Si2 0.134409 0.425887 0.917399
Si Si3 0.425197 0.308508 0.632089
Si Si4 0.198670 0.383669 0.446862
Si Si5 0.373670 0.404197 0.393772
Si Si6 0.000000 0.537680 0.250000
O O1 0.742744 0.685643 0.382796
O O2 0.645498 0.670530 0.243111
O O3 0.840856 0.807822 0.355113
O O4 0.029502 0.647501 0.415119
O O5 0.065553 0.527058 0.903764
O O6 0.074175 0.410013 0.831484
O O7 0.384340 0.428178 0.020485
O O8 0.352039 0.369088 0.555347
O O9 0.426456 0.207718 0.609822
O O10 0.327156 0.395460 0.440171
O O11 0.196789 0.474282 0.308650
#
# Coordination Sequence:
#
# PCOD9269200 Si02
#       6
#     8   8   8   8   8   4
#     4  10  20  34  53  79 110 145 173 220 273 323
#     4  11  22  31  56  85 111 135 176 233 272 308
#     4   9  19  36  56  74 104 150 189 206 263 332
#     4   9  18  35  56  78 101 141 189 223 250 323
#     4  10  20  36  54  81 111 139 175 223 275 318
#     4  10  20  36  58  82 108 144 190 220 264 324
#
# _framework density 18.483017
#
# number of rings (size 3 to 8) (size 9 to 14) (size 15 to 20)
#    0.000    2.182    0.000    6.000    5.091    0.727 
#    0.000    0.000    0.000    0.000    0.000    0.000 
#    0.000    0.000    0.000    0.000    0.000    0.000 
#
# Total GULP energy -122671.416978 kJ/mol
# GULP energy per Si atom -5575.973499 kJ/mol
# Density = 1.844095 g / cm^3
# Si number density = 18.483017 Si / 1000 Ang^3
#
#
#
# Elastic Constant Matrix: (Units=GPa)
#
#
# Indices 1 2 3 4 5 6 
#
# 1 17.7279 12.1254 22.5070 0.0000 3.5829 0.0000
# 2 12.1254 30.8231 -6.6925 0.0000 0.1438 0.0000
# 3 22.5070 -6.6925 83.3478 0.0002 -4.2609 0.0001
# 4 0.0000 0.0000 0.0002 16.6843 0.0000 1.6942
# 5 3.5829 0.1438 -4.2609 0.0000 35.9726 0.0000
# 6 0.0000 0.0000 0.0001 1.6942 0.0000 28.5033
#
#
#
# Elastic Compliance Matrix: (Units=1/GPa)
#
#
# Indices 1 2 3 4 5 6 
#
# 1 0.217886 -0.100429 -0.068404 0.000001 -0.029403 0.000000
# 2 -0.100429 0.079310 0.034190 0.000000 0.013736 0.000000
# 3 -0.068404 0.034190 0.033761 0.000000 0.010675 0.000000
# 4 0.000001 0.000000 0.000000 0.060301 0.000000 -0.003584
# 5 -0.029403 0.013736 0.010675 0.000000 0.031937 0.000000
# 6 0.000000 0.000000 0.000000 -0.003584 0.000000 0.035297
#
#
# Mechanical properties :
#
#
# Convention : Reuss Voigt Hill
#
# Bulk Modulus (GPa) = 16.21529 20.86431 18.53980
# Shear Modulus (GPa) = 6.68151 23.16262 14.92207
#
# Velocity S-wave (km/s) = 1.90336 3.54387 2.84445
# Velocity P-wave (km/s) = 3.69087 5.29701 4.56513
#
# Compressibility (1/GPa) = 0.06167020
#
# Stress axis : x y z
#
# Youngs Moduli (GPa) = 4.58956 12.60876 29.62030
#
# Poissons Ratio (x) = 1.26628 2.02616
# Poissons Ratio (y) = 0.46092 -1.01271
# Poissons Ratio (z) = 0.31395 -0.43109
#
# Static dielectric constant tensor:
#      x y z
#    x 1.615630 0.000000 0.002370 
#    y 0.000000 1.681680 0.000000 
#    z 0.002370 0.000000 1.656490 
# 
# From -- ./inp_files/86044.got.cif
#   From: 2010.05.17/outbox.cif.g08.bks.cpg/sg15_44_cif.got.tgz:86044.got - 2010.06.03 18:47:42.
