data_PCOD9269232
_publ_section_title
;
Structure prediction by ZEFSAII (Michael W. Deem and Ramdas Pophale) SiO2 
 PCOD9269232
Probable space group: C 2/C
;
_chemical_formula_sum "Si O2"
_cell_formula_units_Z 64
_cell_length_a 20.980731
_cell_length_b 25.865718
_cell_length_c 9.149774
_cell_angle_alpha 90.000000
_cell_angle_beta 46.829882
_cell_angle_gamma 90.000000
_cell_volume 3621.403752
_symmetry_space_group_name_H-M "C 2/C"
_symmetry_group_IT_number 15
_symmetry_cell_setting 'monoclinic'
loop_
_space_group_symop_operation_xyz
x,y,z
-x,y,1/2-z
-x,-y,-z
x,-y,1/2+z
1/2+x,1/2+y,z
1/2-x,1/2+y,1/2-z
1/2-x,1/2-y,-z
1/2+x,1/2-y,1/2+z
loop_
_atom_site_type_symbol
_atom_site_label
_atom_site_fract_x
_atom_site_fract_y
_atom_site_fract_z
Si Si1 0.613875 0.037739 0.452428
Si Si2 0.578961 0.357109 0.215217
Si Si3 0.774446 0.611014 0.405372
Si Si4 0.120215 0.755360 0.952017
Si Si5 0.578850 0.935640 0.334205
Si Si6 0.704546 0.773254 0.719815
Si Si7 0.596876 0.862648 0.544920
Si Si8 0.475915 0.286451 0.954473
O O1 0.692954 0.063809 0.242977
O O2 0.524650 0.065173 0.536524
O O3 0.620267 0.046802 0.615643
O O4 0.599516 0.978882 0.424395
O O5 0.500000 0.383168 0.250000
O O6 0.546575 0.339028 0.424061
O O7 0.670182 0.386535 0.083695
O O8 0.597341 0.303266 0.096311
O O9 0.801323 0.665303 0.287179
O O10 0.827936 0.612803 0.472709
O O11 0.224281 0.759573 0.767834
O O12 0.057779 0.761692 0.911654
O O13 0.102216 0.699238 0.048216
O O14 0.606868 0.881939 0.362845
O O15 0.750000 0.750000 0.500000
O O16 0.610753 0.748505 0.893133
O O17 0.500000 0.878942 0.750000
O O18 0.500000 0.294188 0.750000
#
# Coordination Sequence:
#
# PCOD9269232 Si02
#       8
#     8   8   8   8   8   8   8   8
#     4  10  21  38  52  79 106 149 177 227 266 325
#     4   9  18  37  56  75 100 148 189 229 271 327
#     4  11  19  33  58  75 105 144 192 219 274 330
#     4  10  20  34  54  72 108 150 192 222 273 329
#     4  10  22  35  54  75 117 139 183 220 271 321
#     4  11  19  35  53  75 107 150 193 229 265 330
#     4  12  19  29  50  81 106 147 182 216 268 333
#     4  11  21  32  49  74 106 143 186 237 277 310
#
# _framework density 17.672705000000001
#
# number of rings (size 3 to 8) (size 9 to 14) (size 15 to 20)
#    0.000    1.500    5.000    2.625    1.750    1.500 
#    0.000    6.250    0.000    0.000    0.000    3.500 
#    0.000    0.000    0.000    0.000    0.000    0.000 
#
# Total GULP energy -178504.044904 kJ/mol
# GULP energy per Si atom -5578.251403 kJ/mol
# Density = 1.763248 g / cm^3
# Si number density = 17.672705 Si / 1000 Ang^3
#
#
#
# Elastic Constant Matrix: (Units=GPa)
#
#
# Indices 1 2 3 4 5 6 
#
# 1 140.6889 15.1480 58.6927 0.0000 -15.4181 0.0000
# 2 15.1480 23.0714 9.6783 0.0000 -3.2106 0.0000
# 3 58.6927 9.6783 71.1548 0.0000 8.8362 0.0000
# 4 0.0000 0.0000 0.0000 18.4201 0.0000 -6.0872
# 5 -15.4181 -3.2106 8.8362 0.0000 26.8027 0.0000
# 6 0.0000 0.0000 0.0000 -6.0872 0.0000 17.6864
#
#
#
# Elastic Compliance Matrix: (Units=1/GPa)
#
#
# Indices 1 2 3 4 5 6 
#
# 1 0.013945 -0.002170 -0.012691 0.000000 0.011946 0.000000
# 2 -0.002170 0.047962 -0.005518 0.000000 0.006316 0.000000
# 3 -0.012691 -0.005518 0.027383 0.000000 -0.016989 0.000000
# 4 0.000000 0.000000 0.000000 0.061256 0.000000 0.021082
# 5 0.011946 0.006316 -0.016989 0.000000 0.050539 0.000000
# 6 0.000000 0.000000 0.000000 0.021082 0.000000 0.063796
#
#
# Mechanical properties :
#
#
# Convention : Reuss Voigt Hill
#
# Bulk Modulus (GPa) = 20.60518 44.66146 32.63332
# Shear Modulus (GPa) = 15.53679 22.67491 19.10585
#
# Velocity S-wave (km/s) = 2.96825 3.58585 3.29157
# Velocity P-wave (km/s) = 4.84066 6.51696 5.74033
#
# Compressibility (1/GPa) = 0.04853150
#
# Stress axis : x y z
#
# Youngs Moduli (GPa) = 71.70948 20.84973 36.51952
#
# Poissons Ratio (x) = 0.04524 0.46347
# Poissons Ratio (y) = 0.15559 0.20153
# Poissons Ratio (z) = 0.91008 0.11506
#
# Static dielectric constant tensor:
#      x y z
#    x 1.649090 0.000000 0.001950 
#    y 0.000000 1.592490 0.000000 
#    z 0.001950 0.000000 1.611440 
# 
# From -- ./inp_files/59015.got.cif
#   From: 2010.05.17/outbox.cif.g08.bks.cpg/sg15_30_cif.got.tgz:59015.got - 2010.06.03 18:47:42.
