data_PCOD9269415
_publ_section_title
;
Structure prediction by ZEFSAII (Michael W. Deem and Ramdas Pophale) SiO2 
 PCOD9269415
Probable space group: C 2/C
;
_chemical_formula_sum "Si O2"
_cell_formula_units_Z 48
_cell_length_a 7.986453
_cell_length_b 18.536930
_cell_length_c 14.417155
_cell_angle_alpha 90.000000
_cell_angle_beta 104.652748
_cell_angle_gamma 90.000000
_cell_volume 2064.960896
_symmetry_space_group_name_H-M "C 2/C"
_symmetry_group_IT_number 15
_symmetry_cell_setting 'monoclinic'
loop_
_space_group_symop_operation_xyz
x,y,z
-x,y,1/2-z
-x,-y,-z
x,-y,1/2+z
1/2+x,1/2+y,z
1/2-x,1/2+y,1/2-z
1/2-x,1/2-y,-z
1/2+x,1/2-y,1/2+z
loop_
_atom_site_type_symbol
_atom_site_label
_atom_site_fract_x
_atom_site_fract_y
_atom_site_fract_z
Si Si1 0.323438 0.338584 0.279111
Si Si2 0.167808 0.400761 0.085034
Si Si3 0.708275 0.313390 0.774863
Si Si4 0.874194 0.950121 0.642491
Si Si5 0.869693 0.454898 0.143338
Si Si6 0.695816 0.607560 0.087407
O O1 0.500000 0.350270 0.250000
O O2 0.187313 0.348350 0.175976
O O3 0.305136 0.258834 0.316280
O O4 0.280315 0.400306 0.346549
O O5 0.277294 0.475244 0.112647
O O6 0.969823 0.425815 0.067128
O O7 0.248099 0.365642 0.005278
O O8 0.500000 0.301256 0.750000
O O9 0.746176 0.383840 0.841984
O O10 0.743949 0.336196 0.674170
O O11 0.000000 0.961403 0.750000
O O12 0.998439 0.919325 0.578841
O O13 0.802049 0.534157 0.116735
O O14 0.000000 0.458599 0.250000
#
# Coordination Sequence:
#
# PCOD9269415 Si02
#       6
#     8   8   8   8   8   8
#     4  11  22  36  55  76 102 141 183 217 256 312
#     4  11  20  33  56  82 110 137 169 220 266 307
#     4   9  19  36  55  75 103 140 178 214 257 311
#     4   9  18  34  56  80 108 141 177 211 254 315
#     4  10  20  35  55  78 107 139 176 214 255 315
#     4  10  20  34  56  83 109 136 171 217 266 311
#
# _framework density 23.244993000000001
#
# number of rings (size 3 to 8) (size 9 to 14) (size 15 to 20)
#    0.000    2.333    0.000    8.000    0.000    3.333 
#    0.000    0.000    0.000    6.000    0.000    0.000 
#    0.000    0.000    0.000    0.000    0.000    0.000 
#
# Total GULP energy -134176.552374 kJ/mol
# GULP energy per Si atom -5590.689682 kJ/mol
# Density = 2.319209 g / cm^3
# Si number density = 23.244993 Si / 1000 Ang^3
#
#
#
# Elastic Constant Matrix: (Units=GPa)
#
#
# Indices 1 2 3 4 5 6 
#
# 1 49.4048 -1.8343 3.6298 0.0000 -21.4405 0.0000
# 2 -1.8343 44.6986 -10.6367 0.0000 13.3188 0.0000
# 3 3.6298 -10.6367 79.4955 0.0000 -21.9377 0.0000
# 4 0.0000 0.0000 0.0000 3.8404 0.0000 -4.1403
# 5 -21.4405 13.3188 -21.9377 0.0000 29.4383 0.0000
# 6 0.0000 0.0000 0.0000 -4.1403 0.0000 29.2212
#
#
#
# Elastic Compliance Matrix: (Units=1/GPa)
#
#
# Indices 1 2 3 4 5 6 
#
# 1 0.033523 -0.006699 0.006480 0.000000 0.032275 0.000000
# 2 -0.006699 0.027202 -0.001004 0.000000 -0.017934 0.000000
# 3 0.006480 -0.001004 0.017092 0.000000 0.017910 0.000000
# 4 0.000000 0.000000 0.000000 0.307334 0.000000 0.043546
# 5 0.032275 -0.017934 0.017910 0.000000 0.078937 0.000000
# 6 0.000000 0.000000 0.000000 0.043546 0.000000 0.040392
#
#
# Mechanical properties :
#
#
# Convention : Reuss Voigt Hill
#
# Bulk Modulus (GPa) = 13.26787 17.32406 15.29597
# Shear Modulus (GPa) = 9.39764 24.66265 17.03015
#
# Velocity S-wave (km/s) = 2.01287 3.26081 2.70966
# Velocity P-wave (km/s) = 3.33503 4.65255 4.04775
#
# Compressibility (1/GPa) = 0.07537002
#
# Stress axis : x y z
#
# Youngs Moduli (GPa) = 29.83055 36.76180 58.50789
#
# Poissons Ratio (x) = 0.24628 -0.37911
# Poissons Ratio (y) = 0.19984 0.05871
# Poissons Ratio (z) = -0.19329 0.03689
#
# Static dielectric constant tensor:
#      x y z
#    x 1.996870 0.000000 0.031590 
#    y 0.000000 1.809660 0.000000 
#    z 0.031590 0.000000 1.934030 
# 
# From -- ./inp_files/134851.got.cif
#   From: 2010.05.17/outbox.cif.g08.bks.cpg/sg15_68_cif.got.tgz:134851.got - 2010.06.03 18:47:42.
