data_PCOD9269613
_publ_section_title
;
Structure prediction by ZEFSAII (Michael W. Deem and Ramdas Pophale) SiO2 
 PCOD9269613
Probable space group: C 2/C
;
_chemical_formula_sum "Si O2"
_cell_formula_units_Z 40
_cell_length_a 9.374345
_cell_length_b 24.371580
_cell_length_c 7.463338
_cell_angle_alpha 90.000000
_cell_angle_beta 104.877995
_cell_angle_gamma 90.000000
_cell_volume 1647.965995
_symmetry_space_group_name_H-M "C 2/C"
_symmetry_group_IT_number 15
_symmetry_cell_setting 'monoclinic'
loop_
_space_group_symop_operation_xyz
x,y,z
-x,y,1/2-z
-x,-y,-z
x,-y,1/2+z
1/2+x,1/2+y,z
1/2-x,1/2+y,1/2-z
1/2-x,1/2-y,-z
1/2+x,1/2-y,1/2+z
loop_
_atom_site_type_symbol
_atom_site_label
_atom_site_fract_x
_atom_site_fract_y
_atom_site_fract_z
Si Si1 0.000000 0.575088 0.750000
Si Si2 0.606916 0.708513 0.040755
Si Si3 0.298019 0.551216 0.000786
Si Si4 0.791546 0.829603 0.573386
Si Si5 0.500000 0.461280 0.250000
Si Si6 0.336994 0.825871 0.349353
O O1 0.865581 0.540630 0.625876
O O2 0.922837 0.616223 0.871854
O O3 0.721360 0.701301 0.243989
O O4 0.453541 0.683769 0.051466
O O5 0.587206 0.774221 0.027647
O O6 0.678725 0.677403 0.896759
O O7 0.408224 0.568379 0.874310
O O8 0.283391 0.605742 0.113842
O O9 0.377543 0.500917 0.120243
O O10 0.685997 0.816539 0.371926
#
# Coordination Sequence:
#
# PCOD9269613 Si02
#       6
#     4   8   8   8   4   8
#     4  10  22  40  63  94 134 158 203 260 324 356
#     4  10  20  34  58  87 122 170 215 242 295 360
#     4  10  23  41  66  92 119 160 203 264 321 380
#     4  10  20  36  59  85 115 158 212 253 296 370
#     4  10  22  44  69  88 118 156 215 252 322 404
#     4  10  21  36  55  86 129 169 199 253 303 360
#
# _framework density 24.272345000000001
#
# number of rings (size 3 to 8) (size 9 to 14) (size 15 to 20)
#    0.000    2.000    0.000    3.600    5.600    2.400 
#    0.000    8.000    0.000    0.000    0.000    0.000 
#    0.000    0.000    0.000    0.000    0.000    0.000 
#
# Total GULP energy -111687.416160 kJ/mol
# GULP energy per Si atom -5584.370808 kJ/mol
# Density = 2.421710 g / cm^3
# Si number density = 24.272345 Si / 1000 Ang^3
#
#
#
# Elastic Constant Matrix: (Units=GPa)
#
#
# Indices 1 2 3 4 5 6 
#
# 1 108.7019 13.2047 27.6672 0.0000 14.2684 0.0000
# 2 13.2047 49.0085 13.5834 0.0000 12.5807 0.0000
# 3 27.6672 13.5834 76.9232 0.0000 -1.9378 0.0000
# 4 0.0000 0.0000 0.0000 12.8627 0.0000 4.5331
# 5 14.2684 12.5807 -1.9378 0.0000 47.9688 0.0000
# 6 0.0000 0.0000 0.0000 4.5331 0.0000 11.5873
#
#
#
# Elastic Compliance Matrix: (Units=1/GPa)
#
#
# Indices 1 2 3 4 5 6 
#
# 1 0.010678 -0.001061 -0.003730 0.000000 -0.003049 0.000000
# 2 -0.001061 0.023294 -0.003882 0.000000 -0.005951 0.000000
# 3 -0.003730 -0.003882 0.015096 0.000000 0.002737 0.000000
# 4 0.000000 0.000000 0.000000 0.090178 0.000000 -0.035279
# 5 -0.003049 -0.005951 0.002737 0.000000 0.023425 0.000000
# 6 0.000000 0.000000 0.000000 -0.035279 0.000000 0.100103
#
#
# Mechanical properties :
#
#
# Convention : Reuss Voigt Hill
#
# Bulk Modulus (GPa) = 31.52298 38.17157 34.84728
# Shear Modulus (GPa) = 17.20033 26.49564 21.84799
#
# Velocity S-wave (km/s) = 2.66492 3.30752 3.00345
# Velocity P-wave (km/s) = 4.74177 5.50879 5.13961
#
# Compressibility (1/GPa) = 0.03172289
#
# Stress axis : x y z
#
# Youngs Moduli (GPa) = 93.65168 42.92990 66.24269
#
# Poissons Ratio (x) = 0.04553 0.24709
# Poissons Ratio (y) = 0.09932 0.25714
# Poissons Ratio (z) = 0.34933 0.16664
#
# Static dielectric constant tensor:
#      x y z
#    x 1.960660 0.000000 0.038570 
#    y 0.000000 1.919100 0.000000 
#    z 0.038570 0.000000 1.975240 
# 
# From -- ./inp_files/25133.got.cif
#   From: 2010.05.17/outbox.cif.g08.bks.cpg/sg15_13_cif.got.tgz:25133.got - 2010.06.03 18:47:42.
