data_PCOD9269029
_publ_section_title
;
Structure prediction by ZEFSAII (Michael W. Deem and Ramdas Pophale) SiO2 
 PCOD9269029
Probable space group: C 2/C
;
_chemical_formula_sum "Si O2"
_cell_formula_units_Z 48
_cell_length_a 10.966048
_cell_length_b 10.587644
_cell_length_c 19.566981
_cell_angle_alpha 90.000000
_cell_angle_beta 51.413928
_cell_angle_gamma 90.000000
_cell_volume 1775.815782
_symmetry_space_group_name_H-M "C 2/C"
_symmetry_group_IT_number 15
_symmetry_cell_setting 'monoclinic'
loop_
_space_group_symop_operation_xyz
x,y,z
-x,y,1/2-z
-x,-y,-z
x,-y,1/2+z
1/2+x,1/2+y,z
1/2-x,1/2+y,1/2-z
1/2-x,1/2-y,-z
1/2+x,1/2-y,1/2+z
loop_
_atom_site_type_symbol
_atom_site_label
_atom_site_fract_x
_atom_site_fract_y
_atom_site_fract_z
Si Si1 0.712395 0.198549 0.134064
Si Si2 0.014455 0.186122 0.949425
Si Si3 0.266105 0.707802 0.273276
Si Si4 0.185432 0.573295 0.649933
Si Si5 0.590227 0.117224 0.538627
Si Si6 0.743006 0.477479 0.129955
O O1 0.782154 0.193141 0.187377
O O2 0.655919 0.343980 0.153279
O O3 0.621036 0.066899 0.163809
O O4 0.833743 0.183792 0.028786
O O5 0.085105 0.264789 0.860450
O O6 0.124440 0.063332 0.911274
O O7 0.072396 0.265572 0.994734
O O8 0.345525 0.835553 0.275011
O O9 0.318742 0.583722 0.296600
O O10 0.136751 0.645045 0.598762
O O11 0.420327 0.051789 0.593667
O O12 0.724940 0.033416 0.456172
#
# Coordination Sequence:
#
# PCOD9269029 Si02
#       6
#     8   8   8   8   8   8
#     4  11  19  35  55  85 110 144 180 227 280 325
#     4   8  19  34  56  79 108 144 180 225 272 312
#     4   9  20  35  55  80 109 148 183 222 269 329
#     4  10  20  33  61  84 106 145 188 226 266 330
#     4   9  17  36  59  79 107 146 189 221 269 330
#     4   9  19  34  56  78 110 147 176 230 280 318
#
# _framework density 27.02983
#
# number of rings (size 3 to 8) (size 9 to 14) (size 15 to 20)
#    1.000    1.667    0.000    3.000    0.000    0.667 
#    0.000    7.500    0.000    0.000    0.000    0.000 
#    0.000    0.000    0.000    0.000    0.000    0.000 
#
# Total GULP energy -133949.182000 kJ/mol
# GULP energy per Si atom -5581.215917 kJ/mol
# Density = 2.696831 g / cm^3
# Si number density = 27.029830 Si / 1000 Ang^3
#
#
#
# Elastic Constant Matrix: (Units=GPa)
#
#
# Indices 1 2 3 4 5 6 
#
# 1 55.5228 -5.8789 32.3889 0.0000 21.6655 0.0000
# 2 -5.8789 140.4467 22.3503 0.0000 2.0994 0.0000
# 3 32.3889 22.3503 135.3752 0.0000 -1.3333 0.0000
# 4 0.0000 0.0000 0.0000 0.3684 0.0000 40.7313
# 5 21.6655 2.0994 -1.3333 0.0000 41.5340 0.0000
# 6 0.0000 0.0000 0.0000 40.7313 0.0000 0.1395
#
#
#
# Elastic Compliance Matrix: (Units=1/GPa)
#
#
# Indices 1 2 3 4 5 6 
#
# 1 0.028573 0.002605 -0.007417 0.000000 -0.015274 0.000000
# 2 0.002605 0.007557 -0.001888 0.000000 -0.001801 0.000000
# 3 -0.007417 -0.001888 0.009515 0.000000 0.004270 0.000000
# 4 0.000000 0.000000 0.000000 -0.000084 0.000000 0.024552
# 5 -0.015274 -0.001801 0.004270 0.000000 0.032272 0.000000
# 6 0.000000 0.000000 0.000000 0.024552 0.000000 -0.000222
#
#
# Mechanical properties :
#
#
# Convention : Reuss Voigt Hill
#
# Bulk Modulus (GPa) = 31.01370 47.67391 39.34381
# Shear Modulus (GPa) = 49.13519 27.24068 38.18794
#
# Velocity S-wave (km/s) = 4.26821 3.17803 3.76281
# Velocity P-wave (km/s) = 5.98238 5.58053 5.78495
#
# Compressibility (1/GPa) = 0.03224381
#
# Stress axis : x y z
#
# Youngs Moduli (GPa) = 34.99802 132.33438 105.09537
#
# Poissons Ratio (x) = -0.34468 0.77945
# Poissons Ratio (y) = -0.09116 0.19847
# Poissons Ratio (z) = 0.25957 0.24991
#
# Static dielectric constant tensor:
#      x y z
#    x 2.137580 0.000000 -0.099570 
#    y 0.000000 2.114500 0.000000 
#    z -0.099570 0.000000 2.130680 
# 
# From -- ./inp_files/268680.got.cif
#   From: 2010.05.17/outbox.cif.g08.bks.cpg/sg15_135_cif.got.tgz:268680.got - 2010.06.03 18:47:42.
