data_PCOD9269678
_publ_section_title
;
Structure prediction by ZEFSAII (Michael W. Deem and Ramdas Pophale) SiO2 
 PCOD9269678
Probable space group: C 2/C
;
_chemical_formula_sum "Si O2"
_cell_formula_units_Z 48
_cell_length_a 18.441234
_cell_length_b 9.457112
_cell_length_c 30.064380
_cell_angle_alpha 90.000000
_cell_angle_beta 27.293200
_cell_angle_gamma 90.000000
_cell_volume 2404.262383
_symmetry_space_group_name_H-M "C 2/C"
_symmetry_group_IT_number 15
_symmetry_cell_setting 'monoclinic'
loop_
_space_group_symop_operation_xyz
x,y,z
-x,y,1/2-z
-x,-y,-z
x,-y,1/2+z
1/2+x,1/2+y,z
1/2-x,1/2+y,1/2-z
1/2-x,1/2-y,-z
1/2+x,1/2-y,1/2+z
loop_
_atom_site_type_symbol
_atom_site_label
_atom_site_fract_x
_atom_site_fract_y
_atom_site_fract_z
Si Si1 0.548442 0.844170 0.859347
Si Si2 0.135809 0.978073 0.297836
Si Si3 0.471887 0.157895 0.030329
Si Si4 0.094831 0.817105 0.743169
Si Si5 0.542245 0.995870 0.778938
Si Si6 0.906204 0.089900 0.087016
O O1 0.685587 0.960134 0.795472
O O2 0.623398 0.691142 0.806179
O O3 0.468128 0.822020 0.951393
O O4 0.461092 0.906613 0.863251
O O5 0.069094 0.053795 0.290698
O O6 0.047315 0.042354 0.389051
O O7 0.284538 0.195188 0.132363
O O8 0.559101 0.252126 0.946293
O O9 0.500000 0.000000 0.000000
O O10 0.037645 0.663569 0.791631
O O11 0.000000 0.843569 0.750000
O O12 0.500000 0.976396 0.750000
O O13 0.722963 0.945592 0.682780
O O14 0.000000 0.000000 0.000000
#
# Coordination Sequence:
#
# PCOD9269678 Si02
#       6
#     8   8   8   8   8   8
#     4  10  20  36  56  85 112 150 194 225 281 345
#     4  10  20  34  59  82 112 154 189 230 280 343
#     4  11  23  36  59  88 113 147 193 238 278 333
#     4  10  22  41  59  83 115 152 192 230 284 345
#     4  10  22  39  60  83 115 155 189 231 287 341
#     4  11  19  38  59  82 114 147 186 235 285 328
#
# _framework density 19.964544
#
# number of rings (size 3 to 8) (size 9 to 14) (size 15 to 20)
#    0.000    1.667    3.333    3.000   11.667    0.667 
#    0.000    3.333    0.000    0.000    0.000    0.000 
#    0.000    0.000    0.000    0.000    0.000    0.000 
#
# Total GULP energy -133806.038961 kJ/mol
# GULP energy per Si atom -5575.251623 kJ/mol
# Density = 1.991910 g / cm^3
# Si number density = 19.964544 Si / 1000 Ang^3
#
#
#
# Elastic Constant Matrix: (Units=GPa)
#
#
# Indices 1 2 3 4 5 6 
#
# 1 110.4073 39.1451 7.8567 0.0021 11.1902 -0.0022
# 2 39.1451 139.5067 -10.0983 0.0026 8.6022 -0.0022
# 3 7.8567 -10.0983 20.0184 0.0007 13.6434 -0.0003
# 4 0.0021 0.0026 0.0007 24.9366 0.0002 10.5863
# 5 11.1902 8.6022 13.6434 0.0002 15.0778 0.0000
# 6 -0.0022 -0.0022 -0.0003 10.5863 0.0000 33.6750
#
#
#
# Elastic Compliance Matrix: (Units=1/GPa)
#
#
# Indices 1 2 3 4 5 6 
#
# 1 0.010717 -0.003169 -0.004215 -0.000001 -0.002332 0.000001
# 2 -0.003169 0.011698 0.026326 -0.000002 -0.028144 0.000001
# 3 -0.004215 0.026326 0.190436 -0.000009 -0.184211 0.000006
# 4 -0.000001 -0.000002 -0.000009 0.046278 0.000009 -0.014548
# 5 -0.002332 -0.028144 -0.184211 0.000009 0.250797 -0.000007
# 6 0.000001 0.000001 0.000006 -0.014548 -0.000007 0.034269
#
#
# Mechanical properties :
#
#
# Convention : Reuss Voigt Hill
#
# Bulk Modulus (GPa) = 3.98824 38.19326 21.09075
# Shear Modulus (GPa) = 8.47617 30.27315 19.37466
#
# Velocity S-wave (km/s) = 2.06272 3.89825 3.11859
# Velocity P-wave (km/s) = 2.77040 6.27964 4.85330
#
# Compressibility (1/GPa) = 0.25073690
#
# Stress axis : x y z
#
# Youngs Moduli (GPa) = 93.30903 85.48260 5.25110
#
# Poissons Ratio (x) = 0.27085 0.02214
# Poissons Ratio (y) = 0.29565 -0.13824
# Poissons Ratio (z) = 0.39333 -2.25045
#
# Static dielectric constant tensor:
#      x y z
#    x 1.733010 0.000000 0.071400 
#    y 0.000000 1.810520 0.000000 
#    z 0.071400 0.000000 1.754840 
# 
# From -- ./inp_files/224549.got.cif
#   From: 2010.05.17/outbox.cif.g08.bks.cpg/sg15_113_cif.got.tgz:224549.got - 2010.06.03 18:47:42.
