data_PCOD9269112
_publ_section_title
;
Structure prediction by ZEFSAII (Michael W. Deem and Ramdas Pophale) SiO2 
 PCOD9269112
Probable space group: C 2/C
;
_chemical_formula_sum "Si O2"
_cell_formula_units_Z 24
_cell_length_a 6.575359
_cell_length_b 30.658271
_cell_length_c 9.000640
_cell_angle_alpha 90.000000
_cell_angle_beta 145.048660
_cell_angle_gamma 90.000000
_cell_volume 1039.452365
_symmetry_space_group_name_H-M "C 2/C"
_symmetry_group_IT_number 15
_symmetry_cell_setting 'monoclinic'
loop_
_space_group_symop_operation_xyz
x,y,z
-x,y,1/2-z
-x,-y,-z
x,-y,1/2+z
1/2+x,1/2+y,z
1/2-x,1/2+y,1/2-z
1/2-x,1/2-y,-z
1/2+x,1/2-y,1/2+z
loop_
_atom_site_type_symbol
_atom_site_label
_atom_site_fract_x
_atom_site_fract_y
_atom_site_fract_z
Si Si1 0.155523 0.228515 0.654935
Si Si2 0.575948 0.359831 0.971572
Si Si3 0.585707 0.454513 0.974392
O O1 0.500000 0.232459 0.750000
O O2 0.977902 0.182084 0.510326
O O3 0.864761 0.264590 0.433558
O O4 0.423837 0.407474 0.924780
O O5 0.000000 0.361923 0.250000
O O6 0.500000 0.352820 0.750000
O O7 0.000000 0.449756 0.250000
O O8 0.500000 0.458876 0.750000
O O9 0.500000 0.500000 0.000000
#
# Coordination Sequence:
#
# PCOD9269112 Si02
#       3
#     8   8   8
#     4   9  14  20  32  52  80 112 141 171 216 273
#     4   9  16  25  38  58  85 116 146 181 227 272
#     4  10  20  34  51  71  97 127 160 198 239 282
#
# _framework density 23.089079999999999
#
# number of rings (size 3 to 8) (size 9 to 14) (size 15 to 20)
#    0.000    2.667    0.000    6.000    0.000    0.000 
#    0.000    0.000    0.000    0.000    0.000    0.000 
#    0.000    8.000    0.000    0.000    0.000    7.333 
#
# Total GULP energy -66879.126506 kJ/mol
# GULP energy per Si atom -5573.260542 kJ/mol
# Density = 2.303653 g / cm^3
# Si number density = 23.089080 Si / 1000 Ang^3
#
#
#
# Elastic Constant Matrix: (Units=GPa)
#
#
# Indices 1 2 3 4 5 6 
#
# 1 27.7951 25.4817 31.1448 0.0000 -4.2551 0.0000
# 2 25.4817 241.6049 72.4910 0.0000 -14.5611 0.0000
# 3 31.1448 72.4910 195.8425 0.0000 -16.7677 0.0000
# 4 0.0000 0.0000 0.0000 36.9095 0.0000 -3.0797
# 5 -4.2551 -14.5611 -16.7677 0.0000 28.7824 0.0000
# 6 0.0000 0.0000 0.0000 -3.0797 0.0000 25.6319
#
#
#
# Elastic Compliance Matrix: (Units=1/GPa)
#
#
# Indices 1 2 3 4 5 6 
#
# 1 0.045672 -0.002899 -0.006039 0.000000 0.001767 0.000000
# 2 -0.002899 0.004896 -0.001238 0.000000 0.001327 0.000000
# 3 -0.006039 -0.001238 0.006730 0.000000 0.002402 0.000000
# 4 0.000000 0.000000 0.000000 0.027368 0.000000 0.003288
# 5 0.001767 0.001327 0.002402 0.000000 0.037076 0.000000
# 6 0.000000 0.000000 0.000000 0.003288 0.000000 0.039409
#
#
# Mechanical properties :
#
#
# Convention : Reuss Voigt Hill
#
# Bulk Modulus (GPa) = 27.06494 80.38639 53.72566
# Shear Modulus (GPa) = 25.79749 40.67310 33.23529
#
# Velocity S-wave (km/s) = 3.34623 4.20166 3.79811
# Velocity P-wave (km/s) = 5.16499 7.64395 6.52331
#
# Compressibility (1/GPa) = 0.03694818
#
# Stress axis : x y z
#
# Youngs Moduli (GPa) = 21.89511 204.24678 148.58166
#
# Poissons Ratio (x) = 0.59201 0.89729
# Poissons Ratio (y) = 0.06346 0.18389
# Poissons Ratio (z) = 0.13223 0.25279
#
# Static dielectric constant tensor:
#      x y z
#    x 2.023550 0.000000 0.002230 
#    y 0.000000 2.039490 0.000000 
#    z 0.002230 0.000000 1.812510 
# 
# From -- ./inp_files/1626.got.cif
#   From: 2010.05.17/outbox.cif.g08.bks.cpg/sg15_1_cif.got.tgz:1626.got - 2010.06.03 18:47:42.
