data_PCOD9269881
_publ_section_title
;
Structure prediction by ZEFSAII (Michael W. Deem and Ramdas Pophale) SiO2 
 PCOD9269881
Probable space group: C 2/C
;
_chemical_formula_sum "Si O2"
_cell_formula_units_Z 48
_cell_length_a 14.298317
_cell_length_b 28.107934
_cell_length_c 8.306820
_cell_angle_alpha 90.000000
_cell_angle_beta 132.227248
_cell_angle_gamma 90.000000
_cell_volume 2472.093823
_symmetry_space_group_name_H-M "C 2/C"
_symmetry_group_IT_number 15
_symmetry_cell_setting 'monoclinic'
loop_
_space_group_symop_operation_xyz
x,y,z
-x,y,1/2-z
-x,-y,-z
x,-y,1/2+z
1/2+x,1/2+y,z
1/2-x,1/2+y,1/2-z
1/2-x,1/2-y,-z
1/2+x,1/2-y,1/2+z
loop_
_atom_site_type_symbol
_atom_site_label
_atom_site_fract_x
_atom_site_fract_y
_atom_site_fract_z
Si Si1 0.669096 0.984335 0.860417
Si Si2 0.120824 0.136154 0.270376
Si Si3 0.074995 0.439111 0.066350
Si Si4 0.427435 0.543609 0.505788
Si Si5 0.610376 0.156112 0.742006
Si Si6 0.884431 0.759455 0.743504
O O1 0.565500 0.955400 0.637818
O O2 0.802541 0.978951 0.935981
O O3 0.622244 0.038413 0.788375
O O4 0.660039 0.963160 0.026884
O O5 0.108839 0.088618 0.148790
O O6 0.253409 0.142366 0.521088
O O7 0.114169 0.188313 0.174934
O O8 0.000000 0.133670 0.250000
O O9 0.085248 0.383477 0.080950
O O10 0.500000 0.500000 0.500000
O O11 0.500000 0.560886 0.750000
O O12 0.500000 0.153025 0.750000
O O13 0.602214 0.208640 0.655146
O O14 0.750000 0.750000 0.500000
O O15 0.000000 0.761058 0.750000
#
# Coordination Sequence:
#
# PCOD9269881 Si02
#       6
#     8   8   8   8   8   8
#     4  10  23  39  53  81 116 146 192 230 284 339
#     4  10  22  37  60  87 117 147 192 241 290 341
#     4  10  22  36  60  81 112 149 183 243 288 337
#     4  12  26  39  57  81 119 160 198 231 283 350
#     4  10  20  34  64  89 110 146 195 241 290 339
#     4   8  16  34  55  87 111 140 185 241 282 337
#
# _framework density 19.416739
#
# number of rings (size 3 to 8) (size 9 to 14) (size 15 to 20)
#    0.000    2.000    0.000    2.500   14.000    0.000 
#    0.000    0.000    3.667    1.000    0.000    0.000 
#    0.000    0.000    0.000    0.000    0.000    0.000 
#
# Total GULP energy -133648.415063 kJ/mol
# GULP energy per Si atom -5568.683961 kJ/mol
# Density = 1.937255 g / cm^3
# Si number density = 19.416739 Si / 1000 Ang^3
#
#
#
# Elastic Constant Matrix: (Units=GPa)
#
#
# Indices 1 2 3 4 5 6 
#
# 1 92.9926 -6.9301 16.4708 0.0000 26.7604 0.0000
# 2 -6.9301 112.9032 5.5641 0.0000 -9.0697 0.0000
# 3 16.4708 5.5641 45.9958 0.0000 18.2041 0.0000
# 4 0.0000 0.0000 0.0000 27.1290 0.0000 1.7860
# 5 26.7604 -9.0697 18.2041 0.0000 36.1226 0.0000
# 6 0.0000 0.0000 0.0000 1.7860 0.0000 12.8701
#
#
#
# Elastic Compliance Matrix: (Units=1/GPa)
#
#
# Indices 1 2 3 4 5 6 
#
# 1 0.013714 0.000131 -0.001148 0.000000 -0.009548 0.000000
# 2 0.000131 0.009275 -0.002563 0.000000 0.003523 0.000000
# 3 -0.001148 -0.002563 0.027956 0.000000 -0.013882 0.000000
# 4 0.000000 0.000000 0.000000 0.037201 0.000000 -0.005162
# 5 -0.009548 0.003523 -0.013882 0.000000 0.042638 0.000000
# 6 0.000000 0.000000 0.000000 -0.005162 0.000000 0.078416
#
#
# Mechanical properties :
#
#
# Convention : Reuss Voigt Hill
#
# Bulk Modulus (GPa) = 22.83859 31.34458 27.09159
# Shear Modulus (GPa) = 21.64927 31.01012 26.32969
#
# Velocity S-wave (km/s) = 3.34275 4.00069 3.68643
# Velocity P-wave (km/s) = 5.16590 6.12526 5.66592
#
# Compressibility (1/GPa) = 0.04378553
#
# Stress axis : x y z
#
# Youngs Moduli (GPa) = 72.91610 107.82183 35.77000
#
# Poissons Ratio (x) = -0.01416 0.04106
# Poissons Ratio (y) = -0.00958 0.09169
# Poissons Ratio (z) = 0.08370 0.27639
#
# Static dielectric constant tensor:
#      x y z
#    x 1.692950 0.000000 0.022990 
#    y 0.000000 1.748590 0.000000 
#    z 0.022990 0.000000 1.776780 
# 
# From -- ./inp_files/43907.got.cif
#   From: 2010.05.17/outbox.cif.g08.bks.cpg/sg15_22_cif.got.tgz:43907.got - 2010.06.03 18:47:42.
