data_PCOD9269468
_publ_section_title
;
Structure prediction by ZEFSAII (Michael W. Deem and Ramdas Pophale) SiO2 
 PCOD9269468
Probable space group: C 2/C
;
_chemical_formula_sum "Si O2"
_cell_formula_units_Z 56
_cell_length_a 10.511177
_cell_length_b 20.365629
_cell_length_c 18.893994
_cell_angle_alpha 90.000000
_cell_angle_beta 131.191019
_cell_angle_gamma 90.000000
_cell_volume 3043.616490
_symmetry_space_group_name_H-M "C 2/C"
_symmetry_group_IT_number 15
_symmetry_cell_setting 'monoclinic'
loop_
_space_group_symop_operation_xyz
x,y,z
-x,y,1/2-z
-x,-y,-z
x,-y,1/2+z
1/2+x,1/2+y,z
1/2-x,1/2+y,1/2-z
1/2-x,1/2-y,-z
1/2+x,1/2-y,1/2+z
loop_
_atom_site_type_symbol
_atom_site_label
_atom_site_fract_x
_atom_site_fract_y
_atom_site_fract_z
Si Si1 0.647973 0.201947 0.856824
Si Si2 0.642156 0.933325 0.747376
Si Si3 0.334909 0.818068 0.977594
Si Si4 0.864287 0.975630 0.047192
Si Si5 0.721765 0.443430 0.121390
Si Si6 0.026501 0.567837 0.467825
Si Si7 0.504930 0.397315 0.835641
O O1 0.500000 0.223836 0.750000
O O2 0.800098 0.254543 0.916362
O O3 0.702225 0.128669 0.854790
O O4 0.592919 0.198795 0.918965
O O5 0.500000 0.907167 0.750000
O O6 0.566236 0.935729 0.641458
O O7 0.821535 0.895141 0.806005
O O8 0.687219 0.006636 0.791437
O O9 0.147774 0.850031 0.920016
O O10 0.447531 0.872434 0.981627
O O11 0.726022 0.927194 0.027359
O O12 0.025461 0.941027 0.071809
O O13 0.929609 0.028385 0.127954
O O14 0.775981 0.019489 0.953392
O O15 0.000000 0.500000 0.500000
O O16 0.500000 0.384728 0.750000
#
# Coordination Sequence:
#
# PCOD9269468 Si02
#       7
#     8   8   8   8   8   8   8
#     4  11  24  41  63  87 121 164 215 249 293 378
#     4  11  22  32  59  92 122 158 202 255 315 369
#     4  11  24  40  62  91 121 166 202 258 309 358
#     4  10  20  34  56  87 121 153 196 256 315 359
#     4  10  20  36  57  86 120 158 199 253 310 357
#     4  12  21  36  59  91 127 153 207 263 317 365
#     4  11  19  36  56  87 126 157 198 252 308 365
#
# _framework density 18.399165
#
# number of rings (size 3 to 8) (size 9 to 14) (size 15 to 20)
#    0.000    1.143    5.714    0.857    2.000    0.000 
#    0.000    0.714    0.000    0.000    0.000    0.000 
#    0.000    0.000    0.000    0.000    0.000    0.000 
#
# Total GULP energy -156320.861115 kJ/mol
# GULP energy per Si atom -5582.887897 kJ/mol
# Density = 1.835729 g / cm^3
# Si number density = 18.399165 Si / 1000 Ang^3
#
#
#
# Elastic Constant Matrix: (Units=GPa)
#
#
# Indices 1 2 3 4 5 6 
#
# 1 111.1373 37.3556 35.7935 0.0000 13.5449 0.0000
# 2 37.3556 72.3140 15.7513 0.0000 -3.7849 0.0000
# 3 35.7935 15.7513 96.5818 0.0000 -14.8242 0.0000
# 4 0.0000 0.0000 0.0000 18.1436 0.0000 1.8989
# 5 13.5449 -3.7849 -14.8242 0.0000 34.5071 0.0000
# 6 0.0000 0.0000 0.0000 1.8989 0.0000 27.8828
#
#
#
# Elastic Compliance Matrix: (Units=1/GPa)
#
#
# Indices 1 2 3 4 5 6 
#
# 1 0.013960 -0.006476 -0.005425 0.000000 -0.008521 0.000000
# 2 -0.006476 0.017354 0.000270 0.000000 0.004561 0.000000
# 3 -0.005425 0.000270 0.013545 0.000000 0.007978 0.000000
# 4 0.000000 0.000000 0.000000 0.055512 0.000000 -0.003780
# 5 -0.008521 0.004561 0.007978 0.000000 0.036252 0.000000
# 6 0.000000 0.000000 0.000000 -0.003780 0.000000 0.036122
#
#
# Mechanical properties :
#
#
# Convention : Reuss Voigt Hill
#
# Bulk Modulus (GPa) = 46.30383 50.87042 48.58713
# Shear Modulus (GPa) = 24.60555 28.84889 26.72722
#
# Velocity S-wave (km/s) = 3.66090 3.96403 3.81548
# Velocity P-wave (km/s) = 6.56434 6.97564 6.77311
#
# Compressibility (1/GPa) = 0.02159648
#
# Stress axis : x y z
#
# Youngs Moduli (GPa) = 71.63135 57.62439 73.82712
#
# Poissons Ratio (x) = 0.37316 0.40055
# Poissons Ratio (y) = 0.46387 -0.01992
# Poissons Ratio (z) = 0.38863 -0.01555
#
# Static dielectric constant tensor:
#      x y z
#    x 1.657700 0.000000 0.005290 
#    y 0.000000 1.627530 0.000000 
#    z 0.005290 0.000000 1.688510 
# 
# From -- ./inp_files/240289.got.cif
#   From: 2010.05.17/outbox.cif.g08.bks.cpg/sg15_121_cif.got.tgz:240289.got - 2010.06.03 18:47:42.
