data_PCOD9269494
_publ_section_title
;
Structure prediction by ZEFSAII (Michael W. Deem and Ramdas Pophale) SiO2 
 PCOD9269494
Probable space group: C 2/C
;
_chemical_formula_sum "Si O2"
_cell_formula_units_Z 36
_cell_length_a 8.483796
_cell_length_b 29.921226
_cell_length_c 8.571444
_cell_angle_alpha 90.000000
_cell_angle_beta 51.286935
_cell_angle_gamma 90.000000
_cell_volume 1697.768292
_symmetry_space_group_name_H-M "C 2/C"
_symmetry_group_IT_number 15
_symmetry_cell_setting 'monoclinic'
loop_
_space_group_symop_operation_xyz
x,y,z
-x,y,1/2-z
-x,-y,-z
x,-y,1/2+z
1/2+x,1/2+y,z
1/2-x,1/2+y,1/2-z
1/2-x,1/2-y,-z
1/2+x,1/2-y,1/2+z
loop_
_atom_site_type_symbol
_atom_site_label
_atom_site_fract_x
_atom_site_fract_y
_atom_site_fract_z
Si Si1 0.593579 0.817641 0.341904
Si Si2 0.998415 0.783514 0.568344
Si Si3 0.303418 0.352248 0.485210
Si Si4 0.236650 0.551130 0.149571
Si Si5 0.000000 0.991726 0.750000
O O1 0.500000 0.841530 0.250000
O O2 0.491445 0.770121 0.443718
O O3 0.620087 0.846512 0.478164
O O4 0.807525 0.801616 0.141390
O O5 0.822702 0.808041 0.580356
O O6 0.000000 0.796036 0.750000
O O7 0.500000 0.356509 0.250000
O O8 0.281701 0.396544 0.598099
O O9 0.331508 0.536240 0.257153
O O10 0.000000 0.543372 0.250000
O O11 0.372285 0.523124 0.944279
#
# Coordination Sequence:
#
# PCOD9269494 Si02
#       5
#     8   8   8   8   4
#     4  10  20  36  54  82 118 163 204 251 307 357
#     4  10  20  34  57  79 120 161 203 254 306 355
#     4  10  22  39  56  86 125 156 204 263 303 363
#     4  11  23  43  70  97 125 169 207 251 331 376
#     4  10  24  46  68  94 136 154 208 270 306 390
#
# _framework density 21.204307
#
# number of rings (size 3 to 8) (size 9 to 14) (size 15 to 20)
#    0.000    1.778    1.111    4.000    1.556    3.556 
#    4.000    1.111    0.000    0.000    0.000    0.000 
#    0.000    0.000    0.000    0.000    0.000    0.000 
#
# Total GULP energy -100449.998227 kJ/mol
# GULP energy per Si atom -5580.555457 kJ/mol
# Density = 2.115604 g / cm^3
# Si number density = 21.204307 Si / 1000 Ang^3
#
#
#
# Elastic Constant Matrix: (Units=GPa)
#
#
# Indices 1 2 3 4 5 6 
#
# 1 118.6987 16.6653 0.4808 0.0000 16.8730 0.0000
# 2 16.6653 48.1746 -1.1786 0.0000 20.6363 0.0000
# 3 0.4808 -1.1786 51.0279 0.0000 -3.4643 0.0000
# 4 0.0000 0.0000 0.0000 25.7573 0.0000 3.4705
# 5 16.8730 20.6363 -3.4643 0.0000 37.6519 0.0000
# 6 0.0000 0.0000 0.0000 3.4705 0.0000 14.0889
#
#
#
# Elastic Compliance Matrix: (Units=1/GPa)
#
#
# Indices 1 2 3 4 5 6 
#
# 1 0.009126 -0.001830 -0.000340 0.000000 -0.003118 0.000000
# 2 -0.001830 0.027501 -0.000317 0.000000 -0.014282 0.000000
# 3 -0.000340 -0.000317 0.019738 0.000000 0.002142 0.000000
# 4 0.000000 0.000000 0.000000 0.040157 0.000000 -0.009892
# 5 -0.003118 -0.014282 0.002142 0.000000 0.035981 0.000000
# 6 0.000000 0.000000 0.000000 -0.009892 0.000000 0.073414
#
#
# Mechanical properties :
#
#
# Convention : Reuss Voigt Hill
#
# Bulk Modulus (GPa) = 19.45831 27.75958 23.60894
# Shear Modulus (GPa) = 21.92771 28.96188 25.44479
#
# Velocity S-wave (km/s) = 3.21926 3.69975 3.46783
# Velocity P-wave (km/s) = 4.79736 5.60096 5.21466
#
# Compressibility (1/GPa) = 0.05139193
#
# Stress axis : x y z
#
# Youngs Moduli (GPa) = 109.57453 36.36250 50.66260
#
# Poissons Ratio (x) = 0.06653 0.01722
# Poissons Ratio (y) = 0.20048 0.01607
# Poissons Ratio (z) = 0.03725 0.01153
#
# Static dielectric constant tensor:
#      x y z
#    x 1.883480 0.000000 -0.042640 
#    y 0.000000 1.724880 0.000000 
#    z -0.042640 0.000000 1.786430 
# 
# From -- ./inp_files/25262.got.cif
#   From: 2010.05.17/outbox.cif.g08.bks.cpg/sg15_13_cif.got.tgz:25262.got - 2010.06.03 18:47:42.
