data_PCOD9269789
_publ_section_title
;
Structure prediction by ZEFSAII (Michael W. Deem and Ramdas Pophale) SiO2 
 PCOD9269789
Probable space group: C 2/C
;
_chemical_formula_sum "Si O2"
_cell_formula_units_Z 48
_cell_length_a 11.574223
_cell_length_b 7.365658
_cell_length_c 24.124154
_cell_angle_alpha 90.000000
_cell_angle_beta 98.752626
_cell_angle_gamma 90.000000
_cell_volume 2032.676415
_symmetry_space_group_name_H-M "C 2/C"
_symmetry_group_IT_number 15
_symmetry_cell_setting 'monoclinic'
loop_
_space_group_symop_operation_xyz
x,y,z
-x,y,1/2-z
-x,-y,-z
x,-y,1/2+z
1/2+x,1/2+y,z
1/2-x,1/2+y,1/2-z
1/2-x,1/2-y,-z
1/2+x,1/2-y,1/2+z
loop_
_atom_site_type_symbol
_atom_site_label
_atom_site_fract_x
_atom_site_fract_y
_atom_site_fract_z
Si Si1 0.000000 0.414759 0.750000
Si Si2 0.857782 0.365862 0.942523
Si Si3 0.603697 0.658096 0.396480
Si Si4 0.403042 0.107594 0.839395
Si Si5 0.108928 0.705022 0.473702
Si Si6 0.839920 0.228543 0.647431
Si Si7 0.000000 0.000000 0.000000
O O1 0.093643 0.530605 0.722021
O O2 0.070496 0.303109 0.801193
O O3 0.729761 0.283251 0.930046
O O4 0.887412 0.452033 0.884956
O O5 0.966114 0.231924 0.963983
O O6 0.874618 0.531324 0.987035
O O7 0.529709 0.805017 0.358349
O O8 0.632241 0.483860 0.361017
O O9 0.520924 0.596746 0.439963
O O10 0.293717 0.239856 0.842074
O O11 0.143176 0.687974 0.412744
O O12 0.141104 0.894077 0.503535
#
# Coordination Sequence:
#
# PCOD9269789 Si02
#       7
#     4   8   8   8   8   8   4
#     4  12  26  48  68  92 124 182 228 270 330 374
#     4  10  21  40  66  97 141 168 217 267 327 410
#     4  10  23  40  63 102 134 168 214 266 335 395
#     4  11  24  45  66  99 130 172 223 273 327 393
#     4  10  20  41  65 100 136 174 214 267 335 397
#     4  10  25  44  70  94 131 173 219 277 326 389
#     4  10  20  34  60  98 132 172 206 258 330 394
#
# _framework density 23.614186
#
# number of rings (size 3 to 8) (size 9 to 14) (size 15 to 20)
#    0.000    1.667    3.333    0.000    2.333    7.333 
#    6.000    0.000    0.000    0.000    0.000    0.000 
#    0.000    0.000    0.000    0.000    0.000    0.000 
#
# Total GULP energy -133869.856429 kJ/mol
# GULP energy per Si atom -5577.910685 kJ/mol
# Density = 2.356044 g / cm^3
# Si number density = 23.614186 Si / 1000 Ang^3
#
#
#
# Elastic Constant Matrix: (Units=GPa)
#
#
# Indices 1 2 3 4 5 6 
#
# 1 128.8216 4.8386 59.7669 0.0000 -1.5824 0.0000
# 2 4.8386 42.0141 39.7836 0.0000 -6.1212 0.0000
# 3 59.7669 39.7836 151.5053 0.0000 -15.1182 0.0000
# 4 0.0000 0.0000 0.0000 41.3764 0.0000 2.8556
# 5 -1.5824 -6.1212 -15.1182 0.0000 32.7539 0.0000
# 6 0.0000 0.0000 0.0000 2.8556 0.0000 25.1084
#
#
#
# Elastic Compliance Matrix: (Units=1/GPa)
#
#
# Indices 1 2 3 4 5 6 
#
# 1 0.009893 0.003323 -0.004891 0.000000 -0.001158 0.000000
# 2 0.003323 0.032944 -0.009782 0.000000 0.001802 0.000000
# 3 -0.004891 -0.009782 0.011418 0.000000 0.003206 0.000000
# 4 0.000000 0.000000 0.000000 0.024360 0.000000 -0.002770
# 5 -0.001158 0.001802 0.003206 0.000000 0.032291 0.000000
# 6 0.000000 0.000000 0.000000 -0.002770 0.000000 0.040142
#
#
# Mechanical properties :
#
#
# Convention : Reuss Voigt Hill
#
# Bulk Modulus (GPa) = 31.68984 59.01324 45.35154
# Shear Modulus (GPa) = 27.13477 34.37788 30.75632
#
# Velocity S-wave (km/s) = 3.39350 3.81965 3.61286
# Velocity P-wave (km/s) = 5.36688 6.67067 6.05398
#
# Compressibility (1/GPa) = 0.03155585
#
# Stress axis : x y z
#
# Youngs Moduli (GPa) = 101.08485 30.35474 87.57928
#
# Poissons Ratio (x) = -0.10087 0.42832
# Poissons Ratio (y) = -0.33590 0.85667
# Poissons Ratio (z) = 0.49438 0.29692
#
# Static dielectric constant tensor:
#      x y z
#    x 2.172780 0.000000 0.058780 
#    y 0.000000 2.165270 0.000000 
#    z 0.058780 0.000000 1.920260 
# 
# From -- ./inp_files/267835.got.cif
#   From: 2010.05.17/outbox.cif.g08.bks.cpg/sg15_134_cif.got.tgz:267835.got - 2010.06.03 18:47:42.
