data_PCOD9269120
_publ_section_title
;
Structure prediction by ZEFSAII (Michael W. Deem and Ramdas Pophale) SiO2 
 PCOD9269120
Probable space group: C 2/C
;
_chemical_formula_sum "Si O2"
_cell_formula_units_Z 48
_cell_length_a 20.628089
_cell_length_b 8.808349
_cell_length_c 17.449022
_cell_angle_alpha 90.000000
_cell_angle_beta 42.315282
_cell_angle_gamma 90.000000
_cell_volume 2134.396043
_symmetry_space_group_name_H-M "C 2/C"
_symmetry_group_IT_number 15
_symmetry_cell_setting 'monoclinic'
loop_
_space_group_symop_operation_xyz
x,y,z
-x,y,1/2-z
-x,-y,-z
x,-y,1/2+z
1/2+x,1/2+y,z
1/2-x,1/2+y,1/2-z
1/2-x,1/2-y,-z
1/2+x,1/2-y,1/2+z
loop_
_atom_site_type_symbol
_atom_site_label
_atom_site_fract_x
_atom_site_fract_y
_atom_site_fract_z
Si Si1 0.191736 0.495520 0.365115
Si Si2 0.602712 0.897837 0.790937
Si Si3 0.974476 0.677318 0.900501
Si Si4 0.639099 0.600432 0.682067
Si Si5 0.425100 0.511571 0.409758
Si Si6 0.566453 0.288059 0.970889
O O1 0.179502 0.552715 0.288681
O O2 0.112012 0.589169 0.482090
O O3 0.291689 0.492785 0.321914
O O4 0.157352 0.321708 0.396267
O O5 0.643763 0.780188 0.694112
O O6 0.519293 0.801365 0.908640
O O7 0.548506 0.048465 0.807096
O O8 0.926758 0.808931 0.892666
O O9 0.031834 0.777205 0.913934
O O10 0.650291 0.563783 0.582811
O O11 0.531165 0.548376 0.796247
O O12 0.410808 0.446945 0.508291
#
# Coordination Sequence:
#
# PCOD9269120 Si02
#       6
#     8   8   8   8   8   8
#     4   9  18  33  55  79 101 134 187 226 250 306
#     4   8  17  35  55  73 102 140 175 215 266 315
#     4   9  17  34  58  79 101 139 183 220 257 311
#     4  10  21  35  50  76 112 143 172 216 270 318
#     4  10  20  34  51  76 113 144 170 214 272 323
#     4   8  16  33  55  76 100 137 177 213 259 314
#
# _framework density 22.488799
#
# number of rings (size 3 to 8) (size 9 to 14) (size 15 to 20)
#    0.000    3.000    0.000    2.500    0.000    4.000 
#    0.000   11.667    0.000    0.000    0.000    0.000 
#    0.000    0.000    0.000    0.000    0.000    0.000 
#
# Total GULP energy -133807.512363 kJ/mol
# GULP energy per Si atom -5575.313015 kJ/mol
# Density = 2.243761 g / cm^3
# Si number density = 22.488799 Si / 1000 Ang^3
#
#
#
# Elastic Constant Matrix: (Units=GPa)
#
#
# Indices 1 2 3 4 5 6 
#
# 1 113.3355 51.8402 15.5188 0.0000 -13.9159 -0.0001
# 2 51.8402 153.1120 17.8693 -0.0001 7.9436 0.0000
# 3 15.5188 17.8693 16.1684 0.0000 -5.0932 0.0000
# 4 0.0000 -0.0001 0.0000 18.0979 0.0000 3.2027
# 5 -13.9159 7.9436 -5.0932 0.0000 11.4624 0.0000
# 6 -0.0001 0.0000 0.0000 3.2027 0.0000 25.9319
#
#
#
# Elastic Compliance Matrix: (Units=1/GPa)
#
#
# Indices 1 2 3 4 5 6 
#
# 1 0.014122 -0.005802 -0.000552 0.000000 0.020920 0.000000
# 2 -0.005802 0.011104 -0.013193 0.000000 -0.020602 0.000000
# 3 -0.000552 -0.013193 0.092588 0.000000 0.049614 0.000000
# 4 0.000000 0.000000 0.000000 0.056490 -0.000001 -0.006977
# 5 0.020920 -0.020602 0.049614 -0.000001 0.148963 0.000000
# 6 0.000000 0.000000 0.000000 -0.006977 0.000000 0.039424
#
#
# Mechanical properties :
#
#
# Convention : Reuss Voigt Hill
#
# Bulk Modulus (GPa) = 12.70324 50.34138 31.52231
# Shear Modulus (GPa) = 11.68160 24.25761 17.96961
#
# Velocity S-wave (km/s) = 2.28160 3.28785 2.82981
# Velocity P-wave (km/s) = 3.54991 6.07017 4.97236
#
# Compressibility (1/GPa) = 0.07872006
#
# Stress axis : x y z
#
# Youngs Moduli (GPa) = 70.81383 90.05596 10.80058
#
# Poissons Ratio (x) = 0.52252 0.00596
# Poissons Ratio (y) = 0.41088 0.14249
# Poissons Ratio (z) = 0.03906 1.18810
#
# Static dielectric constant tensor:
#      x y z
#    x 1.896040 0.000000 0.060310 
#    y 0.000000 1.847550 0.000000 
#    z 0.060310 0.000000 1.891240 
# 
# From -- ./inp_files/246839.got.cif
#   From: 2010.05.17/outbox.cif.g08.bks.cpg/sg15_124_cif.got.tgz:246839.got - 2010.06.03 18:47:42.
