data_PCOD9269644
_publ_section_title
;
Structure prediction by ZEFSAII (Michael W. Deem and Ramdas Pophale) SiO2 
 PCOD9269644
Probable space group: C 2/C
;
_chemical_formula_sum "Si O2"
_cell_formula_units_Z 36
_cell_length_a 18.898989
_cell_length_b 7.738136
_cell_length_c 11.346091
_cell_angle_alpha 90.000000
_cell_angle_beta 126.234832
_cell_angle_gamma 90.000000
_cell_volume 1338.381764
_symmetry_space_group_name_H-M "C 2/C"
_symmetry_group_IT_number 15
_symmetry_cell_setting 'monoclinic'
loop_
_space_group_symop_operation_xyz
x,y,z
-x,y,1/2-z
-x,-y,-z
x,-y,1/2+z
1/2+x,1/2+y,z
1/2-x,1/2+y,1/2-z
1/2-x,1/2-y,-z
1/2+x,1/2-y,1/2+z
loop_
_atom_site_type_symbol
_atom_site_label
_atom_site_fract_x
_atom_site_fract_y
_atom_site_fract_z
Si Si1 0.155598 0.684781 0.252081
Si Si2 0.333938 0.421127 0.019492
Si Si3 0.666573 0.207538 0.993803
Si Si4 0.526695 0.297143 0.516697
Si Si5 0.500000 0.852921 0.250000
O O1 0.232089 0.565432 0.382296
O O2 0.164400 0.849390 0.346824
O O3 0.189394 0.691677 0.151630
O O4 0.050187 0.685674 0.124560
O O5 0.381434 0.605610 0.063890
O O6 0.386149 0.301238 0.978223
O O7 0.750000 0.250000 0.000000
O O8 0.593170 0.069384 0.884537
O O9 0.500000 0.500000 0.500000
O O10 0.534976 0.224342 0.657276
#
# Coordination Sequence:
#
# PCOD9269644 Si02
#       5
#     8   8   8   8   4
#     4  10  23  36  57  95 118 158 201 252 306 349
#     4  11  22  38  61  89 125 157 203 252 301 359
#     4  11  23  37  64  88 122 158 204 250 304 361
#     4  11  19  34  61  89 118 154 203 248 294 356
#     4  10  20  34  58  92 114 154 198 248 288 350
#
# _framework density 26.898154999999999
#
# number of rings (size 3 to 8) (size 9 to 14) (size 15 to 20)
#    0.000    1.333    4.444    3.333    3.111    0.000 
#    0.000    0.000    9.778    4.000    0.000    0.000 
#    0.000    0.000    0.000    0.000    0.000    0.000 
#
# Total GULP energy -100309.817039 kJ/mol
# GULP energy per Si atom -5572.767613 kJ/mol
# Density = 2.683693 g / cm^3
# Si number density = 26.898155 Si / 1000 Ang^3
#
#
#
# Elastic Constant Matrix: (Units=GPa)
#
#
# Indices 1 2 3 4 5 6 
#
# 1 166.3702 -4.7275 47.2853 0.0000 28.1310 0.0000
# 2 -4.7275 67.8205 27.7549 0.0000 8.0851 0.0000
# 3 47.2853 27.7549 199.1901 0.0000 -12.4259 0.0000
# 4 0.0000 0.0000 0.0000 5.1104 0.0000 7.8506
# 5 28.1310 8.0851 -12.4259 0.0000 36.7235 0.0000
# 6 0.0000 0.0000 0.0000 7.8506 0.0000 29.9273
#
#
#
# Elastic Compliance Matrix: (Units=1/GPa)
#
#
# Indices 1 2 3 4 5 6 
#
# 1 0.008205 0.002652 -0.002805 0.000000 -0.007818 0.000000
# 2 0.002652 0.017178 -0.003459 0.000000 -0.006984 0.000000
# 3 -0.002805 -0.003459 0.006487 0.000000 0.005105 0.000000
# 4 0.000000 0.000000 0.000000 0.327760 0.000000 -0.085979
# 5 -0.007818 -0.006984 0.005105 0.000000 0.036484 0.000000
# 6 0.000000 0.000000 0.000000 -0.085979 0.000000 0.055969
#
#
# Mechanical properties :
#
#
# Convention : Reuss Voigt Hill
#
# Bulk Modulus (GPa) = 40.57466 63.77847 52.17657
# Shear Modulus (GPa) = 10.69469 38.55677 24.62573
#
# Velocity S-wave (km/s) = 1.99615 3.79018 3.02903
# Velocity P-wave (km/s) = 4.51997 6.55107 5.62791
#
# Compressibility (1/GPa) = 0.02464592
#
# Stress axis : x y z
#
# Youngs Moduli (GPa) = 121.87239 58.21515 154.16336
#
# Poissons Ratio (x) = -0.15439 0.43244
# Poissons Ratio (y) = -0.32320 0.53321
# Poissons Ratio (z) = 0.34186 0.20135
#
# Static dielectric constant tensor:
#      x y z
#    x 2.238680 0.000000 0.031100 
#    y 0.000000 2.304660 0.000000 
#    z 0.031100 0.000000 2.043330 
# 
# From -- ./inp_files/103406.got.cif
#   From: 2010.05.17/outbox.cif.g08.bks.cpg/sg15_52_cif.got.tgz:103406.got - 2010.06.03 18:47:42.
