data_PCOD9269999
_publ_section_title
;
Structure prediction by ZEFSAII (Michael W. Deem and Ramdas Pophale) SiO2 
 PCOD9269999
Probable space group: C 2/C
;
_chemical_formula_sum "Si O2"
_cell_formula_units_Z 44
_cell_length_a 27.992198
_cell_length_b 8.286744
_cell_length_c 26.945538
_cell_angle_alpha 90.000000
_cell_angle_beta 19.856564
_cell_angle_gamma 90.000000
_cell_volume 2123.052097
_symmetry_space_group_name_H-M "C 2/C"
_symmetry_group_IT_number 15
_symmetry_cell_setting 'monoclinic'
loop_
_space_group_symop_operation_xyz
x,y,z
-x,y,1/2-z
-x,-y,-z
x,-y,1/2+z
1/2+x,1/2+y,z
1/2-x,1/2+y,1/2-z
1/2-x,1/2-y,-z
1/2+x,1/2-y,1/2+z
loop_
_atom_site_type_symbol
_atom_site_label
_atom_site_fract_x
_atom_site_fract_y
_atom_site_fract_z
Si Si1 0.400516 0.458876 0.210044
Si Si2 0.750000 0.750000 0.000000
Si Si3 0.852235 0.750089 0.566602
Si Si4 0.270671 0.301973 0.757278
Si Si5 0.004911 0.583149 0.923990
Si Si6 0.973762 0.257304 0.202626
O O1 0.279211 0.324613 0.335086
O O2 0.351917 0.556835 0.208158
O O3 0.408308 0.588424 0.246374
O O4 0.552955 0.382412 0.052780
O O5 0.857771 0.672676 0.852647
O O6 0.883619 0.772069 0.907414
O O7 0.794138 0.809090 0.676066
O O8 0.958480 0.600895 0.473514
O O9 0.343992 0.137116 0.703969
O O10 0.110818 0.317046 0.931380
O O11 0.996721 0.636295 0.874808
#
# Coordination Sequence:
#
# PCOD9269999 Si02
#       6
#     8   4   8   8   8   8
#     4  10  23  37  55  84 125 154 199 241 283 336
#     4  10  20  38  70  84 108 140 192 236 298 366
#     4  11  21  35  55  83 120 167 196 232 281 334
#     4  10  20  35  53  82 119 164 206 235 263 329
#     4  10  21  35  56  83 118 150 200 240 284 338
#     4  10  21  40  62  93 111 145 189 251 298 350
#
# _framework density 20.724879000000001
#
# number of rings (size 3 to 8) (size 9 to 14) (size 15 to 20)
#    0.000    1.818    0.000    5.455    0.000   10.182 
#    0.000    0.000    0.000   19.636    0.000    0.000 
#    0.000    0.000    0.000    0.000    0.000    0.000 
#
# Total GULP energy -122470.390919 kJ/mol
# GULP energy per Si atom -5566.835951 kJ/mol
# Density = 2.067771 g / cm^3
# Si number density = 20.724879 Si / 1000 Ang^3
#
#
#
# Elastic Constant Matrix: (Units=GPa)
#
#
# Indices 1 2 3 4 5 6 
#
# 1 49.3492 10.4500 8.5824 0.0001 -11.9624 0.0028
# 2 10.4500 43.6759 12.8959 -0.0099 -0.6649 -0.0061
# 3 8.5824 12.8959 76.6418 -0.0043 -5.3131 -0.0017
# 4 0.0001 -0.0099 -0.0043 15.7781 0.0030 -28.0249
# 5 -11.9624 -0.6649 -5.3131 0.0030 26.9284 0.0001
# 6 0.0028 -0.0061 -0.0017 -28.0249 0.0001 -6.9543
#
#
#
# Elastic Compliance Matrix: (Units=1/GPa)
#
#
# Indices 1 2 3 4 5 6 
#
# 1 0.024081 -0.005282 -0.001090 0.000002 0.010352 0.000005
# 2 -0.005282 0.025253 -0.003829 -0.000003 -0.002479 -0.000010
# 3 -0.001090 -0.003829 0.013965 0.000000 0.002177 -0.000001
# 4 0.000002 -0.000003 0.000000 0.007769 0.000000 -0.031308
# 5 0.010352 -0.002479 0.002177 0.000000 0.042103 0.000005
# 6 0.000005 -0.000010 -0.000001 -0.031308 0.000005 -0.017627
#
#
# Mechanical properties :
#
#
# Convention : Reuss Voigt Hill
#
# Bulk Modulus (GPa) = 23.31254 25.94706 24.62980
# Shear Modulus (GPa) = 38.38891 16.33301 27.36096
#
# Velocity S-wave (km/s) = 4.30852 2.81033 3.63740
# Velocity P-wave (km/s) = 6.00201 4.80391 5.43607
#
# Compressibility (1/GPa) = 0.04289537
#
# Stress axis : x y z
#
# Youngs Moduli (GPa) = 41.52605 39.59976 71.60752
#
# Poissons Ratio (x) = 0.20918 0.07806
# Poissons Ratio (y) = 0.21935 0.27421
# Poissons Ratio (z) = 0.04527 0.15164
#
# Static dielectric constant tensor:
#      x y z
#    x 1.733240 0.000000 -0.012250 
#    y 0.000000 1.805840 0.000000 
#    z -0.012250 0.000000 1.737860 
# 
# From -- ./inp_files/68287.got.cif
#   From: 2010.05.17/outbox.cif.g08.bks.cpg/sg15_35_cif.got.tgz:68287.got - 2010.06.03 18:47:42.
