data_PCOD9269325
_publ_section_title
;
Structure prediction by ZEFSAII (Michael W. Deem and Ramdas Pophale) SiO2 
 PCOD9269325
Probable space group: C 2/C
;
_chemical_formula_sum "Si O2"
_cell_formula_units_Z 36
_cell_length_a 6.838196
_cell_length_b 21.584557
_cell_length_c 9.574466
_cell_angle_alpha 90.000000
_cell_angle_beta 106.466956
_cell_angle_gamma 90.000000
_cell_volume 1355.221627
_symmetry_space_group_name_H-M "C 2/C"
_symmetry_group_IT_number 15
_symmetry_cell_setting 'monoclinic'
loop_
_space_group_symop_operation_xyz
x,y,z
-x,y,1/2-z
-x,-y,-z
x,-y,1/2+z
1/2+x,1/2+y,z
1/2-x,1/2+y,1/2-z
1/2-x,1/2-y,-z
1/2+x,1/2-y,1/2+z
loop_
_atom_site_type_symbol
_atom_site_label
_atom_site_fract_x
_atom_site_fract_y
_atom_site_fract_z
Si Si1 0.325395 0.803257 0.578533
Si Si2 0.251690 0.922521 0.715197
Si Si3 0.500000 0.291354 0.250000
Si Si4 0.662931 0.880477 0.173045
Si Si5 0.247907 0.498719 0.041065
O O1 0.500000 0.787797 0.750000
O O2 0.198859 0.855009 0.643646
O O3 0.371727 0.724154 0.569154
O O4 0.435604 0.843524 0.478652
O O5 0.500000 0.923545 0.750000
O O6 0.188450 0.980074 0.601528
O O7 0.191561 0.940502 0.860444
O O8 0.313222 0.331272 0.273744
O O9 0.500000 0.903026 0.250000
O O10 0.790864 0.936186 0.135728
O O11 0.000000 0.500000 0.000000
#
# Coordination Sequence:
#
# PCOD9269325 Si02
#       5
#     8   8   4   8   8
#     4   9  18  32  52  77 107 147 185 222 276 335
#     4   9  15  27  49  77 107 139 180 228 276 330
#     4  10  20  36  54  80 112 146 188 226 278 334
#     4  10  20  34  55  81 108 144 184 231 278 331
#     4   9  17  29  51  81 107 138 185 229 277 335
#
# _framework density 26.563921000000001
#
# number of rings (size 3 to 8) (size 9 to 14) (size 15 to 20)
#    0.000    2.667    1.111    2.000    0.000    0.889 
#    0.000    0.000    0.000   21.333    2.889    0.000 
#    0.000    0.000    0.000    0.000    0.000    0.000 
#
# Total GULP energy -100298.826299 kJ/mol
# GULP energy per Si atom -5572.157017 kJ/mol
# Density = 2.650346 g / cm^3
# Si number density = 26.563921 Si / 1000 Ang^3
#
#
#
# Elastic Constant Matrix: (Units=GPa)
#
#
# Indices 1 2 3 4 5 6 
#
# 1 51.1661 11.4873 38.8537 0.0000 6.8228 0.0000
# 2 11.4873 161.3158 84.7999 0.0000 12.5477 0.0000
# 3 38.8537 84.7999 161.6995 0.0000 17.9628 0.0000
# 4 0.0000 0.0000 0.0000 66.3576 0.0000 13.0011
# 5 6.8228 12.5477 17.9628 0.0000 62.2475 0.0000
# 6 0.0000 0.0000 0.0000 13.0011 0.0000 29.8071
#
#
#
# Elastic Compliance Matrix: (Units=1/GPa)
#
#
# Indices 1 2 3 4 5 6 
#
# 1 0.024373 0.001884 -0.006721 0.000000 -0.001112 0.000000
# 2 0.001884 0.008716 -0.004965 0.000000 -0.000531 0.000000
# 3 -0.006721 -0.004965 0.010548 0.000000 -0.001306 0.000000
# 4 0.000000 0.000000 0.000000 0.016478 0.000000 -0.007187
# 5 -0.001112 -0.000531 -0.001306 0.000000 0.016671 0.000000
# 6 0.000000 0.000000 0.000000 -0.007187 0.000000 0.036684
#
#
# Mechanical properties :
#
#
# Convention : Reuss Voigt Hill
#
# Bulk Modulus (GPa) = 41.60816 71.60702 56.60759
# Shear Modulus (GPa) = 35.43983 47.61846 41.52914
#
# Velocity S-wave (km/s) = 3.65654 4.23850 3.95823
# Velocity P-wave (km/s) = 5.79003 7.13920 6.49972
#
# Compressibility (1/GPa) = 0.02403375
#
# Stress axis : x y z
#
# Youngs Moduli (GPa) = 41.02884 114.73251 94.80523
#
# Poissons Ratio (x) = -0.21614 0.63718
# Poissons Ratio (y) = -0.07729 0.47067
# Poissons Ratio (z) = 0.27575 0.56960
#
# Static dielectric constant tensor:
#      x y z
#    x 2.104690 0.000000 0.217890 
#    y 0.000000 2.094620 0.000000 
#    z 0.217890 0.000000 2.266120 
# 
# From -- ./inp_files/24136.got.cif
#   From: 2010.05.17/outbox.cif.g08.bks.cpg/sg15_13_cif.got.tgz:24136.got - 2010.06.03 18:47:42.
