data_PCOD9269961
_publ_section_title
;
Structure prediction by ZEFSAII (Michael W. Deem and Ramdas Pophale) SiO2 
 PCOD9269961
Probable space group: C 2/C
;
_chemical_formula_sum "Si O2"
_cell_formula_units_Z 60
_cell_length_a 6.193691
_cell_length_b 23.431827
_cell_length_c 25.826003
_cell_angle_alpha 90.000000
_cell_angle_beta 58.329483
_cell_angle_gamma 90.000000
_cell_volume 3189.950759
_symmetry_space_group_name_H-M "C 2/C"
_symmetry_group_IT_number 15
_symmetry_cell_setting 'monoclinic'
loop_
_space_group_symop_operation_xyz
x,y,z
-x,y,1/2-z
-x,-y,-z
x,-y,1/2+z
1/2+x,1/2+y,z
1/2-x,1/2+y,1/2-z
1/2-x,1/2-y,-z
1/2+x,1/2-y,1/2+z
loop_
_atom_site_type_symbol
_atom_site_label
_atom_site_fract_x
_atom_site_fract_y
_atom_site_fract_z
Si Si1 0.500000 0.291452 0.750000
Si Si2 0.468197 0.420675 0.035996
Si Si3 0.258159 0.245123 0.686142
Si Si4 0.005178 0.394294 0.916957
Si Si5 0.596482 0.819012 0.073229
Si Si6 0.514404 0.215716 0.470138
Si Si7 0.515113 0.138495 0.189948
Si Si8 0.218987 0.022720 0.046784
O O1 0.471265 0.253084 0.702907
O O2 0.744001 0.331368 0.717088
O O3 0.268217 0.370664 0.072849
O O4 0.525106 0.468867 0.072384
O O5 0.360758 0.446810 0.996209
O O6 0.746989 0.400409 0.982742
O O7 0.342376 0.196619 0.636113
O O8 0.211875 0.307841 0.666246
O O9 0.000000 0.232648 0.750000
O O10 0.228707 0.434017 0.912166
O O11 0.063290 0.327672 0.917487
O O12 0.944860 0.402615 0.863855
O O13 0.768064 0.762631 0.056073
O O14 0.533010 0.822034 0.020279
O O15 0.250000 0.250000 0.500000
O O16 0.500000 0.113273 0.250000
O O17 0.500000 0.000000 0.000000
#
# Coordination Sequence:
#
# PCOD9269961 Si02
#       8
#     4   8   8   8   8   8   8   8
#     4   8  16  34  48  68 106 152 180 208 264 318
#     4  10  20  35  52  78 110 141 183 233 278 336
#     4   9  19  33  46  70 109 150 185 224 260 330
#     4  11  19  33  53  77 114 149 177 224 283 341
#     4  11  21  32  51  78 115 149 186 223 277 345
#     4  11  21  30  46  83 114 151 177 218 286 343
#     4   9  19  31  48  73 109 148 183 218 262 334
#     4   9  20  36  52  73 109 138 184 226 283 330
#
# _framework density 18.809068
#
# number of rings (size 3 to 8) (size 9 to 14) (size 15 to 20)
#    0.000    2.400    2.667    1.600    1.867    3.200 
#    0.000    0.000    0.000    0.000    0.000    0.000 
#   68.000    0.000    0.000    0.000    0.000    0.000 
#
# Total GULP energy -167065.125850 kJ/mol
# GULP energy per Si atom -5568.837528 kJ/mol
# Density = 1.876626 g / cm^3
# Si number density = 18.809068 Si / 1000 Ang^3
#
#
#
# Elastic Constant Matrix: (Units=GPa)
#
#
# Indices 1 2 3 4 5 6 
#
# 1 85.4721 30.0752 18.7403 0.0000 17.3385 0.0000
# 2 30.0752 73.0735 23.4693 0.0000 8.4661 0.0000
# 3 18.7403 23.4693 70.4348 0.0000 12.9559 0.0000
# 4 0.0000 0.0000 0.0000 13.3998 0.0000 6.5568
# 5 17.3385 8.4661 12.9559 0.0000 25.0332 0.0000
# 6 0.0000 0.0000 0.0000 6.5568 0.0000 41.5321
#
#
#
# Elastic Compliance Matrix: (Units=1/GPa)
#
#
# Indices 1 2 3 4 5 6 
#
# 1 0.015399 -0.005082 -0.000838 0.000000 -0.008513 0.000000
# 2 -0.005082 0.017183 -0.004368 0.000000 -0.000031 0.000000
# 3 -0.000838 -0.004368 0.017128 0.000000 -0.006807 0.000000
# 4 0.000000 0.000000 0.000000 0.080875 0.000000 -0.012768
# 5 -0.008513 -0.000031 -0.006807 0.000000 0.049377 0.000000
# 6 0.000000 0.000000 0.000000 -0.012768 0.000000 0.026093
#
#
# Mechanical properties :
#
#
# Convention : Reuss Voigt Hill
#
# Bulk Modulus (GPa) = 34.32394 41.50555 37.91475
# Shear Modulus (GPa) = 21.15581 26.43940 23.79760
#
# Velocity S-wave (km/s) = 3.35739 3.75330 3.56085
# Velocity P-wave (km/s) = 5.77215 6.39513 6.09161
#
# Compressibility (1/GPa) = 0.02913418
#
# Stress axis : x y z
#
# Youngs Moduli (GPa) = 64.94081 58.19730 58.38444
#
# Poissons Ratio (x) = 0.29578 0.04891
# Poissons Ratio (y) = 0.33005 0.25500
# Poissons Ratio (z) = 0.05440 0.25418
#
# Static dielectric constant tensor:
#      x y z
#    x 1.732210 0.000000 0.020480 
#    y 0.000000 1.724620 0.000000 
#    z 0.020480 0.000000 1.730370 
# 
# From -- ./inp_files/261672.got.cif
#   From: 2010.05.17/outbox.cif.g08.bks.cpg/sg15_131_cif.got.tgz:261672.got - 2010.06.03 18:47:42.
