data_PCOD9269514
_publ_section_title
;
Structure prediction by ZEFSAII (Michael W. Deem and Ramdas Pophale) SiO2 
 PCOD9269514
Probable space group: C 2/C
;
_chemical_formula_sum "Si O2"
_cell_formula_units_Z 56
_cell_length_a 11.665142
_cell_length_b 14.552031
_cell_length_c 16.756092
_cell_angle_alpha 90.000000
_cell_angle_beta 119.774527
_cell_angle_gamma 90.000000
_cell_volume 2468.875874
_symmetry_space_group_name_H-M "C 2/C"
_symmetry_group_IT_number 15
_symmetry_cell_setting 'monoclinic'
loop_
_space_group_symop_operation_xyz
x,y,z
-x,y,1/2-z
-x,-y,-z
x,-y,1/2+z
1/2+x,1/2+y,z
1/2-x,1/2+y,1/2-z
1/2-x,1/2-y,-z
1/2+x,1/2-y,1/2+z
loop_
_atom_site_type_symbol
_atom_site_label
_atom_site_fract_x
_atom_site_fract_y
_atom_site_fract_z
Si Si1 0.365778 0.561853 0.074807
Si Si2 0.233912 0.826633 0.831361
Si Si3 0.223852 0.896752 0.547202
Si Si4 0.132087 0.503081 0.275700
Si Si5 0.133074 0.340725 0.399657
Si Si6 0.413493 0.710795 0.383721
Si Si7 0.483496 0.063765 0.417538
O O1 0.345770 0.584613 0.161384
O O2 0.483480 0.625429 0.083950
O O3 0.368166 0.458113 0.042666
O O4 0.230847 0.604117 0.990660
O O5 0.200252 0.746639 0.881914
O O6 0.181073 0.797735 0.726553
O O7 0.388008 0.848703 0.888007
O O8 0.164479 0.801266 0.559555
O O9 0.370234 0.904760 0.559560
O O10 0.244557 0.949411 0.640180
O O11 0.116936 0.410561 0.320628
O O12 0.108131 0.500406 0.174055
O O13 0.000000 0.562625 0.250000
O O14 0.003987 0.300779 0.398955
O O15 0.500000 0.000000 0.500000
#
# Coordination Sequence:
#
# PCOD9269514 Si02
#       7
#     8   8   8   8   8   8   8
#     4  10  20  37  58  86 120 155 197 247 307 373
#     4  11  20  34  55  89 120 152 203 255 301 354
#     4  10  20  34  57  85 114 154 196 247 305 353
#     4   9  18  35  57  84 112 152 202 244 293 358
#     4  10  21  37  60  90 115 158 202 253 310 366
#     4  11  20  33  55  89 123 146 194 257 315 350
#     4  11  21  37  58  87 122 161 208 252 296 373
#
# _framework density 22.682388
#
# number of rings (size 3 to 8) (size 9 to 14) (size 15 to 20)
#    0.000    1.714    2.857    4.714    0.000    0.000 
#    5.143    0.000    0.000    3.429    7.429    4.000 
#    0.000    0.000    0.000    0.000    0.000    0.000 
#
# Total GULP energy -155986.494007 kJ/mol
# GULP energy per Si atom -5570.946215 kJ/mol
# Density = 2.263076 g / cm^3
# Si number density = 22.682388 Si / 1000 Ang^3
#
#
#
# Elastic Constant Matrix: (Units=GPa)
#
#
# Indices 1 2 3 4 5 6 
#
# 1 122.6743 32.2452 9.7663 0.0000 0.8586 0.0000
# 2 32.2452 61.2971 8.2900 0.0000 -2.8908 0.0000
# 3 9.7663 8.2900 75.3893 0.0000 0.4362 0.0000
# 4 0.0000 0.0000 0.0000 32.5186 0.0000 -4.6258
# 5 0.8586 -2.8908 0.4362 0.0000 28.6422 0.0000
# 6 0.0000 0.0000 0.0000 -4.6258 0.0000 33.7265
#
#
#
# Elastic Compliance Matrix: (Units=1/GPa)
#
#
# Indices 1 2 3 4 5 6 
#
# 1 0.009512 -0.004948 -0.000684 0.000000 -0.000774 0.000000
# 2 -0.004948 0.019217 -0.001484 0.000000 0.002110 0.000000
# 3 -0.000684 -0.001484 0.013518 0.000000 -0.000335 0.000000
# 4 0.000000 0.000000 0.000000 0.031364 0.000000 0.004302
# 5 -0.000774 0.002110 -0.000335 0.000000 0.035155 0.000000
# 6 0.000000 0.000000 0.000000 0.004302 0.000000 0.030240
#
#
# Mechanical properties :
#
#
# Convention : Reuss Voigt Hill
#
# Bulk Modulus (GPa) = 35.69452 39.99597 37.84524
# Shear Modulus (GPa) = 30.75476 32.91473 31.83475
#
# Velocity S-wave (km/s) = 3.68623 3.81348 3.75040
# Velocity P-wave (km/s) = 5.82139 6.08782 5.95609
#
# Compressibility (1/GPa) = 0.02801551
#
# Stress axis : x y z
#
# Youngs Moduli (GPa) = 105.12967 52.03706 73.97427
#
# Poissons Ratio (x) = 0.25747 0.05058
# Poissons Ratio (y) = 0.52017 0.10981
# Poissons Ratio (z) = 0.07188 0.07724
#
# Static dielectric constant tensor:
#      x y z
#    x 1.981530 0.000000 -0.049830 
#    y 0.000000 1.935880 0.000000 
#    z -0.049830 0.000000 1.965750 
# 
# From -- ./inp_files/199300.got.cif
#   From: 2010.05.17/outbox.cif.g08.bks.cpg/sg15_100_cif.got.tgz:199300.got - 2010.06.03 18:47:42.
