data_PCOD9269834
_publ_section_title
;
Structure prediction by ZEFSAII (Michael W. Deem and Ramdas Pophale) SiO2 
 PCOD9269834
Probable space group: C 2/C
;
_chemical_formula_sum "Si O2"
_cell_formula_units_Z 60
_cell_length_a 14.484784
_cell_length_b 23.786260
_cell_length_c 12.265844
_cell_angle_alpha 90.000000
_cell_angle_beta 127.782697
_cell_angle_gamma 90.000000
_cell_volume 3340.024277
_symmetry_space_group_name_H-M "C 2/C"
_symmetry_group_IT_number 15
_symmetry_cell_setting 'monoclinic'
loop_
_space_group_symop_operation_xyz
x,y,z
-x,y,1/2-z
-x,-y,-z
x,-y,1/2+z
1/2+x,1/2+y,z
1/2-x,1/2+y,1/2-z
1/2-x,1/2-y,-z
1/2+x,1/2-y,1/2+z
loop_
_atom_site_type_symbol
_atom_site_label
_atom_site_fract_x
_atom_site_fract_y
_atom_site_fract_z
Si Si1 0.241660 0.452180 0.998086
Si Si2 0.529383 0.876612 0.522828
Si Si3 0.000000 0.403600 0.750000
Si Si4 0.282768 0.918592 0.285442
Si Si5 0.721942 0.424045 0.880580
Si Si6 0.705403 0.665265 0.544482
Si Si7 0.372714 0.474909 0.892579
Si Si8 0.924837 0.727312 0.589794
O O1 0.259243 0.415824 0.119770
O O2 0.251612 0.516756 0.042353
O O3 0.115192 0.440079 0.856049
O O4 0.336136 0.441859 0.973822
O O5 0.519461 0.872441 0.647388
O O6 0.423893 0.915888 0.400354
O O7 0.655271 0.901773 0.580399
O O8 0.518677 0.816897 0.453245
O O9 0.243226 0.867854 0.179786
O O10 0.224536 0.975615 0.196270
O O11 0.635541 0.436301 0.719105
O O12 0.669396 0.381496 0.930244
O O13 0.815283 0.694893 0.564759
O O14 0.614847 0.715405 0.496362
O O15 0.500000 0.500000 0.000000
O O16 0.000000 0.741978 0.750000
#
# Coordination Sequence:
#
# PCOD9269834 Si02
#       8
#     8   8   4   8   8   8   8   8
#     4  10  21  34  56  87 116 156 190 235 280 356
#     4  10  20  36  59  85 116 148 191 254 295 341
#     4  10  20  34  62  88 120 146 194 234 300 344
#     4  10  21  35  57  84 119 154 187 236 297 338
#     4  10  21  34  57  85 117 153 196 235 290 341
#     4  10  20  36  56  86 114 147 192 244 293 352
#     4  11  23  38  54  82 125 165 195 226 275 361
#     4  10  20  35  59  83 113 146 192 246 303 338
#
# _framework density 17.963941999999999
#
# number of rings (size 3 to 8) (size 9 to 14) (size 15 to 20)
#    0.000    1.867    4.000    0.000    1.867    4.800 
#    0.000    0.000    0.000    6.400    0.000    0.000 
#    0.000    0.000    0.000    0.000    0.000    0.000 
#
# Total GULP energy -167234.236653 kJ/mol
# GULP energy per Si atom -5574.474555 kJ/mol
# Density = 1.792306 g / cm^3
# Si number density = 17.963942 Si / 1000 Ang^3
#
#
#
# Elastic Constant Matrix: (Units=GPa)
#
#
# Indices 1 2 3 4 5 6 
#
# 1 51.0510 7.8850 35.1936 0.0000 -10.7229 0.0000
# 2 7.8850 56.7328 28.2960 0.0000 -7.5353 0.0000
# 3 35.1936 28.2960 102.1123 0.0000 -18.9993 0.0000
# 4 0.0000 0.0000 0.0000 27.9772 0.0000 3.3336
# 5 -10.7229 -7.5353 -18.9993 0.0000 26.1576 0.0000
# 6 0.0000 0.0000 0.0000 3.3336 0.0000 17.1766
#
#
#
# Elastic Compliance Matrix: (Units=1/GPa)
#
#
# Indices 1 2 3 4 5 6 
#
# 1 0.026286 0.001235 -0.008476 0.000000 0.004975 0.000000
# 2 0.001235 0.020607 -0.005709 0.000000 0.002296 0.000000
# 3 -0.008476 -0.005709 0.015429 0.000000 0.006088 0.000000
# 4 0.000000 0.000000 0.000000 0.036590 0.000000 -0.007101
# 5 0.004975 0.002296 0.006088 0.000000 0.045352 0.000000
# 6 0.000000 0.000000 0.000000 -0.007101 0.000000 0.059597
#
#
# Mechanical properties :
#
#
# Convention : Reuss Voigt Hill
#
# Bulk Modulus (GPa) = 27.45594 39.18281 33.31938
# Shear Modulus (GPa) = 20.66961 23.49705 22.08333
#
# Velocity S-wave (km/s) = 3.39575 3.62057 3.50996
# Velocity P-wave (km/s) = 5.54003 6.27195 5.91732
#
# Compressibility (1/GPa) = 0.03642199
#
# Stress axis : x y z
#
# Youngs Moduli (GPa) = 38.04356 48.52689 64.81268
#
# Poissons Ratio (x) = -0.05993 0.54936
# Poissons Ratio (y) = -0.04698 0.37000
# Poissons Ratio (z) = 0.32246 0.27703
#
# Static dielectric constant tensor:
#      x y z
#    x 1.636150 0.000000 0.005280 
#    y 0.000000 1.605870 0.000000 
#    z 0.005280 0.000000 1.648130 
# 
# From -- ./inp_files/100978.got.cif
#   From: 2010.05.17/outbox.cif.g08.bks.cpg/sg15_51_cif.got.tgz:100978.got - 2010.06.03 18:47:42.
