data_PCOD9269259
_publ_section_title
;
Structure prediction by ZEFSAII (Michael W. Deem and Ramdas Pophale) SiO2 
 PCOD9269259
Probable space group: C 2/C
;
_chemical_formula_sum "Si O2"
_cell_formula_units_Z 52
_cell_length_a 23.073133
_cell_length_b 11.979062
_cell_length_c 8.438198
_cell_angle_alpha 90.000000
_cell_angle_beta 57.432620
_cell_angle_gamma 90.000000
_cell_volume 1965.542738
_symmetry_space_group_name_H-M "C 2/C"
_symmetry_group_IT_number 15
_symmetry_cell_setting 'monoclinic'
loop_
_space_group_symop_operation_xyz
x,y,z
-x,y,1/2-z
-x,-y,-z
x,-y,1/2+z
1/2+x,1/2+y,z
1/2-x,1/2+y,1/2-z
1/2-x,1/2-y,-z
1/2+x,1/2-y,1/2+z
loop_
_atom_site_type_symbol
_atom_site_label
_atom_site_fract_x
_atom_site_fract_y
_atom_site_fract_z
Si Si1 0.000000 0.335988 0.250000
Si Si2 0.075281 0.843046 0.781528
Si Si3 0.122354 0.526470 0.418507
Si Si4 0.297688 0.219989 0.076584
Si Si5 0.675098 0.347531 0.176216
Si Si6 0.418374 0.156112 0.331851
Si Si7 0.376759 0.528720 0.000685
O O1 0.013863 0.244973 0.367684
O O2 0.057579 0.417627 0.102074
O O3 0.131896 0.775548 0.594938
O O4 0.072570 0.961603 0.692422
O O5 0.092428 0.874635 0.935067
O O6 0.186375 0.591793 0.403224
O O7 0.106959 0.563920 0.262077
O O8 0.118275 0.394781 0.456374
O O9 0.277204 0.274876 0.277489
O O10 0.250000 0.250000 0.000000
O O11 0.616146 0.265427 0.194625
O O12 0.647803 0.437977 0.339335
O O13 0.687665 0.424944 0.005688
O O14 0.500000 0.162626 0.250000
#
# Coordination Sequence:
#
# PCOD9269259 Si02
#       7
#     4   8   8   8   8   8   8
#     4  10  20  34  54  80 112 154 194 238 288 362
#     4   9  19  33  56  80 113 151 193 240 302 348
#     4  10  22  37  56  84 118 153 197 235 299 361
#     4   9  19  40  62  84 115 151 199 254 298 354
#     4   9  20  37  58  84 117 155 203 246 304 361
#     4  11  22  36  56  86 122 160 194 244 301 361
#     4   9  18  38  53  81 116 150 197 246 293 361
#
# _framework density 26.455798000000001
#
# number of rings (size 3 to 8) (size 9 to 14) (size 15 to 20)
#    0.000    2.462    0.769    1.385    2.154    1.846 
#    5.538   13.077    0.000    0.000    0.000    0.000 
#    0.000    0.000    0.000    0.000    0.000    0.000 
#
# Total GULP energy -145069.144421 kJ/mol
# GULP energy per Si atom -5579.582478 kJ/mol
# Density = 2.639558 g / cm^3
# Si number density = 26.455798 Si / 1000 Ang^3
#
#
#
# Elastic Constant Matrix: (Units=GPa)
#
#
# Indices 1 2 3 4 5 6 
#
# 1 87.5453 39.4709 32.2239 0.0000 22.4697 0.0000
# 2 39.4709 115.1697 38.1941 0.0000 21.6998 0.0000
# 3 32.2239 38.1941 98.4088 0.0000 35.3244 0.0000
# 4 0.0000 0.0000 0.0000 15.1848 0.0000 3.8973
# 5 22.4697 21.6998 35.3244 0.0000 38.9140 0.0000
# 6 0.0000 0.0000 0.0000 3.8973 0.0000 34.1653
#
#
#
# Elastic Compliance Matrix: (Units=1/GPa)
#
#
# Indices 1 2 3 4 5 6 
#
# 1 0.014981 -0.003617 -0.001662 0.000000 -0.005124 0.000000
# 2 -0.003617 0.011087 -0.002446 0.000000 -0.001873 0.000000
# 3 -0.001662 -0.002446 0.016051 0.000000 -0.012247 0.000000
# 4 0.000000 0.000000 0.000000 0.067842 0.000000 -0.007739
# 5 -0.005124 -0.001873 -0.012247 0.000000 0.040818 0.000000
# 6 0.000000 0.000000 0.000000 -0.007739 0.000000 0.030152
#
#
# Mechanical properties :
#
#
# Convention : Reuss Voigt Hill
#
# Bulk Modulus (GPa) = 37.49862 57.87795 47.68828
# Shear Modulus (GPa) = 24.35801 30.40181 27.37991
#
# Velocity S-wave (km/s) = 3.03761 3.39360 3.22052
# Velocity P-wave (km/s) = 5.14855 6.10574 5.64746
#
# Compressibility (1/GPa) = 0.02666765
#
# Stress axis : x y z
#
# Youngs Moduli (GPa) = 66.75301 90.19788 62.29973
#
# Poissons Ratio (x) = 0.32629 0.10354
# Poissons Ratio (y) = 0.24148 0.15239
# Poissons Ratio (z) = 0.11095 0.22063
#
# Static dielectric constant tensor:
#      x y z
#    x 2.287760 0.000000 -0.021250 
#    y 0.000000 2.144200 0.000000 
#    z -0.021250 0.000000 2.127910 
# 
# From -- ./inp_files/65135.got.cif
#   From: 2010.05.17/outbox.cif.g08.bks.cpg/sg15_33_cif.got.tgz:65135.got - 2010.06.03 18:47:42.
