data_PCOD9269885
_publ_section_title
;
Structure prediction by ZEFSAII (Michael W. Deem and Ramdas Pophale) SiO2 
 PCOD9269885
Probable space group: C 2/C
;
_chemical_formula_sum "Si O2"
_cell_formula_units_Z 64
_cell_length_a 8.704576
_cell_length_b 23.320001
_cell_length_c 30.560500
_cell_angle_alpha 90.000000
_cell_angle_beta 151.223407
_cell_angle_gamma 90.000000
_cell_volume 2986.336838
_symmetry_space_group_name_H-M "C 2/C"
_symmetry_group_IT_number 15
_symmetry_cell_setting 'monoclinic'
loop_
_space_group_symop_operation_xyz
x,y,z
-x,y,1/2-z
-x,-y,-z
x,-y,1/2+z
1/2+x,1/2+y,z
1/2-x,1/2+y,1/2-z
1/2-x,1/2-y,-z
1/2+x,1/2-y,1/2+z
loop_
_atom_site_type_symbol
_atom_site_label
_atom_site_fract_x
_atom_site_fract_y
_atom_site_fract_z
Si Si1 0.770034 0.705936 0.788811
Si Si2 0.688058 0.413742 0.148298
Si Si3 0.721223 0.099931 0.144929
Si Si4 0.513198 0.567514 0.996688
Si Si5 0.215037 0.988063 0.395418
Si Si6 0.328888 0.687893 0.594365
Si Si7 0.260350 0.229138 0.354650
Si Si8 0.491196 0.876039 0.075972
O O1 0.500000 0.740089 0.750000
O O2 0.581504 0.688526 0.697915
O O3 0.091438 0.736121 0.851760
O O4 0.864741 0.654574 0.845034
O O5 0.700955 0.422890 0.100247
O O6 0.583695 0.469253 0.149740
O O7 0.413617 0.367031 0.086620
O O8 0.000000 0.390809 0.250000
O O9 0.692615 0.163986 0.118676
O O10 0.000000 0.103204 0.250000
O O11 0.818575 0.046945 0.138734
O O12 0.375478 0.085297 0.078409
O O13 0.355754 0.601712 0.997212
O O14 0.500000 0.500000 0.000000
O O15 0.311478 0.933125 0.389372
O O16 0.500000 0.000000 0.500000
O O17 0.423026 0.742172 0.587987
O O18 0.010732 0.670852 0.541620
O O19 0.000000 0.229633 0.250000
#
# Coordination Sequence:
#
# PCOD9269885 Si02
#       8
#     8   8   8   8   8   8   8   8
#     4   9  17  33  62  96 129 159 207 272 315 357
#     4  11  22  35  64  95 121 158 205 259 325 377
#     4  11  25  42  67  89 122 179 218 246 312 407
#     4  12  23  41  61  91 130 163 206 270 322 373
#     4  11  22  43  62  87 130 165 203 265 321 376
#     4   9  18  34  60  93 126 159 206 260 318 374
#     4   9  18  38  62  87 127 170 209 253 317 386
#     4  10  20  34  64  91 120 158 208 263 332 360
#
# _framework density 21.430938999999999
#
# number of rings (size 3 to 8) (size 9 to 14) (size 15 to 20)
#    0.000    1.750    2.500    2.625    1.750    3.500 
#    0.000    3.750   13.750    0.000    0.000    0.000 
#    0.000    0.000    0.000    0.000    0.000    0.000 
#
# Total GULP energy -178507.245736 kJ/mol
# GULP energy per Si atom -5578.351429 kJ/mol
# Density = 2.138216 g / cm^3
# Si number density = 21.430939 Si / 1000 Ang^3
#
#
#
# Elastic Constant Matrix: (Units=GPa)
#
#
# Indices 1 2 3 4 5 6 
#
# 1 126.2160 60.8284 29.3116 0.0126 6.9162 0.0056
# 2 60.8284 123.3900 14.8183 0.0050 -7.5959 0.0003
# 3 29.3116 14.8183 61.5537 -0.0045 -5.2765 0.0142
# 4 0.0126 0.0050 -0.0045 11.2387 0.0208 4.0430
# 5 6.9162 -7.5959 -5.2765 0.0208 34.2791 0.0099
# 6 0.0056 0.0003 0.0142 4.0430 0.0099 26.0178
#
#
#
# Elastic Compliance Matrix: (Units=1/GPa)
#
#
# Indices 1 2 3 4 5 6 
#
# 1 0.011957 -0.005597 -0.004722 -0.000006 -0.004379 0.000003
# 2 -0.005597 0.011049 0.000316 -0.000005 0.003626 0.000000
# 3 -0.004722 0.000316 0.018753 0.000010 0.003909 -0.000012
# 4 -0.000006 -0.000005 0.000010 0.094247 -0.000052 -0.014645
# 5 -0.004379 0.003626 0.003909 -0.000052 0.031461 -0.000005
# 6 0.000003 0.000000 -0.000012 -0.014645 -0.000005 0.040711
#
#
# Mechanical properties :
#
#
# Convention : Reuss Voigt Hill
#
# Bulk Modulus (GPa) = 45.96848 57.89736 51.93292
# Shear Modulus (GPa) = 21.23732 28.05389 24.64560
#
# Velocity S-wave (km/s) = 3.15138 3.62199 3.39485
# Velocity P-wave (km/s) = 5.89387 6.67579 6.29698
#
# Compressibility (1/GPa) = 0.02175404
#
# Stress axis : x y z
#
# Youngs Moduli (GPa) = 83.63385 90.50737 53.32342
#
# Poissons Ratio (x) = 0.50657 0.25178
# Poissons Ratio (y) = 0.46810 -0.01686
# Poissons Ratio (z) = 0.39490 -0.02862
#
# Static dielectric constant tensor:
#      x y z
#    x 1.783750 0.000100 0.026580 
#    y 0.000100 2.498270 -0.001250 
#    z 0.026580 -0.001250 1.810790 
# 
# From -- ./inp_files/309146.got.cif
#   From: 2010.05.17/outbox.cif.g08.bks.cpg/sg15_155_cif.got.tgz:309146.got - 2010.06.03 18:47:42.
