data_PCOD9269047
_publ_section_title
;
Structure prediction by ZEFSAII (Michael W. Deem and Ramdas Pophale) SiO2 
 PCOD9269047
Probable space group: C 2/C
;
_chemical_formula_sum "Si O2"
_cell_formula_units_Z 48
_cell_length_a 15.014950
_cell_length_b 22.854204
_cell_length_c 5.825927
_cell_angle_alpha 90.000000
_cell_angle_beta 71.673759
_cell_angle_gamma 90.000000
_cell_volume 1897.798411
_symmetry_space_group_name_H-M "C 2/C"
_symmetry_group_IT_number 15
_symmetry_cell_setting 'monoclinic'
loop_
_space_group_symop_operation_xyz
x,y,z
-x,y,1/2-z
-x,-y,-z
x,-y,1/2+z
1/2+x,1/2+y,z
1/2-x,1/2+y,1/2-z
1/2-x,1/2-y,-z
1/2+x,1/2-y,1/2+z
loop_
_atom_site_type_symbol
_atom_site_label
_atom_site_fract_x
_atom_site_fract_y
_atom_site_fract_z
Si Si1 0.466097 0.067405 0.528243
Si Si2 0.734165 0.832492 0.812664
Si Si3 0.103680 0.976886 0.032460
Si Si4 0.140392 0.859628 0.169499
Si Si5 0.762265 0.438742 0.380734
Si Si6 0.097770 0.232382 0.043682
O O1 0.500000 0.092916 0.750000
O O2 0.354088 0.063643 0.650431
O O3 0.500000 0.000000 0.500000
O O4 0.500000 0.091875 0.250000
O O5 0.767570 0.833158 0.524422
O O6 0.822643 0.801017 0.868900
O O7 0.717437 0.898594 0.913230
O O8 0.644260 0.793424 0.935667
O O9 0.093909 0.906361 0.034991
O O10 0.071894 0.999465 0.310211
O O11 0.213676 0.998770 0.958501
O O12 0.177902 0.902249 0.335846
O O13 0.084451 0.808298 0.332177
O O14 0.000000 0.238806 0.250000
#
# Coordination Sequence:
#
# PCOD9269047 Si02
#       6
#     8   8   8   8   8   8
#     4  10  24  34  51  81 130 182 223 274 325 403
#     4  10  21  42  68  96 129 176 226 287 348 415
#     4  10  20  33  62  94 130 172 221 270 335 404
#     4  10  21  37  66  93 128 174 228 279 340 412
#     4  10  22  37  59  91 130 174 226 276 338 414
#     4  10  23  43  66  97 132 172 231 295 350 409
#
# _framework density 25.292466999999998
#
# number of rings (size 3 to 8) (size 9 to 14) (size 15 to 20)
#    0.000    2.000    1.667    0.500   11.667    1.333 
#    0.000    0.000    0.000    9.000    0.000    0.000 
#    0.000    0.000    0.000    0.000    0.000    0.000 
#
# Total GULP energy -134056.548818 kJ/mol
# GULP energy per Si atom -5585.689534 kJ/mol
# Density = 2.523490 g / cm^3
# Si number density = 25.292467 Si / 1000 Ang^3
#
#
#
# Elastic Constant Matrix: (Units=GPa)
#
#
# Indices 1 2 3 4 5 6 
#
# 1 101.4169 34.9806 66.4456 0.0000 -5.1963 0.0000
# 2 34.9806 127.9163 64.2200 0.0000 -12.4192 0.0000
# 3 66.4456 64.2200 216.6561 0.0000 -29.5559 0.0000
# 4 0.0000 0.0000 0.0000 53.5349 0.0000 -27.4159
# 5 -5.1963 -12.4192 -29.5559 0.0000 44.3134 0.0000
# 6 0.0000 0.0000 0.0000 -27.4159 0.0000 44.0423
#
#
#
# Elastic Compliance Matrix: (Units=1/GPa)
#
#
# Indices 1 2 3 4 5 6 
#
# 1 0.012753 -0.001837 -0.003556 0.000000 -0.001391 0.000000
# 2 -0.001837 0.009477 -0.002104 0.000000 0.001037 0.000000
# 3 -0.003556 -0.002104 0.006813 0.000000 0.003537 0.000000
# 4 0.000000 0.000000 0.000000 0.027421 0.000000 0.017069
# 5 -0.001391 0.001037 0.003537 0.000000 0.025053 0.000000
# 6 0.000000 0.000000 0.000000 0.017069 0.000000 0.033331
#
#
# Mechanical properties :
#
#
# Convention : Reuss Voigt Hill
#
# Bulk Modulus (GPa) = 71.18970 86.36461 78.77716
# Shear Modulus (GPa) = 37.16797 47.06769 42.11783
#
# Velocity S-wave (km/s) = 3.83760 4.31854 4.08515
# Velocity P-wave (km/s) = 6.91693 7.68680 7.31200
#
# Compressibility (1/GPa) = 0.01404698
#
# Stress axis : x y z
#
# Youngs Moduli (GPa) = 78.41507 105.51734 146.78778
#
# Poissons Ratio (x) = 0.19384 0.52203
# Poissons Ratio (y) = 0.14405 0.30888
# Poissons Ratio (z) = 0.27887 0.22204
#
# Static dielectric constant tensor:
#      x y z
#    x 2.096530 0.000000 0.011380 
#    y 0.000000 1.957480 0.000000 
#    z 0.011380 0.000000 2.060570 
# 
# From -- ./inp_files/13818.got.cif
#   From: 2010.05.17/outbox.cif.g08.bks.cpg/sg15_7_cif.got.tgz:13818.got - 2010.06.03 18:47:42.
