data_PCOD9269646
_publ_section_title
;
Structure prediction by ZEFSAII (Michael W. Deem and Ramdas Pophale) SiO2 
 PCOD9269646
Probable space group: C 2/C
;
_chemical_formula_sum "Si O2"
_cell_formula_units_Z 48
_cell_length_a 11.852866
_cell_length_b 9.383712
_cell_length_c 23.207882
_cell_angle_alpha 90.000000
_cell_angle_beta 64.274814
_cell_angle_gamma 90.000000
_cell_volume 2325.431432
_symmetry_space_group_name_H-M "C 2/C"
_symmetry_group_IT_number 15
_symmetry_cell_setting 'monoclinic'
loop_
_space_group_symop_operation_xyz
x,y,z
-x,y,1/2-z
-x,-y,-z
x,-y,1/2+z
1/2+x,1/2+y,z
1/2-x,1/2+y,1/2-z
1/2-x,1/2-y,-z
1/2+x,1/2-y,1/2+z
loop_
_atom_site_type_symbol
_atom_site_label
_atom_site_fract_x
_atom_site_fract_y
_atom_site_fract_z
Si Si1 0.922735 0.232171 0.110685
Si Si2 0.346248 0.957134 0.601178
Si Si3 0.243430 0.486646 0.122529
Si Si4 0.255613 0.579044 0.995368
Si Si5 0.100097 0.780344 0.679367
Si Si6 0.509912 0.310854 0.459745
O O1 0.878372 0.395779 0.125514
O O2 0.803959 0.123819 0.140307
O O3 0.028968 0.204439 0.134187
O O4 0.975631 0.213691 0.034045
O O5 0.223445 0.878931 0.653476
O O6 0.461750 0.845666 0.572853
O O7 0.307857 0.003591 0.544383
O O8 0.145703 0.384286 0.175539
O O9 0.359919 0.386460 0.080492
O O10 0.200239 0.527581 0.067967
O O11 0.407148 0.577122 0.958705
O O12 0.250000 0.750000 0.000000
O O13 0.000000 0.817693 0.750000
#
# Coordination Sequence:
#
# PCOD9269646 Si02
#       6
#     8   8   8   8   8   8
#     4  11  21  37  62  85 119 150 192 239 296 347
#     4  11  22  37  61  90 118 154 190 235 296 351
#     4  10  21  38  59  87 119 154 189 235 296 351
#     4  11  19  32  60  94 123 139 179 233 299 365
#     4  11  26  43  58  80 116 161 209 245 273 325
#     4  10  20  34  58  92 124 148 179 234 302 364
#
# _framework density 20.641331000000001
#
# number of rings (size 3 to 8) (size 9 to 14) (size 15 to 20)
#    0.000    1.333    3.333    5.500    2.333    4.000 
#    0.000    0.833    0.000    0.000    0.000    0.000 
#    0.000    0.000    0.000    0.000    0.000    0.000 
#
# Total GULP energy -133909.054685 kJ/mol
# GULP energy per Si atom -5579.543945 kJ/mol
# Density = 2.059435 g / cm^3
# Si number density = 20.641331 Si / 1000 Ang^3
#
#
#
# Elastic Constant Matrix: (Units=GPa)
#
#
# Indices 1 2 3 4 5 6 
#
# 1 75.6644 17.3775 13.3068 0.0000 -3.9903 0.0000
# 2 17.3775 123.7146 15.5846 0.0000 -9.4231 0.0000
# 3 13.3068 15.5846 29.1052 0.0000 -15.9115 0.0000
# 4 0.0000 0.0000 0.0000 14.1832 0.0000 -7.4477
# 5 -3.9903 -9.4231 -15.9115 0.0000 17.9026 0.0000
# 6 0.0000 0.0000 0.0000 -7.4477 0.0000 38.7959
#
#
#
# Elastic Compliance Matrix: (Units=1/GPa)
#
#
# Indices 1 2 3 4 5 6 
#
# 1 0.014828 -0.001360 -0.009017 0.000000 -0.005425 0.000000
# 2 -0.001360 0.008799 -0.003352 0.000000 0.001349 0.000000
# 3 -0.009017 -0.003352 0.074326 0.000000 0.062285 0.000000
# 4 0.000000 0.000000 0.000000 0.078410 0.000000 0.015052
# 5 -0.005425 0.001349 0.062285 0.000000 0.110717 0.000000
# 6 0.000000 0.000000 0.000000 0.015052 0.000000 0.028666
#
#
# Mechanical properties :
#
#
# Convention : Reuss Voigt Hill
#
# Bulk Modulus (GPa) = 14.18537 35.66910 24.92724
# Shear Modulus (GPa) = 13.63502 26.32404 19.97953
#
# Velocity S-wave (km/s) = 2.57294 3.57502 3.11455
# Velocity P-wave (km/s) = 3.96408 5.86165 5.00364
#
# Compressibility (1/GPa) = 0.07049516
#
# Stress axis : x y z
#
# Youngs Moduli (GPa) = 67.43862 113.64649 13.45419
#
# Poissons Ratio (x) = 0.15458 0.12131
# Poissons Ratio (y) = 0.09173 0.04510
# Poissons Ratio (z) = 0.60808 0.38098
#
# Static dielectric constant tensor:
#      x y z
#    x 1.950700 0.000000 -0.072570 
#    y 0.000000 1.823530 0.000000 
#    z -0.072570 0.000000 1.696820 
# 
# From -- ./inp_files/267730.got.cif
#   From: 2010.05.17/outbox.cif.g08.bks.cpg/sg15_134_cif.got.tgz:267730.got - 2010.06.03 18:47:42.
