data_PCOD9269991
_publ_section_title
;
Structure prediction by ZEFSAII (Michael W. Deem and Ramdas Pophale) SiO2 
 PCOD9269991
Probable space group: C 2/C
;
_chemical_formula_sum "Si O2"
_cell_formula_units_Z 40
_cell_length_a 11.613860
_cell_length_b 10.215301
_cell_length_c 17.424458
_cell_angle_alpha 90.000000
_cell_angle_beta 114.154176
_cell_angle_gamma 90.000000
_cell_volume 1886.231529
_symmetry_space_group_name_H-M "C 2/C"
_symmetry_group_IT_number 15
_symmetry_cell_setting 'monoclinic'
loop_
_space_group_symop_operation_xyz
x,y,z
-x,y,1/2-z
-x,-y,-z
x,-y,1/2+z
1/2+x,1/2+y,z
1/2-x,1/2+y,1/2-z
1/2-x,1/2-y,-z
1/2+x,1/2-y,1/2+z
loop_
_atom_site_type_symbol
_atom_site_label
_atom_site_fract_x
_atom_site_fract_y
_atom_site_fract_z
Si Si1 0.344833 0.859855 0.418279
Si Si2 0.551993 0.583602 0.083838
Si Si3 0.818112 0.789648 0.617178
Si Si4 0.860693 0.004014 0.740852
Si Si5 0.874096 0.565270 0.539192
O O1 0.368528 0.706646 0.423861
O O2 0.236827 0.905448 0.330721
O O3 0.475683 0.925021 0.424163
O O4 0.327352 0.924187 0.497875
O O5 0.432759 0.642988 0.099646
O O6 0.631843 0.498602 0.165994
O O7 0.500000 0.500000 0.000000
O O8 0.831602 0.635474 0.605943
O O9 0.689181 0.840402 0.543177
O O10 0.831896 0.854630 0.703939
O O11 0.000000 0.039862 0.750000
#
# Coordination Sequence:
#
# PCOD9269991 Si02
#       5
#     8   8   8   8   8
#     4   9  17  32  53  81 111 137 182 238 282 326
#     4  10  20  35  53  80 109 153 189 220 285 353
#     4   8  15  31  56  79 103 141 188 227 276 336
#     4   9  18  35  54  77 109 153 194 229 278 340
#     4   8  14  29  54  83 102 130 180 240 280 317
#
# _framework density 21.206305
#
# number of rings (size 3 to 8) (size 9 to 14) (size 15 to 20)
#    0.000    3.200    0.000    0.000    0.000    0.000 
#   21.600    9.000    0.000    0.000    0.000    0.000 
#    0.000    0.000    0.000    0.000    0.000    0.200 
#
# Total GULP energy -111511.540661 kJ/mol
# GULP energy per Si atom -5575.577033 kJ/mol
# Density = 2.115804 g / cm^3
# Si number density = 21.206305 Si / 1000 Ang^3
#
#
#
# Elastic Constant Matrix: (Units=GPa)
#
#
# Indices 1 2 3 4 5 6 
#
# 1 67.1522 34.9062 46.7601 0.0000 20.8393 0.0000
# 2 34.9062 108.8646 70.0915 0.0000 -1.9427 0.0000
# 3 46.7601 70.0915 153.9374 0.0000 18.4303 0.0000
# 4 0.0000 0.0000 0.0000 26.2532 0.0000 -1.2513
# 5 20.8393 -1.9427 18.4303 0.0000 41.8017 0.0000
# 6 0.0000 0.0000 0.0000 -1.2513 0.0000 28.6050
#
#
#
# Elastic Compliance Matrix: (Units=1/GPa)
#
#
# Indices 1 2 3 4 5 6 
#
# 1 0.023303 -0.005521 -0.003318 0.000000 -0.010411 0.000000
# 2 -0.005521 0.014776 -0.005767 0.000000 0.005982 0.000000
# 3 -0.003318 -0.005767 0.010519 0.000000 -0.003252 0.000000
# 4 0.000000 0.000000 0.000000 0.038170 0.000000 0.001670
# 5 -0.010411 0.005982 -0.003252 0.000000 0.030824 0.000000
# 6 0.000000 0.000000 0.000000 0.001670 0.000000 0.035032
#
#
# Mechanical properties :
#
#
# Convention : Reuss Voigt Hill
#
# Bulk Modulus (GPa) = 51.58523 70.38552 60.98538
# Shear Modulus (GPa) = 26.55367 31.21172 28.88270
#
# Velocity S-wave (km/s) = 3.54243 3.84058 3.69451
# Velocity P-wave (km/s) = 6.41170 7.27528 6.85710
#
# Compressibility (1/GPa) = 0.01938539
#
# Stress axis : x y z
#
# Youngs Moduli (GPa) = 42.91343 67.67882 95.06506
#
# Poissons Ratio (x) = 0.37367 0.31543
# Poissons Ratio (y) = 0.23694 0.54822
# Poissons Ratio (z) = 0.14239 0.39029
#
# Static dielectric constant tensor:
#      x y z
#    x 1.823610 0.000000 -0.030300 
#    y 0.000000 1.933100 0.000000 
#    z -0.030300 0.000000 1.773510 
# 
# From -- ./inp_files/203699.got.cif
#   From: 2010.05.17/outbox.cif.g08.bks.cpg/sg15_102_cif.got.tgz:203699.got - 2010.06.03 18:47:42.
