data_PCOD9269526
_publ_section_title
;
Structure prediction by ZEFSAII (Michael W. Deem and Ramdas Pophale) SiO2 
 PCOD9269526
Probable space group: C 2/C
;
_chemical_formula_sum "Si O2"
_cell_formula_units_Z 48
_cell_length_a 22.082703
_cell_length_b 16.220812
_cell_length_c 13.868047
_cell_angle_alpha 90.000000
_cell_angle_beta 28.601660
_cell_angle_gamma 90.000000
_cell_volume 2378.040491
_symmetry_space_group_name_H-M "C 2/C"
_symmetry_group_IT_number 15
_symmetry_cell_setting 'monoclinic'
loop_
_space_group_symop_operation_xyz
x,y,z
-x,y,1/2-z
-x,-y,-z
x,-y,1/2+z
1/2+x,1/2+y,z
1/2-x,1/2+y,1/2-z
1/2-x,1/2-y,-z
1/2+x,1/2-y,1/2+z
loop_
_atom_site_type_symbol
_atom_site_label
_atom_site_fract_x
_atom_site_fract_y
_atom_site_fract_z
Si Si1 0.867495 0.498239 0.559259
Si Si2 0.810017 0.655048 0.515173
Si Si3 0.847253 0.656391 0.966938
Si Si4 0.128806 0.572971 0.758883
Si Si5 0.059519 0.191954 0.764533
Si Si6 0.152778 0.733019 0.833086
O O1 0.855285 0.567601 0.493886
O O2 0.823012 0.410629 0.583787
O O3 0.802494 0.524753 0.750715
O O4 0.014996 0.483390 0.378940
O O5 0.898064 0.713687 0.325144
O O6 0.681515 0.647024 0.635077
O O7 0.792321 0.706902 0.639184
O O8 0.806951 0.610912 0.924818
O O9 0.000000 0.671378 0.750000
O O10 0.763628 0.734516 0.110046
O O11 0.085070 0.654776 0.878289
O O12 0.000000 0.156353 0.750000
O O13 0.953324 0.200142 0.994269
#
# Coordination Sequence:
#
# PCOD9269526 Si02
#       6
#     8   8   8   8   8   8
#     4   9  19  35  56  86 115 155 198 253 305 343
#     4   9  19  36  58  88 119 152 202 258 298 352
#     4  10  21  35  54  88 118 158 202 248 302 355
#     4   9  19  35  55  83 119 153 196 249 299 349
#     4   9  19  35  57  89 117 158 200 243 309 348
#     4  10  20  34  57  86 121 157 202 249 298 362
#
# _framework density 20.184685999999999
#
# number of rings (size 3 to 8) (size 9 to 14) (size 15 to 20)
#    0.000    2.667    0.000    0.500    4.667   11.333 
#    6.000    0.833    0.000    0.000    0.000    0.000 
#    0.000    0.000    0.000    0.000    0.000    0.000 
#
# Total GULP energy -133674.087623 kJ/mol
# GULP energy per Si atom -5569.753651 kJ/mol
# Density = 2.013875 g / cm^3
# Si number density = 20.184686 Si / 1000 Ang^3
#
#
#
# Elastic Constant Matrix: (Units=GPa)
#
#
# Indices 1 2 3 4 5 6 
#
# 1 111.2647 31.7184 33.6766 0.0000 -5.2353 0.0000
# 2 31.7184 67.0115 21.3318 0.0000 -7.5987 0.0000
# 3 33.6766 21.3318 73.5864 0.0000 3.5390 0.0000
# 4 0.0000 0.0000 0.0000 15.8212 0.0000 5.4507
# 5 -5.2353 -7.5987 3.5390 0.0000 22.9582 0.0000
# 6 0.0000 0.0000 0.0000 5.4507 0.0000 33.7887
#
#
#
# Elastic Compliance Matrix: (Units=1/GPa)
#
#
# Indices 1 2 3 4 5 6 
#
# 1 0.011458 -0.003854 -0.004222 0.000000 0.001988 0.000000
# 2 -0.003854 0.018668 -0.003932 0.000000 0.005906 0.000000
# 3 -0.004222 -0.003932 0.016896 0.000000 -0.004869 0.000000
# 4 0.000000 0.000000 0.000000 0.066926 0.000000 -0.010796
# 5 0.001988 0.005906 -0.004869 0.000000 0.046716 0.000000
# 6 0.000000 0.000000 0.000000 -0.010796 0.000000 0.031337
#
#
# Mechanical properties :
#
#
# Convention : Reuss Voigt Hill
#
# Bulk Modulus (GPa) = 43.46715 47.25734 45.36225
# Shear Modulus (GPa) = 22.35280 25.52266 23.93773
#
# Velocity S-wave (km/s) = 3.33139 3.55978 3.44748
# Velocity P-wave (km/s) = 6.03150 6.35290 6.19429
#
# Compressibility (1/GPa) = 0.02300588
#
# Stress axis : x y z
#
# Youngs Moduli (GPa) = 87.27836 53.56659 59.18672
#
# Poissons Ratio (x) = 0.20643 0.24989
# Poissons Ratio (y) = 0.33635 0.23273
# Poissons Ratio (z) = 0.36849 0.21063
#
# Static dielectric constant tensor:
#      x y z
#    x 1.761050 0.000000 0.018350 
#    y 0.000000 1.738650 0.000000 
#    z 0.018350 0.000000 1.742350 
# 
# From -- ./inp_files/173607.got.cif
#   From: 2010.05.17/outbox.cif.g08.bks.cpg/sg15_87_cif.got.tgz:173607.got - 2010.06.03 18:47:42.
