data_PCOD9269496
_publ_section_title
;
Structure prediction by ZEFSAII (Michael W. Deem and Ramdas Pophale) SiO2 
 PCOD9269496
Probable space group: C 2/C
;
_chemical_formula_sum "Si O2"
_cell_formula_units_Z 48
_cell_length_a 12.368503
_cell_length_b 22.044410
_cell_length_c 12.780690
_cell_angle_alpha 90.000000
_cell_angle_beta 130.466016
_cell_angle_gamma 90.000000
_cell_volume 2651.156157
_symmetry_space_group_name_H-M "C 2/C"
_symmetry_group_IT_number 15
_symmetry_cell_setting 'monoclinic'
loop_
_space_group_symop_operation_xyz
x,y,z
-x,y,1/2-z
-x,-y,-z
x,-y,1/2+z
1/2+x,1/2+y,z
1/2-x,1/2+y,1/2-z
1/2-x,1/2-y,-z
1/2+x,1/2-y,1/2+z
loop_
_atom_site_type_symbol
_atom_site_label
_atom_site_fract_x
_atom_site_fract_y
_atom_site_fract_z
Si Si1 0.044271 0.423828 0.117532
Si Si2 0.150608 0.078079 0.581419
Si Si3 0.321374 0.286296 0.447409
Si Si4 0.445495 0.784663 0.331491
Si Si5 0.409601 0.953342 0.591610
Si Si6 0.916639 0.042210 0.589256
O O1 0.203481 0.436802 0.263081
O O2 0.013132 0.354703 0.127681
O O3 0.936783 0.473643 0.097050
O O4 0.039551 0.429211 0.989095
O O5 0.172331 0.141397 0.534884
O O6 0.019069 0.081919 0.579624
O O7 0.107113 0.023429 0.478663
O O8 0.250000 0.250000 0.500000
O O9 0.476292 0.257536 0.537360
O O10 0.222970 0.277938 0.284041
O O11 0.500000 0.767123 0.250000
O O12 0.500000 0.934204 0.750000
O O13 0.244961 0.935708 0.499086
O O14 0.000000 0.035964 0.750000
#
# Coordination Sequence:
#
# PCOD9269496 Si02
#       6
#     8   8   8   8   8   8
#     4  10  20  34  57  80 110 147 189 229 285 335
#     4  10  21  37  55  84 118 152 186 233 289 345
#     4   9  19  34  55  79 108 143 181 228 281 328
#     4   9  18  34  54  78 106 140 174 231 279 331
#     4  11  21  35  55  81 109 146 189 233 275 342
#     4  11  22  36  56  82 118 152 189 229 289 347
#
# _framework density 18.105308000000001
#
# number of rings (size 3 to 8) (size 9 to 14) (size 15 to 20)
#    0.000    2.000    3.333    0.500    4.667    2.000 
#    3.000    0.000    0.000    2.000    0.000    0.000 
#    0.000    0.000    0.000    0.000    0.000    0.000 
#
# Total GULP energy -133663.801316 kJ/mol
# GULP energy per Si atom -5569.325055 kJ/mol
# Density = 1.806410 g / cm^3
# Si number density = 18.105308 Si / 1000 Ang^3
#
#
#
# Elastic Constant Matrix: (Units=GPa)
#
#
# Indices 1 2 3 4 5 6 
#
# 1 61.0718 -4.7153 22.6230 0.0000 1.3234 0.0000
# 2 -4.7153 52.5026 23.5909 0.0000 4.7967 0.0000
# 3 22.6230 23.5909 114.7953 0.0000 7.9276 0.0000
# 4 0.0000 0.0000 0.0000 24.5583 0.0000 3.1823
# 5 1.3234 4.7967 7.9276 0.0000 30.6926 0.0000
# 6 0.0000 0.0000 0.0000 3.1823 0.0000 18.9477
#
#
#
# Elastic Compliance Matrix: (Units=1/GPa)
#
#
# Indices 1 2 3 4 5 6 
#
# 1 0.018259 0.003604 -0.004323 0.000000 -0.000234 0.000000
# 2 0.003604 0.021843 -0.005042 0.000000 -0.002267 0.000000
# 3 -0.004323 -0.005042 0.010723 0.000000 -0.001795 0.000000
# 4 0.000000 0.000000 0.000000 0.041625 0.000000 -0.006991
# 5 -0.000234 -0.002267 -0.001795 0.000000 0.033409 0.000000
# 6 0.000000 0.000000 0.000000 -0.006991 0.000000 0.053951
#
#
# Mechanical properties :
#
#
# Convention : Reuss Voigt Hill
#
# Bulk Modulus (GPa) = 25.44409 34.59631 30.02020
# Shear Modulus (GPa) = 24.45768 27.29778 25.87773
#
# Velocity S-wave (km/s) = 3.67939 3.88715 3.78470
# Velocity P-wave (km/s) = 5.66872 6.26869 5.97624
#
# Compressibility (1/GPa) = 0.03930185
#
# Stress axis : x y z
#
# Youngs Moduli (GPa) = 54.76829 45.78100 93.25520
#
# Poissons Ratio (x) = -0.16497 0.40311
# Poissons Ratio (y) = -0.19736 0.47024
# Poissons Ratio (z) = 0.23675 0.23085
#
# Static dielectric constant tensor:
#      x y z
#    x 1.695320 0.000000 0.053110 
#    y 0.000000 1.607520 0.000000 
#    z 0.053110 0.000000 1.672340 
# 
# From -- ./inp_files/88756.got.cif
#   From: 2010.05.17/outbox.cif.g08.bks.cpg/sg15_45_cif.got.tgz:88756.got - 2010.06.03 18:47:42.
