data_PCOD9269404
_publ_section_title
;
Structure prediction by ZEFSAII (Michael W. Deem and Ramdas Pophale) SiO2 
 PCOD9269404
Probable space group: C 2/C
;
_chemical_formula_sum "Si O2"
_cell_formula_units_Z 44
_cell_length_a 16.919781
_cell_length_b 15.368872
_cell_length_c 8.468879
_cell_angle_alpha 90.000000
_cell_angle_beta 88.871132
_cell_angle_gamma 90.000000
_cell_volume 2201.802496
_symmetry_space_group_name_H-M "C 2/C"
_symmetry_group_IT_number 15
_symmetry_cell_setting 'monoclinic'
loop_
_space_group_symop_operation_xyz
x,y,z
-x,y,1/2-z
-x,-y,-z
x,-y,1/2+z
1/2+x,1/2+y,z
1/2-x,1/2+y,1/2-z
1/2-x,1/2-y,-z
1/2+x,1/2-y,1/2+z
loop_
_atom_site_type_symbol
_atom_site_label
_atom_site_fract_x
_atom_site_fract_y
_atom_site_fract_z
Si Si1 0.546195 0.885369 0.448345
Si Si2 0.500000 0.539904 0.750000
Si Si3 0.877018 0.461237 0.756895
Si Si4 0.393952 0.211696 0.832399
Si Si5 0.721313 0.903771 0.025370
Si Si6 0.094511 0.902281 0.541639
O O1 0.573043 0.901982 0.625020
O O2 0.595342 0.812197 0.351347
O O3 0.456881 0.852469 0.420942
O O4 0.569085 0.974583 0.353951
O O5 0.562324 0.477447 0.657948
O O6 0.456640 0.594362 0.616254
O O7 0.820405 0.408767 0.642779
O O8 0.819513 0.521649 0.865529
O O9 0.307247 0.184995 0.891627
O O10 0.413674 0.309598 0.873114
O O11 0.814048 0.915449 0.005442
#
# Coordination Sequence:
#
# PCOD9269404 Si02
#       6
#     8   4   8   8   8   8
#     4   9  19  34  53  82 115 147 177 209 255 318
#     4  10  24  40  64  74  96 142 186 234 266 314
#     4   9  19  34  55  84 112 145 181 208 256 318
#     4  10  21  34  54  80 114 144 169 220 270 314
#     4  10  20  34  56  81 112 143 173 222 265 313
#     4  11  22  42  57  80 103 136 186 226 274 319
#
# _framework density 19.983626999999998
#
# number of rings (size 3 to 8) (size 9 to 14) (size 15 to 20)
#    0.000    2.182    0.000    2.727    0.000   15.273 
#    0.000    0.909    0.000    0.000    0.000    0.000 
#    0.000    0.000    0.000    0.000    0.000    0.000 
#
# Total GULP energy -122864.809082 kJ/mol
# GULP energy per Si atom -5584.764049 kJ/mol
# Density = 1.993814 g / cm^3
# Si number density = 19.983627 Si / 1000 Ang^3
#
#
#
# Elastic Constant Matrix: (Units=GPa)
#
#
# Indices 1 2 3 4 5 6 
#
# 1 112.4096 12.1790 16.3790 0.0000 -17.9403 0.0000
# 2 12.1790 58.9291 19.8245 0.0000 -0.9782 0.0000
# 3 16.3790 19.8245 99.7504 0.0000 -0.3975 0.0000
# 4 0.0000 0.0000 0.0000 -8.0283 0.0000 -13.0087
# 5 -17.9403 -0.9782 -0.3975 0.0000 21.7583 0.0000
# 6 0.0000 0.0000 0.0000 -13.0087 0.0000 11.0325
#
#
#
# Elastic Compliance Matrix: (Units=1/GPa)
#
#
# Indices 1 2 3 4 5 6 
#
# 1 0.010659 -0.001588 -0.001400 0.000000 0.008692 0.000000
# 2 -0.001588 0.018434 -0.003405 0.000000 -0.000543 0.000000
# 3 -0.001400 -0.003405 0.010927 0.000000 -0.001108 0.000000
# 4 0.000000 0.000000 0.000000 -0.042795 0.000000 -0.050461
# 5 0.008692 -0.000543 -0.001108 0.000000 0.053082 0.000000
# 6 0.000000 0.000000 0.000000 -0.050461 0.000000 0.031142
#
#
# Mechanical properties :
#
#
# Convention : Reuss Voigt Hill
#
# Bulk Modulus (GPa) = 36.71750 40.87268 38.79509
# Shear Modulus (GPa) = 48.39666 19.79961 34.09814
#
# Velocity S-wave (km/s) = 4.92653 3.15110 4.13522
# Velocity P-wave (km/s) = 7.12563 5.80833 6.50044
#
# Compressibility (1/GPa) = 0.02723497
#
# Stress axis : x y z
#
# Youngs Moduli (GPa) = 93.81515 54.24701 91.51446
#
# Poissons Ratio (x) = 0.08613 0.12813
# Poissons Ratio (y) = 0.14895 0.31162
# Poissons Ratio (z) = 0.13135 0.18472
#
# Static dielectric constant tensor:
#      x y z
#    x 1.722990 0.000000 -0.027870 
#    y 0.000000 1.710380 0.000000 
#    z -0.027870 0.000000 1.710540 
# 
# From -- ./inp_files/47161.got.cif
#   From: 2010.05.17/outbox.cif.g08.bks.cpg/sg15_24_cif.got.tgz:47161.got - 2010.06.03 18:47:42.
