data_PCOD9269224
_publ_section_title
;
Structure prediction by ZEFSAII (Michael W. Deem and Ramdas Pophale) SiO2 
 PCOD9269224
Probable space group: C 2/C
;
_chemical_formula_sum "Si O2"
_cell_formula_units_Z 52
_cell_length_a 6.545197
_cell_length_b 23.854006
_cell_length_c 21.409460
_cell_angle_alpha 90.000000
_cell_angle_beta 65.892249
_cell_angle_gamma 90.000000
_cell_volume 3051.092446
_symmetry_space_group_name_H-M "C 2/C"
_symmetry_group_IT_number 15
_symmetry_cell_setting 'monoclinic'
loop_
_space_group_symop_operation_xyz
x,y,z
-x,y,1/2-z
-x,-y,-z
x,-y,1/2+z
1/2+x,1/2+y,z
1/2-x,1/2+y,1/2-z
1/2-x,1/2-y,-z
1/2+x,1/2-y,1/2+z
loop_
_atom_site_type_symbol
_atom_site_label
_atom_site_fract_x
_atom_site_fract_y
_atom_site_fract_z
Si Si1 0.166632 0.418369 0.983291
Si Si2 0.369561 0.596974 0.585122
Si Si3 0.924318 0.711706 0.015617
Si Si4 0.233978 0.975430 0.101947
Si Si5 0.500000 0.327061 0.250000
Si Si6 0.585988 0.288053 0.101453
Si Si7 0.105653 0.416654 0.300230
O O1 0.144913 0.353053 0.970781
O O2 0.238830 0.459995 0.919361
O O3 0.347911 0.422517 0.016525
O O4 0.928358 0.441913 0.039035
O O5 0.498692 0.550501 0.609463
O O6 0.498632 0.654493 0.580734
O O7 0.113459 0.606869 0.637359
O O8 0.969022 0.737987 0.078237
O O9 0.750000 0.750000 0.000000
O O10 0.152682 0.714872 0.947183
O O11 0.280256 0.961038 0.168014
O O12 0.539375 0.292955 0.181122
O O13 0.285752 0.367716 0.266360
O O14 0.000000 0.439910 0.250000
#
# Coordination Sequence:
#
# PCOD9269224 Si02
#       7
#     8   8   8   8   4   8   8
#     4  10  20  34  56  79 116 152 185 230 286 344
#     4  11  18  34  55  88 112 144 187 236 299 342
#     4  11  22  38  57  86 122 155 193 242 292 348
#     4  10  20  34  53  85 115 142 189 235 282 351
#     4  12  22  38  58  86 120 146 198 250 294 358
#     4  11  22  35  59  87 117 152 196 246 294 345
#     4  11  20  32  56  84 112 145 183 244 301 339
#
# _framework density 17.043075999999999
#
# number of rings (size 3 to 8) (size 9 to 14) (size 15 to 20)
#    0.000    1.231    6.154    1.385    0.000    0.000 
#    0.000    0.000    1.692    0.000    4.000    0.000 
#    0.000    0.000    0.000    0.000    0.000    0.000 
#
# Total GULP energy -145051.272412 kJ/mol
# GULP energy per Si atom -5578.895093 kJ/mol
# Density = 1.700429 g / cm^3
# Si number density = 17.043076 Si / 1000 Ang^3
#
#
#
# Elastic Constant Matrix: (Units=GPa)
#
#
# Indices 1 2 3 4 5 6 
#
# 1 121.3224 53.1444 51.2979 0.0000 13.1326 0.0000
# 2 53.1444 121.8078 41.7167 0.0000 15.0817 0.0000
# 3 51.2979 41.7167 94.4792 0.0000 25.4511 0.0000
# 4 0.0000 0.0000 0.0000 27.0283 0.0000 6.8311
# 5 13.1326 15.0817 25.4511 0.0000 36.6125 0.0000
# 6 0.0000 0.0000 0.0000 6.8311 0.0000 19.9675
#
#
#
# Elastic Compliance Matrix: (Units=1/GPa)
#
#
# Indices 1 2 3 4 5 6 
#
# 1 0.011853 -0.003523 -0.005076 0.000000 0.000728 0.000000
# 2 -0.003523 0.010766 -0.002444 0.000000 -0.001472 0.000000
# 3 -0.005076 -0.002444 0.016805 0.000000 -0.008854 0.000000
# 4 0.000000 0.000000 0.000000 0.040500 0.000000 -0.013856
# 5 0.000728 -0.001472 -0.008854 0.000000 0.033813 0.000000
# 6 0.000000 0.000000 0.000000 -0.013856 0.000000 0.054822
#
#
# Mechanical properties :
#
#
# Convention : Reuss Voigt Hill
#
# Bulk Modulus (GPa) = 57.68075 69.99193 63.83634
# Shear Modulus (GPa) = 25.45482 29.48500 27.46991
#
# Velocity S-wave (km/s) = 3.86885 4.16387 4.01907
# Velocity P-wave (km/s) = 7.33995 8.01710 7.68599
#
# Compressibility (1/GPa) = 0.01733681
#
# Stress axis : x y z
#
# Youngs Moduli (GPa) = 84.36391 92.88325 59.50592
#
# Poissons Ratio (x) = 0.32725 0.30208
# Poissons Ratio (y) = 0.29723 0.14545
# Poissons Ratio (z) = 0.42827 0.22703
#
# Static dielectric constant tensor:
#      x y z
#    x 1.596820 0.000000 0.006890 
#    y 0.000000 1.551230 0.000000 
#    z 0.006890 0.000000 1.612570 
# 
# From -- ./inp_files/227475.got.cif
#   From: 2010.05.17/outbox.cif.g08.bks.cpg/sg15_114_cif.got.tgz:227475.got - 2010.06.03 18:47:42.
