data_PCOD9269906
_publ_section_title
;
Structure prediction by ZEFSAII (Michael W. Deem and Ramdas Pophale) SiO2 
 PCOD9269906
Probable space group: C 2/C
;
_chemical_formula_sum "Si O2"
_cell_formula_units_Z 32
_cell_length_a 6.213660
_cell_length_b 24.154392
_cell_length_c 9.206012
_cell_angle_alpha 90.000000
_cell_angle_beta 98.098623
_cell_angle_gamma 90.000000
_cell_volume 1367.924697
_symmetry_space_group_name_H-M "C 2/C"
_symmetry_group_IT_number 15
_symmetry_cell_setting 'monoclinic'
loop_
_space_group_symop_operation_xyz
x,y,z
-x,y,1/2-z
-x,-y,-z
x,-y,1/2+z
1/2+x,1/2+y,z
1/2-x,1/2+y,1/2-z
1/2-x,1/2-y,-z
1/2+x,1/2-y,1/2+z
loop_
_atom_site_type_symbol
_atom_site_label
_atom_site_fract_x
_atom_site_fract_y
_atom_site_fract_z
Si Si1 0.935531 0.727301 0.902141
Si Si2 0.194226 0.039528 0.458441
Si Si3 0.000000 0.481896 0.250000
Si Si4 0.810261 0.160461 0.020634
Si Si5 0.000000 0.193248 0.750000
O O1 0.675125 0.728857 0.860103
O O2 0.000000 0.704871 0.750000
O O3 0.061711 0.682319 0.013551
O O4 0.052383 0.786569 0.914791
O O5 0.324050 0.014539 0.333264
O O6 0.131604 0.101757 0.408987
O O7 0.360849 0.047542 0.610390
O O8 0.000000 0.000000 0.500000
O O9 0.883660 0.156718 0.859110
#
# Coordination Sequence:
#
# PCOD9269906 Si02
#       5
#     8   8   4   8   4
#     4   9  20  39  58  95 129 170 219 272 338 405
#     4  11  25  45  71  98 138 180 234 284 347 409
#     4  10  26  46  67 102 134 177 236 288 336 410
#     4  10  22  38  64  90 132 172 219 275 337 406
#     4  10  20  34  65  96 128 167 220 270 338 406
#
# _framework density 23.393103
#
# number of rings (size 3 to 8) (size 9 to 14) (size 15 to 20)
#    0.000    2.000    0.000    1.500    8.750    4.000 
#    0.000   12.500    0.000    0.000    0.000    0.000 
#    0.000    0.000    0.000    0.000    0.000    0.000 
#
# Total GULP energy -89067.504668 kJ/mol
# GULP energy per Si atom -5566.719042 kJ/mol
# Density = 2.333986 g / cm^3
# Si number density = 23.393103 Si / 1000 Ang^3
#
#
#
# Elastic Constant Matrix: (Units=GPa)
#
#
# Indices 1 2 3 4 5 6 
#
# 1 136.4527 64.1873 20.8201 0.0000 -0.1154 0.0000
# 2 64.1873 131.1534 9.9232 0.0000 13.6345 0.0000
# 3 20.8201 9.9232 88.2558 0.0000 6.3148 0.0000
# 4 0.0000 0.0000 0.0000 1.2166 0.0000 -2.3320
# 5 -0.1154 13.6345 6.3148 0.0000 40.4534 0.0000
# 6 0.0000 0.0000 0.0000 -2.3320 0.0000 12.4627
#
#
#
# Elastic Compliance Matrix: (Units=1/GPa)
#
#
# Indices 1 2 3 4 5 6 
#
# 1 0.009943 -0.004927 -0.001934 0.000000 0.001991 0.000000
# 2 -0.004927 0.010386 0.000249 0.000000 -0.003554 0.000000
# 3 -0.001934 0.000249 0.011898 0.000000 -0.001947 0.000000
# 4 0.000000 0.000000 0.000000 1.281610 0.000000 0.239812
# 5 0.001991 -0.003554 -0.001947 0.000000 0.026227 0.000000
# 6 0.000000 0.000000 0.000000 0.239812 0.000000 0.125112
#
#
# Mechanical properties :
#
#
# Convention : Reuss Voigt Hill
#
# Bulk Modulus (GPa) = 52.62231 60.63590 56.62911
# Shear Modulus (GPa) = 3.36760 28.22197 15.79479
#
# Velocity S-wave (km/s) = 1.20112 3.47713 2.60126
# Velocity P-wave (km/s) = 4.94644 6.48824 5.76908
#
# Compressibility (1/GPa) = 0.01900335
#
# Stress axis : x y z
#
# Youngs Moduli (GPa) = 100.57466 96.27950 84.04572
#
# Poissons Ratio (x) = 0.47434 0.16255
# Poissons Ratio (y) = 0.49550 -0.02090
# Poissons Ratio (z) = 0.19452 -0.02394
#
# Static dielectric constant tensor:
#      x y z
#    x 2.129130 0.000000 -0.062440 
#    y 0.000000 1.833760 0.000000 
#    z -0.062440 0.000000 2.043060 
# 
# From -- ./inp_files/72144.got.cif
#   From: 2010.05.17/outbox.cif.g08.bks.cpg/sg15_37_cif.got.tgz:72144.got - 2010.06.03 18:47:42.
