data_PCOD9269078
_publ_section_title
;
Structure prediction by ZEFSAII (Michael W. Deem and Ramdas Pophale) SiO2 
 PCOD9269078
Probable space group: C 2/C
;
_chemical_formula_sum "Si O2"
_cell_formula_units_Z 56
_cell_length_a 19.922813
_cell_length_b 25.961239
_cell_length_c 9.112197
_cell_angle_alpha 90.000000
_cell_angle_beta 38.847768
_cell_angle_gamma 90.000000
_cell_volume 2956.256772
_symmetry_space_group_name_H-M "C 2/C"
_symmetry_group_IT_number 15
_symmetry_cell_setting 'monoclinic'
loop_
_space_group_symop_operation_xyz
x,y,z
-x,y,1/2-z
-x,-y,-z
x,-y,1/2+z
1/2+x,1/2+y,z
1/2-x,1/2+y,1/2-z
1/2-x,1/2-y,-z
1/2+x,1/2-y,1/2+z
loop_
_atom_site_type_symbol
_atom_site_label
_atom_site_fract_x
_atom_site_fract_y
_atom_site_fract_z
Si Si1 0.355754 0.666291 0.065971
Si Si2 0.648684 0.226784 0.402509
Si Si3 0.244975 0.330820 0.237288
Si Si4 0.083168 0.007652 0.729265
Si Si5 0.899988 0.893179 0.764860
Si Si6 0.364277 0.387507 0.253867
Si Si7 0.428375 0.767997 0.126205
O O1 0.231357 0.680438 0.258401
O O2 0.368316 0.617356 0.150461
O O3 0.405944 0.716158 0.067681
O O4 0.393209 0.650521 0.839486
O O5 0.711143 0.279004 0.262635
O O6 0.616798 0.234635 0.629258
O O7 0.552239 0.222507 0.451956
O O8 0.259751 0.371441 0.341612
O O9 0.134866 0.313918 0.348521
O O10 0.329848 0.351236 0.971316
O O11 0.154750 0.055634 0.650058
O O12 0.000000 0.025141 0.750000
O O13 0.128657 0.950393 0.628586
O O14 0.000000 0.000000 0.000000
O O15 0.030036 0.887107 0.533906
#
# Coordination Sequence:
#
# PCOD9269078 Si02
#       7
#     8   8   8   8   8   8   8
#     4  11  20  36  52  80 107 140 175 217 269 316
#     4  10  20  35  56  77 101 136 180 230 253 304
#     4  11  20  35  54  79 100 143 183 208 257 324
#     4  10  20  34  48  76 109 141 174 211 258 314
#     4  11  19  34  56  75 106 147 179 208 254 321
#     4  11  23  32  51  79 115 138 168 217 268 315
#     4  10  20  35  56  76 104 134 184 225 252 310
#
# _framework density 18.942875000000001
#
# number of rings (size 3 to 8) (size 9 to 14) (size 15 to 20)
#    0.000    1.429    2.857    6.000    2.000    2.286 
#    0.000    2.143    0.000    0.000    0.000    6.000 
#    0.000    0.000    0.000    0.000    0.000    0.000 
#
# Total GULP energy -155994.624996 kJ/mol
# GULP energy per Si atom -5571.236607 kJ/mol
# Density = 1.889976 g / cm^3
# Si number density = 18.942875 Si / 1000 Ang^3
#
#
#
# Elastic Constant Matrix: (Units=GPa)
#
#
# Indices 1 2 3 4 5 6 
#
# 1 164.8374 59.8797 17.3303 0.0000 -9.6706 0.0000
# 2 59.8797 91.4037 10.2568 0.0000 -9.1615 0.0000
# 3 17.3303 10.2568 27.2281 0.0000 2.1787 0.0000
# 4 0.0000 0.0000 0.0000 17.7151 0.0000 -0.1345
# 5 -9.6706 -9.1615 2.1787 0.0000 31.2467 0.0000
# 6 0.0000 0.0000 0.0000 -0.1345 0.0000 34.5958
#
#
#
# Elastic Compliance Matrix: (Units=1/GPa)
#
#
# Indices 1 2 3 4 5 6 
#
# 1 0.008301 -0.004902 -0.003547 0.000000 0.001379 0.000000
# 2 -0.004902 0.014752 -0.002677 0.000000 0.002995 0.000000
# 3 -0.003547 -0.002677 0.040369 0.000000 -0.004697 0.000000
# 4 0.000000 0.000000 0.000000 0.056451 0.000000 0.000219
# 5 0.001379 0.002995 -0.004697 0.000000 0.033636 0.000000
# 6 0.000000 0.000000 0.000000 0.000219 0.000000 0.028906
#
#
# Mechanical properties :
#
#
# Convention : Reuss Voigt Hill
#
# Bulk Modulus (GPa) = 24.28950 50.93364 37.61157
# Shear Modulus (GPa) = 22.89476 29.77833 26.33655
#
# Velocity S-wave (km/s) = 3.48029 3.96916 3.73274
# Velocity P-wave (km/s) = 5.38519 6.92474 6.20291
#
# Compressibility (1/GPa) = 0.04117005
#
# Stress axis : x y z
#
# Youngs Moduli (GPa) = 120.46542 67.78592 24.77162
#
# Poissons Ratio (x) = 0.33228 0.08787
# Poissons Ratio (y) = 0.59051 0.06631
# Poissons Ratio (z) = 0.42734 0.18145
#
# Static dielectric constant tensor:
#      x y z
#    x 1.696550 0.000000 0.031780 
#    y 0.000000 1.766740 0.000000 
#    z 0.031780 0.000000 1.714210 
# 
# From -- ./inp_files/51997.got.cif
#   From: 2010.05.17/outbox.cif.g08.bks.cpg/sg15_26_cif.got.tgz:51997.got - 2010.06.03 18:47:42.
