data_PCOD9269117
_publ_section_title
;
Structure prediction by ZEFSAII (Michael W. Deem and Ramdas Pophale) SiO2 
 PCOD9269117
Probable space group: C 2/C
;
_chemical_formula_sum "Si O2"
_cell_formula_units_Z 48
_cell_length_a 13.023122
_cell_length_b 18.450849
_cell_length_c 13.153708
_cell_angle_alpha 90.000000
_cell_angle_beta 135.719405
_cell_angle_gamma 90.000000
_cell_volume 2206.696565
_symmetry_space_group_name_H-M "C 2/C"
_symmetry_group_IT_number 15
_symmetry_cell_setting 'monoclinic'
loop_
_space_group_symop_operation_xyz
x,y,z
-x,y,1/2-z
-x,-y,-z
x,-y,1/2+z
1/2+x,1/2+y,z
1/2-x,1/2+y,1/2-z
1/2-x,1/2-y,-z
1/2+x,1/2-y,1/2+z
loop_
_atom_site_type_symbol
_atom_site_label
_atom_site_fract_x
_atom_site_fract_y
_atom_site_fract_z
Si Si1 0.998104 0.623317 0.127456
Si Si2 0.465726 0.357078 0.335399
Si Si3 0.147921 0.684260 0.652215
Si Si4 0.876657 0.005565 0.327400
Si Si5 0.334599 0.657032 0.329091
Si Si6 0.446232 0.965095 0.327106
O O1 0.158580 0.651405 0.208345
O O2 0.969405 0.538438 0.075083
O O3 0.000000 0.624891 0.250000
O O4 0.881845 0.674579 0.989523
O O5 0.500000 0.323561 0.250000
O O6 0.322716 0.324255 0.289525
O O7 0.409925 0.439713 0.276668
O O8 0.599243 0.355226 0.510059
O O9 0.109962 0.764054 0.663144
O O10 0.055230 0.616968 0.631366
O O11 0.880034 0.088140 0.293208
O O12 0.721716 0.990497 0.273457
O O13 0.000000 0.000000 0.500000
O O14 0.500000 0.958781 0.250000
#
# Coordination Sequence:
#
# PCOD9269117 Si02
#       6
#     8   8   8   8   8   8
#     4  10  20  34  53  77 106 139 174 216 265 317
#     4  10  20  34  54  77 103 139 177 212 260 323
#     4  11  21  33  54  81 108 137 174 219 266 317
#     4   8  17  35  54  72 100 138 175 211 258 312
#     4  10  20  34  51  74 109 139 166 216 272 311
#     4   9  19  36  56  77 104 141 183 222 261 309
#
# _framework density 21.751971000000001
#
# number of rings (size 3 to 8) (size 9 to 14) (size 15 to 20)
#    0.000    2.333    0.000    2.500    0.000    5.333 
#    0.000    0.833    0.000   14.000    0.000    0.000 
#    0.000    0.000    0.000    0.000    0.000    0.000 
#
# Total GULP energy -133693.072530 kJ/mol
# GULP energy per Si atom -5570.544689 kJ/mol
# Density = 2.170246 g / cm^3
# Si number density = 21.751971 Si / 1000 Ang^3
#
#
#
# Elastic Constant Matrix: (Units=GPa)
#
#
# Indices 1 2 3 4 5 6 
#
# 1 42.9846 11.1500 1.7034 0.0000 -0.7917 0.0000
# 2 11.1500 189.9430 -2.9559 0.0000 -3.6532 0.0000
# 3 1.7034 -2.9559 53.0508 0.0000 15.2573 0.0000
# 4 0.0000 0.0000 0.0000 21.5360 0.0000 0.1135
# 5 -0.7917 -3.6532 15.2573 0.0000 16.4011 0.0000
# 6 0.0000 0.0000 0.0000 0.1135 0.0000 4.3463
#
#
#
# Elastic Compliance Matrix: (Units=1/GPa)
#
#
# Indices 1 2 3 4 5 6 
#
# 1 0.023719 -0.001373 -0.001474 0.000000 0.002210 0.000000
# 2 -0.001373 0.005367 0.000025 0.000000 0.001106 0.000000
# 3 -0.001474 0.000025 0.025827 0.000000 -0.024092 0.000000
# 4 0.000000 0.000000 0.000000 0.046440 0.000000 -0.001212
# 5 0.002210 0.001106 -0.024092 0.000000 0.083736 0.000000
# 6 0.000000 0.000000 0.000000 -0.001212 0.000000 0.230112
#
#
# Mechanical properties :
#
#
# Convention : Reuss Voigt Hill
#
# Bulk Modulus (GPa) = 20.29599 33.97482 27.13541
# Shear Modulus (GPa) = 11.43462 26.86209 19.14835
#
# Velocity S-wave (km/s) = 2.29526 3.51796 2.97021
# Velocity P-wave (km/s) = 4.04663 5.67050 4.92594
#
# Compressibility (1/GPa) = 0.04927081
#
# Stress axis : x y z
#
# Youngs Moduli (GPa) = 42.15963 186.32451 38.71865
#
# Poissons Ratio (x) = 0.25579 0.05706
# Poissons Ratio (y) = 0.05788 -0.00097
# Poissons Ratio (z) = 0.06213 -0.00467
#
# Static dielectric constant tensor:
#      x y z
#    x 1.801520 0.000000 -0.019090 
#    y 0.000000 1.927670 0.000000 
#    z -0.019090 0.000000 1.789250 
# 
# From -- ./inp_files/155280.got.cif
#   From: 2010.05.17/outbox.cif.g08.bks.cpg/sg15_78_cif.got.tgz:155280.got - 2010.06.03 18:47:42.
