data_PCOD9269223
_publ_section_title
;
Structure prediction by ZEFSAII (Michael W. Deem and Ramdas Pophale) SiO2 
 PCOD9269223
Probable space group: C 2/C
;
_chemical_formula_sum "Si O2"
_cell_formula_units_Z 52
_cell_length_a 8.834617
_cell_length_b 10.874181
_cell_length_c 20.853706
_cell_angle_alpha 90.000000
_cell_angle_beta 94.088365
_cell_angle_gamma 90.000000
_cell_volume 1998.301272
_symmetry_space_group_name_H-M "C 2/C"
_symmetry_group_IT_number 15
_symmetry_cell_setting 'monoclinic'
loop_
_space_group_symop_operation_xyz
x,y,z
-x,y,1/2-z
-x,-y,-z
x,-y,1/2+z
1/2+x,1/2+y,z
1/2-x,1/2+y,1/2-z
1/2-x,1/2-y,-z
1/2+x,1/2-y,1/2+z
loop_
_atom_site_type_symbol
_atom_site_label
_atom_site_fract_x
_atom_site_fract_y
_atom_site_fract_z
Si Si1 0.745816 0.148921 0.789530
Si Si2 0.686211 0.451899 0.868759
Si Si3 0.242303 0.539791 0.990377
Si Si4 0.919401 0.643800 0.840757
Si Si5 0.958063 0.843977 0.400199
Si Si6 0.500000 0.453250 0.750000
Si Si7 0.434174 0.185632 0.977825
O O1 0.589853 0.118182 0.821521
O O2 0.684944 0.197499 0.719642
O O3 0.852582 0.221245 0.843621
O O4 0.860659 0.036294 0.774185
O O5 0.694632 0.400484 0.941334
O O6 0.848707 0.508373 0.854808
O O7 0.590566 0.579340 0.872224
O O8 0.587102 0.384628 0.811051
O O9 0.205817 0.399378 0.004829
O O10 0.353268 0.558831 0.935191
O O11 0.082823 0.601493 0.970705
O O12 0.904556 0.726862 0.904176
O O13 0.019041 0.761854 0.459173
#
# Coordination Sequence:
#
# PCOD9269223 Si02
#       7
#     8   8   8   8   8   4   8
#     4   9  17  30  55  80 105 143 194 229 276 349
#     4   9  19  33  55  83 112 147 187 239 284 345
#     4  10  20  34  53  84 115 147 189 240 287 351
#     4   9  17  32  51  82 105 147 189 227 281 352
#     4  11  20  35  59  86 110 154 195 241 293 345
#     4   8  16  32  52  82 104 152 190 224 288 356
#     4  10  21  35  57  84 116 152 193 240 293 351
#
# _framework density 26.022102
#
# number of rings (size 3 to 8) (size 9 to 14) (size 15 to 20)
#    0.000    2.462    1.538    0.923    0.000    2.462 
#    0.000    0.000    3.385    0.000  112.000    0.000 
#    0.000    0.000    0.000    0.000    0.000    0.000 
#
# Total GULP energy -145331.013521 kJ/mol
# GULP energy per Si atom -5589.654366 kJ/mol
# Density = 2.596287 g / cm^3
# Si number density = 26.022102 Si / 1000 Ang^3
#
#
#
# Elastic Constant Matrix: (Units=GPa)
#
#
# Indices 1 2 3 4 5 6 
#
# 1 134.1576 34.3458 36.7721 0.0000 4.7522 0.0000
# 2 34.3458 44.5196 31.8395 0.0000 -4.9411 0.0000
# 3 36.7721 31.8395 213.7980 0.0000 40.0641 0.0000
# 4 0.0000 0.0000 0.0000 40.9416 0.0000 7.9851
# 5 4.7522 -4.9411 40.0641 0.0000 63.4288 0.0000
# 6 0.0000 0.0000 0.0000 7.9851 0.0000 21.0658
#
#
#
# Elastic Compliance Matrix: (Units=1/GPa)
#
#
# Indices 1 2 3 4 5 6 
#
# 1 0.009412 -0.007112 -0.000367 0.000000 -0.001027 0.000000
# 2 -0.007112 0.031935 -0.004649 0.000000 0.005957 0.000000
# 3 -0.000367 -0.004649 0.006233 0.000000 -0.004272 0.000000
# 4 0.000000 0.000000 0.000000 0.026375 0.000000 -0.009998
# 5 -0.001027 0.005957 -0.004272 0.000000 0.019005 0.000000
# 6 0.000000 0.000000 0.000000 -0.009998 0.000000 0.051260
#
#
# Mechanical properties :
#
#
# Convention : Reuss Voigt Hill
#
# Bulk Modulus (GPa) = 42.87551 66.48777 54.68164
# Shear Modulus (GPa) = 28.36859 44.38841 36.37850
#
# Velocity S-wave (km/s) = 3.30536 4.13461 3.74302
# Velocity P-wave (km/s) = 5.57490 6.95696 6.30392
#
# Compressibility (1/GPa) = 0.02332334
#
# Stress axis : x y z
#
# Youngs Moduli (GPa) = 106.24977 31.31353 160.42929
#
# Poissons Ratio (x) = 0.22272 0.05888
# Poissons Ratio (y) = 0.75570 0.74582
# Poissons Ratio (z) = 0.03900 0.14557
#
# Static dielectric constant tensor:
#      x y z
#    x 2.016790 0.000000 0.037650 
#    y 0.000000 2.077910 0.000000 
#    z 0.037650 0.000000 2.107560 
# 
# From -- ./inp_files/231300.got.cif
#   From: 2010.05.17/outbox.cif.g08.bks.cpg/sg15_116_cif.got.tgz:231300.got - 2010.06.03 18:47:42.
