data_PCOD9269306
_publ_section_title
;
Structure prediction by ZEFSAII (Michael W. Deem and Ramdas Pophale) SiO2 
 PCOD9269306
Probable space group: C 2/C
;
_chemical_formula_sum "Si O2"
_cell_formula_units_Z 44
_cell_length_a 9.707951
_cell_length_b 18.197592
_cell_length_c 11.370975
_cell_angle_alpha 90.000000
_cell_angle_beta 103.901609
_cell_angle_gamma 90.000000
_cell_volume 1949.972960
_symmetry_space_group_name_H-M "C 2/C"
_symmetry_group_IT_number 15
_symmetry_cell_setting 'monoclinic'
loop_
_space_group_symop_operation_xyz
x,y,z
-x,y,1/2-z
-x,-y,-z
x,-y,1/2+z
1/2+x,1/2+y,z
1/2-x,1/2+y,1/2-z
1/2-x,1/2-y,-z
1/2+x,1/2-y,1/2+z
loop_
_atom_site_type_symbol
_atom_site_label
_atom_site_fract_x
_atom_site_fract_y
_atom_site_fract_z
Si Si1 0.842824 0.191538 0.374553
Si Si2 0.158064 0.973047 0.667650
Si Si3 0.000000 0.691429 0.750000
Si Si4 0.463317 0.243610 0.117830
Si Si5 0.681034 0.830190 0.506491
Si Si6 0.173671 0.981610 0.921059
O O1 0.854973 0.113903 0.316796
O O2 0.889750 0.255962 0.296573
O O3 0.685676 0.204031 0.390659
O O4 0.943428 0.198604 0.509219
O O5 0.227585 0.004202 0.801560
O O6 0.994549 0.998745 0.621919
O O7 0.227900 0.983149 0.553904
O O8 0.086947 0.651648 0.871169
O O9 0.500000 0.278668 0.250000
O O10 0.577692 0.184615 0.096106
O O11 0.750000 0.750000 0.500000
O O12 0.789448 0.895697 0.552139
#
# Coordination Sequence:
#
# PCOD9269306 Si02
#       6
#     8   8   4   8   8   8
#     4  10  20  36  57  83 119 149 185 244 293 342
#     4  10  20  39  58  86 115 154 198 245 292 361
#     4  10  20  36  62  92 116 154 204 246 296 360
#     4  10  20  34  54  89 114 145 190 240 293 349
#     4  11  21  37  62  86 116 158 196 249 299 353
#     4  10  21  38  61  85 116 154 200 244 299 351
#
# _framework density 22.564416000000001
#
# number of rings (size 3 to 8) (size 9 to 14) (size 15 to 20)
#    0.000    1.818    0.000    6.545    0.000    0.000 
#   19.636    0.909    2.000    0.000    0.000    0.000 
#    0.000    0.000    0.000    0.000    0.000    0.000 
#
# Total GULP energy -122756.737459 kJ/mol
# GULP energy per Si atom -5579.851703 kJ/mol
# Density = 2.251306 g / cm^3
# Si number density = 22.564416 Si / 1000 Ang^3
#
#
#
# Elastic Constant Matrix: (Units=GPa)
#
#
# Indices 1 2 3 4 5 6 
#
# 1 60.7451 -4.8152 8.6739 0.0000 -12.7897 0.0000
# 2 -4.8152 22.3814 18.0935 0.0000 4.5107 0.0000
# 3 8.6739 18.0935 218.1400 0.0000 -11.3934 0.0000
# 4 0.0000 0.0000 0.0000 11.7071 0.0000 -4.2225
# 5 -12.7897 4.5107 -11.3934 0.0000 25.5507 0.0000
# 6 0.0000 0.0000 0.0000 -4.2225 0.0000 14.4969
#
#
#
# Elastic Compliance Matrix: (Units=1/GPa)
#
#
# Indices 1 2 3 4 5 6 
#
# 1 0.018555 0.002674 -0.000511 0.000000 0.008588 0.000000
# 2 0.002674 0.051178 -0.004867 0.000000 -0.009866 0.000000
# 3 -0.000511 -0.004867 0.005160 0.000000 0.002904 0.000000
# 4 0.000000 0.000000 0.000000 0.095445 0.000000 0.027800
# 5 0.008588 -0.009866 0.002904 0.000000 0.046474 0.000000
# 6 0.000000 0.000000 0.000000 0.027800 0.000000 0.077078
#
#
# Mechanical properties :
#
#
# Convention : Reuss Voigt Hill
#
# Bulk Modulus (GPa) = 14.39119 38.35230 26.37175
# Shear Modulus (GPa) = 15.50586 28.97189 22.23888
#
# Velocity S-wave (km/s) = 2.62426 3.58713 3.14279
# Velocity P-wave (km/s) = 3.94639 5.84725 4.98820
#
# Compressibility (1/GPa) = 0.06948697
#
# Stress axis : x y z
#
# Youngs Moduli (GPa) = 53.89259 19.53959 193.80304
#
# Poissons Ratio (x) = -0.05226 0.09905
# Poissons Ratio (y) = -0.14413 0.94316
# Poissons Ratio (z) = 0.02754 0.09509
#
# Static dielectric constant tensor:
#      x y z
#    x 1.850150 0.000000 -0.000120 
#    y 0.000000 1.794830 0.000000 
#    z -0.000120 0.000000 1.966720 
# 
# From -- ./inp_files/78281.got.cif
#   From: 2010.05.17/outbox.cif.g08.bks.cpg/sg15_40_cif.got.tgz:78281.got - 2010.06.03 18:47:42.
