data_PCOD9269376
_publ_section_title
;
Structure prediction by ZEFSAII (Michael W. Deem and Ramdas Pophale) SiO2 
 PCOD9269376
Probable space group: C 2/C
;
_chemical_formula_sum "Si O2"
_cell_formula_units_Z 60
_cell_length_a 26.245377
_cell_length_b 12.235171
_cell_length_c 10.912913
_cell_angle_alpha 90.000000
_cell_angle_beta 57.768333
_cell_angle_gamma 90.000000
_cell_volume 2964.297699
_symmetry_space_group_name_H-M "C 2/C"
_symmetry_group_IT_number 15
_symmetry_cell_setting 'monoclinic'
loop_
_space_group_symop_operation_xyz
x,y,z
-x,y,1/2-z
-x,-y,-z
x,-y,1/2+z
1/2+x,1/2+y,z
1/2-x,1/2+y,1/2-z
1/2-x,1/2-y,-z
1/2+x,1/2-y,1/2+z
loop_
_atom_site_type_symbol
_atom_site_label
_atom_site_fract_x
_atom_site_fract_y
_atom_site_fract_z
Si Si1 0.935408 0.432070 0.507836
Si Si2 0.730160 0.675203 0.639483
Si Si3 0.902604 0.777678 0.703398
Si Si4 0.188691 0.623620 0.319971
Si Si5 0.500000 0.780185 0.250000
Si Si6 0.011486 0.331896 0.594714
Si Si7 0.296896 0.892261 0.296654
Si Si8 0.293011 0.572401 0.375500
O O1 0.872246 0.400943 0.530393
O O2 0.948091 0.558607 0.474369
O O3 0.986168 0.363886 0.375182
O O4 0.946907 0.379258 0.626732
O O5 0.750000 0.750000 0.500000
O O6 0.685416 0.756745 0.767568
O O7 0.779979 0.645168 0.679802
O O8 0.706270 0.558985 0.624310
O O9 0.942921 0.784620 0.774319
O O10 0.950171 0.758883 0.530471
O O11 0.854382 0.677330 0.765456
O O12 0.858073 0.880440 0.760098
O O13 0.189513 0.522024 0.223918
O O14 0.247605 0.610971 0.326477
O O15 0.000000 0.301840 0.750000
O O16 0.238722 0.881671 0.460087
#
# Coordination Sequence:
#
# PCOD9269376 Si02
#       8
#     8   8   8   8   4   8   8   8
#     4  10  20  34  55  91 126 164 210 268 325 386
#     4  11  24  42  60  97 140 172 217 263 327 404
#     4  11  22  40  62  96 128 172 220 283 325 394
#     4  11  22  38  63  99 132 173 213 272 341 395
#     4  10  22  36  62  88 128 170 228 274 328 376
#     4  10  21  36  57  88 128 173 210 267 331 385
#     4  11  22  38  66  98 134 173 212 269 343 406
#     4  11  24  41  65  96 135 178 220 266 333 413
#
# _framework density 20.240881999999999
#
# number of rings (size 3 to 8) (size 9 to 14) (size 15 to 20)
#    0.000    1.333    4.667    1.200    1.867    2.133 
#    0.000    0.000    0.000    3.200    3.467    0.000 
#    0.000    0.000    0.000    0.000    0.000    0.000 
#
# Total GULP energy -167119.504741 kJ/mol
# GULP energy per Si atom -5570.650158 kJ/mol
# Density = 2.019481 g / cm^3
# Si number density = 20.240882 Si / 1000 Ang^3
#
#
#
# Elastic Constant Matrix: (Units=GPa)
#
#
# Indices 1 2 3 4 5 6 
#
# 1 102.1665 40.9148 23.0569 0.0000 -4.2754 0.0000
# 2 40.9148 112.3510 37.8562 0.0000 -2.2466 0.0000
# 3 23.0569 37.8562 70.7059 0.0000 7.3392 0.0000
# 4 0.0000 0.0000 0.0000 28.9935 0.0000 -5.4308
# 5 -4.2754 -2.2466 7.3392 0.0000 25.0963 0.0000
# 6 0.0000 0.0000 0.0000 -5.4308 0.0000 24.6826
#
#
#
# Elastic Compliance Matrix: (Units=1/GPa)
#
#
# Indices 1 2 3 4 5 6 
#
# 1 0.011787 -0.003500 -0.002213 0.000000 0.002342 0.000000
# 2 -0.003500 0.012087 -0.005549 0.000000 0.002109 0.000000
# 3 -0.002213 -0.005549 0.018488 0.000000 -0.006280 0.000000
# 4 0.000000 0.000000 0.000000 0.035973 0.000000 0.007915
# 5 0.002342 0.002109 -0.006280 0.000000 0.042271 0.000000
# 6 0.000000 0.000000 0.000000 0.007915 0.000000 0.042256
#
#
# Mechanical properties :
#
#
# Convention : Reuss Voigt Hill
#
# Bulk Modulus (GPa) = 50.40856 54.31990 52.36423
# Shear Modulus (GPa) = 26.04193 27.98084 27.01139
#
# Velocity S-wave (km/s) = 3.59081 3.72209 3.65704
# Velocity P-wave (km/s) = 6.49233 6.73550 6.61503
#
# Compressibility (1/GPa) = 0.01983790
#
# Stress axis : x y z
#
# Youngs Moduli (GPa) = 84.83926 82.73237 54.09044
#
# Poissons Ratio (x) = 0.28957 0.11969
# Poissons Ratio (y) = 0.29694 0.30015
# Poissons Ratio (z) = 0.18774 0.45908
#
# Static dielectric constant tensor:
#      x y z
#    x 2.001960 0.000000 0.078010 
#    y 0.000000 1.719760 0.000000 
#    z 0.078010 0.000000 1.819200 
# 
# From -- ./inp_files/126436.got.cif
#   From: 2010.05.17/outbox.cif.g08.bks.cpg/sg15_64_cif.got.tgz:126436.got - 2010.06.03 18:47:42.
