data_PCOD9269579
_publ_section_title
;
Structure prediction by ZEFSAII (Michael W. Deem and Ramdas Pophale) SiO2 
 PCOD9269579
Probable space group: C 2/C
;
_chemical_formula_sum "Si O2"
_cell_formula_units_Z 64
_cell_length_a 7.788718
_cell_length_b 15.278478
_cell_length_c 26.331513
_cell_angle_alpha 90.000000
_cell_angle_beta 76.816575
_cell_angle_gamma 90.000000
_cell_volume 3050.861485
_symmetry_space_group_name_H-M "C 2/C"
_symmetry_group_IT_number 15
_symmetry_cell_setting 'monoclinic'
loop_
_space_group_symop_operation_xyz
x,y,z
-x,y,1/2-z
-x,-y,-z
x,-y,1/2+z
1/2+x,1/2+y,z
1/2-x,1/2+y,1/2-z
1/2-x,1/2-y,-z
1/2+x,1/2-y,1/2+z
loop_
_atom_site_type_symbol
_atom_site_label
_atom_site_fract_x
_atom_site_fract_y
_atom_site_fract_z
Si Si1 0.938613 0.206161 0.485810
Si Si2 0.438707 0.618910 0.805929
Si Si3 0.473696 0.944125 0.923725
Si Si4 0.232023 0.967374 0.797743
Si Si5 0.452183 0.616065 0.918652
Si Si6 0.895919 0.924086 0.594627
Si Si7 0.944623 0.612713 0.536116
Si Si8 0.120829 0.487217 0.814537
O O1 0.750000 0.250000 0.500000
O O2 0.989755 0.176916 0.538950
O O3 0.955648 0.126275 0.445995
O O4 0.058888 0.284217 0.455957
O O5 0.500000 0.668416 0.750000
O O6 0.586503 0.541991 0.798161
O O7 0.448176 0.658008 0.862313
O O8 0.245413 0.572726 0.813627
O O9 0.285995 0.904810 0.921922
O O10 0.452396 0.049366 0.932879
O O11 0.608755 0.935802 0.868326
O O12 0.520206 0.905884 0.975095
O O13 0.141544 0.902527 0.843996
O O14 0.415406 0.001882 0.811620
O O15 0.291045 0.935828 0.738315
O O16 0.567466 0.527784 0.909362
O O17 0.256515 0.583030 0.945617
#
# Coordination Sequence:
#
# PCOD9269579 Si02
#       8
#     8   8   8   8   8   8   8   8
#     4  12  26  38  54  82 124 162 195 241 305 356
#     4   9  17  31  54  83 113 143 191 246 296 345
#     4  10  20  34  58  82 115 145 197 240 299 355
#     4   8  17  29  52  82 116 135 193 238 294 350
#     4  11  21  38  59  83 115 150 203 238 293 362
#     4  10  21  37  57  82 114 153 192 247 288 359
#     4  11  23  35  55  86 112 148 192 241 294 356
#     4   9  15  30  51  85 109 147 180 245 296 351
#
# _framework density 20.977682999999999
#
# number of rings (size 3 to 8) (size 9 to 14) (size 15 to 20)
#    0.000    2.000    2.500    1.500    3.500    0.000 
#    0.000    0.000    0.000    1.500    0.000    1.750 
#    0.000    0.000    0.000    0.000    0.000    0.000 
#
# Total GULP energy -178268.130314 kJ/mol
# GULP energy per Si atom -5570.879072 kJ/mol
# Density = 2.092994 g / cm^3
# Si number density = 20.977683 Si / 1000 Ang^3
#
#
#
# Elastic Constant Matrix: (Units=GPa)
#
#
# Indices 1 2 3 4 5 6 
#
# 1 71.1391 3.2882 32.8597 0.0000 -10.6578 0.0000
# 2 3.2882 30.8870 9.1545 0.0000 5.9318 0.0000
# 3 32.8597 9.1545 159.0246 0.0000 1.6980 0.0000
# 4 0.0000 0.0000 0.0000 1.7860 0.0000 -1.2151
# 5 -10.6578 5.9318 1.6980 0.0000 26.2350 0.0000
# 6 0.0000 0.0000 0.0000 -1.2151 0.0000 19.7626
#
#
#
# Elastic Compliance Matrix: (Units=1/GPa)
#
#
# Indices 1 2 3 4 5 6 
#
# 1 0.016887 -0.002235 -0.003442 0.000000 0.007588 0.000000
# 2 -0.002235 0.034705 -0.001444 0.000000 -0.008661 0.000000
# 3 -0.003442 -0.001444 0.007099 0.000000 -0.001531 0.000000
# 4 0.000000 0.000000 0.000000 0.584360 0.000000 0.035928
# 5 0.007588 -0.008661 -0.001531 0.000000 0.043257 0.000000
# 6 0.000000 0.000000 0.000000 0.035928 0.000000 0.052810
#
#
# Mechanical properties :
#
#
# Convention : Reuss Voigt Hill
#
# Bulk Modulus (GPa) = 22.49690 39.07282 30.78486
# Shear Modulus (GPa) = 6.50893 23.93993 15.22443
#
# Velocity S-wave (km/s) = 1.76338 3.38184 2.69689
# Velocity P-wave (km/s) = 3.85921 5.82370 4.94009
#
# Compressibility (1/GPa) = 0.04445057
#
# Stress axis : x y z
#
# Youngs Moduli (GPa) = 59.21749 28.81403 140.86559
#
# Poissons Ratio (x) = 0.06440 0.48482
# Poissons Ratio (y) = 0.13235 0.20335
# Poissons Ratio (z) = 0.20381 0.04159
#
# Static dielectric constant tensor:
#      x y z
#    x 1.787080 0.000000 0.000420 
#    y 0.000000 1.824590 0.000000 
#    z 0.000420 0.000000 1.852400 
# 
# From -- ./inp_files/288726.got.cif
#   From: 2010.05.17/outbox.cif.g08.bks.cpg/sg15_145_cif.got.tgz:288726.got - 2010.06.03 18:47:42.
