data_PCOD9269321
_publ_section_title
;
Structure prediction by ZEFSAII (Michael W. Deem and Ramdas Pophale) SiO2 
 PCOD9269321
Probable space group: C 2/C
;
_chemical_formula_sum "Si O2"
_cell_formula_units_Z 48
_cell_length_a 28.673284
_cell_length_b 11.912665
_cell_length_c 13.481933
_cell_angle_alpha 90.000000
_cell_angle_beta 27.706688
_cell_angle_gamma 90.000000
_cell_volume 2141.117387
_symmetry_space_group_name_H-M "C 2/C"
_symmetry_group_IT_number 15
_symmetry_cell_setting 'monoclinic'
loop_
_space_group_symop_operation_xyz
x,y,z
-x,y,1/2-z
-x,-y,-z
x,-y,1/2+z
1/2+x,1/2+y,z
1/2-x,1/2+y,1/2-z
1/2-x,1/2-y,-z
1/2+x,1/2-y,1/2+z
loop_
_atom_site_type_symbol
_atom_site_label
_atom_site_fract_x
_atom_site_fract_y
_atom_site_fract_z
Si Si1 0.004846 0.890665 0.855141
Si Si2 0.927459 0.759516 0.237759
Si Si3 0.109757 0.918302 0.844645
Si Si4 0.613070 0.811683 0.888252
Si Si5 0.703626 0.257677 0.821234
Si Si6 0.430065 0.057737 0.475516
O O1 0.102835 0.917149 0.737999
O O2 0.000000 0.922269 0.750000
O O3 0.987748 0.757753 0.898605
O O4 0.907913 0.956533 0.083023
O O5 0.857825 0.732713 0.275507
O O6 0.874055 0.783070 0.442175
O O7 0.998486 0.649592 0.108141
O O8 0.004160 0.859461 0.072843
O O9 0.188235 0.842698 0.757489
O O10 0.689713 0.775785 0.829659
O O11 0.598001 0.944392 0.916734
O O12 0.670278 0.130525 0.858144
O O13 0.500000 0.024666 0.250000
#
# Coordination Sequence:
#
# PCOD9269321 Si02
#       6
#     8   8   8   8   8   8
#     4  10  20  35  56  80 107 145 181 215 268 342
#     4   9  18  36  57  79 101 149 191 222 265 330
#     4   9  19  36  58  77 105 144 183 220 269 327
#     4  11  21  31  55  83 112 138 183 232 275 322
#     4  10  20  34  55  80 112 138 182 233 274 310
#     4   9  19  36  54  74 108 153 184 221 275 339
#
# _framework density 22.418199999999999
#
# number of rings (size 3 to 8) (size 9 to 14) (size 15 to 20)
#    0.000    2.333    0.000    4.000    2.333    0.000 
#    0.000    0.833    0.000    0.000    0.000    0.000 
#    0.000    0.000    0.000    0.000    0.000    0.000 
#
# Total GULP energy -133760.568432 kJ/mol
# GULP energy per Si atom -5573.357018 kJ/mol
# Density = 2.236718 g / cm^3
# Si number density = 22.418200 Si / 1000 Ang^3
#
#
#
# Elastic Constant Matrix: (Units=GPa)
#
#
# Indices 1 2 3 4 5 6 
#
# 1 141.7624 8.7381 7.2444 0.0000 5.0276 0.0000
# 2 8.7381 82.7868 0.9922 0.0000 0.7497 0.0000
# 3 7.2444 0.9922 16.0081 0.0000 -2.5594 0.0000
# 4 0.0000 0.0000 0.0000 1.1428 0.0000 4.0486
# 5 5.0276 0.7497 -2.5594 0.0000 24.3703 0.0000
# 6 0.0000 0.0000 0.0000 4.0486 0.0000 27.8334
#
#
#
# Elastic Compliance Matrix: (Units=1/GPa)
#
#
# Indices 1 2 3 4 5 6 
#
# 1 0.007347 -0.000716 -0.003580 0.000000 -0.001870 0.000000
# 2 -0.000716 0.012163 -0.000474 0.000000 -0.000276 0.000000
# 3 -0.003580 -0.000474 0.065335 0.000000 0.007615 0.000000
# 4 0.000000 0.000000 0.000000 1.805370 0.000000 -0.262604
# 5 -0.001870 -0.000276 0.007615 0.000000 0.042227 0.000000
# 6 0.000000 0.000000 0.000000 -0.262604 0.000000 0.074126
#
#
# Mechanical properties :
#
#
# Convention : Reuss Voigt Hill
#
# Bulk Modulus (GPa) = 13.27902 30.50075 21.88989
# Shear Modulus (GPa) = 2.44953 25.57481 14.01217
#
# Velocity S-wave (km/s) = 1.04643 3.38125 2.50278
# Velocity P-wave (km/s) = 2.71960 5.37389 4.25881
#
# Compressibility (1/GPa) = 0.07530675
#
# Stress axis : x y z
#
# Youngs Moduli (GPa) = 136.10249 82.21695 15.30564
#
# Poissons Ratio (x) = 0.05884 0.05479
# Poissons Ratio (y) = 0.09741 0.00726
# Poissons Ratio (z) = 0.48719 0.03899
#
# Static dielectric constant tensor:
#      x y z
#    x 1.918350 0.000000 0.028590 
#    y 0.000000 1.845940 0.000000 
#    z 0.028590 0.000000 1.831860 
# 
# From -- ./inp_files/152125.got.cif
#   From: 2010.05.17/outbox.cif.g08.bks.cpg/sg15_77_cif.got.tgz:152125.got - 2010.06.03 18:47:42.
