data_PCOD9269743
_publ_section_title
;
Structure prediction by ZEFSAII (Michael W. Deem and Ramdas Pophale) SiO2 
 PCOD9269743
Probable space group: C 2/C
;
_chemical_formula_sum "Si O2"
_cell_formula_units_Z 52
_cell_length_a 9.350837
_cell_length_b 13.940021
_cell_length_c 27.107203
_cell_angle_alpha 90.000000
_cell_angle_beta 133.194318
_cell_angle_gamma 90.000000
_cell_volume 2576.012114
_symmetry_space_group_name_H-M "C 2/C"
_symmetry_group_IT_number 15
_symmetry_cell_setting 'monoclinic'
loop_
_space_group_symop_operation_xyz
x,y,z
-x,y,1/2-z
-x,-y,-z
x,-y,1/2+z
1/2+x,1/2+y,z
1/2-x,1/2+y,1/2-z
1/2-x,1/2-y,-z
1/2+x,1/2-y,1/2+z
loop_
_atom_site_type_symbol
_atom_site_label
_atom_site_fract_x
_atom_site_fract_y
_atom_site_fract_z
Si Si1 0.488489 0.287316 0.422308
Si Si2 0.291323 0.091623 0.396411
Si Si3 0.000000 0.831613 0.750000
Si Si4 0.067404 0.529300 0.908401
Si Si5 0.245744 0.333528 0.925260
Si Si6 0.541970 0.852490 0.310774
Si Si7 0.866666 0.849462 0.537882
O O1 0.437654 0.182708 0.433126
O O2 0.627343 0.339251 0.493901
O O3 0.606461 0.258796 0.400794
O O4 0.277393 0.335784 0.367160
O O5 0.165298 0.105208 0.415732
O O6 0.162346 0.107316 0.316384
O O7 0.419554 0.997111 0.417776
O O8 0.941380 0.751827 0.777730
O O9 0.119766 0.429976 0.893573
O O10 0.981451 0.599696 0.846995
O O11 0.263960 0.576194 0.976318
O O12 0.407532 0.330337 0.921197
O O13 0.500000 0.908134 0.250000
O O14 0.750000 0.750000 0.500000
#
# Coordination Sequence:
#
# PCOD9269743 Si02
#       7
#     8   8   4   8   8   8   8
#     4   9  17  36  58  87 111 159 189 241 297 359
#     4  10  20  37  60  86 118 154 201 246 303 354
#     4   8  18  40  60  74 106 166 200 234 292 376
#     4  11  22  37  57  91 120 151 200 253 301 365
#     4  10  20  34  60  87 122 143 199 250 296 354
#     4   9  18  35  62  80 108 162 206 235 297 370
#     4  12  21  36  59  89 119 158 191 247 311 367
#
# _framework density 20.186240000000002
#
# number of rings (size 3 to 8) (size 9 to 14) (size 15 to 20)
#    0.462    1.538    3.077    1.846    0.000    0.000 
#    2.769    0.000    0.000    0.000    0.000    0.000 
#    0.000    0.000    0.000    0.000    0.000    0.000 
#
# Total GULP energy -144782.016450 kJ/mol
# GULP energy per Si atom -5568.539094 kJ/mol
# Density = 2.014030 g / cm^3
# Si number density = 20.186240 Si / 1000 Ang^3
#
#
#
# Elastic Constant Matrix: (Units=GPa)
#
#
# Indices 1 2 3 4 5 6 
#
# 1 130.7522 17.4018 8.9397 0.0000 -17.7787 0.0000
# 2 17.4018 38.7540 5.7001 0.0000 -5.3473 0.0000
# 3 8.9397 5.7001 59.8542 0.0000 -5.7820 0.0000
# 4 0.0000 0.0000 0.0000 18.4458 0.0000 -2.4585
# 5 -17.7787 -5.3473 -5.7820 0.0000 17.9651 0.0000
# 6 0.0000 0.0000 0.0000 -2.4585 0.0000 25.6273
#
#
#
# Elastic Compliance Matrix: (Units=1/GPa)
#
#
# Indices 1 2 3 4 5 6 
#
# 1 0.009162 -0.002953 -0.000306 0.000000 0.008090 0.000000
# 2 -0.002953 0.028060 -0.001761 0.000000 0.004863 0.000000
# 3 -0.000306 -0.001761 0.017381 0.000000 0.004767 0.000000
# 4 0.000000 0.000000 0.000000 0.054915 0.000000 0.005268
# 5 0.008090 0.004863 0.004767 0.000000 0.066651 0.000000
# 6 0.000000 0.000000 0.000000 0.005268 0.000000 0.039526
#
#
# Mechanical properties :
#
#
# Convention : Reuss Voigt Hill
#
# Bulk Modulus (GPa) = 22.44017 32.60482 27.52249
# Shear Modulus (GPa) = 20.78233 25.56225 23.17229
#
# Velocity S-wave (km/s) = 3.21211 3.56240 3.39178
# Velocity P-wave (km/s) = 4.98975 5.75395 5.38542
#
# Compressibility (1/GPa) = 0.04456294
#
# Stress axis : x y z
#
# Youngs Moduli (GPa) = 109.14765 35.63824 57.53341
#
# Poissons Ratio (x) = 0.10523 0.01759
# Poissons Ratio (y) = 0.32229 0.10134
# Poissons Ratio (z) = 0.03337 0.06277
#
# Static dielectric constant tensor:
#      x y z
#    x 1.799270 0.000000 -0.018620 
#    y 0.000000 1.745210 0.000000 
#    z -0.018620 0.000000 1.739750 
# 
# From -- ./inp_files/288495.got.cif
#   From: 2010.05.17/outbox.cif.g08.bks.cpg/sg15_145_cif.got.tgz:288495.got - 2010.06.03 18:47:42.
