data_PCOD9269569
_publ_section_title
;
Structure prediction by ZEFSAII (Michael W. Deem and Ramdas Pophale) SiO2 
 PCOD9269569
Probable space group: C 2/C
;
_chemical_formula_sum "Si O2"
_cell_formula_units_Z 60
_cell_length_a 20.078505
_cell_length_b 16.717260
_cell_length_c 8.649771
_cell_angle_alpha 90.000000
_cell_angle_beta 85.498920
_cell_angle_gamma 90.000000
_cell_volume 2894.406887
_symmetry_space_group_name_H-M "C 2/C"
_symmetry_group_IT_number 15
_symmetry_cell_setting 'monoclinic'
loop_
_space_group_symop_operation_xyz
x,y,z
-x,y,1/2-z
-x,-y,-z
x,-y,1/2+z
1/2+x,1/2+y,z
1/2-x,1/2+y,1/2-z
1/2-x,1/2-y,-z
1/2+x,1/2-y,1/2+z
loop_
_atom_site_type_symbol
_atom_site_label
_atom_site_fract_x
_atom_site_fract_y
_atom_site_fract_z
Si Si1 0.270308 0.131279 0.174700
Si Si2 0.631747 0.243065 0.153340
Si Si3 0.500000 0.304374 0.750000
Si Si4 0.314805 0.170766 0.860884
Si Si5 0.557536 0.092639 0.042207
Si Si6 0.368428 0.013064 0.724644
Si Si7 0.943491 0.295851 0.541416
Si Si8 0.145024 0.172711 0.341684
O O1 0.306023 0.201034 0.271493
O O2 0.201362 0.111166 0.273931
O O3 0.320866 0.055735 0.161601
O O4 0.257063 0.162186 0.001552
O O5 0.599772 0.173362 0.055412
O O6 0.578790 0.254178 0.303667
O O7 0.644580 0.312874 0.027347
O O8 0.515057 0.251912 0.594267
O O9 0.428856 0.344428 0.715280
O O10 0.320470 0.087323 0.771946
O O11 0.327039 0.244910 0.744034
O O12 0.378094 0.177757 0.963297
O O13 0.483112 0.124214 0.083332
O O14 0.594618 0.029390 0.141766
O O15 0.570152 0.054743 0.875145
#
# Coordination Sequence:
#
# PCOD9269569 Si02
#       8
#     8   8   4   8   8   8   8   8
#     4  10  22  36  52  80 107 147 192 228 271 327
#     4  10  20  35  54  76 109 145 184 229 262 320
#     4  10  20  34  58  76 108 140 180 222 286 334
#     4  10  20  37  53  75 111 147 186 226 272 336
#     4  11  20  35  48  73 112 151 184 223 257 315
#     4  11  21  36  50  74 114 151 190 221 262 320
#     4  10  20  36  50  80 110 147 189 219 262 324
#     4  11  20  36  59  78 107 145 184 237 282 325
#
# _framework density 20.729637
#
# number of rings (size 3 to 8) (size 9 to 14) (size 15 to 20)
#    0.000    1.600    4.000    2.000    0.000    0.533 
#    7.200    0.000    0.000    0.000    0.000    0.933 
#    0.000    0.000    0.000    0.000    0.000    0.000 
#
# Total GULP energy -167182.112237 kJ/mol
# GULP energy per Si atom -5572.737075 kJ/mol
# Density = 2.068246 g / cm^3
# Si number density = 20.729637 Si / 1000 Ang^3
#
#
#
# Elastic Constant Matrix: (Units=GPa)
#
#
# Indices 1 2 3 4 5 6 
#
# 1 82.8606 0.8461 18.3672 0.0000 -15.2268 0.0000
# 2 0.8461 17.2308 10.1937 0.0000 -0.3917 0.0000
# 3 18.3672 10.1937 89.2964 0.0000 -22.5017 0.0000
# 4 0.0000 0.0000 0.0000 18.8833 0.0000 -8.8169
# 5 -15.2268 -0.3917 -22.5017 0.0000 27.0091 0.0000
# 6 0.0000 0.0000 0.0000 -8.8169 0.0000 19.2793
#
#
#
# Elastic Compliance Matrix: (Units=1/GPa)
#
#
# Indices 1 2 3 4 5 6 
#
# 1 0.013547 0.000145 -0.001111 0.000000 0.006714 0.000000
# 2 0.000145 0.063113 -0.008839 0.000000 -0.006367 0.000000
# 3 -0.001111 -0.008839 0.015500 0.000000 0.012159 0.000000
# 4 0.000000 0.000000 0.000000 0.067335 0.000000 0.030794
# 5 0.006714 -0.006367 0.012159 0.000000 0.050847 0.000000
# 6 0.000000 0.000000 0.000000 0.030794 0.000000 0.065952
#
#
# Mechanical properties :
#
#
# Convention : Reuss Voigt Hill
#
# Bulk Modulus (GPa) = 13.78373 27.57797 20.68085
# Shear Modulus (GPa) = 15.62074 23.69974 19.66024
#
# Velocity S-wave (km/s) = 2.74806 3.38491 3.08297
# Velocity P-wave (km/s) = 4.09058 5.34877 4.76142
#
# Compressibility (1/GPa) = 0.07254928
#
# Stress axis : x y z
#
# Youngs Moduli (GPa) = 73.81695 15.84469 64.51575
#
# Poissons Ratio (x) = -0.00229 0.07169
# Poissons Ratio (y) = -0.01069 0.57024
# Poissons Ratio (z) = 0.08203 0.14005
#
# Static dielectric constant tensor:
#      x y z
#    x 1.838630 0.000000 -0.079670 
#    y 0.000000 1.731830 0.000000 
#    z -0.079670 0.000000 1.839200 
# 
# From -- ./inp_files/56602.got.cif
#   From: 2010.05.17/outbox.cif.g08.bks.cpg/sg15_29_cif.got.tgz:56602.got - 2010.06.03 18:47:42.
