data_PCOD9269110
_publ_section_title
;
Structure prediction by ZEFSAII (Michael W. Deem and Ramdas Pophale) SiO2 
 PCOD9269110
Probable space group: C 2/C
;
_chemical_formula_sum "Si O2"
_cell_formula_units_Z 56
_cell_length_a 18.548388
_cell_length_b 33.678082
_cell_length_c 5.322579
_cell_angle_alpha 90.000000
_cell_angle_beta 67.823238
_cell_angle_gamma 90.000000
_cell_volume 3078.915465
_symmetry_space_group_name_H-M "C 2/C"
_symmetry_group_IT_number 15
_symmetry_cell_setting 'monoclinic'
loop_
_space_group_symop_operation_xyz
x,y,z
-x,y,1/2-z
-x,-y,-z
x,-y,1/2+z
1/2+x,1/2+y,z
1/2-x,1/2+y,1/2-z
1/2-x,1/2-y,-z
1/2+x,1/2-y,1/2+z
loop_
_atom_site_type_symbol
_atom_site_label
_atom_site_fract_x
_atom_site_fract_y
_atom_site_fract_z
Si Si1 0.590658 0.526275 0.135756
Si Si2 0.091227 0.178091 0.139093
Si Si3 0.707374 0.708585 0.371846
Si Si4 0.861459 0.737737 0.150034
Si Si5 0.779262 0.628629 0.377898
Si Si6 0.549251 0.842712 0.937477
Si Si7 0.303182 0.396397 0.035964
O O1 0.500000 0.539691 0.250000
O O2 0.602136 0.501313 0.375984
O O3 0.648509 0.563274 0.050222
O O4 0.133068 0.187416 0.347909
O O5 0.000000 0.170883 0.250000
O O6 0.107739 0.220165 0.984064
O O7 0.135942 0.139225 0.985968
O O8 0.784622 0.720500 0.110272
O O9 0.673874 0.748758 0.535874
O O10 0.746938 0.673242 0.480716
O O11 0.924748 0.703567 0.073260
O O12 0.870472 0.633252 0.201165
O O13 0.756516 0.603224 0.651582
O O14 0.738376 0.613787 0.174708
O O15 0.500000 0.847441 0.750000
O O16 0.500000 0.853233 0.250000
#
# Coordination Sequence:
#
# PCOD9269110 Si02
#       7
#     8   8   8   8   8   8   8
#     4  10  21  38  61  90 126 160 188 226 276 332
#     4  11  22  32  49  75 107 140 191 246 280 324
#     4   9  20  35  49  69 100 147 192 238 292 338
#     4  10  20  34  51  68 101 148 194 241 288 337
#     4  10  21  39  59  80 113 151 193 240 292 338
#     4  11  24  38  56  82 112 149 197 251 295 341
#     4  11  21  39  59  86 113 155 190 227 278 345
#
# _framework density 18.188223000000001
#
# number of rings (size 3 to 8) (size 9 to 14) (size 15 to 20)
#    0.000    1.714    1.429    3.000    4.000    0.000 
#    0.000    1.429    0.000    0.000    0.000    0.000 
#    0.000   40.000    0.000    0.000    0.000    0.000 
#
# Total GULP energy -155987.483836 kJ/mol
# GULP energy per Si atom -5570.981566 kJ/mol
# Density = 1.814683 g / cm^3
# Si number density = 18.188223 Si / 1000 Ang^3
#
#
#
# Elastic Constant Matrix: (Units=GPa)
#
#
# Indices 1 2 3 4 5 6 
#
# 1 125.0982 46.9573 68.7341 0.0000 -17.7649 0.0000
# 2 46.9573 84.0346 55.3054 0.0000 -13.7233 0.0000
# 3 68.7341 55.3054 138.0658 0.0000 -8.6420 0.0000
# 4 0.0000 0.0000 0.0000 25.3492 0.0000 -8.8390
# 5 -17.7649 -13.7233 -8.6420 0.0000 25.9173 0.0000
# 6 0.0000 0.0000 0.0000 -8.8390 0.0000 25.7143
#
#
#
# Elastic Compliance Matrix: (Units=1/GPa)
#
#
# Indices 1 2 3 4 5 6 
#
# 1 0.012445 -0.003014 -0.004651 0.000000 0.005384 0.000000
# 2 -0.003014 0.018051 -0.005374 0.000000 0.005701 0.000000
# 3 -0.004651 -0.005374 0.011575 0.000000 -0.002174 0.000000
# 4 0.000000 0.000000 0.000000 0.044821 0.000000 0.015407
# 5 0.005384 0.005701 -0.002174 0.000000 0.044568 0.000000
# 6 0.000000 0.000000 0.000000 0.015407 0.000000 0.044185
#
#
# Mechanical properties :
#
#
# Convention : Reuss Voigt Hill
#
# Bulk Modulus (GPa) = 62.52410 76.57690 69.55050
# Shear Modulus (GPa) = 24.14818 27.14294 25.64556
#
# Velocity S-wave (km/s) = 3.64769 3.86727 3.75908
# Velocity P-wave (km/s) = 7.22438 7.88257 7.56064
#
# Compressibility (1/GPa) = 0.01599383
#
# Stress axis : x y z
#
# Youngs Moduli (GPa) = 80.35225 55.39718 86.39256
#
# Poissons Ratio (x) = 0.16695 0.40185
# Poissons Ratio (y) = 0.24216 0.46425
# Poissons Ratio (z) = 0.37375 0.29769
#
# Static dielectric constant tensor:
#      x y z
#    x 1.654560 0.000000 0.036770 
#    y 0.000000 1.612030 0.000000 
#    z 0.036770 0.000000 1.706170 
# 
# From -- ./inp_files/12128.got.cif
#   From: 2010.05.17/outbox.cif.g08.bks.cpg/sg15_7_cif.got.tgz:12128.got - 2010.06.03 18:47:42.
