data_PCOD9269950
_publ_section_title
;
Structure prediction by ZEFSAII (Michael W. Deem and Ramdas Pophale) SiO2 
 PCOD9269950
Probable space group: C 2/C
;
_chemical_formula_sum "Si O2"
_cell_formula_units_Z 52
_cell_length_a 22.666130
_cell_length_b 18.386704
_cell_length_c 10.501050
_cell_angle_alpha 90.000000
_cell_angle_beta 39.573730
_cell_angle_gamma 90.000000
_cell_volume 2788.056559
_symmetry_space_group_name_H-M "C 2/C"
_symmetry_group_IT_number 15
_symmetry_cell_setting 'monoclinic'
loop_
_space_group_symop_operation_xyz
x,y,z
-x,y,1/2-z
-x,-y,-z
x,-y,1/2+z
1/2+x,1/2+y,z
1/2-x,1/2+y,1/2-z
1/2-x,1/2-y,-z
1/2+x,1/2-y,1/2+z
loop_
_atom_site_type_symbol
_atom_site_label
_atom_site_fract_x
_atom_site_fract_y
_atom_site_fract_z
Si Si1 0.101021 0.854258 0.091664
Si Si2 0.200668 0.375917 0.789508
Si Si3 0.889565 0.219099 0.199429
Si Si4 0.721799 0.139088 0.553224
Si Si5 0.598054 0.977597 0.400637
Si Si6 0.000000 0.374583 0.750000
Si Si7 0.080490 0.267245 0.832313
O O1 0.108304 0.802545 0.202512
O O2 0.000000 0.891403 0.250000
O O3 0.195883 0.897545 0.926316
O O4 0.102614 0.806144 0.960169
O O5 0.138599 0.445675 0.872493
O O6 0.160026 0.307515 0.779062
O O7 0.201629 0.357911 0.936523
O O8 0.832291 0.157875 0.373375
O O9 0.829074 0.291960 0.300859
O O10 0.993654 0.241812 0.063886
O O11 0.672332 0.067543 0.692029
O O12 0.575303 0.926327 0.558621
O O13 0.500000 0.000000 0.500000
O O14 0.042091 0.325072 0.792046
#
# Coordination Sequence:
#
# PCOD9269950 Si02
#       7
#     8   8   8   8   8   4   8
#     4   9  18  36  58  81 106 142 183 227 276 319
#     4  11  23  32  54  86 109 144 183 224 269 333
#     4   9  17  33  57  76 104 146 175 225 270 323
#     4  10  20  35  51  80 111 144 185 215 279 327
#     4  12  22  35  51  79 115 147 177 223 271 336
#     4  12  20  34  54  76 110 148 176 212 282 332
#     4  11  18  34  56  82 108 137 182 227 273 317
#
# _framework density 18.650984999999999
#
# number of rings (size 3 to 8) (size 9 to 14) (size 15 to 20)
#    0.000    1.538    5.385    1.385    0.000    1.846 
#    0.000    0.000    0.000    8.308    0.000    0.000 
#    0.000    0.000    0.000    0.000    0.000    0.000 
#
# Total GULP energy -144841.115222 kJ/mol
# GULP energy per Si atom -5570.812124 kJ/mol
# Density = 1.860853 g / cm^3
# Si number density = 18.650985 Si / 1000 Ang^3
#
#
#
# Elastic Constant Matrix: (Units=GPa)
#
#
# Indices 1 2 3 4 5 6 
#
# 1 43.6505 7.5416 26.5448 0.0000 -17.4822 0.0000
# 2 7.5416 26.7677 3.3615 0.0000 -7.4918 0.0000
# 3 26.5448 3.3615 99.6840 0.0000 -12.9345 0.0000
# 4 0.0000 0.0000 0.0000 41.3282 0.0000 -8.9844
# 5 -17.4822 -7.4918 -12.9345 0.0000 25.5274 0.0000
# 6 0.0000 0.0000 0.0000 -8.9844 0.0000 13.1810
#
#
#
# Elastic Compliance Matrix: (Units=1/GPa)
#
#
# Indices 1 2 3 4 5 6 
#
# 1 0.035630 -0.003616 -0.006784 0.000000 0.019903 0.000000
# 2 -0.003616 0.041072 0.000878 0.000000 0.010022 0.000000
# 3 -0.006784 0.000878 0.012030 0.000000 0.001708 0.000000
# 4 0.000000 0.000000 0.000000 0.028406 0.000000 0.019362
# 5 0.019903 0.010022 0.001708 0.000000 0.056610 0.000000
# 6 0.000000 0.000000 0.000000 0.019362 0.000000 0.089064
#
#
# Mechanical properties :
#
#
# Convention : Reuss Voigt Hill
#
# Bulk Modulus (GPa) = 14.34937 27.22202 20.78570
# Shear Modulus (GPa) = 16.38887 24.85094 20.61991
#
# Velocity S-wave (km/s) = 2.96753 3.65419 3.32861
# Velocity P-wave (km/s) = 4.41044 5.69485 5.09329
#
# Compressibility (1/GPa) = 0.06968947
#
# Stress axis : x y z
#
# Youngs Moduli (GPa) = 28.06600 24.34739 83.12513
#
# Poissons Ratio (x) = 0.08805 0.56389
# Poissons Ratio (y) = 0.10150 -0.07302
# Poissons Ratio (z) = 0.19039 -0.02139
#
# Static dielectric constant tensor:
#      x y z
#    x 1.667130 0.000000 -0.029730 
#    y 0.000000 1.630370 0.000000 
#    z -0.029730 0.000000 1.713560 
# 
# From -- ./inp_files/123865.got.cif
#   From: 2010.05.17/outbox.cif.g08.bks.cpg/sg15_62_cif.got.tgz:123865.got - 2010.06.03 18:47:42.
