data_PCOD9269265
_publ_section_title
;
Structure prediction by ZEFSAII (Michael W. Deem and Ramdas Pophale) SiO2 
 PCOD9269265
Probable space group: C 2/C
;
_chemical_formula_sum "Si O2"
_cell_formula_units_Z 40
_cell_length_a 13.921664
_cell_length_b 9.779985
_cell_length_c 16.422833
_cell_angle_alpha 90.000000
_cell_angle_beta 66.100992
_cell_angle_gamma 90.000000
_cell_volume 2044.313954
_symmetry_space_group_name_H-M "C 2/C"
_symmetry_group_IT_number 15
_symmetry_cell_setting 'monoclinic'
loop_
_space_group_symop_operation_xyz
x,y,z
-x,y,1/2-z
-x,-y,-z
x,-y,1/2+z
1/2+x,1/2+y,z
1/2-x,1/2+y,1/2-z
1/2-x,1/2-y,-z
1/2+x,1/2-y,1/2+z
loop_
_atom_site_type_symbol
_atom_site_label
_atom_site_fract_x
_atom_site_fract_y
_atom_site_fract_z
Si Si1 0.748792 0.532433 0.074691
Si Si2 0.625081 0.521900 0.452976
Si Si3 0.651526 0.256480 0.359696
Si Si4 0.376449 0.705300 0.807606
Si Si5 0.908565 0.310610 0.974812
O O1 0.682724 0.534202 0.014055
O O2 0.769927 0.676317 0.108987
O O3 0.683269 0.435500 0.157151
O O4 0.858218 0.451891 0.020665
O O5 0.500000 0.500000 0.500000
O O6 0.160555 0.920104 0.369373
O O7 0.635638 0.686152 0.453945
O O8 0.664438 0.223221 0.260061
O O9 0.534001 0.208094 0.426594
O O10 0.500000 0.679174 0.750000
O O11 0.370081 0.785244 0.895193
#
# Coordination Sequence:
#
# PCOD9269265 Si02
#       5
#     8   8   8   8   8
#     4  11  20  33  56  81 101 137 179 218 258 305
#     4   9  18  33  52  74 103 137 168 204 255 313
#     4  10  20  34  54  81 107 130 171 227 262 293
#     4   9  19  34  50  72 106 144 174 205 258 323
#     4   9  19  36  56  76 103 140 175 206 259 326
#
# _framework density 19.566466999999999
#
# number of rings (size 3 to 8) (size 9 to 14) (size 15 to 20)
#    0.000    2.400    0.000    4.800    0.000    3.200 
#    0.000    0.000    0.000    0.000    0.000    5.600 
#    0.000    0.000    0.000    0.000    0.000    0.000 
#
# Total GULP energy -111467.726325 kJ/mol
# GULP energy per Si atom -5573.386316 kJ/mol
# Density = 1.952193 g / cm^3
# Si number density = 19.566467 Si / 1000 Ang^3
#
#
#
# Elastic Constant Matrix: (Units=GPa)
#
#
# Indices 1 2 3 4 5 6 
#
# 1 62.6595 -5.0353 -0.2411 0.0000 13.7007 0.0000
# 2 -5.0353 55.8304 25.1372 0.0000 12.6959 0.0000
# 3 -0.2411 25.1372 46.1822 0.0000 0.9456 0.0000
# 4 0.0000 0.0000 0.0000 13.2803 0.0000 1.6516
# 5 13.7007 12.6959 0.9456 0.0000 26.5682 0.0000
# 6 0.0000 0.0000 0.0000 1.6516 0.0000 26.7330
#
#
#
# Elastic Compliance Matrix: (Units=1/GPa)
#
#
# Indices 1 2 3 4 5 6 
#
# 1 0.019173 0.005870 -0.002837 0.000000 -0.012591 0.000000
# 2 0.005870 0.029150 -0.015500 0.000000 -0.016405 0.000000
# 3 -0.002837 -0.015500 0.029915 0.000000 0.007805 0.000000
# 4 0.000000 0.000000 0.000000 0.075883 0.000000 -0.004688
# 5 -0.012591 -0.016405 0.007805 0.000000 0.051694 0.000000
# 6 0.000000 0.000000 0.000000 -0.004688 0.000000 0.037697
#
#
# Mechanical properties :
#
#
# Convention : Reuss Voigt Hill
#
# Bulk Modulus (GPa) = 18.76023 22.71041 20.73532
# Shear Modulus (GPa) = 17.46947 22.97038 20.21993
#
# Velocity S-wave (km/s) = 2.99126 3.43004 3.21814
# Velocity P-wave (km/s) = 4.64101 5.22675 4.94256
#
# Compressibility (1/GPa) = 0.05330426
#
# Stress axis : x y z
#
# Youngs Moduli (GPa) = 52.15628 34.30530 33.42761
#
# Poissons Ratio (x) = -0.20137 0.09484
# Poissons Ratio (y) = -0.30615 0.51813
# Poissons Ratio (z) = 0.14797 0.53173
#
# Static dielectric constant tensor:
#      x y z
#    x 1.702430 0.000000 0.003520 
#    y 0.000000 1.690620 0.000000 
#    z 0.003520 0.000000 1.687330 
# 
# From -- ./inp_files/142142.got.cif
#   From: 2010.05.17/outbox.cif.g08.bks.cpg/sg15_72_cif.got.tgz:142142.got - 2010.06.03 18:47:42.
