data_PCOD9269763
_publ_section_title
;
Structure prediction by ZEFSAII (Michael W. Deem and Ramdas Pophale) SiO2 
 PCOD9269763
Probable space group: C 2/C
;
_chemical_formula_sum "Si O2"
_cell_formula_units_Z 52
_cell_length_a 6.767704
_cell_length_b 12.428366
_cell_length_c 28.634230
_cell_angle_alpha 90.000000
_cell_angle_beta 60.144243
_cell_angle_gamma 90.000000
_cell_volume 2088.819625
_symmetry_space_group_name_H-M "C 2/C"
_symmetry_group_IT_number 15
_symmetry_cell_setting 'monoclinic'
loop_
_space_group_symop_operation_xyz
x,y,z
-x,y,1/2-z
-x,-y,-z
x,-y,1/2+z
1/2+x,1/2+y,z
1/2-x,1/2+y,1/2-z
1/2-x,1/2-y,-z
1/2+x,1/2-y,1/2+z
loop_
_atom_site_type_symbol
_atom_site_label
_atom_site_fract_x
_atom_site_fract_y
_atom_site_fract_z
Si Si1 0.208814 0.728359 0.369699
Si Si2 0.064933 0.053936 0.879398
Si Si3 0.089646 0.913330 0.526307
Si Si4 0.087969 0.485095 0.354099
Si Si5 0.743363 0.523158 0.262989
Si Si6 0.500000 0.279389 0.750000
Si Si7 0.994804 0.703815 0.926430
O O1 0.134215 0.607286 0.366210
O O2 0.349649 0.774005 0.307586
O O3 0.358995 0.741339 0.398450
O O4 0.021230 0.821289 0.395845
O O5 0.318512 0.025854 0.872079
O O6 0.091226 0.022333 0.822373
O O7 0.893154 0.979769 0.928089
O O8 0.928029 0.809535 0.554478
O O9 0.321422 0.861902 0.479871
O O10 0.000000 0.000000 0.500000
O O11 0.237150 0.466991 0.289645
O O12 0.137056 0.389607 0.384586
O O13 0.661539 0.642891 0.261030
O O14 0.000000 0.526239 0.250000
#
# Coordination Sequence:
#
# PCOD9269763 Si02
#       7
#     8   8   8   8   8   4   8
#     4  10  20  35  61  91 120 162 206 254 324 382
#     4  10  20  37  61  85 126 164 202 260 318 371
#     4  11  20  40  62  87 118 163 215 251 316 383
#     4   9  19  37  58  90 121 154 209 248 313 386
#     4   9  19  36  61  87 124 166 206 259 317 382
#     4  10  20  34  60  90 124 164 210 264 316 392
#     4  10  22  38  64  82 121 166 201 266 315 370
#
# _framework density 24.894441
#
# number of rings (size 3 to 8) (size 9 to 14) (size 15 to 20)
#    0.000    2.154    3.077    0.923    5.385    0.000 
#    0.000   10.769    6.769    1.846    0.000    0.000 
#    0.000    0.000    0.000    0.000    0.000    0.000 
#
# Total GULP energy -145318.163604 kJ/mol
# GULP energy per Si atom -5589.160139 kJ/mol
# Density = 2.483778 g / cm^3
# Si number density = 24.894441 Si / 1000 Ang^3
#
#
#
# Elastic Constant Matrix: (Units=GPa)
#
#
# Indices 1 2 3 4 5 6 
#
# 1 63.2615 33.6578 28.3328 0.0000 13.4791 0.0000
# 2 33.6578 207.3732 83.9940 0.0000 6.3383 0.0000
# 3 28.3328 83.9940 159.9814 0.0000 1.4869 0.0000
# 4 0.0000 0.0000 0.0000 52.9578 0.0000 -3.5685
# 5 13.4791 6.3383 1.4869 0.0000 23.8543 0.0000
# 6 0.0000 0.0000 0.0000 -3.5685 0.0000 32.7856
#
#
#
# Elastic Compliance Matrix: (Units=1/GPa)
#
#
# Indices 1 2 3 4 5 6 
#
# 1 0.020245 -0.001962 -0.002455 0.000000 -0.010765 0.000000
# 2 -0.001962 0.006364 -0.002990 0.000000 -0.000396 0.000000
# 3 -0.002455 -0.002990 0.008240 0.000000 0.001668 0.000000
# 4 0.000000 0.000000 0.000000 0.019022 0.000000 0.002070
# 5 -0.010765 -0.000396 0.001668 0.000000 0.048005 0.000000
# 6 0.000000 0.000000 0.000000 0.002070 0.000000 0.030727
#
#
# Mechanical properties :
#
#
# Convention : Reuss Voigt Hill
#
# Bulk Modulus (GPa) = 49.91604 80.28725 65.10164
# Shear Modulus (GPa) = 32.44748 40.89497 36.67122
#
# Velocity S-wave (km/s) = 3.61418 4.05746 3.84222
# Velocity P-wave (km/s) = 6.12463 7.36694 6.77432
#
# Compressibility (1/GPa) = 0.02003364
#
# Stress axis : x y z
#
# Youngs Moduli (GPa) = 49.39566 157.13684 121.36216
#
# Poissons Ratio (x) = 0.30837 0.29794
# Poissons Ratio (y) = 0.09694 0.36287
# Poissons Ratio (z) = 0.12126 0.46983
#
# Static dielectric constant tensor:
#      x y z
#    x 2.110610 0.000000 -0.009840 
#    y 0.000000 1.949800 0.000000 
#    z -0.009840 0.000000 2.003170 
# 
# From -- ./inp_files/287587.got.cif
#   From: 2010.05.17/outbox.cif.g08.bks.cpg/sg15_144_cif.got.tgz:287587.got - 2010.06.03 18:47:42.
