data_PCOD9269351
_publ_section_title
;
Structure prediction by ZEFSAII (Michael W. Deem and Ramdas Pophale) SiO2 
 PCOD9269351
Probable space group: C 2/C
;
_chemical_formula_sum "Si O2"
_cell_formula_units_Z 56
_cell_length_a 16.056018
_cell_length_b 9.443579
_cell_length_c 19.450181
_cell_angle_alpha 90.000000
_cell_angle_beta 106.250574
_cell_angle_gamma 90.000000
_cell_volume 2831.330903
_symmetry_space_group_name_H-M "C 2/C"
_symmetry_group_IT_number 15
_symmetry_cell_setting 'monoclinic'
loop_
_space_group_symop_operation_xyz
x,y,z
-x,y,1/2-z
-x,-y,-z
x,-y,1/2+z
1/2+x,1/2+y,z
1/2-x,1/2+y,1/2-z
1/2-x,1/2-y,-z
1/2+x,1/2-y,1/2+z
loop_
_atom_site_type_symbol
_atom_site_label
_atom_site_fract_x
_atom_site_fract_y
_atom_site_fract_z
Si Si1 0.276435 0.162293 0.164864
Si Si2 0.904905 0.827463 0.949463
Si Si3 0.970398 0.319100 0.667228
Si Si4 0.080468 0.794198 0.820330
Si Si5 0.202934 0.368431 0.252923
Si Si6 0.966743 0.415749 0.380426
Si Si7 0.530306 0.535794 0.896578
O O1 0.194970 0.175610 0.095259
O O2 0.366707 0.173252 0.146036
O O3 0.270741 0.287373 0.220270
O O4 0.269598 0.012139 0.203155
O O5 0.946027 0.672986 0.943865
O O6 0.923844 0.887253 0.028896
O O7 0.954471 0.935216 0.908591
O O8 0.001466 0.160354 0.660207
O O9 0.000000 0.368938 0.750000
O O10 0.007912 0.421448 0.617483
O O11 0.164284 0.742241 0.799277
O O12 0.000000 0.825213 0.750000
O O13 0.044184 0.666783 0.859049
O O14 0.093339 0.931753 0.869609
O O15 0.119768 0.401268 0.185709
#
# Coordination Sequence:
#
# PCOD9269351 Si02
#       7
#     8   8   8   8   8   8   8
#     4  11  23  35  59  84 118 141 188 235 287 336
#     4   9  22  42  57  79 111 161 189 218 282 344
#     4  12  22  35  59  92 113 137 189 243 278 330
#     4   9  16  34  58  81 109 151 181 224 291 335
#     4  10  20  34  55  85 115 146 178 238 294 332
#     4   9  17  37  59  78 112 148 181 223 287 343
#     4  10  22  37  61  80 114 149 198 229 267 339
#
# _framework density 19.778684999999999
#
# number of rings (size 3 to 8) (size 9 to 14) (size 15 to 20)
#    0.000    2.000    2.857    1.714    4.000    1.143 
#    0.000    0.714    0.000    0.000    0.000    0.000 
#    0.000    0.000    0.000    0.000    0.000    0.000 
#
# Total GULP energy -156299.241173 kJ/mol
# GULP energy per Si atom -5582.115756 kJ/mol
# Density = 1.973367 g / cm^3
# Si number density = 19.778685 Si / 1000 Ang^3
#
#
#
# Elastic Constant Matrix: (Units=GPa)
#
#
# Indices 1 2 3 4 5 6 
#
# 1 60.1453 7.4169 4.9164 0.0000 0.6538 0.0000
# 2 7.4169 93.4874 2.6857 0.0000 -14.0406 0.0000
# 3 4.9164 2.6857 35.3652 0.0000 -2.9965 0.0000
# 4 0.0000 0.0000 0.0000 27.0358 0.0000 -4.2842
# 5 0.6538 -14.0406 -2.9965 0.0000 11.3191 0.0000
# 6 0.0000 0.0000 0.0000 -4.2842 0.0000 20.5933
#
#
#
# Elastic Compliance Matrix: (Units=1/GPa)
#
#
# Indices 1 2 3 4 5 6 
#
# 1 0.017113 -0.001886 -0.002576 0.000000 -0.004010 0.000000
# 2 -0.001886 0.013359 0.000676 0.000000 0.016859 0.000000
# 3 -0.002576 0.000676 0.029324 0.000000 0.008751 0.000000
# 4 0.000000 0.000000 0.000000 0.038249 0.000000 0.007957
# 5 -0.004010 0.016859 0.008751 0.000000 0.111807 0.000000
# 6 0.000000 0.000000 0.000000 0.007957 0.000000 0.050215
#
#
# Mechanical properties :
#
#
# Convention : Reuss Voigt Hill
#
# Bulk Modulus (GPa) = 19.14766 24.33733 21.74250
# Shear Modulus (GPa) = 17.54102 23.38824 20.46463
#
# Velocity S-wave (km/s) = 2.98126 3.44248 3.22014
# Velocity P-wave (km/s) = 4.64247 5.30400 4.98422
#
# Compressibility (1/GPa) = 0.05222570
#
# Stress axis : x y z
#
# Youngs Moduli (GPa) = 58.43482 74.85709 34.10118
#
# Poissons Ratio (x) = 0.14117 0.08783
# Poissons Ratio (y) = 0.11020 -0.02306
# Poissons Ratio (z) = 0.15050 -0.05061
#
# Static dielectric constant tensor:
#      x y z
#    x 1.667900 0.000000 -0.014280 
#    y 0.000000 1.707480 0.000000 
#    z -0.014280 0.000000 1.697430 
# 
# From -- ./inp_files/242793.got.cif
#   From: 2010.05.17/outbox.cif.g08.bks.cpg/sg15_122_cif.got.tgz:242793.got - 2010.06.03 18:47:42.
