data_PCOD9269734
_publ_section_title
;
Structure prediction by ZEFSAII (Michael W. Deem and Ramdas Pophale) SiO2 
 PCOD9269734
Probable space group: C 2/C
;
_chemical_formula_sum "Si O2"
_cell_formula_units_Z 48
_cell_length_a 16.327161
_cell_length_b 8.859197
_cell_length_c 18.426594
_cell_angle_alpha 90.000000
_cell_angle_beta 53.461853
_cell_angle_gamma 90.000000
_cell_volume 2141.483418
_symmetry_space_group_name_H-M "C 2/C"
_symmetry_group_IT_number 15
_symmetry_cell_setting 'monoclinic'
loop_
_space_group_symop_operation_xyz
x,y,z
-x,y,1/2-z
-x,-y,-z
x,-y,1/2+z
1/2+x,1/2+y,z
1/2-x,1/2+y,1/2-z
1/2-x,1/2-y,-z
1/2+x,1/2-y,1/2+z
loop_
_atom_site_type_symbol
_atom_site_label
_atom_site_fract_x
_atom_site_fract_y
_atom_site_fract_z
Si Si1 0.222170 0.078992 0.235929
Si Si2 0.889060 0.932455 0.071787
Si Si3 0.193094 0.549676 0.094200
Si Si4 0.116754 0.600892 0.768207
Si Si5 0.008528 0.337164 0.461866
Si Si6 0.219769 0.635224 0.919969
O O1 0.190881 0.251558 0.237293
O O2 0.144820 0.993433 0.331677
O O3 0.329298 0.041749 0.219606
O O4 0.229213 0.987161 0.158239
O O5 0.802154 0.981569 0.061179
O O6 0.915592 0.758560 0.042160
O O7 0.000000 0.000000 0.000000
O O8 0.115288 0.457112 0.186280
O O9 0.201881 0.728136 0.107864
O O10 0.183777 0.554640 0.012784
O O11 0.021755 0.651009 0.868003
O O12 0.121209 0.290534 0.432448
O O13 0.000000 0.500000 0.500000
#
# Coordination Sequence:
#
# PCOD9269734 Si02
#       6
#     8   8   8   8   8   8
#     4  10  20  34  60  86 116 154 203 244 296 369
#     4  11  19  38  61  89 116 155 199 250 296 358
#     4  10  22  39  64  83 122 158 204 249 301 367
#     4  10  20  36  57  89 114 156 202 244 296 367
#     4  11  23  36  61  89 121 152 202 250 302 354
#     4  10  22  41  59  89 117 162 202 245 306 367
#
# _framework density 22.414369000000001
#
# number of rings (size 3 to 8) (size 9 to 14) (size 15 to 20)
#    0.000    1.667    3.333    3.000   11.667    0.667 
#    0.000    1.667    0.000    0.000    0.000    0.000 
#    0.000    0.000    0.000    0.000    0.000    0.000 
#
# Total GULP energy -133907.030839 kJ/mol
# GULP energy per Si atom -5579.459618 kJ/mol
# Density = 2.236335 g / cm^3
# Si number density = 22.414369 Si / 1000 Ang^3
#
#
#
# Elastic Constant Matrix: (Units=GPa)
#
#
# Indices 1 2 3 4 5 6 
#
# 1 58.3140 16.8577 46.7114 0.0000 13.5073 0.0000
# 2 16.8577 120.4837 53.7538 0.0000 13.3605 0.0001
# 3 46.7114 53.7538 180.8942 0.0000 33.4075 0.0000
# 4 0.0000 0.0000 0.0000 49.9928 0.0000 -3.9390
# 5 13.5073 13.3605 33.4075 0.0000 42.7353 0.0000
# 6 0.0000 0.0001 0.0000 -3.9390 0.0000 26.6294
#
#
#
# Elastic Compliance Matrix: (Units=1/GPa)
#
#
# Indices 1 2 3 4 5 6 
#
# 1 0.021959 -0.000531 -0.004980 0.000000 -0.002881 0.000000
# 2 -0.000531 0.009611 -0.002565 0.000000 -0.000832 0.000000
# 3 -0.004980 -0.002565 0.008342 0.000000 -0.004145 0.000000
# 4 0.000000 0.000000 0.000000 0.020239 0.000000 0.002994
# 5 -0.002881 -0.000832 -0.004145 0.000000 0.027811 0.000000
# 6 0.000000 0.000000 0.000000 0.002994 0.000000 0.037995
#
#
# Mechanical properties :
#
#
# Convention : Reuss Voigt Hill
#
# Bulk Modulus (GPa) = 42.09029 66.03752 54.06390
# Shear Modulus (GPa) = 33.32680 40.02942 36.67811
#
# Velocity S-wave (km/s) = 3.86015 4.23055 4.04959
# Velocity P-wave (km/s) = 6.21987 7.30682 6.78514
#
# Compressibility (1/GPa) = 0.02375845
#
# Stress axis : x y z
#
# Youngs Moduli (GPa) = 45.53956 104.04897 119.87585
#
# Poissons Ratio (x) = 0.05524 0.59704
# Poissons Ratio (y) = 0.02418 0.30751
# Poissons Ratio (z) = 0.22681 0.26691
#
# Static dielectric constant tensor:
#      x y z
#    x 1.883790 0.000000 -0.026360 
#    y 0.000000 1.927390 0.000000 
#    z -0.026360 0.000000 1.882080 
# 
# From -- ./inp_files/213724.got.cif
#   From: 2010.05.17/outbox.cif.g08.bks.cpg/sg15_107_cif.got.tgz:213724.got - 2010.06.03 18:47:42.
