data_PCOD9269556
_publ_section_title
;
Structure prediction by ZEFSAII (Michael W. Deem and Ramdas Pophale) SiO2 
 PCOD9269556
Probable space group: C 2/C
;
_chemical_formula_sum "Si O2"
_cell_formula_units_Z 56
_cell_length_a 20.786137
_cell_length_b 25.606622
_cell_length_c 5.565199
_cell_angle_alpha 90.000000
_cell_angle_beta 118.444838
_cell_angle_gamma 90.000000
_cell_volume 2604.546047
_symmetry_space_group_name_H-M "C 2/C"
_symmetry_group_IT_number 15
_symmetry_cell_setting 'monoclinic'
loop_
_space_group_symop_operation_xyz
x,y,z
-x,y,1/2-z
-x,-y,-z
x,-y,1/2+z
1/2+x,1/2+y,z
1/2-x,1/2+y,1/2-z
1/2-x,1/2-y,-z
1/2+x,1/2-y,1/2+z
loop_
_atom_site_type_symbol
_atom_site_label
_atom_site_fract_x
_atom_site_fract_y
_atom_site_fract_z
Si Si1 0.327652 0.374310 0.422480
Si Si2 0.218568 0.472265 0.775954
Si Si3 0.700214 0.143095 0.367669
Si Si4 0.381198 0.488713 0.612779
Si Si5 0.424452 0.780905 0.736867
Si Si6 0.805159 0.214720 0.246522
Si Si7 0.959708 0.169453 0.935675
O O1 0.351233 0.429933 0.561789
O O2 0.338623 0.329723 0.638177
O O3 0.382314 0.360274 0.301223
O O4 0.243279 0.372102 0.189554
O O5 0.194623 0.502159 0.489521
O O6 0.197486 0.411568 0.723305
O O7 0.307147 0.476246 0.958317
O O8 0.622133 0.170954 0.247282
O O9 0.754184 0.186195 0.350157
O O10 0.420119 0.502556 0.928876
O O11 0.500000 0.797837 0.750000
O O12 0.368468 0.751696 0.457403
O O13 0.444750 0.731547 0.940780
O O14 0.750000 0.250000 0.000000
O O15 0.000000 0.162623 0.750000
O O16 0.000000 0.150463 0.250000
#
# Coordination Sequence:
#
# PCOD9269556 Si02
#       7
#     8   8   8   8   8   8   8
#     4  12  22  37  66  90 125 166 221 270 321 384
#     4  10  20  37  59  94 126 156 205 275 330 371
#     4  12  23  37  65  97 124 168 220 271 321 383
#     4  10  20  34  57  92 121 157 203 271 328 371
#     4  11  24  43  61  93 137 177 214 260 329 395
#     4  12  23  38  64  98 131 167 222 279 315 381
#     4  11  25  44  63  90 132 179 216 258 323 397
#
# _framework density 21.500867
#
# number of rings (size 3 to 8) (size 9 to 14) (size 15 to 20)
#    0.000    0.857    5.714    4.714    0.000    0.000 
#    0.000    0.000    0.000    3.429    0.000    0.000 
#    0.000    0.000    0.000    0.000    0.000    0.000 
#
# Total GULP energy -156482.118759 kJ/mol
# GULP energy per Si atom -5588.647099 kJ/mol
# Density = 2.145193 g / cm^3
# Si number density = 21.500867 Si / 1000 Ang^3
#
#
#
# Elastic Constant Matrix: (Units=GPa)
#
#
# Indices 1 2 3 4 5 6 
#
# 1 124.2370 56.6749 27.5274 0.0000 -1.4034 0.0000
# 2 56.6749 109.5613 21.3161 0.0000 -8.8919 0.0000
# 3 27.5274 21.3161 110.8954 0.0000 -17.1583 0.0000
# 4 0.0000 0.0000 0.0000 10.0898 0.0000 -21.9302
# 5 -1.4034 -8.8919 -17.1583 0.0000 23.9440 0.0000
# 6 0.0000 0.0000 0.0000 -21.9302 0.0000 5.6984
#
#
#
# Elastic Compliance Matrix: (Units=1/GPa)
#
#
# Indices 1 2 3 4 5 6 
#
# 1 0.011003 -0.005516 -0.002124 0.000000 -0.002925 0.000000
# 2 -0.005516 0.012381 -0.000393 0.000000 0.003993 0.000000
# 3 -0.002124 -0.000393 0.010773 0.000000 0.007449 0.000000
# 4 0.000000 0.000000 0.000000 -0.013457 0.000000 -0.051791
# 5 -0.002925 0.003993 0.007449 0.000000 0.048414 0.000000
# 6 0.000000 0.000000 0.000000 -0.051791 0.000000 -0.023828
#
#
# Mechanical properties :
#
#
# Convention : Reuss Voigt Hill
#
# Bulk Modulus (GPa) = 55.27276 61.74783 58.51029
# Shear Modulus (GPa) = 74.20596 23.89146 49.04871
#
# Velocity S-wave (km/s) = 5.88115 3.33706 4.78142
# Velocity P-wave (km/s) = 8.47822 6.60523 7.59965
#
# Compressibility (1/GPa) = 0.01809209
#
# Stress axis : x y z
#
# Youngs Moduli (GPa) = 90.88520 80.76797 92.82677
#
# Poissons Ratio (x) = 0.44551 0.19712
# Poissons Ratio (y) = 0.50132 0.03647
# Poissons Ratio (z) = 0.19300 0.03173
#
# Static dielectric constant tensor:
#      x y z
#    x 1.837290 0.000000 -0.057800 
#    y 0.000000 1.782490 0.000000 
#    z -0.057800 0.000000 1.846490 
# 
# From -- ./inp_files/13928.got.cif
#   From: 2010.05.17/outbox.cif.g08.bks.cpg/sg15_7_cif.got.tgz:13928.got - 2010.06.03 18:47:42.
