data_PCOD9269168
_publ_section_title
;
Structure prediction by ZEFSAII (Michael W. Deem and Ramdas Pophale) SiO2 
 PCOD9269168
Probable space group: C 2/C
;
_chemical_formula_sum "Si O2"
_cell_formula_units_Z 52
_cell_length_a 6.370928
_cell_length_b 20.070978
_cell_length_c 32.707901
_cell_angle_alpha 90.000000
_cell_angle_beta 137.260409
_cell_angle_gamma 90.000000
_cell_volume 2838.447391
_symmetry_space_group_name_H-M "C 2/C"
_symmetry_group_IT_number 15
_symmetry_cell_setting 'monoclinic'
loop_
_space_group_symop_operation_xyz
x,y,z
-x,y,1/2-z
-x,-y,-z
x,-y,1/2+z
1/2+x,1/2+y,z
1/2-x,1/2+y,1/2-z
1/2-x,1/2-y,-z
1/2+x,1/2-y,1/2+z
loop_
_atom_site_type_symbol
_atom_site_label
_atom_site_fract_x
_atom_site_fract_y
_atom_site_fract_z
Si Si1 0.596661 0.744069 0.807746
Si Si2 0.500000 0.839214 0.250000
Si Si3 0.446186 0.162581 0.971026
Si Si4 0.144871 0.610856 0.687014
Si Si5 0.567221 0.053055 0.925105
Si Si6 0.208123 0.590300 0.466953
Si Si7 0.325544 0.696867 0.420657
O O1 0.500000 0.773511 0.750000
O O2 0.297475 0.706603 0.783687
O O3 0.838205 0.684743 0.831242
O O4 0.725870 0.793804 0.859711
O O5 0.538731 0.882448 0.296793
O O6 0.396876 0.107939 0.928536
O O7 0.278711 0.231566 0.935925
O O8 0.355487 0.130310 0.000845
O O9 0.810534 0.180067 0.025213
O O10 0.500000 0.595592 0.750000
O O11 0.024903 0.561741 0.635258
O O12 0.523498 0.978610 0.935728
O O13 0.930174 0.070599 0.980577
O O14 0.154954 0.639225 0.421154
#
# Coordination Sequence:
#
# PCOD9269168 Si02
#       7
#     8   4   8   8   8   8   8
#     4   9  18  33  52  77 104 133 174 219 258 309
#     4   8  18  30  52  84  96 134 178 214 270 294
#     4  10  20  35  54  78 106 144 170 215 273 309
#     4   9  18  32  52  76 102 131 176 221 255 308
#     4  10  20  36  53  77 108 137 178 223 263 323
#     4  10  22  33  53  80 107 139 178 216 268 325
#     4  10  20  34  52  81 108 134 179 218 261 324
#
# _framework density 18.319873000000001
#
# number of rings (size 3 to 8) (size 9 to 14) (size 15 to 20)
#    0.000    2.769    1.538    0.923    2.154    2.462 
#    0.000    0.000    6.769    0.000    0.000    0.000 
#    0.000    0.000    0.000    0.000    0.000    0.000 
#
# Total GULP energy -144970.760374 kJ/mol
# GULP energy per Si atom -5575.798476 kJ/mol
# Density = 1.827818 g / cm^3
# Si number density = 18.319873 Si / 1000 Ang^3
#
#
#
# Elastic Constant Matrix: (Units=GPa)
#
#
# Indices 1 2 3 4 5 6 
#
# 1 61.6648 24.3190 13.0036 0.0007 -28.4740 0.0006
# 2 24.3190 100.5070 36.5422 0.0003 -17.5731 0.0000
# 3 13.0036 36.5422 92.7839 0.0016 -36.8939 0.0006
# 4 0.0007 0.0003 0.0016 8.7407 0.0010 -3.8693
# 5 -28.4740 -17.5731 -36.8939 0.0010 30.2273 0.0007
# 6 0.0006 0.0000 0.0006 -3.8693 0.0007 5.8576
#
#
#
# Elastic Compliance Matrix: (Units=1/GPa)
#
#
# Indices 1 2 3 4 5 6 
#
# 1 0.044584 -0.007632 0.022719 -0.000031 0.065291 -0.000035
# 2 -0.007632 0.013000 -0.007585 0.000005 -0.008890 0.000006
# 3 0.022719 -0.007585 0.033687 -0.000029 0.058108 -0.000032
# 4 -0.000031 0.000005 -0.000029 0.161688 -0.000069 0.106805
# 5 0.065291 -0.008890 0.058108 -0.000069 0.160343 -0.000079
# 6 -0.000035 0.000006 -0.000032 0.106805 -0.000079 0.241269
#
#
# Mechanical properties :
#
#
# Convention : Reuss Voigt Hill
#
# Bulk Modulus (GPa) = 9.40957 44.74278 27.07618
# Shear Modulus (GPa) = 7.40751 21.03784 14.22267
#
# Velocity S-wave (km/s) = 2.01301 3.39242 2.78933
# Velocity P-wave (km/s) = 3.24813 6.31037 5.01852
#
# Compressibility (1/GPa) = 0.10627477
#
# Stress axis : x y z
#
# Youngs Moduli (GPa) = 22.42946 76.92487 29.68530
#
# Poissons Ratio (x) = 0.58711 -0.67443
# Poissons Ratio (y) = 0.17119 0.22517
# Poissons Ratio (z) = -0.50958 0.58348
#
# Static dielectric constant tensor:
#      x y z
#    x 1.638080 0.000000 -0.002810 
#    y 0.000000 1.627540 0.000000 
#    z -0.002810 0.000000 1.639130 
# 
# From -- ./inp_files/286153.got.cif
#   From: 2010.05.17/outbox.cif.g08.bks.cpg/sg15_144_cif.got.tgz:286153.got - 2010.06.03 18:47:42.
