data_PCOD9269886
_publ_section_title
;
Structure prediction by ZEFSAII (Michael W. Deem and Ramdas Pophale) SiO2 
 PCOD9269886
Probable space group: C 2/C
;
_chemical_formula_sum "Si O2"
_cell_formula_units_Z 44
_cell_length_a 17.112097
_cell_length_b 9.819457
_cell_length_c 14.580295
_cell_angle_alpha 90.000000
_cell_angle_beta 97.453923
_cell_angle_gamma 90.000000
_cell_volume 2429.245579
_symmetry_space_group_name_H-M "C 2/C"
_symmetry_group_IT_number 15
_symmetry_cell_setting 'monoclinic'
loop_
_space_group_symop_operation_xyz
x,y,z
-x,y,1/2-z
-x,-y,-z
x,-y,1/2+z
1/2+x,1/2+y,z
1/2-x,1/2+y,1/2-z
1/2-x,1/2-y,-z
1/2+x,1/2-y,1/2+z
loop_
_atom_site_type_symbol
_atom_site_label
_atom_site_fract_x
_atom_site_fract_y
_atom_site_fract_z
Si Si1 0.980891 0.641250 0.551687
Si Si2 0.847642 0.343015 0.446015
Si Si3 0.825139 0.787978 0.449366
Si Si4 0.161948 0.579586 0.205382
Si Si5 0.500000 0.989720 0.250000
Si Si6 0.752648 0.930210 0.904837
O O1 0.905325 0.725188 0.505319
O O2 0.000000 0.500000 0.500000
O O3 0.063692 0.714417 0.543271
O O4 0.976048 0.602098 0.658413
O O5 0.837865 0.453286 0.364457
O O6 0.791996 0.216313 0.419576
O O7 0.820269 0.421451 0.534104
O O8 0.750000 0.750000 0.500000
O O9 0.818078 0.713138 0.350099
O O10 0.814262 0.950099 0.437488
O O11 0.219567 0.552610 0.298162
O O12 0.073516 0.581536 0.231397
#
# Coordination Sequence:
#
# PCOD9269886 Si02
#       6
#     8   8   8   8   4   8
#     4  11  20  39  61  89 122 156 212 248 305 365
#     4  10  22  41  59  88 124 166 195 258 315 359
#     4  12  22  38  64  92 121 162 207 258 298 370
#     4  11  21  38  64  89 120 159 212 249 304 370
#     4  10  20  34  64  92 112 166 202 260 290 368
#     4  11  23  38  61  90 126 160 204 255 312 364
#
# _framework density 18.11262
#
# number of rings (size 3 to 8) (size 9 to 14) (size 15 to 20)
#    0.000    1.091    5.455    3.273    0.000    2.182 
#    0.000    0.000    0.000    1.091    0.000    0.000 
#    0.000    0.000    0.000    0.000    0.000    0.000 
#
# Total GULP energy -122711.250481 kJ/mol
# GULP energy per Si atom -5577.784113 kJ/mol
# Density = 1.807140 g / cm^3
# Si number density = 18.112620 Si / 1000 Ang^3
#
#
#
# Elastic Constant Matrix: (Units=GPa)
#
#
# Indices 1 2 3 4 5 6 
#
# 1 113.2647 24.4846 47.0918 0.0000 -8.9373 0.0000
# 2 24.4846 74.5610 25.0229 0.0000 -6.5343 0.0000
# 3 47.0918 25.0229 123.7147 0.0000 -0.3637 0.0000
# 4 0.0000 0.0000 0.0000 22.1265 0.0000 0.4611
# 5 -8.9373 -6.5343 -0.3637 0.0000 31.9918 0.0000
# 6 0.0000 0.0000 0.0000 0.4611 0.0000 28.0634
#
#
#
# Elastic Compliance Matrix: (Units=1/GPa)
#
#
# Indices 1 2 3 4 5 6 
#
# 1 0.011066 -0.002139 -0.003772 0.000000 0.002612 0.000000
# 2 -0.002139 0.015077 -0.002228 0.000000 0.002457 0.000000
# 3 -0.003772 -0.002228 0.009965 0.000000 -0.001395 0.000000
# 4 0.000000 0.000000 0.000000 0.045210 0.000000 -0.000743
# 5 0.002612 0.002457 -0.001395 0.000000 0.032473 0.000000
# 6 0.000000 0.000000 0.000000 -0.000743 0.000000 0.035646
#
#
# Mechanical properties :
#
#
# Convention : Reuss Voigt Hill
#
# Bulk Modulus (GPa) = 50.42771 56.08209 53.25490
# Shear Modulus (GPa) = 29.01486 30.76577 29.89032
#
# Velocity S-wave (km/s) = 4.00673 4.12586 4.06673
# Velocity P-wave (km/s) = 7.02188 7.32988 7.17753
#
# Compressibility (1/GPa) = 0.01983037
#
# Stress axis : x y z
#
# Youngs Moduli (GPa) = 90.37093 66.32475 100.34731
#
# Poissons Ratio (x) = 0.14187 0.37848
# Poissons Ratio (y) = 0.19331 0.22359
# Poissons Ratio (z) = 0.34086 0.14778
#
# Static dielectric constant tensor:
#      x y z
#    x 1.681960 0.000000 0.002220 
#    y 0.000000 1.608600 0.000000 
#    z 0.002220 0.000000 1.647660 
# 
# From -- ./inp_files/159333.got.cif
#   From: 2010.05.17/outbox.cif.g08.bks.cpg/sg15_80_cif.got.tgz:159333.got - 2010.06.03 18:47:42.
