data_PCOD9269536
_publ_section_title
;
Structure prediction by ZEFSAII (Michael W. Deem and Ramdas Pophale) SiO2 
 PCOD9269536
Probable space group: C 2/C
;
_chemical_formula_sum "Si O2"
_cell_formula_units_Z 60
_cell_length_a 23.250521
_cell_length_b 8.912929
_cell_length_c 22.309125
_cell_angle_alpha 90.000000
_cell_angle_beta 34.713349
_cell_angle_gamma 90.000000
_cell_volume 2632.736092
_symmetry_space_group_name_H-M "C 2/C"
_symmetry_group_IT_number 15
_symmetry_cell_setting 'monoclinic'
loop_
_space_group_symop_operation_xyz
x,y,z
-x,y,1/2-z
-x,-y,-z
x,-y,1/2+z
1/2+x,1/2+y,z
1/2-x,1/2+y,1/2-z
1/2-x,1/2-y,-z
1/2+x,1/2-y,1/2+z
loop_
_atom_site_type_symbol
_atom_site_label
_atom_site_fract_x
_atom_site_fract_y
_atom_site_fract_z
Si Si1 0.837099 0.910324 0.055919
Si Si2 0.214406 0.842783 0.729103
Si Si3 0.597815 0.111887 0.345769
Si Si4 0.000000 0.472996 0.250000
Si Si5 0.918241 0.802819 0.549718
Si Si6 0.683023 0.863204 0.637607
Si Si7 0.540372 0.869520 0.089727
Si Si8 0.276869 0.084395 0.591835
O O1 0.757892 0.807942 0.161334
O O2 0.898056 0.031146 0.042316
O O3 0.770472 0.011568 0.067982
O O4 0.916044 0.792478 0.961969
O O5 0.303762 0.899212 0.697198
O O6 0.116482 0.812123 0.852014
O O7 0.201652 0.975386 0.692189
O O8 0.525914 0.236596 0.437963
O O9 0.633084 0.148377 0.247795
O O10 0.530420 0.961829 0.396052
O O11 0.096915 0.580055 0.167716
O O12 0.991740 0.376305 0.196932
O O13 0.837109 0.693286 0.586276
O O14 0.725231 0.697752 0.590289
O O15 0.640162 0.973895 0.005865
#
# Coordination Sequence:
#
# PCOD9269536 Si02
#       8
#     8   8   8   4   8   8   8   8
#     4  10  21  38  58  89 126 158 205 251 304 360
#     4  11  20  37  59  89 131 175 198 234 302 361
#     4  10  21  37  59  90 130 166 208 242 289 360
#     4  10  22  42  66  86 110 156 210 256 336 364
#     4  10  20  34  57  88 127 173 202 236 283 362
#     4  10  21  41  63  84 120 158 203 268 300 366
#     4   9  21  39  62  91 115 157 206 260 307 366
#     4   9  19  36  59  88 124 155 206 241 299 360
#
# _framework density 22.789978000000001
#
# number of rings (size 3 to 8) (size 9 to 14) (size 15 to 20)
#    0.000    2.133    2.667    0.800    0.000    6.400 
#    4.800    4.000    0.000   16.000    0.000    0.000 
#    0.000    0.000    0.000    0.000    0.000    0.000 
#
# Total GULP energy -167833.499632 kJ/mol
# GULP energy per Si atom -5594.449988 kJ/mol
# Density = 2.273811 g / cm^3
# Si number density = 22.789978 Si / 1000 Ang^3
#
#
#
# Elastic Constant Matrix: (Units=GPa)
#
#
# Indices 1 2 3 4 5 6 
#
# 1 55.3190 29.4448 11.8238 -0.0001 -15.6996 0.0001
# 2 29.4448 167.9186 45.3663 -0.0004 -4.6175 0.0004
# 3 11.8238 45.3663 77.3054 -0.0001 -10.8488 0.0001
# 4 -0.0001 -0.0004 -0.0001 35.1865 0.0000 -7.6737
# 5 -15.6996 -4.6175 -10.8488 0.0000 35.3708 0.0000
# 6 0.0001 0.0004 0.0001 -7.6737 0.0000 4.7397
#
#
#
# Elastic Compliance Matrix: (Units=1/GPa)
#
#
# Indices 1 2 3 4 5 6 
#
# 1 0.022797 -0.003751 0.000069 0.000000 0.009650 0.000000
# 2 -0.003751 0.007699 -0.004219 0.000000 -0.001954 -0.000001
# 3 0.000069 -0.004219 0.016017 0.000000 0.004392 0.000000
# 4 0.000000 0.000000 0.000000 0.043931 0.000000 0.071126
# 5 0.009650 -0.001954 0.004392 0.000000 0.033647 0.000000
# 6 0.000000 -0.000001 0.000000 0.071126 0.000000 0.326135
#
#
# Mechanical properties :
#
#
# Convention : Reuss Voigt Hill
#
# Bulk Modulus (GPa) = 32.56042 52.64588 42.60315
# Shear Modulus (GPa) = 10.49832 29.31995 19.90913
#
# Velocity S-wave (km/s) = 2.14862 3.59071 2.95886
# Velocity P-wave (km/s) = 4.52477 6.35150 5.51431
#
# Compressibility (1/GPa) = 0.03071213
#
# Stress axis : x y z
#
# Youngs Moduli (GPa) = 43.86452 129.88743 62.43239
#
# Poissons Ratio (x) = 0.48717 -0.00428
# Poissons Ratio (y) = 0.16452 0.26338
# Poissons Ratio (z) = -0.00301 0.54794
#
# Static dielectric constant tensor:
#      x y z
#    x 1.843020 0.000000 0.006200 
#    y 0.000000 1.858200 0.000000 
#    z 0.006200 0.000000 1.885610 
# 
# From -- ./inp_files/303088.got.cif
#   From: 2010.05.17/outbox.cif.g08.bks.cpg/sg15_152_cif.got.tgz:303088.got - 2010.06.03 18:47:42.
