data_PCOD9269403
_publ_section_title
;
Structure prediction by ZEFSAII (Michael W. Deem and Ramdas Pophale) SiO2 
 PCOD9269403
Probable space group: C 2/C
;
_chemical_formula_sum "Si O2"
_cell_formula_units_Z 56
_cell_length_a 22.036957
_cell_length_b 18.744665
_cell_length_c 22.633923
_cell_angle_alpha 90.000000
_cell_angle_beta 161.333212
_cell_angle_gamma 90.000000
_cell_volume 2992.442434
_symmetry_space_group_name_H-M "C 2/C"
_symmetry_group_IT_number 15
_symmetry_cell_setting 'monoclinic'
loop_
_space_group_symop_operation_xyz
x,y,z
-x,y,1/2-z
-x,-y,-z
x,-y,1/2+z
1/2+x,1/2+y,z
1/2-x,1/2+y,1/2-z
1/2-x,1/2-y,-z
1/2+x,1/2-y,1/2+z
loop_
_atom_site_type_symbol
_atom_site_label
_atom_site_fract_x
_atom_site_fract_y
_atom_site_fract_z
Si Si1 0.167282 0.336799 0.111121
Si Si2 0.007357 0.426836 0.445061
Si Si3 0.889979 0.829973 0.960736
Si Si4 0.756670 0.579201 0.933562
Si Si5 0.801892 0.039694 0.301762
Si Si6 0.464963 0.046095 0.782544
Si Si7 0.688955 0.584788 0.000991
O O1 0.053962 0.371162 0.060909
O O2 0.132268 0.253145 0.071426
O O3 0.387998 0.346413 0.329387
O O4 0.142922 0.376463 0.025722
O O5 0.865017 0.493755 0.322164
O O6 0.961091 0.402603 0.335700
O O7 0.220514 0.451940 0.659962
O O8 0.814450 0.881867 0.840526
O O9 0.792480 0.856130 0.931295
O O10 0.535328 0.571174 0.713867
O O11 0.765541 0.611071 0.008168
O O12 0.858666 0.504189 0.036963
O O13 0.000000 0.000000 0.500000
O O14 0.500000 0.078085 0.750000
O O15 0.294151 0.988424 0.617160
#
# Coordination Sequence:
#
# PCOD9269403 Si02
#       7
#     8   8   8   8   8   8   8
#     4  11  23  36  53  82 115 152 191 230 280 333
#     4  11  22  35  58  82 112 145 187 236 281 331
#     4  11  22  36  55  80 115 150 190 231 273 331
#     4   9  19  35  50  78 109 150 191 221 268 325
#     4  11  21  36  57  84 109 145 186 229 280 331
#     4  10  20  34  56  81 108 143 184 233 282 332
#     4   9  19  34  53  74 112 150 187 228 262 324
#
# _framework density 18.713809000000001
#
# number of rings (size 3 to 8) (size 9 to 14) (size 15 to 20)
#    0.000    1.714    2.857    2.571    4.000    0.571 
#    0.000    0.000    0.000    0.000    0.000    4.000 
#    0.000    0.000    0.000    0.000    0.000    0.000 
#
# Total GULP energy -156106.700503 kJ/mol
# GULP energy per Si atom -5575.239304 kJ/mol
# Density = 1.867122 g / cm^3
# Si number density = 18.713809 Si / 1000 Ang^3
#
#
#
# Elastic Constant Matrix: (Units=GPa)
#
#
# Indices 1 2 3 4 5 6 
#
# 1 131.8472 40.7934 52.7986 0.0049 -28.7344 0.0038
# 2 40.7934 42.3017 19.0443 -0.0130 -4.5109 0.0054
# 3 52.7986 19.0443 107.4656 -0.0245 -22.6426 -0.0012
# 4 0.0049 -0.0130 -0.0245 23.7530 -0.0054 -4.0257
# 5 -28.7344 -4.5109 -22.6426 -0.0054 26.0531 0.0033
# 6 0.0038 0.0054 -0.0012 -4.0257 0.0033 21.2352
#
#
#
# Elastic Compliance Matrix: (Units=1/GPa)
#
#
# Indices 1 2 3 4 5 6 
#
# 1 0.015015 -0.011970 -0.002697 -0.000010 0.012143 -0.000004
# 2 -0.011970 0.035240 -0.002277 0.000017 -0.009080 -0.000002
# 3 -0.002697 -0.002277 0.012638 0.000015 0.007615 0.000003
# 4 -0.000010 0.000017 0.000015 0.043497 0.000012 0.008246
# 5 0.012143 -0.009080 0.007615 0.000012 0.056823 -0.000006
# 6 -0.000004 -0.000002 0.000003 0.008246 -0.000006 0.048655
#
#
# Mechanical properties :
#
#
# Convention : Reuss Voigt Hill
#
# Bulk Modulus (GPa) = 34.47712 56.32080 45.39896
# Shear Modulus (GPa) = 19.57529 25.47349 22.52439
#
# Velocity S-wave (km/s) = 3.23775 3.69347 3.47309
# Velocity P-wave (km/s) = 5.69568 6.95342 6.35574
#
# Compressibility (1/GPa) = 0.02900474
#
# Stress axis : x y z
#
# Youngs Moduli (GPa) = 66.60194 28.37688 79.12436
#
# Poissons Ratio (x) = 0.33968 0.21339
# Poissons Ratio (y) = 0.79724 0.18017
# Poissons Ratio (z) = 0.17962 0.06461
#
# Static dielectric constant tensor:
#      x y z
#    x 1.758450 0.000000 -0.003930 
#    y 0.000000 1.628260 -0.000020 
#    z -0.003930 -0.000020 1.698490 
# 
# From -- ./inp_files/253393.got.cif
#   From: 2010.05.17/outbox.cif.g08.bks.cpg/sg15_127_cif.got.tgz:253393.got - 2010.06.03 18:47:42.
