data_PCOD9269860
_publ_section_title
;
Structure prediction by ZEFSAII (Michael W. Deem and Ramdas Pophale) SiO2 
 PCOD9269860
Probable space group: C 2/C
;
_chemical_formula_sum "Si O2"
_cell_formula_units_Z 36
_cell_length_a 17.542600
_cell_length_b 16.473555
_cell_length_c 8.105642
_cell_angle_alpha 90.000000
_cell_angle_beta 43.603092
_cell_angle_gamma 90.000000
_cell_volume 1615.484815
_symmetry_space_group_name_H-M "C 2/C"
_symmetry_group_IT_number 15
_symmetry_cell_setting 'monoclinic'
loop_
_space_group_symop_operation_xyz
x,y,z
-x,y,1/2-z
-x,-y,-z
x,-y,1/2+z
1/2+x,1/2+y,z
1/2-x,1/2+y,1/2-z
1/2-x,1/2-y,-z
1/2+x,1/2-y,1/2+z
loop_
_atom_site_type_symbol
_atom_site_label
_atom_site_fract_x
_atom_site_fract_y
_atom_site_fract_z
Si Si1 0.677672 0.379331 0.062281
Si Si2 0.881681 0.975072 0.013052
Si Si3 0.125475 0.694246 0.095135
Si Si4 0.500000 0.967863 0.250000
Si Si5 0.845680 0.414513 0.217743
O O1 0.633111 0.429700 0.290041
O O2 0.636179 0.286924 0.129945
O O3 0.635263 0.427297 0.968606
O O4 0.810120 0.364975 0.878617
O O5 0.775937 0.949933 0.068324
O O6 0.000000 0.955574 0.750000
O O7 0.000000 0.676395 0.250000
O O8 0.177673 0.670496 0.837170
O O9 0.422777 0.913626 0.254802
O O10 0.414309 0.024497 0.487750
#
# Coordination Sequence:
#
# PCOD9269860 Si02
#       5
#     8   8   8   4   8
#     4  10  23  39  65  91 124 169 214 253 317 372
#     4  11  22  39  63  94 125 168 216 255 300 382
#     4  10  20  39  64  90 123 167 203 260 319 377
#     4  10  20  34  62  98 130 156 208 260 306 386
#     4  10  20  36  63  96 126 165 206 257 320 367
#
# _framework density 22.284331999999999
#
# number of rings (size 3 to 8) (size 9 to 14) (size 15 to 20)
#    0.000    1.778    1.111    4.000    3.111    0.000 
#    0.000    0.000    7.333   13.333    0.000    0.000 
#    0.000    0.000    0.000    0.000    0.000    0.000 
#
# Total GULP energy -100370.043565 kJ/mol
# GULP energy per Si atom -5576.113531 kJ/mol
# Density = 2.223361 g / cm^3
# Si number density = 22.284332 Si / 1000 Ang^3
#
#
#
# Elastic Constant Matrix: (Units=GPa)
#
#
# Indices 1 2 3 4 5 6 
#
# 1 114.9617 37.0792 42.9906 0.0000 -8.8251 0.0000
# 2 37.0792 119.9333 45.9569 0.0000 14.3547 0.0000
# 3 42.9906 45.9569 102.0867 0.0000 -28.4526 0.0000
# 4 0.0000 0.0000 0.0000 10.9804 0.0000 4.8498
# 5 -8.8251 14.3547 -28.4526 0.0000 44.9136 0.0000
# 6 0.0000 0.0000 0.0000 4.8498 0.0000 25.2729
#
#
#
# Elastic Compliance Matrix: (Units=1/GPa)
#
#
# Indices 1 2 3 4 5 6 
#
# 1 0.010684 -0.002076 -0.003394 0.000000 0.000613 0.000000
# 2 -0.002076 0.013015 -0.007599 0.000000 -0.009382 0.000000
# 3 -0.003394 -0.007599 0.018383 0.000000 0.013407 0.000000
# 4 0.000000 0.000000 0.000000 0.099505 0.000000 -0.019095
# 5 0.000613 -0.009382 0.013407 0.000000 0.033877 0.000000
# 6 0.000000 0.000000 0.000000 -0.019095 0.000000 0.043232
#
#
# Mechanical properties :
#
#
# Convention : Reuss Voigt Hill
#
# Bulk Modulus (GPa) = 62.72410 65.44836 64.08623
# Shear Modulus (GPa) = 19.98805 30.29706 25.14255
#
# Velocity S-wave (km/s) = 2.99817 3.69123 3.36260
# Velocity P-wave (km/s) = 6.33985 6.89930 6.62548
#
# Compressibility (1/GPa) = 0.01594283
#
# Stress axis : x y z
#
# Youngs Moduli (GPa) = 93.59440 76.83633 54.39911
#
# Poissons Ratio (x) = 0.15952 0.18463
# Poissons Ratio (y) = 0.19431 0.41340
# Poissons Ratio (z) = 0.31766 0.58391
#
# Static dielectric constant tensor:
#      x y z
#    x 1.893790 0.000000 -0.003250 
#    y 0.000000 1.867240 0.000000 
#    z -0.003250 0.000000 1.978160 
# 
# From -- ./inp_files/28733.got.cif
#   From: 2010.05.17/outbox.cif.g08.bks.cpg/sg15_15_cif.got.tgz:28733.got - 2010.06.03 18:47:42.
