data_PCOD9269969
_publ_section_title
;
Structure prediction by ZEFSAII (Michael W. Deem and Ramdas Pophale) SiO2 
 PCOD9269969
Probable space group: C 2/C
;
_chemical_formula_sum "Si O2"
_cell_formula_units_Z 44
_cell_length_a 14.647126
_cell_length_b 18.304309
_cell_length_c 14.950739
_cell_angle_alpha 90.000000
_cell_angle_beta 140.083495
_cell_angle_gamma 90.000000
_cell_volume 2572.056812
_symmetry_space_group_name_H-M "C 2/C"
_symmetry_group_IT_number 15
_symmetry_cell_setting 'monoclinic'
loop_
_space_group_symop_operation_xyz
x,y,z
-x,y,1/2-z
-x,-y,-z
x,-y,1/2+z
1/2+x,1/2+y,z
1/2-x,1/2+y,1/2-z
1/2-x,1/2-y,-z
1/2+x,1/2-y,1/2+z
loop_
_atom_site_type_symbol
_atom_site_label
_atom_site_fract_x
_atom_site_fract_y
_atom_site_fract_z
Si Si1 0.332147 0.440181 0.137240
Si Si2 0.500000 0.214902 0.250000
Si Si3 0.469819 0.713055 0.538638
Si Si4 0.262130 0.902382 0.622484
Si Si5 0.345401 0.988946 0.341594
Si Si6 0.274143 0.170073 0.803313
O O1 0.500000 0.445516 0.250000
O O2 0.269497 0.495304 0.164076
O O3 0.289143 0.362575 0.150472
O O4 0.256472 0.444412 0.985039
O O5 0.549468 0.260567 0.373136
O O6 0.625983 0.162792 0.309362
O O7 0.387773 0.636409 0.467755
O O8 0.394356 0.772037 0.418435
O O9 0.638300 0.703947 0.651820
O O10 0.314401 0.954963 0.739796
O O11 0.500000 0.000000 0.500000
O O12 0.330699 0.904120 0.300523
#
# Coordination Sequence:
#
# PCOD9269969 Si02
#       6
#     8   4   8   8   8   8
#     4  10  20  35  52  82 116 151 195 236 276 354
#     4  12  20  30  52  92 118 150 188 228 290 372
#     4  12  20  31  55  84 115 157 181 229 296 356
#     4  12  20  33  58  77 120 160 188 230 299 338
#     4  10  23  39  51  80 124 157 198 238 283 358
#     4  10  22  35  52  85 123 148 193 230 280 359
#
# _framework density 17.106930999999999
#
# number of rings (size 3 to 8) (size 9 to 14) (size 15 to 20)
#    1.091    0.000    5.455    3.818    0.000    2.909 
#    0.000    0.000    0.000    0.000    0.000    1.273 
#    8.182    0.000    0.000    0.000    0.000    0.000 
#
# Total GULP energy -122673.259150 kJ/mol
# GULP energy per Si atom -5576.057234 kJ/mol
# Density = 1.706800 g / cm^3
# Si number density = 17.106931 Si / 1000 Ang^3
#
#
#
# Elastic Constant Matrix: (Units=GPa)
#
#
# Indices 1 2 3 4 5 6 
#
# 1 27.3498 15.1784 24.3184 0.0001 5.3109 0.0000
# 2 15.1784 70.7980 51.0121 0.0000 0.1695 0.0000
# 3 24.3184 51.0121 126.6087 0.0001 6.5580 0.0001
# 4 0.0001 0.0000 0.0001 41.7591 0.0001 -9.4794
# 5 5.3109 0.1695 6.5580 0.0001 28.1331 0.0000
# 6 0.0000 0.0000 0.0001 -9.4794 0.0000 27.8920
#
#
#
# Elastic Compliance Matrix: (Units=1/GPa)
#
#
# Indices 1 2 3 4 5 6 
#
# 1 0.046664 -0.005355 -0.006428 0.000000 -0.007278 0.000000
# 2 -0.005355 0.020605 -0.007409 0.000000 0.002614 0.000000
# 3 -0.006428 -0.007409 0.012200 0.000000 -0.001586 0.000000
# 4 0.000000 0.000000 0.000000 0.025949 0.000000 0.008819
# 5 -0.007278 0.002614 -0.001586 0.000000 0.037273 0.000000
# 6 0.000000 0.000000 0.000000 0.008819 0.000000 0.038850
#
#
# Mechanical properties :
#
#
# Convention : Reuss Voigt Hill
#
# Bulk Modulus (GPa) = 24.33979 45.08603 34.71291
# Shear Modulus (GPa) = 21.40223 28.50670 24.95447
#
# Velocity S-wave (km/s) = 3.54091 4.08656 3.82348
# Velocity P-wave (km/s) = 5.56563 6.97706 6.31093
#
# Compressibility (1/GPa) = 0.04108498
#
# Stress axis : x y z
#
# Youngs Moduli (GPa) = 21.42958 48.53269 81.96543
#
# Poissons Ratio (x) = 0.25990 0.52691
# Poissons Ratio (y) = 0.11476 0.60725
# Poissons Ratio (z) = 0.13776 0.35956
#
# Static dielectric constant tensor:
#      x y z
#    x 1.588690 0.000000 0.027730 
#    y 0.000000 1.597420 0.000000 
#    z 0.027730 0.000000 1.591440 
# 
# From -- ./inp_files/154996.got.cif
#   From: 2010.05.17/outbox.cif.g08.bks.cpg/sg15_78_cif.got.tgz:154996.got - 2010.06.03 18:47:42.
