data_PCOD9269808
_publ_section_title
;
Structure prediction by ZEFSAII (Michael W. Deem and Ramdas Pophale) SiO2 
 PCOD9269808
Probable space group: C 2/C
;
_chemical_formula_sum "Si O2"
_cell_formula_units_Z 48
_cell_length_a 6.732080
_cell_length_b 19.500970
_cell_length_c 26.378914
_cell_angle_alpha 90.000000
_cell_angle_beta 42.571222
_cell_angle_gamma 90.000000
_cell_volume 2342.794267
_symmetry_space_group_name_H-M "C 2/C"
_symmetry_group_IT_number 15
_symmetry_cell_setting 'monoclinic'
loop_
_space_group_symop_operation_xyz
x,y,z
-x,y,1/2-z
-x,-y,-z
x,-y,1/2+z
1/2+x,1/2+y,z
1/2-x,1/2+y,1/2-z
1/2-x,1/2-y,-z
1/2+x,1/2-y,1/2+z
loop_
_atom_site_type_symbol
_atom_site_label
_atom_site_fract_x
_atom_site_fract_y
_atom_site_fract_z
Si Si1 0.708741 0.555509 0.169104
Si Si2 0.929703 0.062126 0.873888
Si Si3 0.379488 0.675946 0.593775
Si Si4 0.555307 0.176532 0.441763
Si Si5 0.131084 0.035187 0.425807
Si Si6 0.328857 0.857818 0.474516
O O1 0.500000 0.588924 0.250000
O O2 0.547669 0.486417 0.179476
O O3 0.787145 0.608988 0.109392
O O4 0.020801 0.537166 0.135415
O O5 0.592742 0.087984 0.935304
O O6 0.121008 0.128510 0.855798
O O7 0.008066 0.009604 0.903474
O O8 0.362979 0.757023 0.606422
O O9 0.167895 0.658203 0.586048
O O10 0.706112 0.664679 0.508795
O O11 0.621924 0.194766 0.488352
O O12 0.982976 0.109129 0.452990
O O13 0.000000 0.000000 0.500000
#
# Coordination Sequence:
#
# PCOD9269808 Si02
#       6
#     8   8   8   8   8   8
#     4  12  25  39  59  86 122 162 208 246 299 365
#     4  11  21  35  59  89 117 156 199 251 302 353
#     4  10  20  34  61  91 118 150 200 253 307 356
#     4  10  21  36  55  89 122 158 194 246 306 364
#     4  12  19  35  62  89 117 150 195 256 307 347
#     4  11  18  33  62  92 117 148 197 256 304 358
#
# _framework density 20.488354000000001
#
# number of rings (size 3 to 8) (size 9 to 14) (size 15 to 20)
#    0.000    1.000    6.667    2.000    0.000    0.667 
#    0.000    0.000    7.333    0.000    0.000    0.000 
#    0.000    0.000    0.000    0.000    0.000    0.000 
#
# Total GULP energy -133667.916369 kJ/mol
# GULP energy per Si atom -5569.496515 kJ/mol
# Density = 2.044172 g / cm^3
# Si number density = 20.488354 Si / 1000 Ang^3
#
#
#
# Elastic Constant Matrix: (Units=GPa)
#
#
# Indices 1 2 3 4 5 6 
#
# 1 128.3826 17.3301 17.1477 -0.0011 5.9234 0.0027
# 2 17.3301 69.8702 -3.3077 -0.0012 5.1565 0.0017
# 3 17.1477 -3.3077 42.8636 -0.0007 -3.5636 0.0016
# 4 -0.0011 -0.0012 -0.0007 12.2580 0.0005 7.9235
# 5 5.9234 5.1565 -3.5636 0.0005 14.4259 -0.0005
# 6 0.0027 0.0017 0.0016 7.9235 -0.0005 35.1543
#
#
#
# Elastic Compliance Matrix: (Units=1/GPa)
#
#
# Indices 1 2 3 4 5 6 
#
# 1 0.008781 -0.002083 -0.003994 0.000001 -0.003848 -0.000001
# 2 -0.002083 0.015216 0.001661 0.000002 -0.004173 -0.000001
# 3 -0.003994 0.001661 0.025670 0.000002 0.007387 -0.000001
# 4 0.000001 0.000002 0.000002 0.095492 -0.000005 -0.021523
# 5 -0.003848 -0.004173 0.007387 -0.000005 0.074216 0.000002
# 6 -0.000001 -0.000001 -0.000001 -0.021523 0.000002 0.033297
#
#
# Mechanical properties :
#
#
# Convention : Reuss Voigt Hill
#
# Bulk Modulus (GPa) = 24.48926 33.71740 29.10333
# Shear Modulus (GPa) = 18.17419 26.36406 22.26913
#
# Velocity S-wave (km/s) = 2.98157 3.59107 3.30042
# Velocity P-wave (km/s) = 4.88178 5.80405 5.36277
#
# Compressibility (1/GPa) = 0.04083422
#
# Stress axis : x y z
#
# Youngs Moduli (GPa) = 113.87759 65.72226 38.95630
#
# Poissons Ratio (x) = 0.13691 0.15558
# Poissons Ratio (y) = 0.23723 -0.06469
# Poissons Ratio (z) = 0.45479 -0.10914
#
# Static dielectric constant tensor:
#      x y z
#    x 1.862360 0.000000 0.061490 
#    y 0.000000 1.801930 0.000000 
#    z 0.061490 0.000000 1.709400 
# 
# From -- ./inp_files/261290.got.cif
#   From: 2010.05.17/outbox.cif.g08.bks.cpg/sg15_131_cif.got.tgz:261290.got - 2010.06.03 18:47:42.
