data_PCOD9269118
_publ_section_title
;
Structure prediction by ZEFSAII (Michael W. Deem and Ramdas Pophale) SiO2 
 PCOD9269118
Probable space group: C 2/C
;
_chemical_formula_sum "Si O2"
_cell_formula_units_Z 64
_cell_length_a 22.640642
_cell_length_b 17.538719
_cell_length_c 8.081551
_cell_angle_alpha 90.000000
_cell_angle_beta 84.081707
_cell_angle_gamma 90.000000
_cell_volume 3191.981180
_symmetry_space_group_name_H-M "C 2/C"
_symmetry_group_IT_number 15
_symmetry_cell_setting 'monoclinic'
loop_
_space_group_symop_operation_xyz
x,y,z
-x,y,1/2-z
-x,-y,-z
x,-y,1/2+z
1/2+x,1/2+y,z
1/2-x,1/2+y,1/2-z
1/2-x,1/2-y,-z
1/2+x,1/2-y,1/2+z
loop_
_atom_site_type_symbol
_atom_site_label
_atom_site_fract_x
_atom_site_fract_y
_atom_site_fract_z
Si Si1 0.758922 0.650199 0.655493
Si Si2 0.033627 0.213373 0.067912
Si Si3 0.315953 0.197930 0.291962
Si Si4 0.854472 0.737408 0.792071
Si Si5 0.724787 0.616807 0.135282
Si Si6 0.687683 0.478283 0.324878
Si Si7 0.562524 0.412812 0.297442
Si Si8 0.081449 0.765241 0.074455
O O1 0.711715 0.716970 0.712858
O O2 0.785386 0.665459 0.467282
O O3 0.813768 0.664541 0.765447
O O4 0.726376 0.570760 0.683399
O O5 0.090117 0.264195 0.100555
O O6 0.000000 0.195440 0.250000
O O7 0.052615 0.136427 0.967628
O O8 0.985575 0.252415 0.961174
O O9 0.291704 0.145342 0.151942
O O10 0.385170 0.209612 0.307882
O O11 0.812565 0.805748 0.863825
O O12 0.880276 0.762479 0.604825
O O13 0.703979 0.565766 0.296540
O O14 0.707391 0.564812 0.985606
O O15 0.617768 0.467711 0.310773
O O16 0.500000 0.446655 0.250000
O O17 0.579895 0.348911 0.155907
#
# Coordination Sequence:
#
# PCOD9269118 Si02
#       8
#     8   8   8   8   8   8   8   8
#     4   9  18  31  55  74 104 132 174 211 273 313
#     4   9  17  32  51  77 104 132 175 220 265 305
#     4   9  17  34  52  81  98 136 170 221 268 316
#     4   9  18  34  52  80 101 138 168 221 262 319
#     4  11  24  33  51  71 109 136 182 216 266 307
#     4  12  23  37  50  75 103 148 178 226 260 314
#     4  10  20  34  51  74  99 138 181 218 256 305
#     4   9  17  30  57  75 105 132 168 220 264 310
#
# _framework density 20.050243999999999
#
# number of rings (size 3 to 8) (size 9 to 14) (size 15 to 20)
#    0.000    2.250    2.500    1.500    1.750    3.000 
#    0.000    2.500    0.000    0.000    0.000    0.875 
#    0.000    7.000    0.000    2.375    0.000    0.875 
#
# Total GULP energy -178583.230133 kJ/mol
# GULP energy per Si atom -5580.725942 kJ/mol
# Density = 2.000461 g / cm^3
# Si number density = 20.050244 Si / 1000 Ang^3
#
#
#
# Elastic Constant Matrix: (Units=GPa)
#
#
# Indices 1 2 3 4 5 6 
#
# 1 103.3364 27.2454 16.2921 0.0000 27.3908 0.0000
# 2 27.2454 26.4926 0.9488 0.0000 5.7261 0.0000
# 3 16.2921 0.9488 71.1423 0.0000 13.7941 0.0000
# 4 0.0000 0.0000 0.0000 14.2858 0.0000 2.8472
# 5 27.3908 5.7261 13.7941 0.0000 30.5624 0.0000
# 6 0.0000 0.0000 0.0000 2.8472 0.0000 19.6559
#
#
#
# Elastic Compliance Matrix: (Units=1/GPa)
#
#
# Indices 1 2 3 4 5 6 
#
# 1 0.016918 -0.014807 -0.001397 0.000000 -0.011758 0.000000
# 2 -0.014807 0.052364 0.002216 0.000000 0.002460 0.000000
# 3 -0.001397 0.002216 0.015545 0.000000 -0.006179 0.000000
# 4 0.000000 0.000000 0.000000 0.072080 0.000000 -0.010441
# 5 -0.011758 0.002460 -0.006179 0.000000 0.045585 0.000000
# 6 0.000000 0.000000 0.000000 -0.010441 0.000000 0.052388
#
#
# Mechanical properties :
#
#
# Convention : Reuss Voigt Hill
#
# Bulk Modulus (GPa) = 17.59065 32.21600 24.90332
# Shear Modulus (GPa) = 16.56687 23.33315 19.95001
#
# Velocity S-wave (km/s) = 2.87761 3.41506 3.15779
# Velocity P-wave (km/s) = 4.45344 5.62607 5.07375
#
# Compressibility (1/GPa) = 0.05684838
#
# Stress axis : x y z
#
# Youngs Moduli (GPa) = 59.10865 19.09726 64.33021
#
# Poissons Ratio (x) = 0.28278 0.08988
# Poissons Ratio (y) = 0.87525 -0.14253
# Poissons Ratio (z) = 0.08258 -0.04231
#
# Static dielectric constant tensor:
#      x y z
#    x 1.744910 0.000000 0.008450 
#    y 0.000000 1.640720 0.000000 
#    z 0.008450 0.000000 1.896840 
# 
# From -- ./inp_files/62491.got.cif
#   From: 2010.05.17/outbox.cif.g08.bks.cpg/sg15_32_cif.got.tgz:62491.got - 2010.06.03 18:47:42.
