data_PCOD9269733
_publ_section_title
;
Structure prediction by ZEFSAII (Michael W. Deem and Ramdas Pophale) SiO2 
 PCOD9269733
Probable space group: C 2/C
;
_chemical_formula_sum "Si O2"
_cell_formula_units_Z 56
_cell_length_a 8.632607
_cell_length_b 29.334065
_cell_length_c 10.893813
_cell_angle_alpha 90.000000
_cell_angle_beta 53.562365
_cell_angle_gamma 90.000000
_cell_volume 2219.331892
_symmetry_space_group_name_H-M "C 2/C"
_symmetry_group_IT_number 15
_symmetry_cell_setting 'monoclinic'
loop_
_space_group_symop_operation_xyz
x,y,z
-x,y,1/2-z
-x,-y,-z
x,-y,1/2+z
1/2+x,1/2+y,z
1/2-x,1/2+y,1/2-z
1/2-x,1/2-y,-z
1/2+x,1/2-y,1/2+z
loop_
_atom_site_type_symbol
_atom_site_label
_atom_site_fract_x
_atom_site_fract_y
_atom_site_fract_z
Si Si1 0.828443 0.406603 0.046358
Si Si2 0.231623 0.584406 0.649654
Si Si3 0.295048 0.180436 0.911986
Si Si4 0.274390 0.835828 0.874880
Si Si5 0.727420 0.014369 0.120912
Si Si6 0.780463 0.228228 0.307799
Si Si7 0.291694 0.584578 0.285862
O O1 0.762077 0.358582 0.015515
O O2 0.759357 0.448199 0.992230
O O3 0.067131 0.410623 0.944560
O O4 0.733305 0.412037 0.222664
O O5 0.300088 0.631271 0.556113
O O6 0.305306 0.536426 0.562588
O O7 0.000000 0.583286 0.750000
O O8 0.500000 0.175368 0.750000
O O9 0.201188 0.221529 0.877241
O O10 0.314892 0.194971 0.044914
O O11 0.500000 0.831592 0.750000
O O12 0.211169 0.789373 0.835365
O O13 0.211168 0.876014 0.814516
O O14 0.500000 0.009318 0.250000
O O15 0.794109 0.036024 0.217055
O O16 0.000000 0.228916 0.250000
O O17 0.500000 0.589544 0.250000
#
# Coordination Sequence:
#
# PCOD9269733 Si02
#       7
#     8   8   8   8   8   8   8
#     4   9  19  36  56  88 123 150 214 263 294 372
#     4  10  20  34  60  86 115 164 207 253 304 362
#     4   9  21  37  63  96 125 159 211 255 301 373
#     4   9  19  33  59  89 117 159 203 252 300 367
#     4   8  17  33  53  83 114 159 205 256 298 358
#     4  10  20  40  66  94 125 158 211 260 306 369
#     4   9  17  31  55  88 116 152 203 252 301 357
#
# _framework density 25.232818999999999
#
# number of rings (size 3 to 8) (size 9 to 14) (size 15 to 20)
#    0.000    2.857    0.000    2.143    8.000    5.143 
#    2.571    0.714    3.143   14.571    0.000    0.000 
#    0.000    0.000    0.000    0.000    0.000    0.000 
#
# Total GULP energy -156209.532613 kJ/mol
# GULP energy per Si atom -5578.911879 kJ/mol
# Density = 2.517539 g / cm^3
# Si number density = 25.232819 Si / 1000 Ang^3
#
#
#
# Elastic Constant Matrix: (Units=GPa)
#
#
# Indices 1 2 3 4 5 6 
#
# 1 116.8189 34.0945 23.8603 0.0000 2.8887 0.0000
# 2 34.0945 141.0732 18.5560 0.0000 17.0613 0.0000
# 3 23.8603 18.5560 92.3520 0.0000 -5.7979 0.0000
# 4 0.0000 0.0000 0.0000 16.5191 0.0000 12.2776
# 5 2.8887 17.0613 -5.7979 0.0000 37.4861 0.0000
# 6 0.0000 0.0000 0.0000 12.2776 0.0000 12.4613
#
#
#
# Elastic Compliance Matrix: (Units=1/GPa)
#
#
# Indices 1 2 3 4 5 6 
#
# 1 0.009579 -0.002025 -0.002077 0.000000 -0.000138 0.000000
# 2 -0.002025 0.008217 -0.001366 0.000000 -0.003795 0.000000
# 3 -0.002077 -0.001366 0.011803 0.000000 0.002607 0.000000
# 4 0.000000 0.000000 0.000000 0.226121 0.000000 -0.222788
# 5 -0.000138 -0.003795 0.002607 0.000000 0.028818 0.000000
# 6 0.000000 0.000000 0.000000 -0.222788 0.000000 0.299753
#
#
# Mechanical properties :
#
#
# Convention : Reuss Voigt Hill
#
# Bulk Modulus (GPa) = 53.58244 55.91839 54.75042
# Shear Modulus (GPa) = 8.31331 31.54218 19.92774
#
# Velocity S-wave (km/s) = 1.81708 3.53943 2.81331
# Velocity P-wave (km/s) = 5.06791 6.23799 5.68314
#
# Compressibility (1/GPa) = 0.01866283
#
# Stress axis : x y z
#
# Youngs Moduli (GPa) = 104.39645 121.70491 84.72590
#
# Poissons Ratio (x) = 0.24648 0.17594
# Poissons Ratio (y) = 0.21143 0.11573
# Poissons Ratio (z) = 0.21678 0.16624
#
# Static dielectric constant tensor:
#      x y z
#    x 2.112590 0.000000 0.000010 
#    y 0.000000 2.114060 0.000000 
#    z 0.000010 0.000000 2.173300 
# 
# From -- ./inp_files/82461.got.cif
#   From: 2010.05.17/outbox.cif.g08.bks.cpg/sg15_42_cif.got.tgz:82461.got - 2010.06.03 18:47:42.
