data_PCOD9269361
_publ_section_title
;
Structure prediction by ZEFSAII (Michael W. Deem and Ramdas Pophale) SiO2 
 PCOD9269361
Probable space group: C 2/C
;
_chemical_formula_sum "Si O2"
_cell_formula_units_Z 48
_cell_length_a 18.853544
_cell_length_b 16.652629
_cell_length_c 9.094135
_cell_angle_alpha 90.000000
_cell_angle_beta 57.042287
_cell_angle_gamma 90.000000
_cell_volume 2395.722938
_symmetry_space_group_name_H-M "C 2/C"
_symmetry_group_IT_number 15
_symmetry_cell_setting 'monoclinic'
loop_
_space_group_symop_operation_xyz
x,y,z
-x,y,1/2-z
-x,-y,-z
x,-y,1/2+z
1/2+x,1/2+y,z
1/2-x,1/2+y,1/2-z
1/2-x,1/2-y,-z
1/2+x,1/2-y,1/2+z
loop_
_atom_site_type_symbol
_atom_site_label
_atom_site_fract_x
_atom_site_fract_y
_atom_site_fract_z
Si Si1 0.599649 0.717839 0.666796
Si Si2 0.820210 0.258248 0.608860
Si Si3 0.249248 0.073833 0.168414
Si Si4 0.684947 0.151169 0.860399
Si Si5 0.595236 0.878266 0.179303
Si Si6 0.798881 0.055242 0.955237
O O1 0.500000 0.723616 0.750000
O O2 0.628196 0.749081 0.796887
O O3 0.648134 0.775132 0.496889
O O4 0.631103 0.625396 0.616955
O O5 0.751289 0.330487 0.690518
O O6 0.762202 0.179896 0.666763
O O7 0.881574 0.288601 0.410387
O O8 0.238364 0.039276 0.342657
O O9 0.339787 0.066416 0.985093
O O10 0.180641 0.029515 0.144629
O O11 0.615338 0.117840 0.828490
O O12 0.727251 0.092836 0.930186
O O13 0.500000 0.897461 0.250000
#
# Coordination Sequence:
#
# PCOD9269361 Si02
#       6
#     8   8   8   8   8   8
#     4  11  20  36  62  88 112 146 188 243 281 324
#     4   9  19  36  56  82 112 148 196 219 278 339
#     4  10  21  38  55  79 115 151 191 226 272 350
#     4  11  18  35  62  82 111 152 189 234 275 339
#     4  10  20  34  55  87 115 143 183 238 286 325
#     4  11  21  39  59  83 110 155 194 224 281 345
#
# _framework density 20.035706000000001
#
# number of rings (size 3 to 8) (size 9 to 14) (size 15 to 20)
#    1.000    0.667    3.333    3.500    0.000    0.000 
#    0.000    5.000    0.000    0.000    0.000    0.000 
#    0.000    0.000    0.000    0.000    0.000    0.000 
#
# Total GULP energy -133621.910455 kJ/mol
# GULP energy per Si atom -5567.579602 kJ/mol
# Density = 1.999010 g / cm^3
# Si number density = 20.035706 Si / 1000 Ang^3
#
#
#
# Elastic Constant Matrix: (Units=GPa)
#
#
# Indices 1 2 3 4 5 6 
#
# 1 60.2746 11.8028 12.2154 0.0000 9.7949 0.0000
# 2 11.8028 56.9913 3.6124 0.0000 -2.7037 0.0000
# 3 12.2154 3.6124 54.0334 0.0000 16.8399 0.0000
# 4 0.0000 0.0000 0.0000 15.1828 0.0000 8.4351
# 5 9.7949 -2.7037 16.8399 0.0000 29.6785 0.0000
# 6 0.0000 0.0000 0.0000 8.4351 0.0000 23.0767
#
#
#
# Elastic Compliance Matrix: (Units=1/GPa)
#
#
# Indices 1 2 3 4 5 6 
#
# 1 0.018687 -0.003969 -0.002338 0.000000 -0.005202 0.000000
# 2 -0.003969 0.018652 -0.001564 0.000000 0.003897 0.000000
# 3 -0.002338 -0.001564 0.023014 0.000000 -0.012429 0.000000
# 4 0.000000 0.000000 0.000000 0.082648 0.000000 -0.030210
# 5 -0.005202 0.003897 -0.012429 0.000000 0.042819 0.000000
# 6 0.000000 0.000000 0.000000 -0.030210 0.000000 0.054376
#
#
# Mechanical properties :
#
#
# Convention : Reuss Voigt Hill
#
# Bulk Modulus (GPa) = 22.41562 25.17339 23.79451
# Shear Modulus (GPa) = 18.46324 23.16549 20.81437
#
# Velocity S-wave (km/s) = 3.03894 3.40400 3.22664
# Velocity P-wave (km/s) = 4.85033 5.29539 5.07774
#
# Compressibility (1/GPa) = 0.04461174
#
# Stress axis : x y z
#
# Youngs Moduli (GPa) = 53.51290 53.61221 43.45207
#
# Poissons Ratio (x) = 0.21277 0.10159
# Poissons Ratio (y) = 0.21238 0.06797
# Poissons Ratio (z) = 0.12511 0.08386
#
# Static dielectric constant tensor:
#      x y z
#    x 1.678440 0.000000 0.027700 
#    y 0.000000 1.796820 0.000000 
#    z 0.027700 0.000000 1.712580 
# 
# From -- ./inp_files/48367.got.cif
#   From: 2010.05.17/outbox.cif.g08.bks.cpg/sg15_25_cif.got.tgz:48367.got - 2010.06.03 18:47:42.
