data_PCOD9269698
_publ_section_title
;
Structure prediction by ZEFSAII (Michael W. Deem and Ramdas Pophale) SiO2 
 PCOD9269698
Probable space group: C 2/C
;
_chemical_formula_sum "Si O2"
_cell_formula_units_Z 56
_cell_length_a 25.524541
_cell_length_b 18.934281
_cell_length_c 15.960712
_cell_angle_alpha 90.000000
_cell_angle_beta 159.740067
_cell_angle_gamma 90.000000
_cell_volume 2671.074818
_symmetry_space_group_name_H-M "C 2/C"
_symmetry_group_IT_number 15
_symmetry_cell_setting 'monoclinic'
loop_
_space_group_symop_operation_xyz
x,y,z
-x,y,1/2-z
-x,-y,-z
x,-y,1/2+z
1/2+x,1/2+y,z
1/2-x,1/2+y,1/2-z
1/2-x,1/2-y,-z
1/2+x,1/2-y,1/2+z
loop_
_atom_site_type_symbol
_atom_site_label
_atom_site_fract_x
_atom_site_fract_y
_atom_site_fract_z
Si Si1 0.020178 0.396217 0.682492
Si Si2 0.715983 0.795425 0.237570
Si Si3 0.344569 0.161927 0.663049
Si Si4 0.191090 0.827071 0.446196
Si Si5 0.033005 0.813677 0.701966
Si Si6 0.162618 0.146631 0.102726
Si Si7 0.573625 0.952799 0.455253
O O1 0.000000 0.402677 0.750000
O O2 0.931192 0.325369 0.526597
O O3 0.944245 0.468181 0.535848
O O4 0.191138 0.384785 0.911466
O O5 0.693141 0.819141 0.298161
O O6 0.726230 0.711808 0.251351
O O7 0.865658 0.823415 0.414654
O O8 0.175110 0.145999 0.375083
O O9 0.417152 0.231548 0.730546
O O10 0.462053 0.099612 0.836397
O O11 0.250000 0.750000 0.500000
O O12 0.196517 0.833407 0.555904
O O13 0.019766 0.848311 0.163233
O O14 0.000000 0.830512 0.750000
O O15 0.257788 0.078620 0.276822
O O16 0.500000 0.949529 0.250000
#
# Coordination Sequence:
#
# PCOD9269698 Si02
#       7
#     8   8   8   8   8   8   8
#     4  11  25  45  64  90 129 176 219 271 334 395
#     4  11  21  35  62  92 122 161 213 266 317 382
#     4  10  20  34  59  88 122 167 201 260 322 379
#     4  11  23  43  69  97 132 170 224 279 326 393
#     4   9  19  33  53  89 123 153 202 256 310 378
#     4  11  24  40  67 102 129 171 223 275 330 392
#     4  11  25  45  63  92 134 176 218 268 337 399
#
# _framework density 20.965343000000001
#
# number of rings (size 3 to 8) (size 9 to 14) (size 15 to 20)
#    0.000    1.429    2.857    2.143    4.000    3.429 
#    2.571    1.429    0.000    0.000    0.000    0.000 
#    0.000    0.000    0.000    0.000    0.000    0.000 
#
# Total GULP energy -156047.463906 kJ/mol
# GULP energy per Si atom -5573.123711 kJ/mol
# Density = 2.091762 g / cm^3
# Si number density = 20.965343 Si / 1000 Ang^3
#
#
#
# Elastic Constant Matrix: (Units=GPa)
#
#
# Indices 1 2 3 4 5 6 
#
# 1 55.6898 8.4004 36.2974 0.0000 15.9958 0.0000
# 2 8.4004 76.2375 25.0547 0.0000 12.7412 0.0000
# 3 36.2974 25.0547 140.1510 0.0000 37.0528 0.0000
# 4 0.0000 0.0000 0.0000 38.0078 0.0000 17.3956
# 5 15.9958 12.7412 37.0528 0.0000 30.0403 0.0000
# 6 0.0000 0.0000 0.0000 17.3956 0.0000 54.3893
#
#
#
# Elastic Compliance Matrix: (Units=1/GPa)
#
#
# Indices 1 2 3 4 5 6 
#
# 1 0.022591 0.000007 -0.003963 0.000000 -0.007143 0.000000
# 2 0.000007 0.014304 -0.001416 0.000000 -0.004325 0.000000
# 3 -0.003963 -0.001416 0.011423 0.000000 -0.011379 0.000000
# 4 0.000000 0.000000 0.000000 0.030822 0.000000 -0.009858
# 5 -0.007143 -0.004325 -0.011379 0.000000 0.052961 0.000000
# 6 0.000000 0.000000 0.000000 -0.009858 0.000000 0.021539
#
#
# Mechanical properties :
#
#
# Convention : Reuss Voigt Hill
#
# Bulk Modulus (GPa) = 26.61425 45.73148 36.17286
# Shear Modulus (GPa) = 28.26319 37.97588 33.11954
#
# Velocity S-wave (km/s) = 3.67562 4.26063 3.97889
# Velocity P-wave (km/s) = 5.54396 6.78706 6.19676
#
# Compressibility (1/GPa) = 0.03757386
#
# Stress axis : x y z
#
# Youngs Moduli (GPa) = 44.26621 69.91000 87.54300
#
# Poissons Ratio (x) = -0.00050 0.34697
# Poissons Ratio (y) = -0.00032 0.12393
# Poissons Ratio (z) = 0.17544 0.09897
#
# Static dielectric constant tensor:
#      x y z
#    x 1.776040 0.000000 -0.047900 
#    y 0.000000 1.818860 0.000000 
#    z -0.047900 0.000000 1.891500 
# 
# From -- ./inp_files/222965.got.cif
#   From: 2010.05.17/outbox.cif.g08.bks.cpg/sg15_112_cif.got.tgz:222965.got - 2010.06.03 18:47:42.
