data_PCOD9269439
_publ_section_title
;
Structure prediction by ZEFSAII (Michael W. Deem and Ramdas Pophale) SiO2 
 PCOD9269439
Probable space group: C 2/C
;
_chemical_formula_sum "Si O2"
_cell_formula_units_Z 56
_cell_length_a 23.287774
_cell_length_b 8.939647
_cell_length_c 18.910716
_cell_angle_alpha 90.000000
_cell_angle_beta 131.348244
_cell_angle_gamma 90.000000
_cell_volume 2955.476037
_symmetry_space_group_name_H-M "C 2/C"
_symmetry_group_IT_number 15
_symmetry_cell_setting 'monoclinic'
loop_
_space_group_symop_operation_xyz
x,y,z
-x,y,1/2-z
-x,-y,-z
x,-y,1/2+z
1/2+x,1/2+y,z
1/2-x,1/2+y,1/2-z
1/2-x,1/2-y,-z
1/2+x,1/2-y,1/2+z
loop_
_atom_site_type_symbol
_atom_site_label
_atom_site_fract_x
_atom_site_fract_y
_atom_site_fract_z
Si Si1 0.045300 0.019815 0.359746
Si Si2 0.393903 0.287931 0.991851
Si Si3 0.837427 0.740351 0.594679
Si Si4 0.824332 0.975194 0.347731
Si Si5 0.870651 0.445723 0.997164
Si Si6 0.220906 0.792147 0.806567
Si Si7 0.025904 0.203557 0.482475
O O1 0.120565 0.114963 0.402195
O O2 0.009278 0.109489 0.397300
O O3 0.000000 0.015309 0.250000
O O4 0.065531 0.858274 0.406851
O O5 0.328558 0.406711 0.916183
O O6 0.454678 0.286940 0.976672
O O7 0.367525 0.120978 0.983263
O O8 0.750000 0.750000 0.500000
O O9 0.873522 0.601377 0.581964
O O10 0.836751 0.741280 0.678580
O O11 0.755768 0.855035 0.296942
O O12 0.903678 0.882735 0.420956
O O13 0.815168 0.082831 0.273223
O O14 0.794741 0.369847 0.902899
O O15 0.941158 0.363613 0.015364
#
# Coordination Sequence:
#
# PCOD9269439 Si02
#       7
#     8   8   8   8   8   8   8
#     4  10  21  35  56  85 113 152 196 229 277 346
#     4  11  20  35  59  81 119 146 188 232 285 325
#     4   9  19  37  58  76 112 151 186 227 288 339
#     4  10  20  34  56  85 110 143 190 234 273 339
#     4   9  19  37  56  85 110 150 183 236 277 336
#     4  10  20  36  57  82 112 144 192 232 279 335
#     4   9  20  36  58  82 112 151 191 225 286 334
#
# _framework density 18.947876999999998
#
# number of rings (size 3 to 8) (size 9 to 14) (size 15 to 20)
#    0.000    2.286    0.000    5.571    4.000    0.000 
#    0.000   10.714    3.143    0.000    0.000    0.000 
#    0.000    0.000    0.000    0.000    0.000    0.000 
#
# Total GULP energy -156124.190138 kJ/mol
# GULP energy per Si atom -5575.863933 kJ/mol
# Density = 1.890475 g / cm^3
# Si number density = 18.947877 Si / 1000 Ang^3
#
#
#
# Elastic Constant Matrix: (Units=GPa)
#
#
# Indices 1 2 3 4 5 6 
#
# 1 85.8830 28.5577 28.7147 0.0000 -16.9300 0.0000
# 2 28.5577 109.8147 20.2329 0.0000 -6.4177 0.0000
# 3 28.7147 20.2329 84.5945 0.0000 -23.0735 0.0000
# 4 0.0000 0.0000 0.0000 19.8756 0.0000 1.7598
# 5 -16.9300 -6.4177 -23.0735 0.0000 20.7388 0.0000
# 6 0.0000 0.0000 0.0000 1.7598 0.0000 12.5269
#
#
#
# Elastic Compliance Matrix: (Units=1/GPa)
#
#
# Indices 1 2 3 4 5 6 
#
# 1 0.015116 -0.003043 -0.001858 0.000000 0.009331 0.000000
# 2 -0.003043 0.010144 -0.001744 0.000000 -0.001285 0.000000
# 3 -0.001858 -0.001744 0.017670 0.000000 0.017603 0.000000
# 4 0.000000 0.000000 0.000000 0.050947 0.000000 -0.007157
# 5 0.009331 -0.001285 0.017603 0.000000 0.075023 0.000000
# 6 0.000000 0.000000 0.000000 -0.007157 0.000000 0.080833
#
#
# Mechanical properties :
#
#
# Convention : Reuss Voigt Hill
#
# Bulk Modulus (GPa) = 33.73819 48.36698 41.05258
# Shear Modulus (GPa) = 18.32147 24.14740 21.23444
#
# Velocity S-wave (km/s) = 3.11294 3.57376 3.35128
# Velocity P-wave (km/s) = 5.54662 6.52769 6.05705
#
# Compressibility (1/GPa) = 0.02964001
#
# Stress axis : x y z
#
# Youngs Moduli (GPa) = 66.15320 98.58193 56.59265
#
# Poissons Ratio (x) = 0.30003 0.10515
# Poissons Ratio (y) = 0.20133 0.09868
# Poissons Ratio (z) = 0.12292 0.17190
#
# Static dielectric constant tensor:
#      x y z
#    x 1.674780 0.000000 -0.009350 
#    y 0.000000 1.645180 0.000000 
#    z -0.009350 0.000000 1.700280 
# 
# From -- ./inp_files/218640.got.cif
#   From: 2010.05.17/outbox.cif.g08.bks.cpg/sg15_110_cif.got.tgz:218640.got - 2010.06.03 18:47:42.
