data_PCOD9269101
_publ_section_title
;
Structure prediction by ZEFSAII (Michael W. Deem and Ramdas Pophale) SiO2 
 PCOD9269101
Probable space group: C 2/C
;
_chemical_formula_sum "Si O2"
_cell_formula_units_Z 64
_cell_length_a 20.220972
_cell_length_b 26.353276
_cell_length_c 9.488348
_cell_angle_alpha 90.000000
_cell_angle_beta 47.856521
_cell_angle_gamma 90.000000
_cell_volume 3749.030689
_symmetry_space_group_name_H-M "C 2/C"
_symmetry_group_IT_number 15
_symmetry_cell_setting 'monoclinic'
loop_
_space_group_symop_operation_xyz
x,y,z
-x,y,1/2-z
-x,-y,-z
x,-y,1/2+z
1/2+x,1/2+y,z
1/2-x,1/2+y,1/2-z
1/2-x,1/2-y,-z
1/2+x,1/2-y,1/2+z
loop_
_atom_site_type_symbol
_atom_site_label
_atom_site_fract_x
_atom_site_fract_y
_atom_site_fract_z
Si Si1 0.107195 0.550022 0.083055
Si Si2 0.072296 0.537861 0.831686
Si Si3 0.757677 0.362582 0.087949
Si Si4 0.401135 0.684201 0.847642
Si Si5 0.731817 0.292568 0.718917
Si Si6 0.527617 0.152014 0.865625
Si Si7 0.267578 0.176330 0.872308
Si Si8 0.119436 0.706979 0.258781
O O1 0.113081 0.494554 0.146305
O O2 0.000000 0.565210 0.250000
O O3 0.132167 0.547958 0.882507
O O4 0.178462 0.589854 0.042401
O O5 0.026250 0.590911 0.862374
O O6 0.000000 0.500000 0.000000
O O7 0.666208 0.355315 0.131975
O O8 0.737055 0.357325 0.283597
O O9 0.821931 0.315253 0.953155
O O10 0.500000 0.667387 0.750000
O O11 0.402929 0.734813 0.746159
O O12 0.352732 0.700254 0.061110
O O13 0.742853 0.234624 0.656885
O O14 0.726151 0.327392 0.587850
O O15 0.817139 0.301721 0.696518
O O16 0.500000 0.171458 0.750000
O O17 0.628484 0.166187 0.752996
O O18 0.467573 0.175095 0.075694
#
# Coordination Sequence:
#
# PCOD9269101 Si02
#       8
#     8   8   8   8   8   8   8   8
#     4  10  20  35  53  80 112 150 177 225 276 334
#     4  10  20  34  50  75 115 144 179 217 268 327
#     4  11  21  35  55  80 106 149 196 231 272 333
#     4  11  22  38  54  77 107 145 191 242 279 320
#     4  10  20  37  50  73 112 144 186 234 276 318
#     4  12  22  32  51  82 113 153 187 216 272 338
#     4  11  20  34  52  74 111 145 183 234 266 324
#     4  11  20  33  52  77 110 151 190 224 267 332
#
# _framework density 17.071079000000001
#
# number of rings (size 3 to 8) (size 9 to 14) (size 15 to 20)
#    0.000    1.250    5.000    4.125    0.000    0.000 
#    0.000    0.625    0.000    0.000    0.000    0.875 
#    0.000    0.000    0.000    0.000    0.000    0.000 
#
# Total GULP energy -178248.092731 kJ/mol
# GULP energy per Si atom -5570.252898 kJ/mol
# Density = 1.703222 g / cm^3
# Si number density = 17.071079 Si / 1000 Ang^3
#
#
#
# Elastic Constant Matrix: (Units=GPa)
#
#
# Indices 1 2 3 4 5 6 
#
# 1 67.1801 11.6237 28.2503 0.0000 0.5144 0.0000
# 2 11.6237 51.0963 13.4914 0.0000 -6.8010 0.0000
# 3 28.2503 13.4914 81.3183 0.0000 14.0902 0.0000
# 4 0.0000 0.0000 0.0000 26.8279 0.0000 -3.8305
# 5 0.5144 -6.8010 14.0902 0.0000 28.7954 0.0000
# 6 0.0000 0.0000 0.0000 -3.8305 0.0000 23.5121
#
#
#
# Elastic Compliance Matrix: (Units=1/GPa)
#
#
# Indices 1 2 3 4 5 6 
#
# 1 0.017859 -0.002118 -0.006240 0.000000 0.002234 0.000000
# 2 -0.002118 0.022138 -0.004206 0.000000 0.007325 0.000000
# 3 -0.006240 -0.004206 0.016735 0.000000 -0.009071 0.000000
# 4 0.000000 0.000000 0.000000 0.038162 0.000000 0.006217
# 5 0.002234 0.007325 -0.009071 0.000000 0.040856 0.000000
# 6 0.000000 0.000000 0.000000 0.006217 0.000000 0.043544
#
#
# Mechanical properties :
#
#
# Convention : Reuss Voigt Hill
#
# Bulk Modulus (GPa) = 31.64200 34.03616 32.83908
# Shear Modulus (GPa) = 23.26046 25.57570 24.41808
#
# Velocity S-wave (km/s) = 3.69530 3.87484 3.78614
# Velocity P-wave (km/s) = 6.06487 6.32459 6.19609
#
# Compressibility (1/GPa) = 0.03160356
#
# Stress axis : x y z
#
# Youngs Moduli (GPa) = 55.99530 45.17076 59.75607
#
# Poissons Ratio (x) = 0.09565 0.37287
# Poissons Ratio (y) = 0.11858 0.25136
# Poissons Ratio (z) = 0.34941 0.19001
#
# Static dielectric constant tensor:
#      x y z
#    x 1.686040 0.000000 0.062720 
#    y 0.000000 1.614720 0.000000 
#    z 0.062720 0.000000 1.622840 
# 
# From -- ./inp_files/59024.got.cif
#   From: 2010.05.17/outbox.cif.g08.bks.cpg/sg15_30_cif.got.tgz:59024.got - 2010.06.03 18:47:42.
