data_PCOD9269755
_publ_section_title
;
Structure prediction by ZEFSAII (Michael W. Deem and Ramdas Pophale) SiO2 
 PCOD9269755
Probable space group: C 2/C
;
_chemical_formula_sum "Si O2"
_cell_formula_units_Z 64
_cell_length_a 12.216686
_cell_length_b 21.748817
_cell_length_c 9.822511
_cell_angle_alpha 90.000000
_cell_angle_beta 88.791127
_cell_angle_gamma 90.000000
_cell_volume 2609.245253
_symmetry_space_group_name_H-M "C 2/C"
_symmetry_group_IT_number 15
_symmetry_cell_setting 'monoclinic'
loop_
_space_group_symop_operation_xyz
x,y,z
-x,y,1/2-z
-x,-y,-z
x,-y,1/2+z
1/2+x,1/2+y,z
1/2-x,1/2+y,1/2-z
1/2-x,1/2-y,-z
1/2+x,1/2-y,1/2+z
loop_
_atom_site_type_symbol
_atom_site_label
_atom_site_fract_x
_atom_site_fract_y
_atom_site_fract_z
Si Si1 0.246664 0.715847 0.807053
Si Si2 0.088283 0.533187 0.597320
Si Si3 0.493648 0.621380 0.090954
Si Si4 0.620235 0.914082 0.710702
Si Si5 0.423681 0.176828 0.877638
Si Si6 0.275260 0.586814 0.955953
Si Si7 0.066178 0.245040 0.534777
Si Si8 0.210843 0.953443 0.596628
O O1 0.193074 0.705214 0.661492
O O2 0.362991 0.748565 0.829397
O O3 0.266973 0.647050 0.863662
O O4 0.159573 0.748384 0.912330
O O5 0.104178 0.488345 0.723378
O O6 0.063981 0.603804 0.622193
O O7 0.208839 0.537548 0.531473
O O8 0.000000 0.500000 0.500000
O O9 0.500000 0.639613 0.250000
O O10 0.378287 0.590049 0.056115
O O11 0.594413 0.575501 0.067273
O O12 0.493757 0.680820 0.993843
O O13 0.500000 0.889067 0.750000
O O14 0.667892 0.906850 0.557134
O O15 0.720533 0.905420 0.811190
O O16 0.500000 0.197613 0.750000
O O17 0.476994 0.203344 0.011168
O O18 0.297099 0.525941 0.865116
#
# Coordination Sequence:
#
# PCOD9269755 Si02
#       8
#     8   8   8   8   8   8   8   8
#     4   9  18  36  59  89 119 154 211 262 302 365
#     4  11  23  35  55  85 125 158 201 253 310 388
#     4  11  20  39  58  84 117 155 205 253 303 366
#     4  11  21  34  53  85 118 154 195 244 309 365
#     4  10  20  34  60  89 117 162 203 255 316 366
#     4  10  22  35  59  84 117 159 198 248 310 376
#     4   9  20  34  60  91 115 156 213 262 299 364
#     4  11  23  37  56  85 121 160 195 251 316 369
#
# _framework density 24.528165000000001
#
# number of rings (size 3 to 8) (size 9 to 14) (size 15 to 20)
#    0.000    1.750    2.500    2.625    7.000    0.000 
#    0.000    0.625    0.000    0.000    0.000    0.000 
#    0.000    0.000    0.000    0.000    0.000    0.000 
#
# Total GULP energy -178543.634724 kJ/mol
# GULP energy per Si atom -5579.488585 kJ/mol
# Density = 2.447234 g / cm^3
# Si number density = 24.528165 Si / 1000 Ang^3
#
#
#
# Elastic Constant Matrix: (Units=GPa)
#
#
# Indices 1 2 3 4 5 6 
#
# 1 144.3777 25.8288 36.7807 0.0000 29.2128 0.0000
# 2 25.8288 59.9043 4.3530 0.0000 10.0619 0.0000
# 3 36.7807 4.3530 45.3973 0.0000 23.9696 0.0000
# 4 0.0000 0.0000 0.0000 25.2097 0.0000 9.8331
# 5 29.2128 10.0619 23.9696 0.0000 44.5884 0.0000
# 6 0.0000 0.0000 0.0000 9.8331 0.0000 35.5886
#
#
#
# Elastic Compliance Matrix: (Units=1/GPa)
#
#
# Indices 1 2 3 4 5 6 
#
# 1 0.009552 -0.003304 -0.006300 0.000000 -0.002126 0.000000
# 2 -0.003304 0.018504 0.002743 0.000000 -0.003486 0.000000
# 3 -0.006300 0.002743 0.034931 0.000000 -0.015270 0.000000
# 4 0.000000 0.000000 0.000000 0.044459 0.000000 -0.012284
# 5 -0.002126 -0.003486 -0.015270 0.000000 0.032815 0.000000
# 6 0.000000 0.000000 0.000000 -0.012284 0.000000 0.031493
#
#
# Mechanical properties :
#
#
# Convention : Reuss Voigt Hill
#
# Bulk Modulus (GPa) = 20.29809 42.62272 31.46040
# Shear Modulus (GPa) = 24.76494 33.25846 29.01170
#
# Velocity S-wave (km/s) = 3.18095 3.68629 3.44290
# Velocity P-wave (km/s) = 4.66740 5.96096 5.35340
#
# Compressibility (1/GPa) = 0.04926572
#
# Stress axis : x y z
#
# Youngs Moduli (GPa) = 104.68513 54.04255 28.62771
#
# Poissons Ratio (x) = 0.17855 0.18035
# Poissons Ratio (y) = 0.34586 -0.07852
# Poissons Ratio (z) = 0.65951 -0.14823
#
# Static dielectric constant tensor:
#      x y z
#    x 2.035720 0.000000 0.023510 
#    y 0.000000 2.055700 0.000000 
#    z 0.023510 0.000000 2.003590 
# 
# From -- ./inp_files/90817.got.cif
#   From: 2010.05.17/outbox.cif.g08.bks.cpg/sg15_46_cif.got.tgz:90817.got - 2010.06.03 18:47:42.
