data_PCOD9269308
_publ_section_title
;
Structure prediction by ZEFSAII (Michael W. Deem and Ramdas Pophale) SiO2 
 PCOD9269308
Probable space group: C 2/C
;
_chemical_formula_sum "Si O2"
_cell_formula_units_Z 56
_cell_length_a 12.954229
_cell_length_b 23.243890
_cell_length_c 10.948341
_cell_angle_alpha 90.000000
_cell_angle_beta 121.365369
_cell_angle_gamma 90.000000
_cell_volume 2814.869014
_symmetry_space_group_name_H-M "C 2/C"
_symmetry_group_IT_number 15
_symmetry_cell_setting 'monoclinic'
loop_
_space_group_symop_operation_xyz
x,y,z
-x,y,1/2-z
-x,-y,-z
x,-y,1/2+z
1/2+x,1/2+y,z
1/2-x,1/2+y,1/2-z
1/2-x,1/2-y,-z
1/2+x,1/2-y,1/2+z
loop_
_atom_site_type_symbol
_atom_site_label
_atom_site_fract_x
_atom_site_fract_y
_atom_site_fract_z
Si Si1 0.435948 0.205189 0.587847
Si Si2 0.272104 0.419290 0.699934
Si Si3 0.978363 0.368532 0.879267
Si Si4 0.858095 0.073167 0.885260
Si Si5 0.844688 0.829428 0.555216
Si Si6 0.889867 0.957972 0.019767
Si Si7 0.685478 0.956836 0.077215
O O1 0.500000 0.182320 0.750000
O O2 0.492581 0.178850 0.497817
O O3 0.294915 0.188900 0.511589
O O4 0.430718 0.274446 0.595515
O O5 0.352642 0.376403 0.668221
O O6 0.355534 0.441595 0.860212
O O7 0.203133 0.473594 0.591868
O O8 0.161255 0.385765 0.693530
O O9 0.000000 0.351862 0.750000
O O10 0.062825 0.424343 0.964005
O O11 0.732706 0.061356 0.739735
O O12 0.878929 0.026892 0.005883
O O13 0.857728 0.135973 0.938458
O O14 0.974444 0.061812 0.872150
O O15 0.787581 0.935244 0.045853
#
# Coordination Sequence:
#
# PCOD9269308 Si02
#       7
#     8   8   8   8   8   8   8
#     4  10  23  41  64  90 114 162 216 261 305 353
#     4  10  21  36  60  92 118 164 201 244 311 376
#     4  11  22  40  63  88 127 163 205 259 312 370
#     4  10  21  34  57  86 120 160 193 247 297 364
#     4  10  21  40  62  85 121 152 213 255 297 366
#     4  10  20  34  54  89 126 153 196 235 308 368
#     4  11  20  37  58  89 129 158 195 247 307 387
#
# _framework density 19.894352999999999
#
# number of rings (size 3 to 8) (size 9 to 14) (size 15 to 20)
#    0.000    1.714    2.857    1.714    2.000    0.000 
#    0.000    2.143    0.000    4.286    0.000    0.000 
#    0.000    0.000    0.000    0.000    0.000    0.000 
#
# Total GULP energy -155892.042933 kJ/mol
# GULP energy per Si atom -5567.572962 kJ/mol
# Density = 1.984907 g / cm^3
# Si number density = 19.894353 Si / 1000 Ang^3
#
#
#
# Elastic Constant Matrix: (Units=GPa)
#
#
# Indices 1 2 3 4 5 6 
#
# 1 84.4705 21.5141 23.4396 0.0000 -17.5485 0.0000
# 2 21.5141 89.6225 31.8827 0.0000 -20.4317 0.0000
# 3 23.4396 31.8827 72.3651 0.0000 -10.4887 0.0000
# 4 0.0000 0.0000 0.0000 21.9153 0.0000 -11.1747
# 5 -17.5485 -20.4317 -10.4887 0.0000 28.9574 0.0000
# 6 0.0000 0.0000 0.0000 -11.1747 0.0000 -1.6670
#
#
#
# Elastic Compliance Matrix: (Units=1/GPa)
#
#
# Indices 1 2 3 4 5 6 
#
# 1 0.014401 -0.000657 -0.003353 0.000000 0.007049 0.000000
# 2 -0.000657 0.015076 -0.005219 0.000000 0.008348 0.000000
# 3 -0.003353 -0.005219 0.017284 0.000000 0.000546 0.000000
# 4 0.000000 0.000000 0.000000 0.010328 0.000000 -0.069234
# 5 0.007049 0.008348 0.000546 0.000000 0.044893 0.000000
# 6 0.000000 0.000000 0.000000 -0.069234 0.000000 -0.135778
#
#
# Mechanical properties :
#
#
# Convention : Reuss Voigt Hill
#
# Bulk Modulus (GPa) = 35.33487 44.45899 39.89693
# Shear Modulus (GPa) = -846.84485 21.14924 -412.84781
#
# Velocity S-wave (km/s) = -20.65418 3.26402 -14.42119
# Velocity P-wave (km/s) = 23.47325 6.04989 16.03734
#
# Compressibility (1/GPa) = 0.02830066
#
# Stress axis : x y z
#
# Youngs Moduli (GPa) = 69.44121 66.33252 57.85845
#
# Poissons Ratio (x) = 0.04358 0.19402
# Poissons Ratio (y) = 0.04563 0.30197
# Poissons Ratio (z) = 0.23286 0.34620
#
# Static dielectric constant tensor:
#      x y z
#    x 1.705600 0.000000 -0.015660 
#    y 0.000000 1.736410 0.000000 
#    z -0.015660 0.000000 1.744260 
# 
# From -- ./inp_files/90931.got.cif
#   From: 2010.05.17/outbox.cif.g08.bks.cpg/sg15_46_cif.got.tgz:90931.got - 2010.06.03 18:47:42.
