data_PCOD9269460
_publ_section_title
;
Structure prediction by ZEFSAII (Michael W. Deem and Ramdas Pophale) SiO2 
 PCOD9269460
Probable space group: C 2/C
;
_chemical_formula_sum "Si O2"
_cell_formula_units_Z 64
_cell_length_a 22.364619
_cell_length_b 22.879788
_cell_length_c 11.718214
_cell_angle_alpha 90.000000
_cell_angle_beta 142.296478
_cell_angle_gamma 90.000000
_cell_volume 3667.120061
_symmetry_space_group_name_H-M "C 2/C"
_symmetry_group_IT_number 15
_symmetry_cell_setting 'monoclinic'
loop_
_space_group_symop_operation_xyz
x,y,z
-x,y,1/2-z
-x,-y,-z
x,-y,1/2+z
1/2+x,1/2+y,z
1/2-x,1/2+y,1/2-z
1/2-x,1/2-y,-z
1/2+x,1/2-y,1/2+z
loop_
_atom_site_type_symbol
_atom_site_label
_atom_site_fract_x
_atom_site_fract_y
_atom_site_fract_z
Si Si1 0.109756 0.008473 0.206935
Si Si2 0.101078 0.843467 0.475356
Si Si3 0.783135 0.729817 0.922498
Si Si4 0.854332 0.837570 0.453430
Si Si5 0.386247 0.105989 0.105558
Si Si6 0.247270 0.461193 0.257349
Si Si7 0.260325 0.563544 0.433107
Si Si8 0.575091 0.360874 0.705780
O O1 0.109160 0.071367 0.266447
O O2 0.177598 0.001764 0.199380
O O3 0.152809 0.957142 0.350343
O O4 0.000000 0.000000 0.000000
O O5 0.148185 0.781037 0.519032
O O6 0.183701 0.890326 0.562142
O O7 0.084861 0.846847 0.586872
O O8 0.000000 0.851770 0.250000
O O9 0.695924 0.711690 0.702345
O O10 0.750000 0.750000 0.000000
O O11 0.844762 0.670380 0.019631
O O12 0.795645 0.898615 0.355796
O O13 0.866584 0.825311 0.607693
O O14 0.961770 0.852432 0.567320
O O15 0.500000 0.106868 0.250000
O O16 0.333201 0.091421 0.145580
O O17 0.342532 0.056146 0.957158
O O18 0.222983 0.502480 0.325225
#
# Coordination Sequence:
#
# PCOD9269460 Si02
#       8
#     8   8   8   8   8   8   8   8
#     4  11  19  29  53  87 129 157 185 232 303 382
#     4  12  24  36  60  93 122 156 202 255 308 360
#     4  11  22  42  63  86 117 157 210 266 301 355
#     4  10  22  37  57  86 125 165 200 240 306 373
#     4  10  23  41  60  83 115 159 208 255 305 352
#     4  10  20  34  56  86 120 159 193 245 297 367
#     4  11  22  35  57  92 122 152 199 246 304 374
#     4  11  21  35  57  89 124 162 195 241 311 378
#
# _framework density 17.452387000000002
#
# number of rings (size 3 to 8) (size 9 to 14) (size 15 to 20)
#    0.000    1.250    5.000    1.875    1.750    1.000 
#    0.000    0.000    0.000    0.000    3.250    0.000 
#    0.000    0.000    0.000    0.000    0.000    0.000 
#
# Total GULP energy -178205.459366 kJ/mol
# GULP energy per Si atom -5568.920605 kJ/mol
# Density = 1.741266 g / cm^3
# Si number density = 17.452387 Si / 1000 Ang^3
#
#
#
# Elastic Constant Matrix: (Units=GPa)
#
#
# Indices 1 2 3 4 5 6 
#
# 1 112.3245 33.8921 56.9963 0.0000 -5.3213 0.0000
# 2 33.8921 73.3528 18.8496 0.0000 1.2302 0.0000
# 3 56.9963 18.8496 73.0664 0.0000 -0.4618 0.0000
# 4 0.0000 0.0000 0.0000 25.7072 0.0000 -8.1144
# 5 -5.3213 1.2302 -0.4618 0.0000 31.8122 0.0000
# 6 0.0000 0.0000 0.0000 -8.1144 0.0000 28.5931
#
#
#
# Elastic Compliance Matrix: (Units=1/GPa)
#
#
# Indices 1 2 3 4 5 6 
#
# 1 0.016236 -0.004602 -0.011461 0.000000 0.002727 0.000000
# 2 -0.004602 0.015918 -0.000525 0.000000 -0.001393 0.000000
# 3 -0.011461 -0.000525 0.022752 0.000000 -0.001566 0.000000
# 4 0.000000 0.000000 0.000000 0.042727 0.000000 0.012126
# 5 0.002727 -0.001393 -0.001566 0.000000 0.031922 0.000000
# 6 0.000000 0.000000 0.000000 0.012126 0.000000 0.038415
#
#
# Mechanical properties :
#
#
# Convention : Reuss Voigt Hill
#
# Bulk Modulus (GPa) = 46.02090 53.13553 49.57822
# Shear Modulus (GPa) = 23.99370 27.15619 25.57495
#
# Velocity S-wave (km/s) = 3.71186 3.94892 3.83222
# Velocity P-wave (km/s) = 6.69307 7.16268 6.93186
#
# Compressibility (1/GPa) = 0.02172926
#
# Stress axis : x y z
#
# Youngs Moduli (GPa) = 61.59110 62.82371 43.95274
#
# Poissons Ratio (x) = 0.28914 0.50372
# Poissons Ratio (y) = 0.28347 0.02307
# Poissons Ratio (z) = 0.70587 0.03298
#
# Static dielectric constant tensor:
#      x y z
#    x 1.618070 0.000000 -0.044470 
#    y 0.000000 1.594830 0.000000 
#    z -0.044470 0.000000 1.658050 
# 
# From -- ./inp_files/114621.got.cif
#   From: 2010.05.17/outbox.cif.g08.bks.cpg/sg15_58_cif.got.tgz:114621.got - 2010.06.03 18:47:42.
