data_PCOD9269888
_publ_section_title
;
Structure prediction by ZEFSAII (Michael W. Deem and Ramdas Pophale) SiO2 
 PCOD9269888
Probable space group: C 2/C
;
_chemical_formula_sum "Si O2"
_cell_formula_units_Z 28
_cell_length_a 13.094632
_cell_length_b 10.581019
_cell_length_c 8.541187
_cell_angle_alpha 90.000000
_cell_angle_beta 68.286318
_cell_angle_gamma 90.000000
_cell_volume 1099.449846
_symmetry_space_group_name_H-M "C 2/C"
_symmetry_group_IT_number 15
_symmetry_cell_setting 'monoclinic'
loop_
_space_group_symop_operation_xyz
x,y,z
-x,y,1/2-z
-x,-y,-z
x,-y,1/2+z
1/2+x,1/2+y,z
1/2-x,1/2+y,1/2-z
1/2-x,1/2-y,-z
1/2+x,1/2-y,1/2+z
loop_
_atom_site_type_symbol
_atom_site_label
_atom_site_fract_x
_atom_site_fract_y
_atom_site_fract_z
Si Si1 0.371739 0.901059 0.873127
Si Si2 0.835529 0.670071 0.051295
Si Si3 0.000000 0.008029 0.250000
Si Si4 0.930037 0.186795 0.047498
O O1 0.500000 0.897190 0.750000
O O2 0.311146 0.862756 0.747405
O O3 0.358379 0.801821 0.022493
O O4 0.650507 0.960855 0.049126
O O5 0.950114 0.748404 0.992308
O O6 0.750000 0.750000 0.000000
O O7 0.083544 0.098934 0.293869
O O8 0.938704 0.915327 0.403483
#
# Coordination Sequence:
#
# PCOD9269888 Si02
#       4
#     8   8   4   8
#     4  10  21  43  67  90 121 171 213 250 307 391
#     4  11  24  40  62  95 127 159 208 264 321 368
#     4  10  20  34  64  92 118 158 210 264 284 362
#     4  10  20  38  62  92 122 161 214 245 308 367
#
# _framework density 25.467283999999999
#
# number of rings (size 3 to 8) (size 9 to 14) (size 15 to 20)
#    0.000    1.714    4.286    3.429    6.000    2.286 
#    0.000    1.429    0.000    0.000    0.000    0.000 
#    0.000    0.000    0.000    0.000    0.000    0.000 
#
# Total GULP energy -78428.418871 kJ/mol
# GULP energy per Si atom -5602.029919 kJ/mol
# Density = 2.540932 g / cm^3
# Si number density = 25.467284 Si / 1000 Ang^3
#
#
#
# Elastic Constant Matrix: (Units=GPa)
#
#
# Indices 1 2 3 4 5 6 
#
# 1 108.1003 65.0334 33.3695 0.0000 43.8980 0.0000
# 2 65.0334 228.3545 97.8290 0.0000 30.5400 0.0000
# 3 33.3695 97.8290 142.2479 0.0000 42.0516 0.0000
# 4 0.0000 0.0000 0.0000 85.1378 0.0000 2.5226
# 5 43.8980 30.5400 42.0516 0.0000 44.4773 0.0000
# 6 0.0000 0.0000 0.0000 2.5226 0.0000 42.4023
#
#
#
# Elastic Compliance Matrix: (Units=1/GPa)
#
#
# Indices 1 2 3 4 5 6 
#
# 1 0.018516 -0.004642 0.004593 0.000000 -0.019429 0.000000
# 2 -0.004642 0.007375 -0.005331 0.000000 0.004557 0.000000
# 3 0.004593 -0.005331 0.013708 0.000000 -0.013833 0.000000
# 4 0.000000 0.000000 0.000000 0.011766 0.000000 -0.000700
# 5 -0.019429 0.004557 -0.013833 0.000000 0.051609 0.000000
# 6 0.000000 0.000000 0.000000 -0.000700 0.000000 0.023625
#
#
# Mechanical properties :
#
#
# Convention : Reuss Voigt Hill
#
# Bulk Modulus (GPa) = 34.67530 96.79628 65.73579
# Shear Modulus (GPa) = 34.01997 53.23488 43.62743
#
# Velocity S-wave (km/s) = 3.65887 4.57697 4.14342
# Velocity P-wave (km/s) = 5.61203 8.12540 6.98273
#
# Compressibility (1/GPa) = 0.02883897
#
# Stress axis : x y z
#
# Youngs Moduli (GPa) = 54.00850 135.58627 72.95033
#
# Poissons Ratio (x) = 0.62942 -0.33505
# Poissons Ratio (y) = 0.25072 0.38887
# Poissons Ratio (z) = -0.24805 0.72275
#
# Static dielectric constant tensor:
#      x y z
#    x 2.109120 0.000000 -0.076640 
#    y 0.000000 1.903990 0.000000 
#    z -0.076640 0.000000 2.042010 
# 
# From -- ./inp_files/28227.got.cif
#   From: 2010.05.17/outbox.cif.g08.bks.cpg/sg15_15_cif.got.tgz:28227.got - 2010.06.03 18:47:42.
