data_PCOD9269988
_publ_section_title
;
Structure prediction by ZEFSAII (Michael W. Deem and Ramdas Pophale) SiO2 
 PCOD9269988
Probable space group: C 2/C
;
_chemical_formula_sum "Si O2"
_cell_formula_units_Z 40
_cell_length_a 14.512307
_cell_length_b 11.261575
_cell_length_c 12.964030
_cell_angle_alpha 90.000000
_cell_angle_beta 123.839412
_cell_angle_gamma 90.000000
_cell_volume 1759.820566
_symmetry_space_group_name_H-M "C 2/C"
_symmetry_group_IT_number 15
_symmetry_cell_setting 'monoclinic'
loop_
_space_group_symop_operation_xyz
x,y,z
-x,y,1/2-z
-x,-y,-z
x,-y,1/2+z
1/2+x,1/2+y,z
1/2-x,1/2+y,1/2-z
1/2-x,1/2-y,-z
1/2+x,1/2-y,1/2+z
loop_
_atom_site_type_symbol
_atom_site_label
_atom_site_fract_x
_atom_site_fract_y
_atom_site_fract_z
Si Si1 0.916090 0.199406 0.037126
Si Si2 0.000000 0.393138 0.250000
Si Si3 0.866887 0.806657 0.952165
Si Si4 0.268948 0.032319 0.607281
Si Si5 0.207172 0.882326 0.380823
Si Si6 0.000000 0.008404 0.250000
O O1 0.947748 0.088331 0.129372
O O2 0.941743 0.311654 0.126049
O O3 0.008378 0.202708 0.006384
O O4 0.793117 0.159918 0.926449
O O5 0.105659 0.465031 0.274304
O O6 0.790940 0.696955 0.868796
O O7 0.807253 0.931037 0.886264
O O8 0.853958 0.803258 0.068238
O O9 0.270476 0.981306 0.489603
O O10 0.101259 0.938640 0.261532
#
# Coordination Sequence:
#
# PCOD9269988 Si02
#       6
#     8   4   8   8   8   4
#     4  10  20  35  53  78 106 141 177 209 252 317
#     4  11  22  35  52  80 108 139 170 219 264 304
#     4   9  18  36  55  77 106 136 174 217 258 299
#     4   9  19  36  54  72 105 140 172 213 264 300
#     4   8  18  35  56  78 107 135 173 216 257 304
#     4   9  18  31  56  74 106 145 176 201 258 312
#
# _framework density 22.729590000000002
#
# number of rings (size 3 to 8) (size 9 to 14) (size 15 to 20)
#    1.200    1.600    0.000    1.200    0.000    2.400 
#    0.000    1.000    0.000    0.000    0.000    0.000 
#    0.000    0.000    0.000    0.000    0.000    0.000 
#
# Total GULP energy -111358.796746 kJ/mol
# GULP energy per Si atom -5567.939837 kJ/mol
# Density = 2.267786 g / cm^3
# Si number density = 22.729590 Si / 1000 Ang^3
#
#
#
# Elastic Constant Matrix: (Units=GPa)
#
#
# Indices 1 2 3 4 5 6 
#
# 1 100.7594 9.4033 21.2788 0.0000 14.4737 0.0000
# 2 9.4033 42.2627 5.2868 0.0000 5.1857 0.0000
# 3 21.2788 5.2868 44.2283 0.0000 13.1554 0.0000
# 4 0.0000 0.0000 0.0000 -22.9100 0.0000 45.3811
# 5 14.4737 5.1857 13.1554 0.0000 30.5788 0.0000
# 6 0.0000 0.0000 0.0000 45.3811 0.0000 5.2046
#
#
#
# Elastic Compliance Matrix: (Units=1/GPa)
#
#
# Indices 1 2 3 4 5 6 
#
# 1 0.011464 -0.001604 -0.004347 0.000000 -0.003284 0.000000
# 2 -0.001604 0.024531 -0.001318 0.000000 -0.002834 0.000000
# 3 -0.004347 -0.001318 0.027729 0.000000 -0.009648 0.000000
# 4 0.000000 0.000000 0.000000 -0.002389 0.000000 0.020830
# 5 -0.003284 -0.002834 -0.009648 0.000000 0.038888 0.000000
# 6 0.000000 0.000000 0.000000 0.020830 0.000000 0.010516
#
#
# Mechanical properties :
#
#
# Convention : Reuss Voigt Hill
#
# Bulk Modulus (GPa) = 20.33078 28.79870 24.56474
# Shear Modulus (GPa) = 35.29296 12.66010 23.97653
#
# Velocity S-wave (km/s) = 3.94475 2.36262 3.25138
# Velocity P-wave (km/s) = 5.45088 4.48779 4.99261
#
# Compressibility (1/GPa) = 0.04918650
#
# Stress axis : x y z
#
# Youngs Moduli (GPa) = 87.22898 40.76485 36.06376
#
# Poissons Ratio (x) = 0.06539 0.15677
# Poissons Ratio (y) = 0.13991 0.04752
# Poissons Ratio (z) = 0.37918 0.05371
#
# Static dielectric constant tensor:
#      x y z
#    x 1.677520 0.000000 0.110630 
#    y 0.000000 1.944920 0.000000 
#    z 0.110630 0.000000 1.873330 
# 
# From -- ./inp_files/123217.got.cif
#   From: 2010.05.17/outbox.cif.g08.bks.cpg/sg15_62_cif.got.tgz:123217.got - 2010.06.03 18:47:42.
