data_PCOD9269230
_publ_section_title
;
Structure prediction by ZEFSAII (Michael W. Deem and Ramdas Pophale) SiO2 
 PCOD9269230
Probable space group: C 2/C
;
_chemical_formula_sum "Si O2"
_cell_formula_units_Z 64
_cell_length_a 24.690232
_cell_length_b 14.921844
_cell_length_c 9.836697
_cell_angle_alpha 90.000000
_cell_angle_beta 91.870785
_cell_angle_gamma 90.000000
_cell_volume 3622.141531
_symmetry_space_group_name_H-M "C 2/C"
_symmetry_group_IT_number 15
_symmetry_cell_setting 'monoclinic'
loop_
_space_group_symop_operation_xyz
x,y,z
-x,y,1/2-z
-x,-y,-z
x,-y,1/2+z
1/2+x,1/2+y,z
1/2-x,1/2+y,1/2-z
1/2-x,1/2-y,-z
1/2+x,1/2-y,1/2+z
loop_
_atom_site_type_symbol
_atom_site_label
_atom_site_fract_x
_atom_site_fract_y
_atom_site_fract_z
Si Si1 0.177599 0.614038 0.731455
Si Si2 0.139280 0.810476 0.747317
Si Si3 0.260842 0.879486 0.773935
Si Si4 0.697116 0.679206 0.734883
Si Si5 0.385327 0.609200 0.543780
Si Si6 0.198212 0.505700 0.476439
Si Si7 0.615086 0.396182 0.011546
Si Si8 0.502515 0.577235 0.607745
O O1 0.144811 0.704782 0.739732
O O2 0.242369 0.638021 0.745291
O O3 0.168384 0.569416 0.583160
O O4 0.165853 0.553378 0.863007
O O5 0.199136 0.849828 0.777745
O O6 0.120492 0.850188 0.604837
O O7 0.105750 0.843367 0.872193
O O8 0.295661 0.787107 0.773454
O O9 0.268497 0.932960 0.630623
O O10 0.273542 0.938895 0.909969
O O11 0.660059 0.648067 0.858658
O O12 0.666548 0.639728 0.600295
O O13 0.378766 0.501295 0.526547
O O14 0.446807 0.631492 0.594288
O O15 0.561145 0.379755 0.095608
O O16 0.500000 0.528483 0.750000
O O17 0.500000 0.500000 0.500000
#
# Coordination Sequence:
#
# PCOD9269230 Si02
#       8
#     8   8   8   8   8   8   8   8
#     4  10  22  35  50  78 112 136 187 223 260 308
#     4  11  23  35  50  81 109 142 176 233 258 311
#     4  10  22  35  50  76 112 138 185 225 260 308
#     4  11  21  35  52  77 107 146 178 231 260 305
#     4  11  23  34  57  77 108 147 187 213 265 314
#     4  10  20  34  54  68 102 152 174 216 262 320
#     4  11  23  34  57  77 108 147 187 213 265 314
#     4  10  22  40  52  78 108 139 184 234 258 303
#
# _framework density 17.669105999999999
#
# number of rings (size 3 to 8) (size 9 to 14) (size 15 to 20)
#    0.000    1.500    1.250    3.750   15.750    4.000 
#    0.000    0.000    0.000    0.000    0.000    0.000 
#    0.000   70.000    0.000    0.000    0.000    0.000 
#
# Total GULP energy -178358.717225 kJ/mol
# GULP energy per Si atom -5573.709913 kJ/mol
# Density = 1.762889 g / cm^3
# Si number density = 17.669106 Si / 1000 Ang^3
#
#
#
# Elastic Constant Matrix: (Units=GPa)
#
#
# Indices 1 2 3 4 5 6 
#
# 1 47.0013 13.8176 12.5863 0.0000 -9.3029 0.0000
# 2 13.8176 97.4007 39.0898 0.0000 -9.3056 0.0000
# 3 12.5863 39.0898 149.2797 0.0000 -21.6572 0.0000
# 4 0.0000 0.0000 0.0000 3.2668 0.0000 15.2956
# 5 -9.3029 -9.3056 -21.6572 0.0000 20.2872 0.0000
# 6 0.0000 0.0000 0.0000 15.2956 0.0000 -9.6905
#
#
#
# Elastic Compliance Matrix: (Units=1/GPa)
#
#
# Indices 1 2 3 4 5 6 
#
# 1 0.023949 -0.002477 0.000068 0.000000 0.009919 0.000000
# 2 -0.002477 0.011831 -0.002682 0.000000 0.001428 0.000000
# 3 0.000068 -0.002682 0.008545 0.000000 0.007923 0.000000
# 4 0.000000 0.000000 0.000000 0.036484 0.000000 0.057586
# 5 0.009919 0.001428 0.007923 0.000000 0.062954 0.000000
# 6 0.000000 0.000000 0.000000 0.057586 0.000000 -0.012299
#
#
# Mechanical properties :
#
#
# Convention : Reuss Voigt Hill
#
# Bulk Modulus (GPa) = 29.28834 47.18547 38.23691
# Shear Modulus (GPa) = 32.67409 17.98521 25.32965
#
# Velocity S-wave (km/s) = 4.30492 3.19390 3.79034
# Velocity P-wave (km/s) = 6.42820 6.35330 6.39086
#
# Compressibility (1/GPa) = 0.03414328
#
# Stress axis : x y z
#
# Youngs Moduli (GPa) = 41.75504 84.52300 117.02975
#
# Poissons Ratio (x) = 0.20939 -0.00801
# Poissons Ratio (y) = 0.10344 0.31388
# Poissons Ratio (z) = -0.00286 0.22670
#
# Static dielectric constant tensor:
#      x y z
#    x 1.624340 0.000000 -0.011390 
#    y 0.000000 1.623650 0.000000 
#    z -0.011390 0.000000 1.663290 
# 
# From -- ./inp_files/61919.got.cif
#   From: 2010.05.17/outbox.cif.g08.bks.cpg/sg15_31_cif.got.tgz:61919.got - 2010.06.03 18:47:42.
