data_PCOD9269320
_publ_section_title
;
Structure prediction by ZEFSAII (Michael W. Deem and Ramdas Pophale) SiO2 
 PCOD9269320
Probable space group: C 2/C
;
_chemical_formula_sum "Si O2"
_cell_formula_units_Z 56
_cell_length_a 14.625028
_cell_length_b 27.004055
_cell_length_c 12.401306
_cell_angle_alpha 90.000000
_cell_angle_beta 135.317906
_cell_angle_gamma 90.000000
_cell_volume 3443.935510
_symmetry_space_group_name_H-M "C 2/C"
_symmetry_group_IT_number 15
_symmetry_cell_setting 'monoclinic'
loop_
_space_group_symop_operation_xyz
x,y,z
-x,y,1/2-z
-x,-y,-z
x,-y,1/2+z
1/2+x,1/2+y,z
1/2-x,1/2+y,1/2-z
1/2-x,1/2-y,-z
1/2+x,1/2-y,1/2+z
loop_
_atom_site_type_symbol
_atom_site_label
_atom_site_fract_x
_atom_site_fract_y
_atom_site_fract_z
Si Si1 0.920617 0.094868 0.981550
Si Si2 0.230085 0.100003 0.266638
Si Si3 0.769398 0.034016 0.035191
Si Si4 0.388382 0.707813 0.010186
Si Si5 0.631041 0.434485 0.302763
Si Si6 0.351159 0.937545 0.645445
Si Si7 0.182899 0.210917 0.296118
O O1 0.075907 0.088955 0.123769
O O2 0.885736 0.152575 0.962323
O O3 0.850273 0.065166 0.017304
O O4 0.874495 0.076422 0.826971
O O5 0.281600 0.070713 0.415116
O O6 0.302091 0.080891 0.220229
O O7 0.233519 0.158999 0.290347
O O8 0.858246 0.006471 0.670686
O O9 0.670912 0.997007 0.890029
O O10 0.539667 0.724005 0.130623
O O11 0.345278 0.703848 0.099588
O O12 0.289265 0.746182 0.873377
O O13 0.500000 0.416250 0.250000
O O14 0.755769 0.415146 0.473522
O O15 0.500000 0.925291 0.750000
#
# Coordination Sequence:
#
# PCOD9269320 Si02
#       7
#     8   8   8   8   8   8   8
#     4  11  18  34  58  87 106 137 183 235 259 314
#     4  11  19  34  60  79 111 142 185 219 271 318
#     4  10  21  32  55  83 108 141 181 220 269 313
#     4   9  18  33  55  79 115 131 174 219 277 320
#     4  10  20  34  55  80 107 144 186 220 259 309
#     4  10  24  39  50  74 117 153 178 218 267 320
#     4   9  18  34  54  83 105 141 169 224 273 322
#
# _framework density 16.260467999999999
#
# number of rings (size 3 to 8) (size 9 to 14) (size 15 to 20)
#    0.857    1.143    2.857    2.143    0.000    2.286 
#    2.571    0.000    0.000    1.714    0.000    0.000 
#    0.000    0.000    0.000    0.000    0.000    0.000 
#
# Total GULP energy -155912.336436 kJ/mol
# GULP energy per Si atom -5568.297730 kJ/mol
# Density = 1.622346 g / cm^3
# Si number density = 16.260468 Si / 1000 Ang^3
#
#
#
# Elastic Constant Matrix: (Units=GPa)
#
#
# Indices 1 2 3 4 5 6 
#
# 1 90.2741 57.7023 53.6633 0.0000 -7.2598 0.0000
# 2 57.7023 79.4072 62.9059 0.0000 1.8808 0.0000
# 3 53.6633 62.9059 83.1684 0.0000 0.5957 0.0000
# 4 0.0000 0.0000 0.0000 -0.9490 0.0000 7.4010
# 5 -7.2598 1.8808 0.5957 0.0000 26.5960 0.0000
# 6 0.0000 0.0000 0.0000 7.4010 0.0000 1.3724
#
#
#
# Elastic Compliance Matrix: (Units=1/GPa)
#
#
# Indices 1 2 3 4 5 6 
#
# 1 0.022842 -0.012607 -0.005255 0.000000 0.007244 0.000000
# 2 -0.012607 0.038454 -0.020910 0.000000 -0.005692 0.000000
# 3 -0.005255 -0.020910 0.031235 0.000000 -0.000655 0.000000
# 4 0.000000 0.000000 0.000000 -0.024473 0.000000 0.131979
# 5 0.007244 -0.005692 -0.000655 0.000000 0.039994 0.000000
# 6 0.000000 0.000000 0.000000 0.131979 0.000000 0.016924
#
#
# Mechanical properties :
#
#
# Convention : Reuss Voigt Hill
#
# Bulk Modulus (GPa) = 66.72499 66.82141 66.77320
# Shear Modulus (GPa) = 24.09457 10.64240 17.36849
#
# Velocity S-wave (km/s) = 3.85358 2.56109 3.27179
# Velocity P-wave (km/s) = 7.80540 7.06606 7.44491
#
# Compressibility (1/GPa) = 0.01498689
#
# Stress axis : x y z
#
# Youngs Moduli (GPa) = 43.77872 26.00491 32.01581
#
# Poissons Ratio (x) = 0.32786 0.16823
# Poissons Ratio (y) = 0.55194 0.66945
# Poissons Ratio (z) = 0.23004 0.54376
#
# Static dielectric constant tensor:
#      x y z
#    x 1.521930 0.000000 0.008810 
#    y 0.000000 1.538520 0.000000 
#    z 0.008810 0.000000 1.560300 
# 
# From -- ./inp_files/92111.got.cif
#   From: 2010.05.17/outbox.cif.g08.bks.cpg/sg15_47_cif.got.tgz:92111.got - 2010.06.03 18:47:42.
