data_PCOD9269364
_publ_section_title
;
Structure prediction by ZEFSAII (Michael W. Deem and Ramdas Pophale) SiO2 
 PCOD9269364
Probable space group: C 2/C
;
_chemical_formula_sum "Si O2"
_cell_formula_units_Z 64
_cell_length_a 27.894318
_cell_length_b 12.184393
_cell_length_c 9.454148
_cell_angle_alpha 90.000000
_cell_angle_beta 71.756571
_cell_angle_gamma 90.000000
_cell_volume 3051.718722
_symmetry_space_group_name_H-M "C 2/C"
_symmetry_group_IT_number 15
_symmetry_cell_setting 'monoclinic'
loop_
_space_group_symop_operation_xyz
x,y,z
-x,y,1/2-z
-x,-y,-z
x,-y,1/2+z
1/2+x,1/2+y,z
1/2-x,1/2+y,1/2-z
1/2-x,1/2-y,-z
1/2+x,1/2-y,1/2+z
loop_
_atom_site_type_symbol
_atom_site_label
_atom_site_fract_x
_atom_site_fract_y
_atom_site_fract_z
Si Si1 0.625635 0.652656 0.665254
Si Si2 0.377320 0.834219 0.340587
Si Si3 0.295159 0.035918 0.764464
Si Si4 0.056466 0.547538 0.204270
Si Si5 0.260938 0.379874 0.460953
Si Si6 0.521745 0.597692 0.887446
Si Si7 0.123126 0.647275 0.357147
Si Si8 0.063141 0.253090 0.479507
O O1 0.679147 0.595599 0.600846
O O2 0.581880 0.606118 0.809661
O O3 0.639627 0.771784 0.716644
O O4 0.598069 0.671643 0.540622
O O5 0.323773 0.867092 0.322981
O O6 0.375691 0.785274 0.498576
O O7 0.411099 0.772672 0.194348
O O8 0.404743 0.949752 0.347518
O O9 0.264167 0.086713 0.664542
O O10 0.338859 0.954766 0.665386
O O11 0.263024 0.958546 0.897693
O O12 0.070431 0.601789 0.342857
O O13 0.000000 0.505099 0.250000
O O14 0.062031 0.636641 0.074881
O O15 0.250000 0.250000 0.500000
O O16 0.500000 0.585752 0.750000
O O17 0.500000 0.500000 0.000000
O O18 0.493385 0.705394 0.973716
#
# Coordination Sequence:
#
# PCOD9269364 Si02
#       8
#     8   8   8   8   8   8   8   8
#     4  10  22  42  67  92 128 180 226 273 346 405
#     4  11  22  35  62  94 132 171 215 277 334 398
#     4  11  23  42  64  99 135 175 234 281 344 411
#     4  10  20  34  55  87 130 173 213 259 329 408
#     4  12  24  43  71  97 134 186 230 290 356 409
#     4  10  23  43  68  94 132 176 221 276 330 394
#     4  10  20  38  60  89 127 171 219 276 328 402
#     4  10  21  40  63  94 129 175 220 268 342 405
#
# _framework density 20.971786999999999
#
# number of rings (size 3 to 8) (size 9 to 14) (size 15 to 20)
#    0.000    1.500    2.500    4.125    1.750    6.000 
#    0.000    3.750    0.000    0.000    0.000    0.000 
#    0.000    0.000    0.000    0.000    0.000    0.000 
#
# Total GULP energy -178665.255775 kJ/mol
# GULP energy per Si atom -5583.289243 kJ/mol
# Density = 2.092405 g / cm^3
# Si number density = 20.971787 Si / 1000 Ang^3
#
#
#
# Elastic Constant Matrix: (Units=GPa)
#
#
# Indices 1 2 3 4 5 6 
#
# 1 128.8755 20.7037 50.2388 0.0000 -25.6342 0.0000
# 2 20.7037 38.8705 26.5464 0.0000 -10.0155 0.0000
# 3 50.2388 26.5464 105.6928 0.0000 -8.1744 0.0000
# 4 0.0000 0.0000 0.0000 33.7070 0.0000 -2.5728
# 5 -25.6342 -10.0155 -8.1744 0.0000 28.4962 0.0000
# 6 0.0000 0.0000 0.0000 -2.5728 0.0000 27.1930
#
#
#
# Elastic Compliance Matrix: (Units=1/GPa)
#
#
# Indices 1 2 3 4 5 6 
#
# 1 0.011376 -0.000711 -0.004558 0.000000 0.008676 0.000000
# 2 -0.000711 0.033458 -0.007369 0.000000 0.009006 0.000000
# 3 -0.004558 -0.007369 0.013255 0.000000 -0.002888 0.000000
# 4 0.000000 0.000000 0.000000 0.029883 0.000000 0.002827
# 5 0.008676 0.009006 -0.002888 0.000000 0.045234 0.000000
# 6 0.000000 0.000000 0.000000 0.002827 0.000000 0.037042
#
#
# Mechanical properties :
#
#
# Convention : Reuss Voigt Hill
#
# Bulk Modulus (GPa) = 30.47476 52.04631 41.26053
# Shear Modulus (GPa) = 24.21743 29.60923 26.91333
#
# Velocity S-wave (km/s) = 3.40187 3.76155 3.58622
# Velocity P-wave (km/s) = 5.47660 6.61338 6.07165
#
# Compressibility (1/GPa) = 0.03281404
#
# Stress axis : x y z
#
# Youngs Moduli (GPa) = 87.90311 29.88791 75.44120
#
# Poissons Ratio (x) = 0.02125 0.34385
# Poissons Ratio (y) = 0.06250 0.55593
# Poissons Ratio (z) = 0.40064 0.22025
#
# Static dielectric constant tensor:
#      x y z
#    x 1.763630 0.000000 -0.005650 
#    y 0.000000 1.789850 0.000000 
#    z -0.005650 0.000000 1.787960 
# 
# From -- ./inp_files/66197.got.cif
#   From: 2010.05.17/outbox.cif.g08.bks.cpg/sg15_34_cif.got.tgz:66197.got - 2010.06.03 18:47:42.
