data_PCOD9269760
_publ_section_title
;
Structure prediction by ZEFSAII (Michael W. Deem and Ramdas Pophale) SiO2 
 PCOD9269760
Probable space group: C 2/C
;
_chemical_formula_sum "Si O2"
_cell_formula_units_Z 48
_cell_length_a 12.400611
_cell_length_b 12.147549
_cell_length_c 12.478515
_cell_angle_alpha 90.000000
_cell_angle_beta 78.034421
_cell_angle_gamma 90.000000
_cell_volume 1838.884358
_symmetry_space_group_name_H-M "C 2/C"
_symmetry_group_IT_number 15
_symmetry_cell_setting 'monoclinic'
loop_
_space_group_symop_operation_xyz
x,y,z
-x,y,1/2-z
-x,-y,-z
x,-y,1/2+z
1/2+x,1/2+y,z
1/2-x,1/2+y,1/2-z
1/2-x,1/2-y,-z
1/2+x,1/2-y,1/2+z
loop_
_atom_site_type_symbol
_atom_site_label
_atom_site_fract_x
_atom_site_fract_y
_atom_site_fract_z
Si Si1 0.908642 0.129413 0.980778
Si Si2 0.084500 0.006175 0.327959
Si Si3 0.306471 0.218054 0.818938
Si Si4 0.255673 0.422125 0.956228
Si Si5 0.839173 0.513053 0.720056
Si Si6 0.120174 0.706150 0.188416
O O1 0.870571 0.239410 0.929969
O O2 0.822912 0.032349 0.967949
O O3 0.909600 0.120519 0.108081
O O4 0.028507 0.086426 0.916506
O O5 0.206271 0.978359 0.264287
O O6 0.000000 0.010536 0.250000
O O7 0.328422 0.334563 0.872356
O O8 0.208683 0.251065 0.756053
O O9 0.381289 0.135578 0.732799
O O10 0.278319 0.141232 0.928845
O O11 0.154361 0.459160 0.899284
O O12 0.877392 0.425262 0.800836
O O13 0.000000 0.743585 0.250000
#
# Coordination Sequence:
#
# PCOD9269760 Si02
#       6
#     8   8   8   8   8   8
#     4  11  21  35  61  94 120 150 205 249 305 350
#     4  11  21  34  60  90 122 146 194 258 294 351
#     4  10  20  38  60  84 123 160 203 243 298 366
#     4  10  20  34  60  90 116 161 196 247 303 352
#     4  11  21  38  60  88 123 158 201 249 299 357
#     4  11  24  38  62  88 120 162 205 249 300 360
#
# _framework density 26.102782999999999
#
# number of rings (size 3 to 8) (size 9 to 14) (size 15 to 20)
#    0.000    1.333    5.000    1.500    2.333    0.667 
#    0.000    0.000    7.333    9.000    0.000    0.000 
#    0.000    0.000    0.000    0.000    0.000    0.000 
#
# Total GULP energy -134136.797498 kJ/mol
# GULP energy per Si atom -5589.033229 kJ/mol
# Density = 2.604337 g / cm^3
# Si number density = 26.102783 Si / 1000 Ang^3
#
#
#
# Elastic Constant Matrix: (Units=GPa)
#
#
# Indices 1 2 3 4 5 6 
#
# 1 70.7341 -11.9805 5.5177 0.0000 4.7251 0.0000
# 2 -11.9805 134.9560 -3.1055 0.0000 19.3664 0.0000
# 3 5.5177 -3.1055 80.4094 0.0000 25.6270 0.0000
# 4 0.0000 0.0000 0.0000 39.9550 0.0000 1.5586
# 5 4.7251 19.3664 25.6270 0.0000 35.2691 0.0000
# 6 0.0000 0.0000 0.0000 1.5586 0.0000 12.4378
#
#
#
# Elastic Compliance Matrix: (Units=1/GPa)
#
#
# Indices 1 2 3 4 5 6 
#
# 1 0.014622 0.001712 -0.000017 0.000000 -0.002886 0.000000
# 2 0.001712 0.008565 0.002323 0.000000 -0.006621 0.000000
# 3 -0.000017 0.002323 0.016831 0.000000 -0.013503 0.000000
# 4 0.000000 0.000000 0.000000 0.025151 0.000000 -0.003152
# 5 -0.002886 -0.006621 -0.013503 0.000000 0.042187 0.000000
# 6 0.000000 0.000000 0.000000 -0.003152 0.000000 0.080795
#
#
# Mechanical properties :
#
#
# Convention : Reuss Voigt Hill
#
# Bulk Modulus (GPa) = 20.81023 29.66255 25.23639
# Shear Modulus (GPa) = 25.49294 37.24357 31.36825
#
# Velocity S-wave (km/s) = 3.12851 3.78140 3.47035
# Velocity P-wave (km/s) = 4.58692 5.51849 5.07413
#
# Compressibility (1/GPa) = 0.04805329
#
# Stress axis : x y z
#
# Youngs Moduli (GPa) = 68.39232 116.74951 59.41506
#
# Poissons Ratio (x) = -0.19985 0.00103
# Poissons Ratio (y) = -0.11707 -0.13805
# Poissons Ratio (z) = 0.00119 -0.27126
#
# Static dielectric constant tensor:
#      x y z
#    x 2.052460 0.000000 -0.017980 
#    y 0.000000 2.126760 0.000000 
#    z -0.017980 0.000000 2.162820 
# 
# From -- ./inp_files/152042.got.cif
#   From: 2010.05.17/outbox.cif.g08.bks.cpg/sg15_77_cif.got.tgz:152042.got - 2010.06.03 18:47:42.
