data_PCOD9269347
_publ_section_title
;
Structure prediction by ZEFSAII (Michael W. Deem and Ramdas Pophale) SiO2 
 PCOD9269347
Probable space group: C 2/C
;
_chemical_formula_sum "Si O2"
_cell_formula_units_Z 64
_cell_length_a 21.959138
_cell_length_b 7.174640
_cell_length_c 24.056061
_cell_angle_alpha 90.000000
_cell_angle_beta 140.911584
_cell_angle_gamma 90.000000
_cell_volume 2389.670510
_symmetry_space_group_name_H-M "C 2/C"
_symmetry_group_IT_number 15
_symmetry_cell_setting 'monoclinic'
loop_
_space_group_symop_operation_xyz
x,y,z
-x,y,1/2-z
-x,-y,-z
x,-y,1/2+z
1/2+x,1/2+y,z
1/2-x,1/2+y,1/2-z
1/2-x,1/2-y,-z
1/2+x,1/2-y,1/2+z
loop_
_atom_site_type_symbol
_atom_site_label
_atom_site_fract_x
_atom_site_fract_y
_atom_site_fract_z
Si Si1 0.714042 0.594703 0.898834
Si Si2 0.266812 0.465177 0.280568
Si Si3 0.895837 0.330422 0.393682
Si Si4 0.900580 0.841416 0.284654
Si Si5 0.148726 0.036434 0.459629
Si Si6 0.428508 0.776908 0.538234
Si Si7 0.850189 0.313283 0.130279
Si Si8 0.412013 0.215228 0.786791
O O1 0.665972 0.705496 0.814428
O O2 0.826216 0.635512 0.980547
O O3 0.703542 0.372297 0.883762
O O4 0.650811 0.612448 0.909973
O O5 0.328296 0.641739 0.344567
O O6 0.346146 0.344891 0.304526
O O7 0.198076 0.361421 0.275977
O O8 0.186888 0.487314 0.173708
O O9 0.950050 0.330387 0.490212
O O10 0.956891 0.329388 0.379747
O O11 0.987845 0.701862 0.357241
O O12 0.925244 0.059798 0.291700
O O13 0.115022 0.227237 0.404808
O O14 0.261726 0.051801 0.554904
O O15 0.092231 0.946877 0.470359
O O16 0.921585 0.361837 0.231018
#
# Coordination Sequence:
#
# PCOD9269347 Si02
#       8
#     8   8   8   8   8   8   8   8
#     4   9  18  37  54  79 114 153 184 232 291 333
#     4   9  17  34  54  76 107 150 181 222 293 329
#     4   9  19  31  55  79 105 149 187 228 282 341
#     4  10  20  34  55  83 115 150 185 240 288 344
#     4   9  19  32  57  86 104 149 190 234 281 347
#     4  12  21  32  57  90 114 141 200 241 279 350
#     4   8  16  34  58  78 107 146 193 219 288 348
#     4   8  16  32  55  75 108 152 178 227 280 345
#
# _framework density 26.781936000000002
#
# number of rings (size 3 to 8) (size 9 to 14) (size 15 to 20)
#    1.500    1.250    1.250    1.125    0.000    2.500 
#    0.000    0.000    2.750    5.250   13.000    0.000 
#    0.000    0.000    0.000    0.000    0.000    0.000 
#
# Total GULP energy -178182.660912 kJ/mol
# GULP energy per Si atom -5568.208153 kJ/mol
# Density = 2.672098 g / cm^3
# Si number density = 26.781936 Si / 1000 Ang^3
#
#
#
# Elastic Constant Matrix: (Units=GPa)
#
#
# Indices 1 2 3 4 5 6 
#
# 1 105.2349 15.1408 37.4187 0.0003 -25.6260 0.0007
# 2 15.1408 73.7247 32.7898 0.0006 -10.0454 0.0011
# 3 37.4187 32.7898 126.9362 0.0001 -23.8467 0.0005
# 4 0.0003 0.0006 0.0001 34.5718 0.0001 0.7200
# 5 -25.6260 -10.0454 -23.8467 0.0001 39.5464 0.0002
# 6 0.0007 0.0011 0.0005 0.7200 0.0002 34.9230
#
#
#
# Elastic Compliance Matrix: (Units=1/GPa)
#
#
# Indices 1 2 3 4 5 6 
#
# 1 0.011882 -0.000626 -0.002170 0.000000 0.006232 0.000000
# 2 -0.000626 0.015459 -0.003549 0.000000 0.001381 0.000000
# 3 -0.002170 -0.003549 0.010151 0.000000 0.003813 0.000000
# 4 0.000000 0.000000 0.000000 0.028938 0.000000 -0.000597
# 5 0.006232 0.001381 0.003813 0.000000 0.031975 0.000000
# 6 0.000000 0.000000 0.000000 -0.000597 0.000000 0.028647
#
#
# Mechanical properties :
#
#
# Convention : Reuss Voigt Hill
#
# Bulk Modulus (GPa) = 40.32080 52.95493 46.63787
# Shear Modulus (GPa) = 33.78160 36.51134 35.14647
#
# Velocity S-wave (km/s) = 3.55541 3.69627 3.62653
# Velocity P-wave (km/s) = 5.65177 6.16702 5.91501
#
# Compressibility (1/GPa) = 0.02480110
#
# Stress axis : x y z
#
# Youngs Moduli (GPa) = 84.16267 64.68576 98.51285
#
# Poissons Ratio (x) = 0.04048 0.21379
# Poissons Ratio (y) = 0.05267 0.34967
# Poissons Ratio (z) = 0.18265 0.22960
#
# Static dielectric constant tensor:
#      x y z
#    x 2.128400 0.000000 -0.002870 
#    y 0.000000 2.214800 0.000000 
#    z -0.002870 0.000000 2.198440 
# 
# From -- ./inp_files/281960.got.cif
#   From: 2010.05.17/outbox.cif.g08.bks.cpg/sg15_141_cif.got.tgz:281960.got - 2010.06.03 18:47:42.
