data_PCOD9269068
_publ_section_title
;
Structure prediction by ZEFSAII (Michael W. Deem and Ramdas Pophale) SiO2 
 PCOD9269068
Probable space group: C 2/C
;
_chemical_formula_sum "Si O2"
_cell_formula_units_Z 60
_cell_length_a 23.515373
_cell_length_b 28.393332
_cell_length_c 5.645400
_cell_angle_alpha 90.000000
_cell_angle_beta 123.882667
_cell_angle_gamma 90.000000
_cell_volume 3129.217339
_symmetry_space_group_name_H-M "C 2/C"
_symmetry_group_IT_number 15
_symmetry_cell_setting 'monoclinic'
loop_
_space_group_symop_operation_xyz
x,y,z
-x,y,1/2-z
-x,-y,-z
x,-y,1/2+z
1/2+x,1/2+y,z
1/2-x,1/2+y,1/2-z
1/2-x,1/2-y,-z
1/2+x,1/2-y,1/2+z
loop_
_atom_site_type_symbol
_atom_site_label
_atom_site_fract_x
_atom_site_fract_y
_atom_site_fract_z
Si Si1 0.000000 0.459329 0.250000
Si Si2 0.375433 0.956323 0.681730
Si Si3 0.535599 0.782039 0.075989
Si Si4 0.325736 0.726564 0.152761
Si Si5 0.709152 0.299752 0.427402
Si Si6 0.788387 0.387678 0.812928
Si Si7 0.079974 0.613607 0.613516
Si Si8 0.739789 0.516623 0.288834
O O1 0.060388 0.483293 0.546344
O O2 0.046681 0.423146 0.213083
O O3 0.329568 0.920892 0.729069
O O4 0.412856 0.917862 0.602759
O O5 0.317609 0.992931 0.452013
O O6 0.500000 0.772407 0.250000
O O7 0.612804 0.762354 0.257075
O O8 0.539086 0.838257 0.046428
O O9 0.500000 0.763436 0.750000
O O10 0.337186 0.705141 0.442678
O O11 0.250000 0.750000 0.000000
O O12 0.322400 0.694135 0.908666
O O13 0.750000 0.250000 0.500000
O O14 0.757039 0.343628 0.606120
O O15 0.739686 0.426965 0.815900
O O16 0.842741 0.372537 0.135315
O O17 0.709580 0.495757 0.461272
#
# Coordination Sequence:
#
# PCOD9269068 Si02
#       8
#     4   8   8   8   8   8   8   8
#     4  10  20  34  46  70  94 142 190 252 290 334
#     4  10  21  33  54  69 102 141 196 241 298 343
#     4  12  25  39  60  85 117 156 196 246 307 351
#     4  10  22  39  58  83 116 144 193 244 290 353
#     4  10  21  35  55  85 105 139 181 240 295 345
#     4  10  22  34  58  74 107 139 192 245 301 338
#     4  11  20  35  50  74 104 144 195 248 294 341
#     4  10  20  38  51  76  97 140 188 236 289 357
#
# _framework density 19.174122000000001
#
# number of rings (size 3 to 8) (size 9 to 14) (size 15 to 20)
#    0.000    1.600    2.000    3.600    7.467    0.000 
#    0.000    6.000    0.000    0.000    0.000    0.000 
#    0.000    0.000    0.000    0.000    0.000  186.667 
#
# Total GULP energy -167038.377683 kJ/mol
# GULP energy per Si atom -5567.945923 kJ/mol
# Density = 1.913048 g / cm^3
# Si number density = 19.174122 Si / 1000 Ang^3
#
#
#
# Elastic Constant Matrix: (Units=GPa)
#
#
# Indices 1 2 3 4 5 6 
#
# 1 75.3301 28.7907 35.9897 0.0000 -16.3381 0.0000
# 2 28.7907 87.0763 31.4553 0.0000 6.7658 0.0000
# 3 35.9897 31.4553 94.1107 0.0000 -24.1845 0.0000
# 4 0.0000 0.0000 0.0000 28.9430 0.0000 4.6318
# 5 -16.3381 6.7658 -24.1845 0.0000 33.6973 0.0000
# 6 0.0000 0.0000 0.0000 4.6318 0.0000 15.3558
#
#
#
# Elastic Compliance Matrix: (Units=1/GPa)
#
#
# Indices 1 2 3 4 5 6 
#
# 1 0.018674 -0.005610 -0.003249 0.000000 0.007849 0.000000
# 2 -0.005610 0.016276 -0.005926 0.000000 -0.010241 0.000000
# 3 -0.003249 -0.005926 0.016859 0.000000 0.011715 0.000000
# 4 0.000000 0.000000 0.000000 0.036303 0.000000 -0.010950
# 5 0.007849 -0.010241 0.011715 0.000000 0.043945 0.000000
# 6 0.000000 0.000000 0.000000 -0.010950 0.000000 0.068425
#
#
# Mechanical properties :
#
#
# Convention : Reuss Voigt Hill
#
# Bulk Modulus (GPa) = 44.96906 49.88762 47.42834
# Shear Modulus (GPa) = 21.05568 26.28466 23.67017
#
# Velocity S-wave (km/s) = 3.31740 3.70650 3.51734
# Velocity P-wave (km/s) = 6.17879 6.66275 6.42533
#
# Compressibility (1/GPa) = 0.02223751
#
# Stress axis : x y z
#
# Youngs Moduli (GPa) = 53.55136 61.44128 59.31383
#
# Poissons Ratio (x) = 0.34471 0.19272
# Poissons Ratio (y) = 0.30044 0.35151
# Poissons Ratio (z) = 0.17399 0.36412
#
# Static dielectric constant tensor:
#      x y z
#    x 1.702530 0.000000 -0.077200 
#    y 0.000000 1.653580 0.000000 
#    z -0.077200 0.000000 1.819000 
# 
# From -- ./inp_files/17854.got.cif
#   From: 2010.05.17/outbox.cif.g08.bks.cpg/sg15_9_cif.got.tgz:17854.got - 2010.06.03 18:47:42.
