data_PCOD9269357
_publ_section_title
;
Structure prediction by ZEFSAII (Michael W. Deem and Ramdas Pophale) SiO2 
 PCOD9269357
Probable space group: C 2/C
;
_chemical_formula_sum "Si O2"
_cell_formula_units_Z 52
_cell_length_a 28.572114
_cell_length_b 12.046548
_cell_length_c 12.456269
_cell_angle_alpha 90.000000
_cell_angle_beta 142.120969
_cell_angle_gamma 90.000000
_cell_volume 2632.441767
_symmetry_space_group_name_H-M "C 2/C"
_symmetry_group_IT_number 15
_symmetry_cell_setting 'monoclinic'
loop_
_space_group_symop_operation_xyz
x,y,z
-x,y,1/2-z
-x,-y,-z
x,-y,1/2+z
1/2+x,1/2+y,z
1/2-x,1/2+y,1/2-z
1/2-x,1/2-y,-z
1/2+x,1/2-y,1/2+z
loop_
_atom_site_type_symbol
_atom_site_label
_atom_site_fract_x
_atom_site_fract_y
_atom_site_fract_z
Si Si1 0.669562 0.535683 0.186888
Si Si2 0.705287 0.912981 0.972609
Si Si3 0.573090 0.059695 0.681463
Si Si4 0.784483 0.190401 0.419615
Si Si5 0.159797 0.782538 0.843727
Si Si6 0.500000 0.147702 0.750000
Si Si7 0.369871 0.297568 0.456414
O O1 0.755052 0.494363 0.371115
O O2 0.674762 0.613159 0.092160
O O3 0.644872 0.611436 0.241933
O O4 0.625899 0.420979 0.084747
O O5 0.768510 0.872695 0.001902
O O6 0.642492 0.976589 0.793006
O O7 0.673463 0.804602 0.974238
O O8 0.606091 0.180311 0.708345
O O9 0.553728 0.075357 0.772129
O O10 0.500000 0.000000 0.500000
O O11 0.703086 0.233757 0.225343
O O12 0.250000 0.750000 0.000000
O O13 0.142983 0.805578 0.938386
O O14 0.446191 0.225922 0.580067
#
# Coordination Sequence:
#
# PCOD9269357 Si02
#       7
#     8   8   8   8   8   4   8
#     4  11  20  34  59  87 110 154 190 247 293 340
#     4  10  21  35  55  85 117 147 191 241 291 353
#     4  11  23  38  61  84 119 156 192 242 302 355
#     4  10  20  34  55  86 115 144 189 244 293 343
#     4  11  20  38  59  92 116 146 208 246 288 364
#     4  10  22  42  54  80 118 160 196 230 294 368
#     4  10  21  37  58  80 119 155 192 242 299 345
#
# _framework density 19.753523999999999
#
# number of rings (size 3 to 8) (size 9 to 14) (size 15 to 20)
#    0.000    1.538    3.077    2.769    0.000    1.231 
#    0.000    4.615    0.000    0.000    0.000    0.000 
#    0.000    0.000    0.000    0.000    0.000    0.000 
#
# Total GULP energy -145077.091339 kJ/mol
# GULP energy per Si atom -5579.888128 kJ/mol
# Density = 1.970856 g / cm^3
# Si number density = 19.753524 Si / 1000 Ang^3
#
#
#
# Elastic Constant Matrix: (Units=GPa)
#
#
# Indices 1 2 3 4 5 6 
#
# 1 36.8825 10.2967 -10.3275 0.0000 -12.9435 0.0000
# 2 10.2967 104.4054 29.9783 0.0000 -5.2603 0.0000
# 3 -10.3275 29.9783 48.1599 0.0000 -5.1166 0.0000
# 4 0.0000 0.0000 0.0000 37.9291 0.0000 -11.8696
# 5 -12.9435 -5.2603 -5.1166 0.0000 27.3885 0.0000
# 6 0.0000 0.0000 0.0000 -11.8696 0.0000 26.2974
#
#
#
# Elastic Compliance Matrix: (Units=1/GPa)
#
#
# Indices 1 2 3 4 5 6 
#
# 1 0.040873 -0.007469 0.015624 0.000000 0.020800 0.000000
# 2 -0.007469 0.013049 -0.010032 0.000000 -0.002898 0.000000
# 3 0.015624 -0.010032 0.031566 0.000000 0.011354 0.000000
# 4 0.000000 0.000000 0.000000 0.030702 0.000000 0.013858
# 5 0.020800 -0.002898 0.011354 0.000000 0.047906 0.000000
# 6 0.000000 0.000000 0.000000 0.013858 0.000000 0.044281
#
#
# Mechanical properties :
#
#
# Convention : Reuss Voigt Hill
#
# Bulk Modulus (GPa) = 12.23495 27.70474 19.96985
# Shear Modulus (GPa) = 20.88759 28.95636 24.92197
#
# Velocity S-wave (km/s) = 3.25531 3.83284 3.55582
# Velocity P-wave (km/s) = 4.50962 5.80028 5.19518
#
# Compressibility (1/GPa) = 0.08173305
#
# Stress axis : x y z
#
# Youngs Moduli (GPa) = 24.46607 76.63241 31.67986
#
# Poissons Ratio (x) = 0.57238 -0.49497
# Poissons Ratio (y) = 0.18274 0.31783
# Poissons Ratio (z) = -0.38226 0.76881
#
# Static dielectric constant tensor:
#      x y z
#    x 1.671430 0.000000 -0.001910 
#    y 0.000000 1.707670 0.000000 
#    z -0.001910 0.000000 1.716530 
# 
# From -- ./inp_files/126410.got.cif
#   From: 2010.05.17/outbox.cif.g08.bks.cpg/sg15_64_cif.got.tgz:126410.got - 2010.06.03 18:47:42.
