data_PCOD9269323
_publ_section_title
;
Structure prediction by ZEFSAII (Michael W. Deem and Ramdas Pophale) SiO2 
 PCOD9269323
Probable space group: C 2/C
;
_chemical_formula_sum "Si O2"
_cell_formula_units_Z 56
_cell_length_a 20.614273
_cell_length_b 24.070376
_cell_length_c 12.919235
_cell_angle_alpha 90.000000
_cell_angle_beta 150.232803
_cell_angle_gamma 90.000000
_cell_volume 3182.635389
_symmetry_space_group_name_H-M "C 2/C"
_symmetry_group_IT_number 15
_symmetry_cell_setting 'monoclinic'
loop_
_space_group_symop_operation_xyz
x,y,z
-x,y,1/2-z
-x,-y,-z
x,-y,1/2+z
1/2+x,1/2+y,z
1/2-x,1/2+y,1/2-z
1/2-x,1/2-y,-z
1/2+x,1/2-y,1/2+z
loop_
_atom_site_type_symbol
_atom_site_label
_atom_site_fract_x
_atom_site_fract_y
_atom_site_fract_z
Si Si1 0.899733 0.816468 0.707852
Si Si2 0.600052 0.196250 0.714553
Si Si3 0.000000 0.623809 0.750000
Si Si4 0.660119 0.891684 0.148894
Si Si5 0.335032 0.036832 0.634244
Si Si6 0.000000 0.447250 0.750000
Si Si7 0.443150 0.523314 0.775796
Si Si8 0.554190 0.413092 0.014270
O O1 0.748756 0.815180 0.462196
O O2 0.920414 0.761763 0.806332
O O3 0.000000 0.812555 0.750000
O O4 0.936942 0.872779 0.819011
O O5 0.498510 0.164687 0.649678
O O6 0.596584 0.165399 0.600477
O O7 0.121445 0.583120 0.891065
O O8 0.646065 0.934821 0.226921
O O9 0.813982 0.885318 0.343458
O O10 0.599371 0.912575 0.957750
O O11 0.430389 0.986295 0.738362
O O12 0.192906 0.009668 0.425708
O O13 0.500000 0.547638 0.750000
O O14 0.437354 0.570323 0.854505
O O15 0.540642 0.473494 0.942907
#
# Coordination Sequence:
#
# PCOD9269323 Si02
#       8
#     8   8   4   8   8   4   8   8
#     4  11  20  36  61  89 113 143 187 241 291 337
#     4  10  21  35  59  86 116 145 184 242 288 335
#     4   9  18  32  50  86 118 146 181 230 282 332
#     4  11  20  36  56  81 113 152 192 232 280 339
#     4  10  20  34  55  80 117 151 189 229 278 339
#     4  11  22  36  52  78 116 156 193 226 278 334
#     4  11  21  36  56  85 117 148 186 230 285 343
#     4  11  21  34  59  84 113 148 186 232 284 339
#
# _framework density 17.595480999999999
#
# number of rings (size 3 to 8) (size 9 to 14) (size 15 to 20)
#    0.000    1.429    5.000    2.571    0.000    0.000 
#    0.000    1.429    1.571    0.857    0.000    0.000 
#    0.000    0.000    0.000    0.000    0.000    0.000 
#
# Total GULP energy -156027.085651 kJ/mol
# GULP energy per Si atom -5572.395916 kJ/mol
# Density = 1.755543 g / cm^3
# Si number density = 17.595481 Si / 1000 Ang^3
#
#
#
# Elastic Constant Matrix: (Units=GPa)
#
#
# Indices 1 2 3 4 5 6 
#
# 1 86.5804 25.7578 16.3950 0.0000 -3.9719 0.0000
# 2 25.7578 77.3163 7.2654 0.0000 -11.3722 0.0000
# 3 16.3950 7.2654 37.6951 0.0000 -3.3450 0.0000
# 4 0.0000 0.0000 0.0000 15.1001 0.0000 3.9582
# 5 -3.9719 -11.3722 -3.3450 0.0000 22.8817 0.0000
# 6 0.0000 0.0000 0.0000 3.9582 0.0000 8.0331
#
#
#
# Elastic Compliance Matrix: (Units=1/GPa)
#
#
# Indices 1 2 3 4 5 6 
#
# 1 0.013755 -0.004157 -0.005221 0.000000 -0.000441 0.000000
# 2 -0.004157 0.015376 -0.000549 0.000000 0.006840 0.000000
# 3 -0.005221 -0.000549 0.029179 0.000000 0.003087 0.000000
# 4 0.000000 0.000000 0.000000 0.076047 0.000000 -0.037471
# 5 -0.000441 0.006840 0.003087 0.000000 0.047477 0.000000
# 6 0.000000 0.000000 0.000000 -0.037471 0.000000 0.142948
#
#
# Mechanical properties :
#
#
# Convention : Reuss Voigt Hill
#
# Bulk Modulus (GPa) = 26.00229 33.38092 29.69160
# Shear Modulus (GPa) = 13.98779 19.34787 16.66783
#
# Velocity S-wave (km/s) = 2.82257 3.31961 3.08113
# Velocity P-wave (km/s) = 5.04306 5.80565 5.43774
#
# Compressibility (1/GPa) = 0.03845815
#
# Stress axis : x y z
#
# Youngs Moduli (GPa) = 72.70122 65.03468 34.27134
#
# Poissons Ratio (x) = 0.27034 0.17891
# Poissons Ratio (y) = 0.30221 0.01880
# Poissons Ratio (z) = 0.37954 0.03569
#
# Static dielectric constant tensor:
#      x y z
#    x 1.622620 0.000000 -0.000090 
#    y 0.000000 1.609530 0.000000 
#    z -0.000090 0.000000 1.620230 
# 
# From -- ./inp_files/114783.got.cif
#   From: 2010.05.17/outbox.cif.g08.bks.cpg/sg15_58_cif.got.tgz:114783.got - 2010.06.03 18:47:42.
