data_PCOD9269096
_publ_section_title
;
Structure prediction by ZEFSAII (Michael W. Deem and Ramdas Pophale) SiO2 
 PCOD9269096
Probable space group: C 2/C
;
_chemical_formula_sum "Si O2"
_cell_formula_units_Z 64
_cell_length_a 25.066068
_cell_length_b 22.471387
_cell_length_c 18.609048
_cell_angle_alpha 90.000000
_cell_angle_beta 160.426174
_cell_angle_gamma 90.000000
_cell_volume 3511.660439
_symmetry_space_group_name_H-M "C 2/C"
_symmetry_group_IT_number 15
_symmetry_cell_setting 'monoclinic'
loop_
_space_group_symop_operation_xyz
x,y,z
-x,y,1/2-z
-x,-y,-z
x,-y,1/2+z
1/2+x,1/2+y,z
1/2-x,1/2+y,1/2-z
1/2-x,1/2-y,-z
1/2+x,1/2-y,1/2+z
loop_
_atom_site_type_symbol
_atom_site_label
_atom_site_fract_x
_atom_site_fract_y
_atom_site_fract_z
Si Si1 0.703557 0.442291 0.641801
Si Si2 0.250260 0.321995 0.582975
Si Si3 0.256595 0.040309 0.821095
Si Si4 0.938963 0.886016 0.535527
Si Si5 0.885429 0.010799 0.706865
Si Si6 0.601062 0.999053 0.233081
Si Si7 0.071212 0.371544 0.489649
Si Si8 0.738140 0.816186 0.398275
O O1 0.687800 0.480895 0.694632
O O2 0.536769 0.445343 0.388917
O O3 0.830533 0.478772 0.755710
O O4 0.784390 0.382095 0.771673
O O5 0.431486 0.339887 0.829904
O O6 0.138957 0.357970 0.496402
O O7 0.211284 0.252421 0.542661
O O8 0.239217 0.334673 0.483681
O O9 0.183480 0.093398 0.681349
O O10 0.198373 0.034769 0.827868
O O11 0.447297 0.037676 0.059401
O O12 0.847445 0.857118 0.486884
O O13 0.034536 0.945634 0.680595
O O14 0.749470 0.004994 0.474998
O O15 0.533141 0.932142 0.144367
O O16 0.946898 0.322197 0.357263
#
# Coordination Sequence:
#
# PCOD9269096 Si02
#       8
#     8   8   8   8   8   8   8   8
#     4  10  20  34  50  74 104 134 170 212 251 303
#     4  11  23  36  51  75 106 139 180 221 248 287
#     4  10  20  34  50  74 104 134 170 212 251 303
#     4  11  20  35  54  73 103 144 175 205 260 305
#     4  11  21  34  52  77 105 136 172 207 251 310
#     4  11  21  34  52  77 105 136 172 207 251 310
#     4  11  20  35  54  73 103 144 175 205 260 305
#     4  11  23  36  51  75 106 139 180 221 248 287
#
# _framework density 18.224996999999998
#
# number of rings (size 3 to 8) (size 9 to 14) (size 15 to 20)
#    0.000    1.250    0.000   10.500    0.000    6.000 
#    0.000    0.000    0.000    0.000    0.000    0.000 
#    0.000   70.000    0.000    0.000    0.000    0.000 
#
# Total GULP energy -178703.982879 kJ/mol
# GULP energy per Si atom -5584.499465 kJ/mol
# Density = 1.818352 g / cm^3
# Si number density = 18.224997 Si / 1000 Ang^3
#
#
#
# Elastic Constant Matrix: (Units=GPa)
#
#
# Indices 1 2 3 4 5 6 
#
# 1 96.2203 30.2116 17.3571 0.0000 10.2832 0.0000
# 2 30.2116 46.1655 17.4713 0.0000 -5.4102 0.0000
# 3 17.3571 17.4713 110.5057 0.0000 -1.5153 0.0000
# 4 0.0000 0.0000 0.0000 17.7613 0.0000 1.9472
# 5 10.2832 -5.4102 -1.5153 0.0000 32.0798 0.0000
# 6 0.0000 0.0000 0.0000 1.9472 0.0000 26.8211
#
#
#
# Elastic Compliance Matrix: (Units=1/GPa)
#
#
# Indices 1 2 3 4 5 6 
#
# 1 0.014273 -0.009779 -0.000782 0.000000 -0.006261 0.000000
# 2 -0.009779 0.030191 -0.003127 0.000000 0.008078 0.000000
# 3 -0.000782 -0.003127 0.009669 0.000000 0.000180 0.000000
# 4 0.000000 0.000000 0.000000 0.056754 0.000000 -0.004120
# 5 -0.006261 0.008078 0.000180 0.000000 0.034550 0.000000
# 6 0.000000 0.000000 0.000000 -0.004120 0.000000 0.037583
#
#
# Mechanical properties :
#
#
# Convention : Reuss Voigt Hill
#
# Bulk Modulus (GPa) = 37.37075 42.55238 39.96157
# Shear Modulus (GPa) = 22.79840 27.85588 25.32714
#
# Velocity S-wave (km/s) = 3.54070 3.91377 3.73190
# Velocity P-wave (km/s) = 6.10452 6.61986 6.36741
#
# Compressibility (1/GPa) = 0.02675889
#
# Stress axis : x y z
#
# Youngs Moduli (GPa) = 70.06061 33.12295 103.42473
#
# Poissons Ratio (x) = 0.32390 0.08085
# Poissons Ratio (y) = 0.68510 0.32336
# Poissons Ratio (z) = 0.05477 0.10356
#
# Static dielectric constant tensor:
#      x y z
#    x 1.626890 0.000000 0.011480 
#    y 0.000000 1.644930 0.000000 
#    z 0.011480 0.000000 1.709470 
# 
# From -- ./inp_files/220421.got.cif
#   From: 2010.05.17/outbox.cif.g08.bks.cpg/sg15_111_cif.got.tgz:220421.got - 2010.06.03 18:47:42.
