data_PCOD9269797
_publ_section_title
;
Structure prediction by ZEFSAII (Michael W. Deem and Ramdas Pophale) SiO2 
 PCOD9269797
Probable space group: C 2/C
;
_chemical_formula_sum "Si O2"
_cell_formula_units_Z 52
_cell_length_a 13.092910
_cell_length_b 6.447710
_cell_length_c 27.564568
_cell_angle_alpha 90.000000
_cell_angle_beta 108.736467
_cell_angle_gamma 90.000000
_cell_volume 2203.665189
_symmetry_space_group_name_H-M "C 2/C"
_symmetry_group_IT_number 15
_symmetry_cell_setting 'monoclinic'
loop_
_space_group_symop_operation_xyz
x,y,z
-x,y,1/2-z
-x,-y,-z
x,-y,1/2+z
1/2+x,1/2+y,z
1/2-x,1/2+y,1/2-z
1/2-x,1/2-y,-z
1/2+x,1/2-y,1/2+z
loop_
_atom_site_type_symbol
_atom_site_label
_atom_site_fract_x
_atom_site_fract_y
_atom_site_fract_z
Si Si1 0.000000 0.564034 0.750000
Si Si2 0.084260 0.688211 0.515874
Si Si3 0.182877 0.055992 0.680527
Si Si4 0.955216 0.922783 0.426040
Si Si5 0.328762 0.711670 0.714481
Si Si6 0.238594 0.337626 0.551912
Si Si7 0.125030 0.828329 0.838016
O O1 0.098902 0.408297 0.760267
O O2 0.023763 0.705210 0.800499
O O3 0.196602 0.573992 0.542137
O O4 0.000000 0.500000 0.500000
O O5 0.063170 0.817553 0.463281
O O6 0.053894 0.846770 0.553850
O O7 0.072061 0.089486 0.634706
O O8 0.181128 0.085409 0.737597
O O9 0.271057 0.217886 0.672455
O O10 0.222141 0.820636 0.677629
O O11 0.855276 0.798595 0.436316
O O12 0.378386 0.561131 0.682288
O O13 0.250000 0.250000 0.500000
O O14 0.345375 0.317464 0.601085
#
# Coordination Sequence:
#
# PCOD9269797 Si02
#       7
#     4   8   8   8   8   8   8
#     4  10  24  38  56  84 126 160 190 244 306 356
#     4   9  18  36  55  79 112 149 190 244 283 335
#     4  10  20  34  61  86 108 151 195 244 297 352
#     4   9  19  36  56  83 115 144 192 243 291 342
#     4  11  20  38  59  85 115 151 196 243 297 356
#     4  10  21  36  59  84 114 157 197 237 293 346
#     4  10  21  40  57  84 120 154 197 249 291 357
#
# _framework density 23.597052000000001
#
# number of rings (size 3 to 8) (size 9 to 14) (size 15 to 20)
#    0.000    2.154    1.538    1.385    0.000    1.846 
#    0.000    9.231    0.000    0.000    0.000    0.000 
#    0.000    0.000    0.000    0.000    0.000    0.000 
#
# Total GULP energy -145339.303269 kJ/mol
# GULP energy per Si atom -5589.973203 kJ/mol
# Density = 2.354334 g / cm^3
# Si number density = 23.597052 Si / 1000 Ang^3
#
#
#
# Elastic Constant Matrix: (Units=GPa)
#
#
# Indices 1 2 3 4 5 6 
#
# 1 48.5766 19.7992 26.5947 0.0000 1.9996 0.0000
# 2 19.7992 132.0548 48.0564 0.0000 8.7783 0.0000
# 3 26.5947 48.0564 166.0715 0.0000 9.4713 0.0000
# 4 0.0000 0.0000 0.0000 22.7786 0.0000 8.4817
# 5 1.9996 8.7783 9.4713 0.0000 32.8982 0.0000
# 6 0.0000 0.0000 0.0000 8.4817 0.0000 23.8664
#
#
#
# Elastic Compliance Matrix: (Units=1/GPa)
#
#
# Indices 1 2 3 4 5 6 
#
# 1 0.023214 -0.002383 -0.003033 0.000000 0.000098 0.000000
# 2 -0.002383 0.008790 -0.002070 0.000000 -0.001605 0.000000
# 3 -0.003033 -0.002070 0.007182 0.000000 -0.001331 0.000000
# 4 0.000000 0.000000 0.000000 0.050596 0.000000 -0.017981
# 5 0.000098 -0.001605 -0.001331 0.000000 0.031202 0.000000
# 6 0.000000 0.000000 0.000000 -0.017981 0.000000 0.048290
#
#
# Mechanical properties :
#
#
# Convention : Reuss Voigt Hill
#
# Bulk Modulus (GPa) = 41.30130 59.51151 50.40640
# Shear Modulus (GPa) = 25.99837 32.72548 29.36193
#
# Velocity S-wave (km/s) = 3.32288 3.72808 3.53130
# Velocity P-wave (km/s) = 5.68004 6.61862 6.16721
#
# Compressibility (1/GPa) = 0.02421231
#
# Stress axis : x y z
#
# Youngs Moduli (GPa) = 43.07727 113.76510 139.23079
#
# Poissons Ratio (x) = 0.27112 0.42236
# Poissons Ratio (y) = 0.10266 0.28827
# Poissons Ratio (z) = 0.13067 0.23554
#
# Static dielectric constant tensor:
#      x y z
#    x 1.994060 0.000000 0.065040 
#    y 0.000000 1.885590 0.000000 
#    z 0.065040 0.000000 1.901310 
# 
# From -- ./inp_files/314815.got.cif
#   From: 2010.05.17/outbox.cif.g08.bks.cpg/sg15_158_cif.got.tgz:314815.got - 2010.06.03 18:47:42.
