data_PCOD9269661
_publ_section_title
;
Structure prediction by ZEFSAII (Michael W. Deem and Ramdas Pophale) SiO2 
 PCOD9269661
Probable space group: C 2/C
;
_chemical_formula_sum "Si O2"
_cell_formula_units_Z 44
_cell_length_a 11.205650
_cell_length_b 8.931514
_cell_length_c 18.722162
_cell_angle_alpha 90.000000
_cell_angle_beta 115.353038
_cell_angle_gamma 90.000000
_cell_volume 1693.308000
_symmetry_space_group_name_H-M "C 2/C"
_symmetry_group_IT_number 15
_symmetry_cell_setting 'monoclinic'
loop_
_space_group_symop_operation_xyz
x,y,z
-x,y,1/2-z
-x,-y,-z
x,-y,1/2+z
1/2+x,1/2+y,z
1/2-x,1/2+y,1/2-z
1/2-x,1/2-y,-z
1/2+x,1/2-y,1/2+z
loop_
_atom_site_type_symbol
_atom_site_label
_atom_site_fract_x
_atom_site_fract_y
_atom_site_fract_z
Si Si1 0.811815 0.117310 0.061672
Si Si2 0.497724 0.842554 0.328855
Si Si3 0.754949 0.357048 0.699363
Si Si4 0.500000 0.670030 0.750000
Si Si5 0.896769 0.582739 0.386087
Si Si6 0.551993 0.424343 0.106451
O O1 0.699507 0.029298 0.075830
O O2 0.893259 0.213950 0.140794
O O3 0.750000 0.250000 0.000000
O O4 0.921608 0.016071 0.050359
O O5 0.500000 0.907286 0.250000
O O6 0.361271 0.759772 0.312995
O O7 0.511005 0.967991 0.393329
O O8 0.813407 0.408725 0.790707
O O9 0.688876 0.485488 0.634128
O O10 0.876461 0.271133 0.694968
O O11 0.459198 0.580709 0.809406
O O12 0.941616 0.751982 0.415103
#
# Coordination Sequence:
#
# PCOD9269661 Si02
#       6
#     8   8   8   4   8   8
#     4  11  25  45  64  88 130 176 215 259 313 381
#     4  11  23  41  66  97 130 164 211 268 323 379
#     4  10  20  36  61  93 130 161 197 260 323 374
#     4  10  20  34  58  94 130 154 200 262 316 372
#     4  11  22  37  62  95 125 163 210 260 319 378
#     4  10  22  37  60  92 125 164 204 256 315 378
#
# _framework density 25.984641
#
# number of rings (size 3 to 8) (size 9 to 14) (size 15 to 20)
#    0.000    1.455    1.818    4.364    7.636    1.455 
#    0.000    0.909    0.000    0.000    0.000    0.000 
#    0.000    0.000    0.000    0.000    0.000    0.000 
#
# Total GULP energy -123242.486741 kJ/mol
# GULP energy per Si atom -5601.931215 kJ/mol
# Density = 2.592550 g / cm^3
# Si number density = 25.984641 Si / 1000 Ang^3
#
#
#
# Elastic Constant Matrix: (Units=GPa)
#
#
# Indices 1 2 3 4 5 6 
#
# 1 101.1499 29.3730 11.1563 0.0000 -3.5636 0.0000
# 2 29.3730 110.0208 7.4227 0.0000 9.9475 0.0000
# 3 11.1563 7.4227 53.0710 0.0000 9.3559 0.0000
# 4 0.0000 0.0000 0.0000 26.4665 0.0000 6.9186
# 5 -3.5636 9.9475 9.3559 0.0000 16.6983 0.0000
# 6 0.0000 0.0000 0.0000 6.9186 0.0000 43.8754
#
#
#
# Elastic Compliance Matrix: (Units=1/GPa)
#
#
# Indices 1 2 3 4 5 6 
#
# 1 0.011423 -0.003403 -0.003010 0.000000 0.006151 0.000000
# 2 -0.003403 0.010627 0.000525 0.000000 -0.007351 0.000000
# 3 -0.003010 0.000525 0.021715 0.000000 -0.013122 0.000000
# 4 0.000000 0.000000 0.000000 0.039408 0.000000 -0.006214
# 5 0.006151 -0.007351 -0.013122 0.000000 0.072930 0.000000
# 6 0.000000 0.000000 0.000000 -0.006214 0.000000 0.023772
#
#
# Mechanical properties :
#
#
# Convention : Reuss Voigt Hill
#
# Bulk Modulus (GPa) = 31.25990 40.01617 35.63804
# Shear Modulus (GPa) = 24.71405 31.82736 28.27070
#
# Velocity S-wave (km/s) = 3.08734 3.50359 3.30203
# Velocity P-wave (km/s) = 4.97646 5.63917 5.31815
#
# Compressibility (1/GPa) = 0.03198986
#
# Stress axis : x y z
#
# Youngs Moduli (GPa) = 87.54158 94.10103 46.05057
#
# Poissons Ratio (x) = 0.32021 0.13860
# Poissons Ratio (y) = 0.29789 -0.02417
# Poissons Ratio (z) = 0.26348 -0.04939
#
# Static dielectric constant tensor:
#      x y z
#    x 2.002460 0.000000 0.019590 
#    y 0.000000 2.067590 0.000000 
#    z 0.019590 0.000000 2.048780 
# 
# From -- ./inp_files/236135.got.cif
#   From: 2010.05.17/outbox.cif.g08.bks.cpg/sg15_119_cif.got.tgz:236135.got - 2010.06.03 18:47:42.
