data_PCOD9269285
_publ_section_title
;
Structure prediction by ZEFSAII (Michael W. Deem and Ramdas Pophale) SiO2 
 PCOD9269285
Probable space group: C 2/C
;
_chemical_formula_sum "Si O2"
_cell_formula_units_Z 56
_cell_length_a 16.600891
_cell_length_b 22.457024
_cell_length_c 12.103537
_cell_angle_alpha 90.000000
_cell_angle_beta 38.646197
_cell_angle_gamma 90.000000
_cell_volume 2817.960949
_symmetry_space_group_name_H-M "C 2/C"
_symmetry_group_IT_number 15
_symmetry_cell_setting 'monoclinic'
loop_
_space_group_symop_operation_xyz
x,y,z
-x,y,1/2-z
-x,-y,-z
x,-y,1/2+z
1/2+x,1/2+y,z
1/2-x,1/2+y,1/2-z
1/2-x,1/2-y,-z
1/2+x,1/2-y,1/2+z
loop_
_atom_site_type_symbol
_atom_site_label
_atom_site_fract_x
_atom_site_fract_y
_atom_site_fract_z
Si Si1 0.474160 0.312370 0.968921
Si Si2 0.506656 0.822820 0.977578
Si Si3 0.843213 0.504257 0.168564
Si Si4 0.133973 0.407705 0.665181
Si Si5 0.613119 0.907121 0.056686
Si Si6 0.256235 0.619879 0.806886
Si Si7 0.693136 0.684192 0.072797
O O1 0.395904 0.320140 0.938677
O O2 0.619044 0.322045 0.769524
O O3 0.466514 0.245713 0.024951
O O4 0.399143 0.356548 0.130366
O O5 0.589556 0.851761 0.788856
O O6 0.547720 0.861692 0.039624
O O7 0.355711 0.833794 0.111998
O O8 0.812949 0.541229 0.311042
O O9 0.778576 0.440610 0.221736
O O10 0.812121 0.544309 0.094764
O O11 0.000000 0.500000 0.000000
O O12 0.229699 0.391392 0.464400
O O13 0.000000 0.427070 0.750000
O O14 0.500000 0.935229 0.250000
O O15 0.701688 0.867225 0.039438
O O16 0.750000 0.750000 0.000000
#
# Coordination Sequence:
#
# PCOD9269285 Si02
#       7
#     8   8   8   8   8   8   8
#     4  11  23  37  55  85 123 162 200 241 308 375
#     4  10  20  34  54  85 119 154 201 250 307 356
#     4  11  21  35  60  94 120 151 203 256 309 353
#     4   9  19  35  56  86 124 151 200 257 303 351
#     4  11  21  33  60  90 117 152 195 255 314 350
#     4  11  22  38  60  87 123 158 201 257 303 372
#     4  11  22  37  59  86 121 157 201 251 302 375
#
# _framework density 19.872526000000001
#
# number of rings (size 3 to 8) (size 9 to 14) (size 15 to 20)
#    0.000    1.429    5.714    2.571    2.000    0.571 
#    0.000    0.714    0.000    0.000    0.000    0.000 
#    0.000    0.000    0.000    0.000    0.000    0.000 
#
# Total GULP energy -156379.435489 kJ/mol
# GULP energy per Si atom -5584.979839 kJ/mol
# Density = 1.982730 g / cm^3
# Si number density = 19.872526 Si / 1000 Ang^3
#
#
#
# Elastic Constant Matrix: (Units=GPa)
#
#
# Indices 1 2 3 4 5 6 
#
# 1 43.4996 27.3400 18.8814 0.0005 16.9472 -0.0002
# 2 27.3400 112.8884 52.8736 0.0003 7.2527 -0.0003
# 3 18.8814 52.8736 142.6135 0.0003 15.7374 -0.0001
# 4 0.0005 0.0003 0.0003 12.5862 -0.0005 1.4023
# 5 16.9472 7.2527 15.7374 -0.0005 25.4745 0.0003
# 6 -0.0002 -0.0003 -0.0001 1.4023 0.0003 34.2254
#
#
#
# Elastic Compliance Matrix: (Units=1/GPa)
#
#
# Indices 1 2 3 4 5 6 
#
# 1 0.036188 -0.007553 0.000460 -0.000002 -0.022208 0.000000
# 2 -0.007553 0.012306 -0.004003 0.000000 0.003994 0.000000
# 3 0.000460 -0.004003 0.008954 0.000000 -0.004697 0.000000
# 4 -0.000002 0.000000 0.000000 0.079816 0.000003 -0.003270
# 5 -0.022208 0.003994 -0.004697 0.000003 0.055794 -0.000001
# 6 0.000000 0.000000 0.000000 -0.003270 -0.000001 0.029352
#
#
# Mechanical properties :
#
#
# Convention : Reuss Voigt Hill
#
# Bulk Modulus (GPa) = 28.36449 55.24353 41.80401
# Shear Modulus (GPa) = 19.50421 27.78431 23.64426
#
# Velocity S-wave (km/s) = 3.13623 3.74321 3.45308
# Velocity P-wave (km/s) = 5.23630 6.82213 6.08113
#
# Compressibility (1/GPa) = 0.03525535
#
# Stress axis : x y z
#
# Youngs Moduli (GPa) = 27.63309 81.26215 111.68673
#
# Poissons Ratio (x) = 0.61376 -0.05134
# Poissons Ratio (y) = 0.20871 0.44710
# Poissons Ratio (z) = -0.01270 0.32530
#
# Static dielectric constant tensor:
#      x y z
#    x 1.678170 0.000010 0.112890 
#    y 0.000010 1.670520 -0.000040 
#    z 0.112890 -0.000040 1.432200 
# 
# From -- ./inp_files/107926.got.cif
#   From: 2010.05.17/outbox.cif.g08.bks.cpg/sg15_54_cif.got.tgz:107926.got - 2010.06.03 18:47:42.
