data_PCOD9269750
_publ_section_title
;
Structure prediction by ZEFSAII (Michael W. Deem and Ramdas Pophale) SiO2 
 PCOD9269750
Probable space group: C 2/C
;
_chemical_formula_sum "Si O2"
_cell_formula_units_Z 60
_cell_length_a 21.915520
_cell_length_b 14.063086
_cell_length_c 8.793062
_cell_angle_alpha 90.000000
_cell_angle_beta 92.533710
_cell_angle_gamma 90.000000
_cell_volume 2707.370967
_symmetry_space_group_name_H-M "C 2/C"
_symmetry_group_IT_number 15
_symmetry_cell_setting 'monoclinic'
loop_
_space_group_symop_operation_xyz
x,y,z
-x,y,1/2-z
-x,-y,-z
x,-y,1/2+z
1/2+x,1/2+y,z
1/2-x,1/2+y,1/2-z
1/2-x,1/2-y,-z
1/2+x,1/2-y,1/2+z
loop_
_atom_site_type_symbol
_atom_site_label
_atom_site_fract_x
_atom_site_fract_y
_atom_site_fract_z
Si Si1 0.750000 0.250000 0.500000
Si Si2 0.177390 0.270025 0.508250
Si Si3 0.712290 0.561067 0.037249
Si Si4 0.856507 0.657089 0.819617
Si Si5 0.409269 0.547075 0.286287
Si Si6 0.029654 0.237939 0.091922
Si Si7 0.297120 0.045480 0.319062
Si Si8 0.577266 0.632834 0.550777
O O1 0.700250 0.338769 0.458126
O O2 0.798278 0.299322 0.394317
O O3 0.250000 0.250000 0.500000
O O4 0.144961 0.289006 0.342669
O O5 0.170345 0.366906 0.599538
O O6 0.141734 0.184693 0.583021
O O7 0.657235 0.535760 0.142706
O O8 0.768547 0.583712 0.159097
O O9 0.740830 0.485940 0.923670
O O10 0.916750 0.684981 0.921161
O O11 0.840291 0.545670 0.798866
O O12 0.440202 0.634491 0.377410
O O13 0.413999 0.576721 0.110488
O O14 0.438451 0.445871 0.327020
O O15 0.000000 0.265726 0.250000
O O16 0.974507 0.213875 0.972353
#
# Coordination Sequence:
#
# PCOD9269750 Si02
#       8
#     4   8   8   8   8   8   8   8
#     4  10  20  34  60  88 126 164 202 260 316 372
#     4  12  22  41  63  95 131 171 214 265 330 387
#     4  11  20  37  57  92 128 166 208 262 328 384
#     4  11  21  41  64  93 128 171 215 263 323 387
#     4  11  20  38  59  95 124 169 214 260 320 395
#     4  10  20  40  65  87 124 173 218 253 324 398
#     4  11  24  37  63  93 130 168 217 270 322 388
#     4  11  24  39  67  91 130 172 216 270 323 395
#
# _framework density 22.161721
#
# number of rings (size 3 to 8) (size 9 to 14) (size 15 to 20)
#    0.000    1.067    5.333    3.600    0.000    0.000 
#    2.400    0.667    0.000    0.000    0.000    0.000 
#    0.000    0.000    0.000    0.000    0.000    0.000 
#
# Total GULP energy -167080.077538 kJ/mol
# GULP energy per Si atom -5569.335918 kJ/mol
# Density = 2.211128 g / cm^3
# Si number density = 22.161721 Si / 1000 Ang^3
#
#
#
# Elastic Constant Matrix: (Units=GPa)
#
#
# Indices 1 2 3 4 5 6 
#
# 1 78.8367 20.4457 11.6479 0.0000 7.4051 0.0000
# 2 20.4457 47.1216 -5.6641 0.0000 -3.0378 0.0000
# 3 11.6479 -5.6641 43.6769 0.0000 -2.2782 0.0000
# 4 0.0000 0.0000 0.0000 -10.2454 0.0000 -9.4764
# 5 7.4051 -3.0378 -2.2782 0.0000 25.8989 0.0000
# 6 0.0000 0.0000 0.0000 -9.4764 0.0000 20.6048
#
#
#
# Elastic Compliance Matrix: (Units=1/GPa)
#
#
# Indices 1 2 3 4 5 6 
#
# 1 0.016198 -0.008104 -0.005688 0.000000 -0.006082 0.000000
# 2 -0.008104 0.025814 0.005814 0.000000 0.005856 0.000000
# 3 -0.005688 0.005814 0.025403 0.000000 0.004543 0.000000
# 4 0.000000 0.000000 0.000000 -0.068476 0.000000 -0.031493
# 5 -0.006082 0.005856 0.004543 0.000000 0.041437 0.000000
# 6 0.000000 0.000000 0.000000 -0.031493 0.000000 0.034049
#
#
# Mechanical properties :
#
#
# Convention : Reuss Voigt Hill
#
# Bulk Modulus (GPa) = 19.43241 24.72158 22.07700
# Shear Modulus (GPa) = 46.49698 16.79869 31.64784
#
# Velocity S-wave (km/s) = 4.58545 2.75618 3.78304
# Velocity P-wave (km/s) = 6.06816 4.61606 5.39122
#
# Compressibility (1/GPa) = 0.05146042
#
# Stress axis : x y z
#
# Youngs Moduli (GPa) = 61.73681 38.73812 39.36514
#
# Poissons Ratio (x) = 0.31393 0.22390
# Poissons Ratio (y) = 0.50031 -0.22888
# Poissons Ratio (z) = 0.35115 -0.22523
#
# Static dielectric constant tensor:
#      x y z
#    x 1.877900 0.000000 -0.013720 
#    y 0.000000 1.915430 0.000000 
#    z -0.013720 0.000000 1.954710 
# 
# From -- ./inp_files/61579.got.cif
#   From: 2010.05.17/outbox.cif.g08.bks.cpg/sg15_31_cif.got.tgz:61579.got - 2010.06.03 18:47:42.
