data_PCOD9269967
_publ_section_title
;
Structure prediction by ZEFSAII (Michael W. Deem and Ramdas Pophale) SiO2 
 PCOD9269967
Probable space group: C 2/C
;
_chemical_formula_sum "Si O2"
_cell_formula_units_Z 56
_cell_length_a 14.686310
_cell_length_b 21.687623
_cell_length_c 15.056660
_cell_angle_alpha 90.000000
_cell_angle_beta 34.684270
_cell_angle_gamma 90.000000
_cell_volume 2729.019320
_symmetry_space_group_name_H-M "C 2/C"
_symmetry_group_IT_number 15
_symmetry_cell_setting 'monoclinic'
loop_
_space_group_symop_operation_xyz
x,y,z
-x,y,1/2-z
-x,-y,-z
x,-y,1/2+z
1/2+x,1/2+y,z
1/2-x,1/2+y,1/2-z
1/2-x,1/2-y,-z
1/2+x,1/2-y,1/2+z
loop_
_atom_site_type_symbol
_atom_site_label
_atom_site_fract_x
_atom_site_fract_y
_atom_site_fract_z
Si Si1 0.411074 0.101984 0.167671
Si Si2 0.326104 0.794572 0.084640
Si Si3 0.500000 0.676712 0.750000
Si Si4 0.270044 0.367905 0.169984
Si Si5 0.677180 0.183314 0.567047
Si Si6 0.000000 0.511492 0.250000
Si Si7 0.591325 0.655567 0.490582
Si Si8 0.567036 0.924155 0.045463
O O1 0.417438 0.056321 0.245647
O O2 0.254635 0.141766 0.310479
O O3 0.563901 0.148508 0.038826
O O4 0.398194 0.064514 0.085391
O O5 0.286150 0.812684 0.218470
O O6 0.419695 0.730362 0.004095
O O7 0.157587 0.789699 0.165552
O O8 0.576662 0.640020 0.606495
O O9 0.279598 0.349993 0.060265
O O10 0.125747 0.416040 0.293922
O O11 0.446340 0.381120 0.062374
O O12 0.500000 0.188166 0.750000
O O13 0.750000 0.250000 0.500000
O O14 0.652239 0.140915 0.501101
O O15 0.896088 0.468897 0.400998
#
# Coordination Sequence:
#
# PCOD9269967 Si02
#       8
#     8   8   4   8   8   4   8   8
#     4  11  24  38  68 100 117 170 222 257 310 382
#     4  10  21  36  58  91 134 161 204 256 316 379
#     4  10  20  35  52  80 126 179 188 238 312 370
#     4   9  20  36  57  85 122 167 188 249 328 373
#     4  10  21  35  61  93 122 161 199 248 327 388
#     4  12  22  45  66  86 124 171 226 264 302 364
#     4  11  22  36  59  92 134 157 204 260 319 384
#     4  10  22  44  64  88 127 164 212 264 317 369
#
# _framework density 20.520191000000001
#
# number of rings (size 3 to 8) (size 9 to 14) (size 15 to 20)
#    0.000    1.714    2.143    3.429    8.000    1.143 
#    0.000    0.714    0.000    6.857    0.000    0.000 
#    0.000    0.000    0.000    0.000    0.000    0.000 
#
# Total GULP energy -155994.383311 kJ/mol
# GULP energy per Si atom -5571.227975 kJ/mol
# Density = 2.047349 g / cm^3
# Si number density = 20.520191 Si / 1000 Ang^3
#
#
#
# Elastic Constant Matrix: (Units=GPa)
#
#
# Indices 1 2 3 4 5 6 
#
# 1 109.1113 23.5086 31.1470 0.0049 16.7542 -0.0016
# 2 23.5086 65.3910 14.9052 0.0030 5.2680 -0.0025
# 3 31.1470 14.9052 75.9287 0.0097 11.7037 -0.0094
# 4 0.0049 0.0030 0.0097 0.7964 -0.0043 7.6403
# 5 16.7542 5.2680 11.7037 -0.0043 30.0354 0.0035
# 6 -0.0016 -0.0025 -0.0094 7.6403 0.0035 9.0603
#
#
#
# Elastic Compliance Matrix: (Units=1/GPa)
#
#
# Indices 1 2 3 4 5 6 
#
# 1 0.011483 -0.002981 -0.003424 0.000005 -0.004548 -0.000005
# 2 -0.002981 0.016864 -0.002008 0.000006 -0.000512 -0.000003
# 3 -0.003424 -0.002008 0.015555 0.000048 -0.003799 -0.000024
# 4 0.000005 0.000006 0.000048 -0.177102 -0.000066 0.149346
# 5 -0.004548 -0.000512 -0.003799 -0.000066 0.037401 0.000036
# 6 -0.000005 -0.000003 -0.000024 0.149346 0.000036 -0.015568
#
#
# Mechanical properties :
#
#
# Convention : Reuss Voigt Hill
#
# Bulk Modulus (GPa) = 36.93677 43.28362 40.11020
# Shear Modulus (GPa) = -58.46912 20.03644 -19.21634
#
# Velocity S-wave (km/s) = -5.34372 3.12817 -3.06348
# Velocity P-wave (km/s) = 4.47599 5.84690 2.66005
#
# Compressibility (1/GPa) = 0.02707329
#
# Stress axis : x y z
#
# Youngs Moduli (GPa) = 87.08381 59.29959 64.28913
#
# Poissons Ratio (x) = 0.17679 0.22014
# Poissons Ratio (y) = 0.25963 0.12912
# Poissons Ratio (z) = 0.29820 0.11910
#
# Static dielectric constant tensor:
#      x y z
#    x 1.776900 -0.000010 0.022740 
#    y -0.000010 1.791710 0.000010 
#    z 0.022740 0.000010 1.723980 
# 
# From -- ./inp_files/156183.got.cif
#   From: 2010.05.17/outbox.cif.g08.bks.cpg/sg15_79_cif.got.tgz:156183.got - 2010.06.03 18:47:42.
