data_PCOD9269566
_publ_section_title
;
Structure prediction by ZEFSAII (Michael W. Deem and Ramdas Pophale) SiO2 
 PCOD9269566
Probable space group: C 2/C
;
_chemical_formula_sum "Si O2"
_cell_formula_units_Z 60
_cell_length_a 23.297623
_cell_length_b 21.145365
_cell_length_c 11.284514
_cell_angle_alpha 90.000000
_cell_angle_beta 28.787170
_cell_angle_gamma 90.000000
_cell_volume 2677.057818
_symmetry_space_group_name_H-M "C 2/C"
_symmetry_group_IT_number 15
_symmetry_cell_setting 'monoclinic'
loop_
_space_group_symop_operation_xyz
x,y,z
-x,y,1/2-z
-x,-y,-z
x,-y,1/2+z
1/2+x,1/2+y,z
1/2-x,1/2+y,1/2-z
1/2-x,1/2-y,-z
1/2+x,1/2-y,1/2+z
loop_
_atom_site_type_symbol
_atom_site_label
_atom_site_fract_x
_atom_site_fract_y
_atom_site_fract_z
Si Si1 0.174217 0.481453 0.635735
Si Si2 0.685271 0.238315 0.935734
Si Si3 0.966230 0.133191 0.550264
Si Si4 0.500000 0.658977 0.750000
Si Si5 0.604912 0.530407 0.147028
Si Si6 0.007820 0.406641 0.377133
Si Si7 0.231749 0.605028 0.831774
Si Si8 0.566579 0.771387 0.911407
O O1 0.312959 0.486949 0.418806
O O2 0.153441 0.442053 0.552390
O O3 0.119660 0.551109 0.716497
O O4 0.104797 0.444145 0.863657
O O5 0.675020 0.170487 0.890524
O O6 0.819683 0.263231 0.707303
O O7 0.609176 0.294828 0.020411
O O8 0.625887 0.226859 0.173134
O O9 0.970036 0.123677 0.683754
O O10 0.042339 0.081922 0.343626
O O11 0.832178 0.129842 0.742631
O O12 0.004712 0.205486 0.452446
O O13 0.500000 0.505334 0.250000
O O14 0.699739 0.565650 0.890775
O O15 0.002500 0.335189 0.434576
O O16 0.000000 0.405774 0.250000
#
# Coordination Sequence:
#
# PCOD9269566 Si02
#       8
#     8   8   8   4   8   8   8   8
#     4  11  24  43  61  89 125 172 216 253 310 378
#     4   9  18  34  59  88 116 162 198 243 313 373
#     4   9  21  39  62  94 123 157 201 254 321 374
#     4  10  20  34  58 100 122 152 206 256 316 384
#     4  10  23  42  63  92 127 164 213 262 314 369
#     4  11  24  40  62  92 124 165 213 263 310 369
#     4  10  20  42  64  83 124 171 205 252 311 376
#     4   9  18  37  60  81 122 156 199 250 310 367
#
# _framework density 22.412666000000002
#
# number of rings (size 3 to 8) (size 9 to 14) (size 15 to 20)
#    0.000    2.133    1.333    1.600    0.000    8.000 
#    4.800    1.333    0.000    0.000    0.000    0.000 
#    0.000    0.000    0.000    0.000    0.000    0.000 
#
# Total GULP energy -167656.852624 kJ/mol
# GULP energy per Si atom -5588.561754 kJ/mol
# Density = 2.236165 g / cm^3
# Si number density = 22.412666 Si / 1000 Ang^3
#
#
#
# Elastic Constant Matrix: (Units=GPa)
#
#
# Indices 1 2 3 4 5 6 
#
# 1 73.4987 32.6934 14.2089 0.0000 0.1780 0.0000
# 2 32.6934 131.4206 25.0789 0.0000 -5.3243 0.0000
# 3 14.2089 25.0789 52.9254 0.0001 0.8494 -0.0001
# 4 0.0000 0.0000 0.0001 3.6590 -0.0001 15.1522
# 5 0.1780 -5.3243 0.8494 -0.0001 25.8569 0.0001
# 6 0.0000 0.0000 -0.0001 15.1522 0.0001 4.7585
#
#
#
# Elastic Compliance Matrix: (Units=1/GPa)
#
#
# Indices 1 2 3 4 5 6 
#
# 1 0.015627 -0.003429 -0.002559 0.000000 -0.000730 0.000000
# 2 -0.003429 0.009208 -0.003475 0.000000 0.002034 0.000000
# 3 -0.002559 -0.003475 0.021251 0.000000 -0.001396 0.000000
# 4 0.000000 0.000000 0.000000 -0.022427 0.000000 0.071413
# 5 -0.000730 0.002034 -0.001396 0.000000 0.039144 0.000000
# 6 0.000000 0.000000 0.000000 0.071413 0.000000 -0.017245
#
#
# Mechanical properties :
#
#
# Convention : Reuss Voigt Hill
#
# Bulk Modulus (GPa) = 36.81931 44.64522 40.73226
# Shear Modulus (GPa) = 67.99281 19.24578 43.61930
#
# Velocity S-wave (km/s) = 5.51386 2.93354 4.41635
# Velocity P-wave (km/s) = 7.54986 5.60688 6.64972
#
# Compressibility (1/GPa) = 0.02715966
#
# Stress axis : x y z
#
# Youngs Moduli (GPa) = 63.99032 108.60470 47.05734
#
# Poissons Ratio (x) = 0.37239 0.12042
# Poissons Ratio (y) = 0.21941 0.16353
# Poissons Ratio (z) = 0.16375 0.37742
#
# Static dielectric constant tensor:
#      x y z
#    x 1.867040 0.000000 -0.042020 
#    y 0.000000 1.872270 0.000000 
#    z -0.042020 0.000000 1.806820 
# 
# From -- ./inp_files/119954.got.cif
#   From: 2010.05.17/outbox.cif.g08.bks.cpg/sg15_60_cif.got.tgz:119954.got - 2010.06.03 18:47:42.
