data_PCOD9269757
_publ_section_title
;
Structure prediction by ZEFSAII (Michael W. Deem and Ramdas Pophale) SiO2 
 PCOD9269757
Probable space group: C 2/C
;
_chemical_formula_sum "Si O2"
_cell_formula_units_Z 60
_cell_length_a 26.645084
_cell_length_b 7.837277
_cell_length_c 12.124958
_cell_angle_alpha 90.000000
_cell_angle_beta 99.469247
_cell_angle_gamma 90.000000
_cell_volume 2497.492371
_symmetry_space_group_name_H-M "C 2/C"
_symmetry_group_IT_number 15
_symmetry_cell_setting 'monoclinic'
loop_
_space_group_symop_operation_xyz
x,y,z
-x,y,1/2-z
-x,-y,-z
x,-y,1/2+z
1/2+x,1/2+y,z
1/2-x,1/2+y,1/2-z
1/2-x,1/2-y,-z
1/2+x,1/2-y,1/2+z
loop_
_atom_site_type_symbol
_atom_site_label
_atom_site_fract_x
_atom_site_fract_y
_atom_site_fract_z
Si Si1 0.673704 0.538473 0.539493
Si Si2 0.605633 0.929060 0.719675
Si Si3 0.031869 0.796272 0.492184
Si Si4 0.735903 0.985412 0.584824
Si Si5 0.572599 0.676488 0.508901
Si Si6 0.700996 0.260498 0.261437
Si Si7 0.137738 0.343604 0.057131
Si Si8 0.000000 0.332963 0.750000
O O1 0.725069 0.576696 0.492657
O O2 0.625347 0.634919 0.466045
O O3 0.680595 0.598849 0.667725
O O4 0.660344 0.340363 0.540449
O O5 0.591467 0.807190 0.609644
O O6 0.650651 0.825276 0.795401
O O7 0.551270 0.943314 0.756357
O O8 0.631677 0.099846 0.683322
O O9 0.078380 0.664869 0.505599
O O10 0.009736 0.786773 0.359898
O O11 0.982542 0.753492 0.549463
O O12 0.054992 0.980837 0.533154
O O13 0.761332 0.160114 0.637380
O O14 0.678324 0.020575 0.525934
O O15 0.729986 0.869196 0.690992
#
# Coordination Sequence:
#
# PCOD9269757 Si02
#       8
#     8   8   8   8   8   8   8   4
#     4  10  20  38  63  88 122 165 212 245 314 383
#     4   9  20  37  59  85 123 157 204 258 312 362
#     4   9  18  35  60  80 116 153 209 254 307 375
#     4  11  22  38  62  93 121 169 203 255 314 374
#     4   8  17  34  57  85 109 158 198 252 305 361
#     4  10  22  39  61  90 132 156 206 263 300 364
#     4  10  21  36  59  85 121 162 206 249 312 372
#     4  10  20  34  60  90 112 162 206 256 316 372
#
# _framework density 24.024099
#
# number of rings (size 3 to 8) (size 9 to 14) (size 15 to 20)
#    0.000    2.400    0.000    1.600    3.733    2.133 
#    2.400    0.000   14.667    7.200    0.000    0.000 
#    0.000    0.000    0.000    0.000    0.000    0.000 
#
# Total GULP energy -167162.772904 kJ/mol
# GULP energy per Si atom -5572.092430 kJ/mol
# Density = 2.396942 g / cm^3
# Si number density = 24.024099 Si / 1000 Ang^3
#
#
#
# Elastic Constant Matrix: (Units=GPa)
#
#
# Indices 1 2 3 4 5 6 
#
# 1 178.4412 44.1678 18.8688 0.0000 -26.2419 0.0000
# 2 44.1678 51.6322 19.7643 0.0000 -2.6695 0.0000
# 3 18.8688 19.7643 43.5041 0.0000 -0.2824 0.0000
# 4 0.0000 0.0000 0.0000 22.1189 0.0000 -0.1464
# 5 -26.2419 -2.6695 -0.2824 0.0000 35.5018 0.0000
# 6 0.0000 0.0000 0.0000 -0.1464 0.0000 25.7796
#
#
#
# Elastic Compliance Matrix: (Units=1/GPa)
#
#
# Indices 1 2 3 4 5 6 
#
# 1 0.008048 -0.006391 -0.000552 0.000000 0.005464 0.000000
# 2 -0.006391 0.028620 -0.010248 0.000000 -0.002653 0.000000
# 3 -0.000552 -0.010248 0.027875 0.000000 -0.000957 0.000000
# 4 0.000000 0.000000 0.000000 0.045212 0.000000 0.000257
# 5 0.005464 -0.002653 -0.000957 0.000000 0.031999 0.000000
# 6 0.000000 0.000000 0.000000 0.000257 0.000000 0.038792
#
#
# Mechanical properties :
#
#
# Convention : Reuss Voigt Hill
#
# Bulk Modulus (GPa) = 33.15366 48.79772 40.97569
# Shear Modulus (GPa) = 22.22417 29.39849 25.81133
#
# Velocity S-wave (km/s) = 3.04481 3.50195 3.28135
# Velocity P-wave (km/s) = 5.11774 6.05868 5.60798
#
# Compressibility (1/GPa) = 0.03016258
#
# Stress axis : x y z
#
# Youngs Moduli (GPa) = 124.25834 34.94052 35.87434
#
# Poissons Ratio (x) = 0.22329 0.01979
# Poissons Ratio (y) = 0.79409 0.36763
# Poissons Ratio (z) = 0.06856 0.35806
#
# Static dielectric constant tensor:
#      x y z
#    x 2.001490 0.000000 -0.012840 
#    y 0.000000 1.934780 0.000000 
#    z -0.012840 0.000000 1.950120 
# 
# From -- ./inp_files/121984.got.cif
#   From: 2010.05.17/outbox.cif.g08.bks.cpg/sg15_61_cif.got.tgz:121984.got - 2010.06.03 18:47:42.
