data_PCOD9269745
_publ_section_title
;
Structure prediction by ZEFSAII (Michael W. Deem and Ramdas Pophale) SiO2 
 PCOD9269745
Probable space group: C 2/C
;
_chemical_formula_sum "Si O2"
_cell_formula_units_Z 44
_cell_length_a 16.554635
_cell_length_b 17.037198
_cell_length_c 8.211945
_cell_angle_alpha 90.000000
_cell_angle_beta 124.423021
_cell_angle_gamma 90.000000
_cell_volume 1910.548086
_symmetry_space_group_name_H-M "C 2/C"
_symmetry_group_IT_number 15
_symmetry_cell_setting 'monoclinic'
loop_
_space_group_symop_operation_xyz
x,y,z
-x,y,1/2-z
-x,-y,-z
x,-y,1/2+z
1/2+x,1/2+y,z
1/2-x,1/2+y,1/2-z
1/2-x,1/2-y,-z
1/2+x,1/2-y,1/2+z
loop_
_atom_site_type_symbol
_atom_site_label
_atom_site_fract_x
_atom_site_fract_y
_atom_site_fract_z
Si Si1 0.887118 0.311628 0.596954
Si Si2 0.500000 0.456395 0.750000
Si Si3 0.749972 0.793104 0.765289
Si Si4 0.660216 0.969256 0.109859
Si Si5 0.359710 0.445313 0.860168
Si Si6 0.609426 0.880003 0.385504
O O1 0.831537 0.273758 0.377613
O O2 0.832139 0.278834 0.692455
O O3 0.873185 0.404584 0.558468
O O4 0.000000 0.292780 0.750000
O O5 0.422849 0.413728 0.779099
O O6 0.433350 0.511371 0.562318
O O7 0.807006 0.872102 0.880632
O O8 0.691148 0.817647 0.536042
O O9 0.641627 0.928903 0.262939
O O10 0.774001 0.993555 0.215588
O O11 0.604900 0.051600 0.019221
O O12 0.500000 0.846389 0.250000
#
# Coordination Sequence:
#
# PCOD9269745 Si02
#       6
#     8   4   8   8   8   8
#     4  11  23  41  65  90 125 174 211 257 318 379
#     4  10  20  34  60  88 116 162 208 252 316 362
#     4  10  23  41  61  91 129 164 213 264 312 374
#     4  11  21  37  63  90 128 157 208 265 317 368
#     4  10  20  37  59  89 122 157 207 262 306 367
#     4  11  21  37  64  94 125 163 207 262 317 375
#
# _framework density 23.03004
#
# number of rings (size 3 to 8) (size 9 to 14) (size 15 to 20)
#    0.000    1.455    0.000    7.636    1.273    0.727 
#    3.273    0.000    4.000    0.000    0.000    0.000 
#    0.000    0.000    0.000    0.000    0.000    0.000 
#
# Total GULP energy -122923.586515 kJ/mol
# GULP energy per Si atom -5587.435751 kJ/mol
# Density = 2.297762 g / cm^3
# Si number density = 23.030040 Si / 1000 Ang^3
#
#
#
# Elastic Constant Matrix: (Units=GPa)
#
#
# Indices 1 2 3 4 5 6 
#
# 1 111.8900 16.0611 33.9566 0.0000 23.6057 0.0000
# 2 16.0611 64.5698 26.4483 0.0000 18.3306 0.0000
# 3 33.9566 26.4483 99.7396 0.0000 25.4063 0.0000
# 4 0.0000 0.0000 0.0000 37.6650 0.0000 7.8474
# 5 23.6057 18.3306 25.4063 0.0000 51.4373 0.0000
# 6 0.0000 0.0000 0.0000 7.8474 0.0000 23.9713
#
#
#
# Elastic Compliance Matrix: (Units=1/GPa)
#
#
# Indices 1 2 3 4 5 6 
#
# 1 0.010508 -0.000616 -0.002564 0.000000 -0.003336 0.000000
# 2 -0.000616 0.018362 -0.003506 0.000000 -0.004529 0.000000
# 3 -0.002564 -0.003506 0.012824 0.000000 -0.003908 0.000000
# 4 0.000000 0.000000 0.000000 0.028493 0.000000 -0.009328
# 5 -0.003336 -0.004529 -0.003908 0.000000 0.024517 0.000000
# 6 0.000000 0.000000 0.000000 -0.009328 0.000000 0.044770
#
#
# Mechanical properties :
#
#
# Convention : Reuss Voigt Hill
#
# Bulk Modulus (GPa) = 35.30824 47.68126 41.49475
# Shear Modulus (GPa) = 30.80962 35.93029 33.36996
#
# Velocity S-wave (km/s) = 3.66156 3.95416 3.81067
# Velocity P-wave (km/s) = 5.76548 6.44950 6.11706
#
# Compressibility (1/GPa) = 0.02832200
#
# Stress axis : x y z
#
# Youngs Moduli (GPa) = 95.16713 54.45988 77.97755
#
# Poissons Ratio (x) = 0.03356 0.19995
# Poissons Ratio (y) = 0.05865 0.27336
# Poissons Ratio (z) = 0.24403 0.19091
#
# Static dielectric constant tensor:
#      x y z
#    x 1.940360 0.000000 -0.032180 
#    y 0.000000 1.817280 0.000000 
#    z -0.032180 0.000000 1.906210 
# 
# From -- ./inp_files/49261.got.cif
#   From: 2010.05.17/outbox.cif.g08.bks.cpg/sg15_25_cif.got.tgz:49261.got - 2010.06.03 18:47:42.
