data_PCOD9269263
_publ_section_title
;
Structure prediction by ZEFSAII (Michael W. Deem and Ramdas Pophale) SiO2 
 PCOD9269263
Probable space group: C 2/C
;
_chemical_formula_sum "Si O2"
_cell_formula_units_Z 64
_cell_length_a 22.618353
_cell_length_b 23.553500
_cell_length_c 17.330165
_cell_angle_alpha 90.000000
_cell_angle_beta 23.127494
_cell_angle_gamma 90.000000
_cell_volume 3626.325529
_symmetry_space_group_name_H-M "C 2/C"
_symmetry_group_IT_number 15
_symmetry_cell_setting 'monoclinic'
loop_
_space_group_symop_operation_xyz
x,y,z
-x,y,1/2-z
-x,-y,-z
x,-y,1/2+z
1/2+x,1/2+y,z
1/2-x,1/2+y,1/2-z
1/2-x,1/2-y,-z
1/2+x,1/2-y,1/2+z
loop_
_atom_site_type_symbol
_atom_site_label
_atom_site_fract_x
_atom_site_fract_y
_atom_site_fract_z
Si Si1 0.032766 0.276214 0.621924
Si Si2 0.962350 0.900404 0.381262
Si Si3 0.626174 0.997171 0.663724
Si Si4 0.868576 0.079697 0.616221
Si Si5 0.628060 0.316846 0.280308
Si Si6 0.930301 0.441228 0.117065
Si Si7 0.367816 0.881398 0.743567
Si Si8 0.106626 0.000189 0.774820
O O1 0.207844 0.290703 0.412182
O O2 0.000000 0.257223 0.750000
O O3 0.985520 0.231728 0.612263
O O4 0.939943 0.332817 0.710235
O O5 0.803537 0.869138 0.575664
O O6 0.000000 0.914829 0.250000
O O7 0.100733 0.863256 0.246052
O O8 0.964840 0.959147 0.423975
O O9 0.500000 0.990665 0.750000
O O10 0.637507 0.939363 0.699931
O O11 0.781227 0.006411 0.430934
O O12 0.581311 0.046960 0.777623
O O13 0.889199 0.143204 0.624086
O O14 0.737283 0.072698 0.711815
O O15 0.819010 0.036335 0.745019
O O16 0.030073 0.057168 0.394553
O O17 0.000000 0.500000 0.000000
O O18 0.034529 0.393834 0.950594
#
# Coordination Sequence:
#
# PCOD9269263 Si02
#       8
#     8   8   8   8   8   8   8   8
#     4  12  23  38  58  83 114 160 200 250 284 343
#     4  11  20  33  53  82 113 154 191 236 282 347
#     4  11  22  33  55  86 121 156 195 232 289 355
#     4  10  21  37  54  80 116 156 193 239 290 348
#     4  11  24  39  55  79 117 151 207 241 292 337
#     4  10  20  34  54  80 118 154 190 234 286 353
#     4  11  21  35  57  82 121 159 196 233 294 337
#     4  10  20  34  55  80 116 153 190 237 288 352
#
# _framework density 17.648719
#
# number of rings (size 3 to 8) (size 9 to 14) (size 15 to 20)
#    0.000    1.250    2.500    5.625    3.500    2.000 
#    0.000    0.000    0.000    0.000    0.000    0.875 
#    0.000    0.000    0.000    0.000    0.000    0.000 
#
# Total GULP energy -178396.909115 kJ/mol
# GULP energy per Si atom -5574.903410 kJ/mol
# Density = 1.760855 g / cm^3
# Si number density = 17.648719 Si / 1000 Ang^3
#
#
#
# Elastic Constant Matrix: (Units=GPa)
#
#
# Indices 1 2 3 4 5 6 
#
# 1 68.4811 28.2478 38.8043 0.0053 -9.7275 -0.0005
# 2 28.2478 64.0970 29.6357 0.0059 -5.8380 -0.0027
# 3 38.8043 29.6357 89.7788 0.0078 -1.8187 -0.0037
# 4 0.0053 0.0059 0.0078 14.2902 -0.0026 -7.7181
# 5 -9.7275 -5.8380 -1.8187 -0.0026 36.0512 -0.0007
# 6 -0.0005 -0.0027 -0.0037 -7.7181 -0.0007 29.1542
#
#
#
# Elastic Compliance Matrix: (Units=1/GPa)
#
#
# Indices 1 2 3 4 5 6 
#
# 1 0.021855 -0.005770 -0.007449 -0.000002 0.004587 -0.000001
# 2 -0.005770 0.020196 -0.004142 -0.000003 0.001505 0.000000
# 3 -0.007449 -0.004142 0.015687 -0.000004 -0.001889 0.000000
# 4 -0.000002 -0.000003 -0.000004 0.081653 0.000005 0.021616
# 5 0.004587 0.001505 -0.001889 0.000005 0.029124 0.000002
# 6 -0.000001 0.000000 0.000000 0.021616 0.000002 0.040023
#
#
# Mechanical properties :
#
#
# Convention : Reuss Voigt Hill
#
# Bulk Modulus (GPa) = 43.44692 46.19250 44.81971
# Shear Modulus (GPa) = 19.92568 24.27707 22.10138
#
# Velocity S-wave (km/s) = 3.36373 3.71289 3.54261
# Velocity P-wave (km/s) = 6.30534 6.67914 6.49493
#
# Compressibility (1/GPa) = 0.02301659
#
# Stress axis : x y z
#
# Youngs Moduli (GPa) = 45.75659 49.51363 63.74671
#
# Poissons Ratio (x) = 0.28568 0.47482
# Poissons Ratio (y) = 0.26401 0.26407
# Poissons Ratio (z) = 0.34082 0.20511
#
# Static dielectric constant tensor:
#      x y z
#    x 1.629260 0.000000 -0.009940 
#    y 0.000000 1.630500 0.000000 
#    z -0.009940 0.000000 1.628630 
# 
# From -- ./inp_files/220415.got.cif
#   From: 2010.05.17/outbox.cif.g08.bks.cpg/sg15_111_cif.got.tgz:220415.got - 2010.06.03 18:47:42.
