data_PCOD9270122
_publ_section_title
;
Structure prediction by ZEFSAII (Michael W. Deem and Ramdas Pophale) SiO2 
 PCOD9270122
Probable space group: C 2/C
;
_chemical_formula_sum "Si O2"
_cell_formula_units_Z 52
_cell_length_a 9.907265
_cell_length_b 15.630683
_cell_length_c 22.443989
_cell_angle_alpha 90.000000
_cell_angle_beta 51.636758
_cell_angle_gamma 90.000000
_cell_volume 2725.201944
_symmetry_space_group_name_H-M "C 2/C"
_symmetry_group_IT_number 15
_symmetry_cell_setting 'monoclinic'
loop_
_space_group_symop_operation_xyz
x,y,z
-x,y,1/2-z
-x,-y,-z
x,-y,1/2+z
1/2+x,1/2+y,z
1/2-x,1/2+y,1/2-z
1/2-x,1/2-y,-z
1/2+x,1/2-y,1/2+z
loop_
_atom_site_type_symbol
_atom_site_label
_atom_site_fract_x
_atom_site_fract_y
_atom_site_fract_z
Si Si1 0.000000 0.347409 0.750000
Si Si2 0.761320 0.697867 0.692845
Si Si3 0.547029 0.900784 0.866851
Si Si4 0.296031 0.762036 0.315050
Si Si5 0.162425 0.977183 0.169789
Si Si6 0.837460 0.677845 0.935289
Si Si7 0.328146 0.001566 0.505695
O O1 0.834022 0.285895 0.794782
O O2 0.996337 0.398774 0.690356
O O3 0.750595 0.685546 0.767464
O O4 0.673831 0.622994 0.679609
O O5 0.959655 0.697362 0.620901
O O6 0.663820 0.818417 0.852225
O O7 0.372848 0.917188 0.952020
O O8 0.670698 0.980567 0.846020
O O9 0.500000 0.736888 0.250000
O O10 0.280835 0.811552 0.381768
O O11 0.000000 0.012952 0.250000
O O12 0.175053 0.992991 0.095743
O O13 0.810731 0.584166 0.971339
O O14 0.750000 0.750000 0.000000
O O15 0.500000 0.000000 0.500000
#
# Coordination Sequence:
#
# PCOD9270122 Si02
#       7
#     4   8   8   8   8   8   8
#     4  10  22  38  60  88 124 154 196 234 304 354
#     4  10  20  38  57  87 115 157 197 233 294 356
#     4  10  20  37  59  86 116 154 192 243 291 350
#     4   9  20  34  55  85 117 150 199 237 285 347
#     4  11  21  37  63  81 113 155 199 240 290 356
#     4  11  20  35  61  86 117 154 197 249 286 346
#     4  10  20  35  55  87 113 149 196 235 296 340
#
# _framework density 19.081154999999999
#
# number of rings (size 3 to 8) (size 9 to 14) (size 15 to 20)
#    0.000    1.846    3.846    2.308    0.000    3.692 
#    0.000    2.308    0.000    2.769    0.000    0.000 
#    0.000    0.000    0.000    0.000    0.000    0.000 
#
# Total GULP energy -144898.371559 kJ/mol
# GULP energy per Si atom -5573.014291 kJ/mol
# Density = 1.903773 g / cm^3
# Si number density = 19.081155 Si / 1000 Ang^3
#
#
#
# Elastic Constant Matrix: (Units=GPa)
#
#
# Indices 1 2 3 4 5 6 
#
# 1 52.0398 12.2376 53.1045 0.0000 19.7329 0.0000
# 2 12.2376 59.1876 59.8194 0.0000 17.3295 0.0000
# 3 53.1045 59.8194 183.4616 -0.0001 18.7201 0.0000
# 4 0.0000 0.0000 -0.0001 33.3144 0.0000 6.4622
# 5 19.7329 17.3295 18.7201 0.0000 31.9411 0.0000
# 6 0.0000 0.0000 0.0000 6.4622 0.0000 25.0352
#
#
#
# Elastic Compliance Matrix: (Units=1/GPa)
#
#
# Indices 1 2 3 4 5 6 
#
# 1 0.037340 0.010973 -0.012152 0.000000 -0.021900 0.000000
# 2 0.010973 0.031404 -0.011684 0.000000 -0.016969 0.000000
# 3 -0.012152 -0.011684 0.012088 0.000000 0.006762 0.000000
# 4 0.000000 0.000000 0.000000 0.031599 0.000000 -0.008156
# 5 -0.021900 -0.016969 0.006762 0.000000 0.050081 0.000000
# 6 0.000000 0.000000 0.000000 -0.008156 0.000000 0.042049
#
#
# Mechanical properties :
#
#
# Convention : Reuss Voigt Hill
#
# Bulk Modulus (GPa) = 18.14682 60.55689 39.35185
# Shear Modulus (GPa) = 20.10813 29.35998 24.73406
#
# Velocity S-wave (km/s) = 3.24978 3.92687 3.60426
# Velocity P-wave (km/s) = 4.85926 7.23642 6.16353
#
# Compressibility (1/GPa) = 0.05510608
#
# Stress axis : x y z
#
# Youngs Moduli (GPa) = 26.78086 31.84302 82.72714
#
# Poissons Ratio (x) = -0.34941 1.00527
# Poissons Ratio (y) = -0.29386 0.96661
# Poissons Ratio (z) = 0.32543 0.37206
#
# Static dielectric constant tensor:
#      x y z
#    x 1.671720 0.000000 -0.022900 
#    y 0.000000 1.659200 0.000000 
#    z -0.022900 0.000000 1.737470 
# 
# From -- ./inp_files/269706.got.cif
#   From: 2010.05.17/outbox.cif.g08.bks.cpg/sg15_135_cif.got.tgz:269706.got - 2010.06.03 18:47:42.
