data_PCOD9270803
_publ_section_title
;
Structure prediction by ZEFSAII (Michael W. Deem and Ramdas Pophale) SiO2 
 PCOD9270803
Probable space group: C 2/C
;
_chemical_formula_sum "Si O2"
_cell_formula_units_Z 52
_cell_length_a 11.286246
_cell_length_b 28.472056
_cell_length_c 8.262730
_cell_angle_alpha 90.000000
_cell_angle_beta 75.254818
_cell_angle_gamma 90.000000
_cell_volume 2567.725663
_symmetry_space_group_name_H-M "C 2/C"
_symmetry_group_IT_number 15
_symmetry_cell_setting 'monoclinic'
loop_
_space_group_symop_operation_xyz
x,y,z
-x,y,1/2-z
-x,-y,-z
x,-y,1/2+z
1/2+x,1/2+y,z
1/2-x,1/2+y,1/2-z
1/2-x,1/2-y,-z
1/2+x,1/2-y,1/2+z
loop_
_atom_site_type_symbol
_atom_site_label
_atom_site_fract_x
_atom_site_fract_y
_atom_site_fract_z
Si Si1 0.252402 0.142342 0.019079
Si Si2 0.657778 0.947888 0.520613
Si Si3 0.280016 0.149706 0.641523
Si Si4 0.500000 0.660800 0.250000
Si Si5 0.070116 0.205625 0.565648
Si Si6 0.864244 0.450397 0.591726
Si Si7 0.515254 0.813255 0.923323
O O1 0.234978 0.156530 0.839573
O O2 0.126366 0.135832 0.159336
O O3 0.317878 0.092325 0.000871
O O4 0.344975 0.179712 0.070428
O O5 0.727707 0.904324 0.414094
O O6 0.511916 0.947448 0.533259
O O7 0.671113 0.943619 0.708740
O O8 0.689839 0.000168 0.449842
O O9 0.206702 0.185975 0.551295
O O10 0.423709 0.161619 0.578343
O O11 0.528987 0.688878 0.403813
O O12 0.000000 0.186509 0.750000
O O13 0.036548 0.260619 0.573439
O O14 0.500000 0.835648 0.750000
#
# Coordination Sequence:
#
# PCOD9270803 Si02
#       7
#     8   8   8   4   8   8   8
#     4  12  25  41  69  97 137 176 230 271 343 398
#     4  10  20  35  66  96 138 167 213 272 340 389
#     4  12  23  42  68 100 134 176 219 283 335 407
#     4  12  26  46  70  90 134 188 222 280 332 402
#     4  11  25  46  65  95 134 177 228 276 335 405
#     4  10  20  37  61 102 132 173 211 272 333 402
#     4  11  24  42  66  99 129 172 221 281 338 400
#
# _framework density 20.251384000000002
#
# number of rings (size 3 to 8) (size 9 to 14) (size 15 to 20)
#    0.000    0.923    3.077    4.615    2.154    3.077 
#    0.000    0.000    1.692    2.769    0.000    0.000 
#    0.000    0.000    0.000    0.000    0.000    0.000 
#
# Total GULP energy -145102.337387 kJ/mol
# GULP energy per Si atom -5580.859130 kJ/mol
# Density = 2.020529 g / cm^3
# Si number density = 20.251384 Si / 1000 Ang^3
#
#
#
# Elastic Constant Matrix: (Units=GPa)
#
#
# Indices 1 2 3 4 5 6 
#
# 1 84.5215 32.4409 22.7707 0.0000 6.8032 0.0000
# 2 32.4409 82.2272 11.4034 0.0000 16.5677 0.0000
# 3 22.7707 11.4034 89.6496 0.0000 7.3810 0.0000
# 4 0.0000 0.0000 0.0000 21.3831 0.0000 8.3830
# 5 6.8032 16.5677 7.3810 0.0000 35.5926 0.0000
# 6 0.0000 0.0000 0.0000 8.3830 0.0000 4.5138
#
#
#
# Elastic Compliance Matrix: (Units=1/GPa)
#
#
# Indices 1 2 3 4 5 6 
#
# 1 0.014725 -0.005456 -0.003076 0.000000 0.000363 0.000000
# 2 -0.005456 0.015573 -0.000086 0.000000 -0.006188 0.000000
# 3 -0.003076 -0.000086 0.012102 0.000000 -0.001882 0.000000
# 4 0.000000 0.000000 0.000000 0.171986 0.000000 -0.319409
# 5 0.000363 -0.006188 -0.001882 0.000000 0.031297 0.000000
# 6 0.000000 0.000000 0.000000 -0.319409 0.000000 0.814738
#
#
# Mechanical properties :
#
#
# Convention : Reuss Voigt Hill
#
# Bulk Modulus (GPa) = 39.73893 43.29203 41.51548
# Shear Modulus (GPa) = 4.60387 24.95013 14.77700
#
# Velocity S-wave (km/s) = 1.50940 3.51382 2.70419
# Velocity P-wave (km/s) = 4.76478 6.15519 5.50407
#
# Compressibility (1/GPa) = 0.02516424
#
# Stress axis : x y z
#
# Youngs Moduli (GPa) = 67.91239 64.21515 82.63341
#
# Poissons Ratio (x) = 0.35035 0.25418
# Poissons Ratio (y) = 0.37052 0.00707
# Poissons Ratio (z) = 0.20890 0.00550
#
# Static dielectric constant tensor:
#      x y z
#    x 1.766940 0.000000 -0.009910 
#    y 0.000000 1.736160 0.000000 
#    z -0.009910 0.000000 1.731710 
# 
# From -- ./inp_files/33493.got.cif
#   From: 2010.05.17/outbox.cif.g08.bks.cpg/sg15_17_cif.got.tgz:33493.got - 2010.06.03 18:47:42.
