data_PCOD9270555
_publ_section_title
;
Structure prediction by ZEFSAII (Michael W. Deem and Ramdas Pophale) SiO2 
 PCOD9270555
Probable space group: C 2/C
;
_chemical_formula_sum "Si O2"
_cell_formula_units_Z 52
_cell_length_a 13.202947
_cell_length_b 6.670186
_cell_length_c 26.557456
_cell_angle_alpha 90.000000
_cell_angle_beta 47.873762
_cell_angle_gamma 90.000000
_cell_volume 1734.623695
_symmetry_space_group_name_H-M "C 2/C"
_symmetry_group_IT_number 15
_symmetry_cell_setting 'monoclinic'
loop_
_space_group_symop_operation_xyz
x,y,z
-x,y,1/2-z
-x,-y,-z
x,-y,1/2+z
1/2+x,1/2+y,z
1/2-x,1/2+y,1/2-z
1/2-x,1/2-y,-z
1/2+x,1/2-y,1/2+z
loop_
_atom_site_type_symbol
_atom_site_label
_atom_site_fract_x
_atom_site_fract_y
_atom_site_fract_z
Si Si1 0.166101 0.145809 0.743598
Si Si2 0.872841 0.241025 0.379625
Si Si3 0.008731 0.752457 0.043128
Si Si4 0.139005 0.777143 0.145068
Si Si5 0.250000 0.750000 0.000000
Si Si6 0.592160 0.197392 0.530435
Si Si7 0.711772 0.213738 0.692622
O O1 0.140229 0.916671 0.735625
O O2 0.210973 0.247030 0.675681
O O3 0.253096 0.117734 0.765294
O O4 0.023832 0.258461 0.801795
O O5 0.736515 0.266478 0.458768
O O6 0.974413 0.277123 0.392078
O O7 0.871819 0.367139 0.328307
O O8 0.858649 0.017024 0.365117
O O9 0.103234 0.552897 0.023908
O O10 0.860478 0.741711 0.116985
O O11 0.105612 0.896465 0.042197
O O12 0.003428 0.759034 0.984934
O O13 0.211305 0.692436 0.072303
#
# Coordination Sequence:
#
# PCOD9270555 Si02
#       7
#     8   8   8   8   4   8   8
#     4  10  22  41  59  85 122 164 200 247 301 368
#     4   9  18  36  58  82 117 156 195 245 300 368
#     4  10  20  35  60  88 119 153 196 252 300 360
#     4  10  21  39  60  82 122 163 197 244 309 358
#     4  12  20  38  62  92 118 152 204 248 302 356
#     4   9  18  34  56  87 118 152 191 244 313 349
#     4  10  21  40  61  85 118 159 207 244 299 363
#
# _framework density 29.977682999999999
#
# number of rings (size 3 to 8) (size 9 to 14) (size 15 to 20)
#    0.000    2.154    3.077    0.000    2.154    1.231 
#    2.769    0.769    0.000    0.000    0.000    0.000 
#    0.000    0.000    0.000    0.000    0.000    0.000 
#
# Total GULP energy -145002.257490 kJ/mol
# GULP energy per Si atom -5577.009903 kJ/mol
# Density = 2.990945 g / cm^3
# Si number density = 29.977683 Si / 1000 Ang^3
#
#
#
# Elastic Constant Matrix: (Units=GPa)
#
#
# Indices 1 2 3 4 5 6 
#
# 1 166.0815 6.8225 116.9890 0.0002 72.9950 0.0003
# 2 6.8225 46.1672 28.1246 -0.0001 15.2950 0.0010
# 3 116.9890 28.1246 220.0144 -0.0007 55.7423 -0.0009
# 4 0.0002 -0.0001 -0.0007 43.9247 -0.0006 9.6800
# 5 72.9950 15.2950 55.7423 -0.0006 107.9268 -0.0004
# 6 0.0003 0.0010 -0.0009 9.6800 -0.0004 44.2251
#
#
#
# Elastic Compliance Matrix: (Units=1/GPa)
#
#
# Indices 1 2 3 4 5 6 
#
# 1 0.012430 0.003536 -0.005528 0.000000 -0.006053 0.000000
# 2 0.003536 0.024895 -0.004099 0.000000 -0.003802 -0.000001
# 3 -0.005528 -0.004099 0.007955 0.000000 0.000211 0.000000
# 4 0.000000 0.000000 0.000000 0.023920 0.000000 -0.005236
# 5 -0.006053 -0.003802 0.000211 0.000000 0.013789 0.000000
# 6 0.000000 -0.000001 0.000000 -0.005236 0.000000 0.023758
#
#
# Mechanical properties :
#
#
# Convention : Reuss Voigt Hill
#
# Bulk Modulus (GPa) = 30.21343 81.79278 56.00310
# Shear Modulus (GPa) = 38.47279 57.90377 48.18828
#
# Velocity S-wave (km/s) = 3.58632 4.39972 4.01368
# Velocity P-wave (km/s) = 5.22010 7.29067 6.34048
#
# Compressibility (1/GPa) = 0.03309787
#
# Stress axis : x y z
#
# Youngs Moduli (GPa) = 80.44892 40.16907 125.70538
#
# Poissons Ratio (x) = -0.14204 0.69490
# Poissons Ratio (y) = -0.28447 0.51529
# Poissons Ratio (z) = 0.44472 0.16466
#
# Static dielectric constant tensor:
#      x y z
#    x 1.724230 0.000000 0.123290 
#    y 0.000000 1.246950 0.000000 
#    z 0.123290 0.000000 2.161930 
# 
# From -- ./inp_files/295021.got.cif
#   From: 2010.05.17/outbox.cif.g08.bks.cpg/sg15_148_cif.got.tgz:295021.got - 2010.06.03 18:47:42.
