data_PCOD9270541
_publ_section_title
;
Structure prediction by ZEFSAII (Michael W. Deem and Ramdas Pophale) SiO2 
 PCOD9270541
Probable space group: C 2/C
;
_chemical_formula_sum "Si O2"
_cell_formula_units_Z 44
_cell_length_a 14.190387
_cell_length_b 15.094311
_cell_length_c 9.329698
_cell_angle_alpha 90.000000
_cell_angle_beta 103.376926
_cell_angle_gamma 90.000000
_cell_volume 1944.148980
_symmetry_space_group_name_H-M "C 2/C"
_symmetry_group_IT_number 15
_symmetry_cell_setting 'monoclinic'
loop_
_space_group_symop_operation_xyz
x,y,z
-x,y,1/2-z
-x,-y,-z
x,-y,1/2+z
1/2+x,1/2+y,z
1/2-x,1/2+y,1/2-z
1/2-x,1/2-y,-z
1/2+x,1/2-y,1/2+z
loop_
_atom_site_type_symbol
_atom_site_label
_atom_site_fract_x
_atom_site_fract_y
_atom_site_fract_z
Si Si1 0.727658 0.402686 0.038698
Si Si2 0.315006 0.849797 0.583236
Si Si3 0.931038 0.474053 0.105567
Si Si4 0.000000 0.022632 0.750000
Si Si5 0.331067 0.665510 0.703687
Si Si6 0.155832 0.928691 0.693612
O O1 0.841645 0.408524 0.045132
O O2 0.687851 0.327658 0.132010
O O3 0.705829 0.487497 0.133079
O O4 0.676069 0.415019 0.868987
O O5 0.383493 0.932467 0.638691
O O6 0.362880 0.757924 0.644677
O O7 0.272317 0.858022 0.407449
O O8 0.213387 0.850946 0.636478
O O9 0.000000 0.434914 0.250000
O O10 0.000000 0.500000 0.000000
O O11 0.910221 0.089801 0.693031
O O12 0.956813 0.954762 0.853403
#
# Coordination Sequence:
#
# PCOD9270541 Si02
#       6
#     8   8   8   4   8   8
#     4  10  20  37  56  86 116 155 189 245 299 346
#     4  10  22  40  56  83 121 162 184 244 312 348
#     4  11  20  33  59  84 110 146 201 238 274 351
#     4  10  20  36  64  92 108 156 208 250 278 364
#     4  10  22  38  60  80 122 153 195 239 307 355
#     4  10  20  35  60  85 118 147 203 242 292 351
#
# _framework density 22.632010999999999
#
# number of rings (size 3 to 8) (size 9 to 14) (size 15 to 20)
#    0.000    1.818    0.000    7.636    1.273    7.273 
#    0.000    0.000   10.000    0.000    0.000    0.000 
#    0.000    0.000    0.000    0.000    0.000    0.000 
#
# Total GULP energy -122540.187242 kJ/mol
# GULP energy per Si atom -5570.008511 kJ/mol
# Density = 2.258050 g / cm^3
# Si number density = 22.632011 Si / 1000 Ang^3
#
#
#
# Elastic Constant Matrix: (Units=GPa)
#
#
# Indices 1 2 3 4 5 6 
#
# 1 109.4902 3.8690 19.8410 0.0000 -21.9567 0.0000
# 2 3.8690 43.5098 -5.7535 0.0000 -2.1810 0.0000
# 3 19.8410 -5.7535 128.2362 0.0000 -7.0424 0.0000
# 4 0.0000 0.0000 0.0000 20.3216 0.0000 2.0293
# 5 -21.9567 -2.1810 -7.0424 0.0000 40.1276 0.0000
# 6 0.0000 0.0000 0.0000 2.0293 0.0000 21.4504
#
#
#
# Elastic Compliance Matrix: (Units=1/GPa)
#
#
# Indices 1 2 3 4 5 6 
#
# 1 0.010506 -0.000841 -0.001363 0.000000 0.005463 0.000000
# 2 -0.000841 0.023272 0.001230 0.000000 0.001021 0.000000
# 3 -0.001363 0.001230 0.008105 0.000000 0.000743 0.000000
# 4 0.000000 0.000000 0.000000 0.049678 0.000000 -0.004700
# 5 0.005463 0.001021 0.000743 0.000000 0.028096 0.000000
# 6 0.000000 0.000000 0.000000 -0.004700 0.000000 0.047064
#
#
# Mechanical properties :
#
#
# Convention : Reuss Voigt Hill
#
# Bulk Modulus (GPa) = 25.04029 35.23880 30.13954
# Shear Modulus (GPa) = 27.47570 33.93190 30.70380
#
# Velocity S-wave (km/s) = 3.48806 3.87626 3.68727
# Velocity P-wave (km/s) = 5.22591 5.96976 5.61018
#
# Compressibility (1/GPa) = 0.03993564
#
# Stress axis : x y z
#
# Youngs Moduli (GPa) = 95.18764 42.97027 123.38006
#
# Poissons Ratio (x) = 0.03612 0.16818
# Poissons Ratio (y) = 0.08001 -0.15179
# Poissons Ratio (z) = 0.12975 -0.05286
#
# Static dielectric constant tensor:
#      x y z
#    x 1.868880 0.000000 -0.031390 
#    y 0.000000 1.914900 0.000000 
#    z -0.031390 0.000000 1.908970 
# 
# From -- ./inp_files/39219.got.cif
#   From: 2010.05.17/outbox.cif.g08.bks.cpg/sg15_20_cif.got.tgz:39219.got - 2010.06.03 18:47:42.
