data_PCOD9270424
_publ_section_title
;
Structure prediction by ZEFSAII (Michael W. Deem and Ramdas Pophale) SiO2 
 PCOD9270424
Probable space group: C 2/C
;
_chemical_formula_sum "Si O2"
_cell_formula_units_Z 40
_cell_length_a 5.923478
_cell_length_b 21.068523
_cell_length_c 13.344876
_cell_angle_alpha 90.000000
_cell_angle_beta 102.823001
_cell_angle_gamma 90.000000
_cell_volume 1623.891108
_symmetry_space_group_name_H-M "C 2/C"
_symmetry_group_IT_number 15
_symmetry_cell_setting 'monoclinic'
loop_
_space_group_symop_operation_xyz
x,y,z
-x,y,1/2-z
-x,-y,-z
x,-y,1/2+z
1/2+x,1/2+y,z
1/2-x,1/2+y,1/2-z
1/2-x,1/2-y,-z
1/2+x,1/2-y,1/2+z
loop_
_atom_site_type_symbol
_atom_site_label
_atom_site_fract_x
_atom_site_fract_y
_atom_site_fract_z
Si Si1 0.000000 0.740944 0.750000
Si Si2 0.389498 0.710622 0.930330
Si Si3 0.500000 0.490944 0.250000
Si Si4 0.235942 0.318433 0.891532
Si Si5 0.594412 0.068433 0.108467
Si Si6 0.290832 0.539377 0.930330
O O1 0.192664 0.698602 0.827091
O O2 0.124817 0.789921 0.687295
O O3 0.572419 0.759974 0.903777
O O4 0.250000 0.750000 0.000000
O O5 0.571270 0.663695 0.004370
O O6 0.312481 0.539921 0.187293
O O7 0.615576 0.448602 0.172910
O O8 0.056344 0.374999 0.862696
O O9 0.418640 0.009976 0.096222
O O10 0.683099 0.086305 0.004368
O O11 0.500000 0.500000 0.000000
#
# Coordination Sequence:
#
# PCOD9270424 Si02
#       6
#     4   8   4   8   8   8
#     4  10  20  35  58  90 126 168 212 254 320 377
#     4   9  20  36  56  90 120 168 199 257 318 370
#     4  10  20  35  58  90 126 168 212 254 320 377
#     4  10  21  37  59  94 125 160 210 262 316 376
#     4  10  21  37  59  94 125 160 210 262 316 376
#     4   9  20  36  56  90 120 168 199 257 318 370
#
# _framework density 24.632193999999998
#
# number of rings (size 3 to 8) (size 9 to 14) (size 15 to 20)
#    0.000    2.400    0.000    1.200    0.000   11.200 
#    0.000    0.000    0.000    0.000  374.400    0.000 
#    0.000    0.000    0.000    0.000    0.000    0.000 
#
# Total GULP energy -111621.109805 kJ/mol
# GULP energy per Si atom -5581.055490 kJ/mol
# Density = 2.457613 g / cm^3
# Si number density = 24.632194 Si / 1000 Ang^3
#
#
#
# Elastic Constant Matrix: (Units=GPa)
#
#
# Indices 1 2 3 4 5 6 
#
# 1 202.2034 35.9523 95.6502 0.0000 0.6491 0.0000
# 2 35.9523 51.3330 19.5938 0.0000 -1.9797 0.0000
# 3 95.6502 19.5938 163.1759 0.0000 -5.3756 0.0000
# 4 0.0000 0.0000 0.0000 8.4576 0.0000 -3.5050
# 5 0.6491 -1.9797 -5.3756 0.0000 55.2658 0.0000
# 6 0.0000 0.0000 0.0000 -3.5050 0.0000 37.4598
#
#
#
# Elastic Compliance Matrix: (Units=1/GPa)
#
#
# Indices 1 2 3 4 5 6 
#
# 1 0.007488 -0.003757 -0.003958 0.000000 -0.000608 0.000000
# 2 -0.003757 0.022315 -0.000451 0.000000 0.000800 0.000000
# 3 -0.003958 -0.000451 0.008531 0.000000 0.000860 0.000000
# 4 0.000000 0.000000 0.000000 0.123006 0.000000 0.011509
# 5 -0.000608 0.000800 0.000860 0.000000 0.018214 0.000000
# 6 0.000000 0.000000 0.000000 0.011509 0.000000 0.027772
#
#
# Mechanical properties :
#
#
# Convention : Reuss Voigt Hill
#
# Bulk Modulus (GPa) = 45.45093 79.90056 62.67575
# Shear Modulus (GPa) = 21.64582 37.93769 29.79176
#
# Velocity S-wave (km/s) = 2.96761 3.92875 3.48151
# Velocity P-wave (km/s) = 5.49856 7.28615 6.45454
#
# Compressibility (1/GPa) = 0.02200175
#
# Stress axis : x y z
#
# Youngs Moduli (GPa) = 133.55102 44.81320 117.21984
#
# Poissons Ratio (x) = 0.16836 0.46396
# Poissons Ratio (y) = 0.50174 0.05286
# Poissons Ratio (z) = 0.52860 0.02021
#
# Static dielectric constant tensor:
#      x y z
#    x 1.875690 0.000000 0.027560 
#    y 0.000000 2.381660 0.000000 
#    z 0.027560 0.000000 2.103680 
# 
# From -- ./inp_files/73242.got.cif
#   From: 2010.05.17/outbox.cif.g08.bks.cpg/sg15_37_cif.got.tgz:73242.got - 2010.06.03 18:47:42.
