data_PCOD9270830
_publ_section_title
;
Structure prediction by ZEFSAII (Michael W. Deem and Ramdas Pophale) SiO2 
 PCOD9270830
Probable space group: C 2/C
;
_chemical_formula_sum "Si O2"
_cell_formula_units_Z 36
_cell_length_a 28.706041
_cell_length_b 15.095627
_cell_length_c 9.152013
_cell_angle_alpha 90.000000
_cell_angle_beta 30.075129
_cell_angle_gamma 90.000000
_cell_volume 1987.448785
_symmetry_space_group_name_H-M "C 2/C"
_symmetry_group_IT_number 15
_symmetry_cell_setting 'monoclinic'
loop_
_space_group_symop_operation_xyz
x,y,z
-x,y,1/2-z
-x,-y,-z
x,-y,1/2+z
1/2+x,1/2+y,z
1/2-x,1/2+y,1/2-z
1/2-x,1/2-y,-z
1/2+x,1/2-y,1/2+z
loop_
_atom_site_type_symbol
_atom_site_label
_atom_site_fract_x
_atom_site_fract_y
_atom_site_fract_z
Si Si1 0.798648 0.775278 0.215339
Si Si2 0.000000 0.718609 0.750000
Si Si3 0.697745 0.887757 0.991928
Si Si4 0.014488 0.603715 0.436056
Si Si5 0.207478 0.570635 0.790795
O O1 0.750000 0.750000 0.500000
O O2 0.766852 0.700416 0.183944
O O3 0.768347 0.869360 0.233525
O O4 0.910261 0.770804 0.935682
O O5 0.039174 0.654384 0.517540
O O6 0.705265 0.969898 0.857444
O O7 0.589177 0.865563 0.317408
O O8 0.737415 0.917549 0.041116
O O9 0.000000 0.500000 0.500000
O O10 0.102119 0.608169 0.092865
#
# Coordination Sequence:
#
# PCOD9270830 Si02
#       5
#     8   4   8   8   8
#     4  11  21  37  58  80 115 149 186 229 277 334
#     4  10  20  36  50  86 108 150 186 226 276 336
#     4  10  22  33  55  85 113 143 188 229 277 335
#     4   9  19  28  53  80 116 137 177 223 286 333
#     4  11  20  35  55  82 114 149 181 228 285 331
#
# _framework density 18.113674
#
# number of rings (size 3 to 8) (size 9 to 14) (size 15 to 20)
#    0.000    1.778    2.222    2.667   15.556    0.000 
#    0.000    0.000    0.000    5.333    0.000    0.000 
#    0.000    0.000    0.000    0.000    0.000    0.000 
#
# Total GULP energy -100256.073740 kJ/mol
# GULP energy per Si atom -5569.781874 kJ/mol
# Density = 1.807245 g / cm^3
# Si number density = 18.113674 Si / 1000 Ang^3
#
#
#
# Elastic Constant Matrix: (Units=GPa)
#
#
# Indices 1 2 3 4 5 6 
#
# 1 66.0669 7.4129 12.7474 0.0000 11.4630 0.0000
# 2 7.4129 49.7393 11.9953 0.0000 -7.6656 0.0000
# 3 12.7474 11.9953 50.4112 0.0000 5.9065 0.0000
# 4 0.0000 0.0000 0.0000 24.4179 0.0000 0.0655
# 5 11.4630 -7.6656 5.9065 0.0000 32.5993 0.0000
# 6 0.0000 0.0000 0.0000 0.0655 0.0000 28.8546
#
#
#
# Elastic Compliance Matrix: (Units=1/GPa)
#
#
# Indices 1 2 3 4 5 6 
#
# 1 0.017078 -0.002781 -0.002939 0.000000 -0.006127 0.000000
# 2 -0.002781 0.023023 -0.005644 0.000000 0.007414 0.000000
# 3 -0.002939 -0.005644 0.022434 0.000000 -0.004358 0.000000
# 4 0.000000 0.000000 0.000000 0.040954 0.000000 -0.000093
# 5 -0.006127 0.007414 -0.004358 0.000000 0.035363 0.000000
# 6 0.000000 0.000000 0.000000 -0.000093 0.000000 0.034657
#
#
# Mechanical properties :
#
#
# Convention : Reuss Voigt Hill
#
# Bulk Modulus (GPa) = 25.12077 25.61431 25.36754
# Shear Modulus (GPa) = 23.86583 26.11182 24.98883
#
# Velocity S-wave (km/s) = 3.63376 3.80090 3.71827
# Velocity P-wave (km/s) = 5.61285 5.78221 5.69816
#
# Compressibility (1/GPa) = 0.03980770
#
# Stress axis : x y z
#
# Youngs Moduli (GPa) = 58.55400 43.43496 44.57593
#
# Poissons Ratio (x) = 0.12078 0.13101
# Poissons Ratio (y) = 0.16282 0.25158
# Poissons Ratio (z) = 0.17209 0.24514
#
# Static dielectric constant tensor:
#      x y z
#    x 1.666480 0.000000 -0.042330 
#    y 0.000000 1.597920 0.000000 
#    z -0.042330 0.000000 1.561830 
# 
# From -- ./inp_files/37416.got.cif
#   From: 2010.05.17/outbox.cif.g08.bks.cpg/sg15_19_cif.got.tgz:37416.got - 2010.06.03 18:47:42.
