data_PCOD9270345
_publ_section_title
;
Structure prediction by ZEFSAII (Michael W. Deem and Ramdas Pophale) SiO2 
 PCOD9270345
Probable space group: C 2/C
;
_chemical_formula_sum "Si O2"
_cell_formula_units_Z 48
_cell_length_a 24.617717
_cell_length_b 9.002498
_cell_length_c 19.814164
_cell_angle_alpha 90.000000
_cell_angle_beta 146.319804
_cell_angle_gamma 90.000000
_cell_volume 2435.188717
_symmetry_space_group_name_H-M "C 2/C"
_symmetry_group_IT_number 15
_symmetry_cell_setting 'monoclinic'
loop_
_space_group_symop_operation_xyz
x,y,z
-x,y,1/2-z
-x,-y,-z
x,-y,1/2+z
1/2+x,1/2+y,z
1/2-x,1/2+y,1/2-z
1/2-x,1/2-y,-z
1/2+x,1/2-y,1/2+z
loop_
_atom_site_type_symbol
_atom_site_label
_atom_site_fract_x
_atom_site_fract_y
_atom_site_fract_z
Si Si1 0.129784 0.842597 0.141990
Si Si2 0.921601 0.154833 0.122050
Si Si3 0.552623 0.354119 0.627748
Si Si4 0.390366 0.324247 0.128342
Si Si5 0.775836 0.316746 0.634382
Si Si6 0.738728 0.840592 0.355683
O O1 0.182853 0.746137 0.253575
O O2 0.204213 0.856021 0.156441
O O3 0.101486 0.001865 0.144408
O O4 0.025204 0.783197 0.005558
O O5 0.000000 0.239823 0.250000
O O6 0.982743 0.106578 0.118778
O O7 0.892701 0.004021 0.131354
O O8 0.820674 0.226576 0.991731
O O9 0.640614 0.251698 0.744000
O O10 0.500000 0.270149 0.250000
O O11 0.333207 0.259630 0.132592
O O12 0.337210 0.284689 0.002891
O O13 0.786136 0.494111 0.645164
#
# Coordination Sequence:
#
# PCOD9270345 Si02
#       6
#     8   8   8   8   8   8
#     4  10  20  36  57  78 108 151 185 214 269 341
#     4   9  18  35  57  77 104 144 184 219 268 334
#     4  10  21  36  55  80 110 146 184 221 271 333
#     4   9  18  35  58  81 104 140 188 224 265 329
#     4  10  20  35  58  83 107 140 184 232 272 318
#     4  10  21  35  53  83 113 136 179 235 277 315
#
# _framework density 19.710998
#
# number of rings (size 3 to 8) (size 9 to 14) (size 15 to 20)
#    0.000    2.333    0.000    3.000    0.000    5.333 
#    0.000    4.167    0.000    0.000    0.000    0.000 
#    0.000    0.000    0.000    0.000    0.000    0.000 
#
# Total GULP energy -133756.663752 kJ/mol
# GULP energy per Si atom -5573.194323 kJ/mol
# Density = 1.966613 g / cm^3
# Si number density = 19.710998 Si / 1000 Ang^3
#
#
#
# Elastic Constant Matrix: (Units=GPa)
#
#
# Indices 1 2 3 4 5 6 
#
# 1 37.3337 17.4696 28.6553 0.0000 4.7336 0.0000
# 2 17.4696 40.5079 53.7232 0.0000 7.2234 0.0000
# 3 28.6553 53.7232 213.6337 0.0000 -1.9817 0.0000
# 4 0.0000 0.0000 0.0000 40.2101 0.0000 -7.1957
# 5 4.7336 7.2234 -1.9817 0.0000 33.5564 0.0000
# 6 0.0000 0.0000 0.0000 -7.1957 0.0000 21.1390
#
#
#
# Elastic Compliance Matrix: (Units=1/GPa)
#
#
# Indices 1 2 3 4 5 6 
#
# 1 0.033953 -0.012268 -0.001490 0.000000 -0.002237 0.000000
# 2 -0.012268 0.044084 -0.009517 0.000000 -0.008321 0.000000
# 3 -0.001490 -0.009517 0.007299 0.000000 0.002690 0.000000
# 4 0.000000 0.000000 0.000000 0.026483 0.000000 0.009015
# 5 -0.002237 -0.008321 0.002690 0.000000 0.032066 0.000000
# 6 0.000000 0.000000 0.000000 0.009015 0.000000 0.050375
#
#
# Mechanical properties :
#
#
# Convention : Reuss Voigt Hill
#
# Bulk Modulus (GPa) = 25.78310 54.57461 40.17886
# Shear Modulus (GPa) = 19.70535 31.75623 25.73079
#
# Velocity S-wave (km/s) = 3.16525 4.01820 3.61696
# Velocity P-wave (km/s) = 5.14465 7.01964 6.15397
#
# Compressibility (1/GPa) = 0.03878509
#
# Stress axis : x y z
#
# Youngs Moduli (GPa) = 29.45232 22.68422 137.00311
#
# Poissons Ratio (x) = 0.27829 0.20412
# Poissons Ratio (y) = 0.36132 1.30392
# Poissons Ratio (z) = 0.04388 0.21590
#
# Static dielectric constant tensor:
#      x y z
#    x 1.685140 0.000000 -0.013730 
#    y 0.000000 1.659610 0.000000 
#    z -0.013730 0.000000 1.784560 
# 
# From -- ./inp_files/257124.got.cif
#   From: 2010.05.17/outbox.cif.g08.bks.cpg/sg15_129_cif.got.tgz:257124.got - 2010.06.03 18:47:42.
