data_PCOD9270593
_publ_section_title
;
Structure prediction by ZEFSAII (Michael W. Deem and Ramdas Pophale) SiO2 
 PCOD9270593
Probable space group: C 2/C
;
_chemical_formula_sum "Si O2"
_cell_formula_units_Z 60
_cell_length_a 26.381167
_cell_length_b 10.967844
_cell_length_c 10.726985
_cell_angle_alpha 90.000000
_cell_angle_beta 116.018298
_cell_angle_gamma 90.000000
_cell_volume 2789.237233
_symmetry_space_group_name_H-M "C 2/C"
_symmetry_group_IT_number 15
_symmetry_cell_setting 'monoclinic'
loop_
_space_group_symop_operation_xyz
x,y,z
-x,y,1/2-z
-x,-y,-z
x,-y,1/2+z
1/2+x,1/2+y,z
1/2-x,1/2+y,1/2-z
1/2-x,1/2-y,-z
1/2+x,1/2-y,1/2+z
loop_
_atom_site_type_symbol
_atom_site_label
_atom_site_fract_x
_atom_site_fract_y
_atom_site_fract_z
Si Si1 0.351704 0.114954 0.193185
Si Si2 0.032491 0.477953 0.162529
Si Si3 0.253130 0.549579 0.552148
Si Si4 0.390156 0.609686 0.059846
Si Si5 0.500000 0.740627 0.250000
Si Si6 0.853033 0.153416 0.513802
Si Si7 0.687135 0.690518 0.300326
Si Si8 0.792100 0.784378 0.305105
O O1 0.407093 0.039726 0.280713
O O2 0.363317 0.236495 0.121856
O O3 0.319750 0.159431 0.283916
O O4 0.309097 0.034077 0.065510
O O5 0.000000 0.529773 0.250000
O O6 0.031915 0.333772 0.191275
O O7 0.000000 0.500000 0.000000
O O8 0.293226 0.589839 0.482422
O O9 0.280956 0.438418 0.653024
O O10 0.258436 0.661355 0.652124
O O11 0.452719 0.664151 0.126324
O O12 0.393490 0.463372 0.077634
O O13 0.356471 0.682026 0.133203
O O14 0.347008 0.636467 0.899832
O O15 0.847627 0.197915 0.366062
O O16 0.742093 0.778752 0.353263
#
# Coordination Sequence:
#
# PCOD9270593 Si02
#       8
#     8   8   8   8   4   8   8   8
#     4  11  21  39  70  91 129 175 212 266 338 392
#     4  10  25  48  68  93 129 175 230 283 325 386
#     4  10  20  35  60  94 132 169 196 260 332 398
#     4  11  24  41  62  90 126 179 212 276 328 380
#     4  10  26  50  62  86 132 170 238 284 322 376
#     4  10  20  40  60  97 130 160 210 257 324 407
#     4  11  21  36  60  98 133 162 211 264 326 413
#     4  11  20  38  63  94 136 163 204 264 343 402
#
# _framework density 21.511258000000002
#
# number of rings (size 3 to 8) (size 9 to 14) (size 15 to 20)
#    0.400    1.067    4.000    2.000    1.867    1.067 
#    3.600    0.667    0.000    0.000    0.000    0.000 
#    0.000    0.000    0.000    0.000    0.000    0.000 
#
# Total GULP energy -167342.660632 kJ/mol
# GULP energy per Si atom -5578.088688 kJ/mol
# Density = 2.146230 g / cm^3
# Si number density = 21.511258 Si / 1000 Ang^3
#
#
#
# Elastic Constant Matrix: (Units=GPa)
#
#
# Indices 1 2 3 4 5 6 
#
# 1 71.2058 21.6230 38.3318 0.0000 22.2163 0.0000
# 2 21.6230 65.8663 19.1189 0.0000 28.3569 0.0000
# 3 38.3318 19.1189 113.2743 0.0000 20.0700 0.0000
# 4 0.0000 0.0000 0.0000 18.5476 0.0000 12.6817
# 5 22.2163 28.3569 20.0700 0.0000 43.1404 0.0000
# 6 0.0000 0.0000 0.0000 12.6817 0.0000 32.0779
#
#
#
# Elastic Compliance Matrix: (Units=1/GPa)
#
#
# Indices 1 2 3 4 5 6 
#
# 1 0.019381 -0.002242 -0.005093 0.000000 -0.006138 0.000000
# 2 -0.002242 0.021586 -0.000627 0.000000 -0.012743 0.000000
# 3 -0.005093 -0.000627 0.011029 0.000000 -0.002096 0.000000
# 4 0.000000 0.000000 0.000000 0.073888 0.000000 -0.029211
# 5 -0.006138 -0.012743 -0.002096 0.000000 0.035692 0.000000
# 6 0.000000 0.000000 0.000000 -0.029211 0.000000 0.042722
#
#
# Mechanical properties :
#
#
# Convention : Reuss Voigt Hill
#
# Bulk Modulus (GPa) = 27.72137 45.38822 36.55480
# Shear Modulus (GPa) = 21.52891 30.17137 25.85014
#
# Velocity S-wave (km/s) = 3.16701 3.74917 3.47032
# Velocity P-wave (km/s) = 5.12720 6.31564 5.75219
#
# Compressibility (1/GPa) = 0.03607325
#
# Stress axis : x y z
#
# Youngs Moduli (GPa) = 51.59671 46.32569 90.67275
#
# Poissons Ratio (x) = 0.10385 0.46176
# Poissons Ratio (y) = 0.11567 0.05685
# Poissons Ratio (z) = 0.26276 0.02905
#
# Static dielectric constant tensor:
#      x y z
#    x 1.797090 0.000000 -0.046400 
#    y 0.000000 1.837790 0.000000 
#    z -0.046400 0.000000 1.767440 
# 
# From -- ./inp_files/122677.got.cif
#   From: 2010.05.17/outbox.cif.g08.bks.cpg/sg15_62_cif.got.tgz:122677.got - 2010.06.03 18:47:42.
