data_PCOD9270000
_publ_section_title
;
Structure prediction by ZEFSAII (Michael W. Deem and Ramdas Pophale) SiO2 
 PCOD9270000
Probable space group: C 2/C
;
_chemical_formula_sum "Si O2"
_cell_formula_units_Z 64
_cell_length_a 31.676297
_cell_length_b 11.388981
_cell_length_c 8.905411
_cell_angle_alpha 90.000000
_cell_angle_beta 56.654990
_cell_angle_gamma 90.000000
_cell_volume 2683.830819
_symmetry_space_group_name_H-M "C 2/C"
_symmetry_group_IT_number 15
_symmetry_cell_setting 'monoclinic'
loop_
_space_group_symop_operation_xyz
x,y,z
-x,y,1/2-z
-x,-y,-z
x,-y,1/2+z
1/2+x,1/2+y,z
1/2-x,1/2+y,1/2-z
1/2-x,1/2-y,-z
1/2+x,1/2-y,1/2+z
loop_
_atom_site_type_symbol
_atom_site_label
_atom_site_fract_x
_atom_site_fract_y
_atom_site_fract_z
Si Si1 0.126961 0.561768 0.779068
Si Si2 0.360839 0.527960 0.308135
Si Si3 0.537330 0.616260 0.449889
Si Si4 0.900533 0.750820 0.424322
Si Si5 0.815557 0.368988 0.630936
Si Si6 0.303662 0.618356 0.151344
Si Si7 0.391567 0.716789 0.612443
Si Si8 0.457882 0.150840 0.732430
O O1 0.104039 0.648854 0.947884
O O2 0.156749 0.463982 0.814507
O O3 0.165469 0.613317 0.577682
O O4 0.076294 0.551563 0.778264
O O5 0.412164 0.592973 0.246706
O O6 0.323066 0.602506 0.281571
O O7 0.327451 0.487133 0.510266
O O8 0.385527 0.419722 0.165963
O O9 0.500000 0.500000 0.500000
O O10 0.562800 0.649949 0.565907
O O11 0.520367 0.743050 0.416255
O O12 0.840271 0.779538 0.522539
O O13 0.913145 0.731615 0.227437
O O14 0.755383 0.374203 0.751939
O O15 0.835279 0.250217 0.667457
O O16 0.424156 0.777826 0.419697
O O17 0.500000 0.091073 0.750000
#
# Coordination Sequence:
#
# PCOD9270000 Si02
#       8
#     8   8   8   8   8   8   8   8
#     4  10  22  40  60  84 114 147 195 247 290 344
#     4  10  20  35  53  82 121 152 188 242 289 346
#     4  10  20  37  61  87 120 159 194 231 290 360
#     4   9  21  39  57  86 123 152 188 242 292 345
#     4  11  22  37  61  84 109 155 201 243 291 346
#     4  10  21  35  55  84 116 154 196 236 294 350
#     4  10  21  37  57  84 118 153 195 241 288 343
#     4  10  21  39  61  86 116 152 191 236 291 347
#
# _framework density 23.846509999999999
#
# number of rings (size 3 to 8) (size 9 to 14) (size 15 to 20)
#    0.000    2.000    0.000    3.000    0.000    6.500 
#    0.000   13.125    0.000    1.500    0.000    0.000 
#    0.000    0.000    0.000    0.000    0.000    0.000 
#
# Total GULP energy -178149.473451 kJ/mol
# GULP energy per Si atom -5567.171045 kJ/mol
# Density = 2.379223 g / cm^3
# Si number density = 23.846510 Si / 1000 Ang^3
#
#
#
# Elastic Constant Matrix: (Units=GPa)
#
#
# Indices 1 2 3 4 5 6 
#
# 1 144.6293 25.1600 37.4444 0.0000 -36.7123 0.0000
# 2 25.1600 46.8040 1.1626 0.0000 0.3985 0.0000
# 3 37.4444 1.1626 60.6399 0.0000 5.9202 0.0000
# 4 0.0000 0.0000 0.0000 15.7778 0.0000 -1.9710
# 5 -36.7123 0.3985 5.9202 0.0000 43.6905 0.0000
# 6 0.0000 0.0000 0.0000 -1.9710 0.0000 16.8742
#
#
#
# Elastic Compliance Matrix: (Units=1/GPa)
#
#
# Indices 1 2 3 4 5 6 
#
# 1 0.014153 -0.007475 -0.009894 0.000000 0.013301 0.000000
# 2 -0.007475 0.025325 0.004830 0.000000 -0.007167 0.000000
# 3 -0.009894 0.004830 0.023636 0.000000 -0.011561 0.000000
# 4 0.000000 0.000000 0.000000 0.064319 0.000000 0.007513
# 5 0.013301 -0.007167 -0.011561 0.000000 0.035697 0.000000
# 6 0.000000 0.000000 0.000000 0.007513 0.000000 0.060140
#
#
# Mechanical properties :
#
#
# Convention : Reuss Voigt Hill
#
# Bulk Modulus (GPa) = 26.29147 42.17858 34.23503
# Shear Modulus (GPa) = 19.15514 27.82227 23.48870
#
# Velocity S-wave (km/s) = 2.83727 3.41944 3.14187
# Velocity P-wave (km/s) = 4.66720 5.77200 5.24875
#
# Compressibility (1/GPa) = 0.03803514
#
# Stress axis : x y z
#
# Youngs Moduli (GPa) = 70.65856 39.48634 42.30755
#
# Poissons Ratio (x) = 0.29517 0.41860
# Poissons Ratio (y) = 0.52820 -0.20435
# Poissons Ratio (z) = 0.69912 -0.19072
#
# Static dielectric constant tensor:
#      x y z
#    x 1.959770 0.000000 0.089130 
#    y 0.000000 2.067450 0.000000 
#    z 0.089130 0.000000 2.153110 
# 
# From -- ./inp_files/70131.got.cif
#   From: 2010.05.17/outbox.cif.g08.bks.cpg/sg15_36_cif.got.tgz:70131.got - 2010.06.03 18:47:42.
