data_PCOD9270825
_publ_section_title
;
Structure prediction by ZEFSAII (Michael W. Deem and Ramdas Pophale) SiO2 
 PCOD9270825
Probable space group: C 2/C
;
_chemical_formula_sum "Si O2"
_cell_formula_units_Z 52
_cell_length_a 14.270633
_cell_length_b 8.239154
_cell_length_c 21.459616
_cell_angle_alpha 90.000000
_cell_angle_beta 63.683271
_cell_angle_gamma 90.000000
_cell_volume 2261.667885
_symmetry_space_group_name_H-M "C 2/C"
_symmetry_group_IT_number 15
_symmetry_cell_setting 'monoclinic'
loop_
_space_group_symop_operation_xyz
x,y,z
-x,y,1/2-z
-x,-y,-z
x,-y,1/2+z
1/2+x,1/2+y,z
1/2-x,1/2+y,1/2-z
1/2-x,1/2-y,-z
1/2+x,1/2-y,1/2+z
loop_
_atom_site_type_symbol
_atom_site_label
_atom_site_fract_x
_atom_site_fract_y
_atom_site_fract_z
Si Si1 0.285665 0.798775 0.341117
Si Si2 0.084562 0.830998 0.158883
Si Si3 0.000000 0.118693 0.250000
Si Si4 0.616663 0.129773 0.841117
Si Si5 0.097028 0.500000 0.104458
Si Si6 0.809347 0.309347 0.750000
Si Si7 0.793162 0.500000 0.060257
O O1 0.393159 0.720880 0.281060
O O2 0.320078 0.962023 0.365377
O O3 0.199565 0.789742 0.312500
O O4 0.246331 0.676813 0.406541
O O5 0.044405 0.673494 0.134623
O O6 0.117200 0.768761 0.218940
O O7 0.191300 0.885557 0.093459
O O8 0.017411 0.993282 0.187500
O O9 0.493572 0.135517 0.865377
O O10 0.692847 0.283024 0.812500
O O11 0.631887 0.062370 0.906541
O O12 0.661920 0.989640 0.781060
O O13 0.151957 0.500000 0.022064
#
# Coordination Sequence:
#
# PCOD9270825 Si02
#       7
#     8   8   4   8   8   8   8
#     4  10  21  35  57  78 111 143 175 230 268 320
#     4  10  21  35  57  78 111 143 175 230 268 320
#     4  10  20  36  50  78 106 136 174 216 286 310
#     4  10  21  35  57  78 111 143 175 230 268 320
#     4  12  21  34  58  87 102 141 198 220 250 327
#     4  10  20  36  50  78 106 136 174 216 286 310
#     4   9  21  39  52  76 117 153 172 214 282 321
#
# _framework density 22.991880999999999
#
# number of rings (size 3 to 8) (size 9 to 14) (size 15 to 20)
#    0.000    1.846    0.000    5.077    0.000    1.846 
#    0.000    0.000    0.000    0.000    0.000   25.846 
#    0.000    0.000    0.000    0.000    0.000    0.000 
#
# Total GULP energy -145240.711522 kJ/mol
# GULP energy per Si atom -5586.181212 kJ/mol
# Density = 2.293955 g / cm^3
# Si number density = 22.991881 Si / 1000 Ang^3
#
#
#
# Elastic Constant Matrix: (Units=GPa)
#
#
# Indices 1 2 3 4 5 6 
#
# 1 83.2452 23.7152 35.9211 0.0000 0.5680 0.0000
# 2 23.7152 83.1166 35.8418 0.0000 -0.1641 0.0000
# 3 35.9211 35.8418 158.3056 0.0000 3.8590 0.0000
# 4 0.0000 0.0000 0.0000 21.8392 0.0000 -1.1358
# 5 0.5680 -0.1641 3.8590 0.0000 21.8711 0.0000
# 6 0.0000 0.0000 0.0000 -1.1358 0.0000 29.5861
#
#
#
# Elastic Compliance Matrix: (Units=1/GPa)
#
#
# Indices 1 2 3 4 5 6 
#
# 1 0.013917 -0.002891 -0.002505 0.000000 0.000059 0.000000
# 2 -0.002891 0.013942 -0.002516 0.000000 0.000624 0.000000
# 3 -0.002505 -0.002516 0.007486 0.000000 -0.001275 0.000000
# 4 0.000000 0.000000 0.000000 0.045881 0.000000 0.001761
# 5 0.000059 0.000624 -0.001275 0.000000 0.045950 0.000000
# 6 0.000000 0.000000 0.000000 0.001761 0.000000 0.033867
#
#
# Mechanical properties :
#
#
# Convention : Reuss Voigt Hill
#
# Bulk Modulus (GPa) = 51.22367 57.29153 54.25760
# Shear Modulus (GPa) = 27.26677 29.93856 28.60267
#
# Velocity S-wave (km/s) = 3.44747 3.61243 3.53091
# Velocity P-wave (km/s) = 6.17852 6.50936 6.34610
#
# Compressibility (1/GPa) = 0.01952223
#
# Stress axis : x y z
#
# Youngs Moduli (GPa) = 71.85653 71.72467 133.58316
#
# Poissons Ratio (x) = 0.20732 0.33460
# Poissons Ratio (y) = 0.20770 0.33609
# Poissons Ratio (z) = 0.17999 0.18046
#
# Static dielectric constant tensor:
#      x y z
#    x 1.890310 0.000000 -0.002090 
#    y 0.000000 1.890410 0.000000 
#    z -0.002090 0.000000 1.847540 
# 
# From -- ./inp_files/242513.got.cif
#   From: 2010.05.17/outbox.cif.g08.bks.cpg/sg15_122_cif.got.tgz:242513.got - 2010.06.03 18:47:42.
