data_PCOD9270036
_publ_section_title
;
Structure prediction by ZEFSAII (Michael W. Deem and Ramdas Pophale) SiO2 
 PCOD9270036
Probable space group: C 2/C
;
_chemical_formula_sum "Si O2"
_cell_formula_units_Z 44
_cell_length_a 10.901790
_cell_length_b 8.261125
_cell_length_c 19.576437
_cell_angle_alpha 90.000000
_cell_angle_beta 89.079224
_cell_angle_gamma 90.000000
_cell_volume 1762.846806
_symmetry_space_group_name_H-M "C 2/C"
_symmetry_group_IT_number 15
_symmetry_cell_setting 'monoclinic'
loop_
_space_group_symop_operation_xyz
x,y,z
-x,y,1/2-z
-x,-y,-z
x,-y,1/2+z
1/2+x,1/2+y,z
1/2-x,1/2+y,1/2-z
1/2-x,1/2-y,-z
1/2+x,1/2-y,1/2+z
loop_
_atom_site_type_symbol
_atom_site_label
_atom_site_fract_x
_atom_site_fract_y
_atom_site_fract_z
Si Si1 0.649978 0.633008 0.535387
Si Si2 0.300772 0.280279 0.924995
Si Si3 0.061988 0.834375 0.893149
Si Si4 0.725655 0.121875 0.708793
Si Si5 0.177488 0.259906 0.665714
Si Si6 0.000000 0.141016 0.250000
O O1 0.750000 0.750000 0.500000
O O2 0.693106 0.474110 0.575514
O O3 0.586756 0.578095 0.464570
O O4 0.592974 0.735126 0.599375
O O5 0.443120 0.226379 0.912938
O O6 0.230342 0.194865 0.863949
O O7 0.250000 0.250000 0.000000
O O8 0.185598 0.745787 0.868819
O O9 0.029160 0.932537 0.824355
O O10 0.822640 0.138432 0.769944
O O11 0.615089 0.241070 0.731889
O O12 0.675775 0.941515 0.696265
#
# Coordination Sequence:
#
# PCOD9270036 Si02
#       6
#     8   8   8   8   8   4
#     4  10  20  35  54  82 115 147 183 230 279 331
#     4  11  21  36  58  82 110 149 192 233 277 331
#     4   9  19  36  58  81 113 149 186 229 279 333
#     4  10  20  37  58  81 111 148 187 231 279 335
#     4  10  20  38  59  84 114 147 185 231 282 334
#     4   8  18  36  56  80 110 146 186 232 280 322
#
# _framework density 24.959627000000001
#
# number of rings (size 3 to 8) (size 9 to 14) (size 15 to 20)
#    0.000    2.182    0.000    3.818    0.000    0.000 
#    0.000   20.000    0.000    0.000    0.000    0.000 
#    0.000    0.000    0.000    0.000    0.000    0.000 
#
# Total GULP energy -122472.470598 kJ/mol
# GULP energy per Si atom -5566.930482 kJ/mol
# Density = 2.490282 g / cm^3
# Si number density = 24.959627 Si / 1000 Ang^3
#
#
#
# Elastic Constant Matrix: (Units=GPa)
#
#
# Indices 1 2 3 4 5 6 
#
# 1 54.2152 -8.8241 26.4513 0.0000 -11.1382 0.0000
# 2 -8.8241 88.6994 49.4896 0.0000 18.2691 0.0000
# 3 26.4513 49.4896 269.0919 0.0000 26.1989 0.0000
# 4 0.0000 0.0000 0.0000 57.4194 0.0000 -1.9490
# 5 -11.1382 18.2691 26.1989 0.0000 46.9204 0.0000
# 6 0.0000 0.0000 0.0000 -1.9490 0.0000 17.3239
#
#
#
# Elastic Compliance Matrix: (Units=1/GPa)
#
#
# Indices 1 2 3 4 5 6 
#
# 1 0.021657 0.002733 -0.003203 0.000000 0.005865 0.000000
# 2 0.002733 0.013587 -0.002449 0.000000 -0.003274 0.000000
# 3 -0.003203 -0.002449 0.004719 0.000000 -0.002442 0.000000
# 4 0.000000 0.000000 0.000000 0.017482 0.000000 0.001967
# 5 0.005865 -0.003274 -0.002442 0.000000 0.025343 0.000000
# 6 0.000000 0.000000 0.000000 0.001967 0.000000 0.057945
#
#
# Mechanical properties :
#
#
# Convention : Reuss Voigt Hill
#
# Bulk Modulus (GPa) = 29.30205 60.69332 44.99768
# Shear Modulus (GPa) = 31.65653 47.32540 39.49097
#
# Velocity S-wave (km/s) = 3.56520 4.35912 3.98200
# Velocity P-wave (km/s) = 5.35843 7.05020 6.26171
#
# Compressibility (1/GPa) = 0.03412731
#
# Stress axis : x y z
#
# Youngs Moduli (GPa) = 46.17353 73.60236 211.90487
#
# Poissons Ratio (x) = -0.20119 0.67865
# Poissons Ratio (y) = -0.12621 0.51889
# Poissons Ratio (z) = 0.14788 0.18023
#
# Static dielectric constant tensor:
#      x y z
#    x 2.180820 0.000000 0.106230 
#    y 0.000000 2.023710 0.000000 
#    z 0.106230 0.000000 2.056770 
# 
# From -- ./inp_files/202637.got.cif
#   From: 2010.05.17/outbox.cif.g08.bks.cpg/sg15_102_cif.got.tgz:202637.got - 2010.06.03 18:47:42.
