data_PCOD9270758
_publ_section_title
;
Structure prediction by ZEFSAII (Michael W. Deem and Ramdas Pophale) SiO2 
 PCOD9270758
Probable space group: C 2/C
;
_chemical_formula_sum "Si O2"
_cell_formula_units_Z 36
_cell_length_a 30.611739
_cell_length_b 7.471738
_cell_length_c 21.115347
_cell_angle_alpha 90.000000
_cell_angle_beta 161.168887
_cell_angle_gamma 90.000000
_cell_volume 1558.884987
_symmetry_space_group_name_H-M "C 2/C"
_symmetry_group_IT_number 15
_symmetry_cell_setting 'monoclinic'
loop_
_space_group_symop_operation_xyz
x,y,z
-x,y,1/2-z
-x,-y,-z
x,-y,1/2+z
1/2+x,1/2+y,z
1/2-x,1/2+y,1/2-z
1/2-x,1/2-y,-z
1/2+x,1/2-y,1/2+z
loop_
_atom_site_type_symbol
_atom_site_label
_atom_site_fract_x
_atom_site_fract_y
_atom_site_fract_z
Si Si1 0.541112 0.112162 0.456679
Si Si2 0.000000 0.970542 0.250000
Si Si3 0.986899 0.263062 0.453605
Si Si4 0.613980 0.528282 0.778584
Si Si5 0.782731 0.677082 0.913417
O O1 0.601093 0.198672 0.604065
O O2 0.444138 0.269367 0.298188
O O3 0.646828 0.070986 0.546876
O O4 0.472550 0.932159 0.387614
O O5 0.071256 0.060722 0.286493
O O6 0.122758 0.845571 0.442399
O O7 0.139897 0.247085 0.689896
O O8 0.955540 0.086914 0.371767
O O9 0.759965 0.563238 0.946595
#
# Coordination Sequence:
#
# PCOD9270758 Si02
#       5
#     8   4   8   8   8
#     4   9  20  35  56  92 118 145 195 256 291 340
#     4  10  22  38  58  90 128 160 196 242 306 352
#     4  10  21  36  61  91 118 149 206 248 295 349
#     4  10  21  40  59  87 119 163 199 241 298 361
#     4  10  20  35  64  84 120 160 197 243 302 358
#
# _framework density 23.093427999999999
#
# number of rings (size 3 to 8) (size 9 to 14) (size 15 to 20)
#    0.000    2.222    0.000    3.333    9.333    0.000 
#    0.000    4.444    0.000   18.667    0.000    0.000 
#    0.000    0.000    0.000    0.000    0.000    0.000 
#
# Total GULP energy -100281.035133 kJ/mol
# GULP energy per Si atom -5571.168618 kJ/mol
# Density = 2.304087 g / cm^3
# Si number density = 23.093428 Si / 1000 Ang^3
#
#
#
# Elastic Constant Matrix: (Units=GPa)
#
#
# Indices 1 2 3 4 5 6 
#
# 1 228.4342 7.0551 10.3904 0.0000 23.7967 0.0000
# 2 7.0551 59.0362 14.9611 0.0000 -7.3144 0.0000
# 3 10.3904 14.9611 36.3939 0.0000 -4.8658 0.0000
# 4 0.0000 0.0000 0.0000 7.2398 0.0000 -5.1753
# 5 23.7967 -7.3144 -4.8658 0.0000 28.9489 0.0000
# 6 0.0000 0.0000 0.0000 -5.1753 0.0000 26.2215
#
#
#
# Elastic Compliance Matrix: (Units=1/GPa)
#
#
# Indices 1 2 3 4 5 6 
#
# 1 0.004951 -0.000717 -0.001726 0.000000 -0.004541 0.000000
# 2 -0.000717 0.019376 -0.007189 0.000000 0.004277 0.000000
# 3 -0.001726 -0.007189 0.031582 0.000000 0.004911 0.000000
# 4 0.000000 0.000000 0.000000 0.160815 0.000000 0.031740
# 5 -0.004541 0.004277 0.004911 0.000000 0.040183 0.000000
# 6 0.000000 0.000000 0.000000 0.031740 0.000000 0.044401
#
#
# Mechanical properties :
#
#
# Convention : Reuss Voigt Hill
#
# Bulk Modulus (GPa) = 27.28845 43.18639 35.23742
# Shear Modulus (GPa) = 15.02464 31.91256 23.46860
#
# Velocity S-wave (km/s) = 2.55346 3.72141 3.19132
# Velocity P-wave (km/s) = 4.53164 6.09971 5.37319
#
# Compressibility (1/GPa) = 0.03664555
#
# Stress axis : x y z
#
# Youngs Moduli (GPa) = 201.96412 51.60996 31.66391
#
# Poissons Ratio (x) = 0.03700 0.05465
# Poissons Ratio (y) = 0.14480 0.22763
# Poissons Ratio (z) = 0.34860 0.37101
#
# Static dielectric constant tensor:
#      x y z
#    x 2.043960 0.000000 0.036420 
#    y 0.000000 1.871150 0.000000 
#    z 0.036420 0.000000 1.888450 
# 
# From -- ./inp_files/102456.got.cif
#   From: 2010.05.17/outbox.cif.g08.bks.cpg/sg15_52_cif.got.tgz:102456.got - 2010.06.03 18:47:42.
