data_PCOD9270677
_publ_section_title
;
Structure prediction by ZEFSAII (Michael W. Deem and Ramdas Pophale) SiO2 
 PCOD9270677
Probable space group: C 2/C
;
_chemical_formula_sum "Si O2"
_cell_formula_units_Z 32
_cell_length_a 10.446949
_cell_length_b 26.605280
_cell_length_c 5.367438
_cell_angle_alpha 90.000000
_cell_angle_beta 109.971073
_cell_angle_gamma 90.000000
_cell_volume 1402.135238
_symmetry_space_group_name_H-M "C 2/C"
_symmetry_group_IT_number 15
_symmetry_cell_setting 'monoclinic'
loop_
_space_group_symop_operation_xyz
x,y,z
-x,y,1/2-z
-x,-y,-z
x,-y,1/2+z
1/2+x,1/2+y,z
1/2-x,1/2+y,1/2-z
1/2-x,1/2-y,-z
1/2+x,1/2-y,1/2+z
loop_
_atom_site_type_symbol
_atom_site_label
_atom_site_fract_x
_atom_site_fract_y
_atom_site_fract_z
Si Si1 0.500000 0.967115 0.750000
Si Si2 0.612157 0.793262 0.524779
Si Si3 0.282957 0.884669 0.696847
Si Si4 0.343003 0.307522 0.282404
Si Si5 0.500000 0.369600 0.750000
O O1 0.361876 0.933549 0.659254
O O2 0.500000 0.000000 0.500000
O O3 0.500000 0.777528 0.250000
O O4 0.597937 0.850846 0.596583
O O5 0.628575 0.751416 0.751607
O O6 0.751454 0.799688 0.466931
O O7 0.232582 0.845593 0.450181
O O8 0.145450 0.895885 0.773025
O O9 0.472342 0.334973 0.490169
#
# Coordination Sequence:
#
# PCOD9270677 Si02
#       5
#     4   8   8   8   4
#     4  12  32  56  83 110 138 189 262 330 382 440
#     4  10  20  35  62 101 150 195 241 283 352 442
#     4  11  24  44  74  99 146 193 243 308 375 434
#     4  10  20  37  61 104 147 197 232 283 357 450
#     4  10  22  40  69 102 150 187 234 290 368 446
#
# _framework density 22.822336
#
# number of rings (size 3 to 8) (size 9 to 14) (size 15 to 20)
#    0.000    1.500    1.250    3.000    8.750    0.000 
#    9.000    1.250    0.000    0.000    0.000    0.000 
#    0.000    0.000    0.000    0.000    0.000    0.000 
#
# Total GULP energy -89117.421592 kJ/mol
# GULP energy per Si atom -5569.838849 kJ/mol
# Density = 2.277039 g / cm^3
# Si number density = 22.822336 Si / 1000 Ang^3
#
#
#
# Elastic Constant Matrix: (Units=GPa)
#
#
# Indices 1 2 3 4 5 6 
#
# 1 157.6419 68.5323 18.1993 0.0000 -4.8125 0.0000
# 2 68.5323 132.5893 49.8853 0.0000 -8.3575 0.0000
# 3 18.1993 49.8853 109.1788 0.0000 12.9461 0.0000
# 4 0.0000 0.0000 0.0000 31.1281 0.0000 -12.1775
# 5 -4.8125 -8.3575 12.9461 0.0000 41.4330 0.0000
# 6 0.0000 0.0000 0.0000 -12.1775 0.0000 20.6704
#
#
#
# Elastic Compliance Matrix: (Units=1/GPa)
#
#
# Indices 1 2 3 4 5 6 
#
# 1 0.008226 -0.004536 0.000723 0.000000 -0.000185 0.000000
# 2 -0.004536 0.012053 -0.005168 0.000000 0.003519 0.000000
# 3 0.000723 -0.005168 0.011957 0.000000 -0.004695 0.000000
# 4 0.000000 0.000000 0.000000 0.041747 0.000000 0.024594
# 5 -0.000185 0.003519 -0.004695 0.000000 0.026291 0.000000
# 6 0.000000 0.000000 0.000000 0.024594 0.000000 0.062867
#
#
# Mechanical properties :
#
#
# Convention : Reuss Voigt Hill
#
# Bulk Modulus (GPa) = 70.05667 74.73819 72.39743
# Shear Modulus (GPa) = 26.90195 36.16583 31.53389
#
# Velocity S-wave (km/s) = 3.43703 3.98511 3.72117
# Velocity P-wave (km/s) = 6.82012 7.34804 7.08900
#
# Compressibility (1/GPa) = 0.01427416
#
# Stress axis : x y z
#
# Youngs Moduli (GPa) = 121.56339 82.96798 83.63374
#
# Poissons Ratio (x) = 0.37632 -0.06048
# Poissons Ratio (y) = 0.55137 0.43225
# Poissons Ratio (z) = -0.08791 0.42881
#
# Static dielectric constant tensor:
#      x y z
#    x 1.975810 0.000000 -0.008900 
#    y 0.000000 1.886950 0.000000 
#    z -0.008900 0.000000 1.898890 
# 
# From -- ./inp_files/4174.got.cif
#   From: 2010.05.17/outbox.cif.g08.bks.cpg/sg15_3_cif.got.tgz:4174.got - 2010.06.03 18:47:42.
