data_PCOD9270680
_publ_section_title
;
Structure prediction by ZEFSAII (Michael W. Deem and Ramdas Pophale) SiO2 
 PCOD9270680
Probable space group: C 2/C
;
_chemical_formula_sum "Si O2"
_cell_formula_units_Z 60
_cell_length_a 17.851812
_cell_length_b 16.335622
_cell_length_c 14.078388
_cell_angle_alpha 90.000000
_cell_angle_beta 53.434624
_cell_angle_gamma 90.000000
_cell_volume 3297.482609
_symmetry_space_group_name_H-M "C 2/C"
_symmetry_group_IT_number 15
_symmetry_cell_setting 'monoclinic'
loop_
_space_group_symop_operation_xyz
x,y,z
-x,y,1/2-z
-x,-y,-z
x,-y,1/2+z
1/2+x,1/2+y,z
1/2-x,1/2+y,1/2-z
1/2-x,1/2-y,-z
1/2+x,1/2-y,1/2+z
loop_
_atom_site_type_symbol
_atom_site_label
_atom_site_fract_x
_atom_site_fract_y
_atom_site_fract_z
Si Si1 0.921665 0.109164 0.091092
Si Si2 0.258058 0.094729 0.688931
Si Si3 0.953060 0.941853 0.180752
Si Si4 0.381901 0.966151 0.921085
Si Si5 0.717856 0.056076 0.200691
Si Si6 0.029488 0.588919 0.432506
Si Si7 0.914093 0.706221 0.646521
Si Si8 0.000000 0.612879 0.750000
O O1 0.815608 0.099805 0.136416
O O2 0.929201 0.197666 0.132255
O O3 0.941684 0.035583 0.150605
O O4 0.986154 0.099512 0.949084
O O5 0.149959 0.099044 0.741795
O O6 0.316279 0.175510 0.673953
O O7 0.313314 0.047896 0.562384
O O8 0.265716 0.036307 0.775114
O O9 0.000000 0.939004 0.250000
O O10 0.431544 0.053426 0.862586
O O11 0.323945 0.943916 0.872320
O O12 0.470163 0.909668 0.880363
O O13 0.637689 0.091600 0.329090
O O14 0.000000 0.500000 0.500000
O O15 0.992337 0.661287 0.524229
O O16 0.933472 0.667328 0.734554
#
# Coordination Sequence:
#
# PCOD9270680 Si02
#       8
#     8   8   8   8   8   8   8   4
#     4  10  25  40  61  87 120 160 209 250 295 351
#     4  10  20  35  62  84 120 152 202 249 292 353
#     4  10  22  46  65  79 112 174 214 244 285 356
#     4  11  17  31  58  97 111 155 196 234 305 373
#     4  11  18  35  57  82 117 158 198 239 290 368
#     4  11  17  33  56  88 124 153 187 239 309 365
#     4  11  22  37  58  96 127 151 189 256 311 357
#     4  12  18  32  64  92 136 144 188 250 324 362
#
# _framework density 18.195699000000001
#
# number of rings (size 3 to 8) (size 9 to 14) (size 15 to 20)
#    0.000    1.333    6.667    0.800    0.933    1.067 
#    0.000    8.667    0.000    3.200    0.000    0.000 
#    0.000    0.000    0.000    0.000    0.000    0.000 
#
# Total GULP energy -167199.981022 kJ/mol
# GULP energy per Si atom -5573.332701 kJ/mol
# Density = 1.815429 g / cm^3
# Si number density = 18.195699 Si / 1000 Ang^3
#
#
#
# Elastic Constant Matrix: (Units=GPa)
#
#
# Indices 1 2 3 4 5 6 
#
# 1 114.4761 13.9265 46.2884 0.0000 -9.7400 0.0000
# 2 13.9265 73.1584 20.7979 0.0000 -4.5539 0.0000
# 3 46.2884 20.7979 88.9786 0.0000 -18.1288 0.0000
# 4 0.0000 0.0000 0.0000 11.5204 0.0000 0.9632
# 5 -9.7400 -4.5539 -18.1288 0.0000 42.9608 0.0000
# 6 0.0000 0.0000 0.0000 0.9632 0.0000 17.7864
#
#
#
# Elastic Compliance Matrix: (Units=1/GPa)
#
#
# Indices 1 2 3 4 5 6 
#
# 1 0.011080 -0.000504 -0.005629 0.000000 0.000083 0.000000
# 2 -0.000504 0.014665 -0.003143 0.000000 0.000114 0.000000
# 3 -0.005629 -0.003143 0.015945 0.000000 0.005119 0.000000
# 4 0.000000 0.000000 0.000000 0.087198 0.000000 -0.004722
# 5 0.000083 0.000114 0.005119 0.000000 0.025468 0.000000
# 6 0.000000 0.000000 0.000000 -0.004722 0.000000 0.056479
#
#
# Mechanical properties :
#
#
# Convention : Reuss Voigt Hill
#
# Bulk Modulus (GPa) = 43.21750 48.73765 45.97758
# Shear Modulus (GPa) = 21.08829 27.49354 24.29091
#
# Velocity S-wave (km/s) = 3.40806 3.89136 3.65770
# Velocity P-wave (km/s) = 6.26814 6.85811 6.56975
#
# Compressibility (1/GPa) = 0.02313877
#
# Stress axis : x y z
#
# Youngs Moduli (GPa) = 90.25238 68.18796 62.71684
#
# Poissons Ratio (x) = 0.03434 0.35306
# Poissons Ratio (y) = 0.04546 0.19709
# Poissons Ratio (z) = 0.50807 0.21429
#
# Static dielectric constant tensor:
#      x y z
#    x 1.654390 0.000000 0.009970 
#    y 0.000000 1.622940 0.000000 
#    z 0.009970 0.000000 1.659280 
# 
# From -- ./inp_files/162929.got.cif
#   From: 2010.05.17/outbox.cif.g08.bks.cpg/sg15_82_cif.got.tgz:162929.got - 2010.06.03 18:47:42.
