data_PCOD9270462
_publ_section_title
;
Structure prediction by ZEFSAII (Michael W. Deem and Ramdas Pophale) SiO2 
 PCOD9270462
Probable space group: C 2/C
;
_chemical_formula_sum "Si O2"
_cell_formula_units_Z 48
_cell_length_a 19.225585
_cell_length_b 8.083995
_cell_length_c 20.258567
_cell_angle_alpha 90.000000
_cell_angle_beta 49.719683
_cell_angle_gamma 90.000000
_cell_volume 2402.019431
_symmetry_space_group_name_H-M "C 2/C"
_symmetry_group_IT_number 15
_symmetry_cell_setting 'monoclinic'
loop_
_space_group_symop_operation_xyz
x,y,z
-x,y,1/2-z
-x,-y,-z
x,-y,1/2+z
1/2+x,1/2+y,z
1/2-x,1/2+y,1/2-z
1/2-x,1/2-y,-z
1/2+x,1/2-y,1/2+z
loop_
_atom_site_type_symbol
_atom_site_label
_atom_site_fract_x
_atom_site_fract_y
_atom_site_fract_z
Si Si1 0.014999 0.574257 0.885766
Si Si2 0.845081 0.149165 0.631346
Si Si3 0.268410 0.213535 0.564378
Si Si4 0.817456 0.600833 0.268482
Si Si5 0.684143 0.162458 0.488011
Si Si6 0.038137 0.238628 0.502595
O O1 0.095588 0.522280 0.787135
O O2 0.992172 0.407626 0.941083
O O3 0.047405 0.707570 0.920465
O O4 0.916863 0.632574 0.919394
O O5 0.825174 0.279932 0.701082
O O6 0.828555 0.228054 0.569559
O O7 0.953580 0.116841 0.567638
O O8 0.774486 0.003034 0.683710
O O9 0.250000 0.250000 0.500000
O O10 0.192956 0.289839 0.659211
O O11 0.363862 0.298765 0.527255
O O12 0.279721 0.015269 0.560198
O O13 0.750000 0.250000 0.500000
#
# Coordination Sequence:
#
# PCOD9270462 Si02
#       6
#     8   8   8   8   8   8
#     4   8  16  33  59  81 105 148 193 236 288 345
#     4  10  20  35  59  85 111 153 200 246 293 345
#     4  11  22  36  55  83 117 152 191 238 299 360
#     4  11  20  35  59  87 117 152 199 250 294 348
#     4  10  20  39  61  83 115 155 199 244 301 361
#     4   8  16  34  55  79 111 148 191 233 286 350
#
# _framework density 19.983184999999999
#
# number of rings (size 3 to 8) (size 9 to 14) (size 15 to 20)
#    0.000    2.333    0.000    6.000    0.000    0.667 
#    0.000   15.000    0.000    6.000    0.000    0.000 
#    0.000    0.000    0.000    0.000    0.000    0.000 
#
# Total GULP energy -133934.784901 kJ/mol
# GULP energy per Si atom -5580.616038 kJ/mol
# Density = 1.993770 g / cm^3
# Si number density = 19.983185 Si / 1000 Ang^3
#
#
#
# Elastic Constant Matrix: (Units=GPa)
#
#
# Indices 1 2 3 4 5 6 
#
# 1 124.7285 34.2374 77.0564 0.0000 -11.6726 0.0000
# 2 34.2374 63.2249 56.7153 0.0000 -16.5295 0.0000
# 3 77.0564 56.7153 142.0985 0.0000 -17.2198 0.0000
# 4 0.0000 0.0000 0.0000 44.8013 0.0000 -7.4330
# 5 -11.6726 -16.5295 -17.2198 0.0000 26.1462 0.0000
# 6 0.0000 0.0000 0.0000 -7.4330 0.0000 29.8845
#
#
#
# Elastic Compliance Matrix: (Units=1/GPa)
#
#
# Indices 1 2 3 4 5 6 
#
# 1 0.012115 -0.000840 -0.006133 0.000000 0.000839 0.000000
# 2 -0.000840 0.027297 -0.009122 0.000000 0.010874 0.000000
# 3 -0.006133 -0.009122 0.014098 0.000000 0.000781 0.000000
# 4 0.000000 0.000000 0.000000 0.023281 0.000000 0.005791
# 5 0.000839 0.010874 0.000781 0.000000 0.046010 0.000000
# 6 0.000000 0.000000 0.000000 0.005791 0.000000 0.034902
#
#
# Mechanical properties :
#
#
# Convention : Reuss Voigt Hill
#
# Bulk Modulus (GPa) = 46.90095 74.00777 60.45436
# Shear Modulus (GPa) = 25.38065 30.96926 28.17495
#
# Velocity S-wave (km/s) = 3.56771 3.94098 3.75898
# Velocity P-wave (km/s) = 6.36338 7.60420 7.01129
#
# Compressibility (1/GPa) = 0.02132153
#
# Stress axis : x y z
#
# Youngs Moduli (GPa) = 82.53979 36.63429 70.92989
#
# Poissons Ratio (x) = 0.03077 0.43501
# Poissons Ratio (y) = 0.06932 0.64700
# Poissons Ratio (z) = 0.50622 0.33416
#
# Static dielectric constant tensor:
#      x y z
#    x 1.702270 0.000000 -0.034320 
#    y 0.000000 1.793460 0.000000 
#    z -0.034320 0.000000 1.716080 
# 
# From -- ./inp_files/247287.got.cif
#   From: 2010.05.17/outbox.cif.g08.bks.cpg/sg15_124_cif.got.tgz:247287.got - 2010.06.03 18:47:42.
