data_PCOD9270578
_publ_section_title
;
Structure prediction by ZEFSAII (Michael W. Deem and Ramdas Pophale) SiO2 
 PCOD9270578
Probable space group: C 2/C
;
_chemical_formula_sum "Si O2"
_cell_formula_units_Z 60
_cell_length_a 20.007171
_cell_length_b 11.088472
_cell_length_c 14.096844
_cell_angle_alpha 90.000000
_cell_angle_beta 79.489242
_cell_angle_gamma 90.000000
_cell_volume 3074.894951
_symmetry_space_group_name_H-M "C 2/C"
_symmetry_group_IT_number 15
_symmetry_cell_setting 'monoclinic'
loop_
_space_group_symop_operation_xyz
x,y,z
-x,y,1/2-z
-x,-y,-z
x,-y,1/2+z
1/2+x,1/2+y,z
1/2-x,1/2+y,1/2-z
1/2-x,1/2-y,-z
1/2+x,1/2-y,1/2+z
loop_
_atom_site_type_symbol
_atom_site_label
_atom_site_fract_x
_atom_site_fract_y
_atom_site_fract_z
Si Si1 0.607550 0.321626 0.993799
Si Si2 0.960807 0.818471 0.092521
Si Si3 0.000000 0.998297 0.750000
Si Si4 0.257225 0.107724 0.004471
Si Si5 0.483311 0.954496 0.645937
Si Si6 0.141766 0.989999 0.159975
Si Si7 0.332771 0.460057 0.131223
Si Si8 0.612916 0.046271 0.977033
O O1 0.639010 0.409563 0.907574
O O2 0.634256 0.185582 0.982781
O O3 0.525226 0.322180 0.005486
O O4 0.623840 0.380275 0.092656
O O5 0.961909 0.685282 0.135794
O O6 0.887630 0.862698 0.075832
O O7 0.976751 0.915227 0.170387
O O8 0.929637 0.939367 0.802649
O O9 0.199204 0.063577 0.091932
O O10 0.327549 0.048730 0.019946
O O11 0.250000 0.250000 0.000000
O O12 0.237191 0.057896 0.905632
O O13 0.500000 0.977979 0.750000
O O14 0.422418 0.030246 0.615976
O O15 0.551673 0.975418 0.567391
O O16 0.168830 0.948084 0.255439
#
# Coordination Sequence:
#
# PCOD9270578 Si02
#       8
#     8   8   4   8   8   8   8   8
#     4   9  19  37  60  87 126 157 204 254 306 363
#     4   9  15  30  60  89 117 155 193 251 299 355
#     4   8  14  30  56  90 116 142 204 242 286 354
#     4  11  24  44  58  86 128 165 203 256 316 370
#     4  10  20  38  63  92 120 159 215 251 303 368
#     4   9  20  37  60  90 117 160 204 248 300 372
#     4  10  20  35  60  91 119 161 204 246 308 369
#     4  10  23  40  61  88 123 164 203 258 310 365
#
# _framework density 19.512861999999998
#
# number of rings (size 3 to 8) (size 9 to 14) (size 15 to 20)
#    0.000    2.400    0.667    1.200    1.867    4.267 
#    7.200    0.000    1.467    0.000    0.000    0.000 
#    0.000    0.000    0.000    0.000    0.000    0.000 
#
# Total GULP energy -167273.027509 kJ/mol
# GULP energy per Si atom -5575.767584 kJ/mol
# Density = 1.946845 g / cm^3
# Si number density = 19.512862 Si / 1000 Ang^3
#
#
#
# Elastic Constant Matrix: (Units=GPa)
#
#
# Indices 1 2 3 4 5 6 
#
# 1 101.7241 53.7431 42.7147 0.0000 9.6509 0.0000
# 2 53.7431 98.0532 43.5067 0.0000 -0.3665 0.0000
# 3 42.7147 43.5067 76.7176 0.0000 17.5208 0.0000
# 4 0.0000 0.0000 0.0000 8.9467 0.0000 -0.2719
# 5 9.6509 -0.3665 17.5208 0.0000 23.7473 0.0000
# 6 0.0000 0.0000 0.0000 -0.2719 0.0000 9.6972
#
#
#
# Elastic Compliance Matrix: (Units=1/GPa)
#
#
# Indices 1 2 3 4 5 6 
#
# 1 0.015343 -0.006648 -0.003999 0.000000 -0.003388 0.000000
# 2 -0.006648 0.017585 -0.008359 0.000000 0.009140 0.000000
# 3 -0.003999 -0.008359 0.023644 0.000000 -0.015948 0.000000
# 4 0.000000 0.000000 0.000000 0.111868 0.000000 0.003137
# 5 -0.003388 0.009140 -0.015948 0.000000 0.055395 0.000000
# 6 0.000000 0.000000 0.000000 0.003137 0.000000 0.103210
#
#
# Mechanical properties :
#
#
# Convention : Reuss Voigt Hill
#
# Bulk Modulus (GPa) = 53.87601 61.82488 57.85045
# Shear Modulus (GPa) = 13.46823 17.58027 15.52425
#
# Velocity S-wave (km/s) = 2.63006 3.00485 2.82368
# Velocity P-wave (km/s) = 6.07399 6.61754 6.35158
#
# Compressibility (1/GPa) = 0.01856114
#
# Stress axis : x y z
#
# Youngs Moduli (GPa) = 65.17437 56.86589 42.29407
#
# Poissons Ratio (x) = 0.37804 0.16914
# Poissons Ratio (y) = 0.43328 0.35352
# Poissons Ratio (z) = 0.26064 0.47532
#
# Static dielectric constant tensor:
#      x y z
#    x 1.732030 0.000000 0.001410 
#    y 0.000000 1.679920 0.000000 
#    z 0.001410 0.000000 1.687420 
# 
# From -- ./inp_files/167249.got.cif
#   From: 2010.05.17/outbox.cif.g08.bks.cpg/sg15_84_cif.got.tgz:167249.got - 2010.06.03 18:47:42.
