data_PCOD9270052
_publ_section_title
;
Structure prediction by ZEFSAII (Michael W. Deem and Ramdas Pophale) SiO2 
 PCOD9270052
Probable space group: C 2/C
;
_chemical_formula_sum "Si O2"
_cell_formula_units_Z 48
_cell_length_a 18.552105
_cell_length_b 19.475388
_cell_length_c 15.734687
_cell_angle_alpha 90.000000
_cell_angle_beta 152.612846
_cell_angle_gamma 90.000000
_cell_volume 2615.145955
_symmetry_space_group_name_H-M "C 2/C"
_symmetry_group_IT_number 15
_symmetry_cell_setting 'monoclinic'
loop_
_space_group_symop_operation_xyz
x,y,z
-x,y,1/2-z
-x,-y,-z
x,-y,1/2+z
1/2+x,1/2+y,z
1/2-x,1/2+y,1/2-z
1/2-x,1/2-y,-z
1/2+x,1/2-y,1/2+z
loop_
_atom_site_type_symbol
_atom_site_label
_atom_site_fract_x
_atom_site_fract_y
_atom_site_fract_z
Si Si1 0.667430 0.563585 0.456170
Si Si2 0.443810 0.962197 0.525959
Si Si3 0.000000 0.445505 0.250000
Si Si4 0.056145 0.318142 0.906209
Si Si5 0.927226 0.172886 0.821776
Si Si6 0.116270 0.937916 0.102814
Si Si7 0.500000 0.570212 0.750000
O O1 0.500000 0.594955 0.250000
O O2 0.831159 0.590884 0.589744
O O3 0.666241 0.563890 0.557049
O O4 0.645291 0.483384 0.404215
O O5 0.506635 0.885564 0.610389
O O6 0.260843 0.952327 0.316435
O O7 0.500000 0.000000 0.500000
O O8 0.478278 0.008133 0.643632
O O9 0.000000 0.320232 0.750000
O O10 0.001523 0.247364 0.890741
O O11 0.244395 0.319678 0.106474
O O12 0.946599 0.135970 0.932782
O O13 0.000399 0.119369 0.831191
O O14 0.000000 0.000000 0.000000
#
# Coordination Sequence:
#
# PCOD9270052 Si02
#       7
#     8   8   4   8   8   8   4
#     4  10  21  35  59  86 121 158 200 257 303 357
#     4  11  23  36  58  89 120 156 197 254 301 360
#     4  12  20  37  58  88 123 156 200 244 314 357
#     4  11  23  36  55  83 121 158 197 241 302 371
#     4  11  23  35  56  84 119 163 197 241 302 366
#     4  11  20  38  56  84 121 157 207 252 300 364
#     4  10  20  35  54  86 119 158 196 234 304 359
#
# _framework density 18.354616
#
# number of rings (size 3 to 8) (size 9 to 14) (size 15 to 20)
#    0.500    0.667    5.000    3.500    0.000    1.333 
#    0.000    0.000    0.000    0.000    2.167    3.500 
#    0.000    0.000    0.000    0.000    0.000    0.000 
#
# Total GULP energy -133804.724724 kJ/mol
# GULP energy per Si atom -5575.196863 kJ/mol
# Density = 1.831284 g / cm^3
# Si number density = 18.354616 Si / 1000 Ang^3
#
#
#
# Elastic Constant Matrix: (Units=GPa)
#
#
# Indices 1 2 3 4 5 6 
#
# 1 98.2773 31.2523 24.6410 0.0000 -5.0721 0.0000
# 2 31.2523 79.2795 15.2375 0.0000 -2.3122 0.0000
# 3 24.6410 15.2375 83.2074 0.0000 3.6823 0.0000
# 4 0.0000 0.0000 0.0000 17.6238 0.0000 -4.8714
# 5 -5.0721 -2.3122 3.6823 0.0000 37.3893 0.0000
# 6 0.0000 0.0000 0.0000 -4.8714 0.0000 28.5361
#
#
#
# Elastic Compliance Matrix: (Units=1/GPa)
#
#
# Indices 1 2 3 4 5 6 
#
# 1 0.012357 -0.004253 -0.002956 0.000000 0.001704 0.000000
# 2 -0.004253 0.014579 -0.001431 0.000000 0.000466 0.000000
# 3 -0.002956 -0.001431 0.013235 0.000000 -0.001793 0.000000
# 4 0.000000 0.000000 0.000000 0.059551 0.000000 0.010166
# 5 0.001704 0.000466 -0.001793 0.000000 0.027182 0.000000
# 6 0.000000 0.000000 0.000000 0.010166 0.000000 0.036779
#
#
# Mechanical properties :
#
#
# Convention : Reuss Voigt Hill
#
# Bulk Modulus (GPa) = 43.68603 44.78066 44.23335
# Shear Modulus (GPa) = 26.51206 29.35206 27.93206
#
# Velocity S-wave (km/s) = 3.80470 4.00329 3.90526
# Velocity P-wave (km/s) = 6.56915 6.76897 6.66981
#
# Compressibility (1/GPa) = 0.02289061
#
# Stress axis : x y z
#
# Youngs Moduli (GPa) = 80.92604 68.59249 75.55787
#
# Poissons Ratio (x) = 0.29175 0.22334
# Poissons Ratio (y) = 0.34421 0.10811
# Poissons Ratio (z) = 0.23921 0.09814
#
# Static dielectric constant tensor:
#      x y z
#    x 1.704940 0.000000 0.070830 
#    y 0.000000 1.633550 0.000000 
#    z 0.070830 0.000000 1.694850 
# 
# From -- ./inp_files/163366.got.cif
#   From: 2010.05.17/outbox.cif.g08.bks.cpg/sg15_82_cif.got.tgz:163366.got - 2010.06.03 18:47:42.
