data_PCOD9270112
_publ_section_title
;
Structure prediction by ZEFSAII (Michael W. Deem and Ramdas Pophale) SiO2 
 PCOD9270112
Probable space group: C 2/C
;
_chemical_formula_sum "Si O2"
_cell_formula_units_Z 64
_cell_length_a 22.063329
_cell_length_b 21.495059
_cell_length_c 14.574734
_cell_angle_alpha 90.000000
_cell_angle_beta 148.689425
_cell_angle_gamma 90.000000
_cell_volume 3592.060615
_symmetry_space_group_name_H-M "C 2/C"
_symmetry_group_IT_number 15
_symmetry_cell_setting 'monoclinic'
loop_
_space_group_symop_operation_xyz
x,y,z
-x,y,1/2-z
-x,-y,-z
x,-y,1/2+z
1/2+x,1/2+y,z
1/2-x,1/2+y,1/2-z
1/2-x,1/2-y,-z
1/2+x,1/2-y,1/2+z
loop_
_atom_site_type_symbol
_atom_site_label
_atom_site_fract_x
_atom_site_fract_y
_atom_site_fract_z
Si Si1 0.755861 0.951302 0.265363
Si Si2 0.086590 0.742839 0.221137
Si Si3 0.216520 0.450681 0.874909
Si Si4 0.511827 0.402252 0.868921
Si Si5 0.021140 0.147430 0.986213
Si Si6 0.477610 0.113785 0.112365
Si Si7 0.121586 0.024208 0.756189
Si Si8 0.669705 0.678877 0.004326
O O1 0.826885 0.988266 0.278249
O O2 0.852040 0.903513 0.428403
O O3 0.724180 0.998848 0.304927
O O4 0.644278 0.915791 0.078311
O O5 0.992724 0.687512 0.111221
O O6 0.204007 0.709067 0.342483
O O7 0.104793 0.783277 0.338482
O O8 0.063954 0.794129 0.115418
O O9 0.086793 0.422869 0.709600
O O10 0.308295 0.394020 0.984284
O O11 0.263381 0.476604 0.031725
O O12 0.500000 0.378965 0.750000
O O13 0.464568 0.473131 0.813608
O O14 0.443170 0.370522 0.864762
O O15 0.950879 0.088728 0.851395
O O16 0.112513 0.175699 0.030917
O O17 0.500000 0.107804 0.250000
#
# Coordination Sequence:
#
# PCOD9270112 Si02
#       8
#     8   8   8   8   8   8   8   8
#     4  11  22  37  58  82 121 157 189 239 296 348
#     4  10  22  34  57  86 117 152 189 237 297 347
#     4  11  20  35  58  81 120 151 189 232 291 352
#     4  11  23  37  57  85 113 149 199 249 293 342
#     4  11  21  34  56  85 113 148 187 235 301 346
#     4  11  22  37  55  85 119 156 195 230 287 362
#     4  11  21  35  56  86 113 149 189 245 292 345
#     4  10  20  35  55  85 118 150 186 236 291 354
#
# _framework density 17.817070999999999
#
# number of rings (size 3 to 8) (size 9 to 14) (size 15 to 20)
#    0.000    1.250    3.750    4.500    0.000    2.000 
#    0.000    0.000    0.000    3.000    0.000    0.000 
#    0.000    0.000    0.000    0.000    0.000    0.000 
#
# Total GULP energy -178193.714614 kJ/mol
# GULP energy per Si atom -5568.553582 kJ/mol
# Density = 1.777652 g / cm^3
# Si number density = 17.817071 Si / 1000 Ang^3
#
#
#
# Elastic Constant Matrix: (Units=GPa)
#
#
# Indices 1 2 3 4 5 6 
#
# 1 98.1052 30.5948 28.5954 0.0000 -17.3876 0.0000
# 2 30.5948 65.6258 15.8514 0.0000 -11.4299 0.0000
# 3 28.5954 15.8514 83.9843 0.0000 -10.9085 0.0000
# 4 0.0000 0.0000 0.0000 7.0807 0.0000 -9.3483
# 5 -17.3876 -11.4299 -10.9085 0.0000 28.8929 0.0000
# 6 0.0000 0.0000 0.0000 -9.3483 0.0000 22.8579
#
#
#
# Elastic Compliance Matrix: (Units=1/GPa)
#
#
# Indices 1 2 3 4 5 6 
#
# 1 0.013428 -0.004639 -0.003034 0.000000 0.005100 0.000000
# 2 -0.004639 0.018427 -0.001382 0.000000 0.003976 0.000000
# 3 -0.003034 -0.001382 0.013558 0.000000 0.002746 0.000000
# 4 0.000000 0.000000 0.000000 0.306982 0.000000 0.125548
# 5 0.005100 0.003976 0.002746 0.000000 0.040290 0.000000
# 6 0.000000 0.000000 0.000000 0.125548 0.000000 0.095095
#
#
# Mechanical properties :
#
#
# Convention : Reuss Voigt Hill
#
# Bulk Modulus (GPa) = 36.62665 44.19982 40.41323
# Shear Modulus (GPa) = 9.70892 23.27787 16.49340
#
# Velocity S-wave (km/s) = 2.33689 3.61847 3.04585
# Velocity P-wave (km/s) = 5.28044 6.50532 5.92462
#
# Compressibility (1/GPa) = 0.02730252
#
# Stress axis : x y z
#
# Youngs Moduli (GPa) = 74.47041 54.26829 73.75961
#
# Poissons Ratio (x) = 0.25175 0.22379
# Poissons Ratio (y) = 0.34547 0.10194
# Poissons Ratio (z) = 0.22595 0.07500
#
# Static dielectric constant tensor:
#      x y z
#    x 1.658700 0.000000 0.016140 
#    y 0.000000 1.654800 0.000000 
#    z 0.016140 0.000000 1.641220 
# 
# From -- ./inp_files/174271.got.cif
#   From: 2010.05.17/outbox.cif.g08.bks.cpg/sg15_88_cif.got.tgz:174271.got - 2010.06.03 18:47:42.
