data_PCOD9270639
_publ_section_title
;
Structure prediction by ZEFSAII (Michael W. Deem and Ramdas Pophale) SiO2 
 PCOD9270639
Probable space group: C 2/C
;
_chemical_formula_sum "Si O2"
_cell_formula_units_Z 44
_cell_length_a 10.385124
_cell_length_b 25.885378
_cell_length_c 7.914682
_cell_angle_alpha 90.000000
_cell_angle_beta 107.940955
_cell_angle_gamma 90.000000
_cell_volume 2024.189452
_symmetry_space_group_name_H-M "C 2/C"
_symmetry_group_IT_number 15
_symmetry_cell_setting 'monoclinic'
loop_
_space_group_symop_operation_xyz
x,y,z
-x,y,1/2-z
-x,-y,-z
x,-y,1/2+z
1/2+x,1/2+y,z
1/2-x,1/2+y,1/2-z
1/2-x,1/2-y,-z
1/2+x,1/2-y,1/2+z
loop_
_atom_site_type_symbol
_atom_site_label
_atom_site_fract_x
_atom_site_fract_y
_atom_site_fract_z
Si Si1 0.500000 0.211952 0.750000
Si Si2 0.155320 0.031308 0.254632
Si Si3 0.155501 0.140840 0.376385
Si Si4 0.151239 0.072257 0.877994
Si Si5 0.386318 0.780866 0.836760
Si Si6 0.273748 0.327546 0.230706
O O1 0.442364 0.235999 0.548659
O O2 0.378899 0.178593 0.772688
O O3 0.206881 0.081906 0.373044
O O4 0.000000 0.024811 0.250000
O O5 0.218457 0.974413 0.298207
O O6 0.150580 0.048771 0.061769
O O7 0.261635 0.180307 0.329729
O O8 0.150878 0.151575 0.573086
O O9 0.000000 0.145114 0.250000
O O10 0.215847 0.128705 0.904286
O O11 0.000000 0.080655 0.750000
O O12 0.500000 0.801346 0.750000
O O13 0.330062 0.729483 0.721957
#
# Coordination Sequence:
#
# PCOD9270639 Si02
#       6
#     4   8   8   8   8   8
#     4  10  24  46  62  88 132 174 212 256 322 374
#     4  10  20  35  61  89 126 160 201 267 309 377
#     4  10  21  40  65  92 125 171 209 260 320 368
#     4  11  20  36  59  93 123 159 209 256 322 367
#     4  11  26  41  66  94 132 170 214 265 313 385
#     4  11  24  40  64  90 130 165 210 261 315 385
#
# _framework density 21.737096000000001
#
# number of rings (size 3 to 8) (size 9 to 14) (size 15 to 20)
#    0.000    1.455    0.000    8.182    7.636    0.727 
#    0.000    0.000    2.000    3.273    0.000    0.000 
#    0.000    0.000    0.000    0.000    0.000    0.000 
#
# Total GULP energy -122732.982491 kJ/mol
# GULP energy per Si atom -5578.771931 kJ/mol
# Density = 2.168762 g / cm^3
# Si number density = 21.737096 Si / 1000 Ang^3
#
#
#
# Elastic Constant Matrix: (Units=GPa)
#
#
# Indices 1 2 3 4 5 6 
#
# 1 89.3238 33.7039 17.7302 0.0000 -9.1923 0.0000
# 2 33.7039 135.6559 9.0818 0.0000 -5.6245 0.0000
# 3 17.7302 9.0818 52.4698 0.0000 -7.3410 0.0000
# 4 0.0000 0.0000 0.0000 4.6757 0.0000 -20.9249
# 5 -9.1923 -5.6245 -7.3410 0.0000 31.1369 0.0000
# 6 0.0000 0.0000 0.0000 -20.9249 0.0000 45.8383
#
#
#
# Elastic Compliance Matrix: (Units=1/GPa)
#
#
# Indices 1 2 3 4 5 6 
#
# 1 0.013290 -0.002954 -0.003625 0.000000 0.002535 0.000000
# 2 -0.002954 0.008150 -0.000340 0.000000 0.000520 0.000000
# 3 -0.003625 -0.000340 0.020872 0.000000 0.003789 0.000000
# 4 0.000000 0.000000 0.000000 -0.205069 0.000000 -0.093613
# 5 0.002535 0.000520 0.003789 0.000000 0.033852 0.000000
# 6 0.000000 0.000000 0.000000 -0.093613 0.000000 -0.020918
#
#
# Mechanical properties :
#
#
# Convention : Reuss Voigt Hill
#
# Bulk Modulus (GPa) = 35.11829 44.27568 39.69699
# Shear Modulus (GPa) = -39.52797 30.79242 -4.36777
#
# Velocity S-wave (km/s) = -4.26896 3.76784 -1.41906
# Velocity P-wave (km/s) = 2.84741 6.27230 3.95184
#
# Compressibility (1/GPa) = 0.02847519
#
# Stress axis : x y z
#
# Youngs Moduli (GPa) = 75.24254 122.70144 47.90999
#
# Poissons Ratio (x) = 0.36249 0.17367
# Poissons Ratio (y) = 0.22228 0.01627
# Poissons Ratio (z) = 0.27275 0.04167
#
# Static dielectric constant tensor:
#      x y z
#    x 1.832880 0.000000 0.014310 
#    y 0.000000 1.877590 0.000000 
#    z 0.014310 0.000000 1.895330 
# 
# From -- ./inp_files/32770.got.cif
#   From: 2010.05.17/outbox.cif.g08.bks.cpg/sg15_17_cif.got.tgz:32770.got - 2010.06.03 18:47:42.
