data_PCOD9270467
_publ_section_title
;
Structure prediction by ZEFSAII (Michael W. Deem and Ramdas Pophale) SiO2 
 PCOD9270467
Probable space group: C 2/C
;
_chemical_formula_sum "Si O2"
_cell_formula_units_Z 60
_cell_length_a 8.671176
_cell_length_b 19.962630
_cell_length_c 24.389915
_cell_angle_alpha 90.000000
_cell_angle_beta 143.482571
_cell_angle_gamma 90.000000
_cell_volume 2512.303606
_symmetry_space_group_name_H-M "C 2/C"
_symmetry_group_IT_number 15
_symmetry_cell_setting 'monoclinic'
loop_
_space_group_symop_operation_xyz
x,y,z
-x,y,1/2-z
-x,-y,-z
x,-y,1/2+z
1/2+x,1/2+y,z
1/2-x,1/2+y,1/2-z
1/2-x,1/2-y,-z
1/2+x,1/2-y,1/2+z
loop_
_atom_site_type_symbol
_atom_site_label
_atom_site_fract_x
_atom_site_fract_y
_atom_site_fract_z
Si Si1 0.436496 0.725847 0.790982
Si Si2 0.000000 0.892145 0.750000
Si Si3 0.340455 0.463893 0.404764
Si Si4 0.662658 0.817133 0.392160
Si Si5 0.365093 0.992212 0.818650
Si Si6 0.677206 0.075292 0.507726
Si Si7 0.127606 0.383195 0.106357
Si Si8 0.950220 0.294971 0.910916
O O1 0.500000 0.761059 0.750000
O O2 0.629290 0.662460 0.840840
O O3 0.493962 0.766776 0.862363
O O4 0.132454 0.704714 0.709096
O O5 0.795820 0.843892 0.663682
O O6 0.871693 0.942678 0.756957
O O7 0.500000 0.500000 0.500000
O O8 0.262209 0.387120 0.395552
O O9 0.538482 0.457624 0.411421
O O10 0.067870 0.501539 0.327733
O O11 0.607216 0.836314 0.439774
O O12 0.862872 0.760859 0.429677
O O13 0.303311 0.065620 0.824868
O O14 0.518178 0.958549 0.913541
O O15 0.553103 0.074613 0.531889
O O16 0.678865 0.154594 0.492713
#
# Coordination Sequence:
#
# PCOD9270467 Si02
#       8
#     8   4   8   8   8   8   8   8
#     4  10  21  36  58  87 118 155 202 264 308 372
#     4  10  20  36  66  86 112 166 204 264 320 386
#     4   9  19  36  57  86 117 158 201 247 299 366
#     4  10  20  35  59  85 121 159 201 257 299 373
#     4   9  20  36  62  84 119 154 209 257 310 376
#     4  10  21  37  59  88 123 165 199 254 316 375
#     4  10  21  35  58  90 117 157 204 255 312 371
#     4  11  21  39  62  88 124 163 211 250 326 390
#
# _framework density 23.882462
#
# number of rings (size 3 to 8) (size 9 to 14) (size 15 to 20)
#    0.000    2.133    1.333    1.200    4.667    2.667 
#    0.000    4.000   11.733    0.000    0.000    0.000 
#    0.000    0.000    0.000    0.000    0.000    0.000 
#
# Total GULP energy -167390.950788 kJ/mol
# GULP energy per Si atom -5579.698360 kJ/mol
# Density = 2.382810 g / cm^3
# Si number density = 23.882462 Si / 1000 Ang^3
#
#
#
# Elastic Constant Matrix: (Units=GPa)
#
#
# Indices 1 2 3 4 5 6 
#
# 1 133.9521 58.7630 44.6222 -0.0004 -0.6080 -0.0004
# 2 58.7630 111.2792 18.3803 -0.0002 5.7174 -0.0001
# 3 44.6222 18.3803 38.7865 -0.0003 2.4769 0.0001
# 4 -0.0004 -0.0002 -0.0003 45.4794 -0.0004 6.3805
# 5 -0.6080 5.7174 2.4769 -0.0004 42.0754 -0.0004
# 6 -0.0004 -0.0001 0.0001 6.3805 -0.0004 28.2301
#
#
#
# Elastic Compliance Matrix: (Units=1/GPa)
#
#
# Indices 1 2 3 4 5 6 
#
# 1 0.014665 -0.005458 -0.014400 0.000000 0.001801 0.000000
# 2 -0.005458 0.011828 0.000785 0.000000 -0.001732 0.000000
# 3 -0.014400 0.000785 0.042155 0.000000 -0.002796 0.000000
# 4 0.000000 0.000000 0.000000 0.022708 0.000000 -0.005132
# 5 0.001801 -0.001732 -0.002796 0.000000 0.024193 0.000000
# 6 0.000000 0.000000 0.000000 -0.005132 0.000000 0.036583
#
#
# Mechanical properties :
#
#
# Convention : Reuss Voigt Hill
#
# Bulk Modulus (GPa) = 32.78485 58.61652 45.70069
# Shear Modulus (GPa) = 24.94447 33.97378 29.45912
#
# Velocity S-wave (km/s) = 3.23533 3.77575 3.51594
# Velocity P-wave (km/s) = 5.26440 6.60344 5.97157
#
# Compressibility (1/GPa) = 0.03050189
#
# Stress axis : x y z
#
# Youngs Moduli (GPa) = 68.19082 84.54497 23.72195
#
# Poissons Ratio (x) = 0.46145 0.34159
# Poissons Ratio (y) = 0.37219 -0.01862
# Poissons Ratio (z) = 0.98192 -0.06635
#
# Static dielectric constant tensor:
#      x y z
#    x 1.967850 0.000000 0.012640 
#    y 0.000000 1.942140 0.000000 
#    z 0.012640 0.000000 1.978570 
# 
# From -- ./inp_files/290129.got.cif
#   From: 2010.05.17/outbox.cif.g08.bks.cpg/sg15_146_cif.got.tgz:290129.got - 2010.06.03 18:47:42.
