data_PCOD9270608
_publ_section_title
;
Structure prediction by ZEFSAII (Michael W. Deem and Ramdas Pophale) SiO2 
 PCOD9270608
Probable space group: C 2/C
;
_chemical_formula_sum "Si O2"
_cell_formula_units_Z 56
_cell_length_a 8.454375
_cell_length_b 12.845677
_cell_length_c 22.714251
_cell_angle_alpha 90.000000
_cell_angle_beta 118.360992
_cell_angle_gamma 90.000000
_cell_volume 2170.730304
_symmetry_space_group_name_H-M "C 2/C"
_symmetry_group_IT_number 15
_symmetry_cell_setting 'monoclinic'
loop_
_space_group_symop_operation_xyz
x,y,z
-x,y,1/2-z
-x,-y,-z
x,-y,1/2+z
1/2+x,1/2+y,z
1/2-x,1/2+y,1/2-z
1/2-x,1/2-y,-z
1/2+x,1/2-y,1/2+z
loop_
_atom_site_type_symbol
_atom_site_label
_atom_site_fract_x
_atom_site_fract_y
_atom_site_fract_z
Si Si1 0.413344 0.004919 0.343446
Si Si2 0.300928 0.865016 0.669765
Si Si3 0.413557 0.784525 0.299005
Si Si4 0.625602 0.715942 0.923498
Si Si5 0.778098 0.686107 0.403882
Si Si6 0.473579 0.490468 0.565638
Si Si7 0.393164 0.912702 0.016790
O O1 0.336533 0.898923 0.302047
O O2 0.570468 0.952458 0.412503
O O3 0.516561 0.073575 0.313533
O O4 0.294081 0.078762 0.365154
O O5 0.294733 0.774011 0.619027
O O6 0.239051 0.801954 0.716469
O O7 0.147055 0.949898 0.628853
O O8 0.500000 0.788116 0.250000
O O9 0.585870 0.744113 0.368049
O O10 0.414889 0.743637 0.888181
O O11 0.618032 0.592050 0.923614
O O12 0.750000 0.750000 0.000000
O O13 0.918975 0.693911 0.487180
O O14 0.500000 0.500000 0.500000
O O15 0.312591 0.408369 0.542783
O O16 0.500000 0.000000 0.000000
#
# Coordination Sequence:
#
# PCOD9270608 Si02
#       7
#     8   8   8   8   8   8   8
#     4  10  23  43  66  97 133 168 209 274 341 391
#     4  11  24  41  63  96 130 169 216 270 323 388
#     4  12  28  45  67  93 123 180 241 272 317 378
#     4  11  22  37  63 100 137 172 204 253 337 414
#     4  10  23  41  64  98 136 167 212 274 329 401
#     4  12  20  35  58  94 140 168 198 250 323 401
#     4  10  20  35  60  98 136 162 199 256 335 403
#
# _framework density 25.797768999999999
#
# number of rings (size 3 to 8) (size 9 to 14) (size 15 to 20)
#    0.000    1.143    4.286    2.571    6.000    1.714 
#    0.000    2.143    0.000    0.000    0.000    0.000 
#    0.000    0.000    0.000    0.000    0.000    0.000 
#
# Total GULP energy -155981.433304 kJ/mol
# GULP energy per Si atom -5570.765475 kJ/mol
# Density = 2.573905 g / cm^3
# Si number density = 25.797769 Si / 1000 Ang^3
#
#
#
# Elastic Constant Matrix: (Units=GPa)
#
#
# Indices 1 2 3 4 5 6 
#
# 1 67.9021 34.0175 1.4571 0.0000 8.7638 0.0000
# 2 34.0175 151.5633 23.9888 0.0000 -4.6886 0.0000
# 3 1.4571 23.9888 54.7329 0.0000 -19.8808 0.0000
# 4 0.0000 0.0000 0.0000 5.9310 0.0000 -4.3048
# 5 8.7638 -4.6886 -19.8808 0.0000 43.3210 0.0000
# 6 0.0000 0.0000 0.0000 -4.3048 0.0000 29.8461
#
#
#
# Elastic Compliance Matrix: (Units=1/GPa)
#
#
# Indices 1 2 3 4 5 6 
#
# 1 0.017232 -0.003964 -0.000172 0.000000 -0.003994 0.000000
# 2 -0.003964 0.008024 -0.003366 0.000000 0.000126 0.000000
# 3 -0.000172 -0.003366 0.023558 0.000000 0.010482 0.000000
# 4 0.000000 0.000000 0.000000 0.188320 0.000000 0.027162
# 5 -0.003994 0.000126 0.010482 0.000000 0.028715 0.000000
# 6 0.000000 0.000000 0.000000 0.027162 0.000000 0.037423
#
#
# Mechanical properties :
#
#
# Convention : Reuss Voigt Hill
#
# Bulk Modulus (GPa) = 29.57687 43.68055 36.62871
# Shear Modulus (GPa) = 15.17240 30.13527 22.65383
#
# Velocity S-wave (km/s) = 2.42777 3.42151 2.96654
# Velocity P-wave (km/s) = 4.39869 5.70768 5.09540
#
# Compressibility (1/GPa) = 0.03381020
#
# Stress axis : x y z
#
# Youngs Moduli (GPa) = 58.03112 124.62315 42.44930
#
# Poissons Ratio (x) = 0.49400 0.00731
# Poissons Ratio (y) = 0.23003 0.14287
# Poissons Ratio (z) = 0.00999 0.41944
#
# Static dielectric constant tensor:
#      x y z
#    x 0.268740 0.000000 1.456440 
#    y 0.000000 2.998120 0.000000 
#    z 1.456440 0.000000 0.511120 
# 
# From -- ./inp_files/288085.got.cif
#   From: 2010.05.17/outbox.cif.g08.bks.cpg/sg15_145_cif.got.tgz:288085.got - 2010.06.03 18:47:42.
