data_PCOD9270799
_publ_section_title
;
Structure prediction by ZEFSAII (Michael W. Deem and Ramdas Pophale) SiO2 
 PCOD9270799
Probable space group: C 2/C
;
_chemical_formula_sum "Si O2"
_cell_formula_units_Z 40
_cell_length_a 10.507123
_cell_length_b 9.652866
_cell_length_c 18.219085
_cell_angle_alpha 90.000000
_cell_angle_beta 58.215195
_cell_angle_gamma 90.000000
_cell_volume 1570.732183
_symmetry_space_group_name_H-M "C 2/C"
_symmetry_group_IT_number 15
_symmetry_cell_setting 'monoclinic'
loop_
_space_group_symop_operation_xyz
x,y,z
-x,y,1/2-z
-x,-y,-z
x,-y,1/2+z
1/2+x,1/2+y,z
1/2-x,1/2+y,1/2-z
1/2-x,1/2-y,-z
1/2+x,1/2-y,1/2+z
loop_
_atom_site_type_symbol
_atom_site_label
_atom_site_fract_x
_atom_site_fract_y
_atom_site_fract_z
Si Si1 0.809338 0.874764 0.900504
Si Si2 0.474317 0.251321 0.989399
Si Si3 0.671902 0.916459 0.183241
Si Si4 0.213395 0.306859 0.593018
Si Si5 0.469995 0.617582 0.651050
O O1 0.881553 0.826892 0.955048
O O2 0.827847 0.743758 0.841582
O O3 0.628515 0.883081 0.962021
O O4 0.911180 0.006856 0.854447
O O5 0.643931 0.238992 0.909392
O O6 0.476929 0.350403 0.060646
O O7 0.500000 0.948282 0.250000
O O8 0.796971 0.925752 0.209969
O O9 0.718539 0.030791 0.108082
O O10 0.250000 0.250000 0.500000
O O11 0.044937 0.256747 0.659139
#
# Coordination Sequence:
#
# PCOD9270799 Si02
#       5
#     8   8   8   8   8
#     4  10  20  35  66  88 121 161 197 246 310 366
#     4   9  19  34  60  96 124 147 191 254 315 349
#     4  11  25  44  59  84 128 170 203 254 312 367
#     4  10  22  39  64  94 124 157 206 258 315 360
#     4  10  21  40  61  91 124 157 198 253 301 366
#
# _framework density 25.465831000000001
#
# number of rings (size 3 to 8) (size 9 to 14) (size 15 to 20)
#    0.000    2.000    2.000    0.600   14.000    2.400 
#    7.200    1.000    0.000    0.000    0.000    0.000 
#    0.000    0.000    0.000    0.000    0.000    0.000 
#
# Total GULP energy -111410.165003 kJ/mol
# GULP energy per Si atom -5570.508250 kJ/mol
# Density = 2.540787 g / cm^3
# Si number density = 25.465831 Si / 1000 Ang^3
#
#
#
# Elastic Constant Matrix: (Units=GPa)
#
#
# Indices 1 2 3 4 5 6 
#
# 1 119.1806 55.5368 33.0938 0.0000 -52.7589 0.0000
# 2 55.5368 98.0658 -10.6046 0.0000 -15.5804 0.0000
# 3 33.0938 -10.6046 40.7129 0.0000 -19.1901 0.0000
# 4 0.0000 0.0000 0.0000 7.8599 0.0000 -6.3472
# 5 -52.7589 -15.5804 -19.1901 0.0000 50.0658 0.0000
# 6 0.0000 0.0000 0.0000 -6.3472 0.0000 42.2909
#
#
#
# Elastic Compliance Matrix: (Units=1/GPa)
#
#
# Indices 1 2 3 4 5 6 
#
# 1 0.029206 -0.015642 -0.019043 0.000000 0.018610 0.000000
# 2 -0.015642 0.020145 0.016047 0.000000 -0.004064 0.000000
# 3 -0.019043 0.016047 0.045300 0.000000 0.002290 0.000000
# 4 0.000000 0.000000 0.000000 0.144774 0.000000 0.021728
# 5 0.018610 -0.004064 0.002290 0.000000 0.039198 0.000000
# 6 0.000000 0.000000 0.000000 0.021728 0.000000 0.026907
#
#
# Mechanical properties :
#
#
# Convention : Reuss Voigt Hill
#
# Bulk Modulus (GPa) = 17.42914 46.00126 31.71520
# Shear Modulus (GPa) = 13.81475 32.03890 22.92683
#
# Velocity S-wave (km/s) = 2.33165 3.55084 3.00375
# Velocity P-wave (km/s) = 3.75603 5.90884 4.95087
#
# Compressibility (1/GPa) = 0.05737518
#
# Stress axis : x y z
#
# Youngs Moduli (GPa) = 34.23989 49.63898 22.07481
#
# Poissons Ratio (x) = 0.77647 0.42036
# Poissons Ratio (y) = 0.53559 -0.35423
# Poissons Ratio (z) = 0.65202 -0.79655
#
# Static dielectric constant tensor:
#      x y z
#    x 2.137280 0.000000 -0.149100 
#    y 0.000000 2.043960 0.000000 
#    z -0.149100 0.000000 2.285250 
# 
# From -- ./inp_files/290781.got.cif
#   From: 2010.05.17/outbox.cif.g08.bks.cpg/sg15_146_cif.got.tgz:290781.got - 2010.06.03 18:47:42.
