data_PCOD9270069
_publ_section_title
;
Structure prediction by ZEFSAII (Michael W. Deem and Ramdas Pophale) SiO2 
 PCOD9270069
Probable space group: C 2/C
;
_chemical_formula_sum "Si O2"
_cell_formula_units_Z 64
_cell_length_a 29.837518
_cell_length_b 8.096786
_cell_length_c 14.373151
_cell_angle_alpha 90.000000
_cell_angle_beta 100.634778
_cell_angle_gamma 90.000000
_cell_volume 3412.737466
_symmetry_space_group_name_H-M "C 2/C"
_symmetry_group_IT_number 15
_symmetry_cell_setting 'monoclinic'
loop_
_space_group_symop_operation_xyz
x,y,z
-x,y,1/2-z
-x,-y,-z
x,-y,1/2+z
1/2+x,1/2+y,z
1/2-x,1/2+y,1/2-z
1/2-x,1/2-y,-z
1/2+x,1/2-y,1/2+z
loop_
_atom_site_type_symbol
_atom_site_label
_atom_site_fract_x
_atom_site_fract_y
_atom_site_fract_z
Si Si1 0.507796 0.102734 0.908903
Si Si2 0.129241 0.899358 0.318512
Si Si3 0.302568 0.730303 0.496290
Si Si4 0.359613 0.455701 0.872291
Si Si5 0.903998 0.841097 0.546697
Si Si6 0.135161 0.484269 0.527468
Si Si7 0.923374 0.592925 0.159378
Si Si8 0.906008 0.372813 0.317084
O O1 0.547295 0.243851 0.932363
O O2 0.459014 0.164944 0.856342
O O3 0.526351 0.965956 0.844126
O O4 0.500000 0.000000 0.000000
O O5 0.168470 0.824416 0.401101
O O6 0.088385 0.765517 0.299190
O O7 0.147557 0.933242 0.221933
O O8 0.108273 0.057674 0.364944
O O9 0.250000 0.750000 0.500000
O O10 0.317289 0.598104 0.422024
O O11 0.319576 0.909364 0.465741
O O12 0.378217 0.287110 0.834686
O O13 0.396960 0.534636 0.956948
O O14 0.866366 0.699115 0.512521
O O15 0.100212 0.589890 0.450497
O O16 0.113285 0.487258 0.620716
O O17 0.901573 0.448032 0.213416
#
# Coordination Sequence:
#
# PCOD9270069 Si02
#       8
#     8   8   8   8   8   8   8   8
#     4  11  21  35  55  78 112 150 203 239 275 342
#     4  10  21  38  57  84 117 148 192 237 294 353
#     4   9  20  40  63  85 114 149 188 238 292 357
#     4  10  21  37  59  84 116 151 189 243 298 348
#     4  10  20  36  57  81 116 153 190 241 293 335
#     4   9  18  36  57  78 107 151 186 224 288 358
#     4  10  20  35  55  76 109 153 191 233 281 340
#     4  11  20  36  56  78 111 154 199 234 283 345
#
# _framework density 18.753274000000001
#
# number of rings (size 3 to 8) (size 9 to 14) (size 15 to 20)
#    0.000    2.000    2.500    3.375    0.000    0.500 
#    0.000   10.000    0.000    0.000    0.000    0.000 
#    0.000    0.000    0.000    0.000    0.000    0.000 
#
# Total GULP energy -178197.552420 kJ/mol
# GULP energy per Si atom -5568.673513 kJ/mol
# Density = 1.871059 g / cm^3
# Si number density = 18.753274 Si / 1000 Ang^3
#
#
#
# Elastic Constant Matrix: (Units=GPa)
#
#
# Indices 1 2 3 4 5 6 
#
# 1 107.3869 25.2277 29.0343 0.0000 -21.4181 0.0000
# 2 25.2277 80.7958 14.8404 0.0000 -12.1822 0.0000
# 3 29.0343 14.8404 107.4638 0.0000 -22.3509 0.0000
# 4 0.0000 0.0000 0.0000 33.6024 0.0000 -3.6891
# 5 -21.4181 -12.1822 -22.3509 0.0000 20.2262 0.0000
# 6 0.0000 0.0000 0.0000 -3.6891 0.0000 15.3366
#
#
#
# Elastic Compliance Matrix: (Units=1/GPa)
#
#
# Indices 1 2 3 4 5 6 
#
# 1 0.012148 -0.002024 -0.000754 0.000000 0.010811 0.000000
# 2 -0.002024 0.013955 -0.000101 0.000000 0.006149 0.000000
# 3 -0.000754 -0.000101 0.012133 0.000000 0.012548 0.000000
# 4 0.000000 0.000000 0.000000 0.030567 0.000000 0.007353
# 5 0.010811 0.006149 0.012548 0.000000 0.078459 0.000000
# 6 0.000000 0.000000 0.000000 0.007353 0.000000 0.066972
#
#
# Mechanical properties :
#
#
# Convention : Reuss Voigt Hill
#
# Bulk Modulus (GPa) = 30.79151 48.20572 39.49861
# Shear Modulus (GPa) = 21.66204 28.93598 25.29901
#
# Velocity S-wave (km/s) = 3.40237 3.93234 3.67692
# Velocity P-wave (km/s) = 5.64710 6.81020 6.25574
#
# Compressibility (1/GPa) = 0.03247649
#
# Stress axis : x y z
#
# Youngs Moduli (GPa) = 82.31907 71.66012 82.42003
#
# Poissons Ratio (x) = 0.14507 0.06214
# Poissons Ratio (y) = 0.16665 0.00834
# Poissons Ratio (z) = 0.06206 0.00725
#
# Static dielectric constant tensor:
#      x y z
#    x 1.642800 0.000000 0.001660 
#    y 0.000000 1.703810 0.000000 
#    z 0.001660 0.000000 1.696700 
# 
# From -- ./inp_files/180537.got.cif
#   From: 2010.05.17/outbox.cif.g08.bks.cpg/sg15_91_cif.got.tgz:180537.got - 2010.06.03 18:47:42.
