data_PCOD9270282
_publ_section_title
;
Structure prediction by ZEFSAII (Michael W. Deem and Ramdas Pophale) SiO2 
 PCOD9270282
Probable space group: C 2/C
;
_chemical_formula_sum "Si O2"
_cell_formula_units_Z 48
_cell_length_a 20.385961
_cell_length_b 22.283079
_cell_length_c 12.024219
_cell_angle_alpha 90.000000
_cell_angle_beta 25.388812
_cell_angle_gamma 90.000000
_cell_volume 2341.942596
_symmetry_space_group_name_H-M "C 2/C"
_symmetry_group_IT_number 15
_symmetry_cell_setting 'monoclinic'
loop_
_space_group_symop_operation_xyz
x,y,z
-x,y,1/2-z
-x,-y,-z
x,-y,1/2+z
1/2+x,1/2+y,z
1/2-x,1/2+y,1/2-z
1/2-x,1/2-y,-z
1/2+x,1/2-y,1/2+z
loop_
_atom_site_type_symbol
_atom_site_label
_atom_site_fract_x
_atom_site_fract_y
_atom_site_fract_z
Si Si1 0.418043 0.048117 0.988686
Si Si2 0.320796 0.641029 0.035991
Si Si3 0.853360 0.573543 0.670959
Si Si4 0.120993 0.224133 0.350834
Si Si5 0.153024 0.828850 0.573590
Si Si6 0.927757 0.681775 0.239875
O O1 0.500000 0.068322 0.750000
O O2 0.562597 0.047429 0.849959
O O3 0.288482 0.091331 0.238661
O O4 0.346436 0.981113 0.094925
O O5 0.321184 0.695915 0.123067
O O6 0.239982 0.659563 0.042814
O O7 0.500000 0.623470 0.750000
O O8 0.965041 0.625431 0.456426
O O9 0.703699 0.607927 0.943297
O O10 0.127542 0.174023 0.244849
O O11 0.961969 0.258360 0.615998
O O12 0.223229 0.279031 0.149736
O O13 0.000000 0.808121 0.750000
O O14 0.000000 0.696349 0.250000
#
# Coordination Sequence:
#
# PCOD9270282 Si02
#       6
#     8   8   8   8   8   8
#     4  10  20  39  62  82 114 159 203 243 294 362
#     4  11  24  38  59  92 124 155 202 257 303 344
#     4   9  20  36  58  84 110 153 203 244 294 358
#     4  10  21  36  56  84 119 161 199 238 297 366
#     4  10  20  35  57  86 119 154 198 247 296 352
#     4  10  21  38  59  82 117 161 201 241 296 366
#
# _framework density 20.495806000000002
#
# number of rings (size 3 to 8) (size 9 to 14) (size 15 to 20)
#    0.000    2.000    0.000    3.000    0.000    9.333 
#    0.000    0.000    0.000   13.000    0.000    0.000 
#    0.000    0.000    0.000    0.000    0.000    0.000 
#
# Total GULP energy -133612.408854 kJ/mol
# GULP energy per Si atom -5567.183702 kJ/mol
# Density = 2.044916 g / cm^3
# Si number density = 20.495806 Si / 1000 Ang^3
#
#
#
# Elastic Constant Matrix: (Units=GPa)
#
#
# Indices 1 2 3 4 5 6 
#
# 1 74.6216 -12.0373 33.8468 -0.0072 -1.2511 0.0018
# 2 -12.0373 71.7296 24.0938 -0.0272 2.8053 0.0003
# 3 33.8468 24.0938 93.7938 -0.0424 -3.5839 0.0010
# 4 -0.0072 -0.0272 -0.0424 140.7338 0.0132 10.4835
# 5 -1.2511 2.8053 -3.5839 0.0132 23.7979 -0.0018
# 6 0.0018 0.0003 0.0010 10.4835 -0.0018 21.4653
#
#
#
# Elastic Compliance Matrix: (Units=1/GPa)
#
#
# Indices 1 2 3 4 5 6 
#
# 1 0.017926 0.005723 -0.007975 0.000000 -0.000933 -0.000001
# 2 0.005723 0.017223 -0.006594 0.000002 -0.002722 -0.000002
# 3 -0.007975 -0.006594 0.015335 0.000003 0.002667 -0.000001
# 4 0.000000 0.000002 0.000003 0.007374 -0.000004 -0.003601
# 5 -0.000933 -0.002722 0.002667 -0.000004 0.042694 0.000006
# 6 -0.000001 -0.000002 -0.000001 -0.003601 0.000006 0.048346
#
#
# Mechanical properties :
#
#
# Convention : Reuss Voigt Hill
#
# Bulk Modulus (GPa) = 30.49338 36.88350 33.68844
# Shear Modulus (GPa) = 28.16610 50.14885 39.15747
#
# Velocity S-wave (km/s) = 3.71109 4.95187 4.37568
# Velocity P-wave (km/s) = 5.76828 7.12245 6.48083
#
# Compressibility (1/GPa) = 0.03279401
#
# Stress axis : x y z
#
# Youngs Moduli (GPa) = 55.78599 58.06204 65.20980
#
# Poissons Ratio (x) = -0.33231 0.52002
# Poissons Ratio (y) = -0.31928 0.42997
# Poissons Ratio (z) = 0.44487 0.38284
#
# Static dielectric constant tensor:
#      x y z
#    x 1.795240 0.000000 0.059070 
#    y 0.000000 1.775860 0.000000 
#    z 0.059070 0.000000 1.790880 
# 
# From -- ./inp_files/114184.got.cif
#   From: 2010.05.17/outbox.cif.g08.bks.cpg/sg15_58_cif.got.tgz:114184.got - 2010.06.03 18:47:42.
