data_PCOD9270882
_publ_section_title
;
Structure prediction by ZEFSAII (Michael W. Deem and Ramdas Pophale) SiO2 
 PCOD9270882
Probable space group: C 2/C
;
_chemical_formula_sum "Si O2"
_cell_formula_units_Z 64
_cell_length_a 6.137056
_cell_length_b 31.174640
_cell_length_c 19.066341
_cell_angle_alpha 90.000000
_cell_angle_beta 69.793365
_cell_angle_gamma 90.000000
_cell_volume 3423.272176
_symmetry_space_group_name_H-M "C 2/C"
_symmetry_group_IT_number 15
_symmetry_cell_setting 'monoclinic'
loop_
_space_group_symop_operation_xyz
x,y,z
-x,y,1/2-z
-x,-y,-z
x,-y,1/2+z
1/2+x,1/2+y,z
1/2-x,1/2+y,1/2-z
1/2-x,1/2-y,-z
1/2+x,1/2-y,1/2+z
loop_
_atom_site_type_symbol
_atom_site_label
_atom_site_fract_x
_atom_site_fract_y
_atom_site_fract_z
Si Si1 0.016733 0.115327 0.163888
Si Si2 0.171523 0.689319 0.946201
Si Si3 0.164811 0.528973 0.531073
Si Si4 0.510169 0.896796 0.529797
Si Si5 0.329301 0.543817 0.092533
Si Si6 0.557365 0.758111 0.922050
Si Si7 0.314606 0.808461 0.823717
Si Si8 0.549058 0.775416 0.319828
O O1 0.276911 0.112974 0.101725
O O2 0.000000 0.120229 0.250000
O O3 0.882740 0.071503 0.155964
O O4 0.886681 0.156588 0.144752
O O5 0.405148 0.714844 0.938803
O O6 0.141407 0.691183 0.866358
O O7 0.141800 0.644604 0.987096
O O8 0.968164 0.719331 0.000610
O O9 0.417842 0.534427 0.468158
O O10 0.198778 0.502289 0.599461
O O11 0.000000 0.500000 0.500000
O O12 0.058836 0.575992 0.532140
O O13 0.680668 0.924625 0.559456
O O14 0.435283 0.791082 0.880728
O O15 0.812297 0.746627 0.871143
O O16 0.500000 0.828777 0.750000
O O17 0.222891 0.765048 0.796745
O O18 0.500000 0.794935 0.250000
#
# Coordination Sequence:
#
# PCOD9270882 Si02
#       8
#     8   8   8   8   8   8   8   8
#     4  11  24  32  50  83 119 154 185 226 272 342
#     4  10  22  33  53  80 108 144 183 240 274 331
#     4   8  16  33  58  83 104 137 175 222 266 330
#     4  10  20  36  54  83 114 144 195 230 281 330
#     4   9  18  34  55  79 113 143 176 217 272 329
#     4  10  21  37  51  74 109 145 190 230 288 326
#     4  11  22  34  53  74 108 152 191 226 279 340
#     4  11  21  37  56  75 102 144 191 236 284 335
#
# _framework density 18.695564000000001
#
# number of rings (size 3 to 8) (size 9 to 14) (size 15 to 20)
#    0.000    2.000    1.250    2.250    3.500    4.000 
#    0.000    0.000    0.000    0.000   19.500    0.000 
#    0.000    0.000    0.000    0.000    0.000    0.000 
#
# Total GULP energy -178320.723063 kJ/mol
# GULP energy per Si atom -5572.522596 kJ/mol
# Density = 1.865301 g / cm^3
# Si number density = 18.695564 Si / 1000 Ang^3
#
#
#
# Elastic Constant Matrix: (Units=GPa)
#
#
# Indices 1 2 3 4 5 6 
#
# 1 59.5735 24.2305 11.3916 0.0000 -10.3401 0.0000
# 2 24.2305 76.6087 19.8243 0.0000 2.9850 0.0000
# 3 11.3916 19.8243 47.2444 0.0000 10.5744 0.0000
# 4 0.0000 0.0000 0.0000 18.0794 0.0000 -1.5524
# 5 -10.3401 2.9850 10.5744 0.0000 28.9246 0.0000
# 6 0.0000 0.0000 0.0000 -1.5524 0.0000 26.0230
#
#
#
# Elastic Compliance Matrix: (Units=1/GPa)
#
#
# Indices 1 2 3 4 5 6 
#
# 1 0.022017 -0.006051 -0.005088 0.000000 0.010355 0.000000
# 2 -0.006051 0.016323 -0.004933 0.000000 -0.002044 0.000000
# 3 -0.005088 -0.004933 0.026963 0.000000 -0.011167 0.000000
# 4 0.000000 0.000000 0.000000 0.055596 0.000000 0.003317
# 5 0.010355 -0.002044 -0.011167 0.000000 0.042568 0.000000
# 6 0.000000 0.000000 0.000000 0.003317 0.000000 0.038625
#
#
# Mechanical properties :
#
#
# Convention : Reuss Voigt Hill
#
# Bulk Modulus (GPa) = 30.15636 32.70217 31.42926
# Shear Modulus (GPa) = 20.38412 23.13740 21.76076
#
# Velocity S-wave (km/s) = 3.30558 3.52175 3.41538
# Velocity P-wave (km/s) = 5.54386 5.83669 5.69216
#
# Compressibility (1/GPa) = 0.03316050
#
# Stress axis : x y z
#
# Youngs Moduli (GPa) = 45.41896 61.26202 37.08843
#
# Poissons Ratio (x) = 0.37068 0.18869
# Poissons Ratio (y) = 0.27482 0.18296
# Poissons Ratio (z) = 0.23107 0.30220
#
# Static dielectric constant tensor:
#      x y z
#    x 1.691870 0.000000 0.019500 
#    y 0.000000 1.670220 0.000000 
#    z 0.019500 0.000000 1.666160 
# 
# From -- ./inp_files/228781.got.cif
#   From: 2010.05.17/outbox.cif.g08.bks.cpg/sg15_115_cif.got.tgz:228781.got - 2010.06.03 18:47:42.
