data_PCOD9270724
_publ_section_title
;
Structure prediction by ZEFSAII (Michael W. Deem and Ramdas Pophale) SiO2 
 PCOD9270724
Probable space group: C 2/C
;
_chemical_formula_sum "Si O2"
_cell_formula_units_Z 56
_cell_length_a 10.500518
_cell_length_b 13.291225
_cell_length_c 15.892576
_cell_angle_alpha 90.000000
_cell_angle_beta 92.124217
_cell_angle_gamma 90.000000
_cell_volume 2216.519151
_symmetry_space_group_name_H-M "C 2/C"
_symmetry_group_IT_number 15
_symmetry_cell_setting 'monoclinic'
loop_
_space_group_symop_operation_xyz
x,y,z
-x,y,1/2-z
-x,-y,-z
x,-y,1/2+z
1/2+x,1/2+y,z
1/2-x,1/2+y,1/2-z
1/2-x,1/2-y,-z
1/2+x,1/2-y,1/2+z
loop_
_atom_site_type_symbol
_atom_site_label
_atom_site_fract_x
_atom_site_fract_y
_atom_site_fract_z
Si Si1 0.612531 0.665431 0.567154
Si Si2 0.656703 0.374892 0.466731
Si Si3 0.500000 0.545912 0.250000
Si Si4 0.836850 0.527618 0.571850
Si Si5 0.243315 0.545607 0.690005
Si Si6 0.932059 0.608825 0.403550
Si Si7 0.500000 0.140335 0.750000
Si Si8 0.498322 0.705918 0.100111
O O1 0.486929 0.594528 0.565965
O O2 0.736829 0.610658 0.602507
O O3 0.575371 0.771421 0.609692
O O4 0.620369 0.688061 0.466223
O O5 0.739111 0.452928 0.521379
O O6 0.727990 0.369582 0.379700
O O7 0.885893 0.209553 0.466094
O O8 0.627218 0.481826 0.261471
O O9 0.511875 0.614642 0.166475
O O10 0.918218 0.587331 0.502933
O O11 0.938514 0.451511 0.617961
O O12 0.186204 0.446581 0.643222
O O13 0.128703 0.579775 0.744575
O O14 0.509143 0.202464 0.836464
#
# Coordination Sequence:
#
# PCOD9270724 Si02
#       8
#     8   8   4   8   8   8   4   8
#     4  10  21  41  70 114 139 187 252 324 376 445
#     4   9  22  41  75 109 142 187 263 304 370 447
#     4  11  24  48  72  97 152 200 247 294 396 453
#     4  10  20  35  63 108 149 183 227 328 377 431
#     4  11  26  49  71 106 144 202 247 313 374 479
#     4  10  23  38  64 110 146 184 252 313 384 448
#     4  11  26  48  70 105 160 194 243 304 414 443
#     4   9  23  44  72 109 144 200 240 316 367 473
#
# _framework density 25.264838000000001
#
# number of rings (size 3 to 8) (size 9 to 14) (size 15 to 20)
#    0.857    1.143    0.000    2.571    8.000    3.429 
#    5.143    1.429    0.000    0.000    0.000    0.000 
#    0.000    0.000    0.000    0.000    0.000    0.000 
#
# Total GULP energy -156366.480769 kJ/mol
# GULP energy per Si atom -5584.517170 kJ/mol
# Density = 2.520733 g / cm^3
# Si number density = 25.264838 Si / 1000 Ang^3
#
#
#
# Elastic Constant Matrix: (Units=GPa)
#
#
# Indices 1 2 3 4 5 6 
#
# 1 205.2137 80.1513 64.1661 0.0000 9.8877 0.0000
# 2 80.1513 89.1259 44.8777 0.0000 3.8740 0.0000
# 3 64.1661 44.8777 128.1426 0.0000 -0.4369 0.0000
# 4 0.0000 0.0000 0.0000 32.5581 0.0000 -4.7420
# 5 9.8877 3.8740 -0.4369 0.0000 52.3184 0.0000
# 6 0.0000 0.0000 0.0000 -4.7420 0.0000 25.9671
#
#
#
# Elastic Compliance Matrix: (Units=1/GPa)
#
#
# Indices 1 2 3 4 5 6 
#
# 1 0.007884 -0.006137 -0.001802 0.000000 -0.001051 0.000000
# 2 -0.006137 0.018457 -0.003392 0.000000 -0.000235 0.000000
# 3 -0.001802 -0.003392 0.009896 0.000000 0.000674 0.000000
# 4 0.000000 0.000000 0.000000 0.031554 0.000000 0.005762
# 5 -0.001051 -0.000235 0.000674 0.000000 0.019335 0.000000
# 6 0.000000 0.000000 0.000000 0.005762 0.000000 0.039563
#
#
# Mechanical properties :
#
#
# Convention : Reuss Voigt Hill
#
# Bulk Modulus (GPa) = 73.66088 88.98583 81.32336
# Shear Modulus (GPa) = 32.49362 37.72120 35.10741
#
# Velocity S-wave (km/s) = 3.59014 3.86817 3.73175
# Velocity P-wave (km/s) = 6.81207 7.43290 7.12924
#
# Compressibility (1/GPa) = 0.01357573
#
# Stress axis : x y z
#
# Youngs Moduli (GPa) = 126.83802 54.17917 101.04718
#
# Poissons Ratio (x) = 0.33250 0.18210
# Poissons Ratio (y) = 0.77841 0.34273
# Poissons Ratio (z) = 0.22858 0.18376
#
# Static dielectric constant tensor:
#      x y z
#    x 2.003670 0.000000 -0.015360 
#    y 0.000000 2.043350 0.000000 
#    z -0.015360 0.000000 2.028510 
# 
# From -- ./inp_files/231624.got.cif
#   From: 2010.05.17/outbox.cif.g08.bks.cpg/sg15_116_cif.got.tgz:231624.got - 2010.06.03 18:47:42.
