data_PCOD9270078
_publ_section_title
;
Structure prediction by ZEFSAII (Michael W. Deem and Ramdas Pophale) SiO2 
 PCOD9270078
Probable space group: C 2/C
;
_chemical_formula_sum "Si O2"
_cell_formula_units_Z 52
_cell_length_a 15.824245
_cell_length_b 12.723146
_cell_length_c 13.484938
_cell_angle_alpha 90.000000
_cell_angle_beta 71.274809
_cell_angle_gamma 90.000000
_cell_volume 2571.272985
_symmetry_space_group_name_H-M "C 2/C"
_symmetry_group_IT_number 15
_symmetry_cell_setting 'monoclinic'
loop_
_space_group_symop_operation_xyz
x,y,z
-x,y,1/2-z
-x,-y,-z
x,-y,1/2+z
1/2+x,1/2+y,z
1/2-x,1/2+y,1/2-z
1/2-x,1/2-y,-z
1/2+x,1/2-y,1/2+z
loop_
_atom_site_type_symbol
_atom_site_label
_atom_site_fract_x
_atom_site_fract_y
_atom_site_fract_z
Si Si1 0.000000 0.479240 0.750000
Si Si2 0.799032 0.233323 0.821299
Si Si3 0.440740 0.496886 0.426554
Si Si4 0.000000 0.820251 0.250000
Si Si5 0.244008 0.083860 0.475908
Si Si6 0.122091 0.338773 0.302226
Si Si7 0.000000 0.168321 0.250000
Si Si8 0.070538 0.424183 0.523352
O O1 0.921345 0.557609 0.736041
O O2 0.969049 0.406402 0.852832
O O3 0.903739 0.230361 0.755542
O O4 0.767755 0.349601 0.868467
O O5 0.728660 0.180654 0.770744
O O6 0.785659 0.165239 0.926724
O O7 0.500000 0.500000 0.500000
O O8 0.470712 0.395517 0.351864
O O9 0.339130 0.491368 0.501150
O O10 0.458716 0.595373 0.349819
O O11 0.332552 0.029710 0.486152
O O12 0.089639 0.339638 0.430486
O O13 0.076317 0.241917 0.265819
O O14 0.000000 0.500000 0.500000
#
# Coordination Sequence:
#
# PCOD9270078 Si02
#       8
#     4   8   8   4   8   8   4   8
#     4   9  18  32  56  83 108 146 188 221 272 340
#     4   9  17  33  53  76 107 141 178 225 273 322
#     4  10  20  35  55  79 109 145 184 227 270 320
#     4   9  20  34  52  81 108 140 190 223 264 338
#     4   9  18  32  52  75 105 143 180 223 277 325
#     4   9  18  34  56  79 111 148 180 226 282 324
#     4  10  20  36  58  82 106 144 188 220 268 338
#     4   9  18  34  54  78 110 145 183 228 275 326
#
# _framework density 20.223445999999999
#
# number of rings (size 3 to 8) (size 9 to 14) (size 15 to 20)
#    0.000    2.769    0.000    0.923    0.000    3.077 
#    0.000    7.692    0.000    9.231    0.000    0.000 
#    0.000    0.000    0.000    0.000    0.000    0.000 
#
# Total GULP energy -144735.854326 kJ/mol
# GULP energy per Si atom -5566.763628 kJ/mol
# Density = 2.017742 g / cm^3
# Si number density = 20.223446 Si / 1000 Ang^3
#
#
#
# Elastic Constant Matrix: (Units=GPa)
#
#
# Indices 1 2 3 4 5 6 
#
# 1 178.1240 34.2762 51.3803 0.0000 -5.2943 0.0000
# 2 34.2762 38.1131 18.8900 0.0000 -1.2311 0.0000
# 3 51.3803 18.8900 97.0832 0.0000 4.6617 0.0000
# 4 0.0000 0.0000 0.0000 -20.6661 0.0000 -10.8137
# 5 -5.2943 -1.2311 4.6617 0.0000 36.5080 0.0000
# 6 0.0000 0.0000 0.0000 -10.8137 0.0000 19.8594
#
#
#
# Elastic Compliance Matrix: (Units=1/GPa)
#
#
# Indices 1 2 3 4 5 6 
#
# 1 0.007534 -0.005231 -0.003032 0.000000 0.001303 0.000000
# 2 -0.005231 0.032776 -0.003648 0.000000 0.000813 0.000000
# 3 -0.003032 -0.003648 0.012720 0.000000 -0.002187 0.000000
# 4 0.000000 0.000000 0.000000 -0.037659 0.000000 -0.020506
# 5 0.001303 0.000813 -0.002187 0.000000 0.027887 0.000000
# 6 0.000000 0.000000 0.000000 -0.020506 0.000000 0.039188
#
#
# Mechanical properties :
#
#
# Convention : Reuss Voigt Hill
#
# Bulk Modulus (GPa) = 34.23689 58.04594 46.14142
# Shear Modulus (GPa) = 43.10170 21.05850 32.08010
#
# Velocity S-wave (km/s) = 4.62158 3.23041 3.98714
# Velocity P-wave (km/s) = 6.74127 6.53289 6.63790
#
# Compressibility (1/GPa) = 0.02920826
#
# Stress axis : x y z
#
# Youngs Moduli (GPa) = 132.73267 30.51002 78.61622
#
# Poissons Ratio (x) = 0.15959 0.23837
# Poissons Ratio (y) = 0.69427 0.28681
# Poissons Ratio (z) = 0.40246 0.11131
#
# Static dielectric constant tensor:
#      x y z
#    x 1.737170 0.000000 -0.029740 
#    y 0.000000 1.751740 0.000000 
#    z -0.029740 0.000000 1.787030 
# 
# From -- ./inp_files/152580.got.cif
#   From: 2010.05.17/outbox.cif.g08.bks.cpg/sg15_77_cif.got.tgz:152580.got - 2010.06.03 18:47:42.
