data_PCOD9270146
_publ_section_title
;
Structure prediction by ZEFSAII (Michael W. Deem and Ramdas Pophale) SiO2 
 PCOD9270146
Probable space group: C 2/C
;
_chemical_formula_sum "Si O2"
_cell_formula_units_Z 52
_cell_length_a 17.790128
_cell_length_b 8.422623
_cell_length_c 17.944073
_cell_angle_alpha 90.000000
_cell_angle_beta 73.316932
_cell_angle_gamma 90.000000
_cell_volume 2575.555889
_symmetry_space_group_name_H-M "C 2/C"
_symmetry_group_IT_number 15
_symmetry_cell_setting 'monoclinic'
loop_
_space_group_symop_operation_xyz
x,y,z
-x,y,1/2-z
-x,-y,-z
x,-y,1/2+z
1/2+x,1/2+y,z
1/2-x,1/2+y,1/2-z
1/2-x,1/2-y,-z
1/2+x,1/2-y,1/2+z
loop_
_atom_site_type_symbol
_atom_site_label
_atom_site_fract_x
_atom_site_fract_y
_atom_site_fract_z
Si Si1 0.499588 0.871997 0.432978
Si Si2 0.649125 0.256023 0.965220
Si Si3 0.500000 0.619945 0.750000
Si Si4 0.642878 0.433414 0.302806
Si Si5 0.272674 0.173466 0.320009
Si Si6 0.585309 0.107467 0.133258
Si Si7 0.084224 0.084959 0.981582
O O1 0.582982 0.785089 0.420922
O O2 0.431877 0.740709 0.465705
O O3 0.500000 0.000000 0.500000
O O4 0.478060 0.971487 0.365990
O O5 0.732299 0.236662 0.901708
O O6 0.640649 0.441844 0.990450
O O7 0.626485 0.153390 0.043171
O O8 0.432899 0.524169 0.725721
O O9 0.458136 0.737859 0.821195
O O10 0.689075 0.296794 0.246758
O O11 0.703784 0.572611 0.302537
O O12 0.611512 0.370137 0.390991
O O13 0.344017 0.067044 0.331055
O O14 0.000000 0.000000 0.000000
#
# Coordination Sequence:
#
# PCOD9270146 Si02
#       7
#     8   8   4   8   8   8   8
#     4   9  17  30  54  81 105 137 181 224 260 310
#     4   9  18  34  55  78 107 144 178 219 271 330
#     4  10  20  36  58  76 106 146 190 226 266 332
#     4  10  21  38  56  81 109 148 183 223 276 324
#     4  10  22  37  54  78 115 142 175 224 276 330
#     4  10  20  35  56  82 106 141 183 226 273 318
#     4   9  17  33  56  80 109 140 183 228 266 320
#
# _framework density 20.189814999999999
#
# number of rings (size 3 to 8) (size 9 to 14) (size 15 to 20)
#    0.000    2.462    0.000    3.231    0.000    4.923 
#    0.000   10.769    0.000    0.923    0.000    0.000 
#    0.000    0.000    0.000    0.000    0.000    0.000 
#
# Total GULP energy -144924.051341 kJ/mol
# GULP energy per Si atom -5574.001975 kJ/mol
# Density = 2.014386 g / cm^3
# Si number density = 20.189815 Si / 1000 Ang^3
#
#
#
# Elastic Constant Matrix: (Units=GPa)
#
#
# Indices 1 2 3 4 5 6 
#
# 1 118.2637 19.9208 23.2930 0.0000 16.2969 0.0000
# 2 19.9208 46.7089 7.1490 0.0000 12.0916 0.0000
# 3 23.2930 7.1490 56.8479 0.0000 -9.5014 0.0000
# 4 0.0000 0.0000 0.0000 23.1989 0.0000 5.0279
# 5 16.2969 12.0916 -9.5014 0.0000 32.2339 0.0000
# 6 0.0000 0.0000 0.0000 5.0279 0.0000 26.3301
#
#
#
# Elastic Compliance Matrix: (Units=1/GPa)
#
#
# Indices 1 2 3 4 5 6 
#
# 1 0.010670 -0.002195 -0.005112 0.000000 -0.006078 0.000000
# 2 -0.002195 0.025421 -0.003898 0.000000 -0.009575 0.000000
# 3 -0.005112 -0.003898 0.021932 0.000000 0.010511 0.000000
# 4 0.000000 0.000000 0.000000 0.044966 0.000000 -0.008587
# 5 -0.006078 -0.009575 0.010511 0.000000 0.040786 0.000000
# 6 0.000000 0.000000 0.000000 -0.008587 0.000000 0.039619
#
#
# Mechanical properties :
#
#
# Convention : Reuss Voigt Hill
#
# Bulk Modulus (GPa) = 28.07891 35.83847 31.95869
# Shear Modulus (GPa) = 22.97014 27.78311 25.37662
#
# Velocity S-wave (km/s) = 3.37665 3.71360 3.54913
# Velocity P-wave (km/s) = 5.39815 6.01474 5.71477
#
# Compressibility (1/GPa) = 0.03561392
#
# Stress axis : x y z
#
# Youngs Moduli (GPa) = 93.72345 39.33833 45.59496
#
# Poissons Ratio (x) = 0.08634 0.23306
# Poissons Ratio (y) = 0.20570 0.17772
# Poissons Ratio (z) = 0.47908 0.15333
#
# Static dielectric constant tensor:
#      x y z
#    x 1.760620 0.000000 0.021630 
#    y 0.000000 1.721520 0.000000 
#    z 0.021630 0.000000 1.737340 
# 
# From -- ./inp_files/209079.got.cif
#   From: 2010.05.17/outbox.cif.g08.bks.cpg/sg15_105_cif.got.tgz:209079.got - 2010.06.03 18:47:42.
