data_PCOD9270923
_publ_section_title
;
Structure prediction by ZEFSAII (Michael W. Deem and Ramdas Pophale) SiO2 
 PCOD9270923
Probable space group: C 2/C
;
_chemical_formula_sum "Si O2"
_cell_formula_units_Z 60
_cell_length_a 27.955269
_cell_length_b 5.240295
_cell_length_c 21.123140
_cell_angle_alpha 90.000000
_cell_angle_beta 87.696929
_cell_angle_gamma 90.000000
_cell_volume 3091.910705
_symmetry_space_group_name_H-M "C 2/C"
_symmetry_group_IT_number 15
_symmetry_cell_setting 'monoclinic'
loop_
_space_group_symop_operation_xyz
x,y,z
-x,y,1/2-z
-x,-y,-z
x,-y,1/2+z
1/2+x,1/2+y,z
1/2-x,1/2+y,1/2-z
1/2-x,1/2-y,-z
1/2+x,1/2-y,1/2+z
loop_
_atom_site_type_symbol
_atom_site_label
_atom_site_fract_x
_atom_site_fract_y
_atom_site_fract_z
Si Si1 0.218913 0.031009 0.181204
Si Si2 0.192303 0.521029 0.506198
Si Si3 0.903578 0.439527 0.247964
Si Si4 0.000000 0.680319 0.250000
Si Si5 0.773949 0.876044 0.096786
Si Si6 0.316417 0.719485 0.188621
Si Si7 0.151307 0.038106 0.567243
Si Si8 0.081583 0.078027 0.675329
O O1 0.267658 0.880494 0.189569
O O2 0.189998 0.053274 0.247239
O O3 0.187420 0.927099 0.125059
O O4 0.236559 0.306246 0.154296
O O5 0.205769 0.616634 0.435489
O O6 0.242401 0.500379 0.542572
O O7 0.163078 0.264060 0.518150
O O8 0.163738 0.762395 0.537660
O O9 0.891347 0.683036 0.292460
O O10 0.957247 0.511371 0.222878
O O11 0.863724 0.385849 0.197520
O O12 0.907516 0.188869 0.291236
O O13 0.026851 0.848321 0.195391
O O14 0.814549 0.044191 0.126759
O O15 0.099464 0.057890 0.602619
#
# Coordination Sequence:
#
# PCOD9270923 Si02
#       8
#     8   8   8   4   8   8   8   8
#     4  11  23  32  53  80 118 152 188 226 276 338
#     4  10  23  38  52  75 108 156 203 237 258 308
#     4  10  22  34  55  82 116 143 176 222 283 352
#     4   8  22  34  58  78 122 132 178 224 292 350
#     4  10  23  35  51  73 112 156 198 233 268 314
#     4  12  22  33  53  82 115 156 183 225 285 338
#     4  11  21  37  57  77 110 150 194 230 270 322
#     4  10  20  36  55  82 110 144 174 228 281 348
#
# _framework density 19.405476
#
# number of rings (size 3 to 8) (size 9 to 14) (size 15 to 20)
#    0.800    0.800    4.000    1.200    7.467    1.600 
#    0.000    0.000    0.000    0.000    0.000    1.867 
#    0.000    0.000    0.000    0.000    0.000    0.000 
#
# Total GULP energy -167319.492755 kJ/mol
# GULP energy per Si atom -5577.316425 kJ/mol
# Density = 1.936131 g / cm^3
# Si number density = 19.405476 Si / 1000 Ang^3
#
#
#
# Elastic Constant Matrix: (Units=GPa)
#
#
# Indices 1 2 3 4 5 6 
#
# 1 82.6888 20.1813 24.6319 0.0000 -17.7959 0.0000
# 2 20.1813 101.1518 27.3190 0.0000 -6.7211 0.0000
# 3 24.6319 27.3190 75.7114 0.0000 -14.4848 0.0000
# 4 0.0000 0.0000 0.0000 26.6330 0.0000 -2.0086
# 5 -17.7959 -6.7211 -14.4848 0.0000 24.8183 0.0000
# 6 0.0000 0.0000 0.0000 -2.0086 0.0000 25.0655
#
#
#
# Elastic Compliance Matrix: (Units=1/GPa)
#
#
# Indices 1 2 3 4 5 6 
#
# 1 0.015215 -0.001736 -0.002619 0.000000 0.008911 0.000000
# 2 -0.001736 0.011164 -0.003516 0.000000 -0.000274 0.000000
# 3 -0.002619 -0.003516 0.016646 0.000000 0.006885 0.000000
# 4 0.000000 0.000000 0.000000 0.037776 0.000000 0.003027
# 5 0.008911 -0.000274 0.006885 0.000000 0.050627 0.000000
# 6 0.000000 0.000000 0.000000 0.003027 0.000000 0.040138
#
#
# Mechanical properties :
#
#
# Convention : Reuss Voigt Hill
#
# Bulk Modulus (GPa) = 36.65209 44.86849 40.76029
# Shear Modulus (GPa) = 25.45802 27.79803 26.62803
#
# Velocity S-wave (km/s) = 3.62594 3.78892 3.70833
# Velocity P-wave (km/s) = 6.03808 6.50484 6.27581
#
# Compressibility (1/GPa) = 0.02728357
#
# Stress axis : x y z
#
# Youngs Moduli (GPa) = 65.72343 89.57450 60.07498
#
# Poissons Ratio (x) = 0.15553 0.15732
# Poissons Ratio (y) = 0.11412 0.21121
# Poissons Ratio (z) = 0.17211 0.31492
#
# Static dielectric constant tensor:
#      x y z
#    x 1.703090 0.000000 -0.022590 
#    y 0.000000 1.752740 0.000000 
#    z -0.022590 0.000000 1.713110 
# 
# From -- ./inp_files/258308.got.cif
#   From: 2010.05.17/outbox.cif.g08.bks.cpg/sg15_130_cif.got.tgz:258308.got - 2010.06.03 18:47:42.
