data_PCOD9270379
_publ_section_title
;
Structure prediction by ZEFSAII (Michael W. Deem and Ramdas Pophale) SiO2 
 PCOD9270379
Probable space group: C 2/C
;
_chemical_formula_sum "Si O2"
_cell_formula_units_Z 64
_cell_length_a 6.173520
_cell_length_b 22.098031
_cell_length_c 25.839246
_cell_angle_alpha 90.000000
_cell_angle_beta 114.192842
_cell_angle_gamma 90.000000
_cell_volume 3215.456868
_symmetry_space_group_name_H-M "C 2/C"
_symmetry_group_IT_number 15
_symmetry_cell_setting 'monoclinic'
loop_
_space_group_symop_operation_xyz
x,y,z
-x,y,1/2-z
-x,-y,-z
x,-y,1/2+z
1/2+x,1/2+y,z
1/2-x,1/2+y,1/2-z
1/2-x,1/2-y,-z
1/2+x,1/2-y,1/2+z
loop_
_atom_site_type_symbol
_atom_site_label
_atom_site_fract_x
_atom_site_fract_y
_atom_site_fract_z
Si Si1 0.941632 0.501882 0.405423
Si Si2 0.548831 0.808505 0.510442
Si Si3 0.457885 0.414464 0.110637
Si Si4 0.479335 0.056922 0.691883
Si Si5 0.792902 0.378906 0.571884
Si Si6 0.664292 0.409999 0.022192
Si Si7 0.281407 0.669253 0.688055
Si Si8 0.053909 0.229367 0.096240
O O1 0.727448 0.469577 0.414895
O O2 0.906520 0.480428 0.343126
O O3 0.993674 0.572696 0.406635
O O4 0.174232 0.467824 0.450566
O O5 0.361282 0.838508 0.529461
O O6 0.665140 0.859015 0.484382
O O7 0.432547 0.762037 0.458832
O O8 0.769922 0.784609 0.567216
O O9 0.700869 0.440080 0.156240
O O10 0.544087 0.389029 0.064104
O O11 0.364604 0.366519 0.143833
O O12 0.500000 0.029613 0.750000
O O13 0.600031 0.123194 0.698927
O O14 0.552498 0.416637 0.538199
O O15 0.715721 0.331130 0.608457
O O16 0.500000 0.680230 0.750000
O O17 0.145857 0.727630 0.651311
#
# Coordination Sequence:
#
# PCOD9270379 Si02
#       8
#     8   8   8   8   8   8   8   8
#     4  10  22  34  55  87 116 150 191 234 289 358
#     4  10  21  38  58  83 117 156 203 237 289 355
#     4  10  20  35  58  86 119 143 184 241 296 344
#     4  10  20  38  60  89 112 142 185 239 308 349
#     4  11  22  37  55  80 118 161 194 233 286 344
#     4  10  20  35  58  86 117 148 190 240 294 342
#     4  11  21  37  62  91 115 143 192 248 304 353
#     4  10  22  37  56  83 117 156 198 243 287 345
#
# _framework density 19.903859000000001
#
# number of rings (size 3 to 8) (size 9 to 14) (size 15 to 20)
#    0.000    1.750    1.250    4.500    0.000    9.000 
#    0.000    0.625    0.000    1.500    0.000    0.000 
#    0.000    0.000    0.000    0.000    0.000    0.000 
#
# Total GULP energy -178369.133342 kJ/mol
# GULP energy per Si atom -5574.035417 kJ/mol
# Density = 1.985856 g / cm^3
# Si number density = 19.903859 Si / 1000 Ang^3
#
#
#
# Elastic Constant Matrix: (Units=GPa)
#
#
# Indices 1 2 3 4 5 6 
#
# 1 67.7238 20.4200 7.9147 0.0000 6.3353 0.0000
# 2 20.4200 69.2591 22.9949 0.0000 17.5245 0.0000
# 3 7.9147 22.9949 28.2581 0.0000 18.1434 0.0000
# 4 0.0000 0.0000 0.0000 3.7810 0.0000 5.0751
# 5 6.3353 17.5245 18.1434 0.0000 27.3657 0.0000
# 6 0.0000 0.0000 0.0000 5.0751 0.0000 29.7685
#
#
#
# Elastic Compliance Matrix: (Units=1/GPa)
#
#
# Indices 1 2 3 4 5 6 
#
# 1 0.016227 -0.004460 -0.000588 0.000000 -0.000511 0.000000
# 2 -0.004460 0.021201 -0.013841 0.000000 -0.003368 0.000000
# 3 -0.000588 -0.013841 0.071455 0.000000 -0.038375 0.000000
# 4 0.000000 0.000000 0.000000 0.342964 0.000000 -0.058471
# 5 -0.000511 -0.003368 -0.038375 0.000000 0.064260 0.000000
# 6 0.000000 0.000000 0.000000 -0.058471 0.000000 0.043561
#
#
# Mechanical properties :
#
#
# Convention : Reuss Voigt Hill
#
# Bulk Modulus (GPa) = 14.06347 29.76668 21.91508
# Shear Modulus (GPa) = 8.04964 19.77713 13.91339
#
# Velocity S-wave (km/s) = 2.01322 3.15561 2.64679
# Velocity P-wave (km/s) = 3.53343 5.31647 4.51387
#
# Compressibility (1/GPa) = 0.07110621
#
# Stress axis : x y z
#
# Youngs Moduli (GPa) = 61.62538 47.16777 13.99489
#
# Poissons Ratio (x) = 0.21036 0.00822
# Poissons Ratio (y) = 0.27484 0.19370
# Poissons Ratio (z) = 0.03621 0.65283
#
# Static dielectric constant tensor:
#      x y z
#    x 1.735390 0.000000 0.004820 
#    y 0.000000 1.757860 0.000000 
#    z 0.004820 0.000000 1.746020 
# 
# From -- ./inp_files/261829.got.cif
#   From: 2010.05.17/outbox.cif.g08.bks.cpg/sg15_131_cif.got.tgz:261829.got - 2010.06.03 18:47:42.
