data_PCOD9270706
_publ_section_title
;
Structure prediction by ZEFSAII (Michael W. Deem and Ramdas Pophale) SiO2 
 PCOD9270706
Probable space group: C 2/C
;
_chemical_formula_sum "Si O2"
_cell_formula_units_Z 40
_cell_length_a 12.615016
_cell_length_b 21.337484
_cell_length_c 10.165963
_cell_angle_alpha 90.000000
_cell_angle_beta 42.511966
_cell_angle_gamma 90.000000
_cell_volume 1849.106165
_symmetry_space_group_name_H-M "C 2/C"
_symmetry_group_IT_number 15
_symmetry_cell_setting 'monoclinic'
loop_
_space_group_symop_operation_xyz
x,y,z
-x,y,1/2-z
-x,-y,-z
x,-y,1/2+z
1/2+x,1/2+y,z
1/2-x,1/2+y,1/2-z
1/2-x,1/2-y,-z
1/2+x,1/2-y,1/2+z
loop_
_atom_site_type_symbol
_atom_site_label
_atom_site_fract_x
_atom_site_fract_y
_atom_site_fract_z
Si Si1 0.420581 0.932926 0.572106
Si Si2 0.654578 0.176933 0.875896
Si Si3 0.493621 0.697055 0.912484
Si Si4 0.605542 0.512217 0.270935
Si Si5 0.744523 0.396393 0.979897
O O1 0.538854 0.876674 0.423682
O O2 0.368913 0.924700 0.769333
O O3 0.500000 0.000000 0.500000
O O4 0.255316 0.942878 0.650500
O O5 0.582494 0.245933 0.938877
O O6 0.673701 0.157105 0.010635
O O7 0.839679 0.180629 0.673511
O O8 0.500000 0.716198 0.750000
O O9 0.385749 0.635907 0.993810
O O10 0.500000 0.538135 0.250000
O O11 0.500000 0.500000 0.500000
O O12 0.327078 0.446659 0.352544
#
# Coordination Sequence:
#
# PCOD9270706 Si02
#       5
#     8   8   8   8   8
#     4  12  25  36  62  94 142 183 218 272 338 416
#     4  11  21  37  58  97 133 176 218 284 348 395
#     4  10  20  35  62  91 136 171 221 289 349 383
#     4  12  25  43  65  94 138 186 226 272 339 410
#     4  11  22  40  62  97 141 177 223 280 338 406
#
# _framework density 21.632073999999999
#
# number of rings (size 3 to 8) (size 9 to 14) (size 15 to 20)
#    0.000    0.800    4.000    7.200    0.000    0.000 
#    0.000    0.000    0.000    0.000    0.000    5.600 
#    0.000    0.200    0.000    0.000    0.000    0.000 
#
# Total GULP energy -111511.357388 kJ/mol
# GULP energy per Si atom -5575.567869 kJ/mol
# Density = 2.158284 g / cm^3
# Si number density = 21.632074 Si / 1000 Ang^3
#
#
#
# Elastic Constant Matrix: (Units=GPa)
#
#
# Indices 1 2 3 4 5 6 
#
# 1 123.9801 34.3512 40.9935 0.0000 -49.4343 0.0000
# 2 34.3512 117.7647 50.1111 0.0000 -23.6567 0.0000
# 3 40.9935 50.1111 82.8084 0.0000 -29.3438 0.0000
# 4 0.0000 0.0000 0.0000 52.8853 0.0000 -15.2862
# 5 -49.4343 -23.6567 -29.3438 0.0000 41.0183 0.0000
# 6 0.0000 0.0000 0.0000 -15.2862 0.0000 39.8923
#
#
#
# Elastic Compliance Matrix: (Units=1/GPa)
#
#
# Indices 1 2 3 4 5 6 
#
# 1 0.015674 -0.000512 -0.001152 0.000000 0.017771 0.000000
# 2 -0.000512 0.011604 -0.006183 0.000000 0.001652 0.000000
# 3 -0.001152 -0.006183 0.019601 0.000000 0.009068 0.000000
# 4 0.000000 0.000000 0.000000 0.021264 0.000000 0.008148
# 5 0.017771 0.001652 0.009068 0.000000 0.053236 0.000000
# 6 0.000000 0.000000 0.000000 0.008148 0.000000 0.028190
#
#
# Mechanical properties :
#
#
# Convention : Reuss Voigt Hill
#
# Bulk Modulus (GPa) = 32.06721 63.94053 48.00387
# Shear Modulus (GPa) = 28.46428 40.03235 34.24831
#
# Velocity S-wave (km/s) = 3.63138 4.30653 3.98329
# Velocity P-wave (km/s) = 5.69550 7.37229 6.58746
#
# Compressibility (1/GPa) = 0.03118450
#
# Stress axis : x y z
#
# Youngs Moduli (GPa) = 63.79850 86.17925 51.01663
#
# Poissons Ratio (x) = 0.04412 0.05880
# Poissons Ratio (y) = 0.03266 0.31544
# Poissons Ratio (z) = 0.07353 0.53286
#
# Static dielectric constant tensor:
#      x y z
#    x 1.887500 0.000000 -0.059080 
#    y 0.000000 1.858600 0.000000 
#    z -0.059080 0.000000 1.882610 
# 
# From -- ./inp_files/30192.got.cif
#   From: 2010.05.17/outbox.cif.g08.bks.cpg/sg15_16_cif.got.tgz:30192.got - 2010.06.03 18:47:42.
