data_PCOD9270308
_publ_section_title
;
Structure prediction by ZEFSAII (Michael W. Deem and Ramdas Pophale) SiO2 
 PCOD9270308
Probable space group: C 2/C
;
_chemical_formula_sum "Si O2"
_cell_formula_units_Z 64
_cell_length_a 10.554060
_cell_length_b 11.688336
_cell_length_c 20.767764
_cell_angle_alpha 90.000000
_cell_angle_beta 85.346380
_cell_angle_gamma 90.000000
_cell_volume 2553.453309
_symmetry_space_group_name_H-M "C 2/C"
_symmetry_group_IT_number 15
_symmetry_cell_setting 'monoclinic'
loop_
_space_group_symop_operation_xyz
x,y,z
-x,y,1/2-z
-x,-y,-z
x,-y,1/2+z
1/2+x,1/2+y,z
1/2-x,1/2+y,1/2-z
1/2-x,1/2-y,-z
1/2+x,1/2-y,1/2+z
loop_
_atom_site_type_symbol
_atom_site_label
_atom_site_fract_x
_atom_site_fract_y
_atom_site_fract_z
Si Si1 0.174956 0.550899 0.672253
Si Si2 0.936182 0.084504 0.601633
Si Si3 0.046319 0.771956 0.664587
Si Si4 0.327004 0.326516 0.348842
Si Si5 0.436807 0.371885 0.962157
Si Si6 0.215973 0.844525 0.760049
Si Si7 0.821690 0.497097 0.063635
Si Si8 0.422127 0.882304 0.931943
O O1 0.304490 0.606382 0.640894
O O2 0.074534 0.647806 0.691242
O O3 0.212201 0.460389 0.725387
O O4 0.125407 0.480680 0.614021
O O5 0.953362 0.158287 0.535652
O O6 0.044007 0.101494 0.650507
O O7 0.954780 0.958768 0.568941
O O8 0.057392 0.768510 0.587611
O O9 0.163924 0.843176 0.689998
O O10 0.914569 0.827146 0.693176
O O11 0.299198 0.261703 0.283347
O O12 0.216454 0.411196 0.376976
O O13 0.356110 0.228031 0.401429
O O14 0.305571 0.440461 0.957059
O O15 0.926195 0.593521 0.075031
O O16 0.872961 0.414423 0.004709
#
# Coordination Sequence:
#
# PCOD9270308 Si02
#       8
#     8   8   8   8   8   8   8   8
#     4  11  22  41  67  92 129 168 216 270 326 395
#     4  10  21  38  63 100 130 170 209 266 334 392
#     4  11  24  42  71  91 124 179 216 267 333 384
#     4  10  22  37  62  85 128 161 210 263 317 378
#     4  10  21  38  62  96 134 166 215 267 323 403
#     4  10  24  47  63  94 126 167 227 270 319 398
#     4  10  20  35  57  90 125 166 207 253 324 384
#     4  10  21  36  56  89 127 164 201 262 316 387
#
# _framework density 25.064095999999999
#
# number of rings (size 3 to 8) (size 9 to 14) (size 15 to 20)
#    0.000    1.750    2.500    1.125    1.750    5.500 
#    0.000    0.000    0.000    0.000    0.000    0.000 
#    0.000    0.000    0.000    0.000    0.000    0.000 
#
# Total GULP energy -178998.226447 kJ/mol
# GULP energy per Si atom -5593.694576 kJ/mol
# Density = 2.500705 g / cm^3
# Si number density = 25.064096 Si / 1000 Ang^3
#
#
#
# Elastic Constant Matrix: (Units=GPa)
#
#
# Indices 1 2 3 4 5 6 
#
# 1 84.4568 20.9528 23.6869 0.0000 6.4764 0.0000
# 2 20.9528 95.6561 15.4207 0.0000 -1.6892 0.0000
# 3 23.6869 15.4207 76.9895 0.0000 14.1475 0.0000
# 4 0.0000 0.0000 0.0000 22.7471 0.0000 13.4468
# 5 6.4764 -1.6892 14.1475 0.0000 36.5092 0.0000
# 6 0.0000 0.0000 0.0000 13.4468 0.0000 32.1036
#
#
#
# Elastic Compliance Matrix: (Units=1/GPa)
#
#
# Indices 1 2 3 4 5 6 
#
# 1 0.013499 -0.002421 -0.003454 0.000000 -0.001168 0.000000
# 2 -0.002421 0.011308 -0.001825 0.000000 0.001660 0.000000
# 3 -0.003454 -0.001825 0.015418 0.000000 -0.005446 0.000000
# 4 0.000000 0.000000 0.000000 0.058429 0.000000 -0.024473
# 5 -0.001168 0.001660 -0.005446 0.000000 0.029785 0.000000
# 6 0.000000 0.000000 0.000000 -0.024473 0.000000 0.041400
#
#
# Mechanical properties :
#
#
# Convention : Reuss Voigt Hill
#
# Bulk Modulus (GPa) = 40.28096 41.91371 41.09734
# Shear Modulus (GPa) = 25.83809 31.40811 28.62310
#
# Velocity S-wave (km/s) = 3.21422 3.54377 3.38301
# Velocity P-wave (km/s) = 5.46635 5.78821 5.62958
#
# Compressibility (1/GPa) = 0.02482562
#
# Stress axis : x y z
#
# Youngs Moduli (GPa) = 74.07876 88.43364 64.86040
#
# Poissons Ratio (x) = 0.21408 0.22400
# Poissons Ratio (y) = 0.17933 0.11838
# Poissons Ratio (z) = 0.25584 0.16141
#
# Static dielectric constant tensor:
#      x y z
#    x 1.958050 0.000000 0.008160 
#    y 0.000000 2.078280 0.000000 
#    z 0.008160 0.000000 1.954630 
# 
# From -- ./inp_files/268864.got.cif
#   From: 2010.05.17/outbox.cif.g08.bks.cpg/sg15_135_cif.got.tgz:268864.got - 2010.06.03 18:47:42.
