data_PCOD9270725
_publ_section_title
;
Structure prediction by ZEFSAII (Michael W. Deem and Ramdas Pophale) SiO2 
 PCOD9270725
Probable space group: C 2/C
;
_chemical_formula_sum "Si O2"
_cell_formula_units_Z 44
_cell_length_a 11.965040
_cell_length_b 14.291545
_cell_length_c 15.075079
_cell_angle_alpha 90.000000
_cell_angle_beta 115.130916
_cell_angle_gamma 90.000000
_cell_volume 2333.804827
_symmetry_space_group_name_H-M "C 2/C"
_symmetry_group_IT_number 15
_symmetry_cell_setting 'monoclinic'
loop_
_space_group_symop_operation_xyz
x,y,z
-x,y,1/2-z
-x,-y,-z
x,-y,1/2+z
1/2+x,1/2+y,z
1/2-x,1/2+y,1/2-z
1/2-x,1/2-y,-z
1/2+x,1/2-y,1/2+z
loop_
_atom_site_type_symbol
_atom_site_label
_atom_site_fract_x
_atom_site_fract_y
_atom_site_fract_z
Si Si1 0.801193 0.320503 0.589200
Si Si2 0.500000 0.293590 0.250000
Si Si3 0.077565 0.052322 0.648217
Si Si4 0.618834 0.338000 0.693181
Si Si5 0.809021 0.003391 0.995064
Si Si6 0.832858 0.189438 0.094133
O O1 0.750000 0.250000 0.500000
O O2 0.928501 0.275591 0.661331
O O3 0.710596 0.321925 0.643448
O O4 0.796147 0.426176 0.551111
O O5 0.414613 0.364061 0.279031
O O6 0.163004 0.054246 0.589661
O O7 0.102623 0.950552 0.699658
O O8 0.936311 0.050104 0.564099
O O9 0.670152 0.293982 0.801292
O O10 0.480087 0.303926 0.623444
O O11 0.790884 0.083120 0.060886
O O12 0.750000 0.250000 0.000000
#
# Coordination Sequence:
#
# PCOD9270725 Si02
#       6
#     8   4   8   8   8   8
#     4  11  23  36  57  87 126 146 187 242 305 349
#     4  12  22  32  62  90 114 160 194 236 302 352
#     4   9  17  33  59  81 107 146 196 245 275 329
#     4   9  21  38  55  88 114 145 202 247 279 341
#     4   9  18  36  55  83 114 147 188 247 287 332
#     4  10  20  35  63  81 111 154 204 238 283 345
#
# _framework density 18.853332999999999
#
# number of rings (size 3 to 8) (size 9 to 14) (size 15 to 20)
#    0.000    2.182    1.818    3.273    2.545    0.000 
#    0.000    1.818    0.000    2.182    0.000    0.000 
#    0.000    0.000    0.000    0.000    0.000    0.000 
#
# Total GULP energy -122672.460974 kJ/mol
# GULP energy per Si atom -5576.020953 kJ/mol
# Density = 1.881042 g / cm^3
# Si number density = 18.853333 Si / 1000 Ang^3
#
#
#
# Elastic Constant Matrix: (Units=GPa)
#
#
# Indices 1 2 3 4 5 6 
#
# 1 14.3166 16.8065 3.0309 0.0000 -5.0534 0.0000
# 2 16.8065 76.1807 37.1570 0.0000 8.2936 0.0000
# 3 3.0309 37.1570 105.2557 0.0000 11.9252 0.0000
# 4 0.0000 0.0000 0.0000 38.8838 0.0000 -0.0270
# 5 -5.0534 8.2936 11.9252 0.0000 22.7924 0.0000
# 6 0.0000 0.0000 0.0000 -0.0270 0.0000 19.5303
#
#
#
# Elastic Compliance Matrix: (Units=1/GPa)
#
#
# Indices 1 2 3 4 5 6 
#
# 1 0.119635 -0.032200 0.003816 0.000000 0.036245 0.000000
# 2 -0.032200 0.024722 -0.006348 0.000000 -0.012813 0.000000
# 3 0.003816 -0.006348 0.011985 0.000000 -0.003115 0.000000
# 4 0.000000 0.000000 0.000000 0.025718 0.000000 0.000036
# 5 0.036245 -0.012813 -0.003115 0.000000 0.058202 0.000000
# 6 0.000000 0.000000 0.000000 0.000036 0.000000 0.051202
#
#
# Mechanical properties :
#
#
# Convention : Reuss Voigt Hill
#
# Bulk Modulus (GPa) = 11.51065 34.41576 22.96321
# Shear Modulus (GPa) = 12.82421 25.49188 19.15804
#
# Velocity S-wave (km/s) = 2.61091 3.68110 3.19119
# Velocity P-wave (km/s) = 3.89971 6.03004 5.07785
#
# Compressibility (1/GPa) = 0.08687605
#
# Stress axis : x y z
#
# Youngs Moduli (GPa) = 8.35877 40.45011 83.43969
#
# Poissons Ratio (x) = 1.30250 -0.31839
# Poissons Ratio (y) = 0.26915 0.52970
# Poissons Ratio (z) = -0.03190 0.25679
#
# Static dielectric constant tensor:
#      x y z
#    x 1.670460 0.000000 -0.028900 
#    y 0.000000 1.678250 0.000000 
#    z -0.028900 0.000000 1.670790 
# 
# From -- ./inp_files/143909.got.cif
#   From: 2010.05.17/outbox.cif.g08.bks.cpg/sg15_72_cif.got.tgz:143909.got - 2010.06.03 18:47:42.
