data_PCOD9270903
_publ_section_title
;
Structure prediction by ZEFSAII (Michael W. Deem and Ramdas Pophale) SiO2 
 PCOD9270903
Probable space group: C 2/C
;
_chemical_formula_sum "Si O2"
_cell_formula_units_Z 48
_cell_length_a 26.432956
_cell_length_b 10.058386
_cell_length_c 7.719200
_cell_angle_alpha 90.000000
_cell_angle_beta 85.913009
_cell_angle_gamma 90.000000
_cell_volume 2047.106810
_symmetry_space_group_name_H-M "C 2/C"
_symmetry_group_IT_number 15
_symmetry_cell_setting 'monoclinic'
loop_
_space_group_symop_operation_xyz
x,y,z
-x,y,1/2-z
-x,-y,-z
x,-y,1/2+z
1/2+x,1/2+y,z
1/2-x,1/2+y,1/2-z
1/2-x,1/2-y,-z
1/2+x,1/2-y,1/2+z
loop_
_atom_site_type_symbol
_atom_site_label
_atom_site_fract_x
_atom_site_fract_y
_atom_site_fract_z
Si Si1 0.730741 0.626146 0.774057
Si Si2 0.500000 0.967006 0.750000
Si Si3 0.901000 0.916807 0.976286
Si Si4 0.500000 0.392521 0.750000
Si Si5 0.630711 0.690403 0.640582
Si Si6 0.444735 0.832109 0.062091
Si Si7 0.305712 0.334852 0.825310
O O1 0.689601 0.703879 0.667837
O O2 0.719567 0.469262 0.748382
O O3 0.784640 0.700008 0.743827
O O4 0.713832 0.655251 0.973208
O O5 0.487365 0.877307 0.915064
O O6 0.451685 0.059162 0.712036
O O7 0.957080 0.948703 0.890149
O O8 0.866352 0.836024 0.845831
O O9 0.873869 0.059630 0.978083
O O10 0.896667 0.847977 0.167063
O O11 0.464960 0.302477 0.637506
O O12 0.604569 0.808075 0.541578
#
# Coordination Sequence:
#
# PCOD9270903 Si02
#       7
#     8   4   8   4   8   8   8
#     4   9  19  37  60  85 115 150 188 235 292 344
#     4   9  20  37  54  74 104 147 188 237 280 326
#     4  10  21  35  56  85 117 148 187 235 284 340
#     4  11  22  35  56  84 110 149 190 227 282 340
#     4  10  20  36  57  83 114 147 185 235 287 342
#     4  10  20  36  55  75 107 144 188 232 280 333
#     4   9  19  38  59  85 118 150 189 238 288 344
#
# _framework density 23.447725999999999
#
# number of rings (size 3 to 8) (size 9 to 14) (size 15 to 20)
#    0.000    2.333    0.000    2.000    0.000    5.333 
#    0.000   10.000    0.000    0.000    0.000    0.000 
#    0.000    0.000    0.000    0.000    0.000    0.000 
#
# Total GULP energy -133754.790084 kJ/mol
# GULP energy per Si atom -5573.116253 kJ/mol
# Density = 2.339436 g / cm^3
# Si number density = 23.447726 Si / 1000 Ang^3
#
#
#
# Elastic Constant Matrix: (Units=GPa)
#
#
# Indices 1 2 3 4 5 6 
#
# 1 97.7959 23.9868 34.3318 0.0000 19.3295 0.0000
# 2 23.9868 47.3821 28.9334 0.0000 14.4406 0.0000
# 3 34.3318 28.9334 118.8185 0.0000 7.8630 0.0000
# 4 0.0000 0.0000 0.0000 17.3778 0.0000 1.7713
# 5 19.3295 14.4406 7.8630 0.0000 26.9192 0.0000
# 6 0.0000 0.0000 0.0000 1.7713 0.0000 13.5338
#
#
#
# Elastic Compliance Matrix: (Units=1/GPa)
#
#
# Indices 1 2 3 4 5 6 
#
# 1 0.013297 -0.002912 -0.002656 0.000000 -0.007210 0.000000
# 2 -0.002912 0.029713 -0.005586 0.000000 -0.012217 0.000000
# 3 -0.002656 -0.005586 0.010421 0.000000 0.001859 0.000000
# 4 0.000000 0.000000 0.000000 0.058323 0.000000 -0.007633
# 5 -0.007210 -0.012217 0.001859 0.000000 0.048336 0.000000
# 6 0.000000 0.000000 0.000000 -0.007633 0.000000 0.074888
#
#
# Mechanical properties :
#
#
# Convention : Reuss Voigt Hill
#
# Bulk Modulus (GPa) = 32.12978 48.72229 40.42603
# Shear Modulus (GPa) = 18.68042 23.34912 21.01477
#
# Velocity S-wave (km/s) = 2.82562 3.15904 2.99697
# Velocity P-wave (km/s) = 4.93741 5.84211 5.40871
#
# Compressibility (1/GPa) = 0.03112377
#
# Stress axis : x y z
#
# Youngs Moduli (GPa) = 75.20422 33.65474 95.96341
#
# Poissons Ratio (x) = 0.09802 0.25486
# Poissons Ratio (y) = 0.21903 0.53600
# Poissons Ratio (z) = 0.19973 0.18798
#
# Static dielectric constant tensor:
#      x y z
#    x 1.975450 0.000000 -0.006960 
#    y 0.000000 1.899480 0.000000 
#    z -0.006960 0.000000 1.983000 
# 
# From -- ./inp_files/60652.got.cif
#   From: 2010.05.17/outbox.cif.g08.bks.cpg/sg15_31_cif.got.tgz:60652.got - 2010.06.03 18:47:42.
