data_PCOD9270777
_publ_section_title
;
Structure prediction by ZEFSAII (Michael W. Deem and Ramdas Pophale) SiO2 
 PCOD9270777
Probable space group: C 2/C
;
_chemical_formula_sum "Si O2"
_cell_formula_units_Z 64
_cell_length_a 17.969940
_cell_length_b 16.854064
_cell_length_c 9.625690
_cell_angle_alpha 90.000000
_cell_angle_beta 94.377358
_cell_angle_gamma 90.000000
_cell_volume 2906.795271
_symmetry_space_group_name_H-M "C 2/C"
_symmetry_group_IT_number 15
_symmetry_cell_setting 'monoclinic'
loop_
_space_group_symop_operation_xyz
x,y,z
-x,y,1/2-z
-x,-y,-z
x,-y,1/2+z
1/2+x,1/2+y,z
1/2-x,1/2+y,1/2-z
1/2-x,1/2-y,-z
1/2+x,1/2-y,1/2+z
loop_
_atom_site_type_symbol
_atom_site_label
_atom_site_fract_x
_atom_site_fract_y
_atom_site_fract_z
Si Si1 0.928584 0.516151 0.582329
Si Si2 0.362174 0.320202 0.475068
Si Si3 0.662927 0.979820 0.696274
Si Si4 0.769629 0.349073 0.260137
Si Si5 0.340397 0.591509 0.542558
Si Si6 0.078109 0.696646 0.825623
Si Si7 0.998633 0.075495 0.901903
Si Si8 0.185006 0.071429 0.286280
O O1 0.906493 0.464282 0.712893
O O2 0.861962 0.504878 0.463346
O O3 0.936011 0.604939 0.639873
O O4 0.000000 0.500000 0.500000
O O5 0.287771 0.322829 0.370000
O O6 0.395977 0.236665 0.526640
O O7 0.425991 0.371564 0.410188
O O8 0.350502 0.361966 0.622904
O O9 0.726095 0.914443 0.700876
O O10 0.703832 0.059343 0.759674
O O11 0.722644 0.352525 0.397140
O O12 0.848263 0.302373 0.263611
O O13 0.424383 0.623515 0.570326
O O14 0.334008 0.570862 0.378954
O O15 0.333437 0.510400 0.633527
O O16 0.000000 0.728589 0.750000
O O17 0.000000 0.040183 0.750000
O O18 0.000000 0.000000 0.000000
#
# Coordination Sequence:
#
# PCOD9270777 Si02
#       8
#     8   8   8   8   8   8   8   8
#     4  11  21  41  69  97 125 166 224 299 353 394
#     4  12  25  42  68  94 141 188 229 273 347 437
#     4  10  20  35  64  98 126 158 218 279 339 400
#     4  10  21  44  66  95 131 175 225 281 340 410
#     4  11  21  37  63  96 135 175 227 285 333 401
#     4  11  26  45  69  97 135 185 234 289 356 415
#     4  12  24  39  62  99 138 179 229 279 341 412
#     4  11  21  35  60  97 130 173 220 276 336 405
#
# _framework density 22.017374
#
# number of rings (size 3 to 8) (size 9 to 14) (size 15 to 20)
#    0.000    1.000    2.500    7.500    1.750    0.000 
#    0.000    1.875    2.750    0.000    0.000    0.000 
#    0.000    0.000    0.000    0.000    0.000    0.000 
#
# Total GULP energy -178593.759369 kJ/mol
# GULP energy per Si atom -5581.054980 kJ/mol
# Density = 2.196726 g / cm^3
# Si number density = 22.017374 Si / 1000 Ang^3
#
#
#
# Elastic Constant Matrix: (Units=GPa)
#
#
# Indices 1 2 3 4 5 6 
#
# 1 141.8576 16.0830 44.9315 0.0000 -0.1404 0.0000
# 2 16.0830 19.9557 8.1994 0.0000 -2.5864 0.0000
# 3 44.9315 8.1994 163.7667 0.0000 -3.9022 0.0000
# 4 0.0000 0.0000 0.0000 19.2767 0.0000 2.1193
# 5 -0.1404 -2.5864 -3.9022 0.0000 43.7903 0.0000
# 6 0.0000 0.0000 0.0000 2.1193 0.0000 11.3623
#
#
#
# Elastic Compliance Matrix: (Units=1/GPa)
#
#
# Indices 1 2 3 4 5 6 
#
# 1 0.008363 -0.005981 -0.002007 0.000000 -0.000505 0.000000
# 2 -0.005981 0.055785 -0.001076 0.000000 0.003180 0.000000
# 3 -0.002007 -0.001076 0.006723 0.000000 0.000529 0.000000
# 4 0.000000 0.000000 0.000000 0.052962 0.000000 -0.009878
# 5 -0.000505 0.003180 0.000529 0.000000 0.023069 0.000000
# 6 0.000000 0.000000 0.000000 -0.009878 0.000000 0.089853
#
#
# Mechanical properties :
#
#
# Convention : Reuss Voigt Hill
#
# Bulk Modulus (GPa) = 18.95973 51.55642 35.25807
# Shear Modulus (GPa) = 18.35098 31.97692 25.16395
#
# Velocity S-wave (km/s) = 2.89013 3.81510 3.38437
# Velocity P-wave (km/s) = 4.44602 6.54781 5.59647
#
# Compressibility (1/GPa) = 0.05274337
#
# Stress axis : x y z
#
# Youngs Moduli (GPa) = 119.58087 17.92586 148.73449
#
# Poissons Ratio (x) = 0.10721 0.29851
# Poissons Ratio (y) = 0.71515 0.16011
# Poissons Ratio (z) = 0.24000 0.01930
#
# Static dielectric constant tensor:
#      x y z
#    x 1.691240 0.000000 -0.104660 
#    y 0.000000 1.877730 0.000000 
#    z -0.104660 0.000000 1.773620 
# 
# From -- ./inp_files/50247.got.cif
#   From: 2010.05.17/outbox.cif.g08.bks.cpg/sg15_26_cif.got.tgz:50247.got - 2010.06.03 18:47:42.
