data_PCOD9270037
_publ_section_title
;
Structure prediction by ZEFSAII (Michael W. Deem and Ramdas Pophale) SiO2 
 PCOD9270037
Probable space group: C 2/C
;
_chemical_formula_sum "Si O2"
_cell_formula_units_Z 60
_cell_length_a 21.675582
_cell_length_b 25.034770
_cell_length_c 5.824345
_cell_angle_alpha 90.000000
_cell_angle_beta 80.384552
_cell_angle_gamma 90.000000
_cell_volume 3116.138940
_symmetry_space_group_name_H-M "C 2/C"
_symmetry_group_IT_number 15
_symmetry_cell_setting 'monoclinic'
loop_
_space_group_symop_operation_xyz
x,y,z
-x,y,1/2-z
-x,-y,-z
x,-y,1/2+z
1/2+x,1/2+y,z
1/2-x,1/2+y,1/2-z
1/2-x,1/2-y,-z
1/2+x,1/2-y,1/2+z
loop_
_atom_site_type_symbol
_atom_site_label
_atom_site_fract_x
_atom_site_fract_y
_atom_site_fract_z
Si Si1 0.110320 0.201665 0.474707
Si Si2 0.290902 0.784187 0.296345
Si Si3 0.611651 0.011789 0.427222
Si Si4 0.747444 0.525456 0.693531
Si Si5 0.720781 0.636237 0.526263
Si Si6 0.835007 0.369928 0.620664
Si Si7 0.000000 0.233594 0.250000
Si Si8 0.565909 0.787984 0.827354
O O1 0.156986 0.243843 0.325824
O O2 0.151175 0.149099 0.485032
O O3 0.044997 0.198352 0.380611
O O4 0.091866 0.231906 0.718674
O O5 0.250000 0.750000 0.500000
O O6 0.246865 0.810048 0.130174
O O7 0.321656 0.834867 0.404401
O O8 0.633090 0.073286 0.434326
O O9 0.581072 0.996116 0.692328
O O10 0.676681 0.978088 0.366635
O O11 0.728698 0.498941 0.455708
O O12 0.724548 0.586235 0.693748
O O13 0.769406 0.623322 0.292435
O O14 0.882743 0.333179 0.735817
O O15 0.953261 0.274200 0.404718
O O16 0.500000 0.801532 0.750000
#
# Coordination Sequence:
#
# PCOD9270037 Si02
#       8
#     8   8   8   8   8   8   4   8
#     4  11  22  36  55  81 118 150 192 237 283 354
#     4  12  22  32  52  87 125 147 184 238 298 357
#     4  10  20  35  54  82 116 154 192 242 297 355
#     4  10  20  37  54  83 124 155 191 237 298 362
#     4  12  23  33  57  90 118 153 188 240 303 354
#     4  12  21  34  59  82 113 157 192 237 297 354
#     4  10  22  42  54  72 112 158 198 238 280 338
#     4  10  22  39  55  78 111 154 199 238 279 346
#
# _framework density 19.254595999999999
#
# number of rings (size 3 to 8) (size 9 to 14) (size 15 to 20)
#    0.000    1.067    6.667    2.800    0.000    0.000 
#    0.000    0.000    0.000    0.800    0.000    0.933 
#    0.000    0.000    0.000    0.000    0.000    0.000 
#
# Total GULP energy -167311.915527 kJ/mol
# GULP energy per Si atom -5577.063851 kJ/mol
# Density = 1.921077 g / cm^3
# Si number density = 19.254596 Si / 1000 Ang^3
#
#
#
# Elastic Constant Matrix: (Units=GPa)
#
#
# Indices 1 2 3 4 5 6 
#
# 1 61.0702 24.7084 3.1725 0.0000 2.2489 0.0000
# 2 24.7084 55.3482 12.4894 0.0000 4.5032 0.0000
# 3 3.1725 12.4894 92.4708 0.0000 -1.1540 0.0000
# 4 0.0000 0.0000 0.0000 27.1307 0.0000 7.5071
# 5 2.2489 4.5032 -1.1540 0.0000 22.3123 0.0000
# 6 0.0000 0.0000 0.0000 7.5071 0.0000 8.1471
#
#
#
# Elastic Compliance Matrix: (Units=1/GPa)
#
#
# Indices 1 2 3 4 5 6 
#
# 1 0.020010 -0.009040 0.000532 0.000000 -0.000165 0.000000
# 2 -0.009040 0.023063 -0.002853 0.000000 -0.003891 0.000000
# 3 0.000532 -0.002853 0.011195 0.000000 0.001101 0.000000
# 4 0.000000 0.000000 0.000000 0.049472 0.000000 -0.045586
# 5 -0.000165 -0.003891 0.001101 0.000000 0.045677 0.000000
# 6 0.000000 0.000000 0.000000 -0.045586 0.000000 0.164748
#
#
# Mechanical properties :
#
#
# Convention : Reuss Voigt Hill
#
# Bulk Modulus (GPa) = 31.69843 32.18110 31.93977
# Shear Modulus (GPa) = 14.39250 22.75261 18.57255
#
# Velocity S-wave (km/s) = 2.73698 3.44127 3.10913
# Velocity P-wave (km/s) = 5.14651 5.70435 5.43260
#
# Compressibility (1/GPa) = 0.03154730
#
# Stress axis : x y z
#
# Youngs Moduli (GPa) = 49.97408 43.35880 89.32482
#
# Poissons Ratio (x) = 0.39195 -0.04755
# Poissons Ratio (y) = 0.45175 0.25488
# Poissons Ratio (z) = -0.02660 0.12372
#
# Static dielectric constant tensor:
#      x y z
#    x 1.710940 0.000000 0.034880 
#    y 0.000000 1.669310 0.000000 
#    z 0.034880 0.000000 1.789080 
# 
# From -- ./inp_files/14253.got.cif
#   From: 2010.05.17/outbox.cif.g08.bks.cpg/sg15_8_cif.got.tgz:14253.got - 2010.06.03 18:47:42.
