data_PCOD9270167
_publ_section_title
;
Structure prediction by ZEFSAII (Michael W. Deem and Ramdas Pophale) SiO2 
 PCOD9270167
Probable space group: C 2/C
;
_chemical_formula_sum "Si O2"
_cell_formula_units_Z 48
_cell_length_a 13.062579
_cell_length_b 8.750066
_cell_length_c 24.046068
_cell_angle_alpha 90.000000
_cell_angle_beta 47.313070
_cell_angle_gamma 90.000000
_cell_volume 2020.284814
_symmetry_space_group_name_H-M "C 2/C"
_symmetry_group_IT_number 15
_symmetry_cell_setting 'monoclinic'
loop_
_space_group_symop_operation_xyz
x,y,z
-x,y,1/2-z
-x,-y,-z
x,-y,1/2+z
1/2+x,1/2+y,z
1/2-x,1/2+y,1/2-z
1/2-x,1/2-y,-z
1/2+x,1/2-y,1/2+z
loop_
_atom_site_type_symbol
_atom_site_label
_atom_site_fract_x
_atom_site_fract_y
_atom_site_fract_z
Si Si1 0.786953 0.047861 0.612159
Si Si2 0.692199 0.242680 0.085618
Si Si3 0.094682 0.439804 0.416170
Si Si4 0.544392 0.476082 0.654066
Si Si5 0.202607 0.164562 0.201639
Si Si6 0.054232 0.841616 0.545933
O O1 0.718817 0.155289 0.684245
O O2 0.852086 0.163638 0.542859
O O3 0.694206 0.926456 0.611622
O O4 0.922554 0.953606 0.582499
O O5 0.792943 0.337591 0.090875
O O6 0.549997 0.340644 0.146055
O O7 0.750000 0.250000 0.000000
O O8 0.153250 0.573289 0.355951
O O9 0.000000 0.500000 0.500000
O O10 0.002643 0.321321 0.415932
O O11 0.392464 0.397760 0.713304
O O12 0.622994 0.407713 0.677784
O O13 0.629573 0.419157 0.569405
#
# Coordination Sequence:
#
# PCOD9270167 Si02
#       6
#     8   8   8   8   8   8
#     4  10  20  36  59  88 117 152 202 253 304 355
#     4  10  20  36  60  88 114 152 198 253 301 359
#     4  10  20  35  56  84 115 154 196 240 296 355
#     4  10  22  39  57  85 123 157 200 247 311 365
#     4  10  22  39  56  82 124 162 195 249 304 373
#     4  10  20  35  58  88 117 151 200 256 294 363
#
# _framework density 23.759028000000001
#
# number of rings (size 3 to 8) (size 9 to 14) (size 15 to 20)
#    0.000    2.000    3.333    0.000    0.000    3.333 
#    0.000   10.000    0.000    0.000    0.000    0.000 
#    0.000    0.000    0.000    0.000    0.000    0.000 
#
# Total GULP energy -133800.051063 kJ/mol
# GULP energy per Si atom -5575.002128 kJ/mol
# Density = 2.370495 g / cm^3
# Si number density = 23.759028 Si / 1000 Ang^3
#
#
#
# Elastic Constant Matrix: (Units=GPa)
#
#
# Indices 1 2 3 4 5 6 
#
# 1 20.1218 8.7818 -4.0388 0.0000 12.4599 0.0000
# 2 8.7818 152.2919 44.6406 0.0000 -15.5947 0.0000
# 3 -4.0388 44.6406 80.2940 0.0000 -5.0038 0.0000
# 4 0.0000 0.0000 0.0000 34.2776 0.0000 0.7379
# 5 12.4599 -15.5947 -5.0038 0.0000 24.7365 0.0000
# 6 0.0000 0.0000 0.0000 0.7379 0.0000 26.6950
#
#
#
# Elastic Compliance Matrix: (Units=1/GPa)
#
#
# Indices 1 2 3 4 5 6 
#
# 1 0.088494 -0.012775 0.008379 0.000000 -0.050934 0.000000
# 2 -0.012775 0.010126 -0.005543 0.000000 0.011697 0.000000
# 3 0.008379 -0.005543 0.015674 0.000000 -0.004545 0.000000
# 4 0.000000 0.000000 0.000000 0.029191 0.000000 -0.000807
# 5 -0.050934 0.011697 -0.004545 0.000000 0.072537 0.000000
# 6 0.000000 0.000000 0.000000 -0.000807 0.000000 0.037483
#
#
# Mechanical properties :
#
#
# Convention : Reuss Voigt Hill
#
# Bulk Modulus (GPa) = 10.59132 39.05277 24.82205
# Shear Modulus (GPa) = 16.40135 30.69674 23.54904
#
# Velocity S-wave (km/s) = 2.63025 3.59834 3.15169
# Velocity P-wave (km/s) = 3.70024 5.80834 4.86973
#
# Compressibility (1/GPa) = 0.09441691
#
# Stress axis : x y z
#
# Youngs Moduli (GPa) = 11.30021 98.75984 63.79890
#
# Poissons Ratio (x) = 1.26163 -0.53460
# Poissons Ratio (y) = 0.14436 0.35364
# Poissons Ratio (z) = -0.09469 0.54743
#
# Static dielectric constant tensor:
#      x y z
#    x 2.075940 0.000000 -0.058030 
#    y 0.000000 1.953510 0.000000 
#    z -0.058030 0.000000 1.987170 
# 
# From -- ./inp_files/247084.got.cif
#   From: 2010.05.17/outbox.cif.g08.bks.cpg/sg15_124_cif.got.tgz:247084.got - 2010.06.03 18:47:42.
