data_PCOD9270261
_publ_section_title
;
Structure prediction by ZEFSAII (Michael W. Deem and Ramdas Pophale) SiO2 
 PCOD9270261
Probable space group: C 2/C
;
_chemical_formula_sum "Si O2"
_cell_formula_units_Z 56
_cell_length_a 16.523689
_cell_length_b 11.225500
_cell_length_c 18.545198
_cell_angle_alpha 90.000000
_cell_angle_beta 140.136713
_cell_angle_gamma 90.000000
_cell_volume 2204.822872
_symmetry_space_group_name_H-M "C 2/C"
_symmetry_group_IT_number 15
_symmetry_cell_setting 'monoclinic'
loop_
_space_group_symop_operation_xyz
x,y,z
-x,y,1/2-z
-x,-y,-z
x,-y,1/2+z
1/2+x,1/2+y,z
1/2-x,1/2+y,1/2-z
1/2-x,1/2-y,-z
1/2+x,1/2-y,1/2+z
loop_
_atom_site_type_symbol
_atom_site_label
_atom_site_fract_x
_atom_site_fract_y
_atom_site_fract_z
Si Si1 0.865204 0.960261 0.701425
Si Si2 0.642628 0.807893 0.318261
Si Si3 0.878205 0.498419 0.319672
Si Si4 0.905366 0.347594 0.483111
Si Si5 0.836432 0.689353 0.186820
Si Si6 0.252488 0.509385 0.478284
Si Si7 0.014017 0.134878 0.620882
O O1 0.824151 0.824581 0.683122
O O2 0.769811 0.008945 0.575671
O O3 0.000000 0.962820 0.750000
O O4 0.884691 0.031499 0.789746
O O5 0.500000 0.803871 0.250000
O O6 0.729008 0.874704 0.436124
O O7 0.643212 0.894676 0.251372
O O8 0.877811 0.428238 0.394599
O O9 0.799772 0.609879 0.232379
O O10 0.015833 0.561268 0.413404
O O11 0.778186 0.275326 0.413497
O O12 0.001711 0.229361 0.546494
O O13 0.848945 0.594603 0.130689
O O14 0.951145 0.774398 0.289764
O O15 0.383921 0.563071 0.538058
#
# Coordination Sequence:
#
# PCOD9270261 Si02
#       7
#     8   8   8   8   8   8   8
#     4   9  18  33  53  79 118 151 186 227 279 330
#     4  10  20  35  57  84 114 150 195 227 278 345
#     4   9  19  37  60  82 113 152 183 237 289 326
#     4   9  18  37  61  78 116 147 188 235 284 334
#     4   9  18  34  58  83 112 146 192 230 278 346
#     4   9  18  34  57  79 115 152 180 235 285 324
#     4   9  18  34  56  84 111 147 185 235 277 336
#
# _framework density 25.398864
#
# number of rings (size 3 to 8) (size 9 to 14) (size 15 to 20)
#    0.000    2.857    0.000    0.429    0.000    1.714 
#    2.571   22.857   56.571    0.000    0.000    0.000 
#    0.000    0.000    0.000    0.000    0.000    0.000 
#
# Total GULP energy -155985.875550 kJ/mol
# GULP energy per Si atom -5570.924127 kJ/mol
# Density = 2.534106 g / cm^3
# Si number density = 25.398864 Si / 1000 Ang^3
#
#
#
# Elastic Constant Matrix: (Units=GPa)
#
#
# Indices 1 2 3 4 5 6 
#
# 1 27.1937 16.3229 9.2019 0.0000 -9.4463 0.0000
# 2 16.3229 211.0480 64.5668 0.0000 -4.8620 0.0000
# 3 9.2019 64.5668 124.7303 0.0000 2.9037 0.0000
# 4 0.0000 0.0000 0.0000 83.6382 0.0000 4.2675
# 5 -9.4463 -4.8620 2.9037 0.0000 31.7759 0.0000
# 6 0.0000 0.0000 0.0000 4.2675 0.0000 28.5249
#
#
#
# Elastic Compliance Matrix: (Units=1/GPa)
#
#
# Indices 1 2 3 4 5 6 
#
# 1 0.043390 -0.002367 -0.002272 0.000000 0.012744 0.000000
# 2 -0.002367 0.005800 -0.002838 0.000000 0.000443 0.000000
# 3 -0.002272 -0.002838 0.009700 0.000000 -0.001996 0.000000
# 4 0.000000 0.000000 0.000000 0.012048 0.000000 -0.001803
# 5 0.012744 0.000443 -0.001996 0.000000 0.035509 0.000000
# 6 0.000000 0.000000 0.000000 -0.001803 0.000000 0.035327
#
#
# Mechanical properties :
#
#
# Convention : Reuss Voigt Hill
#
# Bulk Modulus (GPa) = 22.76073 60.35057 41.55565
# Shear Modulus (GPa) = 29.17587 46.97982 38.07784
#
# Velocity S-wave (km/s) = 3.39294 4.30546 3.87614
# Velocity P-wave (km/s) = 4.93256 6.96625 6.03568
#
# Compressibility (1/GPa) = 0.04393532
#
# Stress axis : x y z
#
# Youngs Moduli (GPa) = 23.04679 172.42091 103.08766
#
# Poissons Ratio (x) = 0.40813 0.23426
# Poissons Ratio (y) = 0.05455 0.29256
# Poissons Ratio (z) = 0.05237 0.48932
#
# Static dielectric constant tensor:
#      x y z
#    x 2.143920 0.000000 0.091830 
#    y 0.000000 2.031210 0.000000 
#    z 0.091830 0.000000 2.079790 
# 
# From -- ./inp_files/252428.got.cif
#   From: 2010.05.17/outbox.cif.g08.bks.cpg/sg15_127_cif.got.tgz:252428.got - 2010.06.03 18:47:42.
