data_PCOD9270080
_publ_section_title
;
Structure prediction by ZEFSAII (Michael W. Deem and Ramdas Pophale) SiO2 
 PCOD9270080
Probable space group: C 2/C
;
_chemical_formula_sum "Si O2"
_cell_formula_units_Z 56
_cell_length_a 8.563198
_cell_length_b 13.982164
_cell_length_c 28.768996
_cell_angle_alpha 90.000000
_cell_angle_beta 56.654861
_cell_angle_gamma 90.000000
_cell_volume 2877.506633
_symmetry_space_group_name_H-M "C 2/C"
_symmetry_group_IT_number 15
_symmetry_cell_setting 'monoclinic'
loop_
_space_group_symop_operation_xyz
x,y,z
-x,y,1/2-z
-x,-y,-z
x,-y,1/2+z
1/2+x,1/2+y,z
1/2-x,1/2+y,1/2-z
1/2-x,1/2-y,-z
1/2+x,1/2-y,1/2+z
loop_
_atom_site_type_symbol
_atom_site_label
_atom_site_fract_x
_atom_site_fract_y
_atom_site_fract_z
Si Si1 0.076954 0.342489 0.628081
Si Si2 0.807741 0.302322 0.396520
Si Si3 0.674750 0.551823 0.692774
Si Si4 0.049591 0.536593 0.687265
Si Si5 0.064273 0.687650 0.027134
Si Si6 0.658051 0.323947 0.690152
Si Si7 0.138442 0.667344 0.913892
O O1 0.098514 0.431605 0.659097
O O2 0.057365 0.371907 0.576422
O O3 0.246352 0.267637 0.604008
O O4 0.869994 0.297509 0.670428
O O5 0.802739 0.388734 0.359430
O O6 0.608083 0.262487 0.445503
O O7 0.886346 0.214812 0.353308
O O8 0.948592 0.325109 0.415038
O O9 0.500000 0.591735 0.750000
O O10 0.650012 0.438350 0.691575
O O11 0.720421 0.597254 0.635864
O O12 0.857093 0.566963 0.694099
O O13 0.000000 0.535785 0.750000
O O14 0.250000 0.750000 0.000000
O O15 0.082407 0.635844 0.974909
O O16 0.500000 0.285022 0.750000
#
# Coordination Sequence:
#
# PCOD9270080 Si02
#       7
#     8   8   8   8   8   8   8
#     4   9  20  36  54  78 107 140 177 217 263 316
#     4  10  20  35  55  80 106 138 180 222 268 318
#     4   9  20  35  53  79 109 140 179 219 266 323
#     4  10  21  36  54  79 111 142 175 219 269 320
#     4   9  19  38  57  75 106 143 180 221 265 317
#     4   9  18  35  53  74 107 144 175 215 267 321
#     4  10  20  35  56  81 106 139 179 225 269 315
#
# _framework density 19.461293999999999
#
# number of rings (size 3 to 8) (size 9 to 14) (size 15 to 20)
#    0.000    2.571    0.000    0.857    0.000    9.714 
#    0.000   15.714    0.000    0.000    0.000    0.000 
#    0.000    0.000    0.000    0.000    0.000    0.000 
#
# Total GULP energy -155940.843498 kJ/mol
# GULP energy per Si atom -5569.315839 kJ/mol
# Density = 1.941700 g / cm^3
# Si number density = 19.461294 Si / 1000 Ang^3
#
#
#
# Elastic Constant Matrix: (Units=GPa)
#
#
# Indices 1 2 3 4 5 6 
#
# 1 33.3676 12.7812 36.4533 0.0002 2.8219 -0.0002
# 2 12.7812 24.9134 15.3556 0.0001 4.7722 -0.0001
# 3 36.4533 15.3556 128.7401 0.0001 1.2238 -0.0001
# 4 0.0002 0.0001 0.0001 117.7942 -0.0002 -85.8545
# 5 2.8219 4.7722 1.2238 -0.0002 35.3671 0.0002
# 6 -0.0002 -0.0001 -0.0001 -85.8545 0.0002 100.5534
#
#
#
# Elastic Compliance Matrix: (Units=1/GPa)
#
#
# Indices 1 2 3 4 5 6 
#
# 1 0.050134 -0.018088 -0.012027 0.000000 -0.001143 0.000000
# 2 -0.018088 0.051017 -0.000912 0.000000 -0.005409 0.000000
# 3 -0.012027 -0.000912 0.011275 0.000000 0.000693 0.000000
# 4 0.000000 0.000000 0.000000 0.022477 0.000000 0.019191
# 5 -0.001143 -0.005409 0.000693 0.000000 0.029072 0.000000
# 6 0.000000 0.000000 0.000000 0.019191 0.000000 0.026331
#
#
# Mechanical properties :
#
#
# Convention : Reuss Voigt Hill
#
# Bulk Modulus (GPa) = 19.85237 35.13347 27.49292
# Shear Modulus (GPa) = 18.57699 58.90501 38.74100
#
# Velocity S-wave (km/s) = 3.09295 5.50758 4.46653
# Velocity P-wave (km/s) = 4.79356 7.65094 6.38416
#
# Compressibility (1/GPa) = 0.05037182
#
# Stress axis : x y z
#
# Youngs Moduli (GPa) = 19.94666 19.60142 88.68893
#
# Poissons Ratio (x) = 0.35454 1.06669
# Poissons Ratio (y) = 0.36079 0.08089
# Poissons Ratio (z) = 0.23990 0.01788
#
# Static dielectric constant tensor:
#      x y z
#    x 1.689630 0.000000 0.000540 
#    y 0.000000 1.696890 0.000000 
#    z 0.000540 0.000000 1.736640 
# 
# From -- ./inp_files/264203.got.cif
#   From: 2010.05.17/outbox.cif.g08.bks.cpg/sg15_133_cif.got.tgz:264203.got - 2010.06.03 18:47:42.
