data_PCOD9270533
_publ_section_title
;
Structure prediction by ZEFSAII (Michael W. Deem and Ramdas Pophale) SiO2 
 PCOD9270533
Probable space group: C 2/C
;
_chemical_formula_sum "Si O2"
_cell_formula_units_Z 52
_cell_length_a 22.531669
_cell_length_b 20.583580
_cell_length_c 5.451792
_cell_angle_alpha 90.000000
_cell_angle_beta 71.099457
_cell_angle_gamma 90.000000
_cell_volume 2392.117260
_symmetry_space_group_name_H-M "C 2/C"
_symmetry_group_IT_number 15
_symmetry_cell_setting 'monoclinic'
loop_
_space_group_symop_operation_xyz
x,y,z
-x,y,1/2-z
-x,-y,-z
x,-y,1/2+z
1/2+x,1/2+y,z
1/2-x,1/2+y,1/2-z
1/2-x,1/2-y,-z
1/2+x,1/2-y,1/2+z
loop_
_atom_site_type_symbol
_atom_site_label
_atom_site_fract_x
_atom_site_fract_y
_atom_site_fract_z
Si Si1 0.319567 0.230530 0.969542
Si Si2 0.073207 0.603008 0.158475
Si Si3 0.500000 0.312572 0.750000
Si Si4 0.213143 0.036338 0.146634
Si Si5 0.645778 0.918112 0.072552
Si Si6 0.616612 0.651062 0.354113
Si Si7 0.411607 0.745967 0.753476
O O1 0.330636 0.155530 0.919861
O O2 0.361477 0.275690 0.741553
O O3 0.250000 0.250000 0.000000
O O4 0.344712 0.246520 0.205566
O O5 0.105559 0.582401 0.373996
O O6 0.078196 0.682384 0.141945
O O7 0.000000 0.585860 0.250000
O O8 0.107022 0.570676 0.875995
O O9 0.444266 0.358121 0.728546
O O10 0.529534 0.263255 0.510816
O O11 0.173183 0.102014 0.244744
O O12 0.196474 0.991039 0.400700
O O13 0.288665 0.044235 0.046892
O O14 0.591365 0.670438 0.651803
#
# Coordination Sequence:
#
# PCOD9270533 Si02
#       7
#     8   8   4   8   8   8   8
#     4  10  20  35  60 100 133 169 210 272 335 411
#     4  11  22  37  66 106 143 173 210 258 332 422
#     4  10  22  38  62  96 140 182 212 270 336 406
#     4  12  29  49  71  93 128 180 237 288 337 387
#     4  11  23  42  66  98 139 176 215 275 339 398
#     4  11  22  41  66  96 135 174 223 274 339 403
#     4  10  22  34  62  97 145 179 205 259 344 412
#
# _framework density 21.738064999999999
#
# number of rings (size 3 to 8) (size 9 to 14) (size 15 to 20)
#    0.000    1.231    3.077    2.769    8.615    1.846 
#    0.000    0.769    0.000    9.231    0.000    0.000 
#    0.000    0.000    0.000    0.000    0.000    0.000 
#
# Total GULP energy -144907.248626 kJ/mol
# GULP energy per Si atom -5573.355716 kJ/mol
# Density = 2.168859 g / cm^3
# Si number density = 21.738065 Si / 1000 Ang^3
#
#
#
# Elastic Constant Matrix: (Units=GPa)
#
#
# Indices 1 2 3 4 5 6 
#
# 1 106.2858 3.2577 12.4648 0.0000 -13.7705 0.0000
# 2 3.2577 73.0853 30.5796 0.0000 -10.5265 0.0000
# 3 12.4648 30.5796 105.3697 0.0000 -6.5998 0.0000
# 4 0.0000 0.0000 0.0000 6.1401 0.0000 -10.8374
# 5 -13.7705 -10.5265 -6.5998 0.0000 19.9185 0.0000
# 6 0.0000 0.0000 0.0000 -10.8374 0.0000 17.1595
#
#
#
# Elastic Compliance Matrix: (Units=1/GPa)
#
#
# Indices 1 2 3 4 5 6 
#
# 1 0.010466 0.001056 -0.001079 0.000000 0.007436 0.000000
# 2 0.001056 0.016660 -0.004455 0.000000 0.008058 0.000000
# 3 -0.001079 -0.004455 0.010944 0.000000 0.000526 0.000000
# 4 0.000000 0.000000 0.000000 -1.419504 0.000000 -0.896513
# 5 0.007436 0.008058 0.000526 0.000000 0.059779 0.000000
# 6 0.000000 0.000000 0.000000 -0.896513 0.000000 -0.507932
#
#
# Mechanical properties :
#
#
# Convention : Reuss Voigt Hill
#
# Bulk Modulus (GPa) = 34.34737 41.92722 38.13730
# Shear Modulus (GPa) = -2.76102 24.53953 10.88926
#
# Velocity S-wave (km/s) = -1.12822 3.36352 2.24058
# Velocity P-wave (km/s) = 3.76001 5.86632 4.92704
#
# Compressibility (1/GPa) = 0.02911431
#
# Stress axis : x y z
#
# Youngs Moduli (GPa) = 95.54564 60.02278 91.37507
#
# Poissons Ratio (x) = -0.06338 0.09857
# Poissons Ratio (y) = -0.10089 0.40709
# Poissons Ratio (z) = 0.10307 0.26741
#
# Static dielectric constant tensor:
#      x y z
#    x 1.796470 0.000000 0.191180 
#    y 0.000000 1.876570 0.000000 
#    z 0.191180 0.000000 4.670170 
# 
# From -- ./inp_files/13664.got.cif
#   From: 2010.05.17/outbox.cif.g08.bks.cpg/sg15_7_cif.got.tgz:13664.got - 2010.06.03 18:47:42.
