data_PCOD9270333
_publ_section_title
;
Structure prediction by ZEFSAII (Michael W. Deem and Ramdas Pophale) SiO2 
 PCOD9270333
Probable space group: C 2/C
;
_chemical_formula_sum "Si O2"
_cell_formula_units_Z 52
_cell_length_a 7.285833
_cell_length_b 15.919240
_cell_length_c 19.063675
_cell_angle_alpha 90.000000
_cell_angle_beta 113.366880
_cell_angle_gamma 90.000000
_cell_volume 2029.753510
_symmetry_space_group_name_H-M "C 2/C"
_symmetry_group_IT_number 15
_symmetry_cell_setting 'monoclinic'
loop_
_space_group_symop_operation_xyz
x,y,z
-x,y,1/2-z
-x,-y,-z
x,-y,1/2+z
1/2+x,1/2+y,z
1/2-x,1/2+y,1/2-z
1/2-x,1/2-y,-z
1/2+x,1/2-y,1/2+z
loop_
_atom_site_type_symbol
_atom_site_label
_atom_site_fract_x
_atom_site_fract_y
_atom_site_fract_z
Si Si1 0.821989 0.008758 0.328911
Si Si2 0.036250 0.863152 0.054028
Si Si3 0.030521 0.648817 0.908796
Si Si4 0.000000 0.716724 0.750000
Si Si5 0.167077 0.826647 0.605892
Si Si6 0.606071 0.011510 0.153349
Si Si7 0.398798 0.801571 0.847174
O O1 0.945710 0.934477 0.384103
O O2 0.766765 0.996136 0.239590
O O3 0.611226 0.012602 0.340230
O O4 0.914596 0.100852 0.355794
O O5 0.239594 0.868699 0.038327
O O6 0.053902 0.771524 0.090613
O O7 0.849021 0.867345 0.974219
O O8 0.019949 0.660993 0.822169
O O9 0.949007 0.738903 0.919227
O O10 0.902121 0.565542 0.901868
O O11 0.799324 0.771281 0.722341
O O12 0.392732 0.806934 0.662451
O O13 0.634880 0.105024 0.128914
#
# Coordination Sequence:
#
# PCOD9270333 Si02
#       7
#     8   8   8   4   8   8   8
#     4   9  18  32  57  79 105 143 187 227 259 317
#     4  10  20  37  55  80 114 150 178 216 276 330
#     4  10  20  35  58  81 111 144 181 227 270 325
#     4  10  20  38  56  78 108 146 180 226 288 318
#     4  11  21  35  56  85 109 142 187 225 263 325
#     4   9  17  34  54  81 107 140 183 225 275 315
#     4  10  21  36  57  79 111 145 180 227 273 323
#
# _framework density 25.618876
#
# number of rings (size 3 to 8) (size 9 to 14) (size 15 to 20)
#    0.000    2.154    0.000    5.077    0.000    1.846 
#    0.000    6.923    0.000    0.000    0.000    0.000 
#    0.000    0.000    0.000    0.000    0.000    0.000 
#
# Total GULP energy -145399.467260 kJ/mol
# GULP energy per Si atom -5592.287202 kJ/mol
# Density = 2.556057 g / cm^3
# Si number density = 25.618876 Si / 1000 Ang^3
#
#
#
# Elastic Constant Matrix: (Units=GPa)
#
#
# Indices 1 2 3 4 5 6 
#
# 1 69.6219 14.5284 17.1237 0.0000 28.1230 0.0000
# 2 14.5284 183.9581 33.0231 0.0000 8.6948 0.0000
# 3 17.1237 33.0231 115.1831 0.0000 20.9651 0.0000
# 4 0.0000 0.0000 0.0000 23.3594 0.0000 -5.9296
# 5 28.1230 8.6948 20.9651 0.0000 30.3045 0.0000
# 6 0.0000 0.0000 0.0000 -5.9296 0.0000 20.3633
#
#
#
# Elastic Compliance Matrix: (Units=1/GPa)
#
#
# Indices 1 2 3 4 5 6 
#
# 1 0.023158 -0.000942 0.000789 0.000000 -0.021767 0.000000
# 2 -0.000942 0.005778 -0.001572 0.000000 0.000304 0.000000
# 3 0.000789 -0.001572 0.010372 0.000000 -0.007457 0.000000
# 4 0.000000 0.000000 0.000000 0.046226 0.000000 0.013461
# 5 -0.021767 0.000304 -0.007457 0.000000 0.058270 0.000000
# 6 0.000000 0.000000 0.000000 0.013461 0.000000 0.053028
#
#
# Mechanical properties :
#
#
# Convention : Reuss Voigt Hill
#
# Bulk Modulus (GPa) = 27.88639 55.34594 41.61617
# Shear Modulus (GPa) = 23.55876 35.07797 29.31836
#
# Velocity S-wave (km/s) = 3.03576 3.70432 3.38658
# Velocity P-wave (km/s) = 4.81627 6.32032 5.61885
#
# Compressibility (1/GPa) = 0.03585978
#
# Stress axis : x y z
#
# Youngs Moduli (GPa) = 43.18126 173.06352 96.40883
#
# Poissons Ratio (x) = 0.16299 -0.07608
# Poissons Ratio (y) = 0.04067 0.15154
# Poissons Ratio (z) = -0.03407 0.27203
#
# Static dielectric constant tensor:
#      x y z
#    x 2.129010 0.000000 0.005700 
#    y 0.000000 2.049670 0.000000 
#    z 0.005700 0.000000 1.950360 
# 
# From -- ./inp_files/288908.got.cif
#   From: 2010.05.17/outbox.cif.g08.bks.cpg/sg15_145_cif.got.tgz:288908.got - 2010.06.03 18:47:42.
