data_PCOD9270347
_publ_section_title
;
Structure prediction by ZEFSAII (Michael W. Deem and Ramdas Pophale) SiO2 
 PCOD9270347
Probable space group: C 2/C
;
_chemical_formula_sum "Si O2"
_cell_formula_units_Z 48
_cell_length_a 9.136740
_cell_length_b 10.164174
_cell_length_c 24.966667
_cell_angle_alpha 90.000000
_cell_angle_beta 120.857472
_cell_angle_gamma 90.000000
_cell_volume 1990.383810
_symmetry_space_group_name_H-M "C 2/C"
_symmetry_group_IT_number 15
_symmetry_cell_setting 'monoclinic'
loop_
_space_group_symop_operation_xyz
x,y,z
-x,y,1/2-z
-x,-y,-z
x,-y,1/2+z
1/2+x,1/2+y,z
1/2-x,1/2+y,1/2-z
1/2-x,1/2-y,-z
1/2+x,1/2-y,1/2+z
loop_
_atom_site_type_symbol
_atom_site_label
_atom_site_fract_x
_atom_site_fract_y
_atom_site_fract_z
Si Si1 0.488647 0.668082 0.311046
Si Si2 0.797481 0.340232 0.581959
Si Si3 0.338258 0.244436 0.388595
Si Si4 0.694829 0.005045 0.806524
Si Si5 0.026141 0.709416 0.585252
Si Si6 0.687891 0.582730 0.508785
O O1 0.500000 0.690557 0.250000
O O2 0.687884 0.635991 0.361328
O O3 0.332497 0.570822 0.295164
O O4 0.454290 0.790021 0.346665
O O5 0.815622 0.426661 0.639154
O O6 0.697718 0.211882 0.583635
O O7 0.682327 0.429596 0.520802
O O8 0.978760 0.310372 0.591183
O O9 0.277040 0.353294 0.334018
O O10 0.338077 0.325432 0.443780
O O11 0.500000 0.009612 0.750000
O O12 0.888167 0.609786 0.536278
O O13 0.940681 0.854503 0.557550
#
# Coordination Sequence:
#
# PCOD9270347 Si02
#       6
#     8   8   8   8   8   8
#     4  10  20  37  58  79 109 145 182 227 279 329
#     4  10  20  35  58  83 110 148 187 227 280 334
#     4  10  21  36  57  84 112 145 185 229 277 334
#     4  10  21  37  56  79 109 143 182 230 280 331
#     4   9  19  36  57  83 115 149 187 232 277 329
#     4   9  19  37  56  80 117 151 183 230 280 326
#
# _framework density 24.115950999999999
#
# number of rings (size 3 to 8) (size 9 to 14) (size 15 to 20)
#    0.000    2.333    0.000    2.000    0.000    2.000 
#    0.000   15.000    0.000    0.000    0.000    0.000 
#    0.000    0.000    0.000    0.000    0.000    0.000 
#
# Total GULP energy -133980.397708 kJ/mol
# GULP energy per Si atom -5582.516571 kJ/mol
# Density = 2.406106 g / cm^3
# Si number density = 24.115951 Si / 1000 Ang^3
#
#
#
# Elastic Constant Matrix: (Units=GPa)
#
#
# Indices 1 2 3 4 5 6 
#
# 1 165.2506 38.6714 39.4472 0.0000 6.6207 0.0000
# 2 38.6714 51.9435 15.8097 0.0000 13.3072 0.0000
# 3 39.4472 15.8097 95.2604 0.0000 11.4879 0.0000
# 4 0.0000 0.0000 0.0000 15.4661 0.0000 10.8798
# 5 6.6207 13.3072 11.4879 0.0000 27.5914 0.0000
# 6 0.0000 0.0000 0.0000 10.8798 0.0000 32.4046
#
#
#
# Elastic Compliance Matrix: (Units=1/GPa)
#
#
# Indices 1 2 3 4 5 6 
#
# 1 0.007894 -0.005572 -0.002569 0.000000 0.001863 0.000000
# 2 -0.005572 0.026476 -0.000745 0.000000 -0.011122 0.000000
# 3 -0.002569 -0.000745 0.012179 0.000000 -0.004095 0.000000
# 4 0.000000 0.000000 0.000000 0.084651 0.000000 -0.028422
# 5 0.001863 -0.011122 -0.004095 0.000000 0.042865 0.000000
# 6 0.000000 0.000000 0.000000 -0.028422 0.000000 0.040402
#
#
# Mechanical properties :
#
#
# Convention : Reuss Voigt Hill
#
# Bulk Modulus (GPa) = 34.75083 55.59012 45.17048
# Shear Modulus (GPa) = 20.67543 29.66083 25.16813
#
# Velocity S-wave (km/s) = 2.93120 3.51083 3.23403
# Velocity P-wave (km/s) = 5.08892 6.28775 5.71983
#
# Compressibility (1/GPa) = 0.02877629
#
# Stress axis : x y z
#
# Youngs Moduli (GPa) = 126.67839 37.76940 82.11019
#
# Poissons Ratio (x) = 0.21047 0.21092
# Poissons Ratio (y) = 0.70591 0.06120
# Poissons Ratio (z) = 0.32540 0.02815
#
# Static dielectric constant tensor:
#      x y z
#    x 1.981970 0.000000 -0.020230 
#    y 0.000000 1.988050 0.000000 
#    z -0.020230 0.000000 1.959720 
# 
# From -- ./inp_files/263161.got.cif
#   From: 2010.05.17/outbox.cif.g08.bks.cpg/sg15_132_cif.got.tgz:263161.got - 2010.06.03 18:47:42.
