data_PCOD9270889
_publ_section_title
;
Structure prediction by ZEFSAII (Michael W. Deem and Ramdas Pophale) SiO2 
 PCOD9270889
Probable space group: C 2/C
;
_chemical_formula_sum "Si O2"
_cell_formula_units_Z 64
_cell_length_a 26.025009
_cell_length_b 12.685205
_cell_length_c 9.981470
_cell_angle_alpha 90.000000
_cell_angle_beta 95.428883
_cell_angle_gamma 90.000000
_cell_volume 3280.427392
_symmetry_space_group_name_H-M "C 2/C"
_symmetry_group_IT_number 15
_symmetry_cell_setting 'monoclinic'
loop_
_space_group_symop_operation_xyz
x,y,z
-x,y,1/2-z
-x,-y,-z
x,-y,1/2+z
1/2+x,1/2+y,z
1/2-x,1/2+y,1/2-z
1/2-x,1/2-y,-z
1/2+x,1/2-y,1/2+z
loop_
_atom_site_type_symbol
_atom_site_label
_atom_site_fract_x
_atom_site_fract_y
_atom_site_fract_z
Si Si1 0.699865 0.897702 0.036005
Si Si2 0.144293 0.705231 0.300099
Si Si3 0.827243 0.903827 0.350000
Si Si4 0.283398 0.208921 0.680386
Si Si5 0.296799 0.447166 0.618877
Si Si6 0.970615 0.619436 0.617263
Si Si7 0.961057 0.375398 0.629056
Si Si8 0.140593 0.608086 0.015127
O O1 0.693055 0.818029 0.909112
O O2 0.654727 0.984757 0.003011
O O3 0.694662 0.831301 0.171579
O O4 0.751958 0.969526 0.060990
O O5 0.141693 0.817820 0.226775
O O6 0.092689 0.683821 0.371000
O O7 0.146991 0.627093 0.174483
O O8 0.770730 0.850194 0.346122
O O9 0.836904 0.931689 0.506523
O O10 0.822864 0.004935 0.256272
O O11 0.275886 0.333269 0.658994
O O12 0.319822 0.169471 0.569820
O O13 0.955882 0.500072 0.659464
O O14 0.915456 0.651013 0.542864
O O15 0.000000 0.671052 0.750000
O O16 0.011740 0.624189 0.507778
O O17 0.000000 0.331068 0.750000
#
# Coordination Sequence:
#
# PCOD9270889 Si02
#       8
#     8   8   8   8   8   8   8   8
#     4  11  25  35  62  87 122 167 210 252 301 370
#     4  12  24  38  60  92 122 164 211 247 315 372
#     4  11  25  40  61  86 122 164 210 260 306 366
#     4  11  24  40  60  85 123 165 212 257 302 365
#     4  11  24  43  58  85 125 166 211 260 303 356
#     4  10  22  35  56  87 124 163 199 244 303 370
#     4  10  20  36  54  84 124 158 195 247 300 370
#     4  12  21  38  59  91 127 166 201 250 311 365
#
# _framework density 19.509651999999999
#
# number of rings (size 3 to 8) (size 9 to 14) (size 15 to 20)
#    0.000    1.000    5.000    1.875    7.000    1.000 
#    0.000    0.000    0.000    0.000    0.000    4.375 
#    0.000    0.000    0.000    0.000    0.000    0.000 
#
# Total GULP energy -178551.656166 kJ/mol
# GULP energy per Si atom -5579.739255 kJ/mol
# Density = 1.946525 g / cm^3
# Si number density = 19.509652 Si / 1000 Ang^3
#
#
#
# Elastic Constant Matrix: (Units=GPa)
#
#
# Indices 1 2 3 4 5 6 
#
# 1 63.8397 5.2493 15.0900 0.0000 -11.5049 0.0000
# 2 5.2493 60.7390 27.3849 0.0000 -10.6423 0.0000
# 3 15.0900 27.3849 100.4630 0.0000 2.3321 0.0000
# 4 0.0000 0.0000 0.0000 28.3677 0.0000 -2.6778
# 5 -11.5049 -10.6423 2.3321 0.0000 25.6885 0.0000
# 6 0.0000 0.0000 0.0000 -2.6778 0.0000 5.9343
#
#
#
# Elastic Compliance Matrix: (Units=1/GPa)
#
#
# Indices 1 2 3 4 5 6 
#
# 1 0.017939 0.001515 -0.003315 0.000000 0.008963 0.000000
# 2 0.001515 0.020827 -0.006134 0.000000 0.009863 0.000000
# 3 -0.003315 -0.006134 0.012243 0.000000 -0.005137 0.000000
# 4 0.000000 0.000000 0.000000 0.036820 0.000000 0.016615
# 5 0.008963 0.009863 -0.005137 0.000000 0.047495 0.000000
# 6 0.000000 0.000000 0.000000 0.016615 0.000000 0.176010
#
#
# Mechanical properties :
#
#
# Convention : Reuss Voigt Hill
#
# Bulk Modulus (GPa) = 28.45769 35.61002 32.03385
# Shear Modulus (GPa) = 14.75298 23.81924 19.28611
#
# Velocity S-wave (km/s) = 2.75287 3.49792 3.14752
# Velocity P-wave (km/s) = 4.97218 5.88269 5.44650
#
# Compressibility (1/GPa) = 0.03513988
#
# Stress axis : x y z
#
# Youngs Moduli (GPa) = 55.74589 48.01566 81.67871
#
# Poissons Ratio (x) = -0.07274 0.27080
# Poissons Ratio (y) = -0.08445 0.50098
# Poissons Ratio (z) = 0.18482 0.29451
#
# Static dielectric constant tensor:
#      x y z
#    x 1.731240 0.000000 0.044630 
#    y 0.000000 1.725330 0.000000 
#    z 0.044630 0.000000 1.756700 
# 
# From -- ./inp_files/69383.got.cif
#   From: 2010.05.17/outbox.cif.g08.bks.cpg/sg15_35_cif.got.tgz:69383.got - 2010.06.03 18:47:42.
