data_PCOD9270762
_publ_section_title
;
Structure prediction by ZEFSAII (Michael W. Deem and Ramdas Pophale) SiO2 
 PCOD9270762
Probable space group: C 2/C
;
_chemical_formula_sum "Si O2"
_cell_formula_units_Z 56
_cell_length_a 12.618003
_cell_length_b 16.059234
_cell_length_c 14.598451
_cell_angle_alpha 90.000000
_cell_angle_beta 78.994200
_cell_angle_gamma 90.000000
_cell_volume 2903.756919
_symmetry_space_group_name_H-M "C 2/C"
_symmetry_group_IT_number 15
_symmetry_cell_setting 'monoclinic'
loop_
_space_group_symop_operation_xyz
x,y,z
-x,y,1/2-z
-x,-y,-z
x,-y,1/2+z
1/2+x,1/2+y,z
1/2-x,1/2+y,1/2-z
1/2-x,1/2-y,-z
1/2+x,1/2-y,1/2+z
loop_
_atom_site_type_symbol
_atom_site_label
_atom_site_fract_x
_atom_site_fract_y
_atom_site_fract_z
Si Si1 0.385041 0.951080 0.511606
Si Si2 0.358142 0.237729 0.042288
Si Si3 0.118374 0.486368 0.188232
Si Si4 0.795332 0.335778 0.878870
Si Si5 0.622434 0.294761 0.259984
Si Si6 0.596074 0.759716 0.463660
Si Si7 0.717743 0.088109 0.852087
O O1 0.373819 0.861554 0.562179
O O2 0.500000 0.000000 0.500000
O O3 0.378589 0.931904 0.404394
O O4 0.299100 0.016143 0.569215
O O5 0.360717 0.294331 0.133627
O O6 0.250000 0.250000 0.000000
O O7 0.470733 0.258141 0.972135
O O8 0.170584 0.571413 0.144908
O O9 0.181599 0.448136 0.261571
O O10 0.000000 0.501521 0.250000
O O11 0.809458 0.284727 0.784062
O O12 0.675245 0.318389 0.935281
O O13 0.876105 0.294093 0.939489
O O14 0.500000 0.281749 0.250000
O O15 0.667810 0.370584 0.190580
O O16 0.639470 0.835549 0.393898
#
# Coordination Sequence:
#
# PCOD9270762 Si02
#       7
#     8   8   8   8   8   8   8
#     4  12  22  39  62  90 129 165 208 269 322 373
#     4  12  24  41  63  95 132 171 206 263 339 393
#     4  12  21  33  60  94 124 157 205 263 322 373
#     4  10  20  35  64  91 115 163 218 259 308 368
#     4  11  23  39  63  89 124 166 220 259 307 387
#     4  10  20  39  61  90 125 161 210 270 311 374
#     4  11  23  38  59  95 125 157 212 272 316 369
#
# _framework density 19.285361000000002
#
# number of rings (size 3 to 8) (size 9 to 14) (size 15 to 20)
#    0.000    0.857    5.714    2.143    0.000    0.000 
#    0.000    3.571    0.000    3.429    0.000    0.000 
#    0.000    0.000    0.000    0.000    0.000    0.000 
#
# Total GULP energy -156161.378875 kJ/mol
# GULP energy per Si atom -5577.192103 kJ/mol
# Density = 1.924147 g / cm^3
# Si number density = 19.285361 Si / 1000 Ang^3
#
#
#
# Elastic Constant Matrix: (Units=GPa)
#
#
# Indices 1 2 3 4 5 6 
#
# 1 94.9415 6.6574 26.0413 0.0000 -11.3173 0.0000
# 2 6.6574 49.1534 12.2153 0.0000 -18.1704 0.0000
# 3 26.0413 12.2153 112.0337 0.0000 -1.6095 0.0000
# 4 0.0000 0.0000 0.0000 16.0324 0.0000 -3.5992
# 5 -11.3173 -18.1704 -1.6095 0.0000 28.8331 0.0000
# 6 0.0000 0.0000 0.0000 -3.5992 0.0000 17.9919
#
#
#
# Elastic Compliance Matrix: (Units=1/GPa)
#
#
# Indices 1 2 3 4 5 6 
#
# 1 0.011837 0.000976 -0.002784 0.000000 0.005106 0.000000
# 2 0.000976 0.027417 -0.002965 0.000000 0.017495 0.000000
# 3 -0.002784 -0.002965 0.009862 0.000000 -0.002411 0.000000
# 4 0.000000 0.000000 0.000000 0.065307 0.000000 0.013064
# 5 0.005106 0.017495 -0.002411 0.000000 0.047577 0.000000
# 6 0.000000 0.000000 0.000000 0.013064 0.000000 0.058194
#
#
# Mechanical properties :
#
#
# Convention : Reuss Voigt Hill
#
# Bulk Modulus (GPa) = 25.27239 38.43960 31.85600
# Shear Modulus (GPa) = 20.58217 26.65246 23.61732
#
# Velocity S-wave (km/s) = 3.27041 3.72157 3.50326
# Velocity P-wave (km/s) = 5.23390 6.20016 5.73741
#
# Compressibility (1/GPa) = 0.03956888
#
# Stress axis : x y z
#
# Youngs Moduli (GPa) = 84.48296 36.47433 101.40204
#
# Poissons Ratio (x) = -0.03561 0.28235
# Poissons Ratio (y) = -0.08248 0.30064
# Poissons Ratio (z) = 0.23524 0.10814
#
# Static dielectric constant tensor:
#      x y z
#    x 1.757110 0.000000 0.011640 
#    y 0.000000 1.691410 0.000000 
#    z 0.011640 0.000000 1.767390 
# 
# From -- ./inp_files/145577.got.cif
#   From: 2010.05.17/outbox.cif.g08.bks.cpg/sg15_73_cif.got.tgz:145577.got - 2010.06.03 18:47:42.
