data_PCOD9270011
_publ_section_title
;
Structure prediction by ZEFSAII (Michael W. Deem and Ramdas Pophale) SiO2 
 PCOD9270011
Probable space group: C 2/C
;
_chemical_formula_sum "Si O2"
_cell_formula_units_Z 52
_cell_length_a 18.881626
_cell_length_b 23.293938
_cell_length_c 15.543868
_cell_angle_alpha 90.000000
_cell_angle_beta 21.960538
_cell_angle_gamma 90.000000
_cell_volume 2556.676314
_symmetry_space_group_name_H-M "C 2/C"
_symmetry_group_IT_number 15
_symmetry_cell_setting 'monoclinic'
loop_
_space_group_symop_operation_xyz
x,y,z
-x,y,1/2-z
-x,-y,-z
x,-y,1/2+z
1/2+x,1/2+y,z
1/2-x,1/2+y,1/2-z
1/2-x,1/2-y,-z
1/2+x,1/2-y,1/2+z
loop_
_atom_site_type_symbol
_atom_site_label
_atom_site_fract_x
_atom_site_fract_y
_atom_site_fract_z
Si Si1 0.303361 0.579823 0.222061
Si Si2 0.952423 0.825112 0.446288
Si Si3 0.000000 0.911034 0.250000
Si Si4 0.335726 0.008072 0.371429
Si Si5 0.457426 0.088732 0.501467
Si Si6 0.107894 0.304452 0.537115
Si Si7 0.394990 0.465514 0.016835
O O1 0.384736 0.530797 0.064700
O O2 0.083041 0.581129 0.446263
O O3 0.378098 0.642981 0.114309
O O4 0.394244 0.559071 0.208938
O O5 0.899377 0.868794 0.430230
O O6 0.887658 0.760851 0.500938
O O7 0.178196 0.823564 0.189326
O O8 0.828569 0.949748 0.405274
O O9 0.500000 0.987096 0.250000
O O10 0.455639 0.045530 0.166805
O O11 0.205352 0.965450 0.462345
O O12 0.471830 0.151897 0.444393
O O13 0.244348 0.070752 0.764039
O O14 0.000000 0.306957 0.750000
#
# Coordination Sequence:
#
# PCOD9270011 Si02
#       7
#     8   8   4   8   8   8   8
#     4  10  20  35  54  72 101 142 187 221 272 314
#     4  12  22  36  50  75 114 153 191 228 257 318
#     4  12  22  36  50  76 116 148 186 228 264 314
#     4  11  23  34  55  78 106 139 185 229 279 327
#     4  11  20  37  54  76 105 149 190 222 270 317
#     4  12  24  34  51  78 113 155 197 226 259 310
#     4  10  21  37  55  76 102 143 186 228 275 327
#
# _framework density 20.338906999999999
#
# number of rings (size 3 to 8) (size 9 to 14) (size 15 to 20)
#    0.000    0.923    5.385    5.538    0.000    1.231 
#    0.000    0.000    0.000    0.000    0.000    0.000 
#    0.000    1.231    0.308    0.308    0.308    0.000 
#
# Total GULP energy -145229.538649 kJ/mol
# GULP energy per Si atom -5585.751486 kJ/mol
# Density = 2.029261 g / cm^3
# Si number density = 20.338907 Si / 1000 Ang^3
#
#
#
# Elastic Constant Matrix: (Units=GPa)
#
#
# Indices 1 2 3 4 5 6 
#
# 1 110.0791 41.9962 16.8802 -0.0067 -34.0023 0.0068
# 2 41.9962 108.7672 19.0660 0.0168 0.9838 -0.0210
# 3 16.8802 19.0660 70.8332 -0.1477 -21.4790 0.0377
# 4 -0.0067 0.0168 -0.1477 28.4120 0.0336 -1.6562
# 5 -34.0023 0.9838 -21.4790 0.0336 33.9953 -0.0207
# 6 0.0068 -0.0210 0.0377 -1.6562 -0.0207 31.2806
#
#
#
# Elastic Compliance Matrix: (Units=1/GPa)
#
#
# Indices 1 2 3 4 5 6 
#
# 1 0.017786 -0.007773 0.004102 0.000006 0.020606 0.000000
# 2 -0.007773 0.013204 -0.005164 -0.000023 -0.011419 0.000008
# 3 0.004102 -0.005164 0.019569 0.000085 0.016616 -0.000012
# 4 0.000006 -0.000023 0.000085 0.035306 0.000027 0.001869
# 5 0.020606 -0.011419 0.016616 0.000027 0.060855 0.000009
# 6 0.000000 0.000008 -0.000012 0.001869 0.000009 0.032068
#
#
# Mechanical properties :
#
#
# Convention : Reuss Voigt Hill
#
# Bulk Modulus (GPa) = 30.40598 49.50714 39.95656
# Shear Modulus (GPa) = 24.10570 32.85341 28.47955
#
# Velocity S-wave (km/s) = 3.44641 4.02344 3.74605
# Velocity P-wave (km/s) = 5.55150 6.78071 6.19666
#
# Compressibility (1/GPa) = 0.03288826
#
# Stress axis : x y z
#
# Youngs Moduli (GPa) = 56.22502 75.73656 51.10109
#
# Poissons Ratio (x) = 0.58868 -0.20962
# Poissons Ratio (y) = 0.43702 0.26391
# Poissons Ratio (z) = -0.23064 0.39114
#
# Static dielectric constant tensor:
#      x y z
#    x 1.840020 -0.000050 -0.019910 
#    y -0.000050 1.733650 0.000120 
#    z -0.019910 0.000120 1.761020 
# 
# From -- ./inp_files/216808.got.cif
#   From: 2010.05.17/outbox.cif.g08.bks.cpg/sg15_109_cif.got.tgz:216808.got - 2010.06.03 18:47:42.
