data_PCOD9270279
_publ_section_title
;
Structure prediction by ZEFSAII (Michael W. Deem and Ramdas Pophale) SiO2 
 PCOD9270279
Probable space group: C 2/C
;
_chemical_formula_sum "Si O2"
_cell_formula_units_Z 56
_cell_length_a 20.563372
_cell_length_b 12.639602
_cell_length_c 11.184305
_cell_angle_alpha 90.000000
_cell_angle_beta 71.192895
_cell_angle_gamma 90.000000
_cell_volume 2751.740624
_symmetry_space_group_name_H-M "C 2/C"
_symmetry_group_IT_number 15
_symmetry_cell_setting 'monoclinic'
loop_
_space_group_symop_operation_xyz
x,y,z
-x,y,1/2-z
-x,-y,-z
x,-y,1/2+z
1/2+x,1/2+y,z
1/2-x,1/2+y,1/2-z
1/2-x,1/2-y,-z
1/2+x,1/2-y,1/2+z
loop_
_atom_site_type_symbol
_atom_site_label
_atom_site_fract_x
_atom_site_fract_y
_atom_site_fract_z
Si Si1 0.703405 0.214878 0.198797
Si Si2 0.551915 0.216751 0.330061
Si Si3 0.593062 0.973822 0.359657
Si Si4 0.021485 0.298135 0.102288
Si Si5 0.213543 0.404382 0.443834
Si Si6 0.228660 0.881207 0.615507
Si Si7 0.338382 0.175252 0.869201
O O1 0.627145 0.262987 0.255340
O O2 0.761453 0.304243 0.148050
O O3 0.721188 0.148957 0.305683
O O4 0.707615 0.139308 0.081200
O O5 0.500000 0.226990 0.250000
O O6 0.519840 0.260021 0.474267
O O7 0.570493 0.091829 0.339929
O O8 0.525393 0.900833 0.393065
O O9 0.639818 0.953140 0.449188
O O10 0.641360 0.915933 0.233855
O O11 0.101058 0.325171 0.070678
O O12 0.000000 0.258099 0.250000
O O13 0.272395 0.492818 0.389578
O O14 0.265620 0.853124 0.468865
O O15 0.166650 0.798420 0.668488
#
# Coordination Sequence:
#
# PCOD9270279 Si02
#       7
#     8   8   8   8   8   8   8
#     4  11  23  39  57  88 123 158 199 244 301 361
#     4  12  22  37  60  88 121 162 198 241 311 368
#     4  11  20  35  58  84 122 151 189 250 294 363
#     4  10  21  35  53  85 120 151 197 245 297 354
#     4  11  23  38  59  90 122 158 197 246 305 353
#     4  11  21  37  61  84 118 158 200 248 289 355
#     4  10  20  35  57  86 114 154 200 236 292 356
#
# _framework density 20.350754999999999
#
# number of rings (size 3 to 8) (size 9 to 14) (size 15 to 20)
#    0.000    1.143    4.286    3.429    0.000    1.143 
#    0.000    0.000    0.000    2.571    0.000    7.000 
#    0.000    0.000    0.000    0.000    0.000    0.000 
#
# Total GULP energy -156006.984767 kJ/mol
# GULP energy per Si atom -5571.678027 kJ/mol
# Density = 2.030444 g / cm^3
# Si number density = 20.350755 Si / 1000 Ang^3
#
#
#
# Elastic Constant Matrix: (Units=GPa)
#
#
# Indices 1 2 3 4 5 6 
#
# 1 82.1233 5.9928 8.7864 0.0000 9.0355 0.0000
# 2 5.9928 54.5716 14.5160 0.0000 0.8527 0.0000
# 3 8.7864 14.5160 103.0620 0.0000 8.8919 0.0000
# 4 0.0000 0.0000 0.0000 7.9791 0.0000 3.9681
# 5 9.0355 0.8527 8.8919 0.0000 29.5280 0.0000
# 6 0.0000 0.0000 0.0000 3.9681 0.0000 21.6971
#
#
#
# Elastic Compliance Matrix: (Units=1/GPa)
#
#
# Indices 1 2 3 4 5 6 
#
# 1 0.012732 -0.001181 -0.000602 0.000000 -0.003681 0.000000
# 2 -0.001181 0.019149 -0.002649 0.000000 0.000606 0.000000
# 3 -0.000602 -0.002649 0.010374 0.000000 -0.002864 0.000000
# 4 0.000000 0.000000 0.000000 0.137866 0.000000 -0.025214
# 5 -0.003681 0.000606 -0.002864 0.000000 0.035837 0.000000
# 6 0.000000 0.000000 0.000000 -0.025214 0.000000 0.050700
#
#
# Mechanical properties :
#
#
# Convention : Reuss Voigt Hill
#
# Bulk Modulus (GPa) = 29.94560 33.14969 31.54765
# Shear Modulus (GPa) = 17.44266 25.87161 21.65714
#
# Velocity S-wave (km/s) = 2.93081 3.56938 3.26574
# Velocity P-wave (km/s) = 5.11855 5.77164 5.45487
#
# Compressibility (1/GPa) = 0.03339389
#
# Stress axis : x y z
#
# Youngs Moduli (GPa) = 78.54036 52.22121 96.39189
#
# Poissons Ratio (x) = 0.06166 0.05799
# Poissons Ratio (y) = 0.09273 0.25532
# Poissons Ratio (z) = 0.04725 0.13832
#
# Static dielectric constant tensor:
#      x y z
#    x 1.750920 0.000000 0.002320 
#    y 0.000000 1.744120 0.000000 
#    z 0.002320 0.000000 1.815070 
# 
# From -- ./inp_files/111570.got.cif
#   From: 2010.05.17/outbox.cif.g08.bks.cpg/sg15_56_cif.got.tgz:111570.got - 2010.06.03 18:47:42.
