data_PCOD9270364
_publ_section_title
;
Structure prediction by ZEFSAII (Michael W. Deem and Ramdas Pophale) SiO2 
 PCOD9270364
Probable space group: C 2/C
;
_chemical_formula_sum "Si O2"
_cell_formula_units_Z 48
_cell_length_a 14.162503
_cell_length_b 12.123871
_cell_length_c 12.705564
_cell_angle_alpha 90.000000
_cell_angle_beta 58.785071
_cell_angle_gamma 90.000000
_cell_volume 1865.768763
_symmetry_space_group_name_H-M "C 2/C"
_symmetry_group_IT_number 15
_symmetry_cell_setting 'monoclinic'
loop_
_space_group_symop_operation_xyz
x,y,z
-x,y,1/2-z
-x,-y,-z
x,-y,1/2+z
1/2+x,1/2+y,z
1/2-x,1/2+y,1/2-z
1/2-x,1/2-y,-z
1/2+x,1/2-y,1/2+z
loop_
_atom_site_type_symbol
_atom_site_label
_atom_site_fract_x
_atom_site_fract_y
_atom_site_fract_z
Si Si1 0.056237 0.126223 0.606367
Si Si2 0.313416 0.021582 0.202823
Si Si3 0.500000 0.917032 0.750000
Si Si4 0.803176 0.401054 0.006088
Si Si5 0.430117 0.403569 0.630107
Si Si6 0.675671 0.151038 0.501872
Si Si7 0.500000 0.238902 0.750000
O O1 0.185930 0.148873 0.546157
O O2 0.031946 0.158185 0.498558
O O3 0.000000 0.159157 0.750000
O O4 0.017969 0.996701 0.614778
O O5 0.413455 0.137636 0.383105
O O6 0.188979 0.037913 0.316483
O O7 0.335024 0.129365 0.116163
O O8 0.317884 0.915713 0.123121
O O9 0.716318 0.030430 0.513043
O O10 0.588067 0.978768 0.772563
O O11 0.418838 0.319091 0.732293
O O12 0.750000 0.250000 0.500000
O O13 0.561870 0.171138 0.626183
#
# Coordination Sequence:
#
# PCOD9270364 Si02
#       7
#     8   8   4   8   8   8   4
#     4  11  19  35  58  90 120 148 194 247 306 341
#     4  10  21  36  56  87 116 159 193 243 300 347
#     4  12  21  38  56  82 125 158 192 240 306 358
#     4  10  21  35  56  91 115 154 196 240 292 355
#     4  11  20  33  60  86 118 154 187 252 298 344
#     4  10  20  35  58  85 115 148 197 240 287 343
#     4  12  19  38  62  88 115 150 200 240 292 350
#
# _framework density 25.726662000000001
#
# number of rings (size 3 to 8) (size 9 to 14) (size 15 to 20)
#    1.000    0.333    5.833    2.000    0.000    0.000 
#    0.000    0.000    1.833    1.000    0.000    0.000 
#    0.000    0.000    0.000    0.000    0.000    0.000 
#
# Total GULP energy -133955.825909 kJ/mol
# GULP energy per Si atom -5581.492746 kJ/mol
# Density = 2.566811 g / cm^3
# Si number density = 25.726662 Si / 1000 Ang^3
#
#
#
# Elastic Constant Matrix: (Units=GPa)
#
#
# Indices 1 2 3 4 5 6 
#
# 1 151.4555 23.0290 51.3276 0.0000 -6.8140 0.0000
# 2 23.0290 59.6623 13.4297 0.0000 -2.6784 0.0000
# 3 51.3276 13.4297 160.4636 0.0000 0.1385 0.0000
# 4 0.0000 0.0000 0.0000 46.3411 0.0000 -7.7658
# 5 -6.8140 -2.6784 0.1385 0.0000 59.4231 0.0000
# 6 0.0000 0.0000 0.0000 -7.7658 0.0000 24.6849
#
#
#
# Elastic Compliance Matrix: (Units=1/GPa)
#
#
# Indices 1 2 3 4 5 6 
#
# 1 0.007786 -0.002455 -0.002286 0.000000 0.000787 0.000000
# 2 -0.002455 0.017893 -0.000713 0.000000 0.000527 0.000000
# 3 -0.002286 -0.000713 0.007023 0.000000 -0.000311 0.000000
# 4 0.000000 0.000000 0.000000 0.022780 0.000000 0.007167
# 5 0.000787 0.000527 -0.000311 0.000000 0.016943 0.000000
# 6 0.000000 0.000000 0.000000 0.007167 0.000000 0.042765
#
#
# Mechanical properties :
#
#
# Convention : Reuss Voigt Hill
#
# Bulk Modulus (GPa) = 45.88327 60.79487 53.33907
# Shear Modulus (GPa) = 37.49181 45.00948 41.25064
#
# Velocity S-wave (km/s) = 3.82162 4.18727 4.00862
# Velocity P-wave (km/s) = 6.11119 6.86003 6.49641
#
# Compressibility (1/GPa) = 0.02179443
#
# Stress axis : x y z
#
# Youngs Moduli (GPa) = 128.43579 55.88833 142.38992
#
# Poissons Ratio (x) = 0.13723 0.32546
# Poissons Ratio (y) = 0.31537 0.10146
# Poissons Ratio (z) = 0.29356 0.03982
#
# Static dielectric constant tensor:
#      x y z
#    x 1.985110 0.000000 0.027380 
#    y 0.000000 2.088420 0.000000 
#    z 0.027380 0.000000 2.096770 
# 
# From -- ./inp_files/107066.got.cif
#   From: 2010.05.17/outbox.cif.g08.bks.cpg/sg15_54_cif.got.tgz:107066.got - 2010.06.03 18:47:42.
