data_PCOD9270266
_publ_section_title
;
Structure prediction by ZEFSAII (Michael W. Deem and Ramdas Pophale) SiO2 
 PCOD9270266
Probable space group: C 2/C
;
_chemical_formula_sum "Si O2"
_cell_formula_units_Z 56
_cell_length_a 24.067440
_cell_length_b 13.085960
_cell_length_c 8.716711
_cell_angle_alpha 90.000000
_cell_angle_beta 111.647264
_cell_angle_gamma 90.000000
_cell_volume 2551.671001
_symmetry_space_group_name_H-M "C 2/C"
_symmetry_group_IT_number 15
_symmetry_cell_setting 'monoclinic'
loop_
_space_group_symop_operation_xyz
x,y,z
-x,y,1/2-z
-x,-y,-z
x,-y,1/2+z
1/2+x,1/2+y,z
1/2-x,1/2+y,1/2-z
1/2-x,1/2-y,-z
1/2+x,1/2-y,1/2+z
loop_
_atom_site_type_symbol
_atom_site_label
_atom_site_fract_x
_atom_site_fract_y
_atom_site_fract_z
Si Si1 0.527627 0.299619 0.534265
Si Si2 0.547718 0.871939 0.593745
Si Si3 0.000000 0.956988 0.250000
Si Si4 0.206203 0.874343 0.168530
Si Si5 0.770283 0.489747 0.966117
Si Si6 0.500000 0.043155 0.750000
Si Si7 0.916994 0.135534 0.138290
Si Si8 0.819221 0.652297 0.251311
O O1 0.511370 0.194809 0.435058
O O2 0.526919 0.387687 0.409707
O O3 0.582583 0.295256 0.708006
O O4 0.468460 0.323697 0.576476
O O5 0.541213 0.974752 0.682880
O O6 0.610780 0.821955 0.693864
O O7 0.541696 0.894905 0.407125
O O8 0.944560 0.030365 0.234564
O O9 0.213642 0.759569 0.243910
O O10 0.216277 0.958755 0.312218
O O11 0.250559 0.910206 0.077809
O O12 0.142272 0.876703 0.018439
O O13 0.809425 0.425934 0.883919
O O14 0.799255 0.586989 0.082809
#
# Coordination Sequence:
#
# PCOD9270266 Si02
#       8
#     8   8   4   8   8   4   8   8
#     4  10  20  36  55  87 119 157 195 236 285 376
#     4  11  21  38  62  84 123 157 201 244 307 353
#     4  10  21  33  56  86 130 152 196 239 283 380
#     4  11  23  40  67  90 128 160 208 261 310 367
#     4  10  25  42  64  95 120 160 219 258 310 366
#     4  10  23  37  56  92 120 154 202 251 289 372
#     4  10  20  35  57  84 123 159 186 229 309 352
#     4  11  22  44  66  89 124 166 205 265 313 361
#
# _framework density 21.946403
#
# number of rings (size 3 to 8) (size 9 to 14) (size 15 to 20)
#    0.000    1.714    1.429    4.714    4.000    0.000 
#    0.000    0.000    6.286    0.000    0.000    0.000 
#    0.000    0.000    0.000    0.000    0.000    0.000 
#
# Total GULP energy -156162.970871 kJ/mol
# GULP energy per Si atom -5577.248960 kJ/mol
# Density = 2.189645 g / cm^3
# Si number density = 21.946403 Si / 1000 Ang^3
#
#
#
# Elastic Constant Matrix: (Units=GPa)
#
#
# Indices 1 2 3 4 5 6 
#
# 1 15.5553 1.4079 4.5795 0.0000 7.5306 0.0000
# 2 1.4079 93.2427 20.4602 0.0000 -1.0490 0.0000
# 3 4.5795 20.4602 90.2898 0.0000 2.4120 0.0000
# 4 0.0000 0.0000 0.0000 40.3148 0.0000 6.0995
# 5 7.5306 -1.0490 2.4120 0.0000 30.2786 0.0000
# 6 0.0000 0.0000 0.0000 6.0995 0.0000 21.6055
#
#
#
# Elastic Compliance Matrix: (Units=1/GPa)
#
#
# Indices 1 2 3 4 5 6 
#
# 1 0.074074 -0.000637 -0.003127 0.000000 -0.018196 0.000000
# 2 -0.000637 0.011302 -0.002549 0.000000 0.000753 0.000000
# 3 -0.003127 -0.002549 0.011818 0.000000 -0.000252 0.000000
# 4 0.000000 0.000000 0.000000 0.025912 0.000000 -0.007315
# 5 -0.018196 0.000753 -0.000252 0.000000 0.037598 0.000000
# 6 0.000000 0.000000 0.000000 -0.007315 0.000000 0.048350
#
#
# Mechanical properties :
#
#
# Convention : Reuss Voigt Hill
#
# Bulk Modulus (GPa) = 11.82464 27.99811 19.91138
# Shear Modulus (GPa) = 20.01050 29.94913 24.97981
#
# Velocity S-wave (km/s) = 3.02286 3.69812 3.37741
# Velocity P-wave (km/s) = 4.19324 5.56956 4.92967
#
# Compressibility (1/GPa) = 0.08456916
#
# Stress axis : x y z
#
# Youngs Moduli (GPa) = 13.50003 88.47914 84.61408
#
# Poissons Ratio (x) = 0.05637 0.26455
# Poissons Ratio (y) = 0.00860 0.21567
# Poissons Ratio (z) = 0.04221 0.22553
#
# Static dielectric constant tensor:
#      x y z
#    x 1.815020 0.000000 -0.007550 
#    y 0.000000 1.889230 0.000000 
#    z -0.007550 0.000000 1.826560 
# 
# From -- ./inp_files/65555.got.cif
#   From: 2010.05.17/outbox.cif.g08.bks.cpg/sg15_33_cif.got.tgz:65555.got - 2010.06.03 18:47:42.
