data_PCOD9270226
_publ_section_title
;
Structure prediction by ZEFSAII (Michael W. Deem and Ramdas Pophale) SiO2 
 PCOD9270226
Probable space group: C 2/C
;
_chemical_formula_sum "Si O2"
_cell_formula_units_Z 44
_cell_length_a 17.850968
_cell_length_b 13.128440
_cell_length_c 16.012798
_cell_angle_alpha 90.000000
_cell_angle_beta 153.742329
_cell_angle_gamma 90.000000
_cell_volume 1660.220764
_symmetry_space_group_name_H-M "C 2/C"
_symmetry_group_IT_number 15
_symmetry_cell_setting 'monoclinic'
loop_
_space_group_symop_operation_xyz
x,y,z
-x,y,1/2-z
-x,-y,-z
x,-y,1/2+z
1/2+x,1/2+y,z
1/2-x,1/2+y,1/2-z
1/2-x,1/2-y,-z
1/2+x,1/2-y,1/2+z
loop_
_atom_site_type_symbol
_atom_site_label
_atom_site_fract_x
_atom_site_fract_y
_atom_site_fract_z
Si Si1 0.292140 0.607473 0.819943
Si Si2 0.500000 0.509502 0.250000
Si Si3 0.507135 0.153830 0.407318
Si Si4 0.003696 0.422523 0.350041
Si Si5 0.351295 0.597511 0.271472
Si Si6 0.314070 0.324707 0.990756
O O1 0.152195 0.657612 0.620533
O O2 0.178634 0.596516 0.789814
O O3 0.325358 0.501186 0.804516
O O4 0.480015 0.652085 0.022451
O O5 0.422286 0.568507 0.250117
O O6 0.640938 0.432267 0.425708
O O7 0.539319 0.045209 0.392936
O O8 0.527591 0.261375 0.381927
O O9 0.305001 0.153055 0.208162
O O10 0.000000 0.391976 0.250000
O O11 0.158194 0.369324 0.556327
O O12 0.250000 0.250000 0.000000
#
# Coordination Sequence:
#
# PCOD9270226 Si02
#       6
#     8   4   8   8   8   8
#     4  10  22  38  54  81 115 158 203 247 292 342
#     4  12  22  34  60  88 124 158 192 234 296 362
#     4  11  22  35  52  81 120 157 190 230 287 357
#     4  11  21  37  59  85 115 151 201 254 298 342
#     4  10  20  35  57  80 115 159 195 240 292 348
#     4  12  21  34  51  82 122 157 189 224 280 357
#
# _framework density 26.502497999999999
#
# number of rings (size 3 to 8) (size 9 to 14) (size 15 to 20)
#    0.000    1.091    1.818    8.727    0.000    1.455 
#    0.000    0.000    0.000    0.000    0.000    1.273 
#    0.000    0.000    0.000    0.000    0.000    0.000 
#
# Total GULP energy -122788.327766 kJ/mol
# GULP energy per Si atom -5581.287626 kJ/mol
# Density = 2.644218 g / cm^3
# Si number density = 26.502498 Si / 1000 Ang^3
#
#
#
# Elastic Constant Matrix: (Units=GPa)
#
#
# Indices 1 2 3 4 5 6 
#
# 1 109.3771 12.3848 31.3705 -0.0008 12.2791 -0.0005
# 2 12.3848 39.9866 35.2569 -0.0016 4.4013 -0.0010
# 3 31.3705 35.2569 266.5153 -0.0009 12.5388 -0.0005
# 4 -0.0008 -0.0016 -0.0009 13.8775 -0.0007 6.7668
# 5 12.2791 4.4013 12.5388 -0.0007 42.4642 -0.0005
# 6 -0.0005 -0.0010 -0.0005 6.7668 -0.0005 16.2060
#
#
#
# Elastic Compliance Matrix: (Units=1/GPa)
#
#
# Indices 1 2 3 4 5 6 
#
# 1 0.009873 -0.002115 -0.000769 0.000000 -0.002409 0.000000
# 2 -0.002115 0.028908 -0.003512 0.000003 -0.001348 0.000001
# 3 -0.000769 -0.003512 0.004340 0.000000 -0.000695 0.000000
# 4 0.000000 0.000003 0.000000 0.090481 0.000001 -0.037780
# 5 -0.002409 -0.001348 -0.000695 0.000001 0.024591 0.000000
# 6 0.000000 0.000001 0.000000 -0.037780 0.000000 0.077480
#
#
# Mechanical properties :
#
#
# Convention : Reuss Voigt Hill
#
# Bulk Modulus (GPa) = 32.97077 63.76704 48.36891
# Shear Modulus (GPa) = 19.33678 36.96733 28.15205
#
# Velocity S-wave (km/s) = 2.70408 3.73884 3.26274
# Velocity P-wave (km/s) = 4.71349 6.53847 5.69950
#
# Compressibility (1/GPa) = 0.03032990
#
# Stress axis : x y z
#
# Youngs Moduli (GPa) = 101.28522 34.59224 230.41802
#
# Poissons Ratio (x) = 0.07315 0.17720
# Poissons Ratio (y) = 0.21419 0.80920
# Poissons Ratio (z) = 0.07789 0.12148
#
# Static dielectric constant tensor:
#      x y z
#    x 2.240620 0.000000 -0.028080 
#    y 0.000000 2.063550 0.000000 
#    z -0.028080 0.000000 2.121350 
# 
# From -- ./inp_files/163033.got.cif
#   From: 2010.05.17/outbox.cif.g08.bks.cpg/sg15_82_cif.got.tgz:163033.got - 2010.06.03 18:47:42.
