data_PCOD9270096
_publ_section_title
;
Structure prediction by ZEFSAII (Michael W. Deem and Ramdas Pophale) SiO2 
 PCOD9270096
Probable space group: C 2/C
;
_chemical_formula_sum "Si O2"
_cell_formula_units_Z 48
_cell_length_a 14.574021
_cell_length_b 24.338351
_cell_length_c 9.271233
_cell_angle_alpha 90.000000
_cell_angle_beta 35.786083
_cell_angle_gamma 90.000000
_cell_volume 1923.030528
_symmetry_space_group_name_H-M "C 2/C"
_symmetry_group_IT_number 15
_symmetry_cell_setting 'monoclinic'
loop_
_space_group_symop_operation_xyz
x,y,z
-x,y,1/2-z
-x,-y,-z
x,-y,1/2+z
1/2+x,1/2+y,z
1/2-x,1/2+y,1/2-z
1/2-x,1/2-y,-z
1/2+x,1/2-y,1/2+z
loop_
_atom_site_type_symbol
_atom_site_label
_atom_site_fract_x
_atom_site_fract_y
_atom_site_fract_z
Si Si1 0.195145 0.696962 0.244084
Si Si2 0.640846 0.184414 0.936451
Si Si3 0.809498 0.030456 0.468582
Si Si4 0.255667 0.813898 0.510455
Si Si5 0.233888 0.070943 0.657331
Si Si6 0.890833 0.113707 0.123410
O O1 0.271026 0.757805 0.142746
O O2 0.140235 0.681030 0.477539
O O3 0.319317 0.646507 0.078168
O O4 0.042583 0.697411 0.342190
O O5 0.697014 0.165459 0.704161
O O6 0.681182 0.128900 0.968933
O O7 0.741969 0.046804 0.711004
O O8 0.791206 0.073216 0.356546
O O9 0.000000 0.026409 0.250000
O O10 0.736315 0.974126 0.503002
O O11 0.250000 0.750000 0.500000
O O12 0.090213 0.836297 0.785226
O O13 0.048070 0.083317 0.886645
#
# Coordination Sequence:
#
# PCOD9270096 Si02
#       6
#     8   8   8   8   8   8
#     4   9  19  29  49  80 117 145 179 223 296 348
#     4  11  18  31  48  79 115 148 177 229 288 344
#     4  10  20  35  55  83 109 149 193 235 269 327
#     4   8  16  26  44  69 111 139 170 209 292 331
#     4  11  21  35  58  81 114 151 193 230 275 321
#     4   9  17  31  48  73 109 143 176 229 274 333
#
# _framework density 24.960601
#
# number of rings (size 3 to 8) (size 9 to 14) (size 15 to 20)
#    1.000    1.333    1.667    3.500    0.000    0.000 
#    0.000    0.833    0.000    4.000    0.000   10.500 
#    0.000    0.000    0.000    0.000    0.000    0.000 
#
# Total GULP energy -133775.991187 kJ/mol
# GULP energy per Si atom -5573.999633 kJ/mol
# Density = 2.490379 g / cm^3
# Si number density = 24.960601 Si / 1000 Ang^3
#
#
#
# Elastic Constant Matrix: (Units=GPa)
#
#
# Indices 1 2 3 4 5 6 
#
# 1 137.6224 75.9590 34.6165 -0.0001 29.6198 0.0001
# 2 75.9590 163.6050 39.7010 0.0000 24.6131 0.0000
# 3 34.6165 39.7010 90.1980 0.0000 16.6273 0.0000
# 4 -0.0001 0.0000 0.0000 9.9311 0.0001 -1.7379
# 5 29.6198 24.6131 16.6273 0.0001 23.1479 -0.0001
# 6 0.0001 0.0000 0.0000 -1.7379 -0.0001 42.8391
#
#
#
# Elastic Compliance Matrix: (Units=1/GPa)
#
#
# Indices 1 2 3 4 5 6 
#
# 1 0.011790 -0.003657 -0.000981 0.000000 -0.010493 0.000000
# 2 -0.003657 0.008754 -0.001840 0.000000 -0.003307 0.000000
# 3 -0.000981 -0.001840 0.013464 0.000000 -0.006460 0.000000
# 4 0.000000 0.000000 0.000000 0.101414 0.000000 0.004114
# 5 -0.010493 -0.003307 -0.006460 0.000000 0.064784 0.000000
# 6 0.000000 0.000000 0.000000 0.004114 0.000000 0.023510
#
#
# Mechanical properties :
#
#
# Convention : Reuss Voigt Hill
#
# Bulk Modulus (GPa) = 47.50145 76.88648 62.19397
# Shear Modulus (GPa) = 20.51795 31.26021 25.88908
#
# Velocity S-wave (km/s) = 2.87019 3.54274 3.22405
# Velocity P-wave (km/s) = 5.48232 6.89961 6.23139
#
# Compressibility (1/GPa) = 0.02105199
#
# Stress axis : x y z
#
# Youngs Moduli (GPa) = 84.81854 114.22964 74.27321
#
# Poissons Ratio (x) = 0.41777 0.07284
# Poissons Ratio (y) = 0.31020 0.13666
# Poissons Ratio (z) = 0.08318 0.21019
#
# Static dielectric constant tensor:
#      x y z
#    x 2.093550 0.000000 0.033290 
#    y 0.000000 2.006320 0.000000 
#    z 0.033290 0.000000 2.101310 
# 
# From -- ./inp_files/50909.got.cif
#   From: 2010.05.17/outbox.cif.g08.bks.cpg/sg15_26_cif.got.tgz:50909.got - 2010.06.03 18:47:42.
