data_PCOD9270648
_publ_section_title
;
Structure prediction by ZEFSAII (Michael W. Deem and Ramdas Pophale) SiO2 
 PCOD9270648
Probable space group: C 2/C
;
_chemical_formula_sum "Si O2"
_cell_formula_units_Z 60
_cell_length_a 7.727989
_cell_length_b 23.456180
_cell_length_c 18.666486
_cell_angle_alpha 90.000000
_cell_angle_beta 60.838788
_cell_angle_gamma 90.000000
_cell_volume 2954.785861
_symmetry_space_group_name_H-M "C 2/C"
_symmetry_group_IT_number 15
_symmetry_cell_setting 'monoclinic'
loop_
_space_group_symop_operation_xyz
x,y,z
-x,y,1/2-z
-x,-y,-z
x,-y,1/2+z
1/2+x,1/2+y,z
1/2-x,1/2+y,1/2-z
1/2-x,1/2-y,-z
1/2+x,1/2-y,1/2+z
loop_
_atom_site_type_symbol
_atom_site_label
_atom_site_fract_x
_atom_site_fract_y
_atom_site_fract_z
Si Si1 0.940677 0.062199 0.918626
Si Si2 0.525714 0.228148 0.026124
Si Si3 0.452363 0.344836 0.531902
Si Si4 0.184559 0.486078 0.074519
Si Si5 0.500000 0.479056 0.250000
Si Si6 0.647949 0.064060 0.321199
Si Si7 0.348954 0.889684 0.517681
Si Si8 0.491424 0.181049 0.325518
O O1 0.145228 0.037305 0.908669
O O2 0.942304 0.056708 0.832691
O O3 0.923430 0.123538 0.961148
O O4 0.777355 0.022500 0.990254
O O5 0.453048 0.282450 0.997505
O O6 0.750000 0.250000 0.000000
O O7 0.479509 0.168080 0.996697
O O8 0.433166 0.217203 0.122724
O O9 0.618059 0.378301 0.543686
O O10 0.233152 0.338956 0.609994
O O11 0.049147 0.527464 0.147371
O O12 0.075592 0.433103 0.058378
O O13 0.324834 0.522829 0.265400
O O14 0.653102 0.080511 0.404632
O O15 0.627243 0.125145 0.288593
O O16 0.500000 0.214380 0.250000
#
# Coordination Sequence:
#
# PCOD9270648 Si02
#       8
#     8   8   8   8   4   8   8   8
#     4  10  22  38  58  89 118 166 199 244 306 370
#     4   9  20  38  58  86 112 149 198 244 299 351
#     4  10  20  40  64  83 121 155 205 247 300 365
#     4  10  20  38  60  82 122 158 201 239 306 374
#     4  12  26  34  52  92 124 160 204 246 300 364
#     4  11  23  33  55  85 124 153 198 245 299 358
#     4  10  20  35  61  91 108 155 203 247 296 358
#     4  10  22  36  60  88 115 156 196 250 306 346
#
# _framework density 20.306038999999998
#
# number of rings (size 3 to 8) (size 9 to 14) (size 15 to 20)
#    0.000    1.867    2.667    0.800    3.733    0.000 
#    1.200    0.000    0.000    0.000    3.467    0.000 
#    0.000    0.000    0.000    0.000    0.000    0.000 
#
# Total GULP energy -167282.887417 kJ/mol
# GULP energy per Si atom -5576.096247 kJ/mol
# Density = 2.025982 g / cm^3
# Si number density = 20.306039 Si / 1000 Ang^3
#
#
#
# Elastic Constant Matrix: (Units=GPa)
#
#
# Indices 1 2 3 4 5 6 
#
# 1 52.5931 0.2389 5.1432 0.0000 -1.3472 0.0000
# 2 0.2389 72.8168 9.2473 0.0000 -4.8598 0.0000
# 3 5.1432 9.2473 69.9855 0.0000 5.4942 0.0000
# 4 0.0000 0.0000 0.0000 11.6046 0.0000 2.2033
# 5 -1.3472 -4.8598 5.4942 0.0000 22.2172 0.0000
# 6 0.0000 0.0000 0.0000 2.2033 0.0000 33.2512
#
#
#
# Elastic Compliance Matrix: (Units=1/GPa)
#
#
# Indices 1 2 3 4 5 6 
#
# 1 0.019207 0.000244 -0.001570 0.000000 0.001606 0.000000
# 2 0.000244 0.014256 -0.002190 0.000000 0.003675 0.000000
# 3 -0.001570 -0.002190 0.015030 0.000000 -0.004291 0.000000
# 4 0.000000 0.000000 0.000000 0.087271 0.000000 -0.005783
# 5 0.001606 0.003675 -0.004291 0.000000 0.046973 0.000000
# 6 0.000000 0.000000 0.000000 -0.005783 0.000000 0.030457
#
#
# Mechanical properties :
#
#
# Convention : Reuss Voigt Hill
#
# Bulk Modulus (GPa) = 24.11916 24.96159 24.54037
# Shear Modulus (GPa) = 21.36324 25.46565 23.41444
#
# Velocity S-wave (km/s) = 3.24707 3.54516 3.39938
# Velocity P-wave (km/s) = 5.09525 5.39230 5.24588
#
# Compressibility (1/GPa) = 0.04146082
#
# Stress axis : x y z
#
# Youngs Moduli (GPa) = 52.06314 70.14757 66.53228
#
# Poissons Ratio (x) = -0.01708 0.10444
# Poissons Ratio (y) = -0.01268 0.14571
# Poissons Ratio (z) = 0.08173 0.15362
#
# Static dielectric constant tensor:
#      x y z
#    x 1.777110 0.000000 0.015030 
#    y 0.000000 1.759730 0.000000 
#    z 0.015030 0.000000 1.706000 
# 
# From -- ./inp_files/193263.got.cif
#   From: 2010.05.17/outbox.cif.g08.bks.cpg/sg15_97_cif.got.tgz:193263.got - 2010.06.03 18:47:42.
