data_PCOD9270784
_publ_section_title
;
Structure prediction by ZEFSAII (Michael W. Deem and Ramdas Pophale) SiO2 
 PCOD9270784
Probable space group: C 2/C
;
_chemical_formula_sum "Si O2"
_cell_formula_units_Z 60
_cell_length_a 11.821371
_cell_length_b 18.296268
_cell_length_c 14.655942
_cell_angle_alpha 90.000000
_cell_angle_beta 97.914856
_cell_angle_gamma 90.000000
_cell_volume 3139.692293
_symmetry_space_group_name_H-M "C 2/C"
_symmetry_group_IT_number 15
_symmetry_cell_setting 'monoclinic'
loop_
_space_group_symop_operation_xyz
x,y,z
-x,y,1/2-z
-x,-y,-z
x,-y,1/2+z
1/2+x,1/2+y,z
1/2-x,1/2+y,1/2-z
1/2-x,1/2-y,-z
1/2+x,1/2-y,1/2+z
loop_
_atom_site_type_symbol
_atom_site_label
_atom_site_fract_x
_atom_site_fract_y
_atom_site_fract_z
Si Si1 0.137567 0.311622 0.762887
Si Si2 0.293539 0.305623 0.079077
Si Si3 0.500000 0.401646 0.250000
Si Si4 0.462298 0.339268 0.431486
Si Si5 0.753221 0.563962 0.532934
Si Si6 0.336489 0.202185 0.447375
Si Si7 0.272432 0.544459 0.634303
Si Si8 0.364171 0.978257 0.714842
O O1 0.178021 0.246105 0.831888
O O2 0.185509 0.306267 0.664040
O O3 0.165468 0.392660 0.804473
O O4 0.000000 0.309109 0.750000
O O5 0.402332 0.348094 0.045756
O O6 0.223391 0.374512 0.108421
O O7 0.250000 0.250000 0.000000
O O8 0.444179 0.351618 0.321542
O O9 0.600987 0.447339 0.307478
O O10 0.367399 0.393200 0.462657
O O11 0.444539 0.255748 0.459661
O O12 0.836342 0.623711 0.494629
O O13 0.727220 0.501525 0.457500
O O14 0.813412 0.528614 0.628011
O O15 0.250000 0.250000 0.500000
O O16 0.197000 0.503614 0.699992
O O17 0.500000 0.984254 0.750000
#
# Coordination Sequence:
#
# PCOD9270784 Si02
#       8
#     8   8   4   8   8   8   8   8
#     4  11  21  41  65  88 121 167 214 257 313 384
#     4  11  24  38  65  94 125 165 213 267 309 385
#     4  10  20  38  68  90 124 166 212 258 310 390
#     4  10  20  38  63  92 120 163 210 255 314 376
#     4  11  23  41  63  92 131 165 211 262 325 392
#     4  10  20  35  65  90 117 161 210 256 304 382
#     4  11  23  42  63  94 128 168 210 263 326 379
#     4  11  25  42  62  93 128 168 211 270 325 382
#
# _framework density 19.110153
#
# number of rings (size 3 to 8) (size 9 to 14) (size 15 to 20)
#    0.000    1.333    4.000    2.400    2.800    3.733 
#    2.400    0.000    0.000    0.000    1.733    0.000 
#    0.000    0.000    0.000    0.000    0.000    0.000 
#
# Total GULP energy -167051.656514 kJ/mol
# GULP energy per Si atom -5568.388550 kJ/mol
# Density = 1.906666 g / cm^3
# Si number density = 19.110153 Si / 1000 Ang^3
#
#
#
# Elastic Constant Matrix: (Units=GPa)
#
#
# Indices 1 2 3 4 5 6 
#
# 1 50.7656 23.0079 27.4440 0.0000 -8.0213 0.0000
# 2 23.0079 143.5870 48.7889 0.0000 -4.8581 0.0000
# 3 27.4440 48.7889 111.9249 0.0000 -8.5690 0.0000
# 4 0.0000 0.0000 0.0000 37.9056 0.0000 1.1501
# 5 -8.0213 -4.8581 -8.5690 0.0000 25.5426 0.0000
# 6 0.0000 0.0000 0.0000 1.1501 0.0000 21.4930
#
#
#
# Elastic Compliance Matrix: (Units=1/GPa)
#
#
# Indices 1 2 3 4 5 6 
#
# 1 0.023993 -0.002115 -0.004532 0.000000 0.005612 0.000000
# 2 -0.002115 0.008365 -0.003137 0.000000 -0.000126 0.000000
# 3 -0.004532 -0.003137 0.011556 0.000000 0.001857 0.000000
# 4 0.000000 0.000000 0.000000 0.026424 0.000000 -0.001414
# 5 0.005612 -0.000126 0.001857 0.000000 0.041512 0.000000
# 6 0.000000 0.000000 0.000000 -0.001414 0.000000 0.046602
#
#
# Mechanical properties :
#
#
# Convention : Reuss Voigt Hill
#
# Bulk Modulus (GPa) = 41.07437 56.08435 48.57936
# Shear Modulus (GPa) = 26.86211 30.79071 28.82641
#
# Velocity S-wave (km/s) = 3.75326 4.01836 3.88807
# Velocity P-wave (km/s) = 6.35002 7.13731 6.75515
#
# Compressibility (1/GPa) = 0.02434608
#
# Stress axis : x y z
#
# Youngs Moduli (GPa) = 41.67796 119.54393 86.53886
#
# Poissons Ratio (x) = 0.25283 0.39216
# Poissons Ratio (y) = 0.08815 0.27151
# Poissons Ratio (z) = 0.18887 0.37506
#
# Static dielectric constant tensor:
#      x y z
#    x 1.659560 0.000000 -0.009440 
#    y 0.000000 1.719930 0.000000 
#    z -0.009440 0.000000 1.671060 
# 
# From -- ./inp_files/145669.got.cif
#   From: 2010.05.17/outbox.cif.g08.bks.cpg/sg15_73_cif.got.tgz:145669.got - 2010.06.03 18:47:42.
