data_PCOD9270532
_publ_section_title
;
Structure prediction by ZEFSAII (Michael W. Deem and Ramdas Pophale) SiO2 
 PCOD9270532
Probable space group: C 2/C
;
_chemical_formula_sum "Si O2"
_cell_formula_units_Z 44
_cell_length_a 16.945936
_cell_length_b 22.168230
_cell_length_c 5.496607
_cell_angle_alpha 90.000000
_cell_angle_beta 88.169424
_cell_angle_gamma 90.000000
_cell_volume 2063.809327
_symmetry_space_group_name_H-M "C 2/C"
_symmetry_group_IT_number 15
_symmetry_cell_setting 'monoclinic'
loop_
_space_group_symop_operation_xyz
x,y,z
-x,y,1/2-z
-x,-y,-z
x,-y,1/2+z
1/2+x,1/2+y,z
1/2-x,1/2+y,1/2-z
1/2-x,1/2-y,-z
1/2+x,1/2-y,1/2+z
loop_
_atom_site_type_symbol
_atom_site_label
_atom_site_fract_x
_atom_site_fract_y
_atom_site_fract_z
Si Si1 0.905499 0.523449 0.304029
Si Si2 0.298269 0.254615 0.244800
Si Si3 0.590609 0.475653 0.522813
Si Si4 0.500000 0.760173 0.250000
Si Si5 0.426016 0.342916 0.089985
Si Si6 0.583299 0.159077 0.105752
O O1 0.874809 0.481637 0.528793
O O2 0.893694 0.589906 0.415995
O O3 0.000000 0.512548 0.250000
O O4 0.250000 0.250000 0.500000
O O5 0.351174 0.315560 0.238295
O O6 0.355282 0.197067 0.247720
O O7 0.250000 0.250000 0.000000
O O8 0.500000 0.500000 0.500000
O O9 0.626498 0.507445 0.756560
O O10 0.592567 0.403490 0.556019
O O11 0.457498 0.714149 0.436120
O O12 0.564933 0.803320 0.364889
O O13 0.500000 0.360783 0.250000
O O14 0.500000 0.159105 0.250000
#
# Coordination Sequence:
#
# PCOD9270532 Si02
#       6
#     8   8   8   4   8   8
#     4   9  20  34  57  92 122 152 201 265 325 375
#     4  12  27  44  61  94 137 178 217 265 335 408
#     4  10  20  35  59  99 128 156 205 283 331 387
#     4  12  20  36  64 102 124 166 222 280 330 390
#     4  12  23  39  68  96 132 172 221 278 335 397
#     4  11  23  39  67  94 126 168 218 279 327 388
#
# _framework density 21.319800000000001
#
# number of rings (size 3 to 8) (size 9 to 14) (size 15 to 20)
#    0.000    1.091    5.455    2.182    6.364    0.000 
#    0.000    0.000    0.000    6.545    0.000    0.000 
#    0.000    0.000    0.000    0.000    0.000    0.000 
#
# Total GULP energy -122755.781744 kJ/mol
# GULP energy per Si atom -5579.808261 kJ/mol
# Density = 2.127128 g / cm^3
# Si number density = 21.319800 Si / 1000 Ang^3
#
#
#
# Elastic Constant Matrix: (Units=GPa)
#
#
# Indices 1 2 3 4 5 6 
#
# 1 50.0307 9.0380 17.4156 0.0000 7.2447 0.0000
# 2 9.0380 115.1959 32.0685 0.0000 -3.4332 0.0000
# 3 17.4156 32.0685 125.3260 0.0000 15.3008 0.0000
# 4 0.0000 0.0000 0.0000 -836.0017 0.0000 -346.6608
# 5 7.2447 -3.4332 15.3008 0.0000 32.3461 0.0000
# 6 0.0000 0.0000 0.0000 -346.6608 0.0000 -145.6311
#
#
#
# Elastic Compliance Matrix: (Units=1/GPa)
#
#
# Indices 1 2 3 4 5 6 
#
# 1 0.021538 -0.001190 -0.002212 0.000000 -0.003904 0.000000
# 2 -0.001190 0.009570 -0.002589 0.000000 0.002507 0.000000
# 3 -0.002212 -0.002589 0.009469 0.000000 -0.004259 0.000000
# 4 0.000000 0.000000 0.000000 -0.092516 0.000000 0.220227
# 5 -0.003904 0.002507 -0.004259 0.000000 0.034071 0.000000
# 6 0.000000 0.000000 0.000000 0.220227 0.000000 -0.531095
#
#
# Mechanical properties :
#
#
# Convention : Reuss Voigt Hill
#
# Bulk Modulus (GPa) = 34.97275 45.28856 40.13066
# Shear Modulus (GPa) = -9.47958 -174.38864 -91.93411
#
# Velocity S-wave (km/s) = -2.11093 -9.05396 -6.57382
# Velocity P-wave (km/s) = 3.24008 9.38138 6.22544
#
# Compressibility (1/GPa) = 0.02859369
#
# Stress axis : x y z
#
# Youngs Moduli (GPa) = 46.42955 104.49500 105.60728
#
# Poissons Ratio (x) = 0.12440 0.23357
# Poissons Ratio (y) = 0.05527 0.27346
# Poissons Ratio (z) = 0.10269 0.27058
#
# Static dielectric constant tensor:
#      x y z
#    x 0.856370 0.000000 -0.015440 
#    y 0.000000 1.795070 0.000000 
#    z -0.015440 0.000000 1.885830 
# 
# From -- ./inp_files/10354.got.cif
#   From: 2010.05.17/outbox.cif.g08.bks.cpg/sg15_6_cif.got.tgz:10354.got - 2010.06.03 18:47:42.
