data_PCOD9270173
_publ_section_title
;
Structure prediction by ZEFSAII (Michael W. Deem and Ramdas Pophale) SiO2 
 PCOD9270173
Probable space group: C 2/C
;
_chemical_formula_sum "Si O2"
_cell_formula_units_Z 40
_cell_length_a 12.519872
_cell_length_b 23.825311
_cell_length_c 12.647261
_cell_angle_alpha 90.000000
_cell_angle_beta 27.233150
_cell_angle_gamma 90.000000
_cell_volume 1726.365610
_symmetry_space_group_name_H-M "C 2/C"
_symmetry_group_IT_number 15
_symmetry_cell_setting 'monoclinic'
loop_
_space_group_symop_operation_xyz
x,y,z
-x,y,1/2-z
-x,-y,-z
x,-y,1/2+z
1/2+x,1/2+y,z
1/2-x,1/2+y,1/2-z
1/2-x,1/2-y,-z
1/2+x,1/2-y,1/2+z
loop_
_atom_site_type_symbol
_atom_site_label
_atom_site_fract_x
_atom_site_fract_y
_atom_site_fract_z
Si Si1 0.253525 0.623571 0.132779
Si Si2 0.355533 0.762156 0.672480
Si Si3 0.866394 0.941969 0.092688
Si Si4 0.500000 0.311998 0.250000
Si Si5 0.500000 0.467762 0.750000
Si Si6 0.035001 0.490392 0.599869
O O1 0.145650 0.672323 0.298244
O O2 0.511324 0.606589 0.949269
O O3 0.298114 0.648991 0.977423
O O4 0.100790 0.567931 0.275785
O O5 0.577232 0.750951 0.399632
O O6 0.415905 0.726636 0.726561
O O7 0.598886 0.961230 0.350013
O O8 0.912571 0.931620 0.927004
O O9 0.000000 0.000000 0.000000
O O10 0.688408 0.508580 0.639296
O O11 0.000000 0.513317 0.750000
#
# Coordination Sequence:
#
# PCOD9270173 Si02
#       6
#     8   8   8   4   4   8
#     4  10  20  35  56  85 110 158 195 227 300 353
#     4  10  21  39  55  83 125 157 192 246 292 359
#     4   9  20  37  53  81 112 146 200 236 284 359
#     4  10  22  37  58  82 126 152 188 243 294 356
#     4  10  20  41  52  76 120 152 184 257 286 324
#     4   9  20  34  54  76 112 147 192 234 279 350
#
# _framework density 23.170062999999999
#
# number of rings (size 3 to 8) (size 9 to 14) (size 15 to 20)
#    0.000    2.400    0.000    2.400    4.200   10.400 
#   18.000    0.000    0.000    0.000    0.000    5.600 
#    0.000    0.000    0.000    0.000    0.000    0.000 
#
# Total GULP energy -111486.240429 kJ/mol
# GULP energy per Si atom -5574.312021 kJ/mol
# Density = 2.311733 g / cm^3
# Si number density = 23.170063 Si / 1000 Ang^3
#
#
#
# Elastic Constant Matrix: (Units=GPa)
#
#
# Indices 1 2 3 4 5 6 
#
# 1 76.8836 49.0877 27.1017 0.0036 -31.4201 0.0004
# 2 49.0877 73.9895 -0.0905 0.0011 -19.6580 0.0005
# 3 27.1017 -0.0905 95.3371 -0.0005 -28.0163 0.0035
# 4 0.0036 0.0011 -0.0005 45.7468 -0.0006 -13.1139
# 5 -31.4201 -19.6580 -28.0163 -0.0006 40.9315 -0.0037
# 6 0.0004 0.0005 0.0035 -13.1139 -0.0037 29.3565
#
#
#
# Elastic Compliance Matrix: (Units=1/GPa)
#
#
# Indices 1 2 3 4 5 6 
#
# 1 0.030630 -0.017249 -0.005318 -0.000002 0.011588 0.000001
# 2 -0.017249 0.025806 0.005857 0.000001 0.003162 0.000000
# 3 -0.005318 0.005857 0.014563 0.000000 0.008698 0.000000
# 4 -0.000002 0.000001 0.000000 0.025070 0.000001 0.011199
# 5 0.011588 0.003162 0.008698 0.000001 0.040799 0.000004
# 6 0.000001 0.000000 0.000000 0.011199 0.000004 0.039067
#
#
# Mechanical properties :
#
#
# Convention : Reuss Voigt Hill
#
# Bulk Modulus (GPa) = 26.61065 44.26756 35.43910
# Shear Modulus (GPa) = 22.53460 34.54771 28.54115
#
# Velocity S-wave (km/s) = 3.12199 3.86560 3.51353
# Velocity P-wave (km/s) = 4.95032 6.25066 5.63811
#
# Compressibility (1/GPa) = 0.03757894
#
# Stress axis : x y z
#
# Youngs Moduli (GPa) = 32.64760 38.75002 68.66908
#
# Poissons Ratio (x) = 0.66840 0.36520
# Poissons Ratio (y) = 0.56314 -0.40221
# Poissons Ratio (z) = 0.17363 -0.22697
#
# Static dielectric constant tensor:
#      x y z
#    x 2.027550 0.000000 -0.046610 
#    y 0.000000 1.808790 0.000000 
#    z -0.046610 0.000000 2.166660 
# 
# From -- ./inp_files/100926.got.cif
#   From: 2010.05.17/outbox.cif.g08.bks.cpg/sg15_51_cif.got.tgz:100926.got - 2010.06.03 18:47:42.
