data_PCOD9270140
_publ_section_title
;
Structure prediction by ZEFSAII (Michael W. Deem and Ramdas Pophale) SiO2 
 PCOD9270140
Probable space group: C 2/C
;
_chemical_formula_sum "Si O2"
_cell_formula_units_Z 64
_cell_length_a 24.904282
_cell_length_b 25.614530
_cell_length_c 10.154040
_cell_angle_alpha 90.000000
_cell_angle_beta 36.142130
_cell_angle_gamma 90.000000
_cell_volume 3820.295230
_symmetry_space_group_name_H-M "C 2/C"
_symmetry_group_IT_number 15
_symmetry_cell_setting 'monoclinic'
loop_
_space_group_symop_operation_xyz
x,y,z
-x,y,1/2-z
-x,-y,-z
x,-y,1/2+z
1/2+x,1/2+y,z
1/2-x,1/2+y,1/2-z
1/2-x,1/2-y,-z
1/2+x,1/2-y,1/2+z
loop_
_atom_site_type_symbol
_atom_site_label
_atom_site_fract_x
_atom_site_fract_y
_atom_site_fract_z
Si Si1 0.186548 0.105461 0.494962
Si Si2 0.201800 0.290767 0.693522
Si Si3 0.202763 0.107880 0.152658
Si Si4 0.508224 0.250416 0.576969
Si Si5 0.310081 0.211775 0.966571
Si Si6 0.078240 0.026575 0.007542
Si Si7 0.184732 0.009185 0.054199
Si Si8 0.508646 0.628115 0.000032
O O1 0.248788 0.153430 0.419226
O O2 0.192511 0.099172 0.327685
O O3 0.080960 0.116347 0.740462
O O4 0.218947 0.050053 0.488718
O O5 0.250000 0.250000 0.500000
O O6 0.206178 0.279499 0.843444
O O7 0.095236 0.284885 0.870722
O O8 0.273009 0.155033 0.002377
O O9 0.239555 0.056826 0.006293
O O10 0.099797 0.120194 0.305237
O O11 0.500000 0.253679 0.750000
O O12 0.520184 0.310413 0.507990
O O13 0.413844 0.223959 0.722834
O O14 0.250000 0.250000 0.000000
O O15 0.044850 0.084817 0.033845
O O16 0.102558 0.996256 0.825665
O O17 0.158002 0.025172 0.958473
O O18 0.000000 0.999920 0.250000
#
# Coordination Sequence:
#
# PCOD9270140 Si02
#       8
#     8   8   8   8   8   8   8   8
#     4  10  22  35  51  80 105 148 182 221 268 324
#     4  10  20  38  58  80 108 143 185 226 273 329
#     4  11  21  34  52  75 112 145 182 219 268 330
#     4  10  20  35  56  81 110 141 182 228 271 322
#     4  10  21  37  56  82 110 143 184 226 274 324
#     4  11  21  31  46  75 106 149 173 217 264 328
#     4  11  22  34  50  72 112 139 188 220 270 320
#     4  11  20  30  53  76 114 140 182 214 268 321
#
# _framework density 16.752631999999998
#
# number of rings (size 3 to 8) (size 9 to 14) (size 15 to 20)
#    0.000    1.500    5.000    1.125    1.750    0.000 
#    0.000    0.625    0.000    0.750    0.000    0.000 
#    0.000    0.000    0.000    0.000    0.000    0.000 
#
# Total GULP energy -178140.241154 kJ/mol
# GULP energy per Si atom -5566.882536 kJ/mol
# Density = 1.671450 g / cm^3
# Si number density = 16.752632 Si / 1000 Ang^3
#
#
#
# Elastic Constant Matrix: (Units=GPa)
#
#
# Indices 1 2 3 4 5 6 
#
# 1 67.8855 56.4141 33.7659 0.0000 -10.4677 0.0000
# 2 56.4141 124.6585 43.7472 0.0000 -15.4536 0.0000
# 3 33.7659 43.7472 61.2672 0.0000 -11.8854 0.0000
# 4 0.0000 0.0000 0.0000 20.7635 0.0000 1.4657
# 5 -10.4677 -15.4536 -11.8854 0.0000 19.5000 0.0000
# 6 0.0000 0.0000 0.0000 1.4657 0.0000 27.4761
#
#
#
# Elastic Compliance Matrix: (Units=1/GPa)
#
#
# Indices 1 2 3 4 5 6 
#
# 1 0.026337 -0.008929 -0.007677 0.000000 0.002382 0.000000
# 2 -0.008929 0.014065 -0.004411 0.000000 0.003665 0.000000
# 3 -0.007677 -0.004411 0.025205 0.000000 0.007746 0.000000
# 4 0.000000 0.000000 0.000000 0.048344 0.000000 -0.002579
# 5 0.002382 0.003665 0.007746 0.000000 0.060186 0.000000
# 6 0.000000 0.000000 0.000000 -0.002579 0.000000 0.036533
#
#
# Mechanical properties :
#
#
# Convention : Reuss Voigt Hill
#
# Bulk Modulus (GPa) = 42.42177 57.96285 50.19231
# Shear Modulus (GPa) = 19.18930 21.54018 20.36474
#
# Velocity S-wave (km/s) = 3.38812 3.58967 3.49035
# Velocity P-wave (km/s) = 6.37834 7.20106 6.80215
#
# Compressibility (1/GPa) = 0.02357280
#
# Stress axis : x y z
#
# Youngs Moduli (GPa) = 37.96954 71.09775 39.67442
#
# Poissons Ratio (x) = 0.63486 0.30458
# Poissons Ratio (y) = 0.33904 0.17500
# Poissons Ratio (z) = 0.29149 0.31361
#
# Static dielectric constant tensor:
#      x y z
#    x 1.596190 0.000000 -0.003420 
#    y 0.000000 1.711750 0.000000 
#    z -0.003420 0.000000 1.628080 
# 
# From -- ./inp_files/124499.got.cif
#   From: 2010.05.17/outbox.cif.g08.bks.cpg/sg15_63_cif.got.tgz:124499.got - 2010.06.03 18:47:42.
