data_PCOD9270549
_publ_section_title
;
Structure prediction by ZEFSAII (Michael W. Deem and Ramdas Pophale) SiO2 
 PCOD9270549
Probable space group: C 2/C
;
_chemical_formula_sum "Si O2"
_cell_formula_units_Z 64
_cell_length_a 11.729763
_cell_length_b 16.238494
_cell_length_c 27.744687
_cell_angle_alpha 90.000000
_cell_angle_beta 143.221547
_cell_angle_gamma 90.000000
_cell_volume 3164.028184
_symmetry_space_group_name_H-M "C 2/C"
_symmetry_group_IT_number 15
_symmetry_cell_setting 'monoclinic'
loop_
_space_group_symop_operation_xyz
x,y,z
-x,y,1/2-z
-x,-y,-z
x,-y,1/2+z
1/2+x,1/2+y,z
1/2-x,1/2+y,1/2-z
1/2-x,1/2-y,-z
1/2+x,1/2-y,1/2+z
loop_
_atom_site_type_symbol
_atom_site_label
_atom_site_fract_x
_atom_site_fract_y
_atom_site_fract_z
Si Si1 0.348285 0.947419 0.662786
Si Si2 0.811377 0.018566 0.608432
Si Si3 0.472152 0.932394 0.921747
Si Si4 0.981207 0.897636 0.597174
Si Si5 0.482647 0.197385 0.343885
Si Si6 0.331546 0.690616 0.658297
Si Si7 0.629771 0.071922 0.908587
Si Si8 0.600439 0.228879 0.670552
O O1 0.500000 0.987453 0.750000
O O2 0.172231 0.906161 0.630517
O O3 0.470897 0.878207 0.676453
O O4 0.279535 0.015920 0.602277
O O5 0.349296 0.944157 0.481905
O O6 0.871498 0.095892 0.660362
O O7 0.712222 0.949951 0.608355
O O8 0.968792 0.974524 0.629444
O O9 0.475900 0.847321 0.893315
O O10 0.493111 0.008885 0.891566
O O11 0.983221 0.812715 0.626804
O O12 0.795854 0.900322 0.500835
O O13 0.651809 0.260284 0.386275
O O14 0.288316 0.245663 0.264621
O O15 0.500000 0.722708 0.750000
O O16 0.152572 0.704394 0.632372
O O17 0.513756 0.149925 0.849857
#
# Coordination Sequence:
#
# PCOD9270549 Si02
#       8
#     8   8   8   8   8   8   8   8
#     4  11  20  39  63  86 119 161 200 250 305 360
#     4  10  21  38  59  89 119 157 201 246 301 367
#     4   9  20  39  60  84 122 161 197 243 311 359
#     4  11  22  38  61  91 122 155 204 247 306 367
#     4  10  20  37  62  87 114 159 205 247 295 361
#     4  10  20  35  60  87 116 155 210 245 289 362
#     4  10  22  37  63  90 120 159 201 257 298 360
#     4  11  20  39  61  89 118 156 204 244 303 362
#
# _framework density 20.22738
#
# number of rings (size 3 to 8) (size 9 to 14) (size 15 to 20)
#    0.000    1.750    3.750    1.125    0.000    3.500 
#    0.000    2.500    0.000    0.000    0.000    0.000 
#    0.000    0.000    0.000    0.000    0.000    0.000 
#
# Total GULP energy -178423.080625 kJ/mol
# GULP energy per Si atom -5575.721270 kJ/mol
# Density = 2.018134 g / cm^3
# Si number density = 20.227380 Si / 1000 Ang^3
#
#
#
# Elastic Constant Matrix: (Units=GPa)
#
#
# Indices 1 2 3 4 5 6 
#
# 1 54.1179 14.7937 12.9349 0.0000 -7.5122 0.0000
# 2 14.7937 83.1080 16.6631 0.0000 -6.2251 0.0000
# 3 12.9349 16.6631 24.4314 0.0000 -2.5070 0.0000
# 4 0.0000 0.0000 0.0000 27.9396 0.0000 -10.1552
# 5 -7.5122 -6.2251 -2.5070 0.0000 19.5941 0.0000
# 6 0.0000 0.0000 0.0000 -10.1552 0.0000 29.0755
#
#
#
# Elastic Compliance Matrix: (Units=1/GPa)
#
#
# Indices 1 2 3 4 5 6 
#
# 1 0.022222 -0.001423 -0.010099 0.000000 0.006775 0.000000
# 2 -0.001423 0.014238 -0.008663 0.000000 0.002869 0.000000
# 3 -0.010099 -0.008663 0.052192 0.000000 0.000054 0.000000
# 4 0.000000 0.000000 0.000000 0.040996 0.000000 0.014319
# 5 0.006775 0.002869 0.000054 0.000000 0.054552 0.000000
# 6 0.000000 0.000000 0.000000 0.014319 0.000000 0.039394
#
#
# Mechanical properties :
#
#
# Convention : Reuss Voigt Hill
#
# Bulk Modulus (GPa) = 20.71211 27.82675 24.26943
# Shear Modulus (GPa) = 17.85357 23.13955 20.49656
#
# Velocity S-wave (km/s) = 2.97415 3.38593 3.18670
# Velocity P-wave (km/s) = 4.69638 5.39193 5.05613
#
# Compressibility (1/GPa) = 0.04828093
#
# Stress axis : x y z
#
# Youngs Moduli (GPa) = 45.00145 70.23629 19.16020
#
# Poissons Ratio (x) = 0.09996 0.19350
# Poissons Ratio (y) = 0.06405 0.16598
# Poissons Ratio (z) = 0.45447 0.60843
#
# Static dielectric constant tensor:
#      x y z
#    x 1.753080 0.000000 -0.030890 
#    y 0.000000 1.709580 0.000000 
#    z -0.030890 0.000000 1.736110 
# 
# From -- ./inp_files/293092.got.cif
#   From: 2010.05.17/outbox.cif.g08.bks.cpg/sg15_147_cif.got.tgz:293092.got - 2010.06.03 18:47:42.
