data_PCOD9270128
_publ_section_title
;
Structure prediction by ZEFSAII (Michael W. Deem and Ramdas Pophale) SiO2 
 PCOD9270128
Probable space group: C 2/C
;
_chemical_formula_sum "Si O2"
_cell_formula_units_Z 56
_cell_length_a 6.325108
_cell_length_b 18.103297
_cell_length_c 21.698274
_cell_angle_alpha 90.000000
_cell_angle_beta 95.828754
_cell_angle_gamma 90.000000
_cell_volume 2471.722021
_symmetry_space_group_name_H-M "C 2/C"
_symmetry_group_IT_number 15
_symmetry_cell_setting 'monoclinic'
loop_
_space_group_symop_operation_xyz
x,y,z
-x,y,1/2-z
-x,-y,-z
x,-y,1/2+z
1/2+x,1/2+y,z
1/2-x,1/2+y,1/2-z
1/2-x,1/2-y,-z
1/2+x,1/2-y,1/2+z
loop_
_atom_site_type_symbol
_atom_site_label
_atom_site_fract_x
_atom_site_fract_y
_atom_site_fract_z
Si Si1 0.020706 0.281372 0.008751
Si Si2 0.518678 0.610598 0.372021
Si Si3 0.971192 0.330268 0.348969
Si Si4 0.817524 0.293556 0.694838
Si Si5 0.831311 0.750914 0.386382
Si Si6 0.328542 0.019703 0.898452
Si Si7 0.693843 0.073587 0.467194
O O1 0.027526 0.294093 0.081898
O O2 0.250000 0.250000 0.000000
O O3 0.022175 0.363010 0.978989
O O4 0.873288 0.231684 0.959572
O O5 0.333034 0.635636 0.319437
O O6 0.680190 0.679388 0.376294
O O7 0.661712 0.538508 0.365936
O O8 0.392409 0.601798 0.433122
O O9 0.834100 0.277512 0.301286
O O10 0.876155 0.410760 0.356040
O O11 0.223036 0.318354 0.345870
O O12 0.000000 0.304680 0.750000
O O13 0.947999 0.272887 0.637302
O O14 0.557319 0.983935 0.922783
O O15 0.240288 0.044027 0.963455
#
# Coordination Sequence:
#
# PCOD9270128 Si02
#       7
#     8   8   8   8   8   8   8
#     4  11  17  35  58  89 126 154 198 243 298 367
#     4  11  20  38  63  88 121 165 204 250 299 367
#     4  10  23  35  60  90 119 164 192 247 310 362
#     4  11  24  43  65  89 114 156 218 270 307 358
#     4  11  21  39  61  91 123 152 205 259 306 370
#     4  10  21  37  56  89 132 165 196 233 307 376
#     4  10  20  35  55  91 130 164 195 237 295 378
#
# _framework density 22.656269000000002
#
# number of rings (size 3 to 8) (size 9 to 14) (size 15 to 20)
#    0.000    1.429    4.286    1.714    0.000    3.429 
#    0.000    0.000    6.286    0.000    0.000    0.000 
#    0.000    0.000    0.000    0.000    0.000    0.000 
#
# Total GULP energy -156192.891189 kJ/mol
# GULP energy per Si atom -5578.317542 kJ/mol
# Density = 2.260470 g / cm^3
# Si number density = 22.656269 Si / 1000 Ang^3
#
#
#
# Elastic Constant Matrix: (Units=GPa)
#
#
# Indices 1 2 3 4 5 6 
#
# 1 64.8474 26.8027 18.4675 0.0000 20.4353 0.0000
# 2 26.8027 124.3284 21.4458 0.0000 23.9885 0.0000
# 3 18.4675 21.4458 83.4191 0.0000 31.4890 0.0000
# 4 0.0000 0.0000 0.0000 14.9958 0.0000 9.0428
# 5 20.4353 23.9885 31.4890 0.0000 43.8153 0.0000
# 6 0.0000 0.0000 0.0000 9.0428 0.0000 39.4027
#
#
#
# Elastic Compliance Matrix: (Units=1/GPa)
#
#
# Indices 1 2 3 4 5 6 
#
# 1 0.018884 -0.002614 -0.000994 0.000000 -0.006662 0.000000
# 2 -0.002614 0.009379 -0.000486 0.000000 -0.003566 0.000000
# 3 -0.000994 -0.000486 0.016546 0.000000 -0.011161 0.000000
# 4 0.000000 0.000000 0.000000 0.077396 0.000000 -0.017762
# 5 -0.006662 -0.003566 -0.011161 0.000000 0.035904 0.000000
# 6 0.000000 0.000000 0.000000 -0.017762 0.000000 0.029455
#
#
# Mechanical properties :
#
#
# Convention : Reuss Voigt Hill
#
# Bulk Modulus (GPa) = 27.30758 45.11410 36.21084
# Shear Modulus (GPa) = 24.04322 33.36803 28.70562
#
# Velocity S-wave (km/s) = 3.26117 3.84186 3.56336
# Velocity P-wave (km/s) = 5.12440 6.29568 5.73999
#
# Compressibility (1/GPa) = 0.03661987
#
# Stress axis : x y z
#
# Youngs Moduli (GPa) = 52.95588 106.62454 60.43797
#
# Poissons Ratio (x) = 0.27873 0.06006
# Poissons Ratio (y) = 0.13843 0.02939
# Poissons Ratio (z) = 0.05262 0.05185
#
# Static dielectric constant tensor:
#      x y z
#    x 2.010040 0.000000 -0.050970 
#    y 0.000000 1.953230 0.000000 
#    z -0.050970 0.000000 1.914730 
# 
# From -- ./inp_files/261403.got.cif
#   From: 2010.05.17/outbox.cif.g08.bks.cpg/sg15_131_cif.got.tgz:261403.got - 2010.06.03 18:47:42.
