data_PCOD9270902
_publ_section_title
;
Structure prediction by ZEFSAII (Michael W. Deem and Ramdas Pophale) SiO2 
 PCOD9270902
Probable space group: C 2/C
;
_chemical_formula_sum "Si O2"
_cell_formula_units_Z 36
_cell_length_a 6.613387
_cell_length_b 24.573475
_cell_length_c 12.026555
_cell_angle_alpha 90.000000
_cell_angle_beta 45.822282
_cell_angle_gamma 90.000000
_cell_volume 1401.718935
_symmetry_space_group_name_H-M "C 2/C"
_symmetry_group_IT_number 15
_symmetry_cell_setting 'monoclinic'
loop_
_space_group_symop_operation_xyz
x,y,z
-x,y,1/2-z
-x,-y,-z
x,-y,1/2+z
1/2+x,1/2+y,z
1/2-x,1/2+y,1/2-z
1/2-x,1/2-y,-z
1/2+x,1/2-y,1/2+z
loop_
_atom_site_type_symbol
_atom_site_label
_atom_site_fract_x
_atom_site_fract_y
_atom_site_fract_z
Si Si1 0.000000 0.230178 0.750000
Si Si2 0.500000 0.911736 0.750000
Si Si3 0.000000 0.063419 0.750000
Si Si4 0.763244 0.496214 0.491906
Si Si5 0.565197 0.877660 0.102400
Si Si6 0.551650 0.816497 0.910394
O O1 0.245388 0.200581 0.582892
O O2 0.861844 0.268289 0.706514
O O3 0.565199 0.869716 0.825663
O O4 0.685116 0.956265 0.615056
O O5 0.269527 0.101402 0.663040
O O6 0.988479 0.020144 0.655287
O O7 0.000000 0.500000 0.500000
O O8 0.765196 0.433981 0.454986
O O9 0.500000 0.855922 0.250000
O O10 0.708228 0.835246 0.963477
#
# Coordination Sequence:
#
# PCOD9270902 Si02
#       6
#     4   4   4   8   8   8
#     4   9  21  40  64  92 110 156 228 262 318 366
#     4  11  18  32  63  88 130 159 198 257 298 372
#     4  10  21  38  59  84 132 179 206 229 304 370
#     4  10  20  36  54  92 131 167 202 241 290 379
#     4  11  22  39  61  94 132 166 205 253 306 375
#     4  10  20  37  63  90 117 161 210 267 312 363
#
# _framework density 25.682752000000001
#
# number of rings (size 3 to 8) (size 9 to 14) (size 15 to 20)
#    0.000    1.778    5.556    0.667    0.000    0.889 
#    0.000    1.111    0.000    0.000    0.000    0.000 
#    0.000    0.000    0.000    0.000    0.000    0.000 
#
# Total GULP energy -100224.183107 kJ/mol
# GULP energy per Si atom -5568.010173 kJ/mol
# Density = 2.562430 g / cm^3
# Si number density = 25.682752 Si / 1000 Ang^3
#
#
#
# Elastic Constant Matrix: (Units=GPa)
#
#
# Indices 1 2 3 4 5 6 
#
# 1 95.3726 23.4129 12.7816 0.0000 14.8544 0.0000
# 2 23.4129 122.6808 51.7626 0.0000 19.3890 0.0000
# 3 12.7816 51.7626 158.6423 0.0000 43.1047 0.0000
# 4 0.0000 0.0000 0.0000 32.1862 0.0000 22.9377
# 5 14.8544 19.3890 43.1047 0.0000 43.3674 0.0000
# 6 0.0000 0.0000 0.0000 22.9377 0.0000 20.5437
#
#
#
# Elastic Compliance Matrix: (Units=1/GPa)
#
#
# Indices 1 2 3 4 5 6 
#
# 1 0.011443 -0.001890 0.000726 0.000000 -0.003796 0.000000
# 2 -0.001890 0.009846 -0.002795 0.000000 -0.000976 0.000000
# 3 0.000726 -0.002795 0.009432 0.000000 -0.008374 0.000000
# 4 0.000000 0.000000 0.000000 0.152081 0.000000 -0.169804
# 5 -0.003796 -0.000976 -0.008374 0.000000 0.033119 0.000000
# 6 0.000000 0.000000 0.000000 -0.169804 0.000000 0.238269
#
#
# Mechanical properties :
#
#
# Convention : Reuss Voigt Hill
#
# Bulk Modulus (GPa) = 43.85327 61.40110 52.62718
# Shear Modulus (GPa) = 10.64489 38.46870 24.55680
#
# Velocity S-wave (km/s) = 2.03808 3.87439 3.09554
# Velocity P-wave (km/s) = 4.75924 6.63129 5.77167
#
# Compressibility (1/GPa) = 0.02280332
#
# Stress axis : x y z
#
# Youngs Moduli (GPa) = 87.38823 101.56889 106.01873
#
# Poissons Ratio (x) = 0.19200 -0.07700
# Poissons Ratio (y) = 0.16519 0.29631
# Poissons Ratio (z) = -0.06347 0.28387
#
# Static dielectric constant tensor:
#      x y z
#    x 2.234360 0.000000 -0.020780 
#    y 0.000000 2.048130 0.000000 
#    z -0.020780 0.000000 2.432830 
# 
# From -- ./inp_files/78955.got.cif
#   From: 2010.05.17/outbox.cif.g08.bks.cpg/sg15_40_cif.got.tgz:78955.got - 2010.06.03 18:47:42.
