data_PCOD9270649
_publ_section_title
;
Structure prediction by ZEFSAII (Michael W. Deem and Ramdas Pophale) SiO2 
 PCOD9270649
Probable space group: C 2/C
;
_chemical_formula_sum "Si O2"
_cell_formula_units_Z 64
_cell_length_a 18.826995
_cell_length_b 9.048563
_cell_length_c 27.554883
_cell_angle_alpha 90.000000
_cell_angle_beta 42.302351
_cell_angle_gamma 90.000000
_cell_volume 3159.380372
_symmetry_space_group_name_H-M "C 2/C"
_symmetry_group_IT_number 15
_symmetry_cell_setting 'monoclinic'
loop_
_space_group_symop_operation_xyz
x,y,z
-x,y,1/2-z
-x,-y,-z
x,-y,1/2+z
1/2+x,1/2+y,z
1/2-x,1/2+y,1/2-z
1/2-x,1/2-y,-z
1/2+x,1/2-y,1/2+z
loop_
_atom_site_type_symbol
_atom_site_label
_atom_site_fract_x
_atom_site_fract_y
_atom_site_fract_z
Si Si1 0.874197 0.854454 0.670566
Si Si2 0.122530 0.482683 0.174641
Si Si3 0.242047 0.384401 0.211636
Si Si4 0.728702 0.703009 0.079072
Si Si5 0.399785 0.819270 0.063359
Si Si6 0.770755 0.804838 0.544245
Si Si7 0.883350 0.081485 0.448549
Si Si8 0.371959 0.851043 0.594527
O O1 0.844174 0.715242 0.718334
O O2 0.868915 0.805844 0.617032
O O3 0.993034 0.903903 0.619962
O O4 0.791113 0.986093 0.719223
O O5 0.191081 0.453932 0.188782
O O6 0.146759 0.336938 0.129847
O O7 0.168703 0.622337 0.121693
O O8 0.000000 0.496355 0.250000
O O9 0.337041 0.270245 0.151071
O O10 0.674536 0.578469 0.074160
O O11 0.774150 0.649600 0.106716
O O12 0.828976 0.774884 0.000586
O O13 0.326193 0.809029 0.052989
O O14 0.391939 0.976728 0.094776
O O15 0.519986 0.799373 0.985422
O O16 0.750000 0.750000 0.500000
O O17 0.851504 0.942464 0.497056
#
# Coordination Sequence:
#
# PCOD9270649 Si02
#       8
#     8   8   8   8   8   8   8   8
#     4  12  23  41  63  91 127 170 217 259 330 384
#     4  10  21  41  62  88 126 171 208 266 331 380
#     4  11  24  41  63  90 129 166 213 268 318 394
#     4   9  18  35  61  89 121 157 215 258 304 380
#     4  11  22  39  63  92 127 168 210 265 318 386
#     4  11  23  41  62  94 131 169 219 269 322 386
#     4  10  20  35  61  91 121 166 212 260 310 379
#     4  10  21  39  62  91 124 164 208 262 322 373
#
# _framework density 20.257137
#
# number of rings (size 3 to 8) (size 9 to 14) (size 15 to 20)
#    0.000    1.500    2.500    3.000    0.000    1.000 
#    9.000    0.000    0.000    1.500    0.000    0.000 
#    0.000    0.000    0.000    0.000    0.000    0.000 
#
# Total GULP energy -178642.821767 kJ/mol
# GULP energy per Si atom -5582.588180 kJ/mol
# Density = 2.021103 g / cm^3
# Si number density = 20.257137 Si / 1000 Ang^3
#
#
#
# Elastic Constant Matrix: (Units=GPa)
#
#
# Indices 1 2 3 4 5 6 
#
# 1 53.1224 13.8822 12.7084 0.0000 0.9043 0.0003
# 2 13.8822 55.1748 29.7359 0.0000 -6.8637 0.0006
# 3 12.7084 29.7359 108.5989 0.0000 -20.1119 0.0000
# 4 0.0000 0.0000 0.0000 30.9961 0.0000 11.9828
# 5 0.9043 -6.8637 -20.1119 0.0000 25.3141 0.0000
# 6 0.0003 0.0006 0.0000 11.9828 0.0000 24.8445
#
#
#
# Elastic Compliance Matrix: (Units=1/GPa)
#
#
# Indices 1 2 3 4 5 6 
#
# 1 0.020514 -0.004635 -0.001759 0.000000 -0.003387 0.000000
# 2 -0.004635 0.022348 -0.005187 0.000000 0.002104 -0.000001
# 3 -0.001759 -0.005187 0.012412 0.000000 0.008517 0.000000
# 4 0.000000 0.000000 0.000000 0.039656 0.000000 -0.019127
# 5 -0.003387 0.002104 0.008517 0.000000 0.046962 0.000000
# 6 0.000000 -0.000001 0.000000 -0.019127 0.000000 0.049475
#
#
# Mechanical properties :
#
#
# Convention : Reuss Voigt Hill
#
# Bulk Modulus (GPa) = 31.14105 36.61658 33.87882
# Shear Modulus (GPa) = 22.19928 26.93559 24.56743
#
# Velocity S-wave (km/s) = 3.31399 3.65044 3.48628
# Velocity P-wave (km/s) = 5.48175 5.99022 5.74162
#
# Compressibility (1/GPa) = 0.03211196
#
# Stress axis : x y z
#
# Youngs Moduli (GPa) = 48.74714 44.74750 80.56932
#
# Poissons Ratio (x) = 0.20740 0.14170
# Poissons Ratio (y) = 0.22594 0.41792
# Poissons Ratio (z) = 0.08573 0.23211
#
# Static dielectric constant tensor:
#      x y z
#    x 1.716180 0.000000 0.030900 
#    y 0.000000 1.735830 0.000000 
#    z 0.030900 0.000000 1.703350 
# 
# From -- ./inp_files/315708.got.cif
#   From: 2010.05.17/outbox.cif.g08.bks.cpg/sg15_158_cif.got.tgz:315708.got - 2010.06.03 18:47:42.
