data_PCOD9270647
_publ_section_title
;
Structure prediction by ZEFSAII (Michael W. Deem and Ramdas Pophale) SiO2 
 PCOD9270647
Probable space group: C 2/C
;
_chemical_formula_sum "Si O2"
_cell_formula_units_Z 60
_cell_length_a 25.297252
_cell_length_b 17.917009
_cell_length_c 10.227245
_cell_angle_alpha 90.000000
_cell_angle_beta 31.797454
_cell_angle_gamma 90.000000
_cell_volume 2442.533773
_symmetry_space_group_name_H-M "C 2/C"
_symmetry_group_IT_number 15
_symmetry_cell_setting 'monoclinic'
loop_
_space_group_symop_operation_xyz
x,y,z
-x,y,1/2-z
-x,-y,-z
x,-y,1/2+z
1/2+x,1/2+y,z
1/2-x,1/2+y,1/2-z
1/2-x,1/2-y,-z
1/2+x,1/2-y,1/2+z
loop_
_atom_site_type_symbol
_atom_site_label
_atom_site_fract_x
_atom_site_fract_y
_atom_site_fract_z
Si Si1 0.705520 0.971769 0.720212
Si Si2 0.500000 0.015029 0.250000
Si Si3 0.884669 0.058557 0.043762
Si Si4 0.089655 0.615865 0.248856
Si Si5 0.642529 0.271482 0.172817
Si Si6 0.888037 0.780147 0.550710
Si Si7 0.219324 0.361455 0.217209
Si Si8 0.604351 0.392332 0.458082
O O1 0.801482 0.947198 0.602944
O O2 0.670322 0.921567 0.673804
O O3 0.722095 0.058114 0.642504
O O4 0.604368 0.970432 0.024008
O O5 0.502585 0.061430 0.382246
O O6 0.877818 0.137732 0.135233
O O7 0.000000 0.060823 0.750000
O O8 0.870998 0.977276 0.137575
O O9 0.069937 0.699179 0.340847
O O10 0.140649 0.627968 0.001674
O O11 0.666912 0.288645 0.972107
O O12 0.600305 0.340043 0.341243
O O13 0.750000 0.250000 0.000000
O O14 0.831317 0.711839 0.741029
O O15 0.000000 0.767757 0.250000
O O16 0.320593 0.357753 0.090555
O O17 0.500000 0.396230 0.750000
#
# Coordination Sequence:
#
# PCOD9270647 Si02
#       8
#     8   4   8   8   8   8   8   8
#     4  10  20  35  61  90 133 162 208 261 319 383
#     4  10  22  38  56  94 128 170 198 264 324 364
#     4   9  20  38  60  91 124 165 208 263 316 371
#     4  10  20  35  62  93 124 162 216 257 307 378
#     4  11  20  35  64  94 117 163 216 257 300 377
#     4  10  20  36  64  93 118 154 215 270 303 356
#     4   9  20  35  63  90 121 163 204 268 302 365
#     4  10  20  39  60  90 128 162 201 256 324 369
#
# _framework density 24.564655999999999
#
# number of rings (size 3 to 8) (size 9 to 14) (size 15 to 20)
#    0.000    2.133    2.667    1.200    8.400    0.000 
#    1.200    6.000   11.733    0.800    0.000    0.000 
#    0.000    0.000    0.000    0.000    0.000    0.000 
#
# Total GULP energy -167275.089676 kJ/mol
# GULP energy per Si atom -5575.836323 kJ/mol
# Density = 2.450875 g / cm^3
# Si number density = 24.564656 Si / 1000 Ang^3
#
#
#
# Elastic Constant Matrix: (Units=GPa)
#
#
# Indices 1 2 3 4 5 6 
#
# 1 62.8013 23.6156 7.8518 0.0000 -24.0403 0.0000
# 2 23.6156 201.3307 23.9007 0.0000 0.2860 0.0000
# 3 7.8518 23.9007 67.1461 0.0000 -29.3081 0.0000
# 4 0.0000 0.0000 0.0000 30.4297 0.0000 6.5432
# 5 -24.0403 0.2860 -29.3081 0.0000 40.3488 0.0000
# 6 0.0000 0.0000 0.0000 6.5432 0.0000 13.9552
#
#
#
# Elastic Compliance Matrix: (Units=1/GPa)
#
#
# Indices 1 2 3 4 5 6 
#
# 1 0.023778 -0.003635 0.006894 0.000000 0.019201 0.000000
# 2 -0.003635 0.005856 -0.003841 0.000000 -0.004997 0.000000
# 3 0.006894 -0.003841 0.025270 0.000000 0.022490 0.000000
# 4 0.000000 0.000000 0.000000 0.036547 0.000000 -0.017136
# 5 0.019201 -0.004997 0.022490 0.000000 0.052596 0.000000
# 6 0.000000 0.000000 0.000000 -0.017136 0.000000 0.079692
#
#
# Mechanical properties :
#
#
# Convention : Reuss Voigt Hill
#
# Bulk Modulus (GPa) = 18.60735 49.11270 33.86002
# Shear Modulus (GPa) = 20.59165 35.34075 27.96620
#
# Velocity S-wave (km/s) = 2.89842 3.79711 3.37779
# Velocity P-wave (km/s) = 4.33502 6.26584 5.38763
#
# Compressibility (1/GPa) = 0.05374220
#
# Stress axis : x y z
#
# Youngs Moduli (GPa) = 42.05553 170.75539 39.57192
#
# Poissons Ratio (x) = 0.62066 -0.27281
# Poissons Ratio (y) = 0.15286 0.15198
# Poissons Ratio (z) = -0.28993 0.65579
#
# Static dielectric constant tensor:
#      x y z
#    x 2.041640 0.000000 -0.080700 
#    y 0.000000 2.191170 0.000000 
#    z -0.080700 0.000000 2.020700 
# 
# From -- ./inp_files/123995.got.cif
#   From: 2010.05.17/outbox.cif.g08.bks.cpg/sg15_62_cif.got.tgz:123995.got - 2010.06.03 18:47:42.
