data_PCOD9270097
_publ_section_title
;
Structure prediction by ZEFSAII (Michael W. Deem and Ramdas Pophale) SiO2 
 PCOD9270097
Probable space group: C 2/C
;
_chemical_formula_sum "Si O2"
_cell_formula_units_Z 24
_cell_length_a 7.850783
_cell_length_b 10.914247
_cell_length_c 20.002294
_cell_angle_alpha 90.000000
_cell_angle_beta 144.041774
_cell_angle_gamma 90.000000
_cell_volume 1006.396434
_symmetry_space_group_name_H-M "C 2/C"
_symmetry_group_IT_number 15
_symmetry_cell_setting 'monoclinic'
loop_
_space_group_symop_operation_xyz
x,y,z
-x,y,1/2-z
-x,-y,-z
x,-y,1/2+z
1/2+x,1/2+y,z
1/2-x,1/2+y,1/2-z
1/2-x,1/2-y,-z
1/2+x,1/2-y,1/2+z
loop_
_atom_site_type_symbol
_atom_site_label
_atom_site_fract_x
_atom_site_fract_y
_atom_site_fract_z
Si Si1 0.854421 0.613151 0.551015
Si Si2 0.851167 0.768550 0.139214
Si Si3 0.934561 0.105880 0.911667
O O1 0.750000 0.750000 0.500000
O O2 0.837189 0.588464 0.625493
O O3 0.617909 0.514877 0.451001
O O4 0.163696 0.618930 0.612003
O O5 0.088612 0.815933 0.162401
O O6 0.000000 0.705530 0.250000
O O7 0.649577 0.682038 0.030045
#
# Coordination Sequence:
#
# PCOD9270097 Si02
#       3
#     8   8   8
#     4   9  18  36  59  78 108 147 185 222 282 327
#     4  10  20  35  55  83 110 143 187 226 275 330
#     4   9  19  37  58  76 113 148 177 232 274 323
#
# _framework density 23.847460000000002
#
# number of rings (size 3 to 8) (size 9 to 14) (size 15 to 20)
#    0.000    2.667    0.000    1.000    0.000    1.333 
#   18.000    0.000    0.000    0.000    0.000    0.000 
#    0.000    0.000    0.000    0.000    0.000    0.000 
#
# Total GULP energy -66809.574223 kJ/mol
# GULP energy per Si atom -5567.464519 kJ/mol
# Density = 2.379318 g / cm^3
# Si number density = 23.847460 Si / 1000 Ang^3
#
#
#
# Elastic Constant Matrix: (Units=GPa)
#
#
# Indices 1 2 3 4 5 6 
#
# 1 122.1984 28.4966 16.9969 0.0000 -17.5869 0.0000
# 2 28.4966 69.9054 13.2798 0.0000 -8.4170 0.0000
# 3 16.9969 13.2798 75.4770 0.0000 -14.0512 0.0000
# 4 0.0000 0.0000 0.0000 15.6843 0.0000 -5.4110
# 5 -17.5869 -8.4170 -14.0512 0.0000 48.0656 0.0000
# 6 0.0000 0.0000 0.0000 -5.4110 0.0000 32.5148
#
#
#
# Elastic Compliance Matrix: (Units=1/GPa)
#
#
# Indices 1 2 3 4 5 6 
#
# 1 0.009484 -0.003354 -0.001067 0.000000 0.002571 0.000000
# 2 -0.003354 0.016158 -0.001892 0.000000 0.001049 0.000000
# 3 -0.001067 -0.001892 0.014476 0.000000 0.003510 0.000000
# 4 0.000000 0.000000 0.000000 0.067642 0.000000 0.011257
# 5 0.002571 0.001049 0.003510 0.000000 0.022955 0.000000
# 6 0.000000 0.000000 0.000000 0.011257 0.000000 0.032628
#
#
# Mechanical properties :
#
#
# Convention : Reuss Voigt Hill
#
# Bulk Modulus (GPa) = 36.37515 42.79196 39.58356
# Shear Modulus (GPa) = 27.00755 33.17344 30.09049
#
# Velocity S-wave (km/s) = 3.36893 3.73375 3.55602
# Velocity P-wave (km/s) = 5.51537 6.04738 5.78749
#
# Compressibility (1/GPa) = 0.02749129
#
# Stress axis : x y z
#
# Youngs Moduli (GPa) = 105.44138 61.88873 69.08113
#
# Poissons Ratio (x) = 0.20756 0.07371
# Poissons Ratio (y) = 0.35363 0.13073
# Poissons Ratio (z) = 0.11251 0.11712
#
# Static dielectric constant tensor:
#      x y z
#    x 2.005840 0.000000 0.048330 
#    y 0.000000 1.921680 0.000000 
#    z 0.048330 0.000000 1.968380 
# 
# From -- ./inp_files/74726.got.cif
#   From: 2010.05.17/outbox.cif.g08.bks.cpg/sg15_38_cif.got.tgz:74726.got - 2010.06.03 18:47:42.
