data_PCOD9270692
_publ_section_title
;
Structure prediction by ZEFSAII (Michael W. Deem and Ramdas Pophale) SiO2 
 PCOD9270692
Probable space group: C 2/C
;
_chemical_formula_sum "Si O2"
_cell_formula_units_Z 48
_cell_length_a 20.480635
_cell_length_b 18.489177
_cell_length_c 11.842576
_cell_angle_alpha 90.000000
_cell_angle_beta 146.890376
_cell_angle_gamma 90.000000
_cell_volume 2449.586596
_symmetry_space_group_name_H-M "C 2/C"
_symmetry_group_IT_number 15
_symmetry_cell_setting 'monoclinic'
loop_
_space_group_symop_operation_xyz
x,y,z
-x,y,1/2-z
-x,-y,-z
x,-y,1/2+z
1/2+x,1/2+y,z
1/2-x,1/2+y,1/2-z
1/2-x,1/2-y,-z
1/2+x,1/2-y,1/2+z
loop_
_atom_site_type_symbol
_atom_site_label
_atom_site_fract_x
_atom_site_fract_y
_atom_site_fract_z
Si Si1 0.461555 0.191772 0.023445
Si Si2 0.912877 0.739675 0.524249
Si Si3 0.718430 0.164897 0.464702
Si Si4 0.721290 0.384409 0.200898
Si Si5 0.672087 0.332416 0.606111
Si Si6 0.939657 0.979516 0.034731
O O1 0.516196 0.226321 0.989052
O O2 0.353080 0.136149 0.845160
O O3 0.405087 0.258967 0.010680
O O4 0.576248 0.156556 0.248786
O O5 0.869610 0.822502 0.474365
O O6 0.792147 0.692156 0.344212
O O7 0.000000 0.718651 0.750000
O O8 0.750000 0.250000 0.500000
O O9 0.766915 0.131510 0.648564
O O10 0.784553 0.136182 0.450702
O O11 0.669721 0.463689 0.109086
O O12 0.597301 0.397345 0.546268
O O13 0.000000 0.980924 0.250000
O O14 0.000000 0.000000 0.000000
#
# Coordination Sequence:
#
# PCOD9270692 Si02
#       6
#     8   8   8   8   8   8
#     4  10  20  35  62  89 112 151 205 267 303 358
#     4  10  21  37  56  83 117 154 199 252 311 364
#     4  11  19  36  64  94 120 150 213 269 311 359
#     4  11  22  36  58  91 122 156 204 254 315 375
#     4  10  23  37  61  89 118 158 208 257 312 371
#     4  12  27  43  63  89 130 172 209 259 322 384
#
# _framework density 19.595143
#
# number of rings (size 3 to 8) (size 9 to 14) (size 15 to 20)
#    0.000    1.333    5.000    3.000    2.333    4.000 
#    0.000    5.000    0.000    0.000    0.000    0.000 
#    0.000    0.000    0.000    0.000    0.000    0.000 
#
# Total GULP energy -133836.878357 kJ/mol
# GULP energy per Si atom -5576.536598 kJ/mol
# Density = 1.955054 g / cm^3
# Si number density = 19.595143 Si / 1000 Ang^3
#
#
#
# Elastic Constant Matrix: (Units=GPa)
#
#
# Indices 1 2 3 4 5 6 
#
# 1 70.8345 -0.5787 33.2012 0.0000 8.5032 0.0000
# 2 -0.5787 62.1538 19.5706 0.0000 8.3112 0.0000
# 3 33.2012 19.5706 100.7331 0.0000 -1.0112 0.0000
# 4 0.0000 0.0000 0.0000 16.2761 0.0000 10.0798
# 5 8.5032 8.3112 -1.0112 0.0000 32.2266 0.0000
# 6 0.0000 0.0000 0.0000 10.0798 0.0000 31.1540
#
#
#
# Elastic Compliance Matrix: (Units=1/GPa)
#
#
# Indices 1 2 3 4 5 6 
#
# 1 0.017887 0.002985 -0.006533 0.000000 -0.005694 0.000000
# 2 0.002985 0.018322 -0.004600 0.000000 -0.005657 0.000000
# 3 -0.006533 -0.004600 0.013007 0.000000 0.003318 0.000000
# 4 0.000000 0.000000 0.000000 0.076836 0.000000 -0.024860
# 5 -0.005694 -0.005657 0.003318 0.000000 0.034096 0.000000
# 6 0.000000 0.000000 0.000000 -0.024860 0.000000 0.040142
#
#
# Mechanical properties :
#
#
# Convention : Reuss Voigt Hill
#
# Bulk Modulus (GPa) = 30.37593 37.56750 33.97171
# Shear Modulus (GPa) = 21.97226 28.03322 25.00274
#
# Velocity S-wave (km/s) = 3.35223 3.78646 3.57594
# Velocity P-wave (km/s) = 5.52437 6.19111 5.86722
#
# Compressibility (1/GPa) = 0.03292081
#
# Stress axis : x y z
#
# Youngs Moduli (GPa) = 55.90542 54.57951 76.87916
#
# Poissons Ratio (x) = -0.16292 0.50223
# Poissons Ratio (y) = -0.16688 0.35366
# Poissons Ratio (z) = 0.36521 0.25108
#
# Static dielectric constant tensor:
#      x y z
#    x 1.794770 0.000000 -0.026110 
#    y 0.000000 1.663840 0.000000 
#    z -0.026110 0.000000 1.712150 
# 
# From -- ./inp_files/114307.got.cif
#   From: 2010.05.17/outbox.cif.g08.bks.cpg/sg15_58_cif.got.tgz:114307.got - 2010.06.03 18:47:42.
