data_PCOD9270832
_publ_section_title
;
Structure prediction by ZEFSAII (Michael W. Deem and Ramdas Pophale) SiO2 
 PCOD9270832
Probable space group: C 2/C
;
_chemical_formula_sum "Si O2"
_cell_formula_units_Z 60
_cell_length_a 17.350770
_cell_length_b 14.309773
_cell_length_c 22.912880
_cell_angle_alpha 90.000000
_cell_angle_beta 30.756999
_cell_angle_gamma 90.000000
_cell_volume 2909.311725
_symmetry_space_group_name_H-M "C 2/C"
_symmetry_group_IT_number 15
_symmetry_cell_setting 'monoclinic'
loop_
_space_group_symop_operation_xyz
x,y,z
-x,y,1/2-z
-x,-y,-z
x,-y,1/2+z
1/2+x,1/2+y,z
1/2-x,1/2+y,1/2-z
1/2-x,1/2-y,-z
1/2+x,1/2-y,1/2+z
loop_
_atom_site_type_symbol
_atom_site_label
_atom_site_fract_x
_atom_site_fract_y
_atom_site_fract_z
Si Si1 0.500000 0.188119 0.750000
Si Si2 0.064816 0.001759 0.147840
Si Si3 0.887248 0.953055 0.156265
Si Si4 0.925432 0.869868 0.559284
Si Si5 0.821527 0.648785 0.971315
Si Si6 0.810913 0.264147 0.593960
Si Si7 0.412742 0.281281 0.367804
Si Si8 0.692470 0.741032 0.769986
O O1 0.445545 0.131229 0.841571
O O2 0.639230 0.246353 0.686128
O O3 0.106292 0.893094 0.127866
O O4 0.000000 0.038673 0.250000
O O5 0.934373 0.001483 0.184961
O O6 0.200618 0.067985 0.043075
O O7 0.772844 0.868730 0.240674
O O8 0.857326 0.036840 0.131866
O O9 0.033225 0.899858 0.033102
O O10 0.812888 0.787868 0.649024
O O11 0.086728 0.830506 0.478299
O O12 0.750000 0.750000 0.000000
O O13 0.870439 0.662919 0.006761
O O14 0.815438 0.286717 0.660141
O O15 0.500000 0.249859 0.250000
O O16 0.250000 0.250000 0.500000
O O17 0.535514 0.257212 0.337574
#
# Coordination Sequence:
#
# PCOD9270832 Si02
#       8
#     4   8   8   8   8   8   8   8
#     4  10  20  36  50  92 134 178 212 250 298 396
#     4  10  22  39  63  92 129 174 214 261 338 401
#     4   9  20  38  61  91 126 168 220 260 329 401
#     4  10  20  38  64  94 125 174 216 268 324 397
#     4  10  21  34  59  91 133 170 209 253 313 395
#     4  10  21  35  60  94 134 175 212 257 332 398
#     4  10  24  46  71  96 126 170 233 293 341 394
#     4  10  22  38  67  96 124 169 219 275 339 392
#
# _framework density 20.623435000000001
#
# number of rings (size 3 to 8) (size 9 to 14) (size 15 to 20)
#    0.000    2.133    0.000    2.400   11.200    0.000 
#    1.200    5.333    0.000    4.000    0.000    0.000 
#    0.000    0.000    0.000    0.000    0.000    0.000 
#
# Total GULP energy -167017.743407 kJ/mol
# GULP energy per Si atom -5567.258114 kJ/mol
# Density = 2.057649 g / cm^3
# Si number density = 20.623435 Si / 1000 Ang^3
#
#
#
# Elastic Constant Matrix: (Units=GPa)
#
#
# Indices 1 2 3 4 5 6 
#
# 1 98.9056 6.0171 33.6710 -0.0004 11.8936 0.0001
# 2 6.0171 55.5606 34.1254 -0.0001 -7.6467 0.0001
# 3 33.6710 34.1254 112.1007 -0.0011 1.7240 0.0005
# 4 -0.0004 -0.0001 -0.0011 37.1730 0.0002 1.8789
# 5 11.8936 -7.6467 1.7240 0.0002 33.8333 0.0000
# 6 0.0001 0.0001 0.0005 1.8789 0.0000 11.6661
#
#
#
# Elastic Compliance Matrix: (Units=1/GPa)
#
#
# Indices 1 2 3 4 5 6 
#
# 1 0.011777 0.000404 -0.003601 0.000000 -0.003865 0.000000
# 2 0.000404 0.023164 -0.007257 0.000000 0.005463 0.000000
# 3 -0.003601 -0.007257 0.012227 0.000000 -0.000997 0.000000
# 4 0.000000 0.000000 0.000000 0.027122 0.000000 -0.004368
# 5 -0.003865 0.005463 -0.000997 0.000000 0.032201 0.000000
# 6 0.000000 0.000000 0.000000 -0.004368 0.000000 0.086422
#
#
# Mechanical properties :
#
#
# Convention : Reuss Voigt Hill
#
# Bulk Modulus (GPa) = 38.08072 46.02155 42.05113
# Shear Modulus (GPa) = 22.46466 29.38471 25.92469
#
# Velocity S-wave (km/s) = 3.30400 3.77878 3.54934
# Velocity P-wave (km/s) = 5.74979 6.43448 6.10174
#
# Compressibility (1/GPa) = 0.02626001
#
# Stress axis : x y z
#
# Youngs Moduli (GPa) = 84.91319 43.17121 81.78889
#
# Poissons Ratio (x) = -0.01746 0.29452
# Poissons Ratio (y) = -0.03434 0.59353
# Poissons Ratio (z) = 0.30577 0.31329
#
# Static dielectric constant tensor:
#      x y z
#    x 1.778380 0.000000 0.023840 
#    y 0.000000 1.748010 0.000000 
#    z 0.023840 0.000000 1.803240 
# 
# From -- ./inp_files/277558.got.cif
#   From: 2010.05.17/outbox.cif.g08.bks.cpg/sg15_139_cif.got.tgz:277558.got - 2010.06.03 18:47:42.
