data_PCOD9270804
_publ_section_title
;
Structure prediction by ZEFSAII (Michael W. Deem and Ramdas Pophale) SiO2 
 PCOD9270804
Probable space group: C 2/C
;
_chemical_formula_sum "Si O2"
_cell_formula_units_Z 40
_cell_length_a 9.791079
_cell_length_b 17.681142
_cell_length_c 10.769188
_cell_angle_alpha 90.000000
_cell_angle_beta 77.741249
_cell_angle_gamma 90.000000
_cell_volume 1821.825182
_symmetry_space_group_name_H-M "C 2/C"
_symmetry_group_IT_number 15
_symmetry_cell_setting 'monoclinic'
loop_
_space_group_symop_operation_xyz
x,y,z
-x,y,1/2-z
-x,-y,-z
x,-y,1/2+z
1/2+x,1/2+y,z
1/2-x,1/2+y,1/2-z
1/2-x,1/2-y,-z
1/2+x,1/2-y,1/2+z
loop_
_atom_site_type_symbol
_atom_site_label
_atom_site_fract_x
_atom_site_fract_y
_atom_site_fract_z
Si Si1 0.851119 0.329871 0.325643
Si Si2 0.358778 0.293226 0.353639
Si Si3 0.081507 0.076366 0.459578
Si Si4 0.840718 0.371273 0.805274
Si Si5 0.834007 0.160516 0.407470
O O1 0.761129 0.318030 0.218647
O O2 0.877222 0.248609 0.387941
O O3 0.750145 0.364350 0.451371
O O4 0.000000 0.361870 0.250000
O O5 0.500000 0.279568 0.250000
O O6 0.400887 0.362122 0.434471
O O7 0.328736 0.204701 0.395065
O O8 0.239297 0.065650 0.381491
O O9 0.980022 0.117640 0.382417
O O10 0.000000 0.000000 0.500000
O O11 0.769177 0.351863 0.687647
O O12 0.000000 0.392431 0.750000
#
# Coordination Sequence:
#
# PCOD9270804 Si02
#       5
#     8   8   8   8   8
#     4  10  20  35  66  97 127 162 222 291 328 376
#     4  10  20  39  65  99 129 169 231 283 329 390
#     4  12  25  42  66  95 139 185 214 270 347 432
#     4  10  23  41  67  98 126 173 230 291 324 386
#     4  10  21  40  60  95 132 173 218 265 341 399
#
# _framework density 21.956002999999999
#
# number of rings (size 3 to 8) (size 9 to 14) (size 15 to 20)
#    0.000    1.600    2.000    3.600    5.600    1.600 
#    0.000    2.000    0.000    0.000    0.000    0.000 
#    0.000    0.000    0.000    0.000    0.000    0.000 
#
# Total GULP energy -111474.638589 kJ/mol
# GULP energy per Si atom -5573.731929 kJ/mol
# Density = 2.190603 g / cm^3
# Si number density = 21.956003 Si / 1000 Ang^3
#
#
#
# Elastic Constant Matrix: (Units=GPa)
#
#
# Indices 1 2 3 4 5 6 
#
# 1 160.8088 44.6159 27.6588 0.0000 -12.8194 0.0000
# 2 44.6159 83.7256 41.1893 0.0000 -2.7865 0.0000
# 3 27.6588 41.1893 73.2637 0.0000 -6.2321 0.0000
# 4 0.0000 0.0000 0.0000 -7.4392 0.0000 -7.3182
# 5 -12.8194 -2.7865 -6.2321 0.0000 39.7056 0.0000
# 6 0.0000 0.0000 0.0000 -7.3182 0.0000 29.8856
#
#
#
# Elastic Compliance Matrix: (Units=1/GPa)
#
#
# Indices 1 2 3 4 5 6 
#
# 1 0.007494 -0.003621 -0.000618 0.000000 0.002069 0.000000
# 2 -0.003621 0.018263 -0.009011 0.000000 -0.001302 0.000000
# 3 -0.000618 -0.009011 0.019133 0.000000 0.002171 0.000000
# 4 0.000000 0.000000 0.000000 -0.108328 0.000000 -0.026527
# 5 0.002069 -0.001302 0.002171 0.000000 0.026103 0.000000
# 6 0.000000 0.000000 0.000000 -0.026527 0.000000 0.026965
#
#
# Mechanical properties :
#
#
# Convention : Reuss Voigt Hill
#
# Bulk Modulus (GPa) = 54.37424 60.52512 57.44968
# Shear Modulus (GPa) = 224.60310 26.05266 125.32788
#
# Velocity S-wave (km/s) = 10.12517 3.44842 7.56342
# Velocity P-wave (km/s) = 12.70869 6.59408 10.12405
#
# Compressibility (1/GPa) = 0.01839106
#
# Stress axis : x y z
#
# Youngs Moduli (GPa) = 133.43466 54.75495 52.26441
#
# Poissons Ratio (x) = 0.19826 0.03228
# Poissons Ratio (y) = 0.48315 0.47098
# Poissons Ratio (z) = 0.08241 0.49342
#
# Static dielectric constant tensor:
#      x y z
#    x 1.900590 0.000000 -0.100940 
#    y 0.000000 1.872410 0.000000 
#    z -0.100940 0.000000 1.920300 
# 
# From -- ./inp_files/76703.got.cif
#   From: 2010.05.17/outbox.cif.g08.bks.cpg/sg15_39_cif.got.tgz:76703.got - 2010.06.03 18:47:42.
