data_PCOD9270786
_publ_section_title
;
Structure prediction by ZEFSAII (Michael W. Deem and Ramdas Pophale) SiO2 
 PCOD9270786
Probable space group: C 2/C
;
_chemical_formula_sum "Si O2"
_cell_formula_units_Z 48
_cell_length_a 8.539054
_cell_length_b 15.801140
_cell_length_c 17.242051
_cell_angle_alpha 90.000000
_cell_angle_beta 62.207300
_cell_angle_gamma 90.000000
_cell_volume 2058.040279
_symmetry_space_group_name_H-M "C 2/C"
_symmetry_group_IT_number 15
_symmetry_cell_setting 'monoclinic'
loop_
_space_group_symop_operation_xyz
x,y,z
-x,y,1/2-z
-x,-y,-z
x,-y,1/2+z
1/2+x,1/2+y,z
1/2-x,1/2+y,1/2-z
1/2-x,1/2-y,-z
1/2+x,1/2-y,1/2+z
loop_
_atom_site_type_symbol
_atom_site_label
_atom_site_fract_x
_atom_site_fract_y
_atom_site_fract_z
Si Si1 0.553974 0.606274 0.327194
Si Si2 0.828160 0.603384 0.090326
Si Si3 0.154439 0.960805 0.408222
Si Si4 0.517601 0.724409 0.911852
Si Si5 0.192201 0.264106 0.378664
Si Si6 0.462897 0.936230 0.108324
O O1 0.500000 0.610645 0.250000
O O2 0.357256 0.614406 0.410611
O O3 0.636095 0.519286 0.337059
O O4 0.673483 0.682713 0.328994
O O5 0.869333 0.690289 0.123925
O O6 0.833200 0.516475 0.137349
O O7 0.983350 0.587159 0.992636
O O8 0.354101 0.964763 0.394475
O O9 0.117884 0.863417 0.397746
O O10 0.000000 0.000000 0.500000
O O11 0.382644 0.717626 0.871573
O O12 0.418432 0.738952 0.017609
O O13 0.120673 0.346412 0.348927
#
# Coordination Sequence:
#
# PCOD9270786 Si02
#       6
#     8   8   8   8   8   8
#     4  12  25  41  59  89 130 165 198 250 319 379
#     4  10  20  37  60  93 122 157 200 256 306 357
#     4  12  21  37  61  91 121 162 207 253 299 358
#     4  10  20  35  65  92 119 148 209 260 292 347
#     4  10  20  37  60  93 119 155 199 252 306 356
#     4  10  20  35  65  92 119 151 209 262 297 348
#
# _framework density 23.323157999999999
#
# number of rings (size 3 to 8) (size 9 to 14) (size 15 to 20)
#    0.000    1.333    3.333    3.000    4.667    2.667 
#    0.000   10.000    0.000    0.000    0.000    0.000 
#    0.000    0.000    0.000    0.000    0.000    0.000 
#
# Total GULP energy -134092.081564 kJ/mol
# GULP energy per Si atom -5587.170065 kJ/mol
# Density = 2.327007 g / cm^3
# Si number density = 23.323158 Si / 1000 Ang^3
#
#
#
# Elastic Constant Matrix: (Units=GPa)
#
#
# Indices 1 2 3 4 5 6 
#
# 1 116.9491 44.5093 5.9843 0.0000 20.3940 0.0000
# 2 44.5093 165.6570 17.6327 0.0000 16.1291 0.0000
# 3 5.9843 17.6327 64.3421 0.0000 19.8854 0.0000
# 4 0.0000 0.0000 0.0000 -3.8225 0.0000 10.7622
# 5 20.3940 16.1291 19.8854 0.0000 26.7688 0.0000
# 6 0.0000 0.0000 0.0000 10.7622 0.0000 54.6781
#
#
#
# Elastic Compliance Matrix: (Units=1/GPa)
#
#
# Indices 1 2 3 4 5 6 
#
# 1 0.010800 -0.002314 0.002261 0.000000 -0.008514 0.000000
# 2 -0.002314 0.006935 -0.001218 0.000000 -0.001511 0.000000
# 3 0.002261 -0.001218 0.020730 0.000000 -0.016388 0.000000
# 4 0.000000 0.000000 0.000000 -0.168328 0.000000 0.033132
# 5 -0.008514 -0.001511 -0.016388 0.000000 0.056927 0.000000
# 6 0.000000 0.000000 0.000000 0.033132 0.000000 0.011768
#
#
# Mechanical properties :
#
#
# Convention : Reuss Voigt Hill
#
# Bulk Modulus (GPa) = 27.83722 53.68897 40.76309
# Shear Modulus (GPa) = -107.17873 34.11302 -36.53285
#
# Velocity S-wave (km/s) = -6.78628 3.82858 -3.96204
# Velocity P-wave (km/s) = 7.03160 6.52791 1.84795
#
# Compressibility (1/GPa) = 0.03592312
#
# Stress axis : x y z
#
# Youngs Moduli (GPa) = 92.59099 144.19671 48.23842
#
# Poissons Ratio (x) = 0.33361 -0.10905
# Poissons Ratio (y) = 0.21421 0.05877
# Poissons Ratio (z) = -0.20932 0.17569
#
# Static dielectric constant tensor:
#      x y z
#    x 1.815050 0.000000 -0.049710 
#    y 0.000000 1.834820 0.000000 
#    z -0.049710 0.000000 2.001350 
# 
# From -- ./inp_files/231078.got.cif
#   From: 2010.05.17/outbox.cif.g08.bks.cpg/sg15_116_cif.got.tgz:231078.got - 2010.06.03 18:47:42.
