data_PCOD9270888
_publ_section_title
;
Structure prediction by ZEFSAII (Michael W. Deem and Ramdas Pophale) SiO2 
 PCOD9270888
Probable space group: C 2/C
;
_chemical_formula_sum "Si O2"
_cell_formula_units_Z 44
_cell_length_a 16.256210
_cell_length_b 16.717078
_cell_length_c 6.840713
_cell_angle_alpha 90.000000
_cell_angle_beta 118.767772
_cell_angle_gamma 90.000000
_cell_volume 1629.563802
_symmetry_space_group_name_H-M "C 2/C"
_symmetry_group_IT_number 15
_symmetry_cell_setting 'monoclinic'
loop_
_space_group_symop_operation_xyz
x,y,z
-x,y,1/2-z
-x,-y,-z
x,-y,1/2+z
1/2+x,1/2+y,z
1/2-x,1/2+y,1/2-z
1/2-x,1/2-y,-z
1/2+x,1/2-y,1/2+z
loop_
_atom_site_type_symbol
_atom_site_label
_atom_site_fract_x
_atom_site_fract_y
_atom_site_fract_z
Si Si1 0.806789 0.071579 0.656730
Si Si2 0.635713 0.830078 0.502868
Si Si3 0.029532 0.824630 0.051989
Si Si4 0.500000 0.055077 0.750000
Si Si5 0.102794 0.601286 0.384909
Si Si6 0.330864 0.385241 0.737794
O O1 0.705861 0.108835 0.598844
O O2 0.825345 0.105869 0.464614
O O3 0.895535 0.102883 0.878882
O O4 0.809532 0.975660 0.643085
O O5 0.585425 0.751149 0.527399
O O6 0.575588 0.877441 0.267855
O O7 0.629328 0.888079 0.686468
O O8 0.744803 0.829234 0.577325
O O9 0.000000 0.815194 0.250000
O O10 0.933226 0.846989 0.832325
O O11 0.431580 0.986486 0.584647
O O12 0.000000 0.644329 0.250000
#
# Coordination Sequence:
#
# PCOD9270888 Si02
#       6
#     8   8   8   4   8   8
#     4  10  20  39  62  89 117 156 205 239 290 354
#     4  11  21  38  58  86 122 149 199 242 299 349
#     4  10  23  39  61  88 119 157 196 243 291 351
#     4  10  20  36  54  84 120 148 196 232 292 350
#     4   9  19  33  60  83 114 153 193 240 285 347
#     4  10  21  41  63  87 118 159 200 244 289 356
#
# _framework density 27.001093999999998
#
# number of rings (size 3 to 8) (size 9 to 14) (size 15 to 20)
#    0.545    1.455    1.818    1.636    0.000    8.000 
#    3.273    0.909    0.000    0.000    0.000    0.000 
#    0.000    0.000    0.000    0.000    0.000    0.000 
#
# Total GULP energy -122483.630479 kJ/mol
# GULP energy per Si atom -5567.437749 kJ/mol
# Density = 2.693964 g / cm^3
# Si number density = 27.001094 Si / 1000 Ang^3
#
#
#
# Elastic Constant Matrix: (Units=GPa)
#
#
# Indices 1 2 3 4 5 6 
#
# 1 191.9372 71.6828 84.0753 0.0000 60.5232 0.0000
# 2 71.6828 127.1254 52.8956 0.0000 25.3155 0.0000
# 3 84.0753 52.8956 122.8599 0.0000 41.7770 0.0000
# 4 0.0000 0.0000 0.0000 17.3374 0.0000 -0.4618
# 5 60.5232 25.3155 41.7770 0.0000 62.6188 0.0000
# 6 0.0000 0.0000 0.0000 -0.4618 0.0000 43.2417
#
#
#
# Elastic Compliance Matrix: (Units=1/GPa)
#
#
# Indices 1 2 3 4 5 6 
#
# 1 0.009593 -0.002848 -0.003334 0.000000 -0.005897 0.000000
# 2 -0.002848 0.010532 -0.002682 0.000000 0.000284 0.000000
# 3 -0.003334 -0.002682 0.013078 0.000000 -0.004419 0.000000
# 4 0.000000 0.000000 0.000000 0.057695 0.000000 0.000616
# 5 -0.005897 0.000284 -0.004419 0.000000 0.024502 0.000000
# 6 0.000000 0.000000 0.000000 0.000616 0.000000 0.023132
#
#
# Mechanical properties :
#
#
# Convention : Reuss Voigt Hill
#
# Bulk Modulus (GPa) = 64.61803 95.46999 80.04401
# Shear Modulus (GPa) = 30.97546 40.19083 35.58315
#
# Velocity S-wave (km/s) = 3.39070 3.86228 3.63415
# Velocity P-wave (km/s) = 6.26998 7.43802 6.87884
#
# Compressibility (1/GPa) = 0.01547556
#
# Stress axis : x y z
#
# Youngs Moduli (GPa) = 104.23847 94.95323 76.46567
#
# Poissons Ratio (x) = 0.27044 0.25490
# Poissons Ratio (y) = 0.29688 0.20507
# Poissons Ratio (z) = 0.34749 0.25465
#
# Static dielectric constant tensor:
#      x y z
#    x 2.180450 0.000000 -0.064300 
#    y 0.000000 2.002050 0.000000 
#    z -0.064300 0.000000 2.227760 
# 
# From -- ./inp_files/49271.got.cif
#   From: 2010.05.17/outbox.cif.g08.bks.cpg/sg15_25_cif.got.tgz:49271.got - 2010.06.03 18:47:42.
