data_PCOD9270211
_publ_section_title
;
Structure prediction by ZEFSAII (Michael W. Deem and Ramdas Pophale) SiO2 
 PCOD9270211
Probable space group: C 2/C
;
_chemical_formula_sum "Si O2"
_cell_formula_units_Z 44
_cell_length_a 8.742115
_cell_length_b 22.270884
_cell_length_c 13.687772
_cell_angle_alpha 90.000000
_cell_angle_beta 118.451476
_cell_angle_gamma 90.000000
_cell_volume 2343.067171
_symmetry_space_group_name_H-M "C 2/C"
_symmetry_group_IT_number 15
_symmetry_cell_setting 'monoclinic'
loop_
_space_group_symop_operation_xyz
x,y,z
-x,y,1/2-z
-x,-y,-z
x,-y,1/2+z
1/2+x,1/2+y,z
1/2-x,1/2+y,1/2-z
1/2-x,1/2-y,-z
1/2+x,1/2-y,1/2+z
loop_
_atom_site_type_symbol
_atom_site_label
_atom_site_fract_x
_atom_site_fract_y
_atom_site_fract_z
Si Si1 0.456245 0.674732 0.347225
Si Si2 0.330685 0.040513 0.457919
Si Si3 0.175732 0.412820 0.745863
Si Si4 0.206488 0.879849 0.090347
Si Si5 0.535903 0.486566 0.123691
Si Si6 0.000000 0.291182 0.250000
O O1 0.500000 0.649778 0.250000
O O2 0.267098 0.647793 0.310463
O O3 0.581401 0.650686 0.470518
O O4 0.468502 0.745553 0.331295
O O5 0.351763 0.089118 0.378518
O O6 0.315810 0.072410 0.558259
O O7 0.500000 0.000000 0.500000
O O8 0.150739 0.002899 0.386324
O O9 0.313522 0.466560 0.803632
O O10 0.000000 0.425321 0.750000
O O11 0.102391 0.918198 0.140356
O O12 0.334491 0.831964 0.176739
O O13 0.500000 0.500000 0.000000
#
# Coordination Sequence:
#
# PCOD9270211 Si02
#       6
#     8   8   8   8   8   4
#     4  10  20  40  62  83 115 167 207 260 289 366
#     4  11  22  35  57  91 126 160 197 248 321 375
#     4  12  21  36  61  88 125 164 210 251 311 373
#     4  11  21  39  63  90 127 157 209 255 311 371
#     4  10  20  35  56  91 123 153 192 255 313 367
#     4  10  24  38  66  92 116 170 216 244 308 368
#
# _framework density 18.778804999999998
#
# number of rings (size 3 to 8) (size 9 to 14) (size 15 to 20)
#    0.545    0.727    5.455    3.273    3.818    0.000 
#    0.000    0.000    4.000    2.182    0.000    0.000 
#    0.000    0.000    0.000    0.000    0.000    0.000 
#
# Total GULP energy -122564.176729 kJ/mol
# GULP energy per Si atom -5571.098942 kJ/mol
# Density = 1.873606 g / cm^3
# Si number density = 18.778805 Si / 1000 Ang^3
#
#
#
# Elastic Constant Matrix: (Units=GPa)
#
#
# Indices 1 2 3 4 5 6 
#
# 1 118.8693 39.1525 20.6656 0.0000 22.9285 0.0000
# 2 39.1525 110.8759 16.9217 0.0000 23.1692 0.0000
# 3 20.6656 16.9217 15.7671 0.0000 16.3086 0.0000
# 4 0.0000 0.0000 0.0000 33.6099 0.0000 1.6286
# 5 22.9285 23.1692 16.3086 0.0000 34.3609 0.0000
# 6 0.0000 0.0000 0.0000 1.6286 0.0000 29.0190
#
#
#
# Elastic Compliance Matrix: (Units=1/GPa)
#
#
# Indices 1 2 3 4 5 6 
#
# 1 0.011279 -0.002044 -0.012238 0.000000 -0.000339 0.000000
# 2 -0.002044 0.011374 -0.005904 0.000000 -0.003503 0.000000
# 3 -0.012238 -0.005904 0.143860 0.000000 -0.056132 0.000000
# 4 0.000000 0.000000 0.000000 0.029834 0.000000 -0.001674
# 5 -0.000339 -0.003503 -0.056132 0.000000 0.058333 0.000000
# 6 0.000000 0.000000 0.000000 -0.001674 0.000000 0.034554
#
#
# Mechanical properties :
#
#
# Convention : Reuss Voigt Hill
#
# Bulk Modulus (GPa) = 7.92775 44.33241 26.13008
# Shear Modulus (GPa) = 13.45336 30.64947 22.05142
#
# Velocity S-wave (km/s) = 2.67949 4.04435 3.43048
# Velocity P-wave (km/s) = 3.71533 6.74299 5.44388
#
# Compressibility (1/GPa) = 0.12613922
#
# Stress axis : x y z
#
# Youngs Moduli (GPa) = 88.66045 87.91957 6.95121
#
# Poissons Ratio (x) = 0.17972 0.08507
# Poissons Ratio (y) = 0.18123 0.04104
# Poissons Ratio (z) = 1.08505 0.51912
#
# Static dielectric constant tensor:
#      x y z
#    x 1.715770 0.000000 -0.029970 
#    y 0.000000 1.683940 0.000000 
#    z -0.029970 0.000000 1.689910 
# 
# From -- ./inp_files/78711.got.cif
#   From: 2010.05.17/outbox.cif.g08.bks.cpg/sg15_40_cif.got.tgz:78711.got - 2010.06.03 18:47:42.
