data_PCOD9270589
_publ_section_title
;
Structure prediction by ZEFSAII (Michael W. Deem and Ramdas Pophale) SiO2 
 PCOD9270589
Probable space group: C 2/C
;
_chemical_formula_sum "Si O2"
_cell_formula_units_Z 56
_cell_length_a 18.289439
_cell_length_b 14.850697
_cell_length_c 26.533069
_cell_angle_alpha 90.000000
_cell_angle_beta 160.128651
_cell_angle_gamma 90.000000
_cell_volume 2449.614653
_symmetry_space_group_name_H-M "C 2/C"
_symmetry_group_IT_number 15
_symmetry_cell_setting 'monoclinic'
loop_
_space_group_symop_operation_xyz
x,y,z
-x,y,1/2-z
-x,-y,-z
x,-y,1/2+z
1/2+x,1/2+y,z
1/2-x,1/2+y,1/2-z
1/2-x,1/2-y,-z
1/2+x,1/2-y,1/2+z
loop_
_atom_site_type_symbol
_atom_site_label
_atom_site_fract_x
_atom_site_fract_y
_atom_site_fract_z
Si Si1 0.392752 0.413590 0.631819
Si Si2 0.377462 0.609611 0.862235
Si Si3 0.853143 0.404414 0.701672
Si Si4 0.783176 0.895275 0.117160
Si Si5 0.230096 0.509405 0.676283
Si Si6 0.971596 0.731070 0.111885
Si Si7 0.509015 0.893776 0.195837
O O1 0.500000 0.364602 0.750000
O O2 0.307078 0.508337 0.602720
O O3 0.591279 0.436166 0.723161
O O4 0.200816 0.371966 0.474425
O O5 0.246376 0.535542 0.744555
O O6 0.444068 0.686810 0.866213
O O7 0.222490 0.642295 0.806408
O O8 0.607289 0.572572 0.029300
O O9 0.966658 0.497238 0.791611
O O10 0.000000 0.375801 0.750000
O O11 0.860791 0.321063 0.744404
O O12 0.798923 0.906698 0.186665
O O13 0.000000 0.840120 0.250000
O O14 0.585924 0.843860 0.967498
O O15 0.000000 0.500000 0.500000
O O16 0.750000 0.750000 0.000000
O O17 0.500000 0.872488 0.250000
#
# Coordination Sequence:
#
# PCOD9270589 Si02
#       7
#     8   8   8   8   8   8   8
#     4   9  17  35  60  88 128 170 212 263 328 397
#     4  12  25  37  62  97 130 172 227 273 331 412
#     4  11  23  39  62  96 139 177 211 267 350 415
#     4   9  19  33  55  86 125 167 195 243 328 406
#     4  10  20  35  60  94 126 154 212 275 330 392
#     4  12  23  37  61  95 138 170 206 267 352 417
#     4  11  23  43  63  89 132 181 231 274 329 396
#
# _framework density 22.860738000000001
#
# number of rings (size 3 to 8) (size 9 to 14) (size 15 to 20)
#    0.000    1.714    2.857    5.571    4.000    0.000 
#    0.000    0.000    0.000    0.857    0.000    0.000 
#    0.000    0.000    0.000    0.000    0.000    0.000 
#
# Total GULP energy -156035.785186 kJ/mol
# GULP energy per Si atom -5572.706614 kJ/mol
# Density = 2.280871 g / cm^3
# Si number density = 22.860738 Si / 1000 Ang^3
#
#
#
# Elastic Constant Matrix: (Units=GPa)
#
#
# Indices 1 2 3 4 5 6 
#
# 1 137.2913 -3.0194 46.5756 -0.0108 2.2702 0.0067
# 2 -3.0194 22.2964 -10.4131 0.0389 1.2618 0.0183
# 3 46.5756 -10.4131 150.5245 0.1095 -11.1345 -0.0084
# 4 -0.0108 0.0389 0.1095 11.2869 0.0097 0.5231
# 5 2.2702 1.2618 -11.1345 0.0097 41.5175 -0.0023
# 6 0.0067 0.0183 -0.0084 0.5231 -0.0023 11.7989
#
#
#
# Elastic Compliance Matrix: (Units=1/GPa)
#
#
# Indices 1 2 3 4 5 6 
#
# 1 0.008192 -0.000051 -0.002623 0.000035 -0.001150 -0.000008
# 2 -0.000051 0.046361 0.003182 -0.000188 -0.000553 -0.000061
# 3 -0.002623 0.003182 0.007834 -0.000092 0.002148 0.000007
# 4 0.000035 -0.000188 -0.000092 0.088783 -0.000042 -0.003936
# 5 -0.001150 -0.000553 0.002148 -0.000042 0.024742 0.000010
# 6 -0.000008 -0.000061 0.000007 -0.003936 0.000010 0.084928
#
#
# Mechanical properties :
#
#
# Convention : Reuss Voigt Hill
#
# Bulk Modulus (GPa) = 15.77206 41.82204 28.79705
# Shear Modulus (GPa) = 17.79626 31.38527 24.59077
#
# Velocity S-wave (km/s) = 2.79312 3.70927 3.28331
# Velocity P-wave (km/s) = 4.16128 6.05631 5.19592
#
# Compressibility (1/GPa) = 0.06340326
#
# Stress axis : x y z
#
# Youngs Moduli (GPa) = 122.07599 21.56975 127.64524
#
# Poissons Ratio (x) = 0.00110 0.33485
# Poissons Ratio (y) = 0.00620 -0.40619
# Poissons Ratio (z) = 0.32024 -0.06864
#
# Static dielectric constant tensor:
#      x y z
#    x 1.773580 0.000140 -0.052780 
#    y 0.000140 2.128730 -0.000170 
#    z -0.052780 -0.000170 1.876970 
# 
# From -- ./inp_files/299352.got.cif
#   From: 2010.05.17/outbox.cif.g08.bks.cpg/sg15_150_cif.got.tgz:299352.got - 2010.06.03 18:47:42.
