data_PCOD9270285
_publ_section_title
;
Structure prediction by ZEFSAII (Michael W. Deem and Ramdas Pophale) SiO2 
 PCOD9270285
Probable space group: C 2/C
;
_chemical_formula_sum "Si O2"
_cell_formula_units_Z 56
_cell_length_a 23.700647
_cell_length_b 8.957689
_cell_length_c 12.259426
_cell_angle_alpha 90.000000
_cell_angle_beta 68.054775
_cell_angle_gamma 90.000000
_cell_volume 2414.124674
_symmetry_space_group_name_H-M "C 2/C"
_symmetry_group_IT_number 15
_symmetry_cell_setting 'monoclinic'
loop_
_space_group_symop_operation_xyz
x,y,z
-x,y,1/2-z
-x,-y,-z
x,-y,1/2+z
1/2+x,1/2+y,z
1/2-x,1/2+y,1/2-z
1/2-x,1/2-y,-z
1/2+x,1/2-y,1/2+z
loop_
_atom_site_type_symbol
_atom_site_label
_atom_site_fract_x
_atom_site_fract_y
_atom_site_fract_z
Si Si1 0.708328 0.808165 0.778453
Si Si2 0.500000 0.011948 0.250000
Si Si3 0.805160 0.813276 0.532157
Si Si4 0.460040 0.212480 0.937254
Si Si5 0.500000 0.473986 0.750000
Si Si6 0.238971 0.900986 0.442015
Si Si7 0.576774 0.259139 0.287762
Si Si8 0.154121 0.497575 0.506826
O O1 0.770848 0.839258 0.671128
O O2 0.721685 0.661339 0.838685
O O3 0.648397 0.762364 0.753566
O O4 0.690979 0.942636 0.873324
O O5 0.555090 0.127712 0.222635
O O6 0.492633 0.904973 0.149962
O O7 0.750000 0.750000 0.500000
O O8 0.853653 0.680785 0.505297
O O9 0.813738 0.982364 0.483682
O O10 0.472327 0.365703 0.863781
O O11 0.455437 0.235326 0.070046
O O12 0.399456 0.118850 0.949069
O O13 0.448139 0.584447 0.739925
O O14 0.250000 0.750000 0.500000
O O15 0.303537 0.980153 0.417381
#
# Coordination Sequence:
#
# PCOD9270285 Si02
#       8
#     8   4   8   8   4   8   8   8
#     4  10  20  38  58  87 124 161 202 254 316 377
#     4  10  22  38  66  90 124 162 214 270 322 374
#     4  10  20  35  57  86 125 160 207 250 303 382
#     4  10  21  42  67  93 126 168 210 268 330 384
#     4  10  22  44  66  94 128 164 216 276 328 384
#     4   9  19  37  56  84 125 158 197 249 305 371
#     4  10  22  41  64  94 124 166 214 267 322 396
#     4   9  20  38  61  88 124 161 204 258 310 381
#
# _framework density 23.196815000000001
#
# number of rings (size 3 to 8) (size 9 to 14) (size 15 to 20)
#    0.000    2.286    0.000    1.714    4.000    0.000 
#   20.571    4.286    0.000    0.000    0.000    0.000 
#    0.000    0.000    0.000    0.000    0.000    0.000 
#
# Total GULP energy -155992.183740 kJ/mol
# GULP energy per Si atom -5571.149419 kJ/mol
# Density = 2.314402 g / cm^3
# Si number density = 23.196815 Si / 1000 Ang^3
#
#
#
# Elastic Constant Matrix: (Units=GPa)
#
#
# Indices 1 2 3 4 5 6 
#
# 1 74.7216 36.3078 12.8682 0.0000 8.7558 0.0000
# 2 36.3078 204.4655 49.4097 0.0000 0.0060 0.0000
# 3 12.8682 49.4097 85.2300 0.0000 -12.8422 0.0000
# 4 0.0000 0.0000 0.0000 29.7316 0.0000 6.0495
# 5 8.7558 0.0060 -12.8422 0.0000 28.4138 0.0000
# 6 0.0000 0.0000 0.0000 6.0495 0.0000 22.7542
#
#
#
# Elastic Compliance Matrix: (Units=1/GPa)
#
#
# Indices 1 2 3 4 5 6 
#
# 1 0.015476 -0.002302 -0.001846 0.000000 -0.005603 0.000000
# 2 -0.002302 0.006099 -0.003306 0.000000 -0.000786 0.000000
# 3 -0.001846 -0.003306 0.015039 0.000000 0.007367 0.000000
# 4 0.000000 0.000000 0.000000 0.035558 0.000000 -0.009453
# 5 -0.005603 -0.000786 0.007367 0.000000 0.040250 0.000000
# 6 0.000000 0.000000 0.000000 -0.009453 0.000000 0.046461
#
#
# Mechanical properties :
#
#
# Convention : Reuss Voigt Hill
#
# Bulk Modulus (GPa) = 46.07492 62.39872 54.23682
# Shear Modulus (GPa) = 27.62027 33.90202 30.76115
#
# Velocity S-wave (km/s) = 3.45438 3.82710 3.64551
# Velocity P-wave (km/s) = 5.98465 6.81814 6.41495
#
# Compressibility (1/GPa) = 0.02170378
#
# Stress axis : x y z
#
# Youngs Moduli (GPa) = 64.61618 163.97283 66.49571
#
# Poissons Ratio (x) = 0.37743 0.12278
# Poissons Ratio (y) = 0.14873 0.21986
# Poissons Ratio (z) = 0.11931 0.54217
#
# Static dielectric constant tensor:
#      x y z
#    x 1.897020 0.000000 -0.088960 
#    y 0.000000 1.977520 0.000000 
#    z -0.088960 0.000000 2.046180 
# 
# From -- ./inp_files/121931.got.cif
#   From: 2010.05.17/outbox.cif.g08.bks.cpg/sg15_61_cif.got.tgz:121931.got - 2010.06.03 18:47:42.
