data_PCOD9270271
_publ_section_title
;
Structure prediction by ZEFSAII (Michael W. Deem and Ramdas Pophale) SiO2 
 PCOD9270271
Probable space group: C 2/C
;
_chemical_formula_sum "Si O2"
_cell_formula_units_Z 64
_cell_length_a 22.418848
_cell_length_b 17.886937
_cell_length_c 20.739426
_cell_angle_alpha 90.000000
_cell_angle_beta 157.727688
_cell_angle_gamma 90.000000
_cell_volume 3152.067704
_symmetry_space_group_name_H-M "C 2/C"
_symmetry_group_IT_number 15
_symmetry_cell_setting 'monoclinic'
loop_
_space_group_symop_operation_xyz
x,y,z
-x,y,1/2-z
-x,-y,-z
x,-y,1/2+z
1/2+x,1/2+y,z
1/2-x,1/2+y,1/2-z
1/2-x,1/2-y,-z
1/2+x,1/2-y,1/2+z
loop_
_atom_site_type_symbol
_atom_site_label
_atom_site_fract_x
_atom_site_fract_y
_atom_site_fract_z
Si Si1 0.309556 0.079077 0.066768
Si Si2 0.817802 0.185183 0.945938
Si Si3 0.317095 0.085223 0.803509
Si Si4 0.342699 0.816782 0.716103
Si Si5 0.806258 0.585106 0.300708
Si Si6 0.188254 0.411321 0.431989
Si Si7 0.816020 0.150386 0.191705
Si Si8 0.282239 0.150894 0.906561
O O1 0.500000 0.077857 0.250000
O O2 0.273378 0.140888 0.084388
O O3 0.264162 0.995246 0.041364
O O4 0.244218 0.102151 0.931636
O O5 0.745812 0.141258 0.813124
O O6 0.743350 0.149772 0.935791
O O7 0.781312 0.272529 0.903699
O O8 0.002835 0.171769 0.133171
O O9 0.255679 0.108496 0.812781
O O10 0.273309 0.999440 0.745603
O O11 0.507284 0.088992 0.996110
O O12 0.276300 0.856225 0.713783
O O13 0.306750 0.729485 0.680040
O O14 0.530523 0.830875 0.903725
O O15 0.713970 0.605620 0.272746
O O16 0.260790 0.395254 0.574263
O O17 0.000000 0.408299 0.250000
#
# Coordination Sequence:
#
# PCOD9270271 Si02
#       8
#     8   8   8   8   8   8   8   8
#     4   9  19  37  61  86 113 151 194 235 284 346
#     4  12  25  41  61  88 121 156 197 244 297 356
#     4  10  21  39  62  87 117 157 202 246 296 354
#     4  10  20  35  57  85 116 151 193 237 285 342
#     4  10  21  39  62  87 117 157 202 246 296 354
#     4  11  22  41  66  88 114 151 196 245 298 356
#     4  12  25  41  61  88 121 156 197 244 297 356
#     4  10  20  35  57  85 116 151 193 237 285 342
#
# _framework density 20.304133
#
# number of rings (size 3 to 8) (size 9 to 14) (size 15 to 20)
#    0.000    1.500    0.000    5.625    0.000    7.500 
#    0.000    5.000    0.000    0.000    0.000    0.000 
#    0.000    0.000    0.000    0.000    0.000    0.000 
#
# Total GULP energy -178990.982556 kJ/mol
# GULP energy per Si atom -5593.468205 kJ/mol
# Density = 2.025792 g / cm^3
# Si number density = 20.304133 Si / 1000 Ang^3
#
#
#
# Elastic Constant Matrix: (Units=GPa)
#
#
# Indices 1 2 3 4 5 6 
#
# 1 55.0671 -23.6698 7.7918 0.0033 -8.5920 0.0007
# 2 -23.6698 54.1412 -6.5032 0.0017 6.5609 0.0031
# 3 7.7918 -6.5032 29.1415 0.0074 -1.0548 0.0040
# 4 0.0033 0.0017 0.0074 38.8566 0.0080 -2.9472
# 5 -8.5920 6.5609 -1.0548 0.0080 21.4965 0.0022
# 6 0.0007 0.0031 0.0040 -2.9472 0.0022 39.0057
#
#
#
# Elastic Compliance Matrix: (Units=1/GPa)
#
#
# Indices 1 2 3 4 5 6 
#
# 1 0.023642 0.009062 -0.004064 -0.000003 0.006484 -0.000001
# 2 0.009062 0.023149 0.002623 -0.000002 -0.003314 -0.000002
# 3 -0.004064 0.002623 0.035964 -0.000007 -0.000660 -0.000004
# 4 -0.000003 -0.000002 -0.000007 0.025884 -0.000011 0.001956
# 5 0.006484 -0.003314 -0.000660 -0.000011 0.050090 -0.000003
# 6 -0.000001 -0.000002 -0.000004 0.001956 -0.000003 0.025785
#
#
# Mechanical properties :
#
#
# Convention : Reuss Voigt Hill
#
# Bulk Modulus (GPa) = 10.20464 10.39859 10.30162
# Shear Modulus (GPa) = 24.76022 30.58717 27.67369
#
# Velocity S-wave (km/s) = 3.49588 3.88551 3.69583
# Velocity P-wave (km/s) = 4.61862 5.02615 4.82669
#
# Compressibility (1/GPa) = 0.09799462
#
# Stress axis : x y z
#
# Youngs Moduli (GPa) = 42.29832 43.19905 27.80596
#
# Poissons Ratio (x) = -0.39146 0.11301
# Poissons Ratio (y) = -0.38330 -0.07293
# Poissons Ratio (z) = 0.17191 -0.11331
#
# Static dielectric constant tensor:
#      x y z
#    x 1.693990 0.000000 0.007380 
#    y 0.000000 1.680240 0.000000 
#    z 0.007380 0.000000 1.700910 
# 
# From -- ./inp_files/256018.got.cif
#   From: 2010.05.17/outbox.cif.g08.bks.cpg/sg15_129_cif.got.tgz:256018.got - 2010.06.03 18:47:42.
