data_PCOD9270981
_publ_section_title
;
Structure prediction by ZEFSAII (Michael W. Deem and Ramdas Pophale) SiO2 
 PCOD9270981
Probable space group: C 2/C
;
_chemical_formula_sum "Si O2"
_cell_formula_units_Z 52
_cell_length_a 6.393775
_cell_length_b 25.116819
_cell_length_c 20.119525
_cell_angle_alpha 90.000000
_cell_angle_beta 56.904817
_cell_angle_gamma 90.000000
_cell_volume 2706.834648
_symmetry_space_group_name_H-M "C 2/C"
_symmetry_group_IT_number 15
_symmetry_cell_setting 'monoclinic'
loop_
_space_group_symop_operation_xyz
x,y,z
-x,y,1/2-z
-x,-y,-z
x,-y,1/2+z
1/2+x,1/2+y,z
1/2-x,1/2+y,1/2-z
1/2-x,1/2-y,-z
1/2+x,1/2-y,1/2+z
loop_
_atom_site_type_symbol
_atom_site_label
_atom_site_fract_x
_atom_site_fract_y
_atom_site_fract_z
Si Si1 0.450419 0.753772 0.560806
Si Si2 0.500000 0.573208 0.250000
Si Si3 0.425665 0.077768 0.975767
Si Si4 0.859194 0.282086 0.842414
Si Si5 0.620224 0.605271 0.375908
Si Si6 0.015059 0.534271 0.103201
Si Si7 0.548191 0.810347 0.070894
O O1 0.430160 0.773946 0.638280
O O2 0.367456 0.794832 0.518782
O O3 0.286102 0.701737 0.575901
O O4 0.750000 0.750000 0.500000
O O5 0.595208 0.604132 0.299709
O O6 0.733934 0.540552 0.179775
O O7 0.546859 0.065461 0.026962
O O8 0.142287 0.091928 0.044404
O O9 0.535834 0.129111 0.919344
O O10 0.434889 0.026296 0.927128
O O11 0.714769 0.336745 0.881294
O O12 0.668578 0.232026 0.874184
O O13 0.000000 0.287164 0.750000
O O14 0.809000 0.560801 0.371929
#
# Coordination Sequence:
#
# PCOD9270981 Si02
#       7
#     8   4   8   8   8   8   8
#     4   9  18  34  56  80 108 147 189 231 281 343
#     4  10  22  38  58  88 114 152 188 240 300 346
#     4  10  21  37  60  88 111 152 195 243 288 344
#     4  11  23  36  56  86 118 155 190 238 298 348
#     4  11  21  37  61  85 116 148 195 247 292 342
#     4  10  21  38  60  87 117 146 196 241 294 347
#     4  10  20  36  56  82 116 146 191 234 284 349
#
# _framework density 19.210630999999999
#
# number of rings (size 3 to 8) (size 9 to 14) (size 15 to 20)
#    0.000    1.846    0.000    5.538    0.000    5.538 
#    1.385    0.000    3.385    0.000    0.000    0.000 
#    0.000    0.000    0.000    0.000    0.000    0.000 
#
# Total GULP energy -145008.224476 kJ/mol
# GULP energy per Si atom -5577.239403 kJ/mol
# Density = 1.916691 g / cm^3
# Si number density = 19.210631 Si / 1000 Ang^3
#
#
#
# Elastic Constant Matrix: (Units=GPa)
#
#
# Indices 1 2 3 4 5 6 
#
# 1 90.1210 33.3987 15.4157 0.0000 24.7576 0.0000
# 2 33.3987 123.8495 11.3876 0.0000 8.1481 0.0000
# 3 15.4157 11.3876 38.3852 0.0000 7.5508 0.0000
# 4 0.0000 0.0000 0.0000 20.4144 0.0000 -1.3156
# 5 24.7576 8.1481 7.5508 0.0000 28.4993 0.0000
# 6 0.0000 0.0000 0.0000 -1.3156 0.0000 19.6105
#
#
#
# Elastic Compliance Matrix: (Units=1/GPa)
#
#
# Indices 1 2 3 4 5 6 
#
# 1 0.016235 -0.003279 -0.003120 0.000000 -0.012339 0.000000
# 2 -0.003279 0.009053 -0.001498 0.000000 0.000657 0.000000
# 3 -0.003120 -0.001498 0.028624 0.000000 -0.004445 0.000000
# 4 0.000000 0.000000 0.000000 0.049198 0.000000 0.003301
# 5 -0.012339 0.000657 -0.004445 0.000000 0.046798 0.000000
# 6 0.000000 0.000000 0.000000 0.003301 0.000000 0.051214
#
#
# Mechanical properties :
#
#
# Convention : Reuss Voigt Hill
#
# Bulk Modulus (GPa) = 26.23508 41.41774 33.82641
# Shear Modulus (GPa) = 21.77494 26.51510 24.14502
#
# Velocity S-wave (km/s) = 3.37038 3.71918 3.54906
# Velocity P-wave (km/s) = 5.36955 6.32848 5.86863
#
# Compressibility (1/GPa) = 0.03811691
#
# Stress axis : x y z
#
# Youngs Moduli (GPa) = 61.59537 110.45848 34.93632
#
# Poissons Ratio (x) = 0.36224 0.10900
# Poissons Ratio (y) = 0.20200 0.05234
# Poissons Ratio (z) = 0.19217 0.16547
#
# Static dielectric constant tensor:
#      x y z
#    x 1.728920 0.000000 0.011770 
#    y 0.000000 1.690500 0.000000 
#    z 0.011770 0.000000 1.683490 
# 
# From -- ./inp_files/228051.got.cif
#   From: 2010.05.17/outbox.cif.g08.bks.cpg/sg15_115_cif.got.tgz:228051.got - 2010.06.03 18:47:42.
