data_PCOD9270790
_publ_section_title
;
Structure prediction by ZEFSAII (Michael W. Deem and Ramdas Pophale) SiO2 
 PCOD9270790
Probable space group: C 2/C
;
_chemical_formula_sum "Si O2"
_cell_formula_units_Z 44
_cell_length_a 11.798491
_cell_length_b 24.160331
_cell_length_c 8.663200
_cell_angle_alpha 90.000000
_cell_angle_beta 54.068042
_cell_angle_gamma 90.000000
_cell_volume 1999.583650
_symmetry_space_group_name_H-M "C 2/C"
_symmetry_group_IT_number 15
_symmetry_cell_setting 'monoclinic'
loop_
_space_group_symop_operation_xyz
x,y,z
-x,y,1/2-z
-x,-y,-z
x,-y,1/2+z
1/2+x,1/2+y,z
1/2-x,1/2+y,1/2-z
1/2-x,1/2-y,-z
1/2+x,1/2-y,1/2+z
loop_
_atom_site_type_symbol
_atom_site_label
_atom_site_fract_x
_atom_site_fract_y
_atom_site_fract_z
Si Si1 0.654083 0.269022 0.432225
Si Si2 0.334557 0.663674 0.863656
Si Si3 0.756412 0.066105 0.319050
Si Si4 0.890631 0.661138 0.201484
Si Si5 0.000000 0.143650 0.250000
Si Si6 0.339564 0.538199 0.906950
O O1 0.750000 0.250000 0.500000
O O2 0.724385 0.298941 0.227810
O O3 0.582219 0.213877 0.425440
O O4 0.546966 0.315283 0.577330
O O5 0.500000 0.675653 0.750000
O O6 0.319797 0.597891 0.842019
O O7 0.254010 0.672387 0.088935
O O8 0.626637 0.105736 0.384507
O O9 0.869840 0.105407 0.310256
O O10 0.739188 0.010181 0.428401
O O11 0.817882 0.047994 0.104708
O O12 0.000000 0.653584 0.250000
O O13 0.500000 0.520618 0.750000
#
# Coordination Sequence:
#
# PCOD9270790 Si02
#       6
#     8   8   8   8   4   8
#     4  12  25  38  64  94 131 170 220 272 322 376
#     4  10  23  43  66  96 126 171 218 268 331 384
#     4  11  23  39  62  96 126 167 211 274 321 387
#     4  11  25  45  64  90 135 183 215 256 325 398
#     4  12  24  40  62 100 136 156 226 272 328 374
#     4  10  20  35  65  94 126 158 210 269 337 372
#
# _framework density 22.004581000000002
#
# number of rings (size 3 to 8) (size 9 to 14) (size 15 to 20)
#    0.000    1.091    2.727    4.909    5.091    0.000 
#    0.000    3.636    0.000    0.000    0.000    0.000 
#    0.000    0.000    0.000    0.000    0.000    0.000 
#
# Total GULP energy -123018.208473 kJ/mol
# GULP energy per Si atom -5591.736749 kJ/mol
# Density = 2.195450 g / cm^3
# Si number density = 22.004581 Si / 1000 Ang^3
#
#
#
# Elastic Constant Matrix: (Units=GPa)
#
#
# Indices 1 2 3 4 5 6 
#
# 1 116.4425 59.3084 -6.7990 0.0000 22.1499 0.0000
# 2 59.3084 151.0522 17.1575 0.0000 27.1176 0.0000
# 3 -6.7990 17.1575 34.0684 0.0000 7.5840 0.0000
# 4 0.0000 0.0000 0.0000 27.4033 0.0000 -4.1971
# 5 22.1499 27.1176 7.5840 0.0000 28.5116 0.0000
# 6 0.0000 0.0000 0.0000 -4.1971 0.0000 -34.7283
#
#
#
# Elastic Compliance Matrix: (Units=1/GPa)
#
#
# Indices 1 2 3 4 5 6 
#
# 1 0.012555 -0.004334 0.006316 0.000000 -0.007311 0.000000
# 2 -0.004334 0.009681 -0.004720 0.000000 -0.004585 0.000000
# 3 0.006316 -0.004720 0.035165 0.000000 -0.009771 0.000000
# 4 0.000000 0.000000 0.000000 0.035829 0.000000 -0.004330
# 5 -0.007311 -0.004585 -0.009771 0.000000 0.047714 0.000000
# 6 0.000000 0.000000 0.000000 -0.004330 0.000000 -0.028272
#
#
# Mechanical properties :
#
#
# Convention : Reuss Voigt Hill
#
# Bulk Modulus (GPa) = 19.25845 48.98855 34.12350
# Shear Modulus (GPa) = 36.91182 19.69707 28.30444
#
# Velocity S-wave (km/s) = 4.10012 2.99513 3.59039
# Velocity P-wave (km/s) = 5.58442 5.85425 5.72093
#
# Compressibility (1/GPa) = 0.05192526
#
# Stress axis : x y z
#
# Youngs Moduli (GPa) = 79.64828 103.29109 28.43698
#
# Poissons Ratio (x) = 0.44771 -0.17961
# Poissons Ratio (y) = 0.34523 0.13422
# Poissons Ratio (z) = -0.50307 0.48754
#
# Static dielectric constant tensor:
#      x y z
#    x 1.837650 0.000000 -0.015160 
#    y 0.000000 1.819100 0.000000 
#    z -0.015160 0.000000 1.859710 
# 
# From -- ./inp_files/32437.got.cif
#   From: 2010.05.17/outbox.cif.g08.bks.cpg/sg15_17_cif.got.tgz:32437.got - 2010.06.03 18:47:42.
