data_PCOD9270399
_publ_section_title
;
Structure prediction by ZEFSAII (Michael W. Deem and Ramdas Pophale) SiO2 
 PCOD9270399
Probable space group: C 2/C
;
_chemical_formula_sum "Si O2"
_cell_formula_units_Z 44
_cell_length_a 13.038238
_cell_length_b 28.283033
_cell_length_c 13.984433
_cell_angle_alpha 90.000000
_cell_angle_beta 21.612908
_cell_angle_gamma 90.000000
_cell_volume 1899.466193
_symmetry_space_group_name_H-M "C 2/C"
_symmetry_group_IT_number 15
_symmetry_cell_setting 'monoclinic'
loop_
_space_group_symop_operation_xyz
x,y,z
-x,y,1/2-z
-x,-y,-z
x,-y,1/2+z
1/2+x,1/2+y,z
1/2-x,1/2+y,1/2-z
1/2-x,1/2-y,-z
1/2+x,1/2-y,1/2+z
loop_
_atom_site_type_symbol
_atom_site_label
_atom_site_fract_x
_atom_site_fract_y
_atom_site_fract_z
Si Si1 0.979015 0.367786 0.470864
Si Si2 0.881828 0.417792 0.745120
Si Si3 0.615785 0.474012 0.256970
Si Si4 0.280289 0.054542 0.870733
Si Si5 0.857493 0.717852 0.771360
Si Si6 0.500000 0.629174 0.250000
O O1 0.708882 0.349006 0.645717
O O2 0.919774 0.376938 0.633245
O O3 0.069776 0.418460 0.345818
O O4 0.190652 0.326890 0.256297
O O5 0.062811 0.460827 0.539515
O O6 0.000000 0.408124 0.750000
O O7 0.562365 0.432340 0.038799
O O8 0.500000 0.476577 0.250000
O O9 0.489748 0.521903 0.411915
O O10 0.500000 0.028160 0.750000
O O11 0.181473 0.096337 0.024665
O O12 0.000000 0.703202 0.750000
O O13 0.075006 0.754684 0.538119
#
# Coordination Sequence:
#
# PCOD9270399 Si02
#       6
#     8   8   8   8   8   4
#     4  11  25  39  62  94 126 163 210 255 316 378
#     4  10  24  41  63  86 123 172 217 261 297 351
#     4  10  20  39  59  84 124 169 217 259 299 350
#     4  10  20  35  58  87 126 170 203 262 309 370
#     4  10  23  41  65  94 126 158 193 248 319 391
#     4  10  22  36  58  90 126 164 196 258 318 374
#
# _framework density 23.164403
#
# number of rings (size 3 to 8) (size 9 to 14) (size 15 to 20)
#    0.000    1.818    0.909    3.273   11.455    1.455 
#    0.000    0.000    0.000    1.091    0.000    0.000 
#    0.000    0.000    0.000    0.000    0.000    0.000 
#
# Total GULP energy -122858.978169 kJ/mol
# GULP energy per Si atom -5584.499008 kJ/mol
# Density = 2.311168 g / cm^3
# Si number density = 23.164403 Si / 1000 Ang^3
#
#
#
# Elastic Constant Matrix: (Units=GPa)
#
#
# Indices 1 2 3 4 5 6 
#
# 1 126.3767 39.6803 42.8269 -0.0113 32.9266 0.0025
# 2 39.6803 90.9331 35.4570 0.0019 28.1724 0.0067
# 3 42.8269 35.4570 143.6628 -0.0545 16.2670 0.0000
# 4 -0.0113 0.0019 -0.0545 32.7195 0.0010 20.7804
# 5 32.9266 28.1724 16.2670 0.0010 50.3071 -0.0129
# 6 0.0025 0.0067 0.0000 20.7804 -0.0129 8.5998
#
#
#
# Elastic Compliance Matrix: (Units=1/GPa)
#
#
# Indices 1 2 3 4 5 6 
#
# 1 0.010629 -0.002290 -0.002035 -0.000011 -0.005016 0.000019
# 2 -0.002290 0.014751 -0.002276 -0.000014 -0.006026 0.000013
# 3 -0.002035 -0.002276 0.008132 -0.000022 -0.000023 0.000054
# 4 -0.000011 -0.000014 -0.000022 -0.057163 0.000059 0.138128
# 5 -0.005016 -0.006026 -0.000023 0.000059 0.026543 -0.000096
# 6 0.000019 0.000013 0.000054 0.138128 -0.000096 -0.217487
#
#
# Mechanical properties :
#
#
# Convention : Reuss Voigt Hill
#
# Bulk Modulus (GPa) = 49.24028 66.32233 57.78131
# Shear Modulus (GPa) = -25.69044 34.52585 4.41770
#
# Velocity S-wave (km/s) = -3.33385 3.86485 1.38248
# Velocity P-wave (km/s) = 2.54629 6.97204 5.24848
#
# Compressibility (1/GPa) = 0.02030858
#
# Stress axis : x y z
#
# Youngs Moduli (GPa) = 94.08645 67.79358 122.97609
#
# Poissons Ratio (x) = 0.15528 0.25028
# Poissons Ratio (y) = 0.21550 0.27983
# Poissons Ratio (z) = 0.19149 0.15426
#
# Static dielectric constant tensor:
#      x y z
#    x 1.943400 0.000000 -0.045500 
#    y 0.000000 1.916360 0.000000 
#    z -0.045500 0.000000 1.960800 
# 
# From -- ./inp_files/157505.got.cif
#   From: 2010.05.17/outbox.cif.g08.bks.cpg/sg15_79_cif.got.tgz:157505.got - 2010.06.03 18:47:42.
