data_PCOD9270557
_publ_section_title
;
Structure prediction by ZEFSAII (Michael W. Deem and Ramdas Pophale) SiO2 
 PCOD9270557
Probable space group: C 2/C
;
_chemical_formula_sum "Si O2"
_cell_formula_units_Z 52
_cell_length_a 7.964099
_cell_length_b 21.463324
_cell_length_c 15.213706
_cell_angle_alpha 90.000000
_cell_angle_beta 118.840497
_cell_angle_gamma 90.000000
_cell_volume 2278.011322
_symmetry_space_group_name_H-M "C 2/C"
_symmetry_group_IT_number 15
_symmetry_cell_setting 'monoclinic'
loop_
_space_group_symop_operation_xyz
x,y,z
-x,y,1/2-z
-x,-y,-z
x,-y,1/2+z
1/2+x,1/2+y,z
1/2-x,1/2+y,1/2-z
1/2-x,1/2-y,-z
1/2+x,1/2-y,1/2+z
loop_
_atom_site_type_symbol
_atom_site_label
_atom_site_fract_x
_atom_site_fract_y
_atom_site_fract_z
Si Si1 0.493755 0.410690 0.063896
Si Si2 0.781720 0.477960 0.632672
Si Si3 0.500000 0.423083 0.250000
Si Si4 0.814346 0.645526 0.253764
Si Si5 0.086278 0.543322 0.597850
Si Si6 0.954975 0.668500 0.020097
Si Si7 0.422411 0.303565 0.947986
O O1 0.620756 0.471511 0.109814
O O2 0.507675 0.381483 0.164291
O O3 0.299317 0.439454 0.972694
O O4 0.563059 0.359533 0.012123
O O5 0.795426 0.424721 0.710406
O O6 0.037412 0.518921 0.851231
O O7 0.690385 0.462704 0.320045
O O8 0.641202 0.683988 0.168010
O O9 0.000000 0.672192 0.250000
O O10 0.875607 0.648678 0.369898
O O11 0.065141 0.614309 0.557808
O O12 0.000000 0.500000 0.500000
O O13 0.992596 0.734927 0.984971
O O14 0.760649 0.681707 0.031038
#
# Coordination Sequence:
#
# PCOD9270557 Si02
#       7
#     8   8   4   8   8   8   8
#     4  10  21  39  59  94 118 167 207 268 322 389
#     4  10  22  38  62  87 132 160 211 264 332 384
#     4  12  24  36  62  90 122 164 208 262 324 382
#     4   9  18  33  58  86 112 171 202 253 316 383
#     4  12  23  41  57  94 128 162 211 277 320 386
#     4  10  20  35  60  88 121 167 212 262 318 377
#     4   9  18  38  55  87 127 155 216 269 307 382
#
# _framework density 22.826927999999999
#
# number of rings (size 3 to 8) (size 9 to 14) (size 15 to 20)
#    0.000    1.846    3.077    1.846    4.308    1.231 
#    2.769    0.769    0.000    0.000    0.000    0.000 
#    0.000    0.000    0.000    0.000    0.000    0.000 
#
# Total GULP energy -144852.054959 kJ/mol
# GULP energy per Si atom -5571.232883 kJ/mol
# Density = 2.277497 g / cm^3
# Si number density = 22.826928 Si / 1000 Ang^3
#
#
#
# Elastic Constant Matrix: (Units=GPa)
#
#
# Indices 1 2 3 4 5 6 
#
# 1 32.2801 29.5142 31.5704 0.0000 12.8470 0.0000
# 2 29.5142 158.9095 84.9052 0.0000 8.3932 0.0000
# 3 31.5704 84.9052 197.3444 0.0000 11.1109 0.0000
# 4 0.0000 0.0000 0.0000 36.7300 0.0000 -0.8319
# 5 12.8470 8.3932 11.1109 0.0000 25.5580 0.0000
# 6 0.0000 0.0000 0.0000 -0.8319 0.0000 13.2178
#
#
#
# Elastic Compliance Matrix: (Units=1/GPa)
#
#
# Indices 1 2 3 4 5 6 
#
# 1 0.048472 -0.005699 -0.004137 0.000000 -0.020695 0.000000
# 2 -0.005699 0.008876 -0.002977 0.000000 0.001244 0.000000
# 3 -0.004137 -0.002977 0.007010 0.000000 0.000010 0.000000
# 4 0.000000 0.000000 0.000000 0.027265 0.000000 0.001716
# 5 -0.020695 0.001244 0.000010 0.000000 0.049116 0.000000
# 6 0.000000 0.000000 0.000000 0.001716 0.000000 0.075763
#
#
# Mechanical properties :
#
#
# Convention : Reuss Voigt Hill
#
# Bulk Modulus (GPa) = 25.81924 75.61262 50.71593
# Shear Modulus (GPa) = 19.60476 31.27078 25.43777
#
# Velocity S-wave (km/s) = 2.93378 3.70524 3.34185
# Velocity P-wave (km/s) = 4.77614 7.17644 6.09561
#
# Compressibility (1/GPa) = 0.03873080
#
# Stress axis : x y z
#
# Youngs Moduli (GPa) = 20.63039 112.65756 142.66288
#
# Poissons Ratio (x) = 0.64205 0.59023
# Poissons Ratio (y) = 0.11758 0.42475
# Poissons Ratio (z) = 0.08535 0.33542
#
# Static dielectric constant tensor:
#      x y z
#    x 2.020920 0.000000 0.004540 
#    y 0.000000 1.862150 0.000000 
#    z 0.004540 0.000000 1.924640 
# 
# From -- ./inp_files/99115.got.cif
#   From: 2010.05.17/outbox.cif.g08.bks.cpg/sg15_50_cif.got.tgz:99115.got - 2010.06.03 18:47:42.
