data_PCOD9270380
_publ_section_title
;
Structure prediction by ZEFSAII (Michael W. Deem and Ramdas Pophale) SiO2 
 PCOD9270380
Probable space group: C 2/C
;
_chemical_formula_sum "Si O2"
_cell_formula_units_Z 48
_cell_length_a 17.540864
_cell_length_b 9.003943
_cell_length_c 12.015450
_cell_angle_alpha 90.000000
_cell_angle_beta 62.961702
_cell_angle_gamma 90.000000
_cell_volume 1690.272044
_symmetry_space_group_name_H-M "C 2/C"
_symmetry_group_IT_number 15
_symmetry_cell_setting 'monoclinic'
loop_
_space_group_symop_operation_xyz
x,y,z
-x,y,1/2-z
-x,-y,-z
x,-y,1/2+z
1/2+x,1/2+y,z
1/2-x,1/2+y,1/2-z
1/2-x,1/2-y,-z
1/2+x,1/2-y,1/2+z
loop_
_atom_site_type_symbol
_atom_site_label
_atom_site_fract_x
_atom_site_fract_y
_atom_site_fract_z
Si Si1 0.951512 0.620380 0.606929
Si Si2 0.895891 0.397773 0.829942
Si Si3 0.305775 0.677641 0.227848
Si Si4 0.434085 0.373692 0.002282
Si Si5 0.407065 0.403895 0.263084
Si Si6 0.750027 0.048882 0.589607
O O1 0.906116 0.530468 0.733055
O O2 0.875666 0.725469 0.612813
O O3 0.000000 0.500000 0.500000
O O4 0.022458 0.741549 0.593774
O O5 0.866462 0.227268 0.861853
O O6 0.822545 0.492825 0.948352
O O7 0.000000 0.363496 0.750000
O O8 0.355095 0.548134 0.261281
O O9 0.264587 0.790387 0.343409
O O10 0.246730 0.586066 0.182948
O O11 0.411481 0.313945 0.140730
O O12 0.351474 0.440805 0.997533
O O13 0.500000 0.500000 0.000000
O O14 0.500000 0.447453 0.250000
#
# Coordination Sequence:
#
# PCOD9270380 Si02
#       6
#     8   8   8   8   8   8
#     4  11  21  36  61  89 115 154 195 242 291 347
#     4  10  22  39  60  84 118 156 198 240 295 350
#     4  10  21  34  59  88 115 151 198 238 284 353
#     4  11  20  39  60  88 116 154 195 241 291 339
#     4  10  20  37  62  85 117 155 194 236 298 347
#     4  10  20  35  58  86 117 152 196 240 282 355
#
# _framework density 28.397794000000001
#
# number of rings (size 3 to 8) (size 9 to 14) (size 15 to 20)
#    0.000    1.667    5.000    2.000    2.333    2.667 
#    0.000    0.833    0.000    3.000    0.000    0.000 
#    0.000    0.000    0.000    0.000    0.000    0.000 
#
# Total GULP energy -133714.956106 kJ/mol
# GULP energy per Si atom -5571.456504 kJ/mol
# Density = 2.833316 g / cm^3
# Si number density = 28.397794 Si / 1000 Ang^3
#
#
#
# Elastic Constant Matrix: (Units=GPa)
#
#
# Indices 1 2 3 4 5 6 
#
# 1 102.3324 68.1440 28.0956 0.0000 -22.5072 0.0000
# 2 68.1440 225.3589 46.1178 0.0000 -34.5428 0.0000
# 3 28.0956 46.1178 57.0983 0.0000 -17.6347 0.0000
# 4 0.0000 0.0000 0.0000 26.8586 0.0000 -15.6648
# 5 -22.5072 -34.5428 -17.6347 0.0000 58.4157 0.0000
# 6 0.0000 0.0000 0.0000 -15.6648 0.0000 58.3155
#
#
#
# Elastic Compliance Matrix: (Units=1/GPa)
#
#
# Indices 1 2 3 4 5 6 
#
# 1 0.013165 -0.002931 -0.003396 0.000000 0.002314 0.000000
# 2 -0.002931 0.006198 -0.003067 0.000000 0.001610 0.000000
# 3 -0.003396 -0.003067 0.022825 0.000000 0.003769 0.000000
# 4 0.000000 0.000000 0.000000 0.044149 0.000000 0.011859
# 5 0.002314 0.001610 0.003769 0.000000 0.020100 0.000000
# 6 0.000000 0.000000 0.000000 0.011859 0.000000 0.020334
#
#
# Mechanical properties :
#
#
# Convention : Reuss Voigt Hill
#
# Bulk Modulus (GPa) = 42.73228 74.38937 58.56083
# Shear Modulus (GPa) = 32.60325 44.88011 38.74168
#
# Velocity S-wave (km/s) = 3.39202 3.97975 3.69758
# Velocity P-wave (km/s) = 5.51557 6.88260 6.23665
#
# Compressibility (1/GPa) = 0.02340151
#
# Stress axis : x y z
#
# Youngs Moduli (GPa) = 75.95697 161.34132 43.81088
#
# Poissons Ratio (x) = 0.47294 0.14877
# Poissons Ratio (y) = 0.22265 0.13435
# Poissons Ratio (z) = 0.25793 0.49475
#
# Static dielectric constant tensor:
#      x y z
#    x 2.738710 0.000000 0.049150 
#    y 0.000000 2.246260 0.000000 
#    z 0.049150 0.000000 2.751610 
# 
# From -- ./inp_files/251460.got.cif
#   From: 2010.05.17/outbox.cif.g08.bks.cpg/sg15_126_cif.got.tgz:251460.got - 2010.06.03 18:47:42.
