data_PCOD9270962
_publ_section_title
;
Structure prediction by ZEFSAII (Michael W. Deem and Ramdas Pophale) SiO2 
 PCOD9270962
Probable space group: C 2/C
;
_chemical_formula_sum "Si O2"
_cell_formula_units_Z 48
_cell_length_a 12.686784
_cell_length_b 22.684905
_cell_length_c 7.613382
_cell_angle_alpha 90.000000
_cell_angle_beta 107.178092
_cell_angle_gamma 90.000000
_cell_volume 2093.376968
_symmetry_space_group_name_H-M "C 2/C"
_symmetry_group_IT_number 15
_symmetry_cell_setting 'monoclinic'
loop_
_space_group_symop_operation_xyz
x,y,z
-x,y,1/2-z
-x,-y,-z
x,-y,1/2+z
1/2+x,1/2+y,z
1/2-x,1/2+y,1/2-z
1/2-x,1/2-y,-z
1/2+x,1/2-y,1/2+z
loop_
_atom_site_type_symbol
_atom_site_label
_atom_site_fract_x
_atom_site_fract_y
_atom_site_fract_z
Si Si1 0.976581 0.364828 0.535431
Si Si2 0.376725 0.380317 0.138429
Si Si3 0.724794 0.783369 0.169842
Si Si4 0.183822 0.460564 0.939823
Si Si5 0.194543 0.410904 0.549188
Si Si6 0.625425 0.328067 0.758692
O O1 0.089085 0.368479 0.482353
O O2 0.000000 0.346293 0.750000
O O3 0.884427 0.322209 0.413608
O O4 0.921814 0.430020 0.521466
O O5 0.500000 0.396578 0.250000
O O6 0.325506 0.329070 0.236942
O O7 0.292170 0.434942 0.089963
O O8 0.376999 0.353342 0.941767
O O9 0.696758 0.731748 0.290592
O O10 0.750000 0.750000 0.000000
O O11 0.183876 0.530520 0.931276
O O12 0.185801 0.434462 0.745217
O O13 0.308579 0.376196 0.595180
O O14 0.500000 0.317751 0.750000
#
# Coordination Sequence:
#
# PCOD9270962 Si02
#       6
#     8   8   8   8   8   8
#     4   9  17  33  57  83 106 138 181 226 272 321
#     4   9  19  36  58  79 102 143 190 224 265 327
#     4   9  18  34  55  78 106 141 182 224 266 324
#     4   9  19  34  55  81 109 138 179 224 268 323
#     4  10  20  36  56  80 110 145 179 222 276 325
#     4  10  22  37  52  79 114 143 179 230 275 318
#
# _framework density 22.929456999999999
#
# number of rings (size 3 to 8) (size 9 to 14) (size 15 to 20)
#    0.000    2.667    0.000    3.500    0.000    7.333 
#    0.000   10.000    0.000    0.000    0.000    0.000 
#    0.000    0.000    0.000    0.000    0.000    0.000 
#
# Total GULP energy -134206.514702 kJ/mol
# GULP energy per Si atom -5591.938113 kJ/mol
# Density = 2.287727 g / cm^3
# Si number density = 22.929457 Si / 1000 Ang^3
#
#
#
# Elastic Constant Matrix: (Units=GPa)
#
#
# Indices 1 2 3 4 5 6 
#
# 1 103.4292 14.9407 13.7797 0.0000 16.5132 0.0000
# 2 14.9407 62.3708 11.3552 0.0000 -8.4950 0.0000
# 3 13.7797 11.3552 50.0834 0.0000 6.1819 0.0000
# 4 0.0000 0.0000 0.0000 13.7444 0.0000 0.8035
# 5 16.5132 -8.4950 6.1819 0.0000 31.3964 0.0000
# 6 0.0000 0.0000 0.0000 0.8035 0.0000 20.0688
#
#
#
# Elastic Compliance Matrix: (Units=1/GPa)
#
#
# Indices 1 2 3 4 5 6 
#
# 1 0.011415 -0.003348 -0.001567 0.000000 -0.006601 0.000000
# 2 -0.003348 0.018650 -0.004251 0.000000 0.007644 0.000000
# 3 -0.001567 -0.004251 0.021935 0.000000 -0.004645 0.000000
# 4 0.000000 0.000000 0.000000 0.072928 0.000000 -0.002920
# 5 -0.006601 0.007644 -0.004645 0.000000 0.038306 0.000000
# 6 0.000000 0.000000 0.000000 -0.002920 0.000000 0.049946
#
#
# Mechanical properties :
#
#
# Convention : Reuss Voigt Hill
#
# Bulk Modulus (GPa) = 29.70142 32.89274 31.29708
# Shear Modulus (GPa) = 20.59876 24.76243 22.68060
#
# Velocity S-wave (km/s) = 3.00051 3.28981 3.14848
# Velocity P-wave (km/s) = 4.99856 5.36720 5.18615
#
# Compressibility (1/GPa) = 0.03366843
#
# Stress axis : x y z
#
# Youngs Moduli (GPa) = 87.60583 53.61852 45.58950
#
# Poissons Ratio (x) = 0.17953 0.07142
# Poissons Ratio (y) = 0.29333 0.19379
# Poissons Ratio (z) = 0.13725 0.22792
#
# Static dielectric constant tensor:
#      x y z
#    x 1.838310 0.000000 -0.041000 
#    y 0.000000 1.837980 0.000000 
#    z -0.041000 0.000000 1.895410 
# 
# From -- ./inp_files/32617.got.cif
#   From: 2010.05.17/outbox.cif.g08.bks.cpg/sg15_17_cif.got.tgz:32617.got - 2010.06.03 18:47:42.
