data_PCOD9270547
_publ_section_title
;
Structure prediction by ZEFSAII (Michael W. Deem and Ramdas Pophale) SiO2 
 PCOD9270547
Probable space group: C 2/C
;
_chemical_formula_sum "Si O2"
_cell_formula_units_Z 48
_cell_length_a 19.992017
_cell_length_b 14.753831
_cell_length_c 9.836544
_cell_angle_alpha 90.000000
_cell_angle_beta 139.923167
_cell_angle_gamma 90.000000
_cell_volume 1867.947074
_symmetry_space_group_name_H-M "C 2/C"
_symmetry_group_IT_number 15
_symmetry_cell_setting 'monoclinic'
loop_
_space_group_symop_operation_xyz
x,y,z
-x,y,1/2-z
-x,-y,-z
x,-y,1/2+z
1/2+x,1/2+y,z
1/2-x,1/2+y,1/2-z
1/2-x,1/2-y,-z
1/2+x,1/2-y,1/2+z
loop_
_atom_site_type_symbol
_atom_site_label
_atom_site_fract_x
_atom_site_fract_y
_atom_site_fract_z
Si Si1 0.902954 0.069794 0.998035
Si Si2 0.811548 0.606110 0.131518
Si Si3 0.268656 0.912428 0.044004
Si Si4 0.642320 0.636183 0.100786
Si Si5 0.000183 0.388639 0.400539
Si Si6 0.936408 0.227409 0.855642
O O1 0.000000 0.089323 0.250000
O O2 0.895346 0.134095 0.854501
O O3 0.802870 0.083466 0.936227
O O4 0.908438 0.964033 0.967673
O O5 0.778537 0.516002 0.000031
O O6 0.718498 0.632026 0.089731
O O7 0.912228 0.565965 0.370710
O O8 0.862126 0.700976 0.159982
O O9 0.382180 0.880526 0.260689
O O10 0.215589 0.852557 0.845485
O O11 0.545517 0.704122 0.954666
O O12 0.042734 0.285984 0.474894
O O13 0.000000 0.427325 0.250000
#
# Coordination Sequence:
#
# PCOD9270547 Si02
#       6
#     8   8   8   8   8   8
#     4  11  23  38  60  86 117 155 206 243 302 354
#     4   9  23  38  57  92 122 151 202 246 299 359
#     4  11  21  38  61  85 119 163 192 245 302 360
#     4  11  22  38  64  86 116 162 200 246 296 363
#     4  10  20  35  60  86 122 149 197 250 297 353
#     4  10  22  36  58  87 120 149 199 250 295 340
#
# _framework density 25.696659
#
# number of rings (size 3 to 8) (size 9 to 14) (size 15 to 20)
#    1.000    0.667    3.333    1.500    2.333    0.667 
#    0.000    0.833    0.000    0.000    0.000    0.000 
#    0.000    0.000    0.000    0.000    0.000    0.000 
#
# Total GULP energy -134052.316525 kJ/mol
# GULP energy per Si atom -5585.513189 kJ/mol
# Density = 2.563817 g / cm^3
# Si number density = 25.696659 Si / 1000 Ang^3
#
#
#
# Elastic Constant Matrix: (Units=GPa)
#
#
# Indices 1 2 3 4 5 6 
#
# 1 72.3210 4.9582 22.1557 0.0000 27.8770 0.0000
# 2 4.9582 75.1319 28.0759 0.0000 15.1644 0.0000
# 3 22.1557 28.0759 74.1385 0.0000 3.6970 0.0000
# 4 0.0000 0.0000 0.0000 48.2156 0.0000 17.8077
# 5 27.8770 15.1644 3.6970 0.0000 48.1310 0.0000
# 6 0.0000 0.0000 0.0000 17.8077 0.0000 7.6779
#
#
#
# Elastic Compliance Matrix: (Units=1/GPa)
#
#
# Indices 1 2 3 4 5 6 
#
# 1 0.020530 0.003770 -0.006937 0.000000 -0.012546 0.000000
# 2 0.003770 0.017208 -0.007292 0.000000 -0.007045 0.000000
# 3 -0.006937 -0.007292 0.018077 0.000000 0.004927 0.000000
# 4 0.000000 0.000000 0.000000 0.144655 0.000000 -0.335506
# 5 -0.012546 -0.007045 0.004927 0.000000 0.029884 0.000000
# 6 0.000000 0.000000 0.000000 -0.335506 0.000000 0.908406
#
#
# Mechanical properties :
#
#
# Convention : Reuss Voigt Hill
#
# Bulk Modulus (GPa) = 28.65635 36.88568 32.77101
# Shear Modulus (GPa) = 4.26873 31.89833 18.08353
#
# Velocity S-wave (km/s) = 1.29027 3.52709 2.65567
# Velocity P-wave (km/s) = 3.66002 5.56530 4.71001
#
# Compressibility (1/GPa) = 0.03489628
#
# Stress axis : x y z
#
# Youngs Moduli (GPa) = 48.70958 58.11275 55.31867
#
# Poissons Ratio (x) = -0.21906 0.38375
# Poissons Ratio (y) = -0.18362 0.40337
# Poissons Ratio (z) = 0.33791 0.42375
#
# Static dielectric constant tensor:
#      x y z
#    x 1.947220 0.000000 -0.004640 
#    y 0.000000 2.075050 0.000000 
#    z -0.004640 0.000000 2.088270 
# 
# From -- ./inp_files/178202.got.cif
#   From: 2010.05.17/outbox.cif.g08.bks.cpg/sg15_90_cif.got.tgz:178202.got - 2010.06.03 18:47:42.
