data_PCOD9270403
_publ_section_title
;
Structure prediction by ZEFSAII (Michael W. Deem and Ramdas Pophale) SiO2 
 PCOD9270403
Probable space group: C 2/C
;
_chemical_formula_sum "Si O2"
_cell_formula_units_Z 56
_cell_length_a 19.004671
_cell_length_b 14.518606
_cell_length_c 8.750721
_cell_angle_alpha 90.000000
_cell_angle_beta 68.045294
_cell_angle_gamma 90.000000
_cell_volume 2239.409554
_symmetry_space_group_name_H-M "C 2/C"
_symmetry_group_IT_number 15
_symmetry_cell_setting 'monoclinic'
loop_
_space_group_symop_operation_xyz
x,y,z
-x,y,1/2-z
-x,-y,-z
x,-y,1/2+z
1/2+x,1/2+y,z
1/2-x,1/2+y,1/2-z
1/2-x,1/2-y,-z
1/2+x,1/2-y,1/2+z
loop_
_atom_site_type_symbol
_atom_site_label
_atom_site_fract_x
_atom_site_fract_y
_atom_site_fract_z
Si Si1 0.946744 0.784343 0.095513
Si Si2 0.868537 0.612698 0.313242
Si Si3 0.286011 0.619628 0.713447
Si Si4 0.432744 0.572551 0.019508
Si Si5 0.250000 0.250000 0.500000
Si Si6 0.500000 0.203722 0.750000
Si Si7 0.575784 0.943120 0.401591
Si Si8 0.326750 0.543327 0.376591
O O1 0.925311 0.688879 0.193696
O O2 0.874017 0.849854 0.174502
O O3 0.025371 0.835560 0.073252
O O4 0.955656 0.763730 0.909020
O O5 0.787616 0.661241 0.385100
O O6 0.870890 0.517976 0.220884
O O7 0.896216 0.593689 0.460920
O O8 0.281414 0.605028 0.535476
O O9 0.277290 0.523970 0.811482
O O10 0.240056 0.697529 0.838961
O O11 0.384005 0.591898 0.211142
O O12 0.500000 0.500000 0.000000
O O13 0.378403 0.523579 0.941930
O O14 0.444428 0.137848 0.698833
O O15 0.500000 0.000000 0.500000
#
# Coordination Sequence:
#
# PCOD9270403 Si02
#       8
#     8   8   8   8   4   4   8   8
#     4  11  22  34  57  93 137 169 211 276 333 420
#     4  11  24  44  70  98 137 178 232 287 352 428
#     4  10  22  39  60  81 122 164 226 269 319 391
#     4  11  20  33  56  89 137 171 205 250 339 414
#     4  10  26  46  64  94 126 180 230 288 340 396
#     4  12  24  36  64 104 136 172 220 282 374 418
#     4  12  22  44  71 103 136 175 227 296 375 426
#     4  10  20  35  58  88 119 173 210 255 320 411
#
# _framework density 25.006592999999999
#
# number of rings (size 3 to 8) (size 9 to 14) (size 15 to 20)
#    0.000    1.143    5.714    1.286    0.000    4.571 
#    0.000    0.000    0.000   11.143    0.000    0.000 
#    0.000    0.000    0.000    0.000    0.000    0.000 
#
# Total GULP energy -156334.915164 kJ/mol
# GULP energy per Si atom -5583.389827 kJ/mol
# Density = 2.494968 g / cm^3
# Si number density = 25.006593 Si / 1000 Ang^3
#
#
#
# Elastic Constant Matrix: (Units=GPa)
#
#
# Indices 1 2 3 4 5 6 
#
# 1 64.2619 14.9084 20.4602 0.0000 4.0321 0.0000
# 2 14.9084 49.9145 38.3415 0.0000 6.5802 0.0000
# 3 20.4602 38.3415 174.8171 0.0000 19.2555 0.0000
# 4 0.0000 0.0000 0.0000 81.2178 0.0000 -6.8260
# 5 4.0321 6.5802 19.2555 0.0000 29.1042 0.0000
# 6 0.0000 0.0000 0.0000 -6.8260 0.0000 18.3625
#
#
#
# Elastic Compliance Matrix: (Units=1/GPa)
#
#
# Indices 1 2 3 4 5 6 
#
# 1 0.016892 -0.004199 -0.000974 0.000000 -0.000747 0.000000
# 2 -0.004199 0.025257 -0.004836 0.000000 -0.001929 0.000000
# 3 -0.000974 -0.004836 0.007291 0.000000 -0.003595 0.000000
# 4 0.000000 0.000000 0.000000 0.012710 0.000000 0.004725
# 5 -0.000747 -0.001929 -0.003595 0.000000 0.037278 0.000000
# 6 0.000000 0.000000 0.000000 0.004725 0.000000 0.056215
#
#
# Mechanical properties :
#
#
# Convention : Reuss Voigt Hill
#
# Bulk Modulus (GPa) = 33.98622 48.49043 41.23833
# Shear Modulus (GPa) = 26.95890 40.08911 33.52401
#
# Velocity S-wave (km/s) = 3.28696 4.00827 3.66540
# Velocity P-wave (km/s) = 5.29395 6.39177 5.86859
#
# Compressibility (1/GPa) = 0.02942369
#
# Stress axis : x y z
#
# Youngs Moduli (GPa) = 59.19832 39.59279 137.15882
#
# Poissons Ratio (x) = 0.16625 0.13358
# Poissons Ratio (y) = 0.24857 0.66324
# Poissons Ratio (z) = 0.05765 0.19145
#
# Static dielectric constant tensor:
#      x y z
#    x 1.979150 0.000000 -0.073730 
#    y 0.000000 1.966790 0.000000 
#    z -0.073730 0.000000 1.956860 
# 
# From -- ./inp_files/61865.got.cif
#   From: 2010.05.17/outbox.cif.g08.bks.cpg/sg15_31_cif.got.tgz:61865.got - 2010.06.03 18:47:42.
