data_PCOD9270453
_publ_section_title
;
Structure prediction by ZEFSAII (Michael W. Deem and Ramdas Pophale) SiO2 
 PCOD9270453
Probable space group: C 2/C
;
_chemical_formula_sum "Si O2"
_cell_formula_units_Z 36
_cell_length_a 11.522307
_cell_length_b 7.316299
_cell_length_c 18.512134
_cell_angle_alpha 90.000000
_cell_angle_beta 63.350781
_cell_angle_gamma 90.000000
_cell_volume 1394.802735
_symmetry_space_group_name_H-M "C 2/C"
_symmetry_group_IT_number 15
_symmetry_cell_setting 'monoclinic'
loop_
_space_group_symop_operation_xyz
x,y,z
-x,y,1/2-z
-x,-y,-z
x,-y,1/2+z
1/2+x,1/2+y,z
1/2-x,1/2+y,1/2-z
1/2-x,1/2-y,-z
1/2+x,1/2-y,1/2+z
loop_
_atom_site_type_symbol
_atom_site_label
_atom_site_fract_x
_atom_site_fract_y
_atom_site_fract_z
Si Si1 0.674688 0.385846 0.414757
Si Si2 0.750000 0.750000 0.500000
Si Si3 0.970253 0.308235 0.336663
Si Si4 0.075159 0.291856 0.448356
Si Si5 0.002248 0.127104 0.831925
O O1 0.818615 0.330445 0.390875
O O2 0.667128 0.607213 0.432376
O O3 0.563349 0.293052 0.493571
O O4 0.630199 0.340350 0.345409
O O5 0.846550 0.595191 0.515392
O O6 0.878681 0.808766 0.412485
O O7 0.000000 0.386201 0.250000
O O8 0.063611 0.379806 0.373895
O O9 0.998773 0.092713 0.329284
O O10 0.000000 0.194546 0.750000
#
# Coordination Sequence:
#
# PCOD9270453 Si02
#       5
#     8   4   8   8   8
#     4   9  18  36  58  79 108 148 191 240 283 337
#     4  10  20  36  58  82 116 158 186 230 302 346
#     4  10  20  35  59  84 108 151 195 239 288 346
#     4   9  19  35  55  80 112 147 189 232 286 349
#     4   9  20  37  57  82 116 155 190 241 295 349
#
# _framework density 25.810099000000001
#
# number of rings (size 3 to 8) (size 9 to 14) (size 15 to 20)
#    0.000    2.667    0.000    2.000    3.111    0.000 
#    0.000   11.111    0.000    0.000    0.000    0.000 
#    0.000    0.000    0.000    0.000    0.000    0.000 
#
# Total GULP energy -100302.279371 kJ/mol
# GULP energy per Si atom -5572.348854 kJ/mol
# Density = 2.575135 g / cm^3
# Si number density = 25.810099 Si / 1000 Ang^3
#
#
#
# Elastic Constant Matrix: (Units=GPa)
#
#
# Indices 1 2 3 4 5 6 
#
# 1 139.3027 19.0089 58.1295 0.0000 27.6199 0.0000
# 2 19.0089 71.0047 -16.4636 0.0000 11.9045 0.0000
# 3 58.1295 -16.4636 98.0463 0.0000 45.4707 0.0000
# 4 0.0000 0.0000 0.0000 12.2008 0.0000 -9.9895
# 5 27.6199 11.9045 45.4707 0.0000 48.7358 0.0000
# 6 0.0000 0.0000 0.0000 -9.9895 0.0000 14.0892
#
#
#
# Elastic Compliance Matrix: (Units=1/GPa)
#
#
# Indices 1 2 3 4 5 6 
#
# 1 0.011098 -0.005771 -0.009317 0.000000 0.003813 0.000000
# 2 -0.005771 0.021373 0.013951 0.000000 -0.014967 0.000000
# 3 -0.009317 0.013951 0.030314 0.000000 -0.026411 0.000000
# 4 0.000000 0.000000 0.000000 0.195387 0.000000 0.138532
# 5 0.003813 -0.014967 -0.026411 0.000000 0.046655 0.000000
# 6 0.000000 0.000000 0.000000 0.138532 0.000000 0.169198
#
#
# Mechanical properties :
#
#
# Convention : Reuss Voigt Hill
#
# Bulk Modulus (GPa) = 16.52567 47.74481 32.13524
# Shear Modulus (GPa) = 10.07114 31.51709 20.79412
#
# Velocity S-wave (km/s) = 1.97749 3.49824 2.84149
# Velocity P-wave (km/s) = 3.41038 5.90386 4.82111
#
# Compressibility (1/GPa) = 0.06051190
#
# Stress axis : x y z
#
# Youngs Moduli (GPa) = 90.10652 46.78898 32.98765
#
# Poissons Ratio (x) = 0.27000 0.30735
# Poissons Ratio (y) = 0.51997 -0.46022
# Poissons Ratio (z) = 0.83953 -0.65276
#
# Static dielectric constant tensor:
#      x y z
#    x 1.494110 0.000000 -0.094940 
#    y 0.000000 1.920540 0.000000 
#    z -0.094940 0.000000 2.045230 
# 
# From -- ./inp_files/141340.got.cif
#   From: 2010.05.17/outbox.cif.g08.bks.cpg/sg15_71_cif.got.tgz:141340.got - 2010.06.03 18:47:42.
