data_PCOD9270252
_publ_section_title
;
Structure prediction by ZEFSAII (Michael W. Deem and Ramdas Pophale) SiO2 
 PCOD9270252
Probable space group: C 2/C
;
_chemical_formula_sum "Si O2"
_cell_formula_units_Z 52
_cell_length_a 15.697230
_cell_length_b 17.327284
_cell_length_c 13.791207
_cell_angle_alpha 90.000000
_cell_angle_beta 33.850655
_cell_angle_gamma 90.000000
_cell_volume 2089.461780
_symmetry_space_group_name_H-M "C 2/C"
_symmetry_group_IT_number 15
_symmetry_cell_setting 'monoclinic'
loop_
_space_group_symop_operation_xyz
x,y,z
-x,y,1/2-z
-x,-y,-z
x,-y,1/2+z
1/2+x,1/2+y,z
1/2-x,1/2+y,1/2-z
1/2-x,1/2-y,-z
1/2+x,1/2-y,1/2+z
loop_
_atom_site_type_symbol
_atom_site_label
_atom_site_fract_x
_atom_site_fract_y
_atom_site_fract_z
Si Si1 0.500000 0.328817 0.750000
Si Si2 0.651595 0.191326 0.481874
Si Si3 0.552633 0.365022 0.043249
Si Si4 0.814729 0.749649 0.265781
Si Si5 0.088420 0.925260 0.799940
Si Si6 0.000000 0.433243 0.250000
Si Si7 0.753295 0.951829 0.477626
Si Si8 0.000000 0.340670 0.750000
O O1 0.601999 0.262481 0.593426
O O2 0.438327 0.402221 0.885518
O O3 0.638424 0.215974 0.383247
O O4 0.825681 0.154652 0.324588
O O5 0.546592 0.120657 0.615799
O O6 0.644020 0.283909 0.940268
O O7 0.582004 0.416319 0.919993
O O8 0.629235 0.408568 0.061355
O O9 0.377329 0.336935 0.212670
O O10 0.898873 0.709490 0.275215
O O11 0.168350 0.000655 0.683524
O O12 0.855228 0.486685 0.363989
O O13 0.620141 0.891310 0.575415
#
# Coordination Sequence:
#
# PCOD9270252 Si02
#       8
#     4   8   8   8   8   4   8   4
#     4  11  18  33  55  82 115 150 190 248 305 348
#     4   9  18  32  56  83 113 146 200 248 287 338
#     4  10  21  39  63  88 122 152 200 248 294 353
#     4  10  20  37  59  92 114 154 198 250 297 339
#     4  10  20  35  57  83 119 154 194 240 298 359
#     4   8  16  32  54  84 108 152 198 238 290 334
#     4   9  19  36  55  83 119 157 193 237 291 358
#     4   9  20  37  63  82 115 156 208 246 275 340
#
# _framework density 24.886790999999999
#
# number of rings (size 3 to 8) (size 9 to 14) (size 15 to 20)
#    0.000    2.462    1.538    0.462    0.000    3.692 
#    0.000    9.231    3.385    0.000    0.000    0.000 
#    0.000    0.000    0.000    0.000    0.000    0.000 
#
# Total GULP energy -144988.995837 kJ/mol
# GULP energy per Si atom -5576.499840 kJ/mol
# Density = 2.483015 g / cm^3
# Si number density = 24.886791 Si / 1000 Ang^3
#
#
#
# Elastic Constant Matrix: (Units=GPa)
#
#
# Indices 1 2 3 4 5 6 
#
# 1 88.1968 19.7375 26.3647 -0.0007 3.1410 0.0004
# 2 19.7375 125.9548 55.1741 -0.0006 -0.8720 0.0003
# 3 26.3647 55.1741 129.6088 -0.0006 -14.3951 0.0004
# 4 -0.0007 -0.0006 -0.0006 30.6889 0.0005 -15.7993
# 5 3.1410 -0.8720 -14.3951 0.0005 21.1446 -0.0002
# 6 0.0004 0.0003 0.0004 -15.7993 -0.0002 38.0170
#
#
#
# Elastic Compliance Matrix: (Units=1/GPa)
#
#
# Indices 1 2 3 4 5 6 
#
# 1 0.012425 -0.000846 -0.002571 0.000000 -0.003631 0.000000
# 2 -0.000846 0.009953 -0.004333 0.000000 -0.002414 0.000000
# 3 -0.002571 -0.004333 0.010932 0.000000 0.007646 0.000000
# 4 0.000000 0.000000 0.000000 0.041454 -0.000001 0.017228
# 5 -0.003631 -0.002414 0.007646 -0.000001 0.052938 0.000000
# 6 0.000000 0.000000 0.000000 0.017228 0.000000 0.033464
#
#
# Mechanical properties :
#
#
# Convention : Reuss Voigt Hill
#
# Bulk Modulus (GPa) = 56.14435 60.70145 58.42290
# Shear Modulus (GPa) = 27.38165 34.13569 30.75867
#
# Velocity S-wave (km/s) = 3.32060 3.70758 3.51941
# Velocity P-wave (km/s) = 6.10825 6.54005 6.32783
#
# Compressibility (1/GPa) = 0.01781123
#
# Stress axis : x y z
#
# Youngs Moduli (GPa) = 80.48052 100.46896 91.47330
#
# Poissons Ratio (x) = 0.08502 0.23514
# Poissons Ratio (y) = 0.06810 0.39636
# Poissons Ratio (z) = 0.20688 0.43534
#
# Static dielectric constant tensor:
#      x y z
#    x 3.050210 0.000000 -0.258250 
#    y 0.000000 2.066710 0.000000 
#    z -0.258250 0.000000 2.112370 
# 
# From -- ./inp_files/112676.got.cif
#   From: 2010.05.17/outbox.cif.g08.bks.cpg/sg15_57_cif.got.tgz:112676.got - 2010.06.03 18:47:42.
