data_PCOD9270975
_publ_section_title
;
Structure prediction by ZEFSAII (Michael W. Deem and Ramdas Pophale) SiO2 
 PCOD9270975
Probable space group: C 2/C
;
_chemical_formula_sum "Si O2"
_cell_formula_units_Z 56
_cell_length_a 17.054026
_cell_length_b 5.222993
_cell_length_c 22.646679
_cell_angle_alpha 90.000000
_cell_angle_beta 79.936488
_cell_angle_gamma 90.000000
_cell_volume 1986.173516
_symmetry_space_group_name_H-M "C 2/C"
_symmetry_group_IT_number 15
_symmetry_cell_setting 'monoclinic'
loop_
_space_group_symop_operation_xyz
x,y,z
-x,y,1/2-z
-x,-y,-z
x,-y,1/2+z
1/2+x,1/2+y,z
1/2-x,1/2+y,1/2-z
1/2-x,1/2-y,-z
1/2+x,1/2-y,1/2+z
loop_
_atom_site_type_symbol
_atom_site_label
_atom_site_fract_x
_atom_site_fract_y
_atom_site_fract_z
Si Si1 0.744748 0.676406 0.320382
Si Si2 0.757607 0.177145 0.400105
Si Si3 0.666648 0.148023 0.987114
Si Si4 0.007374 0.250537 0.540343
Si Si5 0.919923 0.706137 0.862431
Si Si6 0.410471 0.709778 0.786474
Si Si7 0.412561 0.391365 0.619325
O O1 0.756875 0.918867 0.361887
O O2 0.822670 0.718866 0.268279
O O3 0.649634 0.666638 0.319291
O O4 0.747939 0.411434 0.356516
O O5 0.689838 0.130617 0.457617
O O6 0.845303 0.227679 0.414171
O O7 0.632183 0.293096 0.933577
O O8 0.750000 0.250000 0.000000
O O9 0.599613 0.208456 0.044234
O O10 0.000000 0.500000 0.500000
O O11 0.946266 0.178068 0.600939
O O12 0.000000 0.000000 0.500000
O O13 0.911836 0.923896 0.812764
O O14 0.005889 0.741347 0.879545
O O15 0.910399 0.431587 0.835301
O O16 0.500000 0.739225 0.750000
#
# Coordination Sequence:
#
# PCOD9270975 Si02
#       7
#     8   8   8   8   8   8   8
#     4   9  19  35  58  79 109 147 181 224 278 338
#     4   9  18  35  53  78 108 148 192 224 271 338
#     4  10  20  36  56  81 114 155 196 240 278 318
#     4  10  21  36  55  80 112 149 191 243 284 315
#     4  10  21  36  61  85 113 150 182 229 284 336
#     4  10  21  40  62  87 112 142 183 227 282 350
#     4  10  21  38  55  84 116 149 194 235 281 339
#
# _framework density 28.194918999999999
#
# number of rings (size 3 to 8) (size 9 to 14) (size 15 to 20)
#    0.000    2.286    0.000    2.143    0.000    4.571 
#    0.000   22.857    0.000    0.000    0.000    0.000 
#    0.000    0.000    0.000    0.000    0.000    0.000 
#
# Total GULP energy -156343.005986 kJ/mol
# GULP energy per Si atom -5583.678785 kJ/mol
# Density = 2.813075 g / cm^3
# Si number density = 28.194919 Si / 1000 Ang^3
#
#
#
# Elastic Constant Matrix: (Units=GPa)
#
#
# Indices 1 2 3 4 5 6 
#
# 1 185.1942 6.1490 30.4102 0.0000 -44.8921 0.0000
# 2 6.1490 167.8499 32.1754 0.0000 8.0475 0.0000
# 3 30.4102 32.1754 88.5105 0.0000 -35.2187 0.0000
# 4 0.0000 0.0000 0.0000 43.9125 0.0000 -0.5648
# 5 -44.8921 8.0475 -35.2187 0.0000 57.5306 0.0000
# 6 0.0000 0.0000 0.0000 -0.5648 0.0000 42.3779
#
#
#
# Elastic Compliance Matrix: (Units=1/GPa)
#
#
# Indices 1 2 3 4 5 6 
#
# 1 0.006701 -0.000495 -0.000019 0.000000 0.005287 0.000000
# 2 -0.000495 0.006878 -0.003790 0.000000 -0.003669 0.000000
# 3 -0.000019 -0.003790 0.017038 0.000000 0.010946 0.000000
# 4 0.000000 0.000000 0.000000 0.022776 0.000000 0.000304
# 5 0.005287 -0.003669 0.010946 0.000000 0.028721 0.000000
# 6 0.000000 0.000000 0.000000 0.000304 0.000000 0.023601
#
#
# Mechanical properties :
#
#
# Convention : Reuss Voigt Hill
#
# Bulk Modulus (GPa) = 45.43690 64.33598 54.88644
# Shear Modulus (GPa) = 41.09829 53.61886 47.35857
#
# Velocity S-wave (km/s) = 3.82206 4.36560 4.10284
# Velocity P-wave (km/s) = 5.96890 6.94832 6.47715
#
# Compressibility (1/GPa) = 0.02200854
#
# Stress axis : x y z
#
# Youngs Moduli (GPa) = 149.23726 145.38530 58.69392
#
# Poissons Ratio (x) = 0.07202 0.00109
# Poissons Ratio (y) = 0.07393 0.22245
# Poissons Ratio (z) = 0.00277 0.55102
#
# Static dielectric constant tensor:
#      x y z
#    x 2.462620 0.000000 -0.173460 
#    y 0.000000 2.284050 0.000000 
#    z -0.173460 0.000000 2.413100 
# 
# From -- ./inp_files/314848.got.cif
#   From: 2010.05.17/outbox.cif.g08.bks.cpg/sg15_158_cif.got.tgz:314848.got - 2010.06.03 18:47:42.
