data_PCOD9270948
_publ_section_title
;
Structure prediction by ZEFSAII (Michael W. Deem and Ramdas Pophale) SiO2 
 PCOD9270948
Probable space group: C 2/C
;
_chemical_formula_sum "Si O2"
_cell_formula_units_Z 64
_cell_length_a 24.124485
_cell_length_b 20.796645
_cell_length_c 18.461510
_cell_angle_alpha 90.000000
_cell_angle_beta 22.248188
_cell_angle_gamma 90.000000
_cell_volume 3506.883599
_symmetry_space_group_name_H-M "C 2/C"
_symmetry_group_IT_number 15
_symmetry_cell_setting 'monoclinic'
loop_
_space_group_symop_operation_xyz
x,y,z
-x,y,1/2-z
-x,-y,-z
x,-y,1/2+z
1/2+x,1/2+y,z
1/2-x,1/2+y,1/2-z
1/2-x,1/2-y,-z
1/2+x,1/2-y,1/2+z
loop_
_atom_site_type_symbol
_atom_site_label
_atom_site_fract_x
_atom_site_fract_y
_atom_site_fract_z
Si Si1 0.594968 0.329970 0.703203
Si Si2 0.841416 0.933929 0.751262
Si Si3 0.968478 0.440395 0.439419
Si Si4 0.740768 0.695189 0.413322
Si Si5 0.979726 0.940740 0.427949
Si Si6 0.826854 0.555016 0.270742
Si Si7 0.430635 0.307953 0.226779
Si Si8 0.571778 0.813892 0.241355
O O1 0.500000 0.354515 0.750000
O O2 0.619163 0.377720 0.740634
O O3 0.532223 0.260561 0.804866
O O4 0.754821 0.317439 0.477211
O O5 0.905614 0.920630 0.593664
O O6 0.922801 0.997224 0.679512
O O7 0.669522 0.947944 0.947717
O O8 0.905041 0.442242 0.597669
O O9 0.089500 0.497534 0.288223
O O10 0.027230 0.369186 0.351004
O O11 0.824457 0.627076 0.306267
O O12 0.652438 0.697449 0.595952
O O13 0.606174 0.701464 0.520024
O O14 0.852494 0.754215 0.273177
O O15 0.080122 0.881721 0.282839
O O16 0.845966 0.956603 0.535254
O O17 0.500000 0.828683 0.250000
#
# Coordination Sequence:
#
# PCOD9270948 Si02
#       8
#     8   8   8   8   8   8   8   8
#     4  10  22  36  56  82 108 142 182 224 273 325
#     4  10  20  37  54  77 109 144 176 224 270 315
#     4  10  20  36  56  76 110 142 179 224 269 314
#     4   9  18  34  54  77 107 136 175 216 263 311
#     4   9  20  36  54  77 111 140 180 222 267 320
#     4   9  20  36  54  80 106 144 181 221 266 320
#     4   9  18  34  54  77 105 139 171 219 263 312
#     4  10  20  38  56  78 110 140 180 230 271 319
#
# _framework density 18.249822999999999
#
# number of rings (size 3 to 8) (size 9 to 14) (size 15 to 20)
#    0.000    2.500    1.250    0.000    1.750    3.000 
#    2.250    0.000    0.000    0.000    0.000    0.000 
#    0.000    0.000    0.000    0.000    0.000    0.000 
#
# Total GULP energy -178207.542425 kJ/mol
# GULP energy per Si atom -5568.985701 kJ/mol
# Density = 1.820829 g / cm^3
# Si number density = 18.249823 Si / 1000 Ang^3
#
#
#
# Elastic Constant Matrix: (Units=GPa)
#
#
# Indices 1 2 3 4 5 6 
#
# 1 53.7450 44.6620 16.9372 -0.0023 -21.9551 -0.0002
# 2 44.6620 74.2240 39.7013 0.0048 -7.0674 0.0032
# 3 16.9372 39.7013 45.1204 0.0053 -17.6124 0.0050
# 4 -0.0023 0.0048 0.0053 -22.0551 0.0046 -40.9157
# 5 -21.9551 -7.0674 -17.6124 0.0046 12.2122 0.0041
# 6 -0.0002 0.0032 0.0050 -40.9157 0.0041 1.1012
#
#
#
# Elastic Compliance Matrix: (Units=1/GPa)
#
#
# Indices 1 2 3 4 5 6 
#
# 1 -0.009179 0.019078 -0.035403 -0.000008 -0.056519 -0.000004
# 2 0.019078 -0.001158 0.015980 0.000007 0.056674 0.000003
# 3 -0.035403 0.015980 0.000360 -0.000004 -0.053880 0.000000
# 4 -0.000008 0.000007 -0.000004 -0.000648 -0.000008 -0.024091
# 5 -0.056519 0.056674 -0.053880 -0.000008 -0.064632 0.000000
# 6 -0.000004 0.000003 0.000000 -0.024091 0.000000 0.012986
#
#
# Mechanical properties :
#
#
# Convention : Reuss Voigt Hill
#
# Bulk Modulus (GPa) = -93.74958 41.74337 -26.00310
# Shear Modulus (GPa) = -76.76395 3.03759 -36.86318
#
# Velocity S-wave (km/s) = -6.49262 1.29153 -4.49923
# Velocity P-wave (km/s) = 10.37724 5.01468 6.42418
#
# Compressibility (1/GPa) = -0.01066671
#
# Stress axis : x y z
#
# Youngs Moduli (GPa) = -108.94917 -863.78659 2775.24393
#
# Poissons Ratio (x) = 16.47918 98.25129
# Poissons Ratio (y) = 2.07851 -44.34714
# Poissons Ratio (z) = -3.85710 13.80292
#
# Static dielectric constant tensor:
#      x y z
#    x 1.667110 0.000000 -0.015160 
#    y 0.000000 1.631690 0.000000 
#    z -0.015160 0.000000 1.627130 
# 
# From -- ./inp_files/258066.got.cif
#   From: 2010.05.17/outbox.cif.g08.bks.cpg/sg15_130_cif.got.tgz:258066.got - 2010.06.03 18:47:42.
