data_PCOD9270690
_publ_section_title
;
Structure prediction by ZEFSAII (Michael W. Deem and Ramdas Pophale) SiO2 
 PCOD9270690
Probable space group: C 2/C
;
_chemical_formula_sum "Si O2"
_cell_formula_units_Z 48
_cell_length_a 12.614063
_cell_length_b 13.941158
_cell_length_c 11.712321
_cell_angle_alpha 90.000000
_cell_angle_beta 92.095496
_cell_angle_gamma 90.000000
_cell_volume 2058.288697
_symmetry_space_group_name_H-M "C 2/C"
_symmetry_group_IT_number 15
_symmetry_cell_setting 'monoclinic'
loop_
_space_group_symop_operation_xyz
x,y,z
-x,y,1/2-z
-x,-y,-z
x,-y,1/2+z
1/2+x,1/2+y,z
1/2-x,1/2+y,1/2-z
1/2-x,1/2-y,-z
1/2+x,1/2-y,1/2+z
loop_
_atom_site_type_symbol
_atom_site_label
_atom_site_fract_x
_atom_site_fract_y
_atom_site_fract_z
Si Si1 0.151585 0.882378 0.175322
Si Si2 0.364536 0.758852 0.442585
Si Si3 0.104536 0.312367 0.816044
Si Si4 0.639719 0.294736 0.945834
Si Si5 0.391029 0.126304 0.715631
Si Si6 0.329606 0.407416 0.783170
O O1 0.133964 0.791192 0.258270
O O2 0.277980 0.905312 0.162668
O O3 0.120799 0.987324 0.214981
O O4 0.098777 0.851181 0.054375
O O5 0.250000 0.750000 0.500000
O O6 0.427554 0.796176 0.554011
O O7 0.357475 0.831539 0.337303
O O8 0.388387 0.658331 0.380602
O O9 0.204858 0.383518 0.806667
O O10 0.000000 0.348535 0.750000
O O11 0.579148 0.209903 0.875007
O O12 0.661702 0.366684 0.843719
O O13 0.750000 0.250000 0.000000
O O14 0.500000 0.071838 0.750000
#
# Coordination Sequence:
#
# PCOD9270690 Si02
#       6
#     8   8   8   8   8   8
#     4  11  22  37  61  89 123 158 201 253 307 366
#     4   9  18  39  59  80 119 159 201 242 308 358
#     4  11  23  39  62  89 121 161 202 251 312 367
#     4   9  18  38  59  82 117 158 200 245 309 354
#     4  10  20  35  62  88 114 161 206 248 303 362
#     4  10  21  38  64  86 115 163 203 250 305 366
#
# _framework density 23.320343999999999
#
# number of rings (size 3 to 8) (size 9 to 14) (size 15 to 20)
#    0.000    2.000    6.667    0.000    4.667    0.667 
#    0.000    4.167    0.000    6.000    0.000    0.000 
#    0.000    0.000    0.000    0.000    0.000    0.000 
#
# Total GULP energy -133652.606869 kJ/mol
# GULP energy per Si atom -5568.858620 kJ/mol
# Density = 2.326727 g / cm^3
# Si number density = 23.320344 Si / 1000 Ang^3
#
#
#
# Elastic Constant Matrix: (Units=GPa)
#
#
# Indices 1 2 3 4 5 6 
#
# 1 84.0742 0.3850 15.3133 0.0000 13.3575 0.0000
# 2 0.3850 105.9611 37.3094 0.0000 -9.9509 0.0000
# 3 15.3133 37.3094 190.6319 0.0000 0.2093 0.0000
# 4 0.0000 0.0000 0.0000 13.1711 0.0000 5.4168
# 5 13.3575 -9.9509 0.2093 0.0000 43.1027 0.0000
# 6 0.0000 0.0000 0.0000 5.4168 0.0000 -3.4135
#
#
#
# Elastic Compliance Matrix: (Units=1/GPa)
#
#
# Indices 1 2 3 4 5 6 
#
# 1 0.012704 -0.000063 -0.001004 0.000000 -0.003947 0.000000
# 2 -0.000063 0.010380 -0.002029 0.000000 0.002426 0.000000
# 3 -0.001004 -0.002029 0.005724 0.000000 -0.000185 0.000000
# 4 0.000000 0.000000 0.000000 0.045941 0.000000 0.072903
# 5 -0.003947 0.002426 -0.000185 0.000000 0.024984 0.000000
# 6 0.000000 0.000000 0.000000 0.072903 0.000000 -0.177264
#
#
# Mechanical properties :
#
#
# Convention : Reuss Voigt Hill
#
# Bulk Modulus (GPa) = 44.21735 54.07583 49.14659
# Shear Modulus (GPa) = -78.37109 32.41600 -22.97754
#
# Velocity S-wave (km/s) = -5.80338 3.73236 -3.14235
# Velocity P-wave (km/s) = 5.08957 6.46627 2.82036
#
# Compressibility (1/GPa) = 0.02261556
#
# Stress axis : x y z
#
# Youngs Moduli (GPa) = 78.71253 96.33993 174.71308
#
# Poissons Ratio (x) = 0.00610 0.17538
# Poissons Ratio (y) = 0.00499 0.35451
# Poissons Ratio (z) = 0.07901 0.19548
#
# Static dielectric constant tensor:
#      x y z
#    x 2.104620 0.000000 0.016540 
#    y 0.000000 1.944400 0.000000 
#    z 0.016540 0.000000 1.778940 
# 
# From -- ./inp_files/96448.got.cif
#   From: 2010.05.17/outbox.cif.g08.bks.cpg/sg15_49_cif.got.tgz:96448.got - 2010.06.03 18:47:42.
