data_PCOD9270216
_publ_section_title
;
Structure prediction by ZEFSAII (Michael W. Deem and Ramdas Pophale) SiO2 
 PCOD9270216
Probable space group: C 2/C
;
_chemical_formula_sum "Si O2"
_cell_formula_units_Z 60
_cell_length_a 16.210364
_cell_length_b 8.778107
_cell_length_c 21.863565
_cell_angle_alpha 90.000000
_cell_angle_beta 69.803011
_cell_angle_gamma 90.000000
_cell_volume 2919.806426
_symmetry_space_group_name_H-M "C 2/C"
_symmetry_group_IT_number 15
_symmetry_cell_setting 'monoclinic'
loop_
_space_group_symop_operation_xyz
x,y,z
-x,y,1/2-z
-x,-y,-z
x,-y,1/2+z
1/2+x,1/2+y,z
1/2-x,1/2+y,1/2-z
1/2-x,1/2-y,-z
1/2+x,1/2-y,1/2+z
loop_
_atom_site_type_symbol
_atom_site_label
_atom_site_fract_x
_atom_site_fract_y
_atom_site_fract_z
Si Si1 0.000000 0.503255 0.750000
Si Si2 0.982948 0.991300 0.608849
Si Si3 0.634244 0.445401 0.969341
Si Si4 0.710501 0.085863 0.501438
Si Si5 0.278716 0.153491 0.605996
Si Si6 0.028159 0.484828 0.561523
Si Si7 0.423163 0.249184 0.360237
Si Si8 0.595751 0.828227 0.325879
O O1 0.950122 0.387288 0.808348
O O2 0.928620 0.612319 0.735100
O O3 0.067170 0.001200 0.540577
O O4 0.009803 0.108528 0.655373
O O5 0.902678 0.027849 0.582425
O O6 0.954426 0.829855 0.645518
O O7 0.651474 0.270686 0.943537
O O8 0.730192 0.485080 0.969231
O O9 0.750000 0.250000 0.500000
O O10 0.712541 0.005005 0.434173
O O11 0.611150 0.092962 0.549150
O O12 0.177192 0.201690 0.623650
O O13 0.306333 0.167911 0.670539
O O14 0.060817 0.322727 0.576713
O O15 0.000000 0.500000 0.500000
O O16 0.948251 0.540749 0.621801
#
# Coordination Sequence:
#
# PCOD9270216 Si02
#       8
#     4   8   8   8   8   8   8   8
#     4  10  26  48  64  80 116 168 220 260 316 362
#     4  10  21  34  64  92 123 159 204 247 311 374
#     4  10  20  35  56  96 135 160 187 244 312 395
#     4  12  22  30  54  93 135 162 195 238 300 385
#     4  11  21  40  62  91 125 167 204 255 317 370
#     4  11  22  35  58  91 133 167 196 237 320 384
#     4  11  23  42  66  88 120 170 214 261 308 368
#     4  10  23  43  64  87 123 167 208 259 312 367
#
# _framework density 20.549306999999999
#
# number of rings (size 3 to 8) (size 9 to 14) (size 15 to 20)
#    0.000    1.333    4.000    2.000    5.600    0.533 
#    0.000    4.000    0.000    0.000    0.000    0.000 
#    0.000    0.000    0.000    0.000    0.000    0.000 
#
# Total GULP energy -167051.342534 kJ/mol
# GULP energy per Si atom -5568.378084 kJ/mol
# Density = 2.050254 g / cm^3
# Si number density = 20.549307 Si / 1000 Ang^3
#
#
#
# Elastic Constant Matrix: (Units=GPa)
#
#
# Indices 1 2 3 4 5 6 
#
# 1 135.7220 38.6169 18.7585 0.0000 26.9465 0.0000
# 2 38.6169 100.1015 19.5533 0.0000 22.4951 0.0000
# 3 18.7585 19.5533 43.3852 0.0000 22.0208 0.0000
# 4 0.0000 0.0000 0.0000 30.8892 0.0000 3.2000
# 5 26.9465 22.4951 22.0208 0.0000 30.0071 0.0000
# 6 0.0000 0.0000 0.0000 3.2000 0.0000 27.9722
#
#
#
# Elastic Compliance Matrix: (Units=1/GPa)
#
#
# Indices 1 2 3 4 5 6 
#
# 1 0.009316 -0.002082 0.000581 0.000000 -0.007231 0.000000
# 2 -0.002082 0.012529 -0.001479 0.000000 -0.006437 0.000000
# 3 0.000581 -0.001479 0.036918 0.000000 -0.026505 0.000000
# 4 0.000000 0.000000 0.000000 0.032762 0.000000 -0.003748
# 5 -0.007231 -0.006437 -0.026505 0.000000 0.064095 0.000000
# 6 0.000000 0.000000 0.000000 -0.003748 0.000000 0.036179
#
#
# Mechanical properties :
#
#
# Convention : Reuss Voigt Hill
#
# Bulk Modulus (GPa) = 18.93908 48.11844 33.52876
# Shear Modulus (GPa) = 23.21697 31.25901 27.23799
#
# Velocity S-wave (km/s) = 3.36492 3.90445 3.64468
# Velocity P-wave (km/s) = 4.93289 6.61765 5.83638
#
# Compressibility (1/GPa) = 0.05280087
#
# Stress axis : x y z
#
# Youngs Moduli (GPa) = 107.34403 79.81737 27.08712
#
# Poissons Ratio (x) = 0.16621 -0.01573
# Poissons Ratio (y) = 0.22353 0.04006
# Poissons Ratio (z) = -0.06233 0.11805
#
# Static dielectric constant tensor:
#      x y z
#    x 1.766190 0.000000 0.054310 
#    y 0.000000 1.842950 0.000000 
#    z 0.054310 0.000000 1.798010 
# 
# From -- ./inp_files/273117.got.cif
#   From: 2010.05.17/outbox.cif.g08.bks.cpg/sg15_137_cif.got.tgz:273117.got - 2010.06.03 18:47:42.
