data_PCOD9270753
_publ_section_title
;
Structure prediction by ZEFSAII (Michael W. Deem and Ramdas Pophale) SiO2 
 PCOD9270753
Probable space group: C 2/C
;
_chemical_formula_sum "Si O2"
_cell_formula_units_Z 52
_cell_length_a 17.124518
_cell_length_b 7.800097
_cell_length_c 18.779719
_cell_angle_alpha 90.000000
_cell_angle_beta 55.599099
_cell_angle_gamma 90.000000
_cell_volume 2069.743203
_symmetry_space_group_name_H-M "C 2/C"
_symmetry_group_IT_number 15
_symmetry_cell_setting 'monoclinic'
loop_
_space_group_symop_operation_xyz
x,y,z
-x,y,1/2-z
-x,-y,-z
x,-y,1/2+z
1/2+x,1/2+y,z
1/2-x,1/2+y,1/2-z
1/2-x,1/2-y,-z
1/2+x,1/2-y,1/2+z
loop_
_atom_site_type_symbol
_atom_site_label
_atom_site_fract_x
_atom_site_fract_y
_atom_site_fract_z
Si Si1 0.000000 0.528415 0.750000
Si Si2 0.467769 0.408549 0.186904
Si Si3 0.630452 0.395967 0.517647
Si Si4 0.129322 0.248022 0.288170
Si Si5 0.342593 0.004936 0.938005
Si Si6 0.841606 0.246898 0.646350
Si Si7 0.102788 0.588552 0.943281
O O1 0.942768 0.641186 0.721576
O O2 0.914090 0.447628 0.839493
O O3 0.500000 0.375704 0.250000
O O4 0.552272 0.491693 0.097435
O O5 0.387424 0.555657 0.228860
O O6 0.416158 0.255847 0.172076
O O7 0.633040 0.203621 0.551445
O O8 0.733446 0.481349 0.473570
O O9 0.617420 0.363513 0.440275
O O10 0.236231 0.308603 0.220525
O O11 0.104278 0.263253 0.384529
O O12 0.360774 0.883931 0.996350
O O13 0.832588 0.438975 0.622514
O O14 0.000000 0.500000 0.000000
#
# Coordination Sequence:
#
# PCOD9270753 Si02
#       7
#     4   8   8   8   8   8   8
#     4  12  18  38  64 100 122 168 234 278 320 400
#     4  12  25  43  67  99 133 178 229 284 336 407
#     4  10  20  36  63  89 129 170 221 272 335 402
#     4  12  22  40  68  98 131 177 233 278 333 409
#     4  10  20  35  63  97 125 168 225 281 323 397
#     4  11  25  41  64  99 136 175 222 291 347 397
#     4  11  23  41  65  96 136 182 222 279 345 410
#
# _framework density 25.123888999999998
#
# number of rings (size 3 to 8) (size 9 to 14) (size 15 to 20)
#    0.000    0.923    5.385    2.308    6.462    0.000 
#    1.385    0.000    0.000    1.846    0.000    0.000 
#    0.000    0.000    0.000    0.000    0.000    0.000 
#
# Total GULP energy -145721.981386 kJ/mol
# GULP energy per Si atom -5604.691592 kJ/mol
# Density = 2.506671 g / cm^3
# Si number density = 25.123889 Si / 1000 Ang^3
#
#
#
# Elastic Constant Matrix: (Units=GPa)
#
#
# Indices 1 2 3 4 5 6 
#
# 1 126.8776 17.6506 77.7178 0.0001 -7.2725 0.0004
# 2 17.6506 62.7367 34.2069 0.0002 5.9402 0.0008
# 3 77.7178 34.2069 168.0266 0.0000 -4.7324 0.0000
# 4 0.0001 0.0002 0.0000 19.6921 0.0000 -11.1802
# 5 -7.2725 5.9402 -4.7324 0.0000 56.1131 0.0000
# 6 0.0004 0.0008 0.0000 -11.1802 0.0000 23.1107
#
#
#
# Elastic Compliance Matrix: (Units=1/GPa)
#
#
# Indices 1 2 3 4 5 6 
#
# 1 0.011067 -0.000495 -0.004988 0.000000 0.001066 0.000000
# 2 -0.000495 0.018230 -0.003547 -0.000001 -0.002293 -0.000001
# 3 -0.004988 -0.003547 0.008994 0.000000 0.000488 0.000000
# 4 0.000000 -0.000001 0.000000 0.070011 0.000000 0.033869
# 5 0.001066 -0.002293 0.000488 0.000000 0.018243 0.000000
# 6 0.000000 -0.000001 0.000000 0.033869 0.000000 0.059655
#
#
# Mechanical properties :
#
#
# Convention : Reuss Voigt Hill
#
# Bulk Modulus (GPa) = 49.42768 68.53237 58.98002
# Shear Modulus (GPa) = 23.69627 34.98756 29.34192
#
# Velocity S-wave (km/s) = 3.07445 3.73581 3.42115
# Velocity P-wave (km/s) = 5.68500 6.77830 6.25558
#
# Compressibility (1/GPa) = 0.02023158
#
# Stress axis : x y z
#
# Youngs Moduli (GPa) = 90.35921 54.85477 111.18034
#
# Poissons Ratio (x) = 0.02714 0.55457
# Poissons Ratio (y) = 0.04471 0.39435
# Poissons Ratio (z) = 0.45072 0.19457
#
# Static dielectric constant tensor:
#      x y z
#    x 1.945710 0.000000 0.009590 
#    y 0.000000 2.069850 0.000000 
#    z 0.009590 0.000000 1.962430 
# 
# From -- ./inp_files/209487.got.cif
#   From: 2010.05.17/outbox.cif.g08.bks.cpg/sg15_105_cif.got.tgz:209487.got - 2010.06.03 18:47:42.
