data_PCOD9270788
_publ_section_title
;
Structure prediction by ZEFSAII (Michael W. Deem and Ramdas Pophale) SiO2 
 PCOD9270788
Probable space group: C 2/C
;
_chemical_formula_sum "Si O2"
_cell_formula_units_Z 48
_cell_length_a 14.904667
_cell_length_b 9.050227
_cell_length_c 18.493271
_cell_angle_alpha 90.000000
_cell_angle_beta 126.591026
_cell_angle_gamma 90.000000
_cell_volume 2002.916343
_symmetry_space_group_name_H-M "C 2/C"
_symmetry_group_IT_number 15
_symmetry_cell_setting 'monoclinic'
loop_
_space_group_symop_operation_xyz
x,y,z
-x,y,1/2-z
-x,-y,-z
x,-y,1/2+z
1/2+x,1/2+y,z
1/2-x,1/2+y,1/2-z
1/2-x,1/2-y,-z
1/2+x,1/2-y,1/2+z
loop_
_atom_site_type_symbol
_atom_site_label
_atom_site_fract_x
_atom_site_fract_y
_atom_site_fract_z
Si Si1 0.123835 0.973899 0.595127
Si Si2 0.643446 0.869824 0.092160
Si Si3 0.999286 0.433574 0.877170
Si Si4 0.979995 0.892111 0.324631
Si Si5 0.173832 0.621241 0.891029
Si Si6 0.814868 0.945053 0.595856
O O1 0.158302 0.803938 0.606371
O O2 0.221493 0.074725 0.608041
O O3 0.000000 0.000000 0.500000
O O4 0.105235 0.014182 0.669742
O O5 0.586310 0.943791 0.134539
O O6 0.755615 0.958152 0.127987
O O7 0.566379 0.891252 0.983349
O O8 0.954040 0.277965 0.827172
O O9 0.075753 0.502517 0.851021
O O10 0.000000 0.922277 0.250000
O O11 0.103385 0.947548 0.409511
O O12 0.134261 0.787923 0.855878
O O13 0.218392 0.609263 0.995099
#
# Coordination Sequence:
#
# PCOD9270788 Si02
#       6
#     8   8   8   8   8   8
#     4  12  21  37  62  93 119 161 208 252 301 357
#     4  10  20  35  65  93 120 149 210 262 293 353
#     4  10  20  37  61  94 120 158 199 254 311 351
#     4  12  25  41  59  89 131 166 199 248 317 382
#     4  10  20  35  65  93 120 151 211 264 297 353
#     4  10  20  37  61  94 123 160 201 256 310 356
#
# _framework density 23.965055
#
# number of rings (size 3 to 8) (size 9 to 14) (size 15 to 20)
#    0.000    1.333    3.333    3.000    4.667    2.667 
#    0.000   10.000    0.000    0.000    0.000    0.000 
#    0.000    0.000    0.000    0.000    0.000    0.000 
#
# Total GULP energy -134105.918190 kJ/mol
# GULP energy per Si atom -5587.746591 kJ/mol
# Density = 2.391051 g / cm^3
# Si number density = 23.965055 Si / 1000 Ang^3
#
#
#
# Elastic Constant Matrix: (Units=GPa)
#
#
# Indices 1 2 3 4 5 6 
#
# 1 129.1311 36.0386 17.0072 0.0000 -30.3553 0.0000
# 2 36.0386 159.9089 13.3737 0.0000 -14.6658 0.0000
# 3 17.0072 13.3737 65.2967 0.0000 -17.8957 0.0000
# 4 0.0000 0.0000 0.0000 6.9308 0.0000 -17.0802
# 5 -30.3553 -14.6658 -17.8957 0.0000 25.4850 0.0000
# 6 0.0000 0.0000 0.0000 -17.0802 0.0000 42.9618
#
#
#
# Elastic Compliance Matrix: (Units=1/GPa)
#
#
# Indices 1 2 3 4 5 6 
#
# 1 0.011076 -0.001378 0.000985 0.000000 0.013092 0.000000
# 2 -0.001378 0.006781 -0.000508 0.000000 0.001904 0.000000
# 3 0.000985 -0.000508 0.019075 0.000000 0.014276 0.000000
# 4 0.000000 0.000000 0.000000 7.128083 0.000000 2.833893
# 5 0.013092 0.001904 0.014276 0.000000 0.065953 0.000000
# 6 0.000000 0.000000 0.000000 2.833893 0.000000 1.149940
#
#
# Mechanical properties :
#
#
# Convention : Reuss Voigt Hill
#
# Bulk Modulus (GPa) = 28.46491 54.13064 41.29778
# Shear Modulus (GPa) = 0.59563 34.26998 17.43281
#
# Velocity S-wave (km/s) = 0.49908 3.78563 2.70001
# Velocity P-wave (km/s) = 3.49794 6.46099 5.19519
#
# Compressibility (1/GPa) = 0.03513097
#
# Stress axis : x y z
#
# Youngs Moduli (GPa) = 90.28128 147.46526 52.42578
#
# Poissons Ratio (x) = 0.20320 -0.05166
# Poissons Ratio (y) = 0.12441 0.02664
# Poissons Ratio (z) = -0.08896 0.07493
#
# Static dielectric constant tensor:
#      x y z
#    x 1.886310 0.000000 0.071380 
#    y 0.000000 1.855500 0.000000 
#    z 0.071380 0.000000 2.137950 
# 
# From -- ./inp_files/242330.got.cif
#   From: 2010.05.17/outbox.cif.g08.bks.cpg/sg15_122_cif.got.tgz:242330.got - 2010.06.03 18:47:42.
