data_PCOD9270523
_publ_section_title
;
Structure prediction by ZEFSAII (Michael W. Deem and Ramdas Pophale) SiO2 
 PCOD9270523
Probable space group: C 2/C
;
_chemical_formula_sum "Si O2"
_cell_formula_units_Z 64
_cell_length_a 11.594743
_cell_length_b 23.040121
_cell_length_c 11.995019
_cell_angle_alpha 90.000000
_cell_angle_beta 73.869427
_cell_angle_gamma 90.000000
_cell_volume 3078.246818
_symmetry_space_group_name_H-M "C 2/C"
_symmetry_group_IT_number 15
_symmetry_cell_setting 'monoclinic'
loop_
_space_group_symop_operation_xyz
x,y,z
-x,y,1/2-z
-x,-y,-z
x,-y,1/2+z
1/2+x,1/2+y,z
1/2-x,1/2+y,1/2-z
1/2-x,1/2-y,-z
1/2+x,1/2-y,1/2+z
loop_
_atom_site_type_symbol
_atom_site_label
_atom_site_fract_x
_atom_site_fract_y
_atom_site_fract_z
Si Si1 0.198095 0.268608 0.132445
Si Si2 0.139647 0.139252 0.194458
Si Si3 0.125555 0.611568 0.722548
Si Si4 0.433889 0.457267 0.377628
Si Si5 0.732627 0.866520 0.426316
Si Si6 0.845201 0.067990 0.528669
Si Si7 0.359825 0.131317 0.304768
Si Si8 0.364732 0.270412 0.289452
O O1 0.141761 0.209575 0.197138
O O2 0.119598 0.326974 0.156306
O O3 0.305722 0.285260 0.186823
O O4 0.250000 0.250000 0.000000
O O5 0.248265 0.117463 0.248278
O O6 0.000000 0.121031 0.250000
O O7 0.167565 0.116693 0.062848
O O8 0.143919 0.626777 0.846932
O O9 0.233523 0.574908 0.641214
O O10 0.000000 0.579257 0.750000
O O11 0.500000 0.480953 0.250000
O O12 0.343098 0.407782 0.367356
O O13 0.359794 0.507215 0.460156
O O14 0.532339 0.429663 0.433605
O O15 0.680914 0.883561 0.559325
O O16 0.786683 0.801902 0.404475
O O17 0.500000 0.111375 0.250000
O O18 0.365621 0.201422 0.300345
O O19 0.500000 0.291971 0.250000
#
# Coordination Sequence:
#
# PCOD9270523 Si02
#       8
#     8   8   8   8   8   8   8   8
#     4  10  20  35  59  93 132 168 208 254 316 386
#     4  11  22  39  63  94 127 172 215 261 320 377
#     4  11  24  40  63  95 129 172 210 261 322 388
#     4  11  23  43  68  98 121 157 215 275 333 378
#     4  11  22  39  65  90 123 167 213 262 314 388
#     4  11  24  42  68  93 128 159 209 281 323 375
#     4  10  23  40  59  93 133 173 209 257 322 388
#     4   9  20  34  58  92 126 166 210 260 312 375
#
# _framework density 20.791055
#
# number of rings (size 3 to 8) (size 9 to 14) (size 15 to 20)
#    0.000    1.500    2.500    2.250    3.500    3.000 
#    0.000    1.250    0.000    0.000    0.000    0.000 
#    0.000    0.000    0.000    0.000    0.000    0.000 
#
# Total GULP energy -178487.058011 kJ/mol
# GULP energy per Si atom -5577.720563 kJ/mol
# Density = 2.074373 g / cm^3
# Si number density = 20.791055 Si / 1000 Ang^3
#
#
#
# Elastic Constant Matrix: (Units=GPa)
#
#
# Indices 1 2 3 4 5 6 
#
# 1 127.6341 31.8180 43.0739 0.0000 -6.7312 0.0000
# 2 31.8180 35.4269 13.0992 0.0000 5.1675 0.0000
# 3 43.0739 13.0992 108.7251 0.0000 -1.3506 0.0000
# 4 0.0000 0.0000 0.0000 13.6981 0.0000 4.1333
# 5 -6.7312 5.1675 -1.3506 0.0000 25.4821 0.0000
# 6 0.0000 0.0000 0.0000 4.1333 0.0000 9.1215
#
#
#
# Elastic Compliance Matrix: (Units=1/GPa)
#
#
# Indices 1 2 3 4 5 6 
#
# 1 0.011732 -0.010009 -0.003381 0.000000 0.004950 0.000000
# 2 -0.010009 0.039089 -0.000876 0.000000 -0.010617 0.000000
# 3 -0.003381 -0.000876 0.010640 0.000000 -0.000151 0.000000
# 4 0.000000 0.000000 0.000000 0.084565 0.000000 -0.038319
# 5 0.004950 -0.010617 -0.000151 0.000000 0.042696 0.000000
# 6 0.000000 0.000000 0.000000 -0.038319 0.000000 0.126995
#
#
# Mechanical properties :
#
#
# Convention : Reuss Voigt Hill
#
# Bulk Modulus (GPa) = 30.36699 49.75203 40.05951
# Shear Modulus (GPa) = 14.07560 21.91334 17.99447
#
# Velocity S-wave (km/s) = 2.60475 3.25003 2.94511
# Velocity P-wave (km/s) = 4.86660 6.16969 5.55648
#
# Compressibility (1/GPa) = 0.03293049
#
# Stress axis : x y z
#
# Youngs Moduli (GPa) = 85.23786 25.58265 93.98098
#
# Poissons Ratio (x) = 0.25605 0.31770
# Poissons Ratio (y) = 0.85313 0.08234
# Poissons Ratio (z) = 0.28815 0.02241
#
# Static dielectric constant tensor:
#      x y z
#    x 1.760480 0.000000 -0.005890 
#    y 0.000000 1.764520 0.000000 
#    z -0.005890 0.000000 1.808610 
# 
# From -- ./inp_files/91261.got.cif
#   From: 2010.05.17/outbox.cif.g08.bks.cpg/sg15_46_cif.got.tgz:91261.got - 2010.06.03 18:47:42.
