data_PCOD9270635
_publ_section_title
;
Structure prediction by ZEFSAII (Michael W. Deem and Ramdas Pophale) SiO2 
 PCOD9270635
Probable space group: C 2/C
;
_chemical_formula_sum "Si O2"
_cell_formula_units_Z 64
_cell_length_a 16.595021
_cell_length_b 10.733325
_cell_length_c 22.215479
_cell_angle_alpha 90.000000
_cell_angle_beta 58.323613
_cell_angle_gamma 90.000000
_cell_volume 3367.529519
_symmetry_space_group_name_H-M "C 2/C"
_symmetry_group_IT_number 15
_symmetry_cell_setting 'monoclinic'
loop_
_space_group_symop_operation_xyz
x,y,z
-x,y,1/2-z
-x,-y,-z
x,-y,1/2+z
1/2+x,1/2+y,z
1/2-x,1/2+y,1/2-z
1/2-x,1/2-y,-z
1/2+x,1/2-y,1/2+z
loop_
_atom_site_type_symbol
_atom_site_label
_atom_site_fract_x
_atom_site_fract_y
_atom_site_fract_z
Si Si1 0.268809 0.294531 0.187455
Si Si2 0.038220 0.111811 0.548296
Si Si3 0.339598 0.783587 0.921880
Si Si4 0.910123 0.664409 0.055900
Si Si5 0.577860 0.923641 0.270919
Si Si6 0.806035 0.682131 0.294264
Si Si7 0.368425 0.541863 0.106385
Si Si8 0.050886 0.481956 0.072059
O O1 0.312153 0.184198 0.129981
O O2 0.157529 0.317861 0.234655
O O3 0.315084 0.278134 0.235592
O O4 0.306692 0.419178 0.141192
O O5 0.080561 0.185888 0.587504
O O6 0.970433 0.208031 0.538155
O O7 0.972228 0.994404 0.589505
O O8 0.117965 0.072735 0.469248
O O9 0.325402 0.776687 0.855482
O O10 0.377507 0.922151 0.923436
O O11 0.250000 0.750000 0.000000
O O12 0.977723 0.567529 0.063509
O O13 0.898692 0.612240 0.993483
O O14 0.500000 0.918365 0.250000
O O15 0.517018 0.912986 0.355012
O O16 0.630168 0.059828 0.246002
O O17 0.694514 0.646414 0.338002
#
# Coordination Sequence:
#
# PCOD9270635 Si02
#       8
#     8   8   8   8   8   8   8   8
#     4  10  22  37  60  87 120 157 199 238 305 358
#     4   9  18  35  59  84 115 148 193 236 305 347
#     4  11  21  35  60  90 116 146 197 257 300 345
#     4   9  19  36  58  89 118 154 194 248 287 362
#     4  11  22  38  62  86 120 159 197 247 306 357
#     4  11  21  37  60  86 119 151 202 245 297 355
#     4   9  19  35  55  82 113 152 189 240 287 361
#     4  10  20  35  61  89 119 153 203 247 300 353
#
# _framework density 19.005030999999999
#
# number of rings (size 3 to 8) (size 9 to 14) (size 15 to 20)
#    0.000    2.000    3.750    0.000    1.750    1.000 
#    0.000    0.625    2.750    0.000    0.000    0.000 
#    0.000    0.000    0.000    0.000    0.000    0.000 
#
# Total GULP energy -178221.596585 kJ/mol
# GULP energy per Si atom -5569.424893 kJ/mol
# Density = 1.896177 g / cm^3
# Si number density = 19.005031 Si / 1000 Ang^3
#
#
#
# Elastic Constant Matrix: (Units=GPa)
#
#
# Indices 1 2 3 4 5 6 
#
# 1 72.0099 32.5925 40.6383 0.0000 -2.5247 0.0000
# 2 32.5925 44.4284 35.5211 0.0000 5.7285 0.0000
# 3 40.6383 35.5211 121.5763 0.0000 -2.0032 0.0000
# 4 0.0000 0.0000 0.0000 27.4942 0.0000 -5.9328
# 5 -2.5247 5.7285 -2.0032 0.0000 24.0473 0.0000
# 6 0.0000 0.0000 0.0000 -5.9328 0.0000 17.6353
#
#
#
# Elastic Compliance Matrix: (Units=1/GPa)
#
#
# Indices 1 2 3 4 5 6 
#
# 1 0.022524 -0.014747 -0.003128 0.000000 0.005617 0.000000
# 2 -0.014747 0.040529 -0.007106 0.000000 -0.011795 0.000000
# 3 -0.003128 -0.007106 0.011385 0.000000 0.002313 0.000000
# 4 0.000000 0.000000 0.000000 0.039218 0.000000 0.013194
# 5 0.005617 -0.011795 0.002313 0.000000 0.045177 0.000000
# 6 0.000000 0.000000 0.000000 0.013194 0.000000 0.061143
#
#
# Mechanical properties :
#
#
# Convention : Reuss Voigt Hill
#
# Bulk Modulus (GPa) = 40.85677 50.61319 45.73498
# Shear Modulus (GPa) = 17.97940 22.45288 20.21614
#
# Velocity S-wave (km/s) = 3.07910 3.44090 3.26502
# Velocity P-wave (km/s) = 5.84685 6.51734 6.19118
#
# Compressibility (1/GPa) = 0.02447575
#
# Stress axis : x y z
#
# Youngs Moduli (GPa) = 44.39795 24.67378 87.83397
#
# Poissons Ratio (x) = 0.36386 0.27471
# Poissons Ratio (y) = 0.65473 0.62418
# Poissons Ratio (z) = 0.13886 0.17534
#
# Static dielectric constant tensor:
#      x y z
#    x 1.675400 0.000000 0.006180 
#    y 0.000000 1.691800 0.000000 
#    z 0.006180 0.000000 1.851270 
# 
# From -- ./inp_files/248354.got.cif
#   From: 2010.05.17/outbox.cif.g08.bks.cpg/sg15_125_cif.got.tgz:248354.got - 2010.06.03 18:47:42.
