data_PCOD9270819
_publ_section_title
;
Structure prediction by ZEFSAII (Michael W. Deem and Ramdas Pophale) SiO2 
 PCOD9270819
Probable space group: C 2/C
;
_chemical_formula_sum "Si O2"
_cell_formula_units_Z 36
_cell_length_a 15.049033
_cell_length_b 23.739094
_cell_length_c 13.129949
_cell_angle_alpha 90.000000
_cell_angle_beta 159.110105
_cell_angle_gamma 90.000000
_cell_volume 1672.570805
_symmetry_space_group_name_H-M "C 2/C"
_symmetry_group_IT_number 15
_symmetry_cell_setting 'monoclinic'
loop_
_space_group_symop_operation_xyz
x,y,z
-x,y,1/2-z
-x,-y,-z
x,-y,1/2+z
1/2+x,1/2+y,z
1/2-x,1/2+y,1/2-z
1/2-x,1/2-y,-z
1/2+x,1/2-y,1/2+z
loop_
_atom_site_type_symbol
_atom_site_label
_atom_site_fract_x
_atom_site_fract_y
_atom_site_fract_z
Si Si1 0.828726 0.939192 0.728555
Si Si2 0.446975 0.215045 0.891326
Si Si3 0.500000 0.140403 0.750000
Si Si4 0.871724 0.930306 0.263748
Si Si5 0.615581 0.109079 0.194390
O O1 0.725379 0.899511 0.529867
O O2 0.630269 0.932277 0.609763
O O3 0.071060 0.920599 0.052475
O O4 0.873241 0.003150 0.744475
O O5 0.426634 0.180272 0.764638
O O6 0.175284 0.240607 0.624225
O O7 0.546977 0.170535 0.081067
O O8 0.105651 0.898721 0.465894
O O9 0.596373 0.909195 0.956456
#
# Coordination Sequence:
#
# PCOD9270819 Si02
#       5
#     8   8   4   8   8
#     4   8  18  28  49  65  89 117 160 191 236 283
#     4  11  22  35  46  65  97 136 170 196 223 264
#     4  10  20  36  44  72  98 136 164 190 230 280
#     4   9  16  31  49  64  84 114 162 196 241 274
#     4   9  17  30  49  63  83 119 162 197 232 266
#
# _framework density 21.523751000000001
#
# number of rings (size 3 to 8) (size 9 to 14) (size 15 to 20)
#    1.333    1.333    0.000    2.667    0.000    0.000 
#    4.000    0.000    0.000    0.000    0.000    0.000 
#    0.000    0.000    0.000   20.000    0.000    0.000 
#
# Total GULP energy -100280.537481 kJ/mol
# GULP energy per Si atom -5571.140971 kJ/mol
# Density = 2.147476 g / cm^3
# Si number density = 21.523751 Si / 1000 Ang^3
#
#
#
# Elastic Constant Matrix: (Units=GPa)
#
#
# Indices 1 2 3 4 5 6 
#
# 1 25.3093 17.8461 89.4097 0.0008 13.1548 -0.0016
# 2 17.8461 57.2625 20.6674 -0.0002 -18.0148 0.0019
# 3 89.4097 20.6674 47.1937 0.0054 2.4317 0.0142
# 4 0.0008 -0.0002 0.0054 56.1613 0.0020 12.7254
# 5 13.1548 -18.0148 2.4317 0.0020 36.6028 0.0033
# 6 -0.0016 0.0019 0.0142 12.7254 0.0033 10.9321
#
#
#
# Elastic Compliance Matrix: (Units=1/GPa)
#
#
# Indices 1 2 3 4 5 6 
#
# 1 -0.006515 -0.002869 0.013597 0.000004 0.000026 -0.000023
# 2 -0.002869 0.024892 -0.006171 0.000001 0.013692 -0.000001
# 3 0.013597 -0.006171 -0.001466 -0.000002 -0.007827 0.000010
# 4 0.000004 0.000001 -0.000002 0.024185 0.000000 -0.028152
# 5 0.000026 0.013692 -0.007827 0.000000 0.034570 -0.000003
# 6 -0.000023 -0.000001 0.000010 -0.028152 -0.000003 0.124243
#
#
# Mechanical properties :
#
#
# Convention : Reuss Voigt Hill
#
# Bulk Modulus (GPa) = 38.42199 42.84574 40.63387
# Shear Modulus (GPa) = 25.06635 20.86209 22.96422
#
# Velocity S-wave (km/s) = 3.41631 3.11667 3.26992
# Velocity P-wave (km/s) = 5.78371 5.73594 5.75987
#
# Compressibility (1/GPa) = 0.02602676
#
# Stress axis : x y z
#
# Youngs Moduli (GPa) = -153.49817 40.17277 -682.21319
#
# Poissons Ratio (x) = 0.11526 9.27637
# Poissons Ratio (y) = -0.44041 -4.20987
# Poissons Ratio (z) = 2.08719 0.24790
#
# Static dielectric constant tensor:
#      x y z
#    x 1.920630 0.000000 0.002500 
#    y 0.000000 1.762080 0.000000 
#    z 0.002500 0.000000 1.806210 
# 
# From -- ./inp_files/163675.got.cif
#   From: 2010.05.17/outbox.cif.g08.bks.cpg/sg15_82_cif.got.tgz:163675.got - 2010.06.03 18:47:42.
