data_PCOD9270323
_publ_section_title
;
Structure prediction by ZEFSAII (Michael W. Deem and Ramdas Pophale) SiO2 
 PCOD9270323
Probable space group: C 2/C
;
_chemical_formula_sum "Si O2"
_cell_formula_units_Z 56
_cell_length_a 21.742747
_cell_length_b 16.536358
_cell_length_c 8.839285
_cell_angle_alpha 90.000000
_cell_angle_beta 100.808536
_cell_angle_gamma 90.000000
_cell_volume 3121.746079
_symmetry_space_group_name_H-M "C 2/C"
_symmetry_group_IT_number 15
_symmetry_cell_setting 'monoclinic'
loop_
_space_group_symop_operation_xyz
x,y,z
-x,y,1/2-z
-x,-y,-z
x,-y,1/2+z
1/2+x,1/2+y,z
1/2-x,1/2+y,1/2-z
1/2-x,1/2-y,-z
1/2+x,1/2-y,1/2+z
loop_
_atom_site_type_symbol
_atom_site_label
_atom_site_fract_x
_atom_site_fract_y
_atom_site_fract_z
Si Si1 0.900459 0.825099 0.365715
Si Si2 0.527689 0.332566 0.593195
Si Si3 0.749567 0.481061 0.736407
Si Si4 0.435327 0.498625 0.280444
Si Si5 0.851118 0.221445 0.526609
Si Si6 0.226312 0.382090 0.011234
Si Si7 0.830888 0.917530 0.541400
O O1 0.880592 0.776655 0.209179
O O2 0.849620 0.831248 0.478005
O O3 0.969981 0.809075 0.458449
O O4 0.900059 0.919986 0.319214
O O5 0.500000 0.317088 0.750000
O O6 0.544491 0.428447 0.600123
O O7 0.592691 0.294184 0.565852
O O8 0.794477 0.428298 0.651193
O O9 0.774421 0.553175 0.853506
O O10 0.712433 0.420169 0.829812
O O11 0.704981 0.525209 0.593532
O O12 0.500000 0.464963 0.250000
O O13 0.394470 0.541805 0.132914
O O14 0.815543 0.304375 0.475062
O O15 0.797200 0.151816 0.512908
#
# Coordination Sequence:
#
# PCOD9270323 Si02
#       7
#     8   8   8   8   8   8   8
#     4  12  21  32  49  80 114 160 184 223 271 332
#     4  11  23  34  51  79 117 156 191 225 268 335
#     4  10  20  35  58  78 107 148 195 237 271 319
#     4  11  20  27  44  73 112 154 196 205 245 318
#     4  11  23  38  54  83 119 153 183 227 287 334
#     4  10  22  39  61  81 110 148 192 240 279 327
#     4  11  18  29  48  77 109 143 183 225 259 320
#
# _framework density 17.938679
#
# number of rings (size 3 to 8) (size 9 to 14) (size 15 to 20)
#    0.000    1.143    5.714    3.429    4.000    0.000 
#    0.000    3.571    0.000    0.000    0.000    7.000 
#    0.000    0.000    0.000    0.000    0.000    0.000 
#
# Total GULP energy -156073.873737 kJ/mol
# GULP energy per Si atom -5574.066919 kJ/mol
# Density = 1.789785 g / cm^3
# Si number density = 17.938679 Si / 1000 Ang^3
#
#
#
# Elastic Constant Matrix: (Units=GPa)
#
#
# Indices 1 2 3 4 5 6 
#
# 1 57.4099 21.9225 30.2183 0.0000 -6.4471 0.0000
# 2 21.9225 50.2890 26.7508 0.0000 -3.1735 0.0000
# 3 30.2183 26.7508 94.3122 0.0000 -0.2595 0.0000
# 4 0.0000 0.0000 0.0000 18.1561 0.0000 -2.6553
# 5 -6.4471 -3.1735 -0.2595 0.0000 20.4351 0.0000
# 6 0.0000 0.0000 0.0000 -2.6553 0.0000 20.2835
#
#
#
# Elastic Compliance Matrix: (Units=1/GPa)
#
#
# Indices 1 2 3 4 5 6 
#
# 1 0.023746 -0.006964 -0.005615 0.000000 0.006339 0.000000
# 2 -0.006964 0.025722 -0.005060 0.000000 0.001733 0.000000
# 3 -0.005615 -0.005060 0.013831 0.000000 -0.002382 0.000000
# 4 0.000000 0.000000 0.000000 0.056153 0.000000 0.007351
# 5 0.006339 0.001733 -0.002382 0.000000 0.051174 0.000000
# 6 0.000000 0.000000 0.000000 0.007351 0.000000 0.050263
#
#
# Mechanical properties :
#
#
# Convention : Reuss Voigt Hill
#
# Bulk Modulus (GPa) = 35.68939 39.97715 37.83327
# Shear Modulus (GPa) = 18.83188 19.98292 19.40740
#
# Velocity S-wave (km/s) = 3.24356 3.34122 3.29275
# Velocity P-wave (km/s) = 5.82804 6.10072 5.96594
#
# Compressibility (1/GPa) = 0.02801954
#
# Stress axis : x y z
#
# Youngs Moduli (GPa) = 42.11313 38.87753 72.30219
#
# Poissons Ratio (x) = 0.27076 0.40601
# Poissons Ratio (y) = 0.29329 0.36582
# Poissons Ratio (z) = 0.23648 0.19670
#
# Static dielectric constant tensor:
#      x y z
#    x 1.654990 0.000000 -0.055890 
#    y 0.000000 1.591120 0.000000 
#    z -0.055890 0.000000 1.741440 
# 
# From -- ./inp_files/56130.got.cif
#   From: 2010.05.17/outbox.cif.g08.bks.cpg/sg15_29_cif.got.tgz:56130.got - 2010.06.03 18:47:42.
