data_PCOD9270662
_publ_section_title
;
Structure prediction by ZEFSAII (Michael W. Deem and Ramdas Pophale) SiO2 
 PCOD9270662
Probable space group: C 2/C
;
_chemical_formula_sum "Si O2"
_cell_formula_units_Z 56
_cell_length_a 25.826446
_cell_length_b 18.423495
_cell_length_c 16.042863
_cell_angle_alpha 90.000000
_cell_angle_beta 161.824456
_cell_angle_gamma 90.000000
_cell_volume 2381.084789
_symmetry_space_group_name_H-M "C 2/C"
_symmetry_group_IT_number 15
_symmetry_cell_setting 'monoclinic'
loop_
_space_group_symop_operation_xyz
x,y,z
-x,y,1/2-z
-x,-y,-z
x,-y,1/2+z
1/2+x,1/2+y,z
1/2-x,1/2+y,1/2-z
1/2-x,1/2-y,-z
1/2+x,1/2-y,1/2+z
loop_
_atom_site_type_symbol
_atom_site_label
_atom_site_fract_x
_atom_site_fract_y
_atom_site_fract_z
Si Si1 0.007988 0.147227 0.004418
Si Si2 0.718640 0.463719 0.730575
Si Si3 0.000000 0.557615 0.250000
Si Si4 0.388379 0.335222 0.499388
Si Si5 0.927164 0.691133 0.896696
Si Si6 0.000000 0.960553 0.250000
Si Si7 0.545317 0.836364 0.413742
Si Si8 0.768838 0.372260 0.544607
O O1 0.865254 0.166159 0.719718
O O2 0.937741 0.131896 0.987602
O O3 0.099130 0.074768 0.114536
O O4 0.110357 0.222556 0.165106
O O5 0.613359 0.497527 0.494084
O O6 0.812770 0.391442 0.841228
O O7 0.858157 0.511874 0.985953
O O8 0.106042 0.594237 0.335407
O O9 0.500000 0.352439 0.750000
O O10 0.199748 0.346231 0.235691
O O11 0.407292 0.248038 0.512702
O O12 0.904933 0.658882 0.769850
O O13 0.110906 0.673708 0.211335
O O14 0.141709 0.918969 0.409811
O O15 0.500000 0.855480 0.250000
#
# Coordination Sequence:
#
# PCOD9270662 Si02
#       8
#     8   8   4   8   8   4   8   8
#     4  10  23  39  67  98 137 177 215 289 347 412
#     4  11  22  44  68  96 131 182 234 269 346 405
#     4  12  28  44  77  92 137 194 232 290 330 412
#     4  10  22  34  58  99 141 174 221 280 340 407
#     4  11  21  39  67 100 137 176 219 284 349 416
#     4  10  24  44  69  96 133 170 230 296 332 406
#     4  10  20  35  61  93 127 175 222 272 331 408
#     4  11  24  45  68 102 135 174 232 278 350 413
#
# _framework density 23.518692000000001
#
# number of rings (size 3 to 8) (size 9 to 14) (size 15 to 20)
#    0.000    1.429    3.571    1.286    2.000    4.571 
#    0.000    1.429   11.000    0.000    0.000    0.000 
#    0.000    0.000    0.000    0.000    0.000    0.000 
#
# Total GULP energy -156221.099191 kJ/mol
# GULP energy per Si atom -5579.324971 kJ/mol
# Density = 2.346516 g / cm^3
# Si number density = 23.518692 Si / 1000 Ang^3
#
#
#
# Elastic Constant Matrix: (Units=GPa)
#
#
# Indices 1 2 3 4 5 6 
#
# 1 174.7070 40.9352 20.3804 0.0000 9.4052 0.0000
# 2 40.9352 54.5735 23.4771 0.0000 -3.5074 0.0000
# 3 20.3804 23.4771 79.8582 0.0000 -5.8524 0.0000
# 4 0.0000 0.0000 0.0000 25.5054 0.0000 0.7905
# 5 9.4052 -3.5074 -5.8524 0.0000 50.4045 0.0000
# 6 0.0000 0.0000 0.0000 0.7905 0.0000 -7.7769
#
#
#
# Elastic Compliance Matrix: (Units=1/GPa)
#
#
# Indices 1 2 3 4 5 6 
#
# 1 0.007097 -0.005267 -0.000390 0.000000 -0.001736 0.000000
# 2 -0.005267 0.024914 -0.005831 0.000000 0.002039 0.000000
# 3 -0.000390 -0.005831 0.014434 0.000000 0.001343 0.000000
# 4 0.000000 0.000000 0.000000 0.039084 0.000000 0.003973
# 5 -0.001736 0.002039 0.001343 0.000000 0.020461 0.000000
# 6 0.000000 0.000000 0.000000 0.003973 0.000000 -0.128182
#
#
# Mechanical properties :
#
#
# Convention : Reuss Voigt Hill
#
# Bulk Modulus (GPa) = 42.60808 53.19157 47.89983
# Shear Modulus (GPa) = 580.82556 28.58299 304.70427
#
# Velocity S-wave (km/s) = 15.73212 3.48994 11.39472
# Velocity P-wave (km/s) = 18.65892 6.23742 13.91152
#
# Compressibility (1/GPa) = 0.02346973
#
# Stress axis : x y z
#
# Youngs Moduli (GPa) = 140.90527 40.13769 69.27950
#
# Poissons Ratio (x) = 0.21141 0.02701
# Poissons Ratio (y) = 0.74218 0.40395
# Poissons Ratio (z) = 0.05494 0.23403
#
# Static dielectric constant tensor:
#      x y z
#    x 1.986950 0.000000 0.099140 
#    y 0.000000 1.902140 0.000000 
#    z 0.099140 0.000000 1.931640 
# 
# From -- ./inp_files/174796.got.cif
#   From: 2010.05.17/outbox.cif.g08.bks.cpg/sg15_88_cif.got.tgz:174796.got - 2010.06.03 18:47:42.
