data_PCOD9270374
_publ_section_title
;
Structure prediction by ZEFSAII (Michael W. Deem and Ramdas Pophale) SiO2 
 PCOD9270374
Probable space group: C 2/C
;
_chemical_formula_sum "Si O2"
_cell_formula_units_Z 56
_cell_length_a 10.288002
_cell_length_b 20.390449
_cell_length_c 14.131046
_cell_angle_alpha 90.000000
_cell_angle_beta 122.080657
_cell_angle_gamma 90.000000
_cell_volume 2511.712911
_symmetry_space_group_name_H-M "C 2/C"
_symmetry_group_IT_number 15
_symmetry_cell_setting 'monoclinic'
loop_
_space_group_symop_operation_xyz
x,y,z
-x,y,1/2-z
-x,-y,-z
x,-y,1/2+z
1/2+x,1/2+y,z
1/2-x,1/2+y,1/2-z
1/2-x,1/2-y,-z
1/2+x,1/2-y,1/2+z
loop_
_atom_site_type_symbol
_atom_site_label
_atom_site_fract_x
_atom_site_fract_y
_atom_site_fract_z
Si Si1 0.329347 0.439100 0.635113
Si Si2 0.000000 0.525369 0.250000
Si Si3 0.112834 0.062665 0.560213
Si Si4 0.805218 0.360767 0.761718
Si Si5 0.807555 0.679452 0.935852
Si Si6 0.156273 0.553099 0.672347
Si Si7 0.500000 0.750465 0.750000
Si Si8 0.109949 0.176342 0.028596
O O1 0.500000 0.441067 0.750000
O O2 0.329592 0.427881 0.524057
O O3 0.229170 0.383037 0.646806
O O4 0.244365 0.506316 0.632533
O O5 0.866292 0.576128 0.227261
O O6 0.997317 0.479734 0.342864
O O7 0.236412 0.054666 0.691626
O O8 0.020699 0.127873 0.554897
O O9 0.000000 0.000000 0.500000
O O10 0.918985 0.300457 0.791575
O O11 0.647657 0.341455 0.650690
O O12 0.862673 0.622151 0.888430
O O13 0.639135 0.705254 0.837632
O O14 0.907668 0.745493 0.978498
O O15 0.762538 0.659602 0.025438
#
# Coordination Sequence:
#
# PCOD9270374 Si02
#       8
#     8   4   8   8   8   8   4   8
#     4  11  20  35  59  91 118 151 187 244 306 347
#     4   9  20  40  56  80 120 153 186 234 308 347
#     4  12  21  34  60  95 120 145 197 251 304 348
#     4   9  18  37  58  81 114 152 193 238 295 348
#     4  10  21  36  56  84 113 159 201 235 295 340
#     4  11  23  38  59  87 122 156 191 246 294 356
#     4   9  18  34  58  78 112 155 192 242 282 355
#     4  10  20  35  58  86 114 150 200 247 285 354
#
# _framework density 22.295542000000001
#
# number of rings (size 3 to 8) (size 9 to 14) (size 15 to 20)
#    0.000    1.714    2.857    2.571    1.000    0.000 
#    0.000   13.571    0.000    5.143    0.000    0.000 
#    0.000    0.000    0.000    0.000    0.000    0.000 
#
# Total GULP energy -156240.735535 kJ/mol
# GULP energy per Si atom -5580.026269 kJ/mol
# Density = 2.224480 g / cm^3
# Si number density = 22.295542 Si / 1000 Ang^3
#
#
#
# Elastic Constant Matrix: (Units=GPa)
#
#
# Indices 1 2 3 4 5 6 
#
# 1 58.7123 23.4630 16.9549 0.0000 -23.9842 0.0000
# 2 23.4630 82.1867 34.9285 0.0000 -24.7357 0.0000
# 3 16.9549 34.9285 91.5562 0.0000 -16.3970 0.0000
# 4 0.0000 0.0000 0.0000 38.9954 0.0000 -8.5844
# 5 -23.9842 -24.7357 -16.3970 0.0000 49.7108 0.0000
# 6 0.0000 0.0000 0.0000 -8.5844 0.0000 29.0112
#
#
#
# Elastic Compliance Matrix: (Units=1/GPa)
#
#
# Indices 1 2 3 4 5 6 
#
# 1 0.022244 -0.003150 -0.001356 0.000000 0.008717 0.000000
# 2 -0.003150 0.016690 -0.004856 0.000000 0.005183 0.000000
# 3 -0.001356 -0.004856 0.013259 0.000000 0.001303 0.000000
# 4 0.000000 0.000000 0.000000 0.027431 0.000000 0.008117
# 5 0.008717 0.005183 0.001303 0.000000 0.027331 0.000000
# 6 0.000000 0.000000 0.000000 0.008117 0.000000 0.036871
#
#
# Mechanical properties :
#
#
# Convention : Reuss Voigt Hill
#
# Bulk Modulus (GPa) = 29.87829 42.57200 36.22514
# Shear Modulus (GPa) = 28.78404 34.01740 31.40072
#
# Velocity S-wave (km/s) = 3.59698 3.91032 3.75692
# Velocity P-wave (km/s) = 5.53905 6.28676 5.92471
#
# Compressibility (1/GPa) = 0.03346912
#
# Stress axis : x y z
#
# Youngs Moduli (GPa) = 44.95640 59.91453 75.41934
#
# Poissons Ratio (x) = 0.18875 0.10229
# Poissons Ratio (y) = 0.14162 0.36621
# Poissons Ratio (z) = 0.06097 0.29093
#
# Static dielectric constant tensor:
#      x y z
#    x 1.862210 0.000000 0.036510 
#    y 0.000000 1.824930 0.000000 
#    z 0.036510 0.000000 1.920620 
# 
# From -- ./inp_files/145774.got.cif
#   From: 2010.05.17/outbox.cif.g08.bks.cpg/sg15_73_cif.got.tgz:145774.got - 2010.06.03 18:47:42.
