data_PCOD9270008
_publ_section_title
;
Structure prediction by ZEFSAII (Michael W. Deem and Ramdas Pophale) SiO2 
 PCOD9270008
Probable space group: C 2/C
;
_chemical_formula_sum "Si O2"
_cell_formula_units_Z 60
_cell_length_a 9.192896
_cell_length_b 18.434755
_cell_length_c 20.070477
_cell_angle_alpha 90.000000
_cell_angle_beta 62.436843
_cell_angle_gamma 90.000000
_cell_volume 3015.274070
_symmetry_space_group_name_H-M "C 2/C"
_symmetry_group_IT_number 15
_symmetry_cell_setting 'monoclinic'
loop_
_space_group_symop_operation_xyz
x,y,z
-x,y,1/2-z
-x,-y,-z
x,-y,1/2+z
1/2+x,1/2+y,z
1/2-x,1/2+y,1/2-z
1/2-x,1/2-y,-z
1/2+x,1/2-y,1/2+z
loop_
_atom_site_type_symbol
_atom_site_label
_atom_site_fract_x
_atom_site_fract_y
_atom_site_fract_z
Si Si1 0.500000 0.858916 0.250000
Si Si2 0.505953 0.529355 0.170800
Si Si3 0.181368 0.378794 0.709390
Si Si4 0.841274 0.405242 0.930075
Si Si5 0.003525 0.931001 0.051338
Si Si6 0.688092 0.280213 0.704194
Si Si7 0.177339 0.372292 0.933834
Si Si8 0.847896 0.580704 0.911000
O O1 0.345855 0.803854 0.275886
O O2 0.528602 0.900563 0.175046
O O3 0.500000 0.515636 0.250000
O O4 0.338155 0.570716 0.187383
O O5 0.501386 0.459067 0.126446
O O6 0.671942 0.572315 0.114384
O O7 0.184365 0.358719 0.631412
O O8 0.203691 0.317872 0.761327
O O9 0.000000 0.414239 0.750000
O O10 0.846423 0.492828 0.916723
O O11 0.011423 0.389260 0.929386
O O12 0.674600 0.391369 0.005247
O O13 0.833760 0.892921 0.071321
O O14 0.000000 0.000000 0.000000
O O15 0.500000 0.311969 0.750000
O O16 0.754657 0.299439 0.616592
O O17 0.130358 0.382474 0.021196
#
# Coordination Sequence:
#
# PCOD9270008 Si02
#       8
#     4   8   8   8   8   8   8   8
#     4  10  26  44  62  86 114 166 220 246 288 360
#     4  12  19  33  53  90 125 160 192 236 297 359
#     4  12  19  33  62  92 117 153 196 263 304 348
#     4  11  22  34  60 104 126 150 196 241 324 376
#     4  10  20  35  53  85 128 159 188 235 303 376
#     4  10  22  40  60  88 111 153 225 249 278 341
#     4  12  20  37  65  93 122 161 198 254 295 360
#     4  11  23  39  64  87 132 161 192 248 312 375
#
# _framework density 19.898689000000001
#
# number of rings (size 3 to 8) (size 9 to 14) (size 15 to 20)
#    0.400    0.533    9.333    0.400    0.933    1.600 
#    0.000    0.000    2.933    1.600    0.000    0.000 
#    0.000    0.000    0.000    0.000    0.000    0.000 
#
# Total GULP energy -167042.716701 kJ/mol
# GULP energy per Si atom -5568.090557 kJ/mol
# Density = 1.985340 g / cm^3
# Si number density = 19.898689 Si / 1000 Ang^3
#
#
#
# Elastic Constant Matrix: (Units=GPa)
#
#
# Indices 1 2 3 4 5 6 
#
# 1 133.3319 -1.8472 34.5733 0.0000 7.1833 0.0000
# 2 -1.8472 11.5685 18.1613 0.0000 -0.1165 0.0000
# 3 34.5733 18.1613 143.2731 0.0000 17.4085 0.0000
# 4 0.0000 0.0000 0.0000 13.7235 0.0000 -6.9111
# 5 7.1833 -0.1165 17.4085 0.0000 33.4376 0.0000
# 6 0.0000 0.0000 0.0000 -6.9111 0.0000 4.2326
#
#
#
# Elastic Compliance Matrix: (Units=1/GPa)
#
#
# Indices 1 2 3 4 5 6 
#
# 1 0.008283 0.005472 -0.002646 0.000000 -0.000383 0.000000
# 2 0.005472 0.113578 -0.016678 0.000000 0.007903 0.000000
# 3 -0.002646 -0.016678 0.010323 0.000000 -0.004864 0.000000
# 4 0.000000 0.000000 0.000000 0.410021 0.000000 0.669492
# 5 -0.000383 0.007903 -0.004864 0.000000 0.032549 0.000000
# 6 0.000000 0.000000 0.000000 0.669492 0.000000 1.329424
#
#
# Mechanical properties :
#
#
# Convention : Reuss Voigt Hill
#
# Bulk Modulus (GPa) = 9.57111 43.32758 26.44935
# Shear Modulus (GPa) = 2.54232 26.09780 14.32006
#
# Velocity S-wave (km/s) = 1.13155 3.62544 2.68554
# Velocity P-wave (km/s) = 2.55491 6.27267 4.78926
#
# Compressibility (1/GPa) = 0.10448105
#
# Stress axis : x y z
#
# Youngs Moduli (GPa) = 120.73520 8.80452 96.86847
#
# Poissons Ratio (x) = -0.04818 0.25630
# Poissons Ratio (y) = -0.66071 1.61557
# Poissons Ratio (z) = 0.31945 0.14684
#
# Static dielectric constant tensor:
#      x y z
#    x 1.735850 0.000000 -0.035120 
#    y 0.000000 1.736180 0.000000 
#    z -0.035120 0.000000 1.768030 
# 
# From -- ./inp_files/192922.got.cif
#   From: 2010.05.17/outbox.cif.g08.bks.cpg/sg15_97_cif.got.tgz:192922.got - 2010.06.03 18:47:42.
