data_PCOD9270821
_publ_section_title
;
Structure prediction by ZEFSAII (Michael W. Deem and Ramdas Pophale) SiO2 
 PCOD9270821
Probable space group: C 2/C
;
_chemical_formula_sum "Si O2"
_cell_formula_units_Z 48
_cell_length_a 13.747403
_cell_length_b 33.343706
_cell_length_c 5.246084
_cell_angle_alpha 90.000000
_cell_angle_beta 92.453495
_cell_angle_gamma 90.000000
_cell_volume 2402.544667
_symmetry_space_group_name_H-M "C 2/C"
_symmetry_group_IT_number 15
_symmetry_cell_setting 'monoclinic'
loop_
_space_group_symop_operation_xyz
x,y,z
-x,y,1/2-z
-x,-y,-z
x,-y,1/2+z
1/2+x,1/2+y,z
1/2-x,1/2+y,1/2-z
1/2-x,1/2-y,-z
1/2+x,1/2-y,1/2+z
loop_
_atom_site_type_symbol
_atom_site_label
_atom_site_fract_x
_atom_site_fract_y
_atom_site_fract_z
Si Si1 0.500000 0.841526 0.750000
Si Si2 0.610029 0.771057 0.967682
Si Si3 0.750000 0.750000 0.500000
Si Si4 0.381766 0.022228 0.722301
Si Si5 0.258899 0.319245 0.263781
Si Si6 0.608553 0.886824 0.387274
Si Si7 0.944781 0.818499 0.990240
O O1 0.541746 0.809855 0.958151
O O2 0.585229 0.870635 0.667207
O O3 0.666430 0.768753 0.706457
O O4 0.555581 0.730119 0.009829
O O5 0.690419 0.778698 0.200388
O O6 0.691300 0.704113 0.499197
O O7 0.500000 0.020523 0.750000
O O8 0.358080 0.067713 0.643256
O O9 0.348261 0.992309 0.495482
O O10 0.188844 0.356011 0.297626
O O11 0.332207 0.327908 0.045535
O O12 0.500000 0.884376 0.250000
O O13 0.000000 0.832681 0.250000
O O14 0.000000 0.834375 0.750000
#
# Coordination Sequence:
#
# PCOD9270821 Si02
#       7
#     4   8   4   8   8   8   8
#     4  12  22  32  52  80 112 146 202 232 282 330
#     4  11  23  33  54  70 108 148 196 250 284 331
#     4  10  20  36  46  70  98 146 184 240 290 316
#     4   9  20  36  57  81 115 149 182 219 278 350
#     4  11  24  37  55  77 111 148 201 246 288 340
#     4  11  23  36  57  84 112 150 190 233 286 336
#     4  11  26  39  58  76 105 152 201 242 296 332
#
# _framework density 19.978816999999999
#
# number of rings (size 3 to 8) (size 9 to 14) (size 15 to 20)
#    0.000    1.333    4.167    2.000   17.500    0.000 
#    0.000    0.000    0.000    0.000    0.000    0.000 
#    0.000    4.000    0.000    0.000    0.000    0.000 
#
# Total GULP energy -133623.923416 kJ/mol
# GULP energy per Si atom -5567.663476 kJ/mol
# Density = 1.993334 g / cm^3
# Si number density = 19.978817 Si / 1000 Ang^3
#
#
#
# Elastic Constant Matrix: (Units=GPa)
#
#
# Indices 1 2 3 4 5 6 
#
# 1 54.0607 28.4573 36.9834 0.0000 -16.4347 0.0000
# 2 28.4573 123.0223 24.3210 0.0000 -8.3723 0.0000
# 3 36.9834 24.3210 121.9205 0.0000 -30.0611 0.0000
# 4 0.0000 0.0000 0.0000 15.5878 0.0000 -0.2732
# 5 -16.4347 -8.3723 -30.0611 0.0000 36.2498 0.0000
# 6 0.0000 0.0000 0.0000 -0.2732 0.0000 20.3102
#
#
#
# Elastic Compliance Matrix: (Units=1/GPa)
#
#
# Indices 1 2 3 4 5 6 
#
# 1 0.026715 -0.004637 -0.005602 0.000000 0.006395 0.000000
# 2 -0.004637 0.009281 -0.000546 0.000000 -0.000412 0.000000
# 3 -0.005602 -0.000546 0.011757 0.000000 0.007084 0.000000
# 4 0.000000 0.000000 0.000000 0.064168 0.000000 0.000863
# 5 0.006395 -0.000412 0.007084 0.000000 0.036265 0.000000
# 6 0.000000 0.000000 0.000000 0.000863 0.000000 0.049248
#
#
# Mechanical properties :
#
#
# Convention : Reuss Voigt Hill
#
# Bulk Modulus (GPa) = 38.19304 53.16964 45.68134
# Shear Modulus (GPa) = 21.95557 28.37901 25.16729
#
# Velocity S-wave (km/s) = 3.31863 3.77298 3.55307
# Velocity P-wave (km/s) = 5.81744 6.75657 6.30452
#
# Compressibility (1/GPa) = 0.02618278
#
# Stress axis : x y z
#
# Youngs Moduli (GPa) = 37.43193 107.74442 85.05607
#
# Poissons Ratio (x) = 0.49961 0.47648
# Poissons Ratio (y) = 0.17357 0.04647
# Poissons Ratio (z) = 0.20969 0.05887
#
# Static dielectric constant tensor:
#      x y z
#    x 1.951430 0.000000 0.263230 
#    y 0.000000 1.708050 0.000000 
#    z 0.263230 0.000000 2.149910 
# 
# From -- ./inp_files/8745.got.cif
#   From: 2010.05.17/outbox.cif.g08.bks.cpg/sg15_5_cif.got.tgz:8745.got - 2010.06.03 18:47:42.
