data_PCOD9270765
_publ_section_title
;
Structure prediction by ZEFSAII (Michael W. Deem and Ramdas Pophale) SiO2 
 PCOD9270765
Probable space group: C 2/C
;
_chemical_formula_sum "Si O2"
_cell_formula_units_Z 48
_cell_length_a 19.670526
_cell_length_b 12.812119
_cell_length_c 15.821152
_cell_angle_alpha 90.000000
_cell_angle_beta 30.527243
_cell_angle_gamma 90.000000
_cell_volume 2025.322973
_symmetry_space_group_name_H-M "C 2/C"
_symmetry_group_IT_number 15
_symmetry_cell_setting 'monoclinic'
loop_
_space_group_symop_operation_xyz
x,y,z
-x,y,1/2-z
-x,-y,-z
x,-y,1/2+z
1/2+x,1/2+y,z
1/2-x,1/2+y,1/2-z
1/2-x,1/2-y,-z
1/2+x,1/2-y,1/2+z
loop_
_atom_site_type_symbol
_atom_site_label
_atom_site_fract_x
_atom_site_fract_y
_atom_site_fract_z
Si Si1 0.827814 0.981917 0.337700
Si Si2 0.626355 0.427201 0.017224
Si Si3 0.409350 0.816880 0.928371
Si Si4 0.403183 0.841244 0.252697
Si Si5 0.185052 0.301619 0.961001
Si Si6 0.410642 0.949460 0.666756
O O1 0.845110 0.982146 0.422133
O O2 0.720390 0.891466 0.431175
O O3 0.768867 0.091348 0.367731
O O4 0.979088 0.960063 0.144809
O O5 0.752727 0.443976 0.820765
O O6 0.627637 0.303789 0.034200
O O7 0.500000 0.838803 0.750000
O O8 0.514179 0.844292 0.889664
O O9 0.277690 0.794974 0.336858
O O10 0.366840 0.802145 0.385629
O O11 0.420469 0.965104 0.232023
O O12 0.543057 0.799282 0.067183
O O13 0.500000 0.000000 0.500000
#
# Coordination Sequence:
#
# PCOD9270765 Si02
#       6
#     8   8   8   8   8   8
#     4  11  20  35  64 102 126 153 211 288 322 370
#     4  11  23  36  66 101 130 162 217 273 328 382
#     4  12  20  41  69  98 129 169 222 275 329 381
#     4  10  21  38  60  88 122 169 211 259 321 371
#     4  10  20  35  64  92 118 157 215 272 313 370
#     4  12  26  45  62  92 140 179 213 260 334 404
#
# _framework density 23.699923999999999
#
# number of rings (size 3 to 8) (size 9 to 14) (size 15 to 20)
#    0.000    1.000    6.667    1.500    2.333    1.333 
#    3.000    0.833    0.000    0.000    0.000    0.000 
#    0.000    0.000    0.000    0.000    0.000    0.000 
#
# Total GULP energy -134043.641226 kJ/mol
# GULP energy per Si atom -5585.151718 kJ/mol
# Density = 2.364598 g / cm^3
# Si number density = 23.699924 Si / 1000 Ang^3
#
#
#
# Elastic Constant Matrix: (Units=GPa)
#
#
# Indices 1 2 3 4 5 6 
#
# 1 29.2348 7.5015 46.0527 0.0000 -10.7178 0.0000
# 2 7.5015 52.2982 22.5284 0.0000 -0.9043 0.0000
# 3 46.0527 22.5284 198.2748 0.0000 -45.0368 0.0000
# 4 0.0000 0.0000 0.0000 29.0437 0.0000 -21.0596
# 5 -10.7178 -0.9043 -45.0368 0.0000 37.3862 0.0000
# 6 0.0000 0.0000 0.0000 -21.0596 0.0000 16.8836
#
#
#
# Elastic Compliance Matrix: (Units=1/GPa)
#
#
# Indices 1 2 3 4 5 6 
#
# 1 0.054268 -0.002553 -0.012108 0.000000 0.000910 0.000000
# 2 -0.002553 0.020493 -0.002463 0.000000 -0.003203 0.000000
# 3 -0.012108 -0.002463 0.010096 0.000000 0.008632 0.000000
# 4 0.000000 0.000000 0.000000 0.360337 0.000000 0.449462
# 5 0.000910 -0.003203 0.008632 0.000000 0.037329 0.000000
# 6 0.000000 0.000000 0.000000 0.449462 0.000000 0.619860
#
#
# Mechanical properties :
#
#
# Convention : Reuss Voigt Hill
#
# Bulk Modulus (GPa) = 19.75911 47.99698 33.87804
# Shear Modulus (GPa) = 4.33463 30.24438 17.28950
#
# Velocity S-wave (km/s) = 1.35386 3.57618 2.70389
# Velocity P-wave (km/s) = 3.28622 6.11130 4.90649
#
# Compressibility (1/GPa) = 0.05060957
#
# Stress axis : x y z
#
# Youngs Moduli (GPa) = 18.42720 48.79734 99.04674
#
# Poissons Ratio (x) = 0.12456 1.19924
# Poissons Ratio (y) = 0.04704 0.24397
# Poissons Ratio (z) = 0.22311 0.12020
#
# Static dielectric constant tensor:
#      x y z
#    x 2.021510 0.000000 -0.113480 
#    y 0.000000 1.883190 0.000000 
#    z -0.113480 0.000000 1.878590 
# 
# From -- ./inp_files/257592.got.cif
#   From: 2010.05.17/outbox.cif.g08.bks.cpg/sg15_129_cif.got.tgz:257592.got - 2010.06.03 18:47:42.
