data_PCOD9270313
_publ_section_title
;
Structure prediction by ZEFSAII (Michael W. Deem and Ramdas Pophale) SiO2 
 PCOD9270313
Probable space group: C 2/C
;
_chemical_formula_sum "Si O2"
_cell_formula_units_Z 48
_cell_length_a 32.123437
_cell_length_b 6.739297
_cell_length_c 14.375534
_cell_angle_alpha 90.000000
_cell_angle_beta 144.081421
_cell_angle_gamma 90.000000
_cell_volume 1825.696378
_symmetry_space_group_name_H-M "C 2/C"
_symmetry_group_IT_number 15
_symmetry_cell_setting 'monoclinic'
loop_
_space_group_symop_operation_xyz
x,y,z
-x,y,1/2-z
-x,-y,-z
x,-y,1/2+z
1/2+x,1/2+y,z
1/2-x,1/2+y,1/2-z
1/2-x,1/2-y,-z
1/2+x,1/2-y,1/2+z
loop_
_atom_site_type_symbol
_atom_site_label
_atom_site_fract_x
_atom_site_fract_y
_atom_site_fract_z
Si Si1 0.609865 0.631657 0.067906
Si Si2 0.134107 0.425760 0.592654
Si Si3 0.500000 0.076600 0.750000
Si Si4 0.000000 0.000000 0.000000
Si Si5 0.734799 0.448564 0.546359
Si Si6 0.081778 0.783050 0.312441
Si Si7 0.733311 0.097564 0.102758
O O1 0.607981 0.866861 0.089668
O O2 0.578989 0.511397 0.096976
O O3 0.692354 0.580099 0.210159
O O4 0.579012 0.619248 0.909309
O O5 0.197204 0.357792 0.775181
O O6 0.175310 0.473878 0.571296
O O7 0.060379 0.321666 0.424768
O O8 0.453234 0.935152 0.733810
O O9 0.969430 0.112549 0.852898
O O10 0.662581 0.323737 0.426305
O O11 0.719586 0.667924 0.560932
O O12 0.757902 0.499356 0.482578
#
# Coordination Sequence:
#
# PCOD9270313 Si02
#       7
#     8   8   4   4   8   8   8
#     4  10  20  35  57  92 118 167 201 258 314 364
#     4  10  20  39  62  83 128 162 204 255 319 371
#     4  10  22  40  62  86 122 172 194 250 320 370
#     4  12  18  32  62  90 124 154 210 260 304 362
#     4  10  21  35  62  92 117 158 209 256 307 370
#     4  11  19  34  57  90 124 152 210 254 304 370
#     4  10  20  36  60  87 123 163 204 257 316 369
#
# _framework density 26.291340000000002
#
# number of rings (size 3 to 8) (size 9 to 14) (size 15 to 20)
#    0.000    1.667    6.667    0.000    0.000    0.000 
#    0.000    5.000    7.333    0.000    0.000    0.000 
#    0.000    0.000    0.000    0.000    0.000    0.000 
#
# Total GULP energy -133722.256494 kJ/mol
# GULP energy per Si atom -5571.760687 kJ/mol
# Density = 2.623150 g / cm^3
# Si number density = 26.291340 Si / 1000 Ang^3
#
#
#
# Elastic Constant Matrix: (Units=GPa)
#
#
# Indices 1 2 3 4 5 6 
#
# 1 80.9946 13.2220 -22.7178 0.0000 17.9054 0.0000
# 2 13.2220 57.8294 -9.1286 0.0000 2.7367 0.0000
# 3 -22.7178 -9.1286 145.8807 0.0000 29.2451 0.0000
# 4 0.0000 0.0000 0.0000 18.7331 0.0000 10.3311
# 5 17.9054 2.7367 29.2451 0.0000 52.2744 0.0000
# 6 0.0000 0.0000 0.0000 10.3311 0.0000 -15.7869
#
#
#
# Elastic Compliance Matrix: (Units=1/GPa)
#
#
# Indices 1 2 3 4 5 6 
#
# 1 0.015392 -0.002598 0.003676 0.000000 -0.007193 0.000000
# 2 -0.002598 0.018042 0.000828 0.000000 -0.000518 0.000000
# 3 0.003676 0.000828 0.008718 0.000000 -0.006180 0.000000
# 4 0.000000 0.000000 0.000000 0.039225 0.000000 0.025669
# 5 -0.007193 -0.000518 -0.006180 0.000000 0.025078 0.000000
# 6 0.000000 0.000000 0.000000 0.025669 0.000000 -0.046546
#
#
# Mechanical properties :
#
#
# Convention : Reuss Voigt Hill
#
# Bulk Modulus (GPa) = 21.75631 27.49510 24.62570
# Shear Modulus (GPa) = 70.00977 31.26607 50.63792
#
# Velocity S-wave (km/s) = 5.16587 3.45224 4.39342
# Velocity P-wave (km/s) = 6.62380 5.13529 5.92646
#
# Compressibility (1/GPa) = 0.04596368
#
# Stress axis : x y z
#
# Youngs Moduli (GPa) = 64.96893 55.42756 114.70297
#
# Poissons Ratio (x) = 0.14403 -0.42169
# Poissons Ratio (y) = 0.16882 -0.09499
# Poissons Ratio (z) = -0.23885 -0.04590
#
# Static dielectric constant tensor:
#      x y z
#    x 1.989510 0.000000 0.059370 
#    y 0.000000 2.158560 0.000000 
#    z 0.059370 0.000000 2.059640 
# 
# From -- ./inp_files/180943.got.cif
#   From: 2010.05.17/outbox.cif.g08.bks.cpg/sg15_91_cif.got.tgz:180943.got - 2010.06.03 18:47:42.
