data_PCOD9270983
_publ_section_title
;
Structure prediction by ZEFSAII (Michael W. Deem and Ramdas Pophale) SiO2 
 PCOD9270983
Probable space group: C 2/C
;
_chemical_formula_sum "Si O2"
_cell_formula_units_Z 40
_cell_length_a 8.788848
_cell_length_b 17.085244
_cell_length_c 10.766725
_cell_angle_alpha 90.000000
_cell_angle_beta 96.300511
_cell_angle_gamma 90.000000
_cell_volume 1606.962184
_symmetry_space_group_name_H-M "C 2/C"
_symmetry_group_IT_number 15
_symmetry_cell_setting 'monoclinic'
loop_
_space_group_symop_operation_xyz
x,y,z
-x,y,1/2-z
-x,-y,-z
x,-y,1/2+z
1/2+x,1/2+y,z
1/2-x,1/2+y,1/2-z
1/2-x,1/2-y,-z
1/2+x,1/2-y,1/2+z
loop_
_atom_site_type_symbol
_atom_site_label
_atom_site_fract_x
_atom_site_fract_y
_atom_site_fract_z
Si Si1 0.000000 0.632740 0.750000
Si Si2 0.812457 0.637031 0.354174
Si Si3 0.271638 0.446823 0.426490
Si Si4 0.500000 0.393057 0.250000
Si Si5 0.670285 0.105728 0.411265
Si Si6 0.247389 0.768404 0.340150
O O1 0.123009 0.581399 0.835063
O O2 0.092206 0.688214 0.663151
O O3 0.708879 0.614526 0.459712
O O4 0.787836 0.585308 0.228578
O O5 0.787767 0.723560 0.296835
O O6 0.989136 0.619615 0.403450
O O7 0.413026 0.442703 0.346346
O O8 0.231959 0.530294 0.485893
O O9 0.618914 0.334863 0.328769
O O10 0.740696 0.192052 0.428487
#
# Coordination Sequence:
#
# PCOD9270983 Si02
#       6
#     4   8   8   4   8   8
#     4  10  22  32  58  90 114 142 194 244 268 326
#     4   9  18  37  67  77 111 161 193 214 299 354
#     4  11  22  36  63  87 112 150 199 236 278 337
#     4  10  20  36  56  82 120 150 182 234 286 336
#     4   9  18  37  63  79 111 149 195 233 275 340
#     4   9  18  40  58  76 120 154 178 233 293 336
#
# _framework density 24.891689
#
# number of rings (size 3 to 8) (size 9 to 14) (size 15 to 20)
#    1.200    1.200    2.000    1.800    0.000    4.000 
#    0.000    2.000    8.800    0.000    0.000    0.000 
#    0.000    0.000    0.000    0.000    0.000    0.000 
#
# Total GULP energy -111740.284922 kJ/mol
# GULP energy per Si atom -5587.014246 kJ/mol
# Density = 2.483503 g / cm^3
# Si number density = 24.891689 Si / 1000 Ang^3
#
#
#
# Elastic Constant Matrix: (Units=GPa)
#
#
# Indices 1 2 3 4 5 6 
#
# 1 73.6547 30.5643 -6.2268 0.0000 -24.5448 0.0000
# 2 30.5643 132.2544 -26.2499 0.0000 -5.3282 0.0000
# 3 -6.2268 -26.2499 9.6134 0.0000 -7.9275 0.0000
# 4 0.0000 0.0000 0.0000 21.5681 0.0000 -19.0350
# 5 -24.5448 -5.3282 -7.9275 0.0000 31.2239 0.0000
# 6 0.0000 0.0000 0.0000 -19.0350 0.0000 -16.4730
#
#
#
# Elastic Compliance Matrix: (Units=1/GPa)
#
#
# Indices 1 2 3 4 5 6 
#
# 1 0.044459 0.026971 0.170821 0.000000 0.082921 0.000000
# 2 0.026971 0.048513 0.220389 0.000000 0.085435 0.000000
# 3 0.170821 0.220389 1.211929 0.000000 0.479588 0.000000
# 4 0.000000 0.000000 0.000000 0.022955 0.000000 -0.026525
# 5 0.082921 0.085435 0.479588 0.000000 0.233552 0.000000
# 6 0.000000 0.000000 0.000000 -0.026525 0.000000 -0.030055
#
#
# Mechanical properties :
#
#
# Convention : Reuss Voigt Hill
#
# Bulk Modulus (GPa) = 0.46701 23.52197 11.99449
# Shear Modulus (GPa) = 3.54925 21.75946 12.65436
#
# Velocity S-wave (km/s) = 1.19540 2.95984 2.25717
# Velocity P-wave (km/s) = 1.44683 4.59903 3.40914
#
# Compressibility (1/GPa) = 2.14126224
#
# Stress axis : x y z
#
# Youngs Moduli (GPa) = 22.49269 20.61304 0.82513
#
# Poissons Ratio (x) = -0.55595 -0.14095
# Poissons Ratio (y) = -0.60665 -0.18185
# Poissons Ratio (z) = -3.84223 -4.54288
#
# Static dielectric constant tensor:
#      x y z
#    x 1.923670 0.000000 0.037110 
#    y 0.000000 1.945280 0.000000 
#    z 0.037110 0.000000 2.120790 
# 
# From -- ./inp_files/77690.got.cif
#   From: 2010.05.17/outbox.cif.g08.bks.cpg/sg15_39_cif.got.tgz:77690.got - 2010.06.03 18:47:42.
