data_PCOD9270014
_publ_section_title
;
Structure prediction by ZEFSAII (Michael W. Deem and Ramdas Pophale) SiO2 
 PCOD9270014
Probable space group: C 2/C
;
_chemical_formula_sum "Si O2"
_cell_formula_units_Z 56
_cell_length_a 21.017808
_cell_length_b 30.561532
_cell_length_c 5.197240
_cell_angle_alpha 90.000000
_cell_angle_beta 61.831216
_cell_angle_gamma 90.000000
_cell_volume 2942.981776
_symmetry_space_group_name_H-M "C 2/C"
_symmetry_group_IT_number 15
_symmetry_cell_setting 'monoclinic'
loop_
_space_group_symop_operation_xyz
x,y,z
-x,y,1/2-z
-x,-y,-z
x,-y,1/2+z
1/2+x,1/2+y,z
1/2-x,1/2+y,1/2-z
1/2-x,1/2-y,-z
1/2+x,1/2-y,1/2+z
loop_
_atom_site_type_symbol
_atom_site_label
_atom_site_fract_x
_atom_site_fract_y
_atom_site_fract_z
Si Si1 0.360442 0.231581 0.277239
Si Si2 0.612511 0.843772 0.407780
Si Si3 0.085796 0.472677 0.279862
Si Si4 0.758528 0.971961 0.992284
Si Si5 0.281548 0.318697 0.570117
Si Si6 0.000000 0.302375 0.250000
Si Si7 0.500000 0.098326 0.250000
Si Si8 0.231801 0.126388 0.923327
O O1 0.362709 0.202765 0.531066
O O2 0.335392 0.280466 0.379432
O O3 0.296040 0.206257 0.247862
O O4 0.440368 0.226873 0.010090
O O5 0.550806 0.832774 0.324835
O O6 0.568795 0.872138 0.703217
O O7 0.682354 0.869267 0.185060
O O8 0.072228 0.510796 0.517492
O O9 0.038803 0.431900 0.464232
O O10 0.171561 0.465487 0.147915
O O11 0.789673 0.923938 0.995153
O O12 0.777139 0.994079 0.684491
O O13 0.302436 0.342142 0.795427
O O14 0.276814 0.354191 0.347840
#
# Coordination Sequence:
#
# PCOD9270014 Si02
#       8
#     8   8   8   8   8   4   4   8
#     4  10  22  37  52  80 108 144 186 237 278 323
#     4  11  23  34  51  78 105 145 193 233 276 318
#     4  10  22  36  48  67  97 137 180 231 281 315
#     4  10  20  35  54  76 104 136 177 228 281 322
#     4  10  23  36  61  77 108 143 192 229 275 328
#     4  12  20  36  55  76 110 146 184 233 280 312
#     4  12  20  36  45  74  96 142 182 239 264 322
#     4  11  21  40  56  81 104 146 188 234 269 332
#
# _framework density 19.028320999999998
#
# number of rings (size 3 to 8) (size 9 to 14) (size 15 to 20)
#    0.000    1.429    4.286    1.286    2.000    2.857 
#    2.571    0.000    0.000    0.000    0.000    0.000 
#    0.000    0.000    0.000   12.857    0.000    0.000 
#
# Total GULP energy -156228.151031 kJ/mol
# GULP energy per Si atom -5579.576823 kJ/mol
# Density = 1.898501 g / cm^3
# Si number density = 19.028321 Si / 1000 Ang^3
#
#
#
# Elastic Constant Matrix: (Units=GPa)
#
#
# Indices 1 2 3 4 5 6 
#
# 1 26.4938 10.2654 10.1558 0.0000 -0.2286 0.0000
# 2 10.2654 92.3725 12.2251 0.0000 -4.3435 0.0000
# 3 10.1558 12.2251 56.8824 0.0000 10.0834 0.0000
# 4 0.0000 0.0000 0.0000 26.0142 0.0000 -2.5392
# 5 -0.2286 -4.3435 10.0834 0.0000 12.6988 0.0000
# 6 0.0000 0.0000 0.0000 -2.5392 0.0000 19.1845
#
#
#
# Elastic Compliance Matrix: (Units=1/GPa)
#
#
# Indices 1 2 3 4 5 6 
#
# 1 0.042099 -0.003370 -0.007824 0.000000 0.005817 0.000000
# 2 -0.003370 0.011917 -0.003109 0.000000 0.006484 0.000000
# 3 -0.007824 -0.003109 0.023112 0.000000 -0.019556 0.000000
# 4 0.000000 0.000000 0.000000 0.038944 0.000000 0.005154
# 5 0.005817 0.006484 -0.019556 0.000000 0.096599 0.000000
# 6 0.000000 0.000000 0.000000 0.005154 0.000000 0.052808
#
#
# Mechanical properties :
#
#
# Convention : Reuss Voigt Hill
#
# Bulk Modulus (GPa) = 20.60847 26.78239 23.69543
# Shear Modulus (GPa) = 16.11573 21.11965 18.61769
#
# Velocity S-wave (km/s) = 2.91337 3.33514 3.13136
# Velocity P-wave (km/s) = 4.70860 5.37926 5.05506
#
# Compressibility (1/GPa) = 0.04852373
#
# Stress axis : x y z
#
# Youngs Moduli (GPa) = 23.75332 83.91710 43.26811
#
# Poissons Ratio (x) = 0.28277 0.33851
# Poissons Ratio (y) = 0.08004 0.13451
# Poissons Ratio (z) = 0.18583 0.26089
#
# Static dielectric constant tensor:
#      x y z
#    x 1.672140 0.000000 0.022540 
#    y 0.000000 1.716790 0.000000 
#    z 0.022540 0.000000 1.732110 
# 
# From -- ./inp_files/16437.got.cif
#   From: 2010.05.17/outbox.cif.g08.bks.cpg/sg15_9_cif.got.tgz:16437.got - 2010.06.03 18:47:42.
