data_PCOD9270309
_publ_section_title
;
Structure prediction by ZEFSAII (Michael W. Deem and Ramdas Pophale) SiO2 
 PCOD9270309
Probable space group: C 2/C
;
_chemical_formula_sum "Si O2"
_cell_formula_units_Z 48
_cell_length_a 19.669141
_cell_length_b 5.327923
_cell_length_c 19.804696
_cell_angle_alpha 90.000000
_cell_angle_beta 69.123360
_cell_angle_gamma 90.000000
_cell_volume 1939.192980
_symmetry_space_group_name_H-M "C 2/C"
_symmetry_group_IT_number 15
_symmetry_cell_setting 'monoclinic'
loop_
_space_group_symop_operation_xyz
x,y,z
-x,y,1/2-z
-x,-y,-z
x,-y,1/2+z
1/2+x,1/2+y,z
1/2-x,1/2+y,1/2-z
1/2-x,1/2-y,-z
1/2+x,1/2-y,1/2+z
loop_
_atom_site_type_symbol
_atom_site_label
_atom_site_fract_x
_atom_site_fract_y
_atom_site_fract_z
Si Si1 0.222357 0.977934 0.843381
Si Si2 0.353198 0.566870 0.912132
Si Si3 0.182408 0.978782 0.713984
Si Si4 0.184288 0.393697 0.462786
Si Si5 0.056436 0.455723 0.918550
Si Si6 0.501233 0.547132 0.080509
O O1 0.168943 0.992458 0.798377
O O2 0.265780 0.720852 0.813198
O O3 0.188415 0.887497 0.926530
O O4 0.276453 0.215838 0.819002
O O5 0.373669 0.536552 0.826122
O O6 0.266184 0.505731 0.944928
O O7 0.415546 0.416200 0.927946
O O8 0.351974 0.836033 0.951776
O O9 0.134904 0.550322 0.427787
O O10 0.045333 0.713045 0.882828
O O11 0.031120 0.218931 0.884959
O O12 0.000000 0.500000 0.000000
O O13 0.500000 0.500000 0.000000
#
# Coordination Sequence:
#
# PCOD9270309 Si02
#       6
#     8   8   8   8   8   8
#     4   9  19  36  54  79 115 151 181 231 294 343
#     4  10  20  35  57  91 113 143 194 248 275 332
#     4   9  19  36  54  79 115 149 183 231 296 339
#     4  10  20  35  58  90 116 143 196 244 278 332
#     4  10  20  37  52  75 118 159 176 218 284 352
#     4  10  20  37  52  75 118 158 180 214 290 345
#
# _framework density 24.752562999999999
#
# number of rings (size 3 to 8) (size 9 to 14) (size 15 to 20)
#    0.000    2.333    3.333    0.000    0.000    6.000 
#    3.000    0.000    0.000    1.000    0.000    2.333 
#    0.000    0.000    0.000    0.000    0.000    0.000 
#
# Total GULP energy -133644.158666 kJ/mol
# GULP energy per Si atom -5568.506611 kJ/mol
# Density = 2.469623 g / cm^3
# Si number density = 24.752563 Si / 1000 Ang^3
#
#
#
# Elastic Constant Matrix: (Units=GPa)
#
#
# Indices 1 2 3 4 5 6 
#
# 1 152.5619 24.9212 23.2262 0.0130 18.3477 0.0003
# 2 24.9212 162.4085 9.2087 0.0401 -8.6706 -0.0224
# 3 23.2262 9.2087 70.1614 0.0137 37.1490 -0.0057
# 4 0.0130 0.0401 0.0137 16.0258 0.0119 6.7794
# 5 18.3477 -8.6706 37.1490 0.0119 41.9111 0.0013
# 6 0.0003 -0.0224 -0.0057 6.7794 0.0013 14.5310
#
#
#
# Elastic Compliance Matrix: (Units=1/GPa)
#
#
# Indices 1 2 3 4 5 6 
#
# 1 0.007196 -0.001203 -0.000800 0.000001 -0.002690 -0.000003
# 2 -0.001203 0.006739 -0.002833 -0.000026 0.004432 0.000021
# 3 -0.000800 -0.002833 0.028293 -0.000002 -0.025314 0.000010
# 4 0.000001 -0.000026 -0.000002 0.077743 -0.000025 -0.036271
# 5 -0.002690 0.004432 -0.025314 -0.000025 0.048392 0.000004
# 6 -0.000003 0.000021 0.000010 -0.036271 0.000004 0.085740
#
#
# Mechanical properties :
#
#
# Convention : Reuss Voigt Hill
#
# Bulk Modulus (GPa) = 30.71543 55.53823 43.12683
# Shear Modulus (GPa) = 18.20654 36.34530 27.27592
#
# Velocity S-wave (km/s) = 2.71503 3.83606 3.32315
# Velocity P-wave (km/s) = 4.71852 6.48895 5.67322
#
# Compressibility (1/GPa) = 0.03255693
#
# Stress axis : x y z
#
# Youngs Moduli (GPa) = 138.95683 148.38848 35.34495
#
# Poissons Ratio (x) = 0.17844 0.02828
# Poissons Ratio (y) = 0.16710 0.10013
# Poissons Ratio (z) = 0.11120 0.42036
#
# Static dielectric constant tensor:
#      x y z
#    x 2.005280 0.000160 -0.011370 
#    y 0.000160 2.430410 -0.000180 
#    z -0.011370 -0.000180 2.167730 
# 
# From -- ./inp_files/250781.got.cif
#   From: 2010.05.17/outbox.cif.g08.bks.cpg/sg15_126_cif.got.tgz:250781.got - 2010.06.03 18:47:42.
