data_PCOD9270148
_publ_section_title
;
Structure prediction by ZEFSAII (Michael W. Deem and Ramdas Pophale) SiO2 
 PCOD9270148
Probable space group: C 2/C
;
_chemical_formula_sum "Si O2"
_cell_formula_units_Z 56
_cell_length_a 13.829612
_cell_length_b 21.619028
_cell_length_c 14.372370
_cell_angle_alpha 90.000000
_cell_angle_beta 39.773377
_cell_angle_gamma 90.000000
_cell_volume 2749.075301
_symmetry_space_group_name_H-M "C 2/C"
_symmetry_group_IT_number 15
_symmetry_cell_setting 'monoclinic'
loop_
_space_group_symop_operation_xyz
x,y,z
-x,y,1/2-z
-x,-y,-z
x,-y,1/2+z
1/2+x,1/2+y,z
1/2-x,1/2+y,1/2-z
1/2-x,1/2-y,-z
1/2+x,1/2-y,1/2+z
loop_
_atom_site_type_symbol
_atom_site_label
_atom_site_fract_x
_atom_site_fract_y
_atom_site_fract_z
Si Si1 0.806212 0.504116 0.486992
Si Si2 0.831052 0.184211 0.339490
Si Si3 0.228757 0.329054 0.113084
Si Si4 0.113602 0.004324 0.294917
Si Si5 0.566504 0.367096 0.917567
Si Si6 0.893911 0.107825 0.907075
Si Si7 0.366564 0.952904 0.240072
O O1 0.685355 0.472462 0.644723
O O2 0.759717 0.577032 0.519016
O O3 0.803485 0.481191 0.383158
O O4 0.973050 0.485129 0.396482
O O5 0.817720 0.258272 0.340158
O O6 0.727918 0.161650 0.501471
O O7 0.817830 0.157816 0.245789
O O8 0.000000 0.169333 0.250000
O O9 0.130544 0.379824 0.240104
O O10 0.400923 0.338277 0.022450
O O11 0.250187 0.969953 0.246065
O O12 0.990369 0.953418 0.362284
O O13 0.054775 0.060417 0.400063
O O14 0.619476 0.358122 0.984469
O O15 0.000000 0.139119 0.750000
#
# Coordination Sequence:
#
# PCOD9270148 Si02
#       7
#     8   8   8   8   8   8   8
#     4  10  22  32  49  83 120 148 178 221 286 330
#     4   9  21  36  56  82 115 146 189 233 274 337
#     4  10  20  36  55  83 112 150 187 225 280 329
#     4  11  20  35  55  83 112 149 189 227 275 346
#     4  11  19  36  59  78 109 150 191 230 272 339
#     4  10  20  35  56  82 111 145 189 232 274 336
#     4  11  20  34  55  81 120 149 181 228 277 349
#
# _framework density 20.370486
#
# number of rings (size 3 to 8) (size 9 to 14) (size 15 to 20)
#    0.000    1.714    2.857    2.571    2.000    4.000 
#    2.571    0.000    0.000    0.857    0.000    0.000 
#    0.000    0.000    0.000    0.000    0.000    0.000 
#
# Total GULP energy -156292.859867 kJ/mol
# GULP energy per Si atom -5581.887852 kJ/mol
# Density = 2.032412 g / cm^3
# Si number density = 20.370486 Si / 1000 Ang^3
#
#
#
# Elastic Constant Matrix: (Units=GPa)
#
#
# Indices 1 2 3 4 5 6 
#
# 1 70.1651 12.1637 21.3772 0.0016 1.1662 -0.0006
# 2 12.1637 38.3364 12.5308 0.0003 5.9444 -0.0002
# 3 21.3772 12.5308 74.2229 0.0014 12.8374 -0.0014
# 4 0.0016 0.0003 0.0014 27.6032 0.0003 1.9748
# 5 1.1662 5.9444 12.8374 0.0003 40.7304 0.0005
# 6 -0.0006 -0.0002 -0.0014 1.9748 0.0005 23.0534
#
#
#
# Elastic Compliance Matrix: (Units=1/GPa)
#
#
# Indices 1 2 3 4 5 6 
#
# 1 0.016213 -0.003981 -0.004249 -0.000001 0.001456 0.000000
# 2 -0.003981 0.028871 -0.003193 0.000000 -0.003093 0.000000
# 3 -0.004249 -0.003193 0.016007 -0.000001 -0.004457 0.000001
# 4 -0.000001 0.000000 -0.000001 0.036451 0.000000 -0.003123
# 5 0.001456 -0.003093 -0.004457 0.000000 0.026366 -0.000001
# 6 0.000000 0.000000 0.000001 -0.003123 -0.000001 0.043645
#
#
# Mechanical properties :
#
#
# Convention : Reuss Voigt Hill
#
# Bulk Modulus (GPa) = 26.14725 30.54087 28.34406
# Shear Modulus (GPa) = 24.61275 27.38760 26.00017
#
# Velocity S-wave (km/s) = 3.47977 3.67069 3.57650
# Velocity P-wave (km/s) = 5.38598 5.74374 5.56773
#
# Compressibility (1/GPa) = 0.03824494
#
# Stress axis : x y z
#
# Youngs Moduli (GPa) = 61.68034 34.63662 62.47390
#
# Poissons Ratio (x) = 0.13789 0.26546
# Poissons Ratio (y) = 0.24555 0.19946
# Poissons Ratio (z) = 0.26209 0.11058
#
# Static dielectric constant tensor:
#      x y z
#    x 1.753680 0.000000 0.000250 
#    y 0.000000 1.742780 0.000000 
#    z 0.000250 0.000000 1.806100 
# 
# From -- ./inp_files/156177.got.cif
#   From: 2010.05.17/outbox.cif.g08.bks.cpg/sg15_79_cif.got.tgz:156177.got - 2010.06.03 18:47:42.
