data_PCOD9270624
_publ_section_title
;
Structure prediction by ZEFSAII (Michael W. Deem and Ramdas Pophale) SiO2 
 PCOD9270624
Probable space group: C 2/C
;
_chemical_formula_sum "Si O2"
_cell_formula_units_Z 52
_cell_length_a 16.899220
_cell_length_b 10.125342
_cell_length_c 26.248837
_cell_angle_alpha 90.000000
_cell_angle_beta 147.017409
_cell_angle_gamma 90.000000
_cell_volume 2445.073544
_symmetry_space_group_name_H-M "C 2/C"
_symmetry_group_IT_number 15
_symmetry_cell_setting 'monoclinic'
loop_
_space_group_symop_operation_xyz
x,y,z
-x,y,1/2-z
-x,-y,-z
x,-y,1/2+z
1/2+x,1/2+y,z
1/2-x,1/2+y,1/2-z
1/2-x,1/2-y,-z
1/2+x,1/2-y,1/2+z
loop_
_atom_site_type_symbol
_atom_site_label
_atom_site_fract_x
_atom_site_fract_y
_atom_site_fract_z
Si Si1 0.636510 0.835524 0.905631
Si Si2 0.851324 0.228461 0.005633
Si Si3 0.494626 0.012779 0.073999
Si Si4 0.500000 0.349556 0.250000
Si Si5 0.306541 0.119855 0.882482
Si Si6 0.825865 0.450781 0.157530
Si Si7 0.103379 0.081846 0.095942
O O1 0.537252 0.740615 0.818506
O O2 0.708846 0.935937 0.904107
O O3 0.750000 0.750000 0.000000
O O4 0.538412 0.917780 0.891322
O O5 0.917257 0.371119 0.031169
O O6 0.748193 0.180023 0.904299
O O7 0.750000 0.250000 0.000000
O O8 0.988051 0.123756 0.078357
O O9 0.421193 0.097237 0.989711
O O10 0.655896 0.975318 0.144254
O O11 0.350502 0.419461 0.181652
O O12 0.329157 0.273892 0.881550
O O13 0.748913 0.491427 0.169115
O O14 0.000000 0.442074 0.250000
O O15 0.000000 0.000000 0.000000
#
# Coordination Sequence:
#
# PCOD9270624 Si02
#       7
#     8   8   8   4   8   8   8
#     4  12  21  36  66  95 124 171 216 271 330 391
#     4  10  20  35  61  87 118 164 205 252 319 389
#     4  10  21  39  66  88 129 166 216 265 337 391
#     4  12  22  38  70  98 130 164 236 272 326 398
#     4  10  20  39  65  92 121 170 208 276 328 386
#     4  11  20  37  62  89 124 164 210 267 318 388
#     4   9  18  33  59  88 118 157 206 248 313 389
#
# _framework density 21.267254000000001
#
# number of rings (size 3 to 8) (size 9 to 14) (size 15 to 20)
#    0.000    1.538    5.385    0.000    0.000    0.000 
#    1.385    0.000   47.385    0.000    0.000    0.000 
#    0.000    0.000    0.000    0.000    0.000    0.000 
#
# Total GULP energy -144796.198394 kJ/mol
# GULP energy per Si atom -5569.084554 kJ/mol
# Density = 2.121885 g / cm^3
# Si number density = 21.267254 Si / 1000 Ang^3
#
#
#
# Elastic Constant Matrix: (Units=GPa)
#
#
# Indices 1 2 3 4 5 6 
#
# 1 161.3280 37.2690 28.2722 0.0000 32.5275 0.0000
# 2 37.2690 42.2138 18.4256 0.0000 7.3684 0.0000
# 3 28.2722 18.4256 72.0516 0.0001 16.6501 0.0000
# 4 0.0000 0.0000 0.0001 5.7188 0.0000 2.0216
# 5 32.5275 7.3684 16.6501 0.0000 43.4010 0.0000
# 6 0.0000 0.0000 0.0000 2.0216 0.0000 42.9677
#
#
#
# Elastic Compliance Matrix: (Units=1/GPa)
#
#
# Indices 1 2 3 4 5 6 
#
# 1 0.008919 -0.006702 -0.000553 0.000000 -0.005335 0.000000
# 2 -0.006702 0.031876 -0.005960 0.000000 0.001898 0.000000
# 3 -0.000553 -0.005960 0.016778 0.000000 -0.005010 0.000000
# 4 0.000000 0.000000 0.000000 0.177821 0.000000 -0.008367
# 5 -0.005335 0.001898 -0.005010 0.000000 0.028639 0.000000
# 6 0.000000 0.000000 0.000000 -0.008367 0.000000 0.023667
#
#
# Mechanical properties :
#
#
# Convention : Reuss Voigt Hill
#
# Bulk Modulus (GPa) = 32.11048 49.28077 40.69562
# Shear Modulus (GPa) = 15.40775 31.19260 23.30018
#
# Velocity S-wave (km/s) = 2.69454 3.83390 3.31356
# Velocity P-wave (km/s) = 4.98117 6.54376 5.81519
#
# Compressibility (1/GPa) = 0.03114248
#
# Stress axis : x y z
#
# Youngs Moduli (GPa) = 112.11604 31.37137 59.60178
#
# Poissons Ratio (x) = 0.21025 0.03297
# Poissons Ratio (y) = 0.75139 0.35525
# Poissons Ratio (z) = 0.06202 0.18699
#
# Static dielectric constant tensor:
#      x y z
#    x 1.890670 0.000000 0.037810 
#    y 0.000000 1.798250 0.000000 
#    z 0.037810 0.000000 1.795670 
# 
# From -- ./inp_files/298888.got.cif
#   From: 2010.05.17/outbox.cif.g08.bks.cpg/sg15_150_cif.got.tgz:298888.got - 2010.06.03 18:47:42.
