data_PCOD9270228
_publ_section_title
;
Structure prediction by ZEFSAII (Michael W. Deem and Ramdas Pophale) SiO2 
 PCOD9270228
Probable space group: C 2/C
;
_chemical_formula_sum "Si O2"
_cell_formula_units_Z 48
_cell_length_a 19.476885
_cell_length_b 9.163753
_cell_length_c 14.168340
_cell_angle_alpha 90.000000
_cell_angle_beta 71.525728
_cell_angle_gamma 90.000000
_cell_volume 2398.466357
_symmetry_space_group_name_H-M "C 2/C"
_symmetry_group_IT_number 15
_symmetry_cell_setting 'monoclinic'
loop_
_space_group_symop_operation_xyz
x,y,z
-x,y,1/2-z
-x,-y,-z
x,-y,1/2+z
1/2+x,1/2+y,z
1/2-x,1/2+y,1/2-z
1/2-x,1/2-y,-z
1/2+x,1/2-y,1/2+z
loop_
_atom_site_type_symbol
_atom_site_label
_atom_site_fract_x
_atom_site_fract_y
_atom_site_fract_z
Si Si1 0.912921 0.900913 0.690282
Si Si2 0.428207 0.686091 0.400797
Si Si3 0.179072 0.823122 0.298024
Si Si4 0.303400 0.763988 0.102353
Si Si5 0.347932 0.919834 0.540300
Si Si6 0.785233 0.963794 0.032833
O O1 0.916435 0.837102 0.794501
O O2 0.852063 0.815890 0.659663
O O3 0.991770 0.871015 0.612350
O O4 0.887893 0.069936 0.696985
O O5 0.410719 0.847003 0.449273
O O6 0.365582 0.591021 0.476028
O O7 0.228049 0.805206 0.185015
O O8 0.157042 0.672357 0.360028
O O9 0.228428 0.905188 0.355571
O O10 0.287753 0.637903 0.033268
O O11 0.348070 0.907166 0.053898
O O12 0.272780 0.901989 0.514887
#
# Coordination Sequence:
#
# PCOD9270228 Si02
#       6
#     8   8   8   8   8   8
#     4  10  22  39  58  78 108 150 191 230 279 338
#     4  10  21  39  58  78 110 151 190 230 279 334
#     4  10  20  35  57  81 108 144 188 229 270 329
#     4  11  21  34  56  86 115 143 182 232 280 333
#     4  11  21  34  57  85 114 145 182 232 278 328
#     4  10  20  35  58  84 114 147 184 226 273 333
#
# _framework density 20.012788
#
# number of rings (size 3 to 8) (size 9 to 14) (size 15 to 20)
#    0.000    1.667    0.000    7.500    0.000    6.667 
#    0.000    0.000    0.000    4.000    0.000    0.000 
#    0.000    0.000    0.000    0.000    0.000    0.000 
#
# Total GULP energy -133927.012918 kJ/mol
# GULP energy per Si atom -5580.292205 kJ/mol
# Density = 1.996724 g / cm^3
# Si number density = 20.012788 Si / 1000 Ang^3
#
#
#
# Elastic Constant Matrix: (Units=GPa)
#
#
# Indices 1 2 3 4 5 6 
#
# 1 70.6786 11.8513 14.6727 0.0000 -23.9062 0.0000
# 2 11.8513 108.8629 17.9311 0.0000 -11.4874 0.0000
# 3 14.6727 17.9311 68.5288 0.0000 -14.2073 0.0000
# 4 0.0000 0.0000 0.0000 20.1528 0.0000 2.5437
# 5 -23.9062 -11.4874 -14.2073 0.0000 28.6963 0.0000
# 6 0.0000 0.0000 0.0000 2.5437 0.0000 16.0305
#
#
#
# Elastic Compliance Matrix: (Units=1/GPa)
#
#
# Indices 1 2 3 4 5 6 
#
# 1 0.019762 -0.000333 -0.000845 0.000000 0.015911 0.000000
# 2 -0.000333 0.009826 -0.001941 0.000000 0.002695 0.000000
# 3 -0.000845 -0.001941 0.016687 0.000000 0.006780 0.000000
# 4 0.000000 0.000000 0.000000 0.050635 0.000000 -0.008035
# 5 0.015911 0.002695 0.006780 0.000000 0.052538 0.000000
# 6 0.000000 0.000000 0.000000 -0.008035 0.000000 0.063656
#
#
# Mechanical properties :
#
#
# Convention : Reuss Voigt Hill
#
# Bulk Modulus (GPa) = 24.97766 37.44229 31.20998
# Shear Modulus (GPa) = 21.48791 26.55026 24.01909
#
# Velocity S-wave (km/s) = 3.28031 3.64629 3.46813
# Velocity P-wave (km/s) = 5.18220 6.03962 5.62726
#
# Compressibility (1/GPa) = 0.04003577
#
# Stress axis : x y z
#
# Youngs Moduli (GPa) = 50.60310 101.76839 59.92699
#
# Poissons Ratio (x) = 0.03390 0.05066
# Poissons Ratio (y) = 0.01686 0.11632
# Poissons Ratio (z) = 0.04278 0.19754
#
# Static dielectric constant tensor:
#      x y z
#    x 1.683530 0.000000 0.028540 
#    y 0.000000 1.767090 0.000000 
#    z 0.028540 0.000000 1.785600 
# 
# From -- ./inp_files/166126.got.cif
#   From: 2010.05.17/outbox.cif.g08.bks.cpg/sg15_84_cif.got.tgz:166126.got - 2010.06.03 18:47:42.
