data_PCOD9270671
_publ_section_title
;
Structure prediction by ZEFSAII (Michael W. Deem and Ramdas Pophale) SiO2 
 PCOD9270671
Probable space group: C 2/C
;
_chemical_formula_sum "Si O2"
_cell_formula_units_Z 40
_cell_length_a 16.590593
_cell_length_b 18.622567
_cell_length_c 10.809808
_cell_angle_alpha 90.000000
_cell_angle_beta 148.297894
_cell_angle_gamma 90.000000
_cell_volume 1755.070521
_symmetry_space_group_name_H-M "C 2/C"
_symmetry_group_IT_number 15
_symmetry_cell_setting 'monoclinic'
loop_
_space_group_symop_operation_xyz
x,y,z
-x,y,1/2-z
-x,-y,-z
x,-y,1/2+z
1/2+x,1/2+y,z
1/2-x,1/2+y,1/2-z
1/2-x,1/2-y,-z
1/2+x,1/2-y,1/2+z
loop_
_atom_site_type_symbol
_atom_site_label
_atom_site_fract_x
_atom_site_fract_y
_atom_site_fract_z
Si Si1 0.702529 0.721596 0.244866
Si Si2 0.177517 0.994302 0.584516
Si Si3 0.370306 0.278345 0.254528
Si Si4 0.325166 0.442481 0.170287
Si Si5 0.326123 0.350465 0.549538
O O1 0.845652 0.728771 0.342136
O O2 0.697411 0.656091 0.333940
O O3 0.711586 0.794087 0.337831
O O4 0.550163 0.721236 0.963108
O O5 0.242740 0.944801 0.558263
O O6 0.002737 0.967762 0.382443
O O7 0.243401 0.008963 0.808087
O O8 0.181995 0.071333 0.520543
O O9 0.327565 0.361312 0.222410
O O10 0.250000 0.250000 0.000000
O O11 0.500000 0.325145 0.750000
#
# Coordination Sequence:
#
# PCOD9270671 Si02
#       5
#     8   8   8   8   8
#     4  11  24  39  65  94 136 172 220 269 340 393
#     4  10  20  35  61  95 126 163 226 282 314 381
#     4  12  26  42  62 100 137 175 217 274 340 401
#     4  10  21  36  62  95 128 166 224 280 321 380
#     4  11  19  40  66  96 129 163 221 286 324 380
#
# _framework density 22.791107
#
# number of rings (size 3 to 8) (size 9 to 14) (size 15 to 20)
#    0.000    1.200    6.000    0.600    8.400    0.000 
#    0.000    0.000    0.000    1.200    5.200    0.000 
#    0.000    0.000    0.000    0.000    0.000    0.000 
#
# Total GULP energy -111520.298168 kJ/mol
# GULP energy per Si atom -5576.014908 kJ/mol
# Density = 2.273923 g / cm^3
# Si number density = 22.791107 Si / 1000 Ang^3
#
#
#
# Elastic Constant Matrix: (Units=GPa)
#
#
# Indices 1 2 3 4 5 6 
#
# 1 129.0667 18.1607 0.1377 0.0000 -25.0510 0.0000
# 2 18.1607 91.1925 14.1574 0.0000 1.1101 0.0000
# 3 0.1377 14.1574 46.7526 0.0000 -8.9237 0.0000
# 4 0.0000 0.0000 0.0000 20.0533 0.0000 -2.4445
# 5 -25.0510 1.1101 -8.9237 0.0000 23.7871 0.0000
# 6 0.0000 0.0000 0.0000 -2.4445 0.0000 27.4290
#
#
#
# Elastic Compliance Matrix: (Units=1/GPa)
#
#
# Indices 1 2 3 4 5 6 
#
# 1 0.010541 -0.002742 0.003170 0.000000 0.012418 0.000000
# 2 -0.002742 0.012308 -0.004718 0.000000 -0.005232 0.000000
# 3 0.003170 -0.004718 0.025299 0.000000 0.013049 0.000000
# 4 0.000000 0.000000 0.000000 0.050415 0.000000 0.004493
# 5 0.012418 -0.005232 0.013049 0.000000 0.060257 0.000000
# 6 0.000000 0.000000 0.000000 0.004493 0.000000 0.036858
#
#
# Mechanical properties :
#
#
# Convention : Reuss Voigt Hill
#
# Bulk Modulus (GPa) = 25.27369 36.88038 31.07703
# Shear Modulus (GPa) = 22.99408 29.89095 26.44251
#
# Velocity S-wave (km/s) = 3.17977 3.62542 3.40988
# Velocity P-wave (km/s) = 4.95930 5.80878 5.40077
#
# Compressibility (1/GPa) = 0.03956684
#
# Stress axis : x y z
#
# Youngs Moduli (GPa) = 94.87108 81.24775 39.52711
#
# Poissons Ratio (x) = 0.22281 -0.12528
# Poissons Ratio (y) = 0.26017 0.18648
# Poissons Ratio (z) = -0.30070 0.38330
#
# Static dielectric constant tensor:
#      x y z
#    x 1.927560 0.000000 -0.011110 
#    y 0.000000 1.849720 0.000000 
#    z -0.011110 0.000000 2.089520 
# 
# From -- ./inp_files/106884.got.cif
#   From: 2010.05.17/outbox.cif.g08.bks.cpg/sg15_54_cif.got.tgz:106884.got - 2010.06.03 18:47:42.
