data_PCOD9270893
_publ_section_title
;
Structure prediction by ZEFSAII (Michael W. Deem and Ramdas Pophale) SiO2 
 PCOD9270893
Probable space group: C 2/C
;
_chemical_formula_sum "Si O2"
_cell_formula_units_Z 60
_cell_length_a 8.172675
_cell_length_b 25.640535
_cell_length_c 21.432272
_cell_angle_alpha 90.000000
_cell_angle_beta 43.423690
_cell_angle_gamma 90.000000
_cell_volume 3087.175980
_symmetry_space_group_name_H-M "C 2/C"
_symmetry_group_IT_number 15
_symmetry_cell_setting 'monoclinic'
loop_
_space_group_symop_operation_xyz
x,y,z
-x,y,1/2-z
-x,-y,-z
x,-y,1/2+z
1/2+x,1/2+y,z
1/2-x,1/2+y,1/2-z
1/2-x,1/2-y,-z
1/2+x,1/2-y,1/2+z
loop_
_atom_site_type_symbol
_atom_site_label
_atom_site_fract_x
_atom_site_fract_y
_atom_site_fract_z
Si Si1 0.383294 0.827785 0.416725
Si Si2 0.142067 0.187964 0.457418
Si Si3 0.213529 0.585465 0.143823
Si Si4 0.583648 0.046554 0.041794
Si Si5 0.500000 0.871692 0.250000
Si Si6 0.526589 0.618900 0.611315
Si Si7 0.656198 0.717051 0.650416
Si Si8 0.753378 0.567361 0.028882
O O1 0.469402 0.838956 0.322129
O O2 0.584790 0.796448 0.395774
O O3 0.338974 0.882327 0.465847
O O4 0.130096 0.799413 0.484337
O O5 0.243730 0.147221 0.378726
O O6 0.108103 0.153917 0.529306
O O7 0.307258 0.238729 0.411976
O O8 0.137221 0.563730 0.097305
O O9 0.469686 0.563638 0.095847
O O10 0.000000 0.575259 0.250000
O O11 0.341850 0.068066 0.076627
O O12 0.790261 0.071578 0.940552
O O13 0.614271 0.984526 0.031797
O O14 0.754549 0.900417 0.182710
O O15 0.546909 0.661846 0.659568
O O16 0.500000 0.738612 0.750000
#
# Coordination Sequence:
#
# PCOD9270893 Si02
#       8
#     8   8   8   8   4   8   8   8
#     4  10  20  37  57  81 115 149 192 234 294 340
#     4   9  21  36  57  77 113 155 186 231 282 352
#     4  10  21  39  59  86 117 153 194 243 296 338
#     4  10  21  40  62  84 116 157 198 238 291 357
#     4  10  20  36  54  86 118 148 182 254 288 340
#     4  10  20  37  57  81 115 149 192 234 294 340
#     4  12  20  33  57  86 112 143 191 237 285 338
#     4  10  21  40  62  84 116 157 198 238 291 357
#
# _framework density 19.435238999999999
#
# number of rings (size 3 to 8) (size 9 to 14) (size 15 to 20)
#    0.000    1.867    2.667    2.400    0.000    0.533 
#    4.800    0.000    0.000    0.000    0.000    0.000 
#    0.000    0.000    0.000    0.000    0.000    0.000 
#
# Total GULP energy -167147.839091 kJ/mol
# GULP energy per Si atom -5571.594636 kJ/mol
# Density = 1.939100 g / cm^3
# Si number density = 19.435239 Si / 1000 Ang^3
#
#
#
# Elastic Constant Matrix: (Units=GPa)
#
#
# Indices 1 2 3 4 5 6 
#
# 1 103.1374 7.4074 37.5635 0.0000 -2.5295 0.0000
# 2 7.4074 43.8943 27.3707 0.0000 -3.4242 0.0000
# 3 37.5635 27.3707 99.2968 0.0000 -0.2024 0.0000
# 4 0.0000 0.0000 0.0000 11.4010 0.0000 -1.6438
# 5 -2.5295 -3.4242 -0.2024 0.0000 15.9368 0.0000
# 6 0.0000 0.0000 0.0000 -1.6438 0.0000 14.8859
#
#
#
# Elastic Compliance Matrix: (Units=1/GPa)
#
#
# Indices 1 2 3 4 5 6 
#
# 1 0.011336 0.001102 -0.004588 0.000000 0.001978 0.000000
# 2 0.001102 0.028167 -0.008169 0.000000 0.006123 0.000000
# 3 -0.004588 -0.008169 0.014054 0.000000 -0.002305 0.000000
# 4 0.000000 0.000000 0.000000 0.089131 0.000000 0.009842
# 5 0.001978 0.006123 -0.002305 0.000000 0.064348 0.000000
# 6 0.000000 0.000000 0.000000 0.009842 0.000000 0.068265
#
#
# Mechanical properties :
#
#
# Convention : Reuss Voigt Hill
#
# Bulk Modulus (GPa) = 33.06035 43.44576 38.25305
# Shear Modulus (GPa) = 16.19735 20.04386 18.12060
#
# Velocity S-wave (km/s) = 2.89000 3.21489 3.05677
# Velocity P-wave (km/s) = 5.30882 6.01526 5.67305
#
# Compressibility (1/GPa) = 0.03024771
#
# Stress axis : x y z
#
# Youngs Moduli (GPa) = 88.21285 35.50209 71.15664
#
# Poissons Ratio (x) = -0.03913 0.32648
# Poissons Ratio (y) = -0.09724 0.58126
# Poissons Ratio (z) = 0.40474 0.29001
#
# Static dielectric constant tensor:
#      x y z
#    x 1.738280 0.000000 0.022410 
#    y 0.000000 1.675480 0.000000 
#    z 0.022410 0.000000 1.675410 
# 
# From -- ./inp_files/234762.got.cif
#   From: 2010.05.17/outbox.cif.g08.bks.cpg/sg15_118_cif.got.tgz:234762.got - 2010.06.03 18:47:42.
