data_PCOD9270839
_publ_section_title
;
Structure prediction by ZEFSAII (Michael W. Deem and Ramdas Pophale) SiO2 
 PCOD9270839
Probable space group: C 2/C
;
_chemical_formula_sum "Si O2"
_cell_formula_units_Z 56
_cell_length_a 14.062355
_cell_length_b 11.748740
_cell_length_c 27.694691
_cell_angle_alpha 90.000000
_cell_angle_beta 29.776877
_cell_angle_gamma 90.000000
_cell_volume 2272.340076
_symmetry_space_group_name_H-M "C 2/C"
_symmetry_group_IT_number 15
_symmetry_cell_setting 'monoclinic'
loop_
_space_group_symop_operation_xyz
x,y,z
-x,y,1/2-z
-x,-y,-z
x,-y,1/2+z
1/2+x,1/2+y,z
1/2-x,1/2+y,1/2-z
1/2-x,1/2-y,-z
1/2+x,1/2-y,1/2+z
loop_
_atom_site_type_symbol
_atom_site_label
_atom_site_fract_x
_atom_site_fract_y
_atom_site_fract_z
Si Si1 0.871378 0.915269 0.137773
Si Si2 0.494344 0.935321 0.373817
Si Si3 0.198058 0.641398 0.186174
Si Si4 0.862438 0.365934 0.086391
Si Si5 0.673351 0.821213 0.138042
Si Si6 0.232077 0.396287 0.865368
Si Si7 0.438834 0.192515 0.149770
O O1 0.690861 0.918522 0.255733
O O2 0.846330 0.860830 0.095380
O O3 0.006550 0.818494 0.103211
O O4 0.860534 0.048696 0.127752
O O5 0.523896 0.878217 0.412712
O O6 0.339227 0.876474 0.408117
O O7 0.451328 0.070393 0.397874
O O8 0.271227 0.743533 0.121091
O O9 0.138339 0.700703 0.262365
O O10 0.000000 0.593790 0.250000
O O11 0.718527 0.472393 0.153138
O O12 0.008639 0.388143 0.978739
O O13 0.500000 0.854603 0.250000
O O14 0.667505 0.684867 0.140683
O O15 0.233520 0.340996 0.811729
#
# Coordination Sequence:
#
# PCOD9270839 Si02
#       7
#     8   8   8   8   8   8   8
#     4   9  16  31  52  80 106 139 184 226 279 324
#     4   9  16  29  53  79 107 141 185 227 275 329
#     4  11  21  34  56  84 112 141 189 239 277 332
#     4  10  20  36  52  79 112 152 184 230 287 338
#     4   9  17  31  54  82 108 142 188 233 272 335
#     4   9  20  36  56  77 113 150 186 225 287 342
#     4   9  17  33  55  79 104 145 185 227 274 331
#
# _framework density 24.644197999999999
#
# number of rings (size 3 to 8) (size 9 to 14) (size 15 to 20)
#    0.000    2.571    1.429    2.143    0.000    1.143 
#    0.000    5.000    0.000    0.000    0.000    0.000 
#    0.000    0.000    0.000    0.000    0.000    0.000 
#
# Total GULP energy -155869.481046 kJ/mol
# GULP energy per Si atom -5566.767180 kJ/mol
# Density = 2.458811 g / cm^3
# Si number density = 24.644198 Si / 1000 Ang^3
#
#
#
# Elastic Constant Matrix: (Units=GPa)
#
#
# Indices 1 2 3 4 5 6 
#
# 1 82.5183 43.4889 27.7351 -0.0004 19.8616 0.0000
# 2 43.4889 182.3968 -4.0818 -0.0001 -7.5843 0.0001
# 3 27.7351 -4.0818 42.9869 -0.0049 6.3288 0.0013
# 4 -0.0004 -0.0001 -0.0049 6.7233 0.0003 12.8061
# 5 19.8616 -7.5843 6.3288 0.0003 16.2988 -0.0001
# 6 0.0000 0.0001 0.0013 12.8061 -0.0001 40.9436
#
#
#
# Elastic Compliance Matrix: (Units=1/GPa)
#
#
# Indices 1 2 3 4 5 6 
#
# 1 0.030729 -0.009157 -0.015438 -0.000021 -0.035713 0.000007
# 2 -0.009157 0.008321 0.004757 0.000007 0.013183 -0.000002
# 3 -0.015438 0.004757 0.032434 0.000060 0.008433 -0.000020
# 4 -0.000021 0.000007 0.000060 0.367935 -0.000003 -0.115081
# 5 -0.035713 0.013183 0.008433 -0.000003 0.107734 0.000001
# 6 0.000007 -0.000002 -0.000020 -0.115081 0.000001 0.060418
#
#
# Mechanical properties :
#
#
# Convention : Reuss Voigt Hill
#
# Bulk Modulus (GPa) = 31.43904 49.13183 40.28544
# Shear Modulus (GPa) = 7.60052 28.84380 18.22216
#
# Velocity S-wave (km/s) = 1.75807 3.42484 2.72216
# Velocity P-wave (km/s) = 4.11168 5.96817 5.12470
#
# Compressibility (1/GPa) = 0.03180759
#
# Stress axis : x y z
#
# Youngs Moduli (GPa) = 32.54218 120.18421 30.83198
#
# Poissons Ratio (x) = 1.10056 0.47599
# Poissons Ratio (y) = 0.29800 -0.14668
# Poissons Ratio (z) = 0.50239 -0.57176
#
# Static dielectric constant tensor:
#      x y z
#    x 1.996380 0.000000 -0.109660 
#    y 0.000000 2.061530 0.000000 
#    z -0.109660 0.000000 2.017000 
# 
# From -- ./inp_files/313413.got.cif
#   From: 2010.05.17/outbox.cif.g08.bks.cpg/sg15_157_cif.got.tgz:313413.got - 2010.06.03 18:47:42.
