data_PCOD9270283
_publ_section_title
;
Structure prediction by ZEFSAII (Michael W. Deem and Ramdas Pophale) SiO2 
 PCOD9270283
Probable space group: C 2/C
;
_chemical_formula_sum "Si O2"
_cell_formula_units_Z 52
_cell_length_a 5.929067
_cell_length_b 23.174442
_cell_length_c 19.357384
_cell_angle_alpha 90.000000
_cell_angle_beta 114.119551
_cell_angle_gamma 90.000000
_cell_volume 2427.548305
_symmetry_space_group_name_H-M "C 2/C"
_symmetry_group_IT_number 15
_symmetry_cell_setting 'monoclinic'
loop_
_space_group_symop_operation_xyz
x,y,z
-x,y,1/2-z
-x,-y,-z
x,-y,1/2+z
1/2+x,1/2+y,z
1/2-x,1/2+y,1/2-z
1/2-x,1/2-y,-z
1/2+x,1/2-y,1/2+z
loop_
_atom_site_type_symbol
_atom_site_label
_atom_site_fract_x
_atom_site_fract_y
_atom_site_fract_z
Si Si1 0.018842 0.073673 0.945287
Si Si2 0.911866 0.280712 0.939046
Si Si3 0.291902 0.315786 0.095544
Si Si4 0.537976 0.107297 0.398839
Si Si5 0.500000 0.133792 0.250000
Si Si6 0.260306 0.959138 0.969193
Si Si7 0.890596 0.764608 0.811201
O O1 0.096195 0.119649 0.896481
O O2 0.051542 0.006929 0.928512
O O3 0.220053 0.087963 0.030531
O O4 0.772356 0.072842 0.961252
O O5 0.029574 0.323627 0.897556
O O6 0.621640 0.279993 0.890023
O O7 0.024436 0.219287 0.932872
O O8 0.026192 0.306796 0.023656
O O9 0.262424 0.284539 0.165814
O O10 0.521735 0.092237 0.318134
O O11 0.306338 0.085672 0.414311
O O12 0.267250 0.177762 0.222837
O O13 0.500000 0.000000 0.000000
O O14 0.000000 0.745166 0.750000
#
# Coordination Sequence:
#
# PCOD9270283 Si02
#       7
#     8   8   8   8   4   8   8
#     4   9  20  37  61  85 118 150 196 260 300 360
#     4  10  21  35  57  87 119 157 194 250 300 368
#     4  10  21  37  56  90 122 154 204 247 305 371
#     4  10  20  35  57  86 121 155 194 242 305 368
#     4  12  24  38  52  90 128 160 200 242 306 386
#     4   9  19  37  59  87 111 145 193 246 307 353
#     4  12  22  37  56  84 124 166 198 241 300 368
#
# _framework density 21.420788999999999
#
# number of rings (size 3 to 8) (size 9 to 14) (size 15 to 20)
#    0.000    1.846    3.077    0.462    2.154    3.692 
#    0.000    0.000    1.692    0.000    8.000    0.000 
#    0.000    0.000    0.000    0.000    0.000    0.000 
#
# Total GULP energy -144821.634500 kJ/mol
# GULP energy per Si atom -5570.062865 kJ/mol
# Density = 2.137203 g / cm^3
# Si number density = 21.420789 Si / 1000 Ang^3
#
#
#
# Elastic Constant Matrix: (Units=GPa)
#
#
# Indices 1 2 3 4 5 6 
#
# 1 76.9415 18.5333 22.5270 0.0000 -7.8699 0.0000
# 2 18.5333 71.6168 0.5225 0.0000 -5.8863 0.0000
# 3 22.5270 0.5225 51.2135 0.0000 -11.4022 0.0000
# 4 0.0000 0.0000 0.0000 18.0634 0.0000 -10.6863
# 5 -7.8699 -5.8863 -11.4022 0.0000 42.9340 0.0000
# 6 0.0000 0.0000 0.0000 -10.6863 0.0000 36.3388
#
#
#
# Elastic Compliance Matrix: (Units=1/GPa)
#
#
# Indices 1 2 3 4 5 6 
#
# 1 0.016050 -0.004058 -0.006895 0.000000 0.000555 0.000000
# 2 -0.004058 0.015153 0.002048 0.000000 0.001878 0.000000
# 3 -0.006895 0.002048 0.023722 0.000000 0.005317 0.000000
# 4 0.000000 0.000000 0.000000 0.067020 0.000000 0.019709
# 5 0.000555 0.001878 0.005317 0.000000 0.025063 0.000000
# 6 0.000000 0.000000 0.000000 0.019709 0.000000 0.033315
#
#
# Mechanical properties :
#
#
# Convention : Reuss Voigt Hill
#
# Bulk Modulus (GPa) = 26.94274 31.43749 29.19012
# Shear Modulus (GPa) = 23.75278 30.01317 26.88298
#
# Velocity S-wave (km/s) = 3.33358 3.74722 3.54643
# Velocity P-wave (km/s) = 5.23661 5.78189 5.51599
#
# Compressibility (1/GPa) = 0.03711575
#
# Stress axis : x y z
#
# Youngs Moduli (GPa) = 62.30673 65.99528 42.15537
#
# Poissons Ratio (x) = 0.26778 0.29065
# Poissons Ratio (y) = 0.25281 -0.08634
# Poissons Ratio (z) = 0.42959 -0.13517
#
# Static dielectric constant tensor:
#      x y z
#    x 1.930980 0.000000 -0.014980 
#    y 0.000000 1.805030 0.000000 
#    z -0.014980 0.000000 1.834600 
# 
# From -- ./inp_files/227970.got.cif
#   From: 2010.05.17/outbox.cif.g08.bks.cpg/sg15_114_cif.got.tgz:227970.got - 2010.06.03 18:47:42.
