data_PCOD9270145
_publ_section_title
;
Structure prediction by ZEFSAII (Michael W. Deem and Ramdas Pophale) SiO2 
 PCOD9270145
Probable space group: C 2/C
;
_chemical_formula_sum "Si O2"
_cell_formula_units_Z 48
_cell_length_a 24.333325
_cell_length_b 11.963187
_cell_length_c 26.832933
_cell_angle_alpha 90.000000
_cell_angle_beta 21.550648
_cell_angle_gamma 90.000000
_cell_volume 2869.229356
_symmetry_space_group_name_H-M "C 2/C"
_symmetry_group_IT_number 15
_symmetry_cell_setting 'monoclinic'
loop_
_space_group_symop_operation_xyz
x,y,z
-x,y,1/2-z
-x,-y,-z
x,-y,1/2+z
1/2+x,1/2+y,z
1/2-x,1/2+y,1/2-z
1/2-x,1/2-y,-z
1/2+x,1/2-y,1/2+z
loop_
_atom_site_type_symbol
_atom_site_label
_atom_site_fract_x
_atom_site_fract_y
_atom_site_fract_z
Si Si1 0.890962 0.690332 0.634615
Si Si2 0.445639 0.330667 0.924253
Si Si3 0.465372 0.538156 0.971929
Si Si4 0.874977 0.508883 0.223314
Si Si5 0.587286 0.169269 0.727852
Si Si6 0.427066 0.786327 0.616955
O O1 0.851336 0.575616 0.696315
O O2 0.747172 0.772421 0.752507
O O3 0.017882 0.747694 0.560996
O O4 0.964812 0.675838 0.518831
O O5 0.505658 0.447721 0.895722
O O6 0.532848 0.279889 0.803556
O O7 0.266555 0.331631 0.068095
O O8 0.532149 0.658917 0.904944
O O9 0.500000 0.500000 0.000000
O O10 0.287003 0.543646 0.120704
O O11 0.948308 0.434108 0.204704
O O12 0.947403 0.622303 0.142675
O O13 0.500000 0.160007 0.750000
#
# Coordination Sequence:
#
# PCOD9270145 Si02
#       6
#     8   8   8   8   8   8
#     4  11  20  32  53  78 114 143 171 211 251 331
#     4  10  20  35  56  82 106 137 179 213 271 316
#     4  11  18  33  51  75 115 146 165 207 262 324
#     4  10  21  34  50  80 103 142 184 213 261 312
#     4  10  21  39  60  77 102 136 180 236 270 300
#     4  12  20  33  51  76 118 146 172 203 261 319
#
# _framework density 16.729230999999999
#
# number of rings (size 3 to 8) (size 9 to 14) (size 15 to 20)
#    0.000    1.333    5.000    3.000    0.000    0.000 
#    6.000    0.000    0.000    5.000    0.000    0.000 
#    0.000    0.000    0.000    0.000    0.000    0.000 
#
# Total GULP energy -133758.487559 kJ/mol
# GULP energy per Si atom -5573.270315 kJ/mol
# Density = 1.669115 g / cm^3
# Si number density = 16.729231 Si / 1000 Ang^3
#
#
#
# Elastic Constant Matrix: (Units=GPa)
#
#
# Indices 1 2 3 4 5 6 
#
# 1 90.9610 47.2465 27.8587 -0.0014 2.4370 -0.0001
# 2 47.2465 100.7809 10.9195 0.0004 2.1598 0.0003
# 3 27.8587 10.9195 44.1998 -0.0016 -3.8727 0.0001
# 4 -0.0014 0.0004 -0.0016 27.8576 0.0006 3.0050
# 5 2.4370 2.1598 -3.8727 0.0006 20.9030 0.0001
# 6 -0.0001 0.0003 0.0001 3.0050 0.0001 14.2770
#
#
#
# Elastic Compliance Matrix: (Units=1/GPa)
#
#
# Indices 1 2 3 4 5 6 
#
# 1 0.017806 -0.007228 -0.009712 0.000001 -0.003128 0.000000
# 2 -0.007228 0.013179 0.001275 0.000000 -0.000283 0.000000
# 3 -0.009712 0.001275 0.028989 0.000001 0.006371 -0.000001
# 4 0.000001 0.000000 0.000001 0.036731 -0.000001 -0.007731
# 5 -0.003128 -0.000283 0.006371 -0.000001 0.049414 0.000000
# 6 0.000000 0.000000 -0.000001 -0.007731 0.000000 0.071670
#
#
# Mechanical properties :
#
#
# Convention : Reuss Voigt Hill
#
# Bulk Modulus (GPa) = 34.91002 45.33235 40.12118
# Shear Modulus (GPa) = 19.32984 22.60197 20.96591
#
# Velocity S-wave (km/s) = 3.40288 3.67965 3.54397
# Velocity P-wave (km/s) = 6.02930 6.72381 6.38600
#
# Compressibility (1/GPa) = 0.02864507
#
# Stress axis : x y z
#
# Youngs Moduli (GPa) = 56.15929 75.87756 34.49608
#
# Poissons Ratio (x) = 0.54848 0.33501
# Poissons Ratio (y) = 0.40595 -0.04400
# Poissons Ratio (z) = 0.54540 -0.09677
#
# Static dielectric constant tensor:
#      x y z
#    x 1.545380 0.000000 0.002520 
#    y 0.000000 1.603990 0.000000 
#    z 0.002520 0.000000 1.583040 
# 
# From -- ./inp_files/60527.got.cif
#   From: 2010.05.17/outbox.cif.g08.bks.cpg/sg15_31_cif.got.tgz:60527.got - 2010.06.03 18:47:42.
