data_PCOD9270456
_publ_section_title
;
Structure prediction by ZEFSAII (Michael W. Deem and Ramdas Pophale) SiO2 
 PCOD9270456
Probable space group: C 2/C
;
_chemical_formula_sum "Si O2"
_cell_formula_units_Z 56
_cell_length_a 14.663730
_cell_length_b 14.489939
_cell_length_c 14.909251
_cell_angle_alpha 90.000000
_cell_angle_beta 48.034996
_cell_angle_gamma 90.000000
_cell_volume 2355.477695
_symmetry_space_group_name_H-M "C 2/C"
_symmetry_group_IT_number 15
_symmetry_cell_setting 'monoclinic'
loop_
_space_group_symop_operation_xyz
x,y,z
-x,y,1/2-z
-x,-y,-z
x,-y,1/2+z
1/2+x,1/2+y,z
1/2-x,1/2+y,1/2-z
1/2-x,1/2-y,-z
1/2+x,1/2-y,1/2+z
loop_
_atom_site_type_symbol
_atom_site_label
_atom_site_fract_x
_atom_site_fract_y
_atom_site_fract_z
Si Si1 0.276876 0.322534 0.162135
Si Si2 0.491953 0.404425 0.560113
Si Si3 0.596845 0.977638 0.516096
Si Si4 0.225528 0.106466 0.184402
Si Si5 0.310260 0.363241 0.532285
Si Si6 0.797806 0.827833 0.354293
Si Si7 0.858324 0.504662 0.266491
O O1 0.243620 0.216030 0.172571
O O2 0.330373 0.336569 0.228678
O O3 0.166625 0.395598 0.225968
O O4 0.378699 0.354720 0.024125
O O5 0.500000 0.500000 0.500000
O O6 0.417249 0.414257 0.701300
O O7 0.406895 0.347108 0.547507
O O8 0.667700 0.882152 0.450720
O O9 0.500000 0.000000 0.500000
O O10 0.701626 0.056445 0.443055
O O11 0.501741 0.975938 0.660180
O O12 0.291084 0.058251 0.227474
O O13 0.217470 0.278807 0.609768
O O14 0.369374 0.365547 0.394556
O O15 0.227522 0.453809 0.599209
#
# Coordination Sequence:
#
# PCOD9270456 Si02
#       7
#     8   8   8   8   8   8   8
#     4  12  21  34  61  85 119 157 198 254 292 360
#     4  11  20  37  57  81 121 156 198 243 291 352
#     4  10  20  35  59  84 114 157 202 246 283 354
#     4  10  21  33  54  89 112 150 206 244 292 343
#     4  10  23  37  54  90 125 157 187 245 304 368
#     4  11  21  37  57  87 128 153 190 240 313 358
#     4  10  20  37  54  86 118 154 204 243 298 348
#
# _framework density 23.774370000000001
#
# number of rings (size 3 to 8) (size 9 to 14) (size 15 to 20)
#    0.000    1.429    8.571    0.000    6.000    1.143 
#    0.000    2.857    0.000    0.857    0.000    0.000 
#    0.000    0.000    0.000    0.000    0.000    0.000 
#
# Total GULP energy -156172.554686 kJ/mol
# GULP energy per Si atom -5577.591239 kJ/mol
# Density = 2.372026 g / cm^3
# Si number density = 23.774370 Si / 1000 Ang^3
#
#
#
# Elastic Constant Matrix: (Units=GPa)
#
#
# Indices 1 2 3 4 5 6 
#
# 1 23.8110 -4.3875 3.2988 0.0000 -0.1704 0.0000
# 2 -4.3875 161.1622 38.5362 0.0000 -5.9661 0.0000
# 3 3.2988 38.5362 138.6994 0.0000 -11.9147 0.0000
# 4 0.0000 0.0000 0.0000 21.1235 0.0000 -1.2294
# 5 -0.1704 -5.9661 -11.9147 0.0000 32.4593 0.0000
# 6 0.0000 0.0000 0.0000 -1.2294 0.0000 21.9041
#
#
#
# Elastic Compliance Matrix: (Units=1/GPa)
#
#
# Indices 1 2 3 4 5 6 
#
# 1 0.042471 0.001497 -0.001428 0.000000 -0.000026 0.000000
# 2 0.001497 0.006709 -0.001851 0.000000 0.000561 0.000000
# 3 -0.001428 -0.001851 0.007980 0.000000 0.002581 0.000000
# 4 0.000000 0.000000 0.000000 0.047496 0.000000 0.002666
# 5 -0.000026 0.000561 0.002581 0.000000 0.031858 0.000000
# 6 0.000000 0.000000 0.000000 0.002666 0.000000 0.045803
#
#
# Mechanical properties :
#
#
# Convention : Reuss Voigt Hill
#
# Bulk Modulus (GPa) = 18.65874 44.28527 31.47201
# Shear Modulus (GPa) = 24.54013 34.17905 29.35959
#
# Velocity S-wave (km/s) = 3.21629 3.79574 3.51796
# Velocity P-wave (km/s) = 4.65381 6.15451 5.45600
#
# Compressibility (1/GPa) = 0.05359418
#
# Stress axis : x y z
#
# Youngs Moduli (GPa) = 23.54557 149.04981 125.31393
#
# Poissons Ratio (x) = -0.22309 0.17898
# Poissons Ratio (y) = -0.03524 0.23201
# Poissons Ratio (z) = 0.03363 0.27596
#
# Static dielectric constant tensor:
#      x y z
#    x 2.121120 0.000000 0.100330 
#    y 0.000000 1.889220 0.000000 
#    z 0.100330 0.000000 2.019250 
# 
# From -- ./inp_files/211188.got.cif
#   From: 2010.05.17/outbox.cif.g08.bks.cpg/sg15_106_cif.got.tgz:211188.got - 2010.06.03 18:47:42.
