data_PCOD9270867
_publ_section_title
;
Structure prediction by ZEFSAII (Michael W. Deem and Ramdas Pophale) SiO2 
 PCOD9270867
Probable space group: C 2/C
;
_chemical_formula_sum "Si O2"
_cell_formula_units_Z 40
_cell_length_a 11.742015
_cell_length_b 13.229699
_cell_length_c 13.290920
_cell_angle_alpha 90.000000
_cell_angle_beta 121.890089
_cell_angle_gamma 90.000000
_cell_volume 1753.022930
_symmetry_space_group_name_H-M "C 2/C"
_symmetry_group_IT_number 15
_symmetry_cell_setting 'monoclinic'
loop_
_space_group_symop_operation_xyz
x,y,z
-x,y,1/2-z
-x,-y,-z
x,-y,1/2+z
1/2+x,1/2+y,z
1/2-x,1/2+y,1/2-z
1/2-x,1/2-y,-z
1/2+x,1/2-y,1/2+z
loop_
_atom_site_type_symbol
_atom_site_label
_atom_site_fract_x
_atom_site_fract_y
_atom_site_fract_z
Si Si1 0.141512 0.202840 0.307921
Si Si2 0.787668 0.793931 0.186987
Si Si3 0.219731 0.379669 0.953337
Si Si4 0.777758 0.613198 0.542056
Si Si5 0.529658 0.390481 0.061859
O O1 0.192428 0.240087 0.224566
O O2 0.123518 0.304631 0.366204
O O3 0.251673 0.132191 0.412730
O O4 0.000000 0.146628 0.250000
O O5 0.706415 0.858270 0.065910
O O6 0.890235 0.865810 0.297037
O O7 0.850461 0.700585 0.152490
O O8 0.378028 0.355581 0.007398
O O9 0.192764 0.497226 0.919576
O O10 0.637434 0.647372 0.530317
O O11 0.500000 0.500000 0.000000
#
# Coordination Sequence:
#
# PCOD9270867 Si02
#       5
#     8   8   8   8   8
#     4  10  20  36  54  76 108 147 185 231 278 327
#     4  10  21  34  54  83 115 146 186 233 282 339
#     4  10  20  36  55  84 115 144 184 233 288 340
#     4   9  20  35  55  82 107 139 189 230 275 338
#     4   9  18  35  59  84 109 142 186 234 282 335
#
# _framework density 22.817726
#
# number of rings (size 3 to 8) (size 9 to 14) (size 15 to 20)
#    0.000    2.400    0.000    1.800    0.000    8.000 
#    0.000    5.000    0.000    0.000    0.000    0.000 
#    0.000    0.000    0.000    0.000    0.000    0.000 
#
# Total GULP energy -111345.593287 kJ/mol
# GULP energy per Si atom -5567.279664 kJ/mol
# Density = 2.276579 g / cm^3
# Si number density = 22.817726 Si / 1000 Ang^3
#
#
#
# Elastic Constant Matrix: (Units=GPa)
#
#
# Indices 1 2 3 4 5 6 
#
# 1 40.1366 -12.2158 23.3761 0.0000 -3.4087 0.0000
# 2 -12.2158 127.2565 45.5141 0.0000 -6.8612 0.0000
# 3 23.3761 45.5141 137.8683 0.0000 -16.3434 0.0000
# 4 0.0000 0.0000 0.0000 33.2681 0.0000 -1.9876
# 5 -3.4087 -6.8612 -16.3434 0.0000 32.4969 0.0000
# 6 0.0000 0.0000 0.0000 -1.9876 0.0000 20.5425
#
#
#
# Elastic Compliance Matrix: (Units=1/GPa)
#
#
# Indices 1 2 3 4 5 6 
#
# 1 0.030669 0.005459 -0.006895 0.000000 0.000902 0.000000
# 2 0.005459 0.009887 -0.004120 0.000000 0.000588 0.000000
# 3 -0.006895 -0.004120 0.010202 0.000000 0.003538 0.000000
# 4 0.000000 0.000000 0.000000 0.030234 0.000000 0.002925
# 5 0.000902 0.000588 0.003538 0.000000 0.032770 0.000000
# 6 0.000000 0.000000 0.000000 0.002925 0.000000 0.048963
#
#
# Mechanical properties :
#
#
# Convention : Reuss Voigt Hill
#
# Bulk Modulus (GPa) = 25.22368 46.51224 35.86796
# Shear Modulus (GPa) = 26.73048 33.83394 30.28221
#
# Velocity S-wave (km/s) = 3.42640 3.85488 3.64694
# Velocity P-wave (km/s) = 5.17030 6.34366 5.78680
#
# Compressibility (1/GPa) = 0.03964528
#
# Stress axis : x y z
#
# Youngs Moduli (GPa) = 32.60642 101.13899 98.02119
#
# Poissons Ratio (x) = -0.55209 0.67588
# Poissons Ratio (y) = -0.17799 0.40384
# Poissons Ratio (z) = 0.22483 0.41669
#
# Static dielectric constant tensor:
#      x y z
#    x 1.977720 0.000000 0.102420 
#    y 0.000000 1.903860 0.000000 
#    z 0.102420 0.000000 2.068640 
# 
# From -- ./inp_files/95506.got.cif
#   From: 2010.05.17/outbox.cif.g08.bks.cpg/sg15_48_cif.got.tgz:95506.got - 2010.06.03 18:47:42.
