data_PCOD9270087
_publ_section_title
;
Structure prediction by ZEFSAII (Michael W. Deem and Ramdas Pophale) SiO2 
 PCOD9270087
Probable space group: C 2/C
;
_chemical_formula_sum "Si O2"
_cell_formula_units_Z 32
_cell_length_a 11.689486
_cell_length_b 8.922641
_cell_length_c 13.818300
_cell_angle_alpha 90.000000
_cell_angle_beta 116.062814
_cell_angle_gamma 90.000000
_cell_volume 1294.705806
_symmetry_space_group_name_H-M "C 2/C"
_symmetry_group_IT_number 15
_symmetry_cell_setting 'monoclinic'
loop_
_space_group_symop_operation_xyz
x,y,z
-x,y,1/2-z
-x,-y,-z
x,-y,1/2+z
1/2+x,1/2+y,z
1/2-x,1/2+y,1/2-z
1/2-x,1/2-y,-z
1/2+x,1/2-y,1/2+z
loop_
_atom_site_type_symbol
_atom_site_label
_atom_site_fract_x
_atom_site_fract_y
_atom_site_fract_z
Si Si1 0.058832 0.663386 0.404647
Si Si2 0.452972 0.823338 0.063316
Si Si3 0.309028 0.644504 0.157820
Si Si4 0.810478 0.200892 0.714570
O O1 0.029942 0.486861 0.383605
O O2 0.176319 0.705539 0.380102
O O3 0.059006 0.695787 0.519512
O O4 0.941141 0.757509 0.319287
O O5 0.422729 0.695629 0.129632
O O6 0.320642 0.838484 0.953020
O O7 0.295488 0.749274 0.247333
O O8 0.312386 0.473547 0.191812
#
# Coordination Sequence:
#
# PCOD9270087 Si02
#       4
#     8   8   8   8
#     4   9  19  37  55  78 111 142 179 225 273 324
#     4   9  19  37  58  78 107 145 182 225 274 320
#     4  10  20  35  58  83 108 143 184 225 270 323
#     4  10  20  35  55  81 112 143 181 224 269 324
#
# _framework density 24.71604
#
# number of rings (size 3 to 8) (size 9 to 14) (size 15 to 20)
#    0.000    2.500    0.000    1.500    0.000    2.000 
#    0.000   20.000    0.000    0.000    0.000    0.000 
#    0.000    0.000    0.000    0.000    0.000    0.000 
#
# Total GULP energy -89562.365617 kJ/mol
# GULP energy per Si atom -5597.647851 kJ/mol
# Density = 2.465978 g / cm^3
# Si number density = 24.716040 Si / 1000 Ang^3
#
#
#
# Elastic Constant Matrix: (Units=GPa)
#
#
# Indices 1 2 3 4 5 6 
#
# 1 133.0086 50.1945 24.9200 0.0000 -36.4030 0.0000
# 2 50.1945 159.7141 77.2214 0.0000 -50.9489 0.0000
# 3 24.9200 77.2214 121.3818 0.0000 -31.7611 0.0000
# 4 0.0000 0.0000 0.0000 48.8624 0.0000 -16.1544
# 5 -36.4030 -50.9489 -31.7611 0.0000 57.2207 0.0000
# 6 0.0000 0.0000 0.0000 -16.1544 0.0000 29.7944
#
#
#
# Elastic Compliance Matrix: (Units=1/GPa)
#
#
# Indices 1 2 3 4 5 6 
#
# 1 0.009347 -0.001593 0.000327 0.000000 0.004709 0.000000
# 2 -0.001593 0.011229 -0.005224 0.000000 0.006085 0.000000
# 3 0.000327 -0.005224 0.012088 0.000000 0.002266 0.000000
# 4 0.000000 0.000000 0.000000 0.024935 0.000000 0.013520
# 5 0.004709 0.006085 0.002266 0.000000 0.027147 0.000000
# 6 0.000000 0.000000 0.000000 0.013520 0.000000 0.040894
#
#
# Mechanical properties :
#
#
# Convention : Reuss Voigt Hill
#
# Bulk Modulus (GPa) = 50.80722 79.86401 65.33562
# Shear Modulus (GPa) = 34.43917 44.62674 39.53296
#
# Velocity S-wave (km/s) = 3.73687 4.25382 4.00370
# Velocity P-wave (km/s) = 6.26258 7.51727 6.91843
#
# Compressibility (1/GPa) = 0.01968224
#
# Stress axis : x y z
#
# Youngs Moduli (GPa) = 106.98316 89.05542 82.72712
#
# Poissons Ratio (x) = 0.14191 -0.02705
# Poissons Ratio (y) = 0.17047 0.43221
# Poissons Ratio (z) = -0.03498 0.46527
#
# Static dielectric constant tensor:
#      x y z
#    x 2.041060 0.000000 0.047310 
#    y 0.000000 1.837760 0.000000 
#    z 0.047310 0.000000 2.035350 
# 
# From -- ./inp_files/93566.got.cif
#   From: 2010.05.17/outbox.cif.g08.bks.cpg/sg15_47_cif.got.tgz:93566.got - 2010.06.03 18:47:42.
