data_PCOD9270421
_publ_section_title
;
Structure prediction by ZEFSAII (Michael W. Deem and Ramdas Pophale) SiO2 
 PCOD9270421
Probable space group: C 2/C
;
_chemical_formula_sum "Si O2"
_cell_formula_units_Z 60
_cell_length_a 10.327320
_cell_length_b 31.242123
_cell_length_c 14.867413
_cell_angle_alpha 90.000000
_cell_angle_beta 151.762127
_cell_angle_gamma 90.000000
_cell_volume 2269.587921
_symmetry_space_group_name_H-M "C 2/C"
_symmetry_group_IT_number 15
_symmetry_cell_setting 'monoclinic'
loop_
_space_group_symop_operation_xyz
x,y,z
-x,y,1/2-z
-x,-y,-z
x,-y,1/2+z
1/2+x,1/2+y,z
1/2-x,1/2+y,1/2-z
1/2-x,1/2-y,-z
1/2+x,1/2-y,1/2+z
loop_
_atom_site_type_symbol
_atom_site_label
_atom_site_fract_x
_atom_site_fract_y
_atom_site_fract_z
Si Si1 0.727437 0.813290 0.686378
Si Si2 0.631603 0.275447 0.088252
Si Si3 0.544316 0.597471 0.885438
Si Si4 0.490818 0.949085 0.403139
Si Si5 0.521082 0.398686 0.883272
Si Si6 0.263060 0.810596 0.533768
Si Si7 0.558993 0.043469 0.160162
Si Si8 0.500000 0.840773 0.250000
O O1 0.715702 0.772458 0.614527
O O2 0.417848 0.816374 0.534740
O O3 0.824697 0.861122 0.720498
O O4 0.933744 0.795704 0.890912
O O5 0.884278 0.307614 0.252214
O O6 0.470579 0.276527 0.085211
O O7 0.500000 0.601480 0.750000
O O8 0.264273 0.582822 0.760331
O O9 0.636462 0.643172 0.977783
O O10 0.793837 0.563652 0.045362
O O11 0.786127 0.931614 0.553703
O O12 0.506668 0.955669 0.520177
O O13 0.416964 0.993101 0.307065
O O14 0.323897 0.426150 0.827360
O O15 0.755208 0.370355 0.070710
O O16 0.500000 0.802068 0.750000
#
# Coordination Sequence:
#
# PCOD9270421 Si02
#       8
#     8   8   8   8   8   8   8   4
#     4  10  22  40  61  90 124 161 216 251 314 373
#     4  10  22  40  60  86 123 168 200 267 308 366
#     4  10  20  35  58  90 119 152 208 259 299 370
#     4  10  21  37  62  93 123 160 198 260 323 360
#     4  11  21  40  63  88 128 166 205 255 306 380
#     4  10  20  38  61  83 119 167 204 250 314 366
#     4  10  20  39  62  90 124 157 207 256 313 371
#     4  10  24  42  58  88 132 168 200 256 318 362
#
# _framework density 26.436516999999998
#
# number of rings (size 3 to 8) (size 9 to 14) (size 15 to 20)
#    0.000    1.867    1.333    2.400    0.000    5.333 
#    7.200    0.667    2.933    0.000    0.000    0.000 
#    0.000    0.000    0.000    0.000    0.000    0.000 
#
# Total GULP energy -167867.476688 kJ/mol
# GULP energy per Si atom -5595.582556 kJ/mol
# Density = 2.637635 g / cm^3
# Si number density = 26.436517 Si / 1000 Ang^3
#
#
#
# Elastic Constant Matrix: (Units=GPa)
#
#
# Indices 1 2 3 4 5 6 
#
# 1 84.0763 21.2694 34.8726 0.0000 35.8537 0.0000
# 2 21.2694 169.4407 56.7538 0.0000 30.8008 0.0000
# 3 34.8726 56.7538 114.3951 0.0000 36.5562 0.0000
# 4 0.0000 0.0000 0.0000 22.0752 0.0000 -1.8687
# 5 35.8537 30.8008 36.5562 0.0000 53.0606 0.0000
# 6 0.0000 0.0000 0.0000 -1.8687 0.0000 19.4252
#
#
#
# Elastic Compliance Matrix: (Units=1/GPa)
#
#
# Indices 1 2 3 4 5 6 
#
# 1 0.017066 0.000446 -0.002124 0.000000 -0.010328 0.000000
# 2 0.000446 0.007289 -0.002954 0.000000 -0.002498 0.000000
# 3 -0.002124 -0.002954 0.012628 0.000000 -0.005551 0.000000
# 4 0.000000 0.000000 0.000000 0.045672 0.000000 0.004394
# 5 -0.010328 -0.002498 -0.005551 0.000000 0.031099 0.000000
# 6 0.000000 0.000000 0.000000 0.004394 0.000000 0.051902
#
#
# Mechanical properties :
#
#
# Convention : Reuss Voigt Hill
#
# Bulk Modulus (GPa) = 36.07395 65.96707 51.02051
# Shear Modulus (GPa) = 27.15031 35.91326 31.53179
#
# Velocity S-wave (km/s) = 3.20816 3.68974 3.45735
# Velocity P-wave (km/s) = 5.23433 6.56959 5.93960
#
# Compressibility (1/GPa) = 0.02772084
#
# Stress axis : x y z
#
# Youngs Moduli (GPa) = 58.59579 137.18769 79.18638
#
# Poissons Ratio (x) = -0.06124 0.16816
# Poissons Ratio (y) = -0.02616 0.23394
# Poissons Ratio (z) = 0.12443 0.40530
#
# Static dielectric constant tensor:
#      x y z
#    x 2.226610 0.000000 -0.026000 
#    y 0.000000 2.028680 0.000000 
#    z -0.026000 0.000000 2.071940 
# 
# From -- ./inp_files/275380.got.cif
#   From: 2010.05.17/outbox.cif.g08.bks.cpg/sg15_138_cif.got.tgz:275380.got - 2010.06.03 18:47:42.
