data_PCOD9270233
_publ_section_title
;
Structure prediction by ZEFSAII (Michael W. Deem and Ramdas Pophale) SiO2 
 PCOD9270233
Probable space group: C 2/C
;
_chemical_formula_sum "Si O2"
_cell_formula_units_Z 48
_cell_length_a 6.340214
_cell_length_b 28.583304
_cell_length_c 16.301417
_cell_angle_alpha 90.000000
_cell_angle_beta 49.629439
_cell_angle_gamma 90.000000
_cell_volume 2250.729318
_symmetry_space_group_name_H-M "C 2/C"
_symmetry_group_IT_number 15
_symmetry_cell_setting 'monoclinic'
loop_
_space_group_symop_operation_xyz
x,y,z
-x,y,1/2-z
-x,-y,-z
x,-y,1/2+z
1/2+x,1/2+y,z
1/2-x,1/2+y,1/2-z
1/2-x,1/2-y,-z
1/2+x,1/2-y,1/2+z
loop_
_atom_site_type_symbol
_atom_site_label
_atom_site_fract_x
_atom_site_fract_y
_atom_site_fract_z
Si Si1 0.552635 0.384889 0.828878
Si Si2 0.126852 0.719603 0.956251
Si Si3 0.021551 0.220279 0.334766
Si Si4 0.083881 0.542055 0.634389
Si Si5 0.734366 0.441184 0.933265
Si Si6 0.070531 0.614523 0.959927
O O1 0.500000 0.403125 0.750000
O O2 0.655982 0.331405 0.793992
O O3 0.721336 0.417853 0.846966
O O4 0.258907 0.379648 0.948024
O O5 0.211077 0.665576 0.920105
O O6 0.175535 0.748545 0.861647
O O7 0.250000 0.750000 0.000000
O O8 0.797134 0.716928 0.056084
O O9 0.000000 0.241584 0.250000
O O10 0.071599 0.487079 0.614735
O O11 0.413869 0.549658 0.538859
O O12 0.000000 0.548993 0.750000
O O13 0.909030 0.576776 0.619279
O O14 0.839242 0.406746 0.976469
#
# Coordination Sequence:
#
# PCOD9270233 Si02
#       6
#     8   8   8   8   8   8
#     4   9  19  34  57  87 112 141 182 228 283 329
#     4  10  20  35  57  82 109 149 183 227 276 328
#     4   9  19  36  54  80 116 144 176 230 280 331
#     4  10  23  40  56  81 112 149 186 229 282 330
#     4  10  21  39  58  83 110 147 186 234 275 333
#     4  10  21  37  57  81 113 143 188 231 272 334
#
# _framework density 21.326421
#
# number of rings (size 3 to 8) (size 9 to 14) (size 15 to 20)
#    0.000    2.333    0.000    1.500    2.333    3.333 
#    0.000    6.667    0.000    0.000    0.000    0.000 
#    0.000    0.000    0.000    0.000    0.000    0.000 
#
# Total GULP energy -133839.568999 kJ/mol
# GULP energy per Si atom -5576.648708 kJ/mol
# Density = 2.127788 g / cm^3
# Si number density = 21.326421 Si / 1000 Ang^3
#
#
#
# Elastic Constant Matrix: (Units=GPa)
#
#
# Indices 1 2 3 4 5 6 
#
# 1 73.6991 72.3291 30.4293 0.0000 34.4898 0.0000
# 2 72.3291 158.9316 41.1768 0.0000 45.4560 0.0000
# 3 30.4293 41.1768 100.2981 0.0000 38.7811 0.0000
# 4 0.0000 0.0000 0.0000 24.7793 0.0000 22.5812
# 5 34.4898 45.4560 38.7811 0.0000 53.2824 0.0000
# 6 0.0000 0.0000 0.0000 22.5812 0.0000 -18.2082
#
#
#
# Elastic Compliance Matrix: (Units=1/GPa)
#
#
# Indices 1 2 3 4 5 6 
#
# 1 0.027801 -0.009864 -0.000947 0.000000 -0.008892 0.000000
# 2 -0.009864 0.011886 -0.000606 0.000000 -0.003314 0.000000
# 3 -0.000947 -0.000606 0.014013 0.000000 -0.009070 0.000000
# 4 0.000000 0.000000 0.000000 0.018945 0.000000 0.023495
# 5 -0.008892 -0.003314 -0.009070 0.000000 0.033952 0.000000
# 6 0.000000 0.000000 0.000000 0.023495 0.000000 -0.025782
#
#
# Mechanical properties :
#
#
# Convention : Reuss Voigt Hill
#
# Bulk Modulus (GPa) = 32.39679 68.97767 50.68723
# Shear Modulus (GPa) = 43.88387 24.57027 34.22707
#
# Velocity S-wave (km/s) = 4.54113 3.39795 4.01048
# Velocity P-wave (km/s) = 6.53604 6.91439 6.72787
#
# Compressibility (1/GPa) = 0.03086726
#
# Stress axis : x y z
#
# Youngs Moduli (GPa) = 35.96965 84.13391 71.36199
#
# Poissons Ratio (x) = 0.82988 0.06758
# Poissons Ratio (y) = 0.35480 0.04322
# Poissons Ratio (z) = 0.03407 0.05095
#
# Static dielectric constant tensor:
#      x y z
#    x 1.763240 0.000000 -0.043450 
#    y 0.000000 1.832580 0.000000 
#    z -0.043450 0.000000 1.766980 
# 
# From -- ./inp_files/130600.got.cif
#   From: 2010.05.17/outbox.cif.g08.bks.cpg/sg15_66_cif.got.tgz:130600.got - 2010.06.03 18:47:42.
