data_PCOD9270320
_publ_section_title
;
Structure prediction by ZEFSAII (Michael W. Deem and Ramdas Pophale) SiO2 
 PCOD9270320
Probable space group: C 2/C
;
_chemical_formula_sum "Si O2"
_cell_formula_units_Z 48
_cell_length_a 6.929479
_cell_length_b 21.069680
_cell_length_c 18.421784
_cell_angle_alpha 90.000000
_cell_angle_beta 112.358465
_cell_angle_gamma 90.000000
_cell_volume 2487.415741
_symmetry_space_group_name_H-M "C 2/C"
_symmetry_group_IT_number 15
_symmetry_cell_setting 'monoclinic'
loop_
_space_group_symop_operation_xyz
x,y,z
-x,y,1/2-z
-x,-y,-z
x,-y,1/2+z
1/2+x,1/2+y,z
1/2-x,1/2+y,1/2-z
1/2-x,1/2-y,-z
1/2+x,1/2-y,1/2+z
loop_
_atom_site_type_symbol
_atom_site_label
_atom_site_fract_x
_atom_site_fract_y
_atom_site_fract_z
Si Si1 0.500000 0.077254 0.750000
Si Si2 0.614343 0.120953 0.548801
Si Si3 0.254435 0.679572 0.721186
Si Si4 0.963309 0.507510 0.384854
Si Si5 0.604471 0.430842 0.526659
Si Si6 0.500000 0.292765 0.750000
Si Si7 0.786841 0.122039 0.096837
O O1 0.691288 0.126941 0.772941
O O2 0.540995 0.031144 0.689577
O O3 0.655737 0.157400 0.629819
O O4 0.829092 0.108778 0.535473
O O5 0.426154 0.147741 0.472124
O O6 0.532484 0.049999 0.556817
O O7 0.500000 0.682280 0.750000
O O8 0.159236 0.746163 0.731541
O O9 0.774485 0.554295 0.375914
O O10 0.168391 0.550753 0.410426
O O11 0.500000 0.500000 0.500000
O O12 0.458181 0.391468 0.559328
O O13 0.621222 0.334163 0.827054
#
# Coordination Sequence:
#
# PCOD9270320 Si02
#       7
#     4   8   8   8   8   4   8
#     4   9  22  36  62  98 122 163 210 260 318 375
#     4  10  21  40  64  95 122 162 212 258 316 374
#     4  10  24  45  67  85 123 169 223 275 298 362
#     4  10  20  35  57  97 134 159 199 251 316 396
#     4  11  19  33  62  92 129 165 190 249 320 386
#     4  11  28  46  60  90 128 173 220 262 308 363
#     4  11  23  40  61  92 135 164 202 258 321 382
#
# _framework density 19.297135999999998
#
# number of rings (size 3 to 8) (size 9 to 14) (size 15 to 20)
#    0.000    1.667    3.333    1.000    4.667    4.667 
#    1.500    1.667    0.000    0.000    0.000    0.000 
#    0.000    0.000    0.000    0.000    0.000    0.000 
#
# Total GULP energy -133802.623410 kJ/mol
# GULP energy per Si atom -5575.109309 kJ/mol
# Density = 1.925321 g / cm^3
# Si number density = 19.297136 Si / 1000 Ang^3
#
#
#
# Elastic Constant Matrix: (Units=GPa)
#
#
# Indices 1 2 3 4 5 6 
#
# 1 136.8048 31.0804 33.3441 0.0000 -11.9058 0.0000
# 2 31.0804 59.4346 34.9051 0.0000 -6.0369 0.0000
# 3 33.3441 34.9051 76.1804 0.0000 -9.1629 0.0000
# 4 0.0000 0.0000 0.0000 28.5423 0.0000 -10.0732
# 5 -11.9058 -6.0369 -9.1629 0.0000 29.5467 0.0000
# 6 0.0000 0.0000 0.0000 -10.0732 0.0000 16.1173
#
#
#
# Elastic Compliance Matrix: (Units=1/GPa)
#
#
# Indices 1 2 3 4 5 6 
#
# 1 0.008724 -0.003080 -0.002140 0.000000 0.002223 0.000000
# 2 -0.003080 0.024170 -0.009641 0.000000 0.000707 0.000000
# 3 -0.002140 -0.009641 0.018843 0.000000 0.003011 0.000000
# 4 0.000000 0.000000 0.000000 0.044950 0.000000 0.028094
# 5 0.002223 0.000707 0.003011 0.000000 0.035819 0.000000
# 6 0.000000 0.000000 0.000000 0.028094 0.000000 0.079603
#
#
# Mechanical properties :
#
#
# Convention : Reuss Voigt Hill
#
# Bulk Modulus (GPa) = 45.42354 52.34211 48.88283
# Shear Modulus (GPa) = 20.06658 26.38063 23.22361
#
# Velocity S-wave (km/s) = 3.22821 3.70141 3.47288
# Velocity P-wave (km/s) = 6.12252 6.74169 6.43955
#
# Compressibility (1/GPa) = 0.02201502
#
# Stress axis : x y z
#
# Youngs Moduli (GPa) = 114.62085 41.37420 53.06931
#
# Poissons Ratio (x) = 0.12741 0.11359
# Poissons Ratio (y) = 0.35298 0.51166
# Poissons Ratio (z) = 0.24533 0.39890
#
# Static dielectric constant tensor:
#      x y z
#    x 1.701270 0.000000 -0.024320 
#    y 0.000000 1.658380 0.000000 
#    z -0.024320 0.000000 1.738920 
# 
# From -- ./inp_files/227758.got.cif
#   From: 2010.05.17/outbox.cif.g08.bks.cpg/sg15_114_cif.got.tgz:227758.got - 2010.06.03 18:47:42.
