data_PCOD9270665
_publ_section_title
;
Structure prediction by ZEFSAII (Michael W. Deem and Ramdas Pophale) SiO2 
 PCOD9270665
Probable space group: C 2/C
;
_chemical_formula_sum "Si O2"
_cell_formula_units_Z 60
_cell_length_a 12.928264
_cell_length_b 13.789324
_cell_length_c 17.209670
_cell_angle_alpha 90.000000
_cell_angle_beta 77.857702
_cell_angle_gamma 90.000000
_cell_volume 2999.365977
_symmetry_space_group_name_H-M "C 2/C"
_symmetry_group_IT_number 15
_symmetry_cell_setting 'monoclinic'
loop_
_space_group_symop_operation_xyz
x,y,z
-x,y,1/2-z
-x,-y,-z
x,-y,1/2+z
1/2+x,1/2+y,z
1/2-x,1/2+y,1/2-z
1/2-x,1/2-y,-z
1/2+x,1/2-y,1/2+z
loop_
_atom_site_type_symbol
_atom_site_label
_atom_site_fract_x
_atom_site_fract_y
_atom_site_fract_z
Si Si1 0.174583 0.191372 0.616734
Si Si2 0.130749 0.557092 0.899544
Si Si3 0.332824 0.862622 0.685710
Si Si4 0.955740 0.891369 0.506835
Si Si5 0.748414 0.894796 0.629661
Si Si6 0.000000 0.266547 0.750000
Si Si7 0.356068 0.766356 0.529122
Si Si8 0.401139 0.966619 0.434011
O O1 0.286419 0.143598 0.621768
O O2 0.197190 0.303218 0.592260
O O3 0.115477 0.133718 0.557792
O O4 0.092864 0.200724 0.701127
O O5 0.186608 0.461137 0.857709
O O6 0.015737 0.550444 0.877318
O O7 0.103741 0.544952 0.995060
O O8 0.272095 0.871933 0.776544
O O9 0.453201 0.838290 0.692494
O O10 0.319177 0.778532 0.624394
O O11 0.051303 0.813329 0.494406
O O12 0.871614 0.890570 0.590200
O O13 0.000000 0.000000 0.500000
O O14 0.688812 0.993024 0.610435
O O15 0.250000 0.750000 0.500000
O O16 0.390244 0.867596 0.484704
#
# Coordination Sequence:
#
# PCOD9270665 Si02
#       8
#     8   8   8   8   8   4   8   8
#     4  11  22  38  65  93 128 168 226 271 341 398
#     4  10  20  35  61  94 124 162 210 267 331 398
#     4  10  22  40  66  92 133 168 220 280 339 393
#     4  12  25  41  67  97 133 180 228 274 340 419
#     4  11  23  42  67  99 130 172 226 290 332 404
#     4  10  20  40  64  96 120 174 222 294 330 396
#     4  11  24  44  67  91 135 183 226 272 342 418
#     4  10  21  36  65  94 123 165 215 270 333 393
#
# _framework density 20.004228000000001
#
# number of rings (size 3 to 8) (size 9 to 14) (size 15 to 20)
#    0.000    1.333    2.667    3.600    5.600    1.067 
#    4.800    0.667    2.933    0.000    0.000    0.000 
#    0.000    0.000    0.000    0.000    0.000    0.000 
#
# Total GULP energy -167044.704327 kJ/mol
# GULP energy per Si atom -5568.156811 kJ/mol
# Density = 1.995870 g / cm^3
# Si number density = 20.004228 Si / 1000 Ang^3
#
#
#
# Elastic Constant Matrix: (Units=GPa)
#
#
# Indices 1 2 3 4 5 6 
#
# 1 83.5689 42.1227 61.2268 0.0000 -9.9363 0.0000
# 2 42.1227 110.7760 46.0652 0.0000 -11.1545 0.0000
# 3 61.2268 46.0652 103.3335 0.0000 -15.3545 0.0000
# 4 0.0000 0.0000 0.0000 18.3704 0.0000 -4.8420
# 5 -9.9363 -11.1545 -15.3545 0.0000 41.9277 0.0000
# 6 0.0000 0.0000 0.0000 -4.8420 0.0000 47.8168
#
#
#
# Elastic Compliance Matrix: (Units=1/GPa)
#
#
# Indices 1 2 3 4 5 6 
#
# 1 0.022295 -0.003660 -0.011567 0.000000 0.000074 0.000000
# 2 -0.003660 0.011740 -0.002887 0.000000 0.001199 0.000000
# 3 -0.011567 -0.002887 0.018292 0.000000 0.003189 0.000000
# 4 0.000000 0.000000 0.000000 0.055928 0.000000 0.005663
# 5 0.000074 0.001199 0.003189 0.000000 0.025355 0.000000
# 6 0.000000 0.000000 0.000000 0.005663 0.000000 0.021487
#
#
# Mechanical properties :
#
#
# Convention : Reuss Voigt Hill
#
# Bulk Modulus (GPa) = 62.11819 66.27866 64.19843
# Shear Modulus (GPa) = 25.42055 31.50722 28.46388
#
# Velocity S-wave (km/s) = 3.56864 3.97297 3.77622
# Velocity P-wave (km/s) = 6.93543 7.36547 7.15368
#
# Compressibility (1/GPa) = 0.01609834
#
# Stress axis : x y z
#
# Youngs Moduli (GPa) = 44.85408 85.17779 54.66827
#
# Poissons Ratio (x) = 0.31174 0.63237
# Poissons Ratio (y) = 0.16416 0.15783
# Poissons Ratio (z) = 0.51884 0.24591
#
# Static dielectric constant tensor:
#      x y z
#    x 2.397640 0.000000 -0.494430 
#    y 0.000000 1.330260 0.000000 
#    z -0.494430 0.000000 2.057740 
# 
# From -- ./inp_files/198283.got.cif
#   From: 2010.05.17/outbox.cif.g08.bks.cpg/sg15_100_cif.got.tgz:198283.got - 2010.06.03 18:47:42.
