data_PCOD9270564
_publ_section_title
;
Structure prediction by ZEFSAII (Michael W. Deem and Ramdas Pophale) SiO2 
 PCOD9270564
Probable space group: C 2/C
;
_chemical_formula_sum "Si O2"
_cell_formula_units_Z 60
_cell_length_a 14.674302
_cell_length_b 20.665584
_cell_length_c 8.168155
_cell_angle_alpha 90.000000
_cell_angle_beta 114.680684
_cell_angle_gamma 90.000000
_cell_volume 2250.739636
_symmetry_space_group_name_H-M "C 2/C"
_symmetry_group_IT_number 15
_symmetry_cell_setting 'monoclinic'
loop_
_space_group_symop_operation_xyz
x,y,z
-x,y,1/2-z
-x,-y,-z
x,-y,1/2+z
1/2+x,1/2+y,z
1/2-x,1/2+y,1/2-z
1/2-x,1/2-y,-z
1/2+x,1/2-y,1/2+z
loop_
_atom_site_type_symbol
_atom_site_label
_atom_site_fract_x
_atom_site_fract_y
_atom_site_fract_z
Si Si1 0.955949 0.382237 0.934941
Si Si2 0.663874 0.493702 0.769983
Si Si3 0.148130 0.777698 0.846837
Si Si4 0.689089 0.309738 0.522527
Si Si5 0.629481 0.396875 0.023891
Si Si6 0.000000 0.258975 0.750000
Si Si7 0.207288 0.436574 0.912408
Si Si8 0.134200 0.365894 0.275755
O O1 0.896274 0.427341 0.761823
O O2 0.956176 0.310673 0.850494
O O3 0.900002 0.383687 0.066582
O O4 0.069179 0.397434 0.080213
O O5 0.613207 0.444609 0.857577
O O6 0.604029 0.557913 0.662262
O O7 0.700520 0.456828 0.637831
O O8 0.771619 0.513051 0.930095
O O9 0.182593 0.816833 0.712898
O O10 0.093491 0.825278 0.936253
O O11 0.104159 0.710530 0.745074
O O12 0.250000 0.750000 0.000000
O O13 0.750000 0.250000 0.500000
O O14 0.580278 0.290694 0.380957
O O15 0.753110 0.367720 0.499404
O O16 0.748609 0.382516 0.138021
#
# Coordination Sequence:
#
# PCOD9270564 Si02
#       8
#     8   8   8   8   8   4   8   8
#     4  11  22  38  57  88 129 163 199 256 313 383
#     4  10  22  37  60  89 116 167 223 252 298 374
#     4  10  20  35  60  89 115 161 208 253 314 377
#     4  12  24  40  64  96 129 165 205 267 327 379
#     4  10  20  37  56  85 117 157 214 260 300 369
#     4  12  26  38  64  98 130 162 208 256 334 388
#     4  11  22  42  63  88 126 165 216 259 309 374
#     4  10  21  37  57  82 128 166 198 256 323 369
#
# _framework density 26.657903000000001
#
# number of rings (size 3 to 8) (size 9 to 14) (size 15 to 20)
#    0.000    1.333    5.333    0.800    5.600    0.000 
#    0.000    4.000    0.000    0.800    0.000    0.000 
#    0.000    0.000    0.000    0.000    0.000    0.000 
#
# Total GULP energy -167589.394321 kJ/mol
# GULP energy per Si atom -5586.313144 kJ/mol
# Density = 2.659723 g / cm^3
# Si number density = 26.657903 Si / 1000 Ang^3
#
#
#
# Elastic Constant Matrix: (Units=GPa)
#
#
# Indices 1 2 3 4 5 6 
#
# 1 42.5208 -2.2950 21.4008 0.0000 6.6256 0.0000
# 2 -2.2950 114.6433 20.0309 0.0000 -2.6923 0.0000
# 3 21.4008 20.0309 117.4938 0.0000 -1.2297 0.0000
# 4 0.0000 0.0000 0.0000 36.7546 0.0000 -2.6667
# 5 6.6256 -2.6923 -1.2297 0.0000 33.9217 0.0000
# 6 0.0000 0.0000 0.0000 -2.6667 0.0000 17.9218
#
#
#
# Elastic Compliance Matrix: (Units=1/GPa)
#
#
# Indices 1 2 3 4 5 6 
#
# 1 0.027047 0.001325 -0.005209 0.000000 -0.005366 0.000000
# 2 0.001325 0.009070 -0.001784 0.000000 0.000396 0.000000
# 3 -0.005209 -0.001784 0.009777 0.000000 0.001230 0.000000
# 4 0.000000 0.000000 0.000000 0.027504 0.000000 0.004093
# 5 -0.005366 0.000396 0.001230 0.000000 0.030604 0.000000
# 6 0.000000 0.000000 0.000000 0.004093 0.000000 0.056407
#
#
# Mechanical properties :
#
#
# Convention : Reuss Voigt Hill
#
# Bulk Modulus (GPa) = 28.93469 39.21461 34.07465
# Shear Modulus (GPa) = 27.28318 33.42103 30.35210
#
# Velocity S-wave (km/s) = 3.20262 3.54460 3.37794
# Velocity P-wave (km/s) = 4.95513 5.61200 5.29376
#
# Compressibility (1/GPa) = 0.03456060
#
# Stress axis : x y z
#
# Youngs Moduli (GPa) = 36.97247 110.25133 102.28336
#
# Poissons Ratio (x) = -0.14614 0.53276
# Poissons Ratio (y) = -0.04901 0.18243
# Poissons Ratio (z) = 0.19258 0.19665
#
# Static dielectric constant tensor:
#      x y z
#    x 2.046780 0.000000 -0.035530 
#    y 0.000000 2.147560 0.000000 
#    z -0.035530 0.000000 2.039430 
# 
# From -- ./inp_files/58111.got.cif
#   From: 2010.05.17/outbox.cif.g08.bks.cpg/sg15_30_cif.got.tgz:58111.got - 2010.06.03 18:47:42.
