data_PCOD9270537
_publ_section_title
;
Structure prediction by ZEFSAII (Michael W. Deem and Ramdas Pophale) SiO2 
 PCOD9270537
Probable space group: C 2/C
;
_chemical_formula_sum "Si O2"
_cell_formula_units_Z 56
_cell_length_a 21.788467
_cell_length_b 19.493210
_cell_length_c 17.224662
_cell_angle_alpha 90.000000
_cell_angle_beta 156.729599
_cell_angle_gamma 90.000000
_cell_volume 2890.253097
_symmetry_space_group_name_H-M "C 2/C"
_symmetry_group_IT_number 15
_symmetry_cell_setting 'monoclinic'
loop_
_space_group_symop_operation_xyz
x,y,z
-x,y,1/2-z
-x,-y,-z
x,-y,1/2+z
1/2+x,1/2+y,z
1/2-x,1/2+y,1/2-z
1/2-x,1/2-y,-z
1/2+x,1/2-y,1/2+z
loop_
_atom_site_type_symbol
_atom_site_label
_atom_site_fract_x
_atom_site_fract_y
_atom_site_fract_z
Si Si1 0.645948 0.234688 0.642972
Si Si2 0.164518 0.073341 0.759571
Si Si3 0.181096 0.658555 0.259944
Si Si4 0.963505 0.035019 0.119284
Si Si5 0.679665 0.989225 0.694133
Si Si6 0.679882 0.174082 0.433826
Si Si7 0.468233 0.339448 0.530438
O O1 0.702867 0.282018 0.636631
O O2 0.495056 0.188695 0.448506
O O3 0.590600 0.282338 0.649092
O O4 0.797380 0.192499 0.842607
O O5 0.055287 0.113403 0.572729
O O6 0.276982 0.027328 0.835878
O O7 0.240145 0.128908 0.905557
O O8 0.061659 0.020289 0.686537
O O9 0.203526 0.592535 0.231310
O O10 0.203548 0.639519 0.376422
O O11 0.000000 0.023372 0.250000
O O12 0.012751 0.111201 0.151563
O O13 0.787617 0.024235 0.885304
O O14 0.500000 0.000000 0.500000
O O15 0.500000 0.179913 0.250000
O O16 0.750000 0.250000 0.500000
#
# Coordination Sequence:
#
# PCOD9270537 Si02
#       7
#     8   8   8   8   8   8   8
#     4  10  20  35  60  84 112 151 196 240 293 360
#     4  11  23  38  58  85 119 158 199 240 293 364
#     4  11  20  35  56  84 116 153 193 242 297 353
#     4  11  23  40  61  86 118 158 200 246 299 356
#     4  11  22  39  63  87 116 158 205 252 298 358
#     4  12  24  37  55  87 127 161 195 243 303 368
#     4  10  20  38  58  83 111 147 193 241 292 353
#
# _framework density 19.375467
#
# number of rings (size 3 to 8) (size 9 to 14) (size 15 to 20)
#    0.000    1.143    0.000   10.286    0.000    1.714 
#    0.000    0.714    0.000    0.000    0.000    0.000 
#    0.000    0.000    0.000    0.000    0.000    0.000 
#
# Total GULP energy -156450.487690 kJ/mol
# GULP energy per Si atom -5587.517418 kJ/mol
# Density = 1.933137 g / cm^3
# Si number density = 19.375467 Si / 1000 Ang^3
#
#
#
# Elastic Constant Matrix: (Units=GPa)
#
#
# Indices 1 2 3 4 5 6 
#
# 1 37.0774 78.2850 80.5616 0.0000 53.0208 -0.0001
# 2 78.2850 83.5091 10.0960 0.0000 -21.0235 0.0000
# 3 80.5616 10.0960 61.2447 0.0000 -4.6776 0.0000
# 4 0.0000 0.0000 0.0000 28.0680 0.0000 -8.2938
# 5 53.0208 -21.0235 -4.6776 0.0000 -11.0585 0.0000
# 6 -0.0001 0.0000 0.0000 -8.2938 0.0000 73.0546
#
#
#
# Elastic Compliance Matrix: (Units=1/GPa)
#
#
# Indices 1 2 3 4 5 6 
#
# 1 0.004459 0.001513 -0.004555 0.000000 0.020428 0.000000
# 2 0.001513 0.009005 -0.004096 0.000000 -0.008130 0.000000
# 3 -0.004555 -0.004096 0.021235 0.000000 -0.023033 0.000000
# 4 0.000000 0.000000 0.000000 0.036864 0.000000 0.004185
# 5 0.020428 -0.008130 -0.023033 0.000000 0.032715 0.000000
# 6 0.000000 0.000000 0.000000 0.004185 0.000000 0.014164
#
#
# Mechanical properties :
#
#
# Convention : Reuss Voigt Hill
#
# Bulk Modulus (GPa) = 48.96154 57.74626 53.35390
# Shear Modulus (GPa) = 35.83614 18.87206 27.35410
#
# Velocity S-wave (km/s) = 4.30532 3.12431 3.76146
# Velocity P-wave (km/s) = 7.07383 6.54856 6.81626
#
# Compressibility (1/GPa) = 0.02042419
#
# Stress axis : x y z
#
# Youngs Moduli (GPa) = 224.26637 111.05544 47.09156
#
# Poissons Ratio (x) = -0.16808 0.21449
# Poissons Ratio (y) = -0.33941 0.19289
# Poissons Ratio (z) = 1.02145 0.45489
#
# Static dielectric constant tensor:
#      x y z
#    x 1.717480 0.000000 -0.034220 
#    y 0.000000 1.706020 0.000000 
#    z -0.034220 0.000000 1.720770 
# 
# From -- ./inp_files/163836.got.cif
#   From: 2010.05.17/outbox.cif.g08.bks.cpg/sg15_82_cif.got.tgz:163836.got - 2010.06.03 18:47:42.
