data_PCOD9270789
_publ_section_title
;
Structure prediction by ZEFSAII (Michael W. Deem and Ramdas Pophale) SiO2 
 PCOD9270789
Probable space group: C 2/C
;
_chemical_formula_sum "Si O2"
_cell_formula_units_Z 52
_cell_length_a 8.715053
_cell_length_b 29.210691
_cell_length_c 11.987331
_cell_angle_alpha 90.000000
_cell_angle_beta 122.786685
_cell_angle_gamma 90.000000
_cell_volume 2565.497038
_symmetry_space_group_name_H-M "C 2/C"
_symmetry_group_IT_number 15
_symmetry_cell_setting 'monoclinic'
loop_
_space_group_symop_operation_xyz
x,y,z
-x,y,1/2-z
-x,-y,-z
x,-y,1/2+z
1/2+x,1/2+y,z
1/2-x,1/2+y,1/2-z
1/2-x,1/2-y,-z
1/2+x,1/2-y,1/2+z
loop_
_atom_site_type_symbol
_atom_site_label
_atom_site_fract_x
_atom_site_fract_y
_atom_site_fract_z
Si Si1 0.965331 0.747327 0.608977
Si Si2 0.511770 0.665940 0.995543
Si Si3 0.810823 0.880219 0.738222
Si Si4 0.384002 0.851023 0.047278
Si Si5 0.914050 0.534899 0.330237
Si Si6 0.500000 0.624341 0.750000
Si Si7 0.864638 0.564777 0.868728
O O1 0.750000 0.750000 0.500000
O O2 0.048655 0.782298 0.552731
O O3 0.008627 0.693527 0.617176
O O4 0.000000 0.762442 0.750000
O O5 0.522313 0.654954 0.869826
O O6 0.655223 0.635886 0.123000
O O7 0.305371 0.653552 0.958114
O O8 0.666092 0.853249 0.604355
O O9 0.757006 0.933113 0.710595
O O10 0.000000 0.872638 0.750000
O O11 0.487674 0.897948 0.113765
O O12 0.858960 0.481979 0.296812
O O13 0.000000 0.551739 0.250000
O O14 0.062615 0.545384 0.484091
O O15 0.675657 0.591607 0.804338
#
# Coordination Sequence:
#
# PCOD9270789 Si02
#       7
#     8   8   8   8   8   4   8
#     4  10  20  35  65  94 117 153 208 255 293 352
#     4  10  21  38  60  90 122 156 197 245 300 359
#     4   9  18  38  62  90 116 155 200 249 296 351
#     4   9  20  38  67  86 117 155 203 249 293 357
#     4  10  21  39  63  82 117 153 206 243 297 358
#     4  12  26  38  56  84 136 154 192 246 312 354
#     4  10  24  40  56  91 115 159 197 246 299 361
#
# _framework density 20.268975999999999
#
# number of rings (size 3 to 8) (size 9 to 14) (size 15 to 20)
#    0.000    2.154    0.000    3.231    7.538    0.000 
#    0.000    2.308    6.769    0.000    0.000    0.000 
#    0.000    0.000    0.000    0.000    0.000    0.000 
#
# Total GULP energy -145044.686980 kJ/mol
# GULP energy per Si atom -5578.641807 kJ/mol
# Density = 2.022284 g / cm^3
# Si number density = 20.268976 Si / 1000 Ang^3
#
#
#
# Elastic Constant Matrix: (Units=GPa)
#
#
# Indices 1 2 3 4 5 6 
#
# 1 27.1369 17.3040 27.8917 0.0000 -6.4245 0.0000
# 2 17.3040 128.6712 37.7676 0.0000 -2.7913 0.0000
# 3 27.8917 37.7676 129.5159 0.0000 -21.4059 0.0000
# 4 0.0000 0.0000 0.0000 19.8744 0.0000 4.8264
# 5 -6.4245 -2.7913 -21.4059 0.0000 28.9194 0.0000
# 6 0.0000 0.0000 0.0000 4.8264 0.0000 13.3783
#
#
#
# Elastic Compliance Matrix: (Units=1/GPa)
#
#
# Indices 1 2 3 4 5 6 
#
# 1 0.049398 -0.003970 -0.008808 0.000000 0.004071 0.000000
# 2 -0.003970 0.008852 -0.001972 0.000000 -0.001487 0.000000
# 3 -0.008808 -0.001972 0.011209 0.000000 0.006150 0.000000
# 4 0.000000 0.000000 0.000000 0.055148 0.000000 -0.019895
# 5 0.004071 -0.001487 0.006150 0.000000 0.039892 0.000000
# 6 0.000000 0.000000 0.000000 -0.019895 0.000000 0.081926
#
#
# Mechanical properties :
#
#
# Convention : Reuss Voigt Hill
#
# Bulk Modulus (GPa) = 25.02472 50.13895 37.58183
# Shear Modulus (GPa) = 17.28646 25.92512 21.60579
#
# Velocity S-wave (km/s) = 2.92353 3.58027 3.26844
# Velocity P-wave (km/s) = 4.87536 6.47160 5.72934
#
# Compressibility (1/GPa) = 0.03996049
#
# Stress axis : x y z
#
# Youngs Moduli (GPa) = 20.24384 112.96577 89.21084
#
# Poissons Ratio (x) = 0.44843 0.78573
# Poissons Ratio (y) = 0.08036 0.17595
# Poissons Ratio (z) = 0.17830 0.22280
#
# Static dielectric constant tensor:
#      x y z
#    x 1.690970 0.000000 -0.013600 
#    y 0.000000 1.759380 0.000000 
#    z -0.013600 0.000000 1.754700 
# 
# From -- ./inp_files/81484.got.cif
#   From: 2010.05.17/outbox.cif.g08.bks.cpg/sg15_41_cif.got.tgz:81484.got - 2010.06.03 18:47:42.
