data_PCOD9270274
_publ_section_title
;
Structure prediction by ZEFSAII (Michael W. Deem and Ramdas Pophale) SiO2 
 PCOD9270274
Probable space group: C 2/C
;
_chemical_formula_sum "Si O2"
_cell_formula_units_Z 40
_cell_length_a 17.871628
_cell_length_b 11.073695
_cell_length_c 21.506151
_cell_angle_alpha 90.000000
_cell_angle_beta 23.916489
_cell_angle_gamma 90.000000
_cell_volume 1725.472822
_symmetry_space_group_name_H-M "C 2/C"
_symmetry_group_IT_number 15
_symmetry_cell_setting 'monoclinic'
loop_
_space_group_symop_operation_xyz
x,y,z
-x,y,1/2-z
-x,-y,-z
x,-y,1/2+z
1/2+x,1/2+y,z
1/2-x,1/2+y,1/2-z
1/2-x,1/2-y,-z
1/2+x,1/2-y,1/2+z
loop_
_atom_site_type_symbol
_atom_site_label
_atom_site_fract_x
_atom_site_fract_y
_atom_site_fract_z
Si Si1 0.401705 0.432163 0.502206
Si Si2 0.306428 0.048215 0.931364
Si Si3 0.298015 0.983989 0.229412
Si Si4 0.472076 0.808649 0.523196
Si Si5 0.215837 0.197067 0.106296
O O1 0.316681 0.436979 0.498139
O O2 0.596257 0.499851 0.351827
O O3 0.256590 0.501639 0.657188
O O4 0.449882 0.307920 0.500733
O O5 0.500000 0.035169 0.750000
O O6 0.221624 0.173798 0.968937
O O7 0.313484 0.082678 0.998341
O O8 0.430864 0.089708 0.105614
O O9 0.380109 0.861051 0.138646
O O10 0.285484 0.795805 0.623948
O O11 0.000000 0.186840 0.250000
#
# Coordination Sequence:
#
# PCOD9270274 Si02
#       5
#     8   8   8   8   8
#     4  11  21  37  62  90 123 164 210 260 315 373
#     4  10  21  35  56  86 120 158 202 252 310 373
#     4  10  22  36  58  88 123 158 208 260 310 369
#     4  11  22  38  61  91 123 162 210 262 312 374
#     4  10  20  35  57  85 121 158 200 255 315 365
#
# _framework density 23.182051000000001
#
# number of rings (size 3 to 8) (size 9 to 14) (size 15 to 20)
#    0.000    1.600    0.000    6.000    0.000    6.400 
#    0.000    0.000    0.000   24.000    0.000    0.000 
#    0.000    0.000    0.000    0.000    0.000    0.000 
#
# Total GULP energy -111597.811899 kJ/mol
# GULP energy per Si atom -5579.890595 kJ/mol
# Density = 2.312929 g / cm^3
# Si number density = 23.182051 Si / 1000 Ang^3
#
#
#
# Elastic Constant Matrix: (Units=GPa)
#
#
# Indices 1 2 3 4 5 6 
#
# 1 117.3517 56.2067 19.6597 0.0005 -6.6491 -0.0003
# 2 56.2067 106.7104 34.9643 -0.0015 5.1212 0.0001
# 3 19.6597 34.9643 103.8720 0.0016 -0.0933 -0.0007
# 4 0.0005 -0.0015 0.0016 21.9949 -0.0004 -0.7911
# 5 -6.6491 5.1212 -0.0933 -0.0004 21.7518 0.0008
# 6 -0.0003 0.0001 -0.0007 -0.7911 0.0008 39.6283
#
#
#
# Elastic Compliance Matrix: (Units=1/GPa)
#
#
# Indices 1 2 3 4 5 6 
#
# 1 0.011950 -0.006523 -0.000061 -0.000001 0.005188 0.000000
# 2 -0.006523 0.014231 -0.003560 0.000001 -0.005360 0.000000
# 3 -0.000061 -0.003560 0.010838 -0.000001 0.000866 0.000000
# 4 -0.000001 0.000001 -0.000001 0.045498 0.000000 0.000908
# 5 0.005188 -0.005360 0.000866 0.000000 0.048825 -0.000001
# 6 0.000000 0.000000 0.000000 0.000908 -0.000001 0.025253
#
#
# Mechanical properties :
#
#
# Convention : Reuss Voigt Hill
#
# Bulk Modulus (GPa) = 59.77631 61.06617 60.42124
# Shear Modulus (GPa) = 27.40315 31.14854 29.27584
#
# Velocity S-wave (km/s) = 3.44188 3.66956 3.55754
# Velocity P-wave (km/s) = 6.45267 6.65984 6.55707
#
# Compressibility (1/GPa) = 0.01672904
#
# Stress axis : x y z
#
# Youngs Moduli (GPa) = 83.68195 70.26948 92.26713
#
# Poissons Ratio (x) = 0.45839 0.00566
# Poissons Ratio (y) = 0.54588 0.32851
# Poissons Ratio (z) = 0.00513 0.25019
#
# Static dielectric constant tensor:
#      x y z
#    x 1.920060 0.000000 0.014390 
#    y 0.000000 1.890050 0.000000 
#    z 0.014390 0.000000 1.929510 
# 
# From -- ./inp_files/248517.got.cif
#   From: 2010.05.17/outbox.cif.g08.bks.cpg/sg15_125_cif.got.tgz:248517.got - 2010.06.03 18:47:42.
