data_PCOD9270095
_publ_section_title
;
Structure prediction by ZEFSAII (Michael W. Deem and Ramdas Pophale) SiO2 
 PCOD9270095
Probable space group: C 2/C
;
_chemical_formula_sum "Si O2"
_cell_formula_units_Z 56
_cell_length_a 25.672046
_cell_length_b 8.365119
_cell_length_c 12.617942
_cell_angle_alpha 90.000000
_cell_angle_beta 77.767170
_cell_angle_gamma 90.000000
_cell_volume 2648.174823
_symmetry_space_group_name_H-M "C 2/C"
_symmetry_group_IT_number 15
_symmetry_cell_setting 'monoclinic'
loop_
_space_group_symop_operation_xyz
x,y,z
-x,y,1/2-z
-x,-y,-z
x,-y,1/2+z
1/2+x,1/2+y,z
1/2-x,1/2+y,1/2-z
1/2-x,1/2-y,-z
1/2+x,1/2-y,1/2+z
loop_
_atom_site_type_symbol
_atom_site_label
_atom_site_fract_x
_atom_site_fract_y
_atom_site_fract_z
Si Si1 0.781176 0.230889 0.655504
Si Si2 0.685304 0.603920 0.309614
Si Si3 0.226772 0.479885 0.998929
Si Si4 0.058244 0.763039 0.085858
Si Si5 0.076315 0.749869 0.824509
Si Si6 0.500000 0.503043 0.250000
Si Si7 0.000000 0.503643 0.250000
Si Si8 0.676737 0.316134 0.060941
O O1 0.741853 0.322381 0.751397
O O2 0.805636 0.372639 0.571902
O O3 0.816673 0.091451 0.692899
O O4 0.744937 0.132437 0.587177
O O5 0.638450 0.709237 0.277344
O O6 0.677903 0.640050 0.436408
O O7 0.197779 0.635051 0.056499
O O8 0.280145 0.552311 0.918364
O O9 0.019049 0.900533 0.141974
O O10 0.031643 0.607113 0.148959
O O11 0.065940 0.751678 0.956076
O O12 0.114959 0.808071 0.115973
O O13 0.046493 0.596634 0.788689
O O14 0.046741 0.890498 0.775691
#
# Coordination Sequence:
#
# PCOD9270095 Si02
#       8
#     8   8   8   8   8   4   4   8
#     4  10  20  35  55  82 119 150 200 240 295 371
#     4  10  21  36  55  84 117 157 195 248 308 357
#     4   9  19  35  56  83 115 153 194 242 295 367
#     4  10  21  39  62  89 125 153 206 258 307 370
#     4  10  22  41  61  89 125 161 204 263 306 368
#     4  10  22  40  62  90 116 166 206 246 316 364
#     4  10  22  40  64  92 120 166 210 252 320 362
#     4   9  19  36  56  83 116 153 191 248 306 356
#
# _framework density 21.146639
#
# number of rings (size 3 to 8) (size 9 to 14) (size 15 to 20)
#    0.000    2.286    0.000    1.714    4.000    0.000 
#    0.000    7.143    0.000    0.000    0.000    0.000 
#    0.000    0.000    0.000    0.000    0.000    0.000 
#
# Total GULP energy -155996.442730 kJ/mol
# GULP energy per Si atom -5571.301526 kJ/mol
# Density = 2.109851 g / cm^3
# Si number density = 21.146639 Si / 1000 Ang^3
#
#
#
# Elastic Constant Matrix: (Units=GPa)
#
#
# Indices 1 2 3 4 5 6 
#
# 1 35.2010 3.3865 0.7845 0.0000 7.9815 0.0000
# 2 3.3865 96.7289 18.3922 0.0000 5.6436 0.0000
# 3 0.7845 18.3922 59.2262 0.0000 10.1838 0.0000
# 4 0.0000 0.0000 0.0000 -107.6445 0.0000 151.4956
# 5 7.9815 5.6436 10.1838 0.0000 21.8683 0.0000
# 6 0.0000 0.0000 0.0000 151.4956 0.0000 -185.9901
#
#
#
# Elastic Compliance Matrix: (Units=1/GPa)
#
#
# Indices 1 2 3 4 5 6 
#
# 1 0.031174 -0.000748 0.001894 0.000000 -0.012067 0.000000
# 2 -0.000748 0.011042 -0.003235 0.000000 -0.001070 0.000000
# 3 0.001894 -0.003235 0.019392 0.000000 -0.008887 0.000000
# 4 0.000000 0.000000 0.000000 0.063476 0.000000 0.051703
# 5 -0.012067 -0.001070 -0.008887 0.000000 0.054547 0.000000
# 6 0.000000 0.000000 0.000000 0.051703 0.000000 0.036737
#
#
# Mechanical properties :
#
#
# Convention : Reuss Voigt Hill
#
# Bulk Modulus (GPa) = 17.41214 26.25361 21.83287
# Shear Modulus (GPa) = 20.86036 -43.11374 -11.12669
#
# Velocity S-wave (km/s) = 3.14421 -4.52020 -2.29632
# Velocity P-wave (km/s) = 4.62961 3.84721 1.82102
#
# Compressibility (1/GPa) = 0.05743119
#
# Stress axis : x y z
#
# Youngs Moduli (GPa) = 32.07789 90.56405 51.56751
#
# Poissons Ratio (x) = 0.06770 -0.09767
# Poissons Ratio (y) = 0.02398 0.16682
# Poissons Ratio (z) = -0.06076 0.29298
#
# Static dielectric constant tensor:
#      x y z
#    x 1.826240 0.000000 0.030980 
#    y 0.000000 1.803180 0.000000 
#    z 0.030980 0.000000 1.772630 
# 
# From -- ./inp_files/176177.got.cif
#   From: 2010.05.17/outbox.cif.g08.bks.cpg/sg15_89_cif.got.tgz:176177.got - 2010.06.03 18:47:42.
