data_PCOD9270979
_publ_section_title
;
Structure prediction by ZEFSAII (Michael W. Deem and Ramdas Pophale) SiO2 
 PCOD9270979
Probable space group: C 2/C
;
_chemical_formula_sum "Si O2"
_cell_formula_units_Z 56
_cell_length_a 25.904697
_cell_length_b 20.384527
_cell_length_c 10.977484
_cell_angle_alpha 90.000000
_cell_angle_beta 27.797704
_cell_angle_gamma 90.000000
_cell_volume 2703.305075
_symmetry_space_group_name_H-M "C 2/C"
_symmetry_group_IT_number 15
_symmetry_cell_setting 'monoclinic'
loop_
_space_group_symop_operation_xyz
x,y,z
-x,y,1/2-z
-x,-y,-z
x,-y,1/2+z
1/2+x,1/2+y,z
1/2-x,1/2+y,1/2-z
1/2-x,1/2-y,-z
1/2+x,1/2-y,1/2+z
loop_
_atom_site_type_symbol
_atom_site_label
_atom_site_fract_x
_atom_site_fract_y
_atom_site_fract_z
Si Si1 0.344406 0.963193 0.758783
Si Si2 0.156000 0.319621 0.302458
Si Si3 0.687211 0.163336 0.012974
Si Si4 0.770572 0.111213 0.190724
Si Si5 0.623200 0.668880 0.310769
Si Si6 0.619995 0.698708 0.745831
Si Si7 0.083215 0.589373 0.758092
O O1 0.257807 0.953655 0.829134
O O2 0.469755 0.945296 0.455291
O O3 0.345952 0.031689 0.824943
O O4 0.322545 0.905773 0.900677
O O5 0.149697 0.342089 0.453415
O O6 0.137171 0.241697 0.339003
O O7 0.072134 0.357400 0.388423
O O8 0.277380 0.335132 0.993487
O O9 0.815847 0.184141 0.763239
O O10 0.625124 0.224027 0.208035
O O11 0.857404 0.116965 0.120363
O O12 0.653776 0.123152 0.503838
O O13 0.808668 0.164516 0.011871
O O14 0.501785 0.668799 0.507739
#
# Coordination Sequence:
#
# PCOD9270979 Si02
#       7
#     8   8   8   8   8   8   8
#     4  10  22  37  57  85 116 153 189 230 286 340
#     4  10  21  36  56  88 115 145 190 236 281 342
#     4  10  21  36  56  88 115 145 190 236 281 342
#     4  10  20  36  56  82 114 148 188 232 276 340
#     4  10  20  36  59  84 115 152 185 231 293 341
#     4  10  20  36  59  84 115 152 185 231 293 341
#     4  10  22  37  57  85 116 153 189 230 286 340
#
# _framework density 20.715382999999999
#
# number of rings (size 3 to 8) (size 9 to 14) (size 15 to 20)
#    0.000    2.000    1.429    1.714    2.000    2.286 
#    0.000    1.429    0.000   21.429    0.000    0.000 
#    0.000    0.000    0.000    0.000    0.000    0.000 
#
# Total GULP energy -156153.430117 kJ/mol
# GULP energy per Si atom -5576.908218 kJ/mol
# Density = 2.066823 g / cm^3
# Si number density = 20.715383 Si / 1000 Ang^3
#
#
#
# Elastic Constant Matrix: (Units=GPa)
#
#
# Indices 1 2 3 4 5 6 
#
# 1 42.4095 6.8116 5.8424 0.0000 -9.8945 0.0000
# 2 6.8116 61.3536 19.2632 0.0000 -9.6758 0.0000
# 3 5.8424 19.2632 42.8885 0.0001 -16.4599 -0.0001
# 4 0.0000 0.0000 0.0001 20.4283 0.0000 -10.9830
# 5 -9.8945 -9.6758 -16.4599 0.0000 34.3707 0.0000
# 6 0.0000 0.0000 -0.0001 -10.9830 0.0000 19.3032
#
#
#
# Elastic Compliance Matrix: (Units=1/GPa)
#
#
# Indices 1 2 3 4 5 6 
#
# 1 0.025455 -0.001728 -0.000081 0.000000 0.006803 0.000000
# 2 -0.001728 0.019159 -0.007952 0.000000 0.001088 0.000000
# 3 -0.000081 -0.007952 0.031893 0.000000 0.013011 0.000000
# 4 0.000000 0.000000 0.000000 0.070526 0.000000 0.040127
# 5 0.006803 0.001088 0.013011 0.000000 0.037590 0.000000
# 6 0.000000 0.000000 0.000000 0.040127 0.000000 0.074637
#
#
# Mechanical properties :
#
#
# Convention : Reuss Voigt Hill
#
# Bulk Modulus (GPa) = 17.54844 23.38734 20.46789
# Shear Modulus (GPa) = 16.79111 22.46940 19.63026
#
# Velocity S-wave (km/s) = 2.85013 3.29701 3.08168
# Velocity P-wave (km/s) = 4.39552 5.08016 4.75019
#
# Compressibility (1/GPa) = 0.05698514
#
# Stress axis : x y z
#
# Youngs Moduli (GPa) = 39.28436 52.19435 31.35533
#
# Poissons Ratio (x) = 0.09019 0.00253
# Poissons Ratio (y) = 0.06788 0.24935
# Poissons Ratio (z) = 0.00317 0.41507
#
# Static dielectric constant tensor:
#      x y z
#    x 1.769200 0.000000 -0.022120 
#    y 0.000000 1.718990 0.000000 
#    z -0.022120 0.000000 1.778350 
# 
# From -- ./inp_files/124142.got.cif
#   From: 2010.05.17/outbox.cif.g08.bks.cpg/sg15_63_cif.got.tgz:124142.got - 2010.06.03 18:47:42.
