data_PCOD9270215
_publ_section_title
;
Structure prediction by ZEFSAII (Michael W. Deem and Ramdas Pophale) SiO2 
 PCOD9270215
Probable space group: C 2/C
;
_chemical_formula_sum "Si O2"
_cell_formula_units_Z 56
_cell_length_a 15.247404
_cell_length_b 13.891128
_cell_length_c 12.115639
_cell_angle_alpha 90.000000
_cell_angle_beta 90.315984
_cell_angle_gamma 90.000000
_cell_volume 2566.097425
_symmetry_space_group_name_H-M "C 2/C"
_symmetry_group_IT_number 15
_symmetry_cell_setting 'monoclinic'
loop_
_space_group_symop_operation_xyz
x,y,z
-x,y,1/2-z
-x,-y,-z
x,-y,1/2+z
1/2+x,1/2+y,z
1/2-x,1/2+y,1/2-z
1/2-x,1/2-y,-z
1/2+x,1/2-y,1/2+z
loop_
_atom_site_type_symbol
_atom_site_label
_atom_site_fract_x
_atom_site_fract_y
_atom_site_fract_z
Si Si1 0.048205 0.884819 0.404308
Si Si2 0.105603 0.755561 0.071714
Si Si3 0.499843 0.898035 0.437511
Si Si4 0.191656 0.034059 0.771447
Si Si5 0.711514 0.326025 0.857849
Si Si6 0.135256 0.649098 0.742815
Si Si7 0.547056 0.579108 0.144396
O O1 0.061351 0.862033 0.533632
O O2 0.961012 0.828015 0.368733
O O3 0.137268 0.884227 0.336891
O O4 0.023769 0.997234 0.388069
O O5 0.188475 0.711219 0.135146
O O6 0.039170 0.675290 0.026770
O O7 0.154523 0.805162 0.967556
O O8 0.407803 0.871319 0.377061
O O9 0.567563 0.885760 0.336200
O O10 0.500000 0.000000 0.500000
O O11 0.214587 0.940173 0.843699
O O12 0.132343 0.982157 0.678036
O O13 0.279060 0.085402 0.734050
O O14 0.663275 0.260338 0.764633
O O15 0.500000 0.627597 0.250000
#
# Coordination Sequence:
#
# PCOD9270215 Si02
#       7
#     8   8   8   8   8   8   8
#     4  10  20  35  56  94 122 156 204 263 317 380
#     4  10  20  37  62  88 122 164 215 259 317 388
#     4  10  22  42  66  87 122 173 217 262 317 384
#     4  11  22  38  61  91 127 164 203 265 325 377
#     4  10  21  37  62  89 124 169 209 260 325 380
#     4  10  23  41  62  93 127 162 222 262 311 397
#     4   9  18  31  54  84 123 155 195 242 315 371
#
# _framework density 21.823022000000002
#
# number of rings (size 3 to 8) (size 9 to 14) (size 15 to 20)
#    0.000    2.000    0.000    4.286    2.000    3.429 
#    5.143    0.714    6.286    0.000    0.000    0.000 
#    0.000    0.000    0.000    0.000    0.000    0.000 
#
# Total GULP energy -156211.829193 kJ/mol
# GULP energy per Si atom -5578.993900 kJ/mol
# Density = 2.177335 g / cm^3
# Si number density = 21.823022 Si / 1000 Ang^3
#
#
#
# Elastic Constant Matrix: (Units=GPa)
#
#
# Indices 1 2 3 4 5 6 
#
# 1 120.9456 29.3245 27.1843 0.0000 9.2070 0.0000
# 2 29.3245 92.7994 21.1330 0.0000 -2.6965 0.0000
# 3 27.1843 21.1330 66.4668 0.0000 18.1656 0.0000
# 4 0.0000 0.0000 0.0000 21.1122 0.0000 1.8269
# 5 9.2070 -2.6965 18.1656 0.0000 27.2845 0.0000
# 6 0.0000 0.0000 0.0000 1.8269 0.0000 41.3676
#
#
#
# Elastic Compliance Matrix: (Units=1/GPa)
#
#
# Indices 1 2 3 4 5 6 
#
# 1 0.009599 -0.002474 -0.002674 0.000000 -0.001703 0.000000
# 2 -0.002474 0.012705 -0.004400 0.000000 0.005020 0.000000
# 3 -0.002674 -0.004400 0.021282 0.000000 -0.013702 0.000000
# 4 0.000000 0.000000 0.000000 0.047548 0.000000 -0.002100
# 5 -0.001703 0.005020 -0.013702 0.000000 0.046845 0.000000
# 6 0.000000 0.000000 0.000000 -0.002100 0.000000 0.024266
#
#
# Mechanical properties :
#
#
# Convention : Reuss Voigt Hill
#
# Bulk Modulus (GPa) = 40.82990 48.38836 44.60913
# Shear Modulus (GPa) = 26.38472 31.45751 28.92112
#
# Velocity S-wave (km/s) = 3.48089 3.80081 3.64436
# Velocity P-wave (km/s) = 5.90810 6.44071 6.18014
#
# Compressibility (1/GPa) = 0.02449185
#
# Stress axis : x y z
#
# Youngs Moduli (GPa) = 104.18206 78.70613 46.98719
#
# Poissons Ratio (x) = 0.19470 0.12563
# Poissons Ratio (y) = 0.25772 0.20674
# Poissons Ratio (z) = 0.27855 0.34630
#
# Static dielectric constant tensor:
#      x y z
#    x 1.822650 0.000000 0.026530 
#    y 0.000000 1.814500 0.000000 
#    z 0.026530 0.000000 1.883590 
# 
# From -- ./inp_files/97035.got.cif
#   From: 2010.05.17/outbox.cif.g08.bks.cpg/sg15_49_cif.got.tgz:97035.got - 2010.06.03 18:47:42.
