data_PCOD9270820
_publ_section_title
;
Structure prediction by ZEFSAII (Michael W. Deem and Ramdas Pophale) SiO2 
 PCOD9270820
Probable space group: C 2/C
;
_chemical_formula_sum "Si O2"
_cell_formula_units_Z 36
_cell_length_a 16.310590
_cell_length_b 25.160923
_cell_length_c 5.552347
_cell_angle_alpha 90.000000
_cell_angle_beta 63.021061
_cell_angle_gamma 90.000000
_cell_volume 2030.649774
_symmetry_space_group_name_H-M "C 2/C"
_symmetry_group_IT_number 15
_symmetry_cell_setting 'monoclinic'
loop_
_space_group_symop_operation_xyz
x,y,z
-x,y,1/2-z
-x,-y,-z
x,-y,1/2+z
1/2+x,1/2+y,z
1/2-x,1/2+y,1/2-z
1/2-x,1/2-y,-z
1/2+x,1/2-y,1/2+z
loop_
_atom_site_type_symbol
_atom_site_label
_atom_site_fract_x
_atom_site_fract_y
_atom_site_fract_z
Si Si1 0.833536 0.292569 0.857174
Si Si2 0.912503 0.862508 0.699927
Si Si3 0.105557 0.020537 0.390973
Si Si4 0.228081 0.686909 0.560713
Si Si5 0.000000 0.774904 0.250000
O O1 0.813497 0.326787 0.646102
O O2 0.928547 0.260987 0.698786
O O3 0.750000 0.250000 0.000000
O O4 0.833215 0.320220 0.119821
O O5 0.894352 0.916139 0.577263
O O6 0.939423 0.813063 0.497579
O O7 0.000000 0.873824 0.750000
O O8 0.823004 0.844762 0.965910
O O9 0.146865 0.993402 0.573661
O O10 0.000000 0.000000 0.500000
O O11 0.250000 0.750000 0.500000
#
# Coordination Sequence:
#
# PCOD9270820 Si02
#       5
#     8   8   8   8   4
#     4  10  20  36  45  68 106 123 171 228 236 292
#     4  12  22  30  56  72  94 150 184 196 266 306
#     4  10  20  36  45  68 106 123 171 228 236 292
#     4  10  20  36  45  68 106 123 171 228 236 292
#     4  12  22  30  56  72  94 150 184 196 266 306
#
# _framework density 17.728317000000001
#
# number of rings (size 3 to 8) (size 9 to 14) (size 15 to 20)
#    0.000    1.333    6.667    4.000    0.000    0.000 
#    0.000    0.000    0.000    0.000    0.000    0.000 
#    0.000    0.000    0.000   20.000    4.000    0.000 
#
# Total GULP energy -100344.899726 kJ/mol
# GULP energy per Si atom -5574.716651 kJ/mol
# Density = 1.768797 g / cm^3
# Si number density = 17.728317 Si / 1000 Ang^3
#
#
#
# Elastic Constant Matrix: (Units=GPa)
#
#
# Indices 1 2 3 4 5 6 
#
# 1 57.1726 21.3512 19.1713 0.0000 10.6249 0.0000
# 2 21.3512 41.8765 18.2333 0.0000 -14.7566 0.0000
# 3 19.1713 18.2333 100.3668 0.0000 34.1835 0.0000
# 4 0.0000 0.0000 0.0000 22.0035 0.0000 2.5121
# 5 10.6249 -14.7566 34.1835 0.0000 32.1691 0.0000
# 6 0.0000 0.0000 0.0000 2.5121 0.0000 2.1134
#
#
#
# Elastic Compliance Matrix: (Units=1/GPa)
#
#
# Indices 1 2 3 4 5 6 
#
# 1 0.041091 -0.052840 0.022925 0.000000 -0.062171 0.000000
# 2 -0.052840 0.126264 -0.060361 0.000000 0.139512 0.000000
# 3 0.022925 -0.060361 0.044757 0.000000 -0.082820 0.000000
# 4 0.000000 0.000000 0.000000 0.052583 0.000000 -0.062502
# 5 -0.062171 0.139512 -0.082820 0.000000 0.203623 0.000000
# 6 0.000000 0.000000 0.000000 -0.062502 0.000000 0.547459
#
#
# Mechanical properties :
#
#
# Convention : Reuss Voigt Hill
#
# Bulk Modulus (GPa) = 31.68528 35.21416 33.44972
# Shear Modulus (GPa) = 4.14302 20.63452 12.38877
#
# Velocity S-wave (km/s) = 1.53037 3.41534 2.64637
# Velocity P-wave (km/s) = 4.58631 5.95476 5.31476
#
# Compressibility (1/GPa) = 0.03156039
#
# Stress axis : x y z
#
# Youngs Moduli (GPa) = 24.33645 7.91992 22.34266
#
# Poissons Ratio (x) = 0.41849 -0.51220
# Poissons Ratio (y) = 1.28594 1.34862
# Poissons Ratio (z) = -0.55791 0.47805
#
# Static dielectric constant tensor:
#      x y z
#    x 1.685280 0.000000 0.029130 
#    y 0.000000 1.672260 0.000000 
#    z 0.029130 0.000000 1.725050 
# 
# From -- ./inp_files/4293.got.cif
#   From: 2010.05.17/outbox.cif.g08.bks.cpg/sg15_3_cif.got.tgz:4293.got - 2010.06.03 18:47:42.
