data_PCOD9270229
_publ_section_title
;
Structure prediction by ZEFSAII (Michael W. Deem and Ramdas Pophale) SiO2 
 PCOD9270229
Probable space group: C 2/C
;
_chemical_formula_sum "Si O2"
_cell_formula_units_Z 56
_cell_length_a 11.415546
_cell_length_b 29.518697
_cell_length_c 10.131442
_cell_angle_alpha 90.000000
_cell_angle_beta 127.141664
_cell_angle_gamma 90.000000
_cell_volume 2721.463441
_symmetry_space_group_name_H-M "C 2/C"
_symmetry_group_IT_number 15
_symmetry_cell_setting 'monoclinic'
loop_
_space_group_symop_operation_xyz
x,y,z
-x,y,1/2-z
-x,-y,-z
x,-y,1/2+z
1/2+x,1/2+y,z
1/2-x,1/2+y,1/2-z
1/2-x,1/2-y,-z
1/2+x,1/2-y,1/2+z
loop_
_atom_site_type_symbol
_atom_site_label
_atom_site_fract_x
_atom_site_fract_y
_atom_site_fract_z
Si Si1 0.170642 0.402204 0.080873
Si Si2 0.830512 0.474502 0.654812
Si Si3 0.330100 0.907923 0.890588
Si Si4 0.947279 0.859028 0.860299
Si Si5 0.933735 0.783292 0.057644
Si Si6 0.824652 0.934701 0.447820
Si Si7 0.126014 0.312063 0.930219
O O1 0.261391 0.421809 0.262842
O O2 0.184252 0.435058 0.963992
O O3 0.206175 0.351099 0.065933
O O4 0.001171 0.398415 0.007180
O O5 0.817700 0.452557 0.790652
O O6 0.703661 0.511878 0.554218
O O7 0.000000 0.492777 0.750000
O O8 0.226329 0.869351 0.757919
O O9 0.270802 0.914702 0.996990
O O10 0.000000 0.845228 0.750000
O O11 0.992403 0.820854 0.996050
O O12 0.021046 0.908529 0.936106
O O13 0.948886 0.729377 0.040874
O O14 0.000000 0.789520 0.250000
O O15 0.758049 0.790646 0.936864
O O16 0.000000 0.332240 0.750000
#
# Coordination Sequence:
#
# PCOD9270229 Si02
#       7
#     8   8   8   8   8   8   8
#     4  11  20  35  60  83 106 140 191 237 272 321
#     4  10  20  35  57  81 108 145 189 235 278 322
#     4  10  21  37  54  75 110 147 181 227 280 328
#     4  10  22  38  54  78 117 154 179 218 282 343
#     4  10  20  37  60  83 110 142 184 231 278 328
#     4  11  22  35  53  80 112 147 184 223 275 332
#     4  10  20  35  60  87 108 138 184 237 281 323
#
# _framework density 20.577162999999999
#
# number of rings (size 3 to 8) (size 9 to 14) (size 15 to 20)
#    0.000    1.714    0.000    6.000    0.000    2.857 
#    0.000    2.857    0.000   11.143    0.000    0.000 
#    0.000    0.000    0.000    0.000    0.000    0.000 
#
# Total GULP energy -156202.676947 kJ/mol
# GULP energy per Si atom -5578.667034 kJ/mol
# Density = 2.053033 g / cm^3
# Si number density = 20.577163 Si / 1000 Ang^3
#
#
#
# Elastic Constant Matrix: (Units=GPa)
#
#
# Indices 1 2 3 4 5 6 
#
# 1 29.0480 -5.5707 0.3748 0.0000 5.3694 0.0000
# 2 -5.5707 71.2008 4.6587 0.0000 -6.8219 0.0000
# 3 0.3748 4.6587 59.5867 0.0000 0.4223 0.0000
# 4 0.0000 0.0000 0.0000 24.7547 0.0000 3.6267
# 5 5.3694 -6.8219 0.4223 0.0000 17.9264 0.0000
# 6 0.0000 0.0000 0.0000 3.6267 0.0000 14.6857
#
#
#
# Elastic Compliance Matrix: (Units=1/GPa)
#
#
# Indices 1 2 3 4 5 6 
#
# 1 0.036692 0.001908 -0.000307 0.000000 -0.010257 0.000000
# 2 0.001908 0.014759 -0.001202 0.000000 0.005073 0.000000
# 3 -0.000307 -0.001202 0.016884 0.000000 -0.000763 0.000000
# 4 0.000000 0.000000 0.000000 0.041913 0.000000 -0.010350
# 5 -0.010257 0.005073 -0.000763 0.000000 0.060804 0.000000
# 6 0.000000 0.000000 0.000000 -0.010350 0.000000 0.070650
#
#
# Mechanical properties :
#
#
# Convention : Reuss Voigt Hill
#
# Bulk Modulus (GPa) = 14.46512 17.64014 16.05263
# Shear Modulus (GPa) = 18.94322 22.16487 20.55404
#
# Velocity S-wave (km/s) = 3.03742 3.28557 3.16393
# Velocity P-wave (km/s) = 4.39843 4.79422 4.60059
#
# Compressibility (1/GPa) = 0.06913183
#
# Stress axis : x y z
#
# Youngs Moduli (GPa) = 27.25423 67.75624 59.22912
#
# Poissons Ratio (x) = -0.12929 0.01820
# Poissons Ratio (y) = -0.05200 0.07119
# Poissons Ratio (z) = 0.00838 0.08143
#
# Static dielectric constant tensor:
#      x y z
#    x 1.740890 0.000000 0.014350 
#    y 0.000000 1.821700 0.000000 
#    z 0.014350 0.000000 1.730240 
# 
# From -- ./inp_files/35757.got.cif
#   From: 2010.05.17/outbox.cif.g08.bks.cpg/sg15_18_cif.got.tgz:35757.got - 2010.06.03 18:47:42.
