data_PCOD9270961
_publ_section_title
;
Structure prediction by ZEFSAII (Michael W. Deem and Ramdas Pophale) SiO2 
 PCOD9270961
Probable space group: C 2/C
;
_chemical_formula_sum "Si O2"
_cell_formula_units_Z 60
_cell_length_a 29.169174
_cell_length_b 8.096251
_cell_length_c 13.419548
_cell_angle_alpha 90.000000
_cell_angle_beta 102.066885
_cell_angle_gamma 90.000000
_cell_volume 3099.147923
_symmetry_space_group_name_H-M "C 2/C"
_symmetry_group_IT_number 15
_symmetry_cell_setting 'monoclinic'
loop_
_space_group_symop_operation_xyz
x,y,z
-x,y,1/2-z
-x,-y,-z
x,-y,1/2+z
1/2+x,1/2+y,z
1/2-x,1/2+y,1/2-z
1/2-x,1/2-y,-z
1/2+x,1/2-y,1/2+z
loop_
_atom_site_type_symbol
_atom_site_label
_atom_site_fract_x
_atom_site_fract_y
_atom_site_fract_z
Si Si1 0.740441 0.706694 0.610793
Si Si2 0.803325 0.494289 0.783448
Si Si3 0.463060 0.040750 0.898789
Si Si4 0.000000 0.788365 0.750000
Si Si5 0.627119 0.761658 0.106862
Si Si6 0.604887 0.774926 0.694727
Si Si7 0.138500 0.918025 0.024836
Si Si8 0.601300 0.570368 0.297245
O O1 0.750000 0.750000 0.500000
O O2 0.778116 0.590437 0.682378
O O3 0.731341 0.871286 0.673050
O O4 0.690998 0.611477 0.585856
O O5 0.825781 0.631172 0.867362
O O6 0.848808 0.387879 0.770125
O O7 0.441387 0.888014 0.826196
O O8 0.486469 0.172348 0.836044
O O9 0.417029 0.120141 0.928746
O O10 0.500000 0.000000 0.000000
O O11 0.046562 0.893547 0.791577
O O12 0.627104 0.610250 0.031993
O O13 0.619096 0.677653 0.211661
O O14 0.607659 0.692679 0.585609
O O15 0.606305 0.621267 0.770223
O O16 0.130278 0.875639 0.906830
#
# Coordination Sequence:
#
# PCOD9270961 Si02
#       8
#     8   8   8   4   8   8   8   8
#     4  11  23  37  60  86 111 147 187 232 284 333
#     4  10  21  40  57  80 116 146 184 234 276 335
#     4  10  20  36  56  80 109 142 183 223 265 323
#     4  10  22  34  54  82 110 144 176 224 276 312
#     4   9  20  37  56  78 110 148 179 220 277 324
#     4   9  21  37  57  80 108 149 184 221 278 328
#     4  10  20  36  57  80 107 144 183 223 273 328
#     4  10  20  37  56  81 113 142 183 229 270 327
#
# _framework density 19.360158999999999
#
# number of rings (size 3 to 8) (size 9 to 14) (size 15 to 20)
#    0.000    2.133    0.000    2.400    0.000    5.867 
#    0.000    8.667    0.000    0.000    0.000    0.000 
#    0.000    0.000    0.000    0.000    0.000    0.000 
#
# Total GULP energy -167442.998212 kJ/mol
# GULP energy per Si atom -5581.433274 kJ/mol
# Density = 1.931609 g / cm^3
# Si number density = 19.360159 Si / 1000 Ang^3
#
#
#
# Elastic Constant Matrix: (Units=GPa)
#
#
# Indices 1 2 3 4 5 6 
#
# 1 50.6101 31.3324 27.2513 0.0000 9.4536 0.0000
# 2 31.3324 91.3607 24.9874 0.0000 9.3576 0.0000
# 3 27.2513 24.9874 91.2158 0.0000 14.8437 0.0000
# 4 0.0000 0.0000 0.0000 14.4039 0.0000 0.7243
# 5 9.4536 9.3576 14.8437 0.0000 24.9928 0.0000
# 6 0.0000 0.0000 0.0000 0.7243 0.0000 26.9276
#
#
#
# Elastic Compliance Matrix: (Units=1/GPa)
#
#
# Indices 1 2 3 4 5 6 
#
# 1 0.028433 -0.007748 -0.005639 0.000000 -0.004505 0.000000
# 2 -0.007748 0.014119 -0.001295 0.000000 -0.001587 0.000000
# 3 -0.005639 -0.001295 0.013922 0.000000 -0.005651 0.000000
# 4 0.000000 0.000000 0.000000 0.069520 0.000000 -0.001870
# 5 -0.004505 -0.001587 -0.005651 0.000000 0.045666 0.000000
# 6 0.000000 0.000000 0.000000 -0.001870 0.000000 0.037187
#
#
# Mechanical properties :
#
#
# Convention : Reuss Voigt Hill
#
# Bulk Modulus (GPa) = 36.88494 44.48099 40.68297
# Shear Modulus (GPa) = 20.22265 23.23923 21.73094
#
# Velocity S-wave (km/s) = 3.23546 3.46838 3.35394
# Velocity P-wave (km/s) = 5.74899 6.25020 6.00483
#
# Compressibility (1/GPa) = 0.02711133
#
# Stress axis : x y z
#
# Youngs Moduli (GPa) = 35.17002 70.82470 71.82854
#
# Poissons Ratio (x) = 0.54872 0.40506
# Poissons Ratio (y) = 0.27248 0.09302
# Poissons Ratio (z) = 0.19833 0.09172
#
# Static dielectric constant tensor:
#      x y z
#    x 1.685710 0.000000 -0.005090 
#    y 0.000000 1.686010 0.000000 
#    z -0.005090 0.000000 1.653260 
# 
# From -- ./inp_files/125551.got.cif
#   From: 2010.05.17/outbox.cif.g08.bks.cpg/sg15_63_cif.got.tgz:125551.got - 2010.06.03 18:47:42.
