data_PCOD9270432
_publ_section_title
;
Structure prediction by ZEFSAII (Michael W. Deem and Ramdas Pophale) SiO2 
 PCOD9270432
Probable space group: C 2/C
;
_chemical_formula_sum "Si O2"
_cell_formula_units_Z 36
_cell_length_a 11.798104
_cell_length_b 28.514530
_cell_length_c 13.407125
_cell_angle_alpha 90.000000
_cell_angle_beta 22.355769
_cell_angle_gamma 90.000000
_cell_volume 1715.556314
_symmetry_space_group_name_H-M "C 2/C"
_symmetry_group_IT_number 15
_symmetry_cell_setting 'monoclinic'
loop_
_space_group_symop_operation_xyz
x,y,z
-x,y,1/2-z
-x,-y,-z
x,-y,1/2+z
1/2+x,1/2+y,z
1/2-x,1/2+y,1/2-z
1/2-x,1/2-y,-z
1/2+x,1/2-y,1/2+z
loop_
_atom_site_type_symbol
_atom_site_label
_atom_site_fract_x
_atom_site_fract_y
_atom_site_fract_z
Si Si1 0.347216 0.934453 0.481913
Si Si2 0.848751 0.538669 0.479100
Si Si3 0.897672 0.359904 0.718775
Si Si4 0.191346 0.345956 0.282536
Si Si5 0.000000 0.717067 0.750000
O O1 0.500000 0.935335 0.250000
O O2 0.525068 0.894623 0.393848
O O3 0.359249 0.986824 0.519138
O O4 0.000000 0.922241 0.750000
O O5 0.000000 0.530013 0.250000
O O6 0.016560 0.585751 0.374135
O O7 0.500000 0.550638 0.750000
O O8 0.000000 0.350476 0.750000
O O9 0.060547 0.331006 0.497511
O O10 0.544469 0.353165 0.001565
O O11 0.119422 0.313634 0.245666
O O12 0.250000 0.750000 0.500000
#
# Coordination Sequence:
#
# PCOD9270432 Si02
#       5
#     8   8   8   8   4
#     4  10  20  35  58  92 136 173 226 276 322 383
#     4   9  18  34  55  87 136 185 221 269 309 361
#     4  11  23  40  64  98 139 180 228 258 310 396
#     4  12  24  41  72  96 128 177 217 279 342 393
#     4  12  28  50  76 104 132 156 214 288 362 414
#
# _framework density 20.984445999999998
#
# number of rings (size 3 to 8) (size 9 to 14) (size 15 to 20)
#    0.000    1.333    1.111    6.000    1.556    1.778 
#    0.000    0.000    0.000   13.333    0.000    0.000 
#    0.000    0.000    0.000    0.000    0.000    0.000 
#
# Total GULP energy -100431.198688 kJ/mol
# GULP energy per Si atom -5579.511038 kJ/mol
# Density = 2.093668 g / cm^3
# Si number density = 20.984446 Si / 1000 Ang^3
#
#
#
# Elastic Constant Matrix: (Units=GPa)
#
#
# Indices 1 2 3 4 5 6 
#
# 1 182.5564 78.0820 96.5685 0.0010 -0.7087 -0.0002
# 2 78.0820 62.1746 53.9249 0.0006 -11.5810 -0.0001
# 3 96.5685 53.9249 236.9343 0.0025 -8.9978 -0.0004
# 4 0.0010 0.0006 0.0025 6.6537 -0.0007 4.1319
# 5 -0.7087 -11.5810 -8.9978 -0.0007 38.0213 0.0002
# 6 -0.0002 -0.0001 -0.0004 4.1319 0.0002 7.8875
#
#
#
# Elastic Compliance Matrix: (Units=1/GPa)
#
#
# Indices 1 2 3 4 5 6 
#
# 1 0.013350 -0.015982 -0.001997 -0.000001 -0.005092 0.000001
# 2 -0.015982 0.040190 -0.002199 0.000002 0.011423 -0.000001
# 3 -0.001997 -0.002199 0.005558 -0.000002 0.000608 0.000001
# 4 -0.000001 0.000002 -0.000002 0.222759 0.000004 -0.116693
# 5 -0.005092 0.011423 0.000608 0.000004 0.029830 -0.000003
# 6 0.000001 -0.000001 0.000001 -0.116693 -0.000003 0.187913
#
#
# Mechanical properties :
#
#
# Convention : Reuss Voigt Hill
#
# Bulk Modulus (GPa) = 53.35778 104.31290 78.83534
# Shear Modulus (GPa) = 9.15406 27.38515 18.26961
#
# Velocity S-wave (km/s) = 2.09088 3.61643 2.95384
# Velocity P-wave (km/s) = 5.59567 8.20095 7.02023
#
# Compressibility (1/GPa) = 0.01874141
#
# Stress axis : x y z
#
# Youngs Moduli (GPa) = 74.90479 24.88160 179.91397
#
# Poissons Ratio (x) = 0.39766 0.35931
# Poissons Ratio (y) = 1.19715 0.39569
# Poissons Ratio (z) = 0.14959 0.05472
#
# Static dielectric constant tensor:
#      x y z
#    x 1.835680 0.000000 0.019970 
#    y 0.000000 1.784280 0.000000 
#    z 0.019970 0.000000 1.691600 
# 
# From -- ./inp_files/149100.got.cif
#   From: 2010.05.17/outbox.cif.g08.bks.cpg/sg15_75_cif.got.tgz:149100.got - 2010.06.03 18:47:42.
