data_PCOD9270716
_publ_section_title
;
Structure prediction by ZEFSAII (Michael W. Deem and Ramdas Pophale) SiO2 
 PCOD9270716
Probable space group: C 2/C
;
_chemical_formula_sum "Si O2"
_cell_formula_units_Z 64
_cell_length_a 18.606273
_cell_length_b 16.696477
_cell_length_c 21.585645
_cell_angle_alpha 90.000000
_cell_angle_beta 26.256913
_cell_angle_gamma 90.000000
_cell_volume 2966.616013
_symmetry_space_group_name_H-M "C 2/C"
_symmetry_group_IT_number 15
_symmetry_cell_setting 'monoclinic'
loop_
_space_group_symop_operation_xyz
x,y,z
-x,y,1/2-z
-x,-y,-z
x,-y,1/2+z
1/2+x,1/2+y,z
1/2-x,1/2+y,1/2-z
1/2-x,1/2-y,-z
1/2+x,1/2-y,1/2+z
loop_
_atom_site_type_symbol
_atom_site_label
_atom_site_fract_x
_atom_site_fract_y
_atom_site_fract_z
Si Si1 0.154466 0.164669 0.582571
Si Si2 0.013160 0.591579 0.172774
Si Si3 0.117741 0.630538 0.871133
Si Si4 0.513089 0.651169 0.917686
Si Si5 0.407317 0.838708 0.636185
Si Si6 0.937708 0.820467 0.613222
Si Si7 0.993353 0.411119 0.174181
Si Si8 0.248274 0.328388 0.046156
O O1 0.250000 0.250000 0.500000
O O2 0.299686 0.105372 0.492082
O O3 0.000000 0.169061 0.750000
O O4 0.092439 0.136071 0.562259
O O5 0.000000 0.630611 0.250000
O O6 0.895323 0.632073 0.215012
O O7 0.954659 0.500744 0.223724
O O8 0.307796 0.615163 0.727697
O O9 0.080408 0.725550 0.887838
O O10 0.036784 0.590946 0.874834
O O11 0.037551 0.610991 0.998082
O O12 0.537571 0.747352 0.899207
O O13 0.464791 0.635028 0.026508
O O14 0.241160 0.843854 0.726751
O O15 0.078879 0.834496 0.553604
O O16 0.878831 0.344284 0.297447
O O17 0.176735 0.393654 0.054018
O O18 0.250000 0.250000 0.000000
#
# Coordination Sequence:
#
# PCOD9270716 Si02
#       8
#     8   8   8   8   8   8   8   8
#     4  12  25  41  68 102 132 181 236 286 335 398
#     4  12  24  44  66  91 142 185 227 276 349 423
#     4  10  20  38  62  93 132 169 221 281 339 410
#     4  10  20  36  62  93 129 163 229 281 321 389
#     4  10  22  35  60  94 127 175 215 280 338 396
#     4  10  20  35  62  96 125 160 223 287 328 386
#     4  11  24  42  66  96 131 184 217 277 362 415
#     4  11  21  40  67  97 124 167 230 280 337 413
#
# _framework density 21.573402000000002
#
# number of rings (size 3 to 8) (size 9 to 14) (size 15 to 20)
#    0.000    1.250    5.000    1.875    3.500    0.500 
#    0.000    3.125    0.000    0.000    0.000    0.000 
#    0.000    0.000    0.000    0.000    0.000    0.000 
#
# Total GULP energy -178283.320997 kJ/mol
# GULP energy per Si atom -5571.353781 kJ/mol
# Density = 2.152430 g / cm^3
# Si number density = 21.573402 Si / 1000 Ang^3
#
#
#
# Elastic Constant Matrix: (Units=GPa)
#
#
# Indices 1 2 3 4 5 6 
#
# 1 150.8633 -7.7491 18.7557 0.0031 -17.7867 -0.0008
# 2 -7.7491 17.5007 4.6664 0.0060 5.5162 -0.0029
# 3 18.7557 4.6664 70.9408 0.0049 -5.4807 -0.0036
# 4 0.0031 0.0060 0.0049 8.8635 -0.0013 1.0016
# 5 -17.7867 5.5162 -5.4807 -0.0013 43.6694 0.0008
# 6 -0.0008 -0.0029 -0.0036 1.0016 0.0008 13.7746
#
#
#
# Elastic Compliance Matrix: (Units=1/GPa)
#
#
# Indices 1 2 3 4 5 6 
#
# 1 0.007302 0.003012 -0.001947 -0.000003 0.002349 0.000001
# 2 0.003012 0.062236 -0.005456 -0.000043 -0.007319 0.000015
# 3 -0.001947 -0.005456 0.015108 -0.000004 0.001792 0.000003
# 4 -0.000003 -0.000043 -0.000004 0.113757 0.000007 -0.008271
# 5 0.002349 -0.007319 0.001792 0.000007 0.025006 -0.000003
# 6 0.000001 0.000015 0.000003 -0.008271 -0.000003 0.073199
#
#
# Mechanical properties :
#
#
# Convention : Reuss Voigt Hill
#
# Bulk Modulus (GPa) = 13.18125 30.07229 21.62677
# Shear Modulus (GPa) = 15.12045 28.17031 21.64538
#
# Velocity S-wave (km/s) = 2.65029 3.61749 3.17099
# Velocity P-wave (km/s) = 3.93556 5.60518 4.84287
#
# Compressibility (1/GPa) = 0.07586533
#
# Stress axis : x y z
#
# Youngs Moduli (GPa) = 136.94298 16.06783 66.18835
#
# Poissons Ratio (x) = -0.04840 0.12888
# Poissons Ratio (y) = -0.41248 0.36110
# Poissons Ratio (z) = 0.26666 0.08766
#
# Static dielectric constant tensor:
#      x y z
#    x 1.793170 0.000000 0.027960 
#    y 0.000000 1.791950 0.000000 
#    z 0.027960 0.000000 1.868560 
# 
# From -- ./inp_files/249626.got.cif
#   From: 2010.05.17/outbox.cif.g08.bks.cpg/sg15_125_cif.got.tgz:249626.got - 2010.06.03 18:47:42.
