data_PCOD9270208
_publ_section_title
;
Structure prediction by ZEFSAII (Michael W. Deem and Ramdas Pophale) SiO2 
 PCOD9270208
Probable space group: C 2/C
;
_chemical_formula_sum "Si O2"
_cell_formula_units_Z 56
_cell_length_a 27.497566
_cell_length_b 16.554284
_cell_length_c 17.984375
_cell_angle_alpha 90.000000
_cell_angle_beta 20.494348
_cell_angle_gamma 90.000000
_cell_volume 2866.227760
_symmetry_space_group_name_H-M "C 2/C"
_symmetry_group_IT_number 15
_symmetry_cell_setting 'monoclinic'
loop_
_space_group_symop_operation_xyz
x,y,z
-x,y,1/2-z
-x,-y,-z
x,-y,1/2+z
1/2+x,1/2+y,z
1/2-x,1/2+y,1/2-z
1/2-x,1/2-y,-z
1/2+x,1/2-y,1/2+z
loop_
_atom_site_type_symbol
_atom_site_label
_atom_site_fract_x
_atom_site_fract_y
_atom_site_fract_z
Si Si1 0.153043 0.755491 0.526921
Si Si2 0.165962 0.632116 0.648104
Si Si3 0.367803 0.148020 0.386454
Si Si4 0.174435 0.006623 0.166768
Si Si5 0.133124 0.349269 0.906491
Si Si6 0.905739 0.904035 0.565102
Si Si7 0.403349 0.247144 0.190686
O O1 0.159122 0.693109 0.587320
O O2 0.276281 0.818120 0.364572
O O3 0.158500 0.705488 0.443314
O O4 0.000000 0.794885 0.750000
O O5 0.277737 0.565939 0.466216
O O6 0.008934 0.600587 0.880436
O O7 0.500000 0.153736 0.250000
O O8 0.295451 0.060599 0.497940
O O9 0.413560 0.177868 0.238909
O O10 0.244903 0.209058 0.585749
O O11 0.029522 0.961533 0.360559
O O12 0.151782 0.057845 0.275215
O O13 0.275677 0.398019 0.695995
O O14 0.101520 0.291866 0.883019
O O15 0.978774 0.816456 0.471372
#
# Coordination Sequence:
#
# PCOD9270208 Si02
#       7
#     8   8   8   8   8   8   8
#     4   9  19  32  54  86 120 159 195 246 304 357
#     4  10  20  35  56  89 122 156 207 249 299 378
#     4  10  22  40  65  86 119 164 209 256 311 365
#     4  10  22  38  60  86 124 163 205 248 313 384
#     4  11  20  34  65  90 121 156 205 259 304 357
#     4  10  21  38  61  89 119 165 203 255 311 365
#     4  10  22  40  62  94 118 155 215 262 296 370
#
# _framework density 19.537876000000001
#
# number of rings (size 3 to 8) (size 9 to 14) (size 15 to 20)
#    0.000    2.000    1.429    1.714    6.000    0.000 
#    0.000    2.143    0.000    0.000    0.000    0.000 
#    0.000    0.000    0.000    0.000    0.000    0.000 
#
# Total GULP energy -156178.302145 kJ/mol
# GULP energy per Si atom -5577.796505 kJ/mol
# Density = 1.949341 g / cm^3
# Si number density = 19.537876 Si / 1000 Ang^3
#
#
#
# Elastic Constant Matrix: (Units=GPa)
#
#
# Indices 1 2 3 4 5 6 
#
# 1 64.1315 17.4364 35.0426 0.0003 -10.1087 -0.0002
# 2 17.4364 51.3723 49.3132 0.0005 -5.1455 -0.0003
# 3 35.0426 49.3132 106.4390 0.0003 -30.2181 -0.0002
# 4 0.0003 0.0005 0.0003 25.0287 -0.0002 7.5290
# 5 -10.1087 -5.1455 -30.2181 -0.0002 31.1822 0.0002
# 6 -0.0002 -0.0003 -0.0002 7.5290 0.0002 9.7901
#
#
#
# Elastic Compliance Matrix: (Units=1/GPa)
#
#
# Indices 1 2 3 4 5 6 
#
# 1 0.019037 -0.000960 -0.005678 0.000000 0.000511 0.000000
# 2 -0.000960 0.039958 -0.022642 -0.000001 -0.015660 0.000002
# 3 -0.005678 -0.022642 0.027827 0.000001 0.021390 -0.000001
# 4 0.000000 -0.000001 0.000001 0.051979 0.000001 -0.039974
# 5 0.000511 -0.015660 0.021390 0.000001 0.050380 -0.000002
# 6 0.000000 0.000002 -0.000001 -0.039974 -0.000002 0.132885
#
#
# Mechanical properties :
#
#
# Convention : Reuss Voigt Hill
#
# Bulk Modulus (GPa) = 35.38346 47.28079 41.33212
# Shear Modulus (GPa) = 12.81903 21.21027 17.01465
#
# Velocity S-wave (km/s) = 2.56425 3.29842 2.95423
# Velocity P-wave (km/s) = 5.18813 6.22560 5.73039
#
# Compressibility (1/GPa) = 0.02826179
#
# Stress axis : x y z
#
# Youngs Moduli (GPa) = 52.52971 25.02649 35.93649
#
# Poissons Ratio (x) = 0.02403 0.20403
# Poissons Ratio (y) = 0.05044 0.81368
# Poissons Ratio (z) = 0.29824 0.56665
#
# Static dielectric constant tensor:
#      x y z
#    x 1.650940 0.000000 0.006900 
#    y 0.000000 1.703780 0.000000 
#    z 0.006900 0.000000 1.730920 
# 
# From -- ./inp_files/222915.got.cif
#   From: 2010.05.17/outbox.cif.g08.bks.cpg/sg15_112_cif.got.tgz:222915.got - 2010.06.03 18:47:42.
