data_PCOD9270919
_publ_section_title
;
Structure prediction by ZEFSAII (Michael W. Deem and Ramdas Pophale) SiO2 
 PCOD9270919
Probable space group: C 2/C
;
_chemical_formula_sum "Si O2"
_cell_formula_units_Z 48
_cell_length_a 29.866548
_cell_length_b 11.704054
_cell_length_c 15.604487
_cell_angle_alpha 90.000000
_cell_angle_beta 155.216286
_cell_angle_gamma 90.000000
_cell_volume 2286.577554
_symmetry_space_group_name_H-M "C 2/C"
_symmetry_group_IT_number 15
_symmetry_cell_setting 'monoclinic'
loop_
_space_group_symop_operation_xyz
x,y,z
-x,y,1/2-z
-x,-y,-z
x,-y,1/2+z
1/2+x,1/2+y,z
1/2-x,1/2+y,1/2-z
1/2-x,1/2-y,-z
1/2+x,1/2-y,1/2+z
loop_
_atom_site_type_symbol
_atom_site_label
_atom_site_fract_x
_atom_site_fract_y
_atom_site_fract_z
Si Si1 0.893742 0.245442 0.509047
Si Si2 0.304675 0.470585 0.785193
Si Si3 0.389520 0.184912 0.606985
Si Si4 0.601290 0.010177 0.734457
Si Si5 0.756612 0.400873 0.158500
Si Si6 0.225762 0.327944 0.040735
O O1 0.888405 0.132867 0.439780
O O2 0.860265 0.349091 0.388334
O O3 0.801450 0.252113 0.422818
O O4 0.000000 0.252050 0.750000
O O5 0.190333 0.405598 0.577713
O O6 0.306695 0.529888 0.880403
O O7 0.305979 0.571053 0.715424
O O8 0.500000 0.205440 0.750000
O O9 0.414069 0.124476 0.738482
O O10 0.318731 0.296484 0.498398
O O11 0.704636 0.025921 0.853898
O O12 0.500000 0.000000 0.500000
O O13 0.623388 0.903328 0.834310
O O14 0.250000 0.250000 0.000000
#
# Coordination Sequence:
#
# PCOD9270919 Si02
#       6
#     8   8   8   8   8   8
#     4  10  20  37  57  80 110 147 186 230 282 338
#     4   9  20  36  56  78 109 146 185 226 278 339
#     4  10  21  36  55  81 111 146 188 234 285 339
#     4  11  21  34  57  84 111 147 190 236 283 340
#     4  10  20  36  55  80 113 147 186 236 285 338
#     4  10  21  37  57  81 112 147 184 232 282 332
#
# _framework density 20.992073000000001
#
# number of rings (size 3 to 8) (size 9 to 14) (size 15 to 20)
#    0.000    2.000    0.000    3.500    0.000    8.000 
#    0.000    0.833    0.000    0.000    0.000    0.000 
#    0.000    0.000    0.000    0.000    0.000    0.000 
#
# Total GULP energy -133788.763052 kJ/mol
# GULP energy per Si atom -5574.531794 kJ/mol
# Density = 2.094429 g / cm^3
# Si number density = 20.992073 Si / 1000 Ang^3
#
#
#
# Elastic Constant Matrix: (Units=GPa)
#
#
# Indices 1 2 3 4 5 6 
#
# 1 67.7780 9.0010 -4.4559 0.0000 -13.4279 0.0000
# 2 9.0010 71.8317 5.5484 0.0000 -9.2216 0.0000
# 3 -4.4559 5.5484 69.8628 0.0000 -14.0475 0.0000
# 4 0.0000 0.0000 0.0000 15.2199 0.0000 -24.2228
# 5 -13.4279 -9.2216 -14.0475 0.0000 25.2971 0.0000
# 6 0.0000 0.0000 0.0000 -24.2228 0.0000 51.2310
#
#
#
# Elastic Compliance Matrix: (Units=1/GPa)
#
#
# Indices 1 2 3 4 5 6 
#
# 1 0.017209 -0.001053 0.003310 0.000000 0.010589 0.000000
# 2 -0.001053 0.014670 -0.000303 0.000000 0.004620 0.000000
# 3 0.003310 -0.000303 0.016750 0.000000 0.010948 0.000000
# 4 0.000000 0.000000 0.000000 0.265466 0.000000 0.125517
# 5 0.010589 0.004620 0.010948 0.000000 0.052915 0.000000
# 6 0.000000 0.000000 0.000000 0.125517 0.000000 0.078866
#
#
# Mechanical properties :
#
#
# Convention : Reuss Voigt Hill
#
# Bulk Modulus (GPa) = 19.03351 25.51774 22.27562
# Shear Modulus (GPa) = 10.88186 31.64152 21.26169
#
# Velocity S-wave (km/s) = 2.27926 3.88662 3.18597
# Velocity P-wave (km/s) = 4.00168 5.68536 4.91613
#
# Compressibility (1/GPa) = 0.05253892
#
# Stress axis : x y z
#
# Youngs Moduli (GPa) = 58.10769 68.16661 59.70013
#
# Poissons Ratio (x) = 0.07176 -0.19764
# Poissons Ratio (y) = 0.06117 0.01810
# Poissons Ratio (z) = -0.19236 0.02067
#
# Static dielectric constant tensor:
#      x y z
#    x 1.740050 0.000000 0.005640 
#    y 0.000000 1.770350 0.000000 
#    z 0.005640 0.000000 1.784520 
# 
# From -- ./inp_files/151821.got.cif
#   From: 2010.05.17/outbox.cif.g08.bks.cpg/sg15_76_cif.got.tgz:151821.got - 2010.06.03 18:47:42.
