data_PCOD9270855
_publ_section_title
;
Structure prediction by ZEFSAII (Michael W. Deem and Ramdas Pophale) SiO2 
 PCOD9270855
Probable space group: C 2/C
;
_chemical_formula_sum "Si O2"
_cell_formula_units_Z 44
_cell_length_a 8.444210
_cell_length_b 27.641665
_cell_length_c 15.316279
_cell_angle_alpha 90.000000
_cell_angle_beta 27.864488
_cell_angle_gamma 90.000000
_cell_volume 1670.892247
_symmetry_space_group_name_H-M "C 2/C"
_symmetry_group_IT_number 15
_symmetry_cell_setting 'monoclinic'
loop_
_space_group_symop_operation_xyz
x,y,z
-x,y,1/2-z
-x,-y,-z
x,-y,1/2+z
1/2+x,1/2+y,z
1/2-x,1/2+y,1/2-z
1/2-x,1/2-y,-z
1/2+x,1/2-y,1/2+z
loop_
_atom_site_type_symbol
_atom_site_label
_atom_site_fract_x
_atom_site_fract_y
_atom_site_fract_z
Si Si1 0.911377 0.633337 0.028999
Si Si2 0.592697 0.588315 0.033919
Si Si3 0.000000 0.482539 0.250000
Si Si4 0.545205 0.960691 0.902437
Si Si5 0.197505 0.285881 0.290263
Si Si6 0.478145 0.307511 0.542120
O O1 0.500000 0.642495 0.250000
O O2 0.078972 0.592481 0.008138
O O3 0.911399 0.608942 0.932326
O O4 0.118303 0.682078 0.914928
O O5 0.689358 0.555183 0.905941
O O6 0.395629 0.636667 0.103289
O O7 0.423604 0.554702 0.189540
O O8 0.943512 0.514859 0.361686
O O9 0.500000 0.000000 0.000000
O O10 0.472941 0.301285 0.084868
O O11 0.842366 0.293730 0.409532
O O12 0.250755 0.231330 0.296721
#
# Coordination Sequence:
#
# PCOD9270855 Si02
#       6
#     8   8   4   8   8   8
#     4   9  18  32  51  73 108 142 177 219 266 323
#     4  10  20  36  53  78 113 142 181 226 272 320
#     4  12  22  38  54  78 110 150 188 232 264 318
#     4  11  23  36  56  77 106 150 188 227 271 318
#     4   9  17  27  45  74 108 138 169 206 271 334
#     4   9  18  27  46  75 107 140 167 210 268 336
#
# _framework density 26.333237
#
# number of rings (size 3 to 8) (size 9 to 14) (size 15 to 20)
#    0.000    2.182    1.818    2.727   10.182    0.000 
#    0.000    0.000    0.000    0.000    0.000    1.273 
#    0.000    0.000    0.000    0.000    0.000    0.000 
#
# Total GULP energy -122702.723992 kJ/mol
# GULP energy per Si atom -5577.396545 kJ/mol
# Density = 2.627330 g / cm^3
# Si number density = 26.333237 Si / 1000 Ang^3
#
#
#
# Elastic Constant Matrix: (Units=GPa)
#
#
# Indices 1 2 3 4 5 6 
#
# 1 60.9840 57.3076 49.7590 0.0000 21.2593 0.0000
# 2 57.3076 206.3187 87.2836 0.0000 35.2015 0.0000
# 3 49.7590 87.2836 127.9333 0.0000 41.5877 0.0000
# 4 0.0000 0.0000 0.0000 27.7900 0.0000 14.2279
# 5 21.2593 35.2015 41.5877 0.0000 47.2072 0.0000
# 6 0.0000 0.0000 0.0000 14.2279 0.0000 6.9960
#
#
#
# Elastic Compliance Matrix: (Units=1/GPa)
#
#
# Indices 1 2 3 4 5 6 
#
# 1 0.026714 -0.004103 -0.006551 0.000000 -0.003200 0.000000
# 2 -0.004103 0.007508 -0.003234 0.000000 -0.000903 0.000000
# 3 -0.006551 -0.003234 0.015173 0.000000 -0.008006 0.000000
# 4 0.000000 0.000000 0.000000 -0.872911 0.000000 1.775253
# 5 -0.003200 -0.000903 -0.008006 0.000000 0.030350 0.000000
# 6 0.000000 0.000000 0.000000 1.775253 0.000000 -3.467425
#
#
# Mechanical properties :
#
#
# Convention : Reuss Voigt Hill
#
# Bulk Modulus (GPa) = 46.25158 87.10404 66.67781
# Shear Modulus (GPa) = -1.18326 29.79102 14.30388
#
# Velocity S-wave (km/s) = -0.67106 3.36714 2.33317
# Velocity P-wave (km/s) = 4.12331 6.94739 5.71261
#
# Compressibility (1/GPa) = 0.02162088
#
# Stress axis : x y z
#
# Youngs Moduli (GPa) = 37.43397 133.18383 65.90682
#
# Poissons Ratio (x) = 0.54642 0.43174
# Poissons Ratio (y) = 0.15358 0.21311
# Poissons Ratio (z) = 0.24522 0.43065
#
# Static dielectric constant tensor:
#      x y z
#    x 2.213210 0.000000 -0.061380 
#    y 0.000000 2.115030 0.000000 
#    z -0.061380 0.000000 2.126650 
# 
# From -- ./inp_files/200725.got.cif
#   From: 2010.05.17/outbox.cif.g08.bks.cpg/sg15_101_cif.got.tgz:200725.got - 2010.06.03 18:47:42.
