data_PCOD9270118
_publ_section_title
;
Structure prediction by ZEFSAII (Michael W. Deem and Ramdas Pophale) SiO2 
 PCOD9270118
Probable space group: C 2/C
;
_chemical_formula_sum "Si O2"
_cell_formula_units_Z 60
_cell_length_a 18.984257
_cell_length_b 21.337534
_cell_length_c 9.970174
_cell_angle_alpha 90.000000
_cell_angle_beta 58.839505
_cell_angle_gamma 90.000000
_cell_volume 3455.993177
_symmetry_space_group_name_H-M "C 2/C"
_symmetry_group_IT_number 15
_symmetry_cell_setting 'monoclinic'
loop_
_space_group_symop_operation_xyz
x,y,z
-x,y,1/2-z
-x,-y,-z
x,-y,1/2+z
1/2+x,1/2+y,z
1/2-x,1/2+y,1/2-z
1/2-x,1/2-y,-z
1/2+x,1/2-y,1/2+z
loop_
_atom_site_type_symbol
_atom_site_label
_atom_site_fract_x
_atom_site_fract_y
_atom_site_fract_z
Si Si1 0.843551 0.683487 0.796871
Si Si2 0.415409 0.968661 0.537712
Si Si3 0.785819 0.399528 0.836080
Si Si4 0.713004 0.917970 0.364514
Si Si5 0.087094 0.076088 0.212032
Si Si6 0.500000 0.876206 0.250000
Si Si7 0.647566 0.498949 0.393299
Si Si8 0.719964 0.679818 0.167600
O O1 0.810697 0.630394 0.728350
O O2 0.824156 0.753729 0.768886
O O3 0.939070 0.667102 0.724403
O O4 0.792937 0.680835 0.986258
O O5 0.370818 0.929080 0.698108
O O6 0.440062 0.921676 0.394184
O O7 0.500000 0.000000 0.500000
O O8 0.351369 0.023790 0.563743
O O9 0.716012 0.451914 0.877593
O O10 0.759496 0.343027 0.767003
O O11 0.788213 0.385705 0.990006
O O12 0.801149 0.947761 0.242039
O O13 0.087425 0.034444 0.348273
O O14 0.154502 0.129237 0.176027
O O15 0.000000 0.103469 0.250000
O O16 0.111782 0.032788 0.061342
#
# Coordination Sequence:
#
# PCOD9270118 Si02
#       8
#     8   8   8   8   8   4   8   8
#     4  11  23  40  60  82 114 158 199 236 281 343
#     4  11  21  33  55  92 127 150 186 237 304 354
#     4  10  21  36  58  84 117 154 192 236 285 357
#     4  11  21  35  59  84 118 157 187 235 295 352
#     4  11  21  36  59  87 114 145 189 245 292 342
#     4  12  22  38  60  92 118 154 194 248 290 352
#     4  10  20  35  55  86 116 145 186 232 300 344
#     4  10  23  41  59  82 113 157 204 233 279 346
#
# _framework density 17.361145
#
# number of rings (size 3 to 8) (size 9 to 14) (size 15 to 20)
#    0.000    1.333    5.333    1.200    2.800    0.533 
#    0.000    0.000    0.000    0.000    3.467    0.000 
#    0.000    0.000    0.000    0.000    0.000    0.000 
#
# Total GULP energy -167360.632087 kJ/mol
# GULP energy per Si atom -5578.687736 kJ/mol
# Density = 1.732163 g / cm^3
# Si number density = 17.361145 Si / 1000 Ang^3
#
#
#
# Elastic Constant Matrix: (Units=GPa)
#
#
# Indices 1 2 3 4 5 6 
#
# 1 52.3892 6.7823 -15.1199 0.0000 4.4665 0.0000
# 2 6.7823 72.7155 3.4509 0.0000 3.7379 0.0000
# 3 -15.1199 3.4509 41.6046 0.0000 12.9373 0.0000
# 4 0.0000 0.0000 0.0000 24.4431 0.0000 -0.9704
# 5 4.4665 3.7379 12.9373 0.0000 20.6593 0.0000
# 6 0.0000 0.0000 0.0000 -0.9704 0.0000 21.6256
#
#
#
# Elastic Compliance Matrix: (Units=1/GPa)
#
#
# Indices 1 2 3 4 5 6 
#
# 1 0.024247 -0.002212 0.013040 0.000000 -0.013008 0.000000
# 2 -0.002212 0.014090 -0.001650 0.000000 -0.001038 0.000000
# 3 0.013040 -0.001650 0.036876 0.000000 -0.025614 0.000000
# 4 0.000000 0.000000 0.000000 0.040984 0.000000 0.001839
# 5 -0.013008 -0.001038 -0.025614 0.000000 0.067444 0.000000
# 6 0.000000 0.000000 0.000000 0.001839 0.000000 0.046324
#
#
# Mechanical properties :
#
#
# Convention : Reuss Voigt Hill
#
# Bulk Modulus (GPa) = 10.68711 17.43731 14.06221
# Shear Modulus (GPa) = 20.59319 24.78533 22.68926
#
# Velocity S-wave (km/s) = 3.44781 3.78250 3.61903
# Velocity P-wave (km/s) = 4.69244 5.39834 5.05772
#
# Compressibility (1/GPa) = 0.09357066
#
# Stress axis : x y z
#
# Youngs Moduli (GPa) = 41.24272 70.97148 27.11764
#
# Poissons Ratio (x) = 0.15697 -0.35362
# Poissons Ratio (y) = 0.09122 0.04473
# Poissons Ratio (z) = -0.53781 0.11708
#
# Static dielectric constant tensor:
#      x y z
#    x 1.587410 0.000000 -0.002580 
#    y 0.000000 1.584830 0.000000 
#    z -0.002580 0.000000 1.609580 
# 
# From -- ./inp_files/50636.got.cif
#   From: 2010.05.17/outbox.cif.g08.bks.cpg/sg15_26_cif.got.tgz:50636.got - 2010.06.03 18:47:42.
