data_PCOD9270886
_publ_section_title
;
Structure prediction by ZEFSAII (Michael W. Deem and Ramdas Pophale) SiO2 
 PCOD9270886
Probable space group: C 2/C
;
_chemical_formula_sum "Si O2"
_cell_formula_units_Z 52
_cell_length_a 15.995787
_cell_length_b 7.406052
_cell_length_c 23.948055
_cell_angle_alpha 90.000000
_cell_angle_beta 45.301682
_cell_angle_gamma 90.000000
_cell_volume 2016.611921
_symmetry_space_group_name_H-M "C 2/C"
_symmetry_group_IT_number 15
_symmetry_cell_setting 'monoclinic'
loop_
_space_group_symop_operation_xyz
x,y,z
-x,y,1/2-z
-x,-y,-z
x,-y,1/2+z
1/2+x,1/2+y,z
1/2-x,1/2+y,1/2-z
1/2-x,1/2-y,-z
1/2+x,1/2-y,1/2+z
loop_
_atom_site_type_symbol
_atom_site_label
_atom_site_fract_x
_atom_site_fract_y
_atom_site_fract_z
Si Si1 0.130524 0.534005 0.361956
Si Si2 0.599866 0.492389 0.559613
Si Si3 0.244951 0.050536 0.893200
Si Si4 0.066013 0.384716 0.613248
Si Si5 0.500000 0.298349 0.250000
Si Si6 0.660549 0.542157 0.819097
Si Si7 0.712776 0.441807 0.618748
O O1 0.239244 0.461641 0.274258
O O2 0.165064 0.498860 0.409922
O O3 0.005925 0.482329 0.393191
O O4 0.132420 0.751928 0.350999
O O5 0.628552 0.418701 0.485121
O O6 0.608569 0.710892 0.558573
O O7 0.464011 0.456453 0.639944
O O8 0.693580 0.427202 0.561614
O O9 0.307100 0.239526 0.849672
O O10 0.328744 0.954228 0.897943
O O11 0.210189 0.953451 0.852625
O O12 0.979309 0.317765 0.704101
O O13 0.388511 0.422610 0.314836
#
# Coordination Sequence:
#
# PCOD9270886 Si02
#       7
#     8   8   8   8   4   8   8
#     4  10  20  36  54  84 109 141 187 231 287 326
#     4  10  21  40  57  80 116 157 185 221 283 339
#     4  11  22  37  58  87 112 148 194 230 269 333
#     4  10  21  36  58  82 114 146 184 237 278 332
#     4  10  20  38  56  80 112 150 182 228 300 328
#     4  10  22  37  60  81 112 147 186 236 278 333
#     4  10  21  36  58  80 113 148 184 232 277 336
#
# _framework density 25.785826
#
# number of rings (size 3 to 8) (size 9 to 14) (size 15 to 20)
#    0.000    1.846    0.000    5.077    0.000    5.538 
#    0.000    0.769    0.000    0.000    0.000    0.000 
#    0.000    0.000    0.000    0.000    0.000    0.000 
#
# Total GULP energy -145344.132882 kJ/mol
# GULP energy per Si atom -5590.158957 kJ/mol
# Density = 2.572714 g / cm^3
# Si number density = 25.785826 Si / 1000 Ang^3
#
#
#
# Elastic Constant Matrix: (Units=GPa)
#
#
# Indices 1 2 3 4 5 6 
#
# 1 209.5078 3.5057 27.0782 0.0000 9.4973 0.0008
# 2 3.5057 41.5484 -14.0039 0.0001 -5.5272 0.0017
# 3 27.0782 -14.0039 69.4345 0.0000 16.1122 0.0001
# 4 0.0000 0.0001 0.0000 22.2051 0.0000 3.4027
# 5 9.4973 -5.5272 16.1122 0.0000 34.9506 0.0001
# 6 0.0008 0.0017 0.0001 3.4027 0.0001 23.3867
#
#
#
# Elastic Compliance Matrix: (Units=1/GPa)
#
#
# Indices 1 2 3 4 5 6 
#
# 1 0.005091 -0.001215 -0.002088 0.000000 -0.000613 0.000000
# 2 -0.001215 0.026225 0.005290 0.000000 0.002039 -0.000002
# 3 -0.002088 0.005290 0.017869 0.000000 -0.006834 0.000000
# 4 0.000000 0.000000 0.000000 0.046062 0.000000 -0.006702
# 5 -0.000613 0.002039 -0.006834 0.000000 0.032251 0.000000
# 6 0.000000 -0.000002 0.000000 -0.006702 0.000000 0.043734
#
#
# Mechanical properties :
#
#
# Convention : Reuss Voigt Hill
#
# Bulk Modulus (GPa) = 18.81164 39.29452 29.05308
# Shear Modulus (GPa) = 27.03018 36.36921 31.69970
#
# Velocity S-wave (km/s) = 3.24119 3.75965 3.51001
# Velocity P-wave (km/s) = 4.61717 5.84110 5.26483
#
# Compressibility (1/GPa) = 0.05315859
#
# Stress axis : x y z
#
# Youngs Moduli (GPa) = 196.42106 38.13153 55.96265
#
# Poissons Ratio (x) = 0.04633 0.11686
# Poissons Ratio (y) = 0.23864 -0.29604
# Poissons Ratio (z) = 0.41018 -0.20171
#
# Static dielectric constant tensor:
#      x y z
#    x 2.130870 0.000000 -0.013050 
#    y 0.000000 2.097530 0.000000 
#    z -0.013050 0.000000 2.022800 
# 
# From -- ./inp_files/242408.got.cif
#   From: 2010.05.17/outbox.cif.g08.bks.cpg/sg15_122_cif.got.tgz:242408.got - 2010.06.03 18:47:42.
