data_PCOD9270622
_publ_section_title
;
Structure prediction by ZEFSAII (Michael W. Deem and Ramdas Pophale) SiO2 
 PCOD9270622
Probable space group: C 2/C
;
_chemical_formula_sum "Si O2"
_cell_formula_units_Z 48
_cell_length_a 21.754468
_cell_length_b 6.987044
_cell_length_c 17.950408
_cell_angle_alpha 90.000000
_cell_angle_beta 67.959465
_cell_angle_gamma 90.000000
_cell_volume 2529.052627
_symmetry_space_group_name_H-M "C 2/C"
_symmetry_group_IT_number 15
_symmetry_cell_setting 'monoclinic'
loop_
_space_group_symop_operation_xyz
x,y,z
-x,y,1/2-z
-x,-y,-z
x,-y,1/2+z
1/2+x,1/2+y,z
1/2-x,1/2+y,1/2-z
1/2-x,1/2-y,-z
1/2+x,1/2-y,1/2+z
loop_
_atom_site_type_symbol
_atom_site_label
_atom_site_fract_x
_atom_site_fract_y
_atom_site_fract_z
Si Si1 0.497097 0.720344 0.519075
Si Si2 0.160115 0.775869 0.760507
Si Si3 0.078473 0.468825 0.701563
Si Si4 0.396778 0.677630 0.690216
Si Si5 0.398431 0.996659 0.482628
Si Si6 0.795221 0.447216 0.649790
O O1 0.500000 0.500000 0.500000
O O2 0.462044 0.740812 0.615363
O O3 0.449447 0.827949 0.482529
O O4 0.567840 0.821199 0.492112
O O5 0.118106 0.630943 0.729180
O O6 0.191676 0.645864 0.811907
O O7 0.219759 0.879708 0.689002
O O8 0.114545 0.951524 0.808140
O O9 0.097319 0.265442 0.730386
O O10 0.099628 0.477777 0.606191
O O11 0.000000 0.498714 0.750000
O O12 0.337434 0.786015 0.674732
O O13 0.327893 0.961110 0.553401
#
# Coordination Sequence:
#
# PCOD9270622 Si02
#       6
#     8   8   8   8   8   8
#     4  10  20  35  61  87 114 160 205 248 296 349
#     4  11  22  39  67  89 116 165 202 249 304 354
#     4  11  24  40  58  90 133 159 192 251 308 362
#     4  10  21  38  61  88 118 159 203 248 300 355
#     4  10  22  39  55  88 127 153 198 256 292 355
#     4  10  21  40  64  88 117 154 211 251 288 360
#
# _framework density 18.979438999999999
#
# number of rings (size 3 to 8) (size 9 to 14) (size 15 to 20)
#    0.000    1.667    3.333    1.000    4.667    2.667 
#    0.000    0.833    0.000    0.000    0.000    0.000 
#    0.000    0.000    0.000    0.000    0.000    0.000 
#
# Total GULP energy -133988.592793 kJ/mol
# GULP energy per Si atom -5582.858033 kJ/mol
# Density = 1.893624 g / cm^3
# Si number density = 18.979439 Si / 1000 Ang^3
#
#
#
# Elastic Constant Matrix: (Units=GPa)
#
#
# Indices 1 2 3 4 5 6 
#
# 1 54.3461 7.8769 13.8056 0.0000 -11.2441 0.0000
# 2 7.8769 109.7794 0.4299 0.0001 15.7848 0.0003
# 3 13.8056 0.4299 92.8413 0.0000 9.9135 0.0001
# 4 0.0000 0.0001 0.0000 20.9644 0.0000 -6.8426
# 5 -11.2441 15.7848 9.9135 0.0000 23.3427 0.0000
# 6 0.0000 0.0003 0.0001 -6.8426 0.0000 13.8102
#
#
#
# Elastic Compliance Matrix: (Units=1/GPa)
#
#
# Indices 1 2 3 4 5 6 
#
# 1 0.023711 -0.004036 -0.005256 0.000000 0.016383 0.000000
# 2 -0.004036 0.010823 0.001612 0.000000 -0.009948 0.000000
# 3 -0.005256 0.001612 0.012499 0.000000 -0.008930 0.000000
# 4 0.000000 0.000000 0.000000 0.056902 0.000000 0.028193
# 5 0.016383 -0.009948 -0.008930 0.000000 0.061251 0.000000
# 6 0.000000 0.000000 0.000000 0.028193 0.000000 0.086379
#
#
# Mechanical properties :
#
#
# Convention : Reuss Voigt Hill
#
# Bulk Modulus (GPa) = 31.57453 33.46574 32.52014
# Shear Modulus (GPa) = 18.01912 27.28040 22.64976
#
# Velocity S-wave (km/s) = 3.08458 3.79537 3.45829
# Velocity P-wave (km/s) = 5.41835 6.07268 5.75482
#
# Compressibility (1/GPa) = 0.03167110
#
# Stress axis : x y z
#
# Youngs Moduli (GPa) = 42.17532 92.39736 80.00756
#
# Poissons Ratio (x) = 0.37295 0.42056
# Poissons Ratio (y) = 0.17024 -0.12900
# Poissons Ratio (z) = 0.22169 -0.14897
#
# Static dielectric constant tensor:
#      x y z
#    x 1.651660 0.000000 -0.023250 
#    y 0.000000 1.647110 0.000000 
#    z -0.023250 0.000000 1.676280 
# 
# From -- ./inp_files/217734.got.cif
#   From: 2010.05.17/outbox.cif.g08.bks.cpg/sg15_109_cif.got.tgz:217734.got - 2010.06.03 18:47:42.
