data_PCOD9270713
_publ_section_title
;
Structure prediction by ZEFSAII (Michael W. Deem and Ramdas Pophale) SiO2 
 PCOD9270713
Probable space group: C 2/C
;
_chemical_formula_sum "Si O2"
_cell_formula_units_Z 60
_cell_length_a 21.272189
_cell_length_b 11.226766
_cell_length_c 17.983276
_cell_angle_alpha 90.000000
_cell_angle_beta 139.198421
_cell_angle_gamma 90.000000
_cell_volume 2806.353357
_symmetry_space_group_name_H-M "C 2/C"
_symmetry_group_IT_number 15
_symmetry_cell_setting 'monoclinic'
loop_
_space_group_symop_operation_xyz
x,y,z
-x,y,1/2-z
-x,-y,-z
x,-y,1/2+z
1/2+x,1/2+y,z
1/2-x,1/2+y,1/2-z
1/2-x,1/2-y,-z
1/2+x,1/2-y,1/2+z
loop_
_atom_site_type_symbol
_atom_site_label
_atom_site_fract_x
_atom_site_fract_y
_atom_site_fract_z
Si Si1 0.837893 0.630150 0.002252
Si Si2 0.623380 0.649815 0.423478
Si Si3 0.000000 0.590629 0.250000
Si Si4 0.632304 0.047698 0.089225
Si Si5 0.326627 0.395452 0.031867
Si Si6 0.968495 0.330579 0.349445
Si Si7 0.785072 0.780369 0.652722
Si Si8 0.136834 0.438751 0.769303
O O1 0.864231 0.766714 0.041901
O O2 0.909507 0.549594 0.116664
O O3 0.855128 0.583280 0.934956
O O4 0.731177 0.613277 0.941198
O O5 0.603624 0.508859 0.407653
O O6 0.537304 0.738969 0.367496
O O7 0.708904 0.680002 0.558562
O O8 0.664915 0.678659 0.379202
O O9 0.065305 0.655002 0.244533
O O10 0.720296 0.119156 0.131268
O O11 0.638001 0.058529 0.182261
O O12 0.534179 0.108975 0.971365
O O13 0.240648 0.422481 0.896384
O O14 0.870891 0.261634 0.283102
O O15 0.920935 0.439342 0.259874
#
# Coordination Sequence:
#
# PCOD9270713 Si02
#       8
#     8   8   4   8   8   8   8   8
#     4  10  21  39  65  89 125 171 216 259 305 382
#     4  10  20  35  62  95 125 160 211 265 318 379
#     4  10  22  38  62  94 120 162 220 268 306 376
#     4  11  23  41  63  99 125 168 217 262 322 385
#     4  10  21  41  61  89 128 173 210 259 313 376
#     4  11  22  36  64  96 129 162 204 264 326 377
#     4  10  21  36  62  93 127 160 207 268 322 378
#     4  11  23  39  66  92 126 165 218 264 320 384
#
# _framework density 21.380057999999998
#
# number of rings (size 3 to 8) (size 9 to 14) (size 15 to 20)
#    0.000    1.600    4.000    0.800    1.867    1.067 
#    2.400    0.000    0.000    1.600    0.000    0.000 
#    0.000    0.000    0.000    0.000    0.000    0.000 
#
# Total GULP energy -167139.670332 kJ/mol
# GULP energy per Si atom -5571.322344 kJ/mol
# Density = 2.133140 g / cm^3
# Si number density = 21.380058 Si / 1000 Ang^3
#
#
#
# Elastic Constant Matrix: (Units=GPa)
#
#
# Indices 1 2 3 4 5 6 
#
# 1 90.3897 28.2975 38.4520 0.0000 -15.0349 0.0000
# 2 28.2975 110.1154 17.3410 0.0000 -0.1921 0.0000
# 3 38.4520 17.3410 81.0257 0.0000 5.4661 0.0000
# 4 0.0000 0.0000 0.0000 20.2802 0.0000 11.0136
# 5 -15.0349 -0.1921 5.4661 0.0000 40.5353 0.0000
# 6 0.0000 0.0000 0.0000 11.0136 0.0000 24.6315
#
#
#
# Elastic Compliance Matrix: (Units=1/GPa)
#
#
# Indices 1 2 3 4 5 6 
#
# 1 0.016437 -0.003009 -0.007636 0.000000 0.007112 0.000000
# 2 -0.003009 0.009953 -0.000636 0.000000 -0.000983 0.000000
# 3 -0.007636 -0.000636 0.016442 0.000000 -0.005053 0.000000
# 4 0.000000 0.000000 0.000000 0.065123 0.000000 -0.029119
# 5 0.007112 -0.000983 -0.005053 0.000000 0.027984 0.000000
# 6 0.000000 0.000000 0.000000 -0.029119 0.000000 0.053618
#
#
# Mechanical properties :
#
#
# Convention : Reuss Voigt Hill
#
# Bulk Modulus (GPa) = 49.33302 49.96798 49.65050
# Shear Modulus (GPa) = 22.84399 30.25208 26.54804
#
# Velocity S-wave (km/s) = 3.27229 3.76569 3.52763
# Velocity P-wave (km/s) = 6.11569 6.50609 6.31391
#
# Compressibility (1/GPa) = 0.02027040
#
# Stress axis : x y z
#
# Youngs Moduli (GPa) = 60.84017 100.47183 60.81805
#
# Poissons Ratio (x) = 0.30231 0.46441
# Poissons Ratio (y) = 0.18306 0.03867
# Poissons Ratio (z) = 0.46458 0.06389
#
# Static dielectric constant tensor:
#      x y z
#    x 1.850600 0.000000 0.001480 
#    y 0.000000 2.102000 0.000000 
#    z 0.001480 0.000000 1.798170 
# 
# From -- ./inp_files/215212.got.cif
#   From: 2010.05.17/outbox.cif.g08.bks.cpg/sg15_108_cif.got.tgz:215212.got - 2010.06.03 18:47:42.
