data_PCOD9270577
_publ_section_title
;
Structure prediction by ZEFSAII (Michael W. Deem and Ramdas Pophale) SiO2 
 PCOD9270577
Probable space group: C 2/C
;
_chemical_formula_sum "Si O2"
_cell_formula_units_Z 52
_cell_length_a 9.327726
_cell_length_b 20.117314
_cell_length_c 17.525245
_cell_angle_alpha 90.000000
_cell_angle_beta 58.510407
_cell_angle_gamma 90.000000
_cell_volume 2804.296886
_symmetry_space_group_name_H-M "C 2/C"
_symmetry_group_IT_number 15
_symmetry_cell_setting 'monoclinic'
loop_
_space_group_symop_operation_xyz
x,y,z
-x,y,1/2-z
-x,-y,-z
x,-y,1/2+z
1/2+x,1/2+y,z
1/2-x,1/2+y,1/2-z
1/2-x,1/2-y,-z
1/2+x,1/2-y,1/2+z
loop_
_atom_site_type_symbol
_atom_site_label
_atom_site_fract_x
_atom_site_fract_y
_atom_site_fract_z
Si Si1 0.649279 0.375784 0.816990
Si Si2 0.500000 0.521439 0.250000
Si Si3 0.000000 0.764702 0.750000
Si Si4 0.000000 0.696153 0.250000
Si Si5 0.894762 0.940968 0.421627
Si Si6 0.735989 0.297612 0.431634
Si Si7 0.092136 0.212702 0.578469
Si Si8 0.138315 0.066759 0.988133
O O1 0.635843 0.431700 0.754729
O O2 0.569312 0.311446 0.798287
O O3 0.833940 0.351129 0.790452
O O4 0.522210 0.405175 0.917087
O O5 0.414726 0.474997 0.335345
O O6 0.859217 0.721340 0.829303
O O7 0.974920 0.745300 0.330017
O O8 0.852545 0.863927 0.422965
O O9 0.068538 0.942297 0.422137
O O10 0.794615 0.996888 0.498360
O O11 0.750000 0.250000 0.500000
O O12 0.552003 0.291246 0.445646
O O13 0.765537 0.372507 0.451948
O O14 0.250000 0.250000 0.500000
#
# Coordination Sequence:
#
# PCOD9270577 Si02
#       8
#     8   4   4   4   8   8   8   8
#     4  10  20  35  60  91 119 157 200 245 304 363
#     4   9  19  36  62  86 114 160 206 240 294 374
#     4  11  20  36  57  95 119 156 206 248 295 364
#     4  12  21  36  57  91 127 150 196 262 309 358
#     4   9  18  35  58  83 114 157 208 235 297 372
#     4  11  21  36  61  90 123 155 204 256 301 355
#     4  11  24  37  60  90 120 160 200 254 311 359
#     4   9  18  35  60  83 115 162 198 243 299 362
#
# _framework density 18.542973
#
# number of rings (size 3 to 8) (size 9 to 14) (size 15 to 20)
#    0.000    1.846    3.077    2.308    0.000    0.000 
#    0.000    0.000    0.000   48.923    0.000    0.000 
#    0.000    0.000    0.000    0.000    0.000    0.000 
#
# Total GULP energy -144781.876027 kJ/mol
# GULP energy per Si atom -5568.533693 kJ/mol
# Density = 1.850077 g / cm^3
# Si number density = 18.542973 Si / 1000 Ang^3
#
#
#
# Elastic Constant Matrix: (Units=GPa)
#
#
# Indices 1 2 3 4 5 6 
#
# 1 61.8901 33.8275 17.9600 0.0000 2.4702 0.0000
# 2 33.8275 159.7561 41.1126 0.0000 0.0687 0.0000
# 3 17.9600 41.1126 71.1563 0.0000 4.9326 0.0000
# 4 0.0000 0.0000 0.0000 34.0841 0.0000 7.0223
# 5 2.4702 0.0687 4.9326 0.0000 29.2153 0.0000
# 6 0.0000 0.0000 0.0000 7.0223 0.0000 20.8030
#
#
#
# Elastic Compliance Matrix: (Units=1/GPa)
#
#
# Indices 1 2 3 4 5 6 
#
# 1 0.018793 -0.003263 -0.002781 0.000000 -0.001112 0.000000
# 2 -0.003263 0.007934 -0.003823 0.000000 0.000903 0.000000
# 3 -0.002781 -0.003823 0.017148 0.000000 -0.002651 0.000000
# 4 0.000000 0.000000 0.000000 0.031532 0.000000 -0.010644
# 5 -0.001112 0.000903 -0.002651 0.000000 0.034768 0.000000
# 6 0.000000 0.000000 0.000000 -0.010644 0.000000 0.051663
#
#
# Mechanical properties :
#
#
# Convention : Reuss Voigt Hill
#
# Bulk Modulus (GPa) = 41.42395 53.17806 47.30100
# Shear Modulus (GPa) = 26.36870 30.14731 28.25801
#
# Velocity S-wave (km/s) = 3.77508 4.03651 3.90798
# Velocity P-wave (km/s) = 6.43347 7.10387 6.77697
#
# Compressibility (1/GPa) = 0.02414063
#
# Stress axis : x y z
#
# Youngs Moduli (GPa) = 53.21260 126.04080 58.31548
#
# Poissons Ratio (x) = 0.41128 0.16217
# Poissons Ratio (y) = 0.17364 0.22294
# Poissons Ratio (z) = 0.14798 0.48186
#
# Static dielectric constant tensor:
#      x y z
#    x 1.622480 0.000000 0.014690 
#    y 0.000000 1.698130 0.000000 
#    z 0.014690 0.000000 1.658890 
# 
# From -- ./inp_files/136014.got.cif
#   From: 2010.05.17/outbox.cif.g08.bks.cpg/sg15_69_cif.got.tgz:136014.got - 2010.06.03 18:47:42.
