data_PCOD9270720
_publ_section_title
;
Structure prediction by ZEFSAII (Michael W. Deem and Ramdas Pophale) SiO2 
 PCOD9270720
Probable space group: C 2/C
;
_chemical_formula_sum "Si O2"
_cell_formula_units_Z 48
_cell_length_a 9.315189
_cell_length_b 21.384698
_cell_length_c 13.873106
_cell_angle_alpha 90.000000
_cell_angle_beta 114.099526
_cell_angle_gamma 90.000000
_cell_volume 2522.679024
_symmetry_space_group_name_H-M "C 2/C"
_symmetry_group_IT_number 15
_symmetry_cell_setting 'monoclinic'
loop_
_space_group_symop_operation_xyz
x,y,z
-x,y,1/2-z
-x,-y,-z
x,-y,1/2+z
1/2+x,1/2+y,z
1/2-x,1/2+y,1/2-z
1/2-x,1/2-y,-z
1/2+x,1/2-y,1/2+z
loop_
_atom_site_type_symbol
_atom_site_label
_atom_site_fract_x
_atom_site_fract_y
_atom_site_fract_z
Si Si1 0.000000 0.311003 0.250000
Si Si2 0.000000 0.494564 0.750000
Si Si3 0.887341 0.795248 0.492268
Si Si4 0.402676 0.776723 0.595946
Si Si5 0.809577 0.207370 0.284179
Si Si6 0.843875 0.595758 0.578772
Si Si7 0.111909 0.605547 0.129604
O O1 0.855714 0.266102 0.231920
O O2 0.974799 0.354344 0.150710
O O3 0.124072 0.537620 0.842564
O O4 0.084000 0.450289 0.695692
O O5 0.750000 0.750000 0.500000
O O6 0.813999 0.863495 0.453285
O O7 0.961824 0.764784 0.416776
O O8 0.033565 0.801778 0.607584
O O9 0.250000 0.750000 0.500000
O O10 0.338280 0.777732 0.687511
O O11 0.461758 0.847324 0.590827
O O12 0.757408 0.148255 0.206241
O O13 0.863812 0.581985 0.471991
#
# Coordination Sequence:
#
# PCOD9270720 Si02
#       7
#     4   4   8   8   8   8   8
#     4  11  20  36  62 102 126 161 208 268 340 377
#     4  11  26  42  62  88 126 187 226 256 316 393
#     4  11  19  38  64 103 132 162 209 275 337 380
#     4  10  20  35  62  97 130 163 204 270 335 383
#     4  11  21  34  64  99 133 169 207 268 337 392
#     4  11  23  39  62  91 128 167 221 266 312 391
#     4  12  21  41  62  91 128 169 225 266 314 390
#
# _framework density 19.027391999999999
#
# number of rings (size 3 to 8) (size 9 to 14) (size 15 to 20)
#    0.000    1.000    5.000    3.500    0.000    0.000 
#    0.000    0.833    0.000    0.000    0.000    0.000 
#    0.000    0.000    0.000    0.000    0.000    0.000 
#
# Total GULP energy -133868.765945 kJ/mol
# GULP energy per Si atom -5577.865248 kJ/mol
# Density = 1.898408 g / cm^3
# Si number density = 19.027392 Si / 1000 Ang^3
#
#
#
# Elastic Constant Matrix: (Units=GPa)
#
#
# Indices 1 2 3 4 5 6 
#
# 1 118.8677 41.4888 46.5385 0.0000 -1.9223 0.0000
# 2 41.4888 119.9310 61.3420 0.0000 -5.2111 0.0000
# 3 46.5385 61.3420 140.0730 0.0000 -9.4368 0.0000
# 4 0.0000 0.0000 0.0000 40.6349 0.0000 -3.1822
# 5 -1.9223 -5.2111 -9.4368 0.0000 50.0533 0.0000
# 6 0.0000 0.0000 0.0000 -3.1822 0.0000 25.0144
#
#
#
# Elastic Compliance Matrix: (Units=1/GPa)
#
#
# Indices 1 2 3 4 5 6 
#
# 1 0.010145 -0.002304 -0.002382 0.000000 -0.000299 0.000000
# 2 -0.002304 0.011271 -0.004150 0.000000 0.000303 0.000000
# 3 -0.002382 -0.004150 0.009837 0.000000 0.001331 0.000000
# 4 0.000000 0.000000 0.000000 0.024857 0.000000 0.003162
# 5 -0.000299 0.000303 0.001331 0.000000 0.020250 0.000000
# 6 0.000000 0.000000 0.000000 0.003162 0.000000 0.040379
#
#
# Mechanical properties :
#
#
# Convention : Reuss Voigt Hill
#
# Bulk Modulus (GPa) = 73.62955 75.29004 74.45980
# Shear Modulus (GPa) = 35.98737 38.44068 37.21402
#
# Velocity S-wave (km/s) = 4.35368 4.49963 4.42726
# Velocity P-wave (km/s) = 8.00333 8.16399 8.08406
#
# Compressibility (1/GPa) = 0.01358150
#
# Stress axis : x y z
#
# Youngs Moduli (GPa) = 98.57507 88.72316 101.65250
#
# Poissons Ratio (x) = 0.20445 0.24209
# Poissons Ratio (y) = 0.22715 0.42185
# Poissons Ratio (z) = 0.23476 0.36819
#
# Static dielectric constant tensor:
#      x y z
#    x 1.668480 0.000000 0.021110 
#    y 0.000000 1.656050 0.000000 
#    z 0.021110 0.000000 1.770700 
# 
# From -- ./inp_files/136225.got.cif
#   From: 2010.05.17/outbox.cif.g08.bks.cpg/sg15_69_cif.got.tgz:136225.got - 2010.06.03 18:47:42.
