data_PCOD9270509
_publ_section_title
;
Structure prediction by ZEFSAII (Michael W. Deem and Ramdas Pophale) SiO2 
 PCOD9270509
Probable space group: C 2/C
;
_chemical_formula_sum "Si O2"
_cell_formula_units_Z 48
_cell_length_a 12.893407
_cell_length_b 22.354744
_cell_length_c 11.279884
_cell_angle_alpha 90.000000
_cell_angle_beta 134.430012
_cell_angle_gamma 90.000000
_cell_volume 2321.692853
_symmetry_space_group_name_H-M "C 2/C"
_symmetry_group_IT_number 15
_symmetry_cell_setting 'monoclinic'
loop_
_space_group_symop_operation_xyz
x,y,z
-x,y,1/2-z
-x,-y,-z
x,-y,1/2+z
1/2+x,1/2+y,z
1/2-x,1/2+y,1/2-z
1/2-x,1/2-y,-z
1/2+x,1/2-y,1/2+z
loop_
_atom_site_type_symbol
_atom_site_label
_atom_site_fract_x
_atom_site_fract_y
_atom_site_fract_z
Si Si1 0.331796 0.456633 0.806193
Si Si2 0.426866 0.574846 0.809740
Si Si3 0.284297 0.333461 0.346450
Si Si4 0.340529 0.872241 0.001718
Si Si5 0.441618 0.980006 0.325489
Si Si6 0.992402 0.748289 0.881831
O O1 0.375471 0.506975 0.745326
O O2 0.258666 0.402527 0.677057
O O3 0.223074 0.496500 0.800572
O O4 0.460283 0.433411 0.991658
O O5 0.500000 0.599227 0.750000
O O6 0.300179 0.617617 0.756441
O O7 0.240322 0.365132 0.436221
O O8 0.163101 0.282849 0.222393
O O9 0.440589 0.301356 0.487838
O O10 0.394126 0.806283 0.015071
O O11 0.484722 0.913989 0.120724
O O12 0.500000 0.008417 0.250000
O O13 0.500000 0.000000 0.500000
O O14 0.000000 0.767470 0.750000
#
# Coordination Sequence:
#
# PCOD9270509 Si02
#       6
#     8   8   8   8   8   8
#     4  10  24  39  63  91 126 172 205 259 325 386
#     4  11  26  41  58  88 130 170 216 259 312 387
#     4  11  24  41  67  93 130 166 212 273 318 377
#     4  10  20  37  67  95 126 153 213 263 329 377
#     4  10  20  35  59  90 126 163 205 255 314 391
#     4  10  21  39  66 101 123 160 210 270 329 372
#
# _framework density 20.674571
#
# number of rings (size 3 to 8) (size 9 to 14) (size 15 to 20)
#    0.000    1.667    0.000    5.500   14.000    0.000 
#    0.000    0.833    0.000    0.000    0.000    0.000 
#    0.000    0.000    0.000    0.000    0.000    0.000 
#
# Total GULP energy -133790.214190 kJ/mol
# GULP energy per Si atom -5574.592258 kJ/mol
# Density = 2.062751 g / cm^3
# Si number density = 20.674571 Si / 1000 Ang^3
#
#
#
# Elastic Constant Matrix: (Units=GPa)
#
#
# Indices 1 2 3 4 5 6 
#
# 1 104.9941 18.9368 0.2562 0.0000 -0.0021 0.0000
# 2 18.9368 57.2596 12.0281 0.0000 -10.0903 0.0000
# 3 0.2562 12.0281 59.7742 0.0000 4.0986 0.0000
# 4 0.0000 0.0000 0.0000 38.9346 0.0000 7.0255
# 5 -0.0021 -10.0903 4.0986 0.0000 25.9524 0.0000
# 6 0.0000 0.0000 0.0000 7.0255 0.0000 21.4525
#
#
#
# Elastic Compliance Matrix: (Units=1/GPa)
#
#
# Indices 1 2 3 4 5 6 
#
# 1 0.010215 -0.003841 0.000841 0.000000 -0.001625 0.000000
# 2 -0.003841 0.021366 -0.004905 0.000000 0.009081 0.000000
# 3 0.000841 -0.004905 0.018039 0.000000 -0.004756 0.000000
# 4 0.000000 0.000000 0.000000 0.027297 0.000000 -0.008940
# 5 -0.001625 0.009081 -0.004756 0.000000 0.042814 0.000000
# 6 0.000000 0.000000 0.000000 -0.008940 0.000000 0.049542
#
#
# Mechanical properties :
#
#
# Convention : Reuss Voigt Hill
#
# Bulk Modulus (GPa) = 29.57928 31.60777 30.59353
# Shear Modulus (GPa) = 25.46412 29.98836 27.72624
#
# Velocity S-wave (km/s) = 3.51331 3.81267 3.66605
# Velocity P-wave (km/s) = 5.54941 5.89095 5.72273
#
# Compressibility (1/GPa) = 0.03380745
#
# Stress axis : x y z
#
# Youngs Moduli (GPa) = 97.89435 46.80440 55.43472
#
# Poissons Ratio (x) = 0.17979 -0.04660
# Poissons Ratio (y) = 0.37605 0.27193
# Poissons Ratio (z) = -0.08230 0.22960
#
# Static dielectric constant tensor:
#      x y z
#    x 1.761990 0.000000 0.060680 
#    y 0.000000 1.794030 0.000000 
#    z 0.060680 0.000000 1.772780 
# 
# From -- ./inp_files/89408.got.cif
#   From: 2010.05.17/outbox.cif.g08.bks.cpg/sg15_45_cif.got.tgz:89408.got - 2010.06.03 18:47:42.
