data_PCOD9270360
_publ_section_title
;
Structure prediction by ZEFSAII (Michael W. Deem and Ramdas Pophale) SiO2 
 PCOD9270360
Probable space group: C 2/C
;
_chemical_formula_sum "Si O2"
_cell_formula_units_Z 48
_cell_length_a 25.311495
_cell_length_b 13.179745
_cell_length_c 11.705791
_cell_angle_alpha 90.000000
_cell_angle_beta 27.891970
_cell_angle_gamma 90.000000
_cell_volume 1826.801299
_symmetry_space_group_name_H-M "C 2/C"
_symmetry_group_IT_number 15
_symmetry_cell_setting 'monoclinic'
loop_
_space_group_symop_operation_xyz
x,y,z
-x,y,1/2-z
-x,-y,-z
x,-y,1/2+z
1/2+x,1/2+y,z
1/2-x,1/2+y,1/2-z
1/2-x,1/2-y,-z
1/2+x,1/2-y,1/2+z
loop_
_atom_site_type_symbol
_atom_site_label
_atom_site_fract_x
_atom_site_fract_y
_atom_site_fract_z
Si Si1 0.218249 0.363840 0.902736
Si Si2 0.589628 0.844246 0.679767
Si Si3 0.118596 0.086127 0.213764
Si Si4 0.695639 0.667930 0.840489
Si Si5 0.493057 0.207119 0.934989
Si Si6 0.111949 0.894338 0.112813
O O1 0.084969 0.352514 0.182283
O O2 0.274222 0.406612 0.909262
O O3 0.257200 0.245738 0.810579
O O4 0.275315 0.411451 0.680187
O O5 0.500000 0.862530 0.750000
O O6 0.710776 0.887849 0.412716
O O7 0.617301 0.723766 0.635892
O O8 0.545029 0.866408 0.890526
O O9 0.054976 0.191152 0.364067
O O10 0.128822 0.098633 0.056002
O O11 0.092056 0.966013 0.260353
O O12 0.612245 0.740628 0.928886
O O13 0.000000 0.903745 0.250000
#
# Coordination Sequence:
#
# PCOD9270360 Si02
#       6
#     8   8   8   8   8   8
#     4  10  21  37  55  78 113 150 182 227 281 333
#     4  10  20  36  58  85 117 148 182 228 279 332
#     4  11  20  34  58  84 111 146 188 231 283 336
#     4  10  20  35  58  85 112 145 188 231 272 329
#     4  11  20  35  60  84 111 148 189 232 276 328
#     4  10  21  35  53  83 117 142 178 236 289 330
#
# _framework density 26.275438000000001
#
# number of rings (size 3 to 8) (size 9 to 14) (size 15 to 20)
#    0.000    1.667    0.000    9.500    0.000    4.000 
#    0.000    0.000    0.000   22.000    0.000    0.000 
#    0.000    0.000    0.000    0.000    0.000    0.000 
#
# Total GULP energy -133949.488545 kJ/mol
# GULP energy per Si atom -5581.228689 kJ/mol
# Density = 2.621563 g / cm^3
# Si number density = 26.275438 Si / 1000 Ang^3
#
#
#
# Elastic Constant Matrix: (Units=GPa)
#
#
# Indices 1 2 3 4 5 6 
#
# 1 104.0824 5.3197 25.1691 0.0000 -14.3305 0.0000
# 2 5.3197 46.3220 -24.1861 0.0000 -10.3220 0.0000
# 3 25.1691 -24.1861 156.0606 0.0000 23.8123 0.0000
# 4 0.0000 0.0000 0.0000 35.3386 0.0000 17.2664
# 5 -14.3305 -10.3220 23.8123 0.0000 39.5303 0.0000
# 6 0.0000 0.0000 0.0000 17.2664 0.0000 15.6184
#
#
#
# Elastic Compliance Matrix: (Units=1/GPa)
#
#
# Indices 1 2 3 4 5 6 
#
# 1 0.011112 -0.001576 -0.002850 0.000000 0.005334 0.000000
# 2 -0.001576 0.024408 0.003471 0.000000 0.003712 0.000000
# 3 -0.002850 0.003471 0.008176 0.000000 -0.005052 0.000000
# 4 0.000000 0.000000 0.000000 0.061537 0.000000 -0.068030
# 5 0.005334 0.003712 -0.005052 0.000000 0.031243 0.000000
# 6 0.000000 0.000000 0.000000 -0.068030 0.000000 0.139236
#
#
# Mechanical properties :
#
#
# Convention : Reuss Voigt Hill
#
# Bulk Modulus (GPa) = 23.93171 35.45224 29.69198
# Shear Modulus (GPa) = 17.14965 38.10829 27.62897
#
# Velocity S-wave (km/s) = 2.55755 3.81246 3.24622
# Velocity P-wave (km/s) = 4.22483 5.73600 5.03740
#
# Compressibility (1/GPa) = 0.04178557
#
# Stress axis : x y z
#
# Youngs Moduli (GPa) = 89.99374 40.96997 122.30652
#
# Poissons Ratio (x) = 0.06456 0.34859
# Poissons Ratio (y) = 0.14181 -0.42447
# Poissons Ratio (z) = 0.25649 -0.14219
#
# Static dielectric constant tensor:
#      x y z
#    x 2.008670 0.000000 0.019770 
#    y 0.000000 2.179120 0.000000 
#    z 0.019770 0.000000 2.260700 
# 
# From -- ./inp_files/87252.got.cif
#   From: 2010.05.17/outbox.cif.g08.bks.cpg/sg15_44_cif.got.tgz:87252.got - 2010.06.03 18:47:42.
