data_PCOD9270024
_publ_section_title
;
Structure prediction by ZEFSAII (Michael W. Deem and Ramdas Pophale) SiO2 
 PCOD9270024
Probable space group: C 2/C
;
_chemical_formula_sum "Si O2"
_cell_formula_units_Z 64
_cell_length_a 18.065606
_cell_length_b 25.362379
_cell_length_c 7.330279
_cell_angle_alpha 90.000000
_cell_angle_beta 104.940786
_cell_angle_gamma 90.000000
_cell_volume 3245.090563
_symmetry_space_group_name_H-M "C 2/C"
_symmetry_group_IT_number 15
_symmetry_cell_setting 'monoclinic'
loop_
_space_group_symop_operation_xyz
x,y,z
-x,y,1/2-z
-x,-y,-z
x,-y,1/2+z
1/2+x,1/2+y,z
1/2-x,1/2+y,1/2-z
1/2-x,1/2-y,-z
1/2+x,1/2-y,1/2+z
loop_
_atom_site_type_symbol
_atom_site_label
_atom_site_fract_x
_atom_site_fract_y
_atom_site_fract_z
Si Si1 0.989212 0.402844 0.963716
Si Si2 0.759257 0.654585 0.289403
Si Si3 0.919701 0.706333 0.506785
Si Si4 0.330520 0.050403 0.298309
Si Si5 0.146399 0.238746 0.203239
Si Si6 0.156123 0.432283 0.123350
Si Si7 0.253964 0.333472 0.158256
Si Si8 0.418848 0.299957 0.222097
O O1 0.975227 0.343220 0.018830
O O2 0.912346 0.437112 0.945917
O O3 0.000000 0.401594 0.750000
O O4 0.066078 0.424293 0.105835
O O5 0.835881 0.681773 0.410997
O O6 0.768387 0.592306 0.331452
O O7 0.686142 0.686738 0.313507
O O8 0.757423 0.663633 0.068645
O O9 0.911808 0.733627 0.697032
O O10 0.933543 0.751118 0.365983
O O11 0.314259 0.988746 0.293765
O O12 0.340245 0.065250 0.093529
O O13 0.214472 0.280055 0.202816
O O14 0.107203 0.223032 0.989536
O O15 0.207567 0.382607 0.212596
O O16 0.345007 0.332006 0.245841
O O17 0.500000 0.328990 0.250000
#
# Coordination Sequence:
#
# PCOD9270024 Si02
#       8
#     8   8   8   8   8   8   8   8
#     4   9  19  34  54  74 117 161 189 227 276 331
#     4   9  17  35  56  78 114 147 182 237 290 326
#     4  11  20  33  57  85 112 152 190 225 284 337
#     4   9  19  33  54  78 109 152 190 234 279 327
#     4  11  21  36  58  86 111 146 191 235 283 348
#     4  10  20  35  54  79 114 149 194 231 279 336
#     4  10  20  37  56  80 110 151 189 234 289 342
#     4  11  23  38  56  76 117 148 182 237 287 337
#
# _framework density 19.722099
#
# number of rings (size 3 to 8) (size 9 to 14) (size 15 to 20)
#    0.000    2.000    2.500    2.625    1.750    2.500 
#    0.000    1.250    0.000    0.000    0.000    7.875 
#    0.000    0.000    0.000    0.000    0.000    0.000 
#
# Total GULP energy -178847.410489 kJ/mol
# GULP energy per Si atom -5588.981578 kJ/mol
# Density = 1.967721 g / cm^3
# Si number density = 19.722099 Si / 1000 Ang^3
#
#
#
# Elastic Constant Matrix: (Units=GPa)
#
#
# Indices 1 2 3 4 5 6 
#
# 1 85.3853 43.3536 12.1257 0.0000 19.1773 0.0000
# 2 43.3536 116.0747 3.5765 0.0000 13.8524 0.0000
# 3 12.1257 3.5765 46.6813 0.0000 -5.2724 0.0000
# 4 0.0000 0.0000 0.0000 17.4294 0.0000 0.7308
# 5 19.1773 13.8524 -5.2724 0.0000 14.8277 0.0000
# 6 0.0000 0.0000 0.0000 0.7308 0.0000 28.2309
#
#
#
# Elastic Compliance Matrix: (Units=1/GPa)
#
#
# Indices 1 2 3 4 5 6 
#
# 1 0.020889 -0.004494 -0.007979 0.000000 -0.025655 0.000000
# 2 -0.004494 0.010817 -0.000152 0.000000 -0.004347 0.000000
# 3 -0.007979 -0.000152 0.025721 0.000000 0.019608 0.000000
# 4 0.000000 0.000000 0.000000 0.057437 0.000000 -0.001487
# 5 -0.025655 -0.004347 0.019608 0.000000 0.111655 0.000000
# 6 0.000000 0.000000 0.000000 -0.001487 0.000000 0.035461
#
#
# Mechanical properties :
#
#
# Convention : Reuss Voigt Hill
#
# Bulk Modulus (GPa) = 31.08000 40.69475 35.88737
# Shear Modulus (GPa) = 16.78100 24.70329 20.74214
#
# Velocity S-wave (km/s) = 2.92014 3.54300 3.24654
# Velocity P-wave (km/s) = 5.21179 6.11687 5.68238
#
# Compressibility (1/GPa) = 0.03217504
#
# Stress axis : x y z
#
# Youngs Moduli (GPa) = 47.87274 92.44480 38.87913
#
# Poissons Ratio (x) = 0.41548 0.31022
# Poissons Ratio (y) = 0.21516 0.00592
# Poissons Ratio (z) = 0.38198 0.01408
#
# Static dielectric constant tensor:
#      x y z
#    x 1.717420 0.000000 -0.019270 
#    y 0.000000 1.692320 0.000000 
#    z -0.019270 0.000000 1.754070 
# 
# From -- ./inp_files/51271.got.cif
#   From: 2010.05.17/outbox.cif.g08.bks.cpg/sg15_26_cif.got.tgz:51271.got - 2010.06.03 18:47:42.
