data_PCOD9270034
_publ_section_title
;
Structure prediction by ZEFSAII (Michael W. Deem and Ramdas Pophale) SiO2 
 PCOD9270034
Probable space group: C 2/C
;
_chemical_formula_sum "Si O2"
_cell_formula_units_Z 40
_cell_length_a 24.883553
_cell_length_b 7.664119
_cell_length_c 21.233556
_cell_angle_alpha 90.000000
_cell_angle_beta 158.808983
_cell_angle_gamma 90.000000
_cell_volume 1463.793133
_symmetry_space_group_name_H-M "C 2/C"
_symmetry_group_IT_number 15
_symmetry_cell_setting 'monoclinic'
loop_
_space_group_symop_operation_xyz
x,y,z
-x,y,1/2-z
-x,-y,-z
x,-y,1/2+z
1/2+x,1/2+y,z
1/2-x,1/2+y,1/2-z
1/2-x,1/2-y,-z
1/2+x,1/2-y,1/2+z
loop_
_atom_site_type_symbol
_atom_site_label
_atom_site_fract_x
_atom_site_fract_y
_atom_site_fract_z
Si Si1 0.098855 0.572478 0.206108
Si Si2 0.603434 0.709800 0.917727
Si Si3 0.865216 0.864782 0.347666
Si Si4 0.926282 0.780965 0.546424
Si Si5 0.223304 0.028199 0.377996
O O1 0.269615 0.583759 0.416401
O O2 0.095582 0.673971 0.136249
O O3 0.027278 0.383348 0.132726
O O4 0.003644 0.703407 0.146755
O O5 0.500000 0.641505 0.750000
O O6 0.697890 0.878892 0.995883
O O7 0.822900 0.838127 0.374077
O O8 0.770579 0.950547 0.187750
O O9 0.000000 0.000000 0.500000
O O10 0.052819 0.920387 0.702016
O O11 0.826450 0.698025 0.491611
#
# Coordination Sequence:
#
# PCOD9270034 Si02
#       5
#     8   8   8   8   8
#     4  10  21  35  57  84 106 139 185 221 267 327
#     4  10  21  40  58  77 106 142 183 232 273 312
#     4   9  19  34  53  79 114 146 170 212 268 322
#     4  10  20  35  54  82 113 143 177 219 266 324
#     4   9  21  36  54  80 110 146 182 216 266 325
#
# _framework density 27.326267000000001
#
# number of rings (size 3 to 8) (size 9 to 14) (size 15 to 20)
#    0.000    2.400    0.000    1.200    0.000   16.000 
#    0.000    5.000    0.000    0.000    0.000    0.000 
#    0.000    0.000    0.000    0.000    0.000    0.000 
#
# Total GULP energy -111991.018968 kJ/mol
# GULP energy per Si atom -5599.550948 kJ/mol
# Density = 2.726407 g / cm^3
# Si number density = 27.326267 Si / 1000 Ang^3
#
#
#
# Elastic Constant Matrix: (Units=GPa)
#
#
# Indices 1 2 3 4 5 6 
#
# 1 72.6112 16.0820 47.6747 0.0000 0.3277 0.0000
# 2 16.0820 123.0736 27.1713 0.0000 -17.3286 0.0000
# 3 47.6747 27.1713 165.2240 0.0000 6.5615 0.0000
# 4 0.0000 0.0000 0.0000 40.2360 0.0000 10.0999
# 5 0.3277 -17.3286 6.5615 0.0000 44.0004 0.0000
# 6 0.0000 0.0000 0.0000 10.0999 0.0000 44.7700
#
#
#
# Elastic Compliance Matrix: (Units=1/GPa)
#
#
# Indices 1 2 3 4 5 6 
#
# 1 0.017159 -0.001174 -0.004763 0.000000 0.000120 0.000000
# 2 -0.001174 0.009101 -0.001308 0.000000 0.003788 0.000000
# 3 -0.004763 -0.001308 0.007707 0.000000 -0.001629 0.000000
# 4 0.000000 0.000000 0.000000 0.026345 0.000000 -0.005943
# 5 0.000120 0.003788 -0.001629 0.000000 0.024461 0.000000
# 6 0.000000 0.000000 0.000000 -0.005943 0.000000 0.023677
#
#
# Mechanical properties :
#
#
# Convention : Reuss Voigt Hill
#
# Bulk Modulus (GPa) = 51.34499 60.30720 55.82609
# Shear Modulus (GPa) = 38.63063 43.80000 41.21532
#
# Velocity S-wave (km/s) = 3.76397 4.00791 3.88786
# Velocity P-wave (km/s) = 6.14169 6.59811 6.37399
#
# Compressibility (1/GPa) = 0.01947610
#
# Stress axis : x y z
#
# Youngs Moduli (GPa) = 58.28012 109.88055 129.76002
#
# Poissons Ratio (x) = 0.12896 0.61802
# Poissons Ratio (y) = 0.06840 0.16978
# Poissons Ratio (z) = 0.27758 0.14377
#
# Static dielectric constant tensor:
#      x y z
#    x 2.207070 0.000000 0.040760 
#    y 0.000000 2.221620 0.000000 
#    z 0.040760 0.000000 2.091840 
# 
# From -- ./inp_files/60036.got.cif
#   From: 2010.05.17/outbox.cif.g08.bks.cpg/sg15_31_cif.got.tgz:60036.got - 2010.06.03 18:47:42.
