data_PCOD9270278
_publ_section_title
;
Structure prediction by ZEFSAII (Michael W. Deem and Ramdas Pophale) SiO2 
 PCOD9270278
Probable space group: C 2/C
;
_chemical_formula_sum "Si O2"
_cell_formula_units_Z 40
_cell_length_a 6.068350
_cell_length_b 24.236373
_cell_length_c 14.068656
_cell_angle_alpha 90.000000
_cell_angle_beta 112.465575
_cell_angle_gamma 90.000000
_cell_volume 1912.115832
_symmetry_space_group_name_H-M "C 2/C"
_symmetry_group_IT_number 15
_symmetry_cell_setting 'monoclinic'
loop_
_space_group_symop_operation_xyz
x,y,z
-x,y,1/2-z
-x,-y,-z
x,-y,1/2+z
1/2+x,1/2+y,z
1/2-x,1/2+y,1/2-z
1/2-x,1/2-y,-z
1/2+x,1/2-y,1/2+z
loop_
_atom_site_type_symbol
_atom_site_label
_atom_site_fract_x
_atom_site_fract_y
_atom_site_fract_z
Si Si1 0.087786 0.691597 0.370891
Si Si2 0.558479 0.609419 0.652184
Si Si3 0.453394 0.084761 0.029141
Si Si4 0.759573 0.482178 0.080497
Si Si5 0.915501 0.790512 0.466738
O O1 0.970708 0.642681 0.413647
O O2 0.373030 0.687240 0.430840
O O3 0.000000 0.687346 0.250000
O O4 0.025053 0.750736 0.404214
O O5 0.500000 0.625425 0.750000
O O6 0.300775 0.596701 0.562928
O O7 0.715027 0.553918 0.667119
O O8 0.680201 0.657447 0.608945
O O9 0.412145 0.038187 0.103388
O O10 0.625261 0.057914 0.979732
O O11 0.500000 0.500000 0.000000
O O12 0.750000 0.750000 0.500000
#
# Coordination Sequence:
#
# PCOD9270278 Si02
#       5
#     8   8   8   8   8
#     4  10  21  38  57  87 116 150 199 243 298 362
#     4  10  20  35  57  86 112 149 201 245 295 358
#     4   9  19  37  56  79 117 153 189 247 297 349
#     4   9  18  36  56  77 114 154 193 237 297 351
#     4  10  21  38  60  82 119 156 191 247 303 357
#
# _framework density 20.919233999999999
#
# number of rings (size 3 to 8) (size 9 to 14) (size 15 to 20)
#    0.000    2.400    0.000    1.800    0.000    1.600 
#   10.800    2.000    0.000    0.000    0.000    0.000 
#    0.000    0.000    0.000    0.000    0.000    0.000 
#
# Total GULP energy -111539.512648 kJ/mol
# GULP energy per Si atom -5576.975632 kJ/mol
# Density = 2.087162 g / cm^3
# Si number density = 20.919234 Si / 1000 Ang^3
#
#
#
# Elastic Constant Matrix: (Units=GPa)
#
#
# Indices 1 2 3 4 5 6 
#
# 1 55.5644 10.6511 3.6031 0.0000 -8.0550 0.0000
# 2 10.6511 104.0916 25.1086 0.0000 -2.1572 0.0000
# 3 3.6031 25.1086 82.9504 0.0000 -9.6387 0.0000
# 4 0.0000 0.0000 0.0000 15.8219 0.0000 -11.3045
# 5 -8.0550 -2.1572 -9.6387 0.0000 14.6293 0.0000
# 6 0.0000 0.0000 0.0000 -11.3045 0.0000 52.2823
#
#
#
# Elastic Compliance Matrix: (Units=1/GPa)
#
#
# Indices 1 2 3 4 5 6 
#
# 1 0.019977 -0.002069 0.001084 0.000000 0.011409 0.000000
# 2 -0.002069 0.010583 -0.003319 0.000000 -0.001765 0.000000
# 3 0.001084 -0.003319 0.014105 0.000000 0.009401 0.000000
# 4 0.000000 0.000000 0.000000 0.074752 0.000000 0.016163
# 5 0.011409 -0.001765 0.009401 0.000000 0.080572 0.000000
# 6 0.000000 0.000000 0.000000 0.016163 0.000000 0.022622
#
#
# Mechanical properties :
#
#
# Convention : Reuss Voigt Hill
#
# Bulk Modulus (GPa) = 27.73297 35.70356 31.71826
# Shear Modulus (GPa) = 20.55613 30.09627 25.32620
#
# Velocity S-wave (km/s) = 3.13811 3.79712 3.48324
# Velocity P-wave (km/s) = 5.13968 6.02732 5.60111
#
# Compressibility (1/GPa) = 0.03605817
#
# Stress axis : x y z
#
# Youngs Moduli (GPa) = 50.05646 94.49509 70.89598
#
# Poissons Ratio (x) = 0.19554 -0.07687
# Poissons Ratio (y) = 0.10358 0.23527
# Poissons Ratio (z) = -0.05428 0.31358
#
# Static dielectric constant tensor:
#      x y z
#    x 1.776780 0.000000 -0.005350 
#    y 0.000000 1.769980 0.000000 
#    z -0.005350 0.000000 1.714820 
# 
# From -- ./inp_files/73063.got.cif
#   From: 2010.05.17/outbox.cif.g08.bks.cpg/sg15_37_cif.got.tgz:73063.got - 2010.06.03 18:47:42.
