data_PCOD9270448
_publ_section_title
;
Structure prediction by ZEFSAII (Michael W. Deem and Ramdas Pophale) SiO2 
 PCOD9270448
Probable space group: C 2/C
;
_chemical_formula_sum "Si O2"
_cell_formula_units_Z 56
_cell_length_a 20.312961
_cell_length_b 17.304687
_cell_length_c 8.704919
_cell_angle_alpha 90.000000
_cell_angle_beta 60.129428
_cell_angle_gamma 90.000000
_cell_volume 2653.366739
_symmetry_space_group_name_H-M "C 2/C"
_symmetry_group_IT_number 15
_symmetry_cell_setting 'monoclinic'
loop_
_space_group_symop_operation_xyz
x,y,z
-x,y,1/2-z
-x,-y,-z
x,-y,1/2+z
1/2+x,1/2+y,z
1/2-x,1/2+y,1/2-z
1/2-x,1/2-y,-z
1/2+x,1/2-y,1/2+z
loop_
_atom_site_type_symbol
_atom_site_label
_atom_site_fract_x
_atom_site_fract_y
_atom_site_fract_z
Si Si1 0.383744 0.648803 0.132059
Si Si2 0.603270 0.073004 0.866866
Si Si3 0.131734 0.031021 0.762094
Si Si4 0.000000 0.122828 0.750000
Si Si5 0.235586 0.958624 0.410142
Si Si6 0.768647 0.318639 0.597747
Si Si7 0.086531 0.282786 0.185786
Si Si8 0.000000 0.522592 0.250000
O O1 0.386126 0.557375 0.166339
O O2 0.296889 0.675488 0.199537
O O3 0.405005 0.696329 0.260608
O O4 0.443692 0.667300 0.929810
O O5 0.684925 0.029911 0.770528
O O6 0.611717 0.159915 0.794451
O O7 0.550033 0.029827 0.805422
O O8 0.559522 0.069621 0.077867
O O9 0.173443 0.069465 0.858789
O O10 0.056381 0.071471 0.789236
O O11 0.193324 0.026293 0.552322
O O12 0.256405 0.897121 0.516724
O O13 0.750000 0.250000 0.500000
O O14 0.857609 0.304439 0.520517
O O15 0.000000 0.298032 0.250000
#
# Coordination Sequence:
#
# PCOD9270448 Si02
#       8
#     8   8   8   4   8   8   8   4
#     4  10  22  37  58  82 120 162 196 253 302 358
#     4  10  20  37  58  91 119 156 198 253 304 369
#     4  11  22  38  57  87 118 160 204 254 303 358
#     4  12  24  37  55  88 124 152 212 258 306 362
#     4  10  20  35  59  82 115 154 198 247 302 355
#     4   8  18  37  58  82 111 153 202 243 291 360
#     4  10  20  37  63  89 117 158 211 246 299 373
#     4  10  20  35  59  86 126 148 194 254 310 356
#
# _framework density 21.105260999999999
#
# number of rings (size 3 to 8) (size 9 to 14) (size 15 to 20)
#    0.000    2.000    2.143    1.286    1.000    2.857 
#    0.000    0.000    0.000    8.571    0.000    0.000 
#    0.000    0.000    0.000    0.000    0.000    0.000 
#
# Total GULP energy -156084.819446 kJ/mol
# GULP energy per Si atom -5574.457837 kJ/mol
# Density = 2.105722 g / cm^3
# Si number density = 21.105261 Si / 1000 Ang^3
#
#
#
# Elastic Constant Matrix: (Units=GPa)
#
#
# Indices 1 2 3 4 5 6 
#
# 1 108.3747 -0.9637 36.1681 0.0000 -30.0049 0.0000
# 2 -0.9637 36.3982 9.0805 0.0000 -9.1614 0.0000
# 3 36.1681 9.0805 144.1595 0.0000 -46.9257 0.0000
# 4 0.0000 0.0000 0.0000 17.5186 0.0000 -11.8169
# 5 -30.0049 -9.1614 -46.9257 0.0000 47.3072 0.0000
# 6 0.0000 0.0000 0.0000 -11.8169 0.0000 9.8012
#
#
#
# Elastic Compliance Matrix: (Units=1/GPa)
#
#
# Indices 1 2 3 4 5 6 
#
# 1 0.011416 0.002233 -0.000749 0.000000 0.006930 0.000000
# 2 0.002233 0.029319 -0.000144 0.000000 0.006951 0.000000
# 3 -0.000749 -0.000144 0.010294 0.000000 0.009708 0.000000
# 4 0.000000 0.000000 0.000000 0.305660 0.000000 0.368519
# 5 0.006930 0.006951 0.009708 0.000000 0.036510 0.000000
# 6 0.000000 0.000000 0.000000 0.368519 0.000000 0.546334
#
#
# Mechanical properties :
#
#
# Convention : Reuss Voigt Hill
#
# Bulk Modulus (GPa) = 18.61912 41.94467 30.28189
# Shear Modulus (GPa) = 5.23695 31.23525 18.23610
#
# Velocity S-wave (km/s) = 1.57694 3.85122 2.94267
# Velocity P-wave (km/s) = 3.48666 6.30024 5.09165
#
# Compressibility (1/GPa) = 0.05370824
#
# Stress axis : x y z
#
# Youngs Moduli (GPa) = 87.59826 34.10799 97.14631
#
# Poissons Ratio (x) = -0.07618 0.07275
# Poissons Ratio (y) = -0.19564 0.01403
# Poissons Ratio (z) = 0.06560 0.00493
#
# Static dielectric constant tensor:
#      x y z
#    x 1.799610 0.000000 -0.052560 
#    y 0.000000 1.789140 0.000000 
#    z -0.052560 0.000000 1.849090 
# 
# From -- ./inp_files/56513.got.cif
#   From: 2010.05.17/outbox.cif.g08.bks.cpg/sg15_29_cif.got.tgz:56513.got - 2010.06.03 18:47:42.
