data_PCOD9270389
_publ_section_title
;
Structure prediction by ZEFSAII (Michael W. Deem and Ramdas Pophale) SiO2 
 PCOD9270389
Probable space group: C 2/C
;
_chemical_formula_sum "Si O2"
_cell_formula_units_Z 48
_cell_length_a 19.574336
_cell_length_b 25.174450
_cell_length_c 5.177004
_cell_angle_alpha 90.000000
_cell_angle_beta 69.466199
_cell_angle_gamma 90.000000
_cell_volume 2389.006207
_symmetry_space_group_name_H-M "C 2/C"
_symmetry_group_IT_number 15
_symmetry_cell_setting 'monoclinic'
loop_
_space_group_symop_operation_xyz
x,y,z
-x,y,1/2-z
-x,-y,-z
x,-y,1/2+z
1/2+x,1/2+y,z
1/2-x,1/2+y,1/2-z
1/2-x,1/2-y,-z
1/2+x,1/2-y,1/2+z
loop_
_atom_site_type_symbol
_atom_site_label
_atom_site_fract_x
_atom_site_fract_y
_atom_site_fract_z
Si Si1 0.724070 0.533096 0.447233
Si Si2 0.200599 0.624316 0.420336
Si Si3 0.143857 0.849306 0.554686
Si Si4 0.915128 0.094654 0.868691
Si Si5 0.414746 0.036203 0.854654
Si Si6 0.300839 0.242370 0.181101
O O1 0.742983 0.506238 0.689593
O O2 0.764447 0.588972 0.354687
O O3 0.638613 0.545262 0.517075
O O4 0.270984 0.634854 0.510672
O O5 0.136999 0.587040 0.612172
O O6 0.172929 0.681587 0.362439
O O7 0.108744 0.884478 0.379427
O O8 0.141731 0.789470 0.443980
O O9 0.104522 0.862521 0.878997
O O10 0.000000 0.082342 0.750000
O O11 0.500000 0.052017 0.750000
O O12 0.402259 0.994235 0.641529
O O13 0.250000 0.250000 0.500000
O O14 0.250000 0.250000 0.000000
#
# Coordination Sequence:
#
# PCOD9270389 Si02
#       6
#     8   8   8   8   8   8
#     4  11  22  35  54  83 112 144 192 237 274 328
#     4  10  21  37  62  85 114 150 190 236 285 342
#     4  10  21  38  59  88 114 148 198 238 283 342
#     4  11  23  40  59  81 118 159 192 235 290 340
#     4  10  22  39  58  83 117 153 188 232 288 343
#     4  10  20  35  58  87 116 144 183 238 291 337
#
# _framework density 20.092034999999999
#
# number of rings (size 3 to 8) (size 9 to 14) (size 15 to 20)
#    0.000    1.667    0.000    6.500    0.000    7.333 
#    0.000    1.667    0.000    2.000    0.000    0.000 
#    0.000    0.000    0.000    0.000    0.000    0.000 
#
# Total GULP energy -134013.083403 kJ/mol
# GULP energy per Si atom -5583.878475 kJ/mol
# Density = 2.004630 g / cm^3
# Si number density = 20.092035 Si / 1000 Ang^3
#
#
#
# Elastic Constant Matrix: (Units=GPa)
#
#
# Indices 1 2 3 4 5 6 
#
# 1 93.3508 25.9298 29.3865 0.0000 -11.7535 0.0000
# 2 25.9298 100.0335 11.4110 0.0000 -9.4680 0.0000
# 3 29.3865 11.4110 74.7549 0.0000 3.9052 0.0000
# 4 0.0000 0.0000 0.0000 21.1662 0.0000 0.5003
# 5 -11.7535 -9.4680 3.9052 0.0000 30.6478 0.0000
# 6 0.0000 0.0000 0.0000 0.5003 0.0000 16.9529
#
#
#
# Elastic Compliance Matrix: (Units=1/GPa)
#
#
# Indices 1 2 3 4 5 6 
#
# 1 0.013711 -0.002462 -0.005284 0.000000 0.005171 0.000000
# 2 -0.002462 0.010972 -0.000840 0.000000 0.002553 0.000000
# 3 -0.005284 -0.000840 0.015807 0.000000 -0.004300 0.000000
# 4 0.000000 0.000000 0.000000 0.047278 0.000000 -0.001395
# 5 0.005171 0.002553 -0.004300 0.000000 0.035948 0.000000
# 6 0.000000 0.000000 0.000000 -0.001395 0.000000 0.059028
#
#
# Mechanical properties :
#
#
# Convention : Reuss Voigt Hill
#
# Bulk Modulus (GPa) = 42.88644 44.62154 43.75399
# Shear Modulus (GPa) = 24.07440 27.18084 25.62762
#
# Velocity S-wave (km/s) = 3.46527 3.68206 3.57530
# Velocity P-wave (km/s) = 6.11573 6.35087 6.23440
#
# Compressibility (1/GPa) = 0.02331740
#
# Stress axis : x y z
#
# Youngs Moduli (GPa) = 72.93675 91.13904 63.26246
#
# Poissons Ratio (x) = 0.22436 0.33428
# Poissons Ratio (y) = 0.17955 0.05317
# Poissons Ratio (z) = 0.38540 0.07660
#
# Static dielectric constant tensor:
#      x y z
#    x 1.705360 0.000000 -0.032990 
#    y 0.000000 1.748210 0.000000 
#    z -0.032990 0.000000 1.740530 
# 
# From -- ./inp_files/10669.got.cif
#   From: 2010.05.17/outbox.cif.g08.bks.cpg/sg15_6_cif.got.tgz:10669.got - 2010.06.03 18:47:42.
