data_PCOD9270744
_publ_section_title
;
Structure prediction by ZEFSAII (Michael W. Deem and Ramdas Pophale) SiO2 
 PCOD9270744
Probable space group: C 2/C
;
_chemical_formula_sum "Si O2"
_cell_formula_units_Z 40
_cell_length_a 21.661959
_cell_length_b 5.833879
_cell_length_c 15.151461
_cell_angle_alpha 90.000000
_cell_angle_beta 125.483596
_cell_angle_gamma 90.000000
_cell_volume 1559.137281
_symmetry_space_group_name_H-M "C 2/C"
_symmetry_group_IT_number 15
_symmetry_cell_setting 'monoclinic'
loop_
_space_group_symop_operation_xyz
x,y,z
-x,y,1/2-z
-x,-y,-z
x,-y,1/2+z
1/2+x,1/2+y,z
1/2-x,1/2+y,1/2-z
1/2-x,1/2-y,-z
1/2+x,1/2-y,1/2+z
loop_
_atom_site_type_symbol
_atom_site_label
_atom_site_fract_x
_atom_site_fract_y
_atom_site_fract_z
Si Si1 0.205149 0.450972 0.913727
Si Si2 0.418454 0.022693 0.476993
Si Si3 0.889998 0.085626 0.730107
Si Si4 0.729822 0.842242 0.618974
Si Si5 0.445868 0.474511 0.080065
O O1 0.130676 0.350140 0.806797
O O2 0.254058 0.574279 0.879251
O O3 0.250000 0.250000 0.000000
O O4 0.194750 0.606398 0.991274
O O5 0.332892 0.056735 0.367822
O O6 0.426487 0.283083 0.521354
O O7 0.500000 0.000000 0.500000
O O8 0.413515 0.771800 0.521014
O O9 0.917434 0.000084 0.657228
O O10 0.962665 0.051386 0.850522
O O11 0.812429 0.961373 0.694901
#
# Coordination Sequence:
#
# PCOD9270744 Si02
#       5
#     8   8   8   8   8
#     4   9  16  31  57  93 121 151 197 262 315 376
#     4  12  26  45  63  89 131 183 221 254 303 398
#     4  10  22  37  67  99 131 154 205 287 342 375
#     4  10  20  35  63  93 124 168 217 253 322 382
#     4  11  25  42  65  98 132 163 212 271 338 375
#
# _framework density 25.655214999999998
#
# number of rings (size 3 to 8) (size 9 to 14) (size 15 to 20)
#    0.000    1.600    2.000    4.200    5.600    1.600 
#    0.000    2.000    0.000    0.000    0.000    0.000 
#    0.000    0.000    0.000    0.000    0.000    0.000 
#
# Total GULP energy -111463.232000 kJ/mol
# GULP energy per Si atom -5573.161600 kJ/mol
# Density = 2.559682 g / cm^3
# Si number density = 25.655215 Si / 1000 Ang^3
#
#
#
# Elastic Constant Matrix: (Units=GPa)
#
#
# Indices 1 2 3 4 5 6 
#
# 1 138.4089 35.3359 45.7189 0.0000 42.6316 0.0000
# 2 35.3359 166.7840 63.1325 0.0000 12.3492 0.0000
# 3 45.7189 63.1325 86.7274 0.0000 36.9200 0.0000
# 4 0.0000 0.0000 0.0000 23.1870 0.0000 29.3910
# 5 42.6316 12.3492 36.9200 0.0000 55.9502 0.0000
# 6 0.0000 0.0000 0.0000 29.3910 0.0000 41.8669
#
#
#
# Elastic Compliance Matrix: (Units=1/GPa)
#
#
# Indices 1 2 3 4 5 6 
#
# 1 0.009997 -0.000901 -0.002025 0.000000 -0.006083 0.000000
# 2 -0.000901 0.008733 -0.007445 0.000000 0.003672 0.000000
# 3 -0.002025 -0.007445 0.023170 0.000000 -0.012103 0.000000
# 4 0.000000 0.000000 0.000000 0.391524 0.000000 -0.274855
# 5 -0.006083 0.003672 -0.012103 0.000000 0.029684 0.000000
# 6 0.000000 0.000000 0.000000 -0.274855 0.000000 0.216837
#
#
# Mechanical properties :
#
#
# Convention : Reuss Voigt Hill
#
# Bulk Modulus (GPa) = 47.26443 75.58832 61.42637
# Shear Modulus (GPa) = 7.06474 40.71634 23.89054
#
# Velocity S-wave (km/s) = 1.66124 3.98811 3.05489
# Velocity P-wave (km/s) = 4.70559 7.12277 6.03640
#
# Compressibility (1/GPa) = 0.02115756
#
# Stress axis : x y z
#
# Youngs Moduli (GPa) = 100.02619 114.50690 43.15974
#
# Poissons Ratio (x) = 0.10321 0.08739
# Poissons Ratio (y) = 0.09016 0.32134
# Poissons Ratio (z) = 0.20252 0.85254
#
# Static dielectric constant tensor:
#      x y z
#    x 2.211180 0.000000 -0.014670 
#    y 0.000000 2.110780 0.000000 
#    z -0.014670 0.000000 2.053780 
# 
# From -- ./inp_files/251139.got.cif
#   From: 2010.05.17/outbox.cif.g08.bks.cpg/sg15_126_cif.got.tgz:251139.got - 2010.06.03 18:47:42.
