data_PCOD9270688
_publ_section_title
;
Structure prediction by ZEFSAII (Michael W. Deem and Ramdas Pophale) SiO2 
 PCOD9270688
Probable space group: C 2/C
;
_chemical_formula_sum "Si O2"
_cell_formula_units_Z 48
_cell_length_a 16.349084
_cell_length_b 10.900874
_cell_length_c 14.542503
_cell_angle_alpha 90.000000
_cell_angle_beta 108.841115
_cell_angle_gamma 90.000000
_cell_volume 2452.882750
_symmetry_space_group_name_H-M "C 2/C"
_symmetry_group_IT_number 15
_symmetry_cell_setting 'monoclinic'
loop_
_space_group_symop_operation_xyz
x,y,z
-x,y,1/2-z
-x,-y,-z
x,-y,1/2+z
1/2+x,1/2+y,z
1/2-x,1/2+y,1/2-z
1/2-x,1/2-y,-z
1/2+x,1/2-y,1/2+z
loop_
_atom_site_type_symbol
_atom_site_label
_atom_site_fract_x
_atom_site_fract_y
_atom_site_fract_z
Si Si1 0.550962 0.379723 0.551954
Si Si2 0.246424 0.444381 0.494436
Si Si3 0.830089 0.757290 0.275121
Si Si4 0.276272 0.476113 0.803709
Si Si5 0.389006 0.240555 0.494446
Si Si6 0.330615 0.679540 0.574426
O O1 0.500000 0.500000 0.500000
O O2 0.625671 0.427099 0.647182
O O3 0.482159 0.281668 0.565100
O O4 0.598325 0.327016 0.479127
O O5 0.237346 0.509624 0.392395
O O6 0.318236 0.339487 0.503280
O O7 0.156295 0.386977 0.494768
O O8 0.292331 0.542874 0.576347
O O9 0.774084 0.633316 0.264019
O O10 0.893420 0.754003 0.385256
O O11 0.862732 0.765715 0.182349
O O12 0.776741 0.884562 0.267621
O O13 0.250000 0.750000 0.500000
#
# Coordination Sequence:
#
# PCOD9270688 Si02
#       6
#     8   8   8   8   8   8
#     4  11  19  40  59  91 115 155 196 263 294 356
#     4   9  18  36  58  85 112 166 185 241 302 377
#     4  11  20  36  60  94 116 162 199 257 292 371
#     4  10  21  37  66  87 125 155 211 246 303 365
#     4  10  20  35  62  87 119 147 206 245 304 349
#     4  11  20  35  61  82 120 158 198 237 307 360
#
# _framework density 19.568812000000001
#
# number of rings (size 3 to 8) (size 9 to 14) (size 15 to 20)
#    0.000    1.667    8.333    1.000    0.000    0.667 
#    0.000    0.833    0.000    0.000    0.000    0.000 
#    0.000    0.000    0.000    0.000    0.000    0.000 
#
# Total GULP energy -133687.186395 kJ/mol
# GULP energy per Si atom -5570.299433 kJ/mol
# Density = 1.952427 g / cm^3
# Si number density = 19.568812 Si / 1000 Ang^3
#
#
#
# Elastic Constant Matrix: (Units=GPa)
#
#
# Indices 1 2 3 4 5 6 
#
# 1 90.6928 30.4171 -1.3779 0.0000 -5.4083 0.0000
# 2 30.4171 77.4105 2.2939 0.0000 6.6632 0.0000
# 3 -1.3779 2.2939 29.1205 0.0000 -4.1816 0.0000
# 4 0.0000 0.0000 0.0000 28.2679 0.0000 0.0414
# 5 -5.4083 6.6632 -4.1816 0.0000 19.0058 0.0000
# 6 0.0000 0.0000 0.0000 0.0414 0.0000 34.4887
#
#
#
# Elastic Compliance Matrix: (Units=1/GPa)
#
#
# Indices 1 2 3 4 5 6 
#
# 1 0.013401 -0.005868 0.002003 0.000000 0.006312 0.000000
# 2 -0.005868 0.015979 -0.002665 0.000000 -0.007858 0.000000
# 3 0.002003 -0.002665 0.035998 0.000000 0.009424 0.000000
# 4 0.000000 0.000000 0.000000 0.035376 0.000000 -0.000042
# 5 0.006312 -0.007858 0.009424 0.000000 0.059240 0.000000
# 6 0.000000 0.000000 0.000000 -0.000042 0.000000 0.028995
#
#
# Mechanical properties :
#
#
# Convention : Reuss Voigt Hill
#
# Bulk Modulus (GPa) = 19.11401 28.87666 23.99533
# Shear Modulus (GPa) = 22.78006 27.41186 25.09596
#
# Velocity S-wave (km/s) = 3.41559 3.74678 3.58501
# Velocity P-wave (km/s) = 5.03427 5.78846 5.42449
#
# Compressibility (1/GPa) = 0.05231764
#
# Stress axis : x y z
#
# Youngs Moduli (GPa) = 74.62004 62.58050 27.77922
#
# Poissons Ratio (x) = 0.36725 -0.05563
# Poissons Ratio (y) = 0.43790 0.07403
# Poissons Ratio (z) = -0.14944 0.16677
#
# Static dielectric constant tensor:
#      x y z
#    x 1.643820 0.000000 -0.031050 
#    y 0.000000 1.741090 0.000000 
#    z -0.031050 0.000000 1.728340 
# 
# From -- ./inp_files/152096.got.cif
#   From: 2010.05.17/outbox.cif.g08.bks.cpg/sg15_77_cif.got.tgz:152096.got - 2010.06.03 18:47:42.
