data_PCOD9270851
_publ_section_title
;
Structure prediction by ZEFSAII (Michael W. Deem and Ramdas Pophale) SiO2 
 PCOD9270851
Probable space group: C 2/C
;
_chemical_formula_sum "Si O2"
_cell_formula_units_Z 60
_cell_length_a 24.808270
_cell_length_b 5.293446
_cell_length_c 18.331112
_cell_angle_alpha 90.000000
_cell_angle_beta 91.534703
_cell_angle_gamma 90.000000
_cell_volume 2406.400797
_symmetry_space_group_name_H-M "C 2/C"
_symmetry_group_IT_number 15
_symmetry_cell_setting 'monoclinic'
loop_
_space_group_symop_operation_xyz
x,y,z
-x,y,1/2-z
-x,-y,-z
x,-y,1/2+z
1/2+x,1/2+y,z
1/2-x,1/2+y,1/2-z
1/2-x,1/2-y,-z
1/2+x,1/2-y,1/2+z
loop_
_atom_site_type_symbol
_atom_site_label
_atom_site_fract_x
_atom_site_fract_y
_atom_site_fract_z
Si Si1 0.061179 0.063302 0.379349
Si Si2 0.780945 0.072095 0.273849
Si Si3 0.866407 0.582539 0.702469
Si Si4 0.500000 0.593908 0.250000
Si Si5 0.162305 0.886211 0.578306
Si Si6 0.426554 0.216103 0.478925
Si Si7 0.077439 0.461376 0.160747
Si Si8 0.352841 0.824512 0.563888
O O1 0.081395 0.311078 0.337250
O O2 0.038196 0.145978 0.457143
O O3 0.028842 0.929286 0.313459
O O4 0.113922 0.908085 0.402239
O O5 0.740628 0.310157 0.259864
O O6 0.833993 0.182519 0.235319
O O7 0.795515 0.033099 0.359168
O O8 0.888219 0.415368 0.771167
O O9 0.832168 0.465027 0.635052
O O10 0.537971 0.765695 0.199260
O O11 0.123680 0.686365 0.617782
O O12 0.184360 0.769166 0.503557
O O13 0.121747 0.106246 0.551836
O O14 0.451810 0.118004 0.404382
O O15 0.397046 0.995536 0.523258
#
# Coordination Sequence:
#
# PCOD9270851 Si02
#       8
#     8   8   8   4   8   8   8   8
#     4   9  19  36  58  84 119 161 205 261 312 377
#     4  11  26  41  64  99 132 165 211 266 319 383
#     4   9  20  37  60  86 120 163 208 254 317 377
#     4  10  20  36  52  90 128 158 212 260 318 368
#     4   9  20  39  62  84 120 165 205 254 317 382
#     4   9  18  36  61  84 110 162 210 251 312 377
#     4   9  19  34  57  84 119 163 205 260 310 375
#     4   9  18  36  64  84 112 162 210 253 309 382
#
# _framework density 24.933503999999999
#
# number of rings (size 3 to 8) (size 9 to 14) (size 15 to 20)
#    0.000    2.667    0.000    0.000    7.467    2.667 
#    0.000   18.000    0.000    0.000    0.000    0.000 
#    0.000    0.000    0.000    0.000    0.000    0.000 
#
# Total GULP energy -167269.471541 kJ/mol
# GULP energy per Si atom -5575.649051 kJ/mol
# Density = 2.487675 g / cm^3
# Si number density = 24.933504 Si / 1000 Ang^3
#
#
#
# Elastic Constant Matrix: (Units=GPa)
#
#
# Indices 1 2 3 4 5 6 
#
# 1 48.8388 0.8997 45.0883 0.0000 -2.6108 0.0000
# 2 0.8997 48.2634 55.1007 0.0000 -4.9566 0.0000
# 3 45.0883 55.1007 255.6461 0.0000 14.1937 0.0000
# 4 0.0000 0.0000 0.0000 -11.7359 0.0000 -34.8167
# 5 -2.6108 -4.9566 14.1937 0.0000 23.1799 0.0000
# 6 0.0000 0.0000 0.0000 -34.8167 0.0000 17.8747
#
#
#
# Elastic Compliance Matrix: (Units=1/GPa)
#
#
# Indices 1 2 3 4 5 6 
#
# 1 0.027522 0.008744 -0.007261 0.000000 0.009416 0.000000
# 2 0.008744 0.032613 -0.009331 0.000000 0.013672 0.000000
# 3 -0.007261 -0.009331 0.007619 0.000000 -0.007478 0.000000
# 4 0.000000 0.000000 0.000000 -0.012570 0.000000 -0.024485
# 5 0.009416 0.013672 -0.007478 0.000000 0.051704 0.000000
# 6 0.000000 0.000000 0.000000 -0.024485 0.000000 0.008253
#
#
# Mechanical properties :
#
#
# Convention : Reuss Voigt Hill
#
# Bulk Modulus (GPa) = 19.20950 61.65841 40.43396
# Shear Modulus (GPa) = 33.74081 22.64104 28.19092
#
# Velocity S-wave (km/s) = 3.68262 3.01667 3.36615
# Velocity P-wave (km/s) = 5.07969 6.07590 5.59999
#
# Compressibility (1/GPa) = 0.05205756
#
# Stress axis : x y z
#
# Youngs Moduli (GPa) = 36.33511 30.66251 131.25757
#
# Poissons Ratio (x) = -0.26812 0.95312
# Poissons Ratio (y) = -0.31772 1.22470
# Poissons Ratio (z) = 0.26384 0.28610
#
# Static dielectric constant tensor:
#      x y z
#    x 2.076460 0.000000 0.106960 
#    y 0.000000 2.029200 0.000000 
#    z 0.106960 0.000000 2.106870 
# 
# From -- ./inp_files/223672.got.cif
#   From: 2010.05.17/outbox.cif.g08.bks.cpg/sg15_112_cif.got.tgz:223672.got - 2010.06.03 18:47:42.
