data_PCOD9270575
_publ_section_title
;
Structure prediction by ZEFSAII (Michael W. Deem and Ramdas Pophale) SiO2 
 PCOD9270575
Probable space group: C 2/C
;
_chemical_formula_sum "Si O2"
_cell_formula_units_Z 64
_cell_length_a 15.952559
_cell_length_b 12.152476
_cell_length_c 22.056428
_cell_angle_alpha 90.000000
_cell_angle_beta 57.183779
_cell_angle_gamma 90.000000
_cell_volume 3593.545770
_symmetry_space_group_name_H-M "C 2/C"
_symmetry_group_IT_number 15
_symmetry_cell_setting 'monoclinic'
loop_
_space_group_symop_operation_xyz
x,y,z
-x,y,1/2-z
-x,-y,-z
x,-y,1/2+z
1/2+x,1/2+y,z
1/2-x,1/2+y,1/2-z
1/2-x,1/2-y,-z
1/2+x,1/2-y,1/2+z
loop_
_atom_site_type_symbol
_atom_site_label
_atom_site_fract_x
_atom_site_fract_y
_atom_site_fract_z
Si Si1 0.526808 0.401205 0.073734
Si Si2 0.091783 0.293931 0.825441
Si Si3 0.110588 0.436364 0.599187
Si Si4 0.481710 0.876359 0.433426
Si Si5 0.349170 0.952846 0.597783
Si Si6 0.268588 0.609463 0.931869
Si Si7 0.780216 0.678330 0.342187
Si Si8 0.556471 0.639030 0.419950
O O1 0.441836 0.322983 0.134880
O O2 0.627262 0.393591 0.073759
O O3 0.492510 0.527203 0.083818
O O4 0.547919 0.361610 0.996751
O O5 0.159377 0.364800 0.845375
O O6 0.146195 0.286933 0.740138
O O7 0.988483 0.362177 0.859997
O O8 0.179596 0.395866 0.516196
O O9 0.170968 0.418376 0.636919
O O10 0.076194 0.559705 0.597044
O O11 0.415611 0.895028 0.519604
O O12 0.504275 0.749078 0.416149
O O13 0.584019 0.944088 0.404926
O O14 0.252700 0.006282 0.604341
O O15 0.264634 0.719960 0.894167
O O16 0.673207 0.643447 0.359283
#
# Coordination Sequence:
#
# PCOD9270575 Si02
#       8
#     8   8   8   8   8   8   8   8
#     4  11  23  38  60  87 127 151 193 248 296 354
#     4  11  22  36  56  90 121 152 195 246 299 353
#     4  10  20  35  60  91 112 144 202 255 282 341
#     4   9  17  34  60  84 111 148 193 240 295 336
#     4   9  18  33  59  86 111 148 196 244 284 346
#     4  11  20  36  63  88 112 154 201 244 290 346
#     4  12  22  35  60  89 117 153 200 249 294 346
#     4  11  22  40  58  87 121 160 191 241 305 353
#
# _framework density 17.809708000000001
#
# number of rings (size 3 to 8) (size 9 to 14) (size 15 to 20)
#    0.000    1.500    5.000    2.250    0.000    1.000 
#    0.000    3.750    0.000    0.000    9.750    0.000 
#    0.000    0.000    0.000    0.000    0.000    0.000 
#
# Total GULP energy -178671.482051 kJ/mol
# GULP energy per Si atom -5583.483814 kJ/mol
# Density = 1.776917 g / cm^3
# Si number density = 17.809708 Si / 1000 Ang^3
#
#
#
# Elastic Constant Matrix: (Units=GPa)
#
#
# Indices 1 2 3 4 5 6 
#
# 1 56.5296 33.4123 18.9260 0.0000 -6.9938 0.0000
# 2 33.4123 114.3363 32.6088 0.0000 -4.5017 0.0000
# 3 18.9260 32.6088 76.4048 0.0000 -9.6869 0.0000
# 4 0.0000 0.0000 0.0000 8.1442 0.0000 2.1353
# 5 -6.9938 -4.5017 -9.6869 0.0000 10.9976 0.0000
# 6 0.0000 0.0000 0.0000 2.1353 0.0000 27.8901
#
#
#
# Elastic Compliance Matrix: (Units=1/GPa)
#
#
# Indices 1 2 3 4 5 6 
#
# 1 0.023055 -0.005778 -0.001898 0.000000 0.010625 0.000000
# 2 -0.005778 0.011408 -0.003728 0.000000 -0.002288 0.000000
# 3 -0.001898 -0.003728 0.016664 0.000000 0.011945 0.000000
# 4 0.000000 0.000000 0.000000 0.125302 0.000000 -0.009593
# 5 0.010625 -0.002288 0.011945 0.000000 0.107270 0.000000
# 6 0.000000 0.000000 0.000000 -0.009593 0.000000 0.036589
#
#
# Mechanical properties :
#
#
# Convention : Reuss Voigt Hill
#
# Bulk Modulus (GPa) = 35.31129 46.35165 40.83147
# Shear Modulus (GPa) = 14.18305 20.22795 17.20550
#
# Velocity S-wave (km/s) = 2.82506 3.37379 3.11155
# Velocity P-wave (km/s) = 5.52370 6.42333 5.99043
#
# Compressibility (1/GPa) = 0.02831956
#
# Stress axis : x y z
#
# Youngs Moduli (GPa) = 43.37523 87.66138 60.01105
#
# Poissons Ratio (x) = 0.50647 0.11390
# Poissons Ratio (y) = 0.25061 0.22369
# Poissons Ratio (z) = 0.08232 0.32676
#
# Static dielectric constant tensor:
#      x y z
#    x 1.615530 0.000000 0.009130 
#    y 0.000000 1.603770 0.000000 
#    z 0.009130 0.000000 1.596250 
# 
# From -- ./inp_files/210352.got.cif
#   From: 2010.05.17/outbox.cif.g08.bks.cpg/sg15_106_cif.got.tgz:210352.got - 2010.06.03 18:47:42.
