data_PCOD9270033
_publ_section_title
;
Structure prediction by ZEFSAII (Michael W. Deem and Ramdas Pophale) SiO2 
 PCOD9270033
Probable space group: C 2/C
;
_chemical_formula_sum "Si O2"
_cell_formula_units_Z 56
_cell_length_a 24.196761
_cell_length_b 13.898822
_cell_length_c 20.852115
_cell_angle_alpha 90.000000
_cell_angle_beta 157.176278
_cell_angle_gamma 90.000000
_cell_volume 2720.207395
_symmetry_space_group_name_H-M "C 2/C"
_symmetry_group_IT_number 15
_symmetry_cell_setting 'monoclinic'
loop_
_space_group_symop_operation_xyz
x,y,z
-x,y,1/2-z
-x,-y,-z
x,-y,1/2+z
1/2+x,1/2+y,z
1/2-x,1/2+y,1/2-z
1/2-x,1/2-y,-z
1/2+x,1/2-y,1/2+z
loop_
_atom_site_type_symbol
_atom_site_label
_atom_site_fract_x
_atom_site_fract_y
_atom_site_fract_z
Si Si1 0.931180 0.201395 0.391565
Si Si2 0.002174 0.800250 0.398821
Si Si3 0.798481 0.696864 0.986987
Si Si4 0.346062 0.366483 0.550275
Si Si5 0.291680 0.975554 0.985003
Si Si6 0.019799 0.021213 0.416886
Si Si7 0.129672 0.689278 0.009749
O O1 0.965721 0.245025 0.497686
O O2 0.005781 0.096913 0.459985
O O3 0.763461 0.188715 0.201154
O O4 0.996316 0.266601 0.404319
O O5 0.077813 0.750798 0.419255
O O6 0.835901 0.802249 0.204885
O O7 0.054481 0.910186 0.463384
O O8 0.834040 0.585718 0.039935
O O9 0.750000 0.750000 0.000000
O O10 0.500000 0.363490 0.750000
O O11 0.233711 0.415292 0.477382
O O12 0.367608 0.434230 0.511889
O O13 0.322649 0.260655 0.496953
O O14 0.135480 0.976234 0.783744
O O15 0.391055 0.914651 0.043843
#
# Coordination Sequence:
#
# PCOD9270033 Si02
#       7
#     8   8   8   8   8   8   8
#     4  10  20  36  56  82 109 139 178 218 262 318
#     4  11  21  38  59  79 106 143 177 221 269 310
#     4  11  23  39  57  80 106 138 180 224 266 316
#     4   9  16  31  55  83 109 140 177 218 264 314
#     4   9  18  33  53  77 110 143 174 216 269 316
#     4   8  17  32  56  81 103 136 184 223 256 310
#     4  10  20  35  54  82 112 141 176 218 261 318
#
# _framework density 20.586665
#
# number of rings (size 3 to 8) (size 9 to 14) (size 15 to 20)
#    0.000    2.286    0.000    3.857    0.000    2.286 
#    0.000    7.857    0.000    0.000    0.000    0.000 
#    0.000    0.000    0.000    0.000    0.000    0.000 
#
# Total GULP energy -156287.600352 kJ/mol
# GULP energy per Si atom -5581.700013 kJ/mol
# Density = 2.053981 g / cm^3
# Si number density = 20.586665 Si / 1000 Ang^3
#
#
#
# Elastic Constant Matrix: (Units=GPa)
#
#
# Indices 1 2 3 4 5 6 
#
# 1 76.0004 27.1291 0.1774 -0.0002 -8.4829 -0.0001
# 2 27.1291 104.5641 -10.3351 -0.0001 1.9707 0.0000
# 3 0.1774 -10.3351 42.7337 -0.0003 -1.8185 -0.0002
# 4 -0.0002 -0.0001 -0.0003 19.6737 -0.0001 0.5969
# 5 -8.4829 1.9707 -1.8185 -0.0001 27.0502 0.0000
# 6 -0.0001 0.0000 -0.0002 0.5969 0.0000 13.6371
#
#
#
# Elastic Compliance Matrix: (Units=1/GPa)
#
#
# Indices 1 2 3 4 5 6 
#
# 1 0.015189 -0.004119 -0.000846 0.000000 0.005006 0.000000
# 2 -0.004119 0.010923 0.002577 0.000000 -0.001914 0.000000
# 3 -0.000846 0.002577 0.024077 0.000000 0.001165 0.000000
# 4 0.000000 0.000000 0.000000 0.050897 0.000000 -0.002228
# 5 0.005006 -0.001914 0.001165 0.000000 0.038756 0.000000
# 6 0.000000 0.000000 0.000000 -0.002228 0.000000 0.073427
#
#
# Mechanical properties :
#
#
# Convention : Reuss Voigt Hill
#
# Bulk Modulus (GPa) = 22.01967 28.58233 25.30100
# Shear Modulus (GPa) = 21.44249 25.82732 23.63490
#
# Velocity S-wave (km/s) = 3.23084 3.54583 3.39199
# Velocity P-wave (km/s) = 4.96357 5.53876 5.25904
#
# Compressibility (1/GPa) = 0.04541395
#
# Stress axis : x y z
#
# Youngs Moduli (GPa) = 65.83799 91.55057 41.53310
#
# Poissons Ratio (x) = 0.37707 0.03514
# Poissons Ratio (y) = 0.27117 -0.10705
# Poissons Ratio (z) = 0.05571 -0.23596
#
# Static dielectric constant tensor:
#      x y z
#    x 1.715720 0.000000 -0.031170 
#    y 0.000000 1.746720 0.000000 
#    z -0.031170 0.000000 1.728820 
# 
# From -- ./inp_files/255471.got.cif
#   From: 2010.05.17/outbox.cif.g08.bks.cpg/sg15_128_cif.got.tgz:255471.got - 2010.06.03 18:47:42.
