data_PCOD9270953
_publ_section_title
;
Structure prediction by ZEFSAII (Michael W. Deem and Ramdas Pophale) SiO2 
 PCOD9270953
Probable space group: C 2/C
;
_chemical_formula_sum "Si O2"
_cell_formula_units_Z 64
_cell_length_a 30.269488
_cell_length_b 7.011048
_cell_length_c 14.504290
_cell_angle_alpha 90.000000
_cell_angle_beta 63.597899
_cell_angle_gamma 90.000000
_cell_volume 2757.051386
_symmetry_space_group_name_H-M "C 2/C"
_symmetry_group_IT_number 15
_symmetry_cell_setting 'monoclinic'
loop_
_space_group_symop_operation_xyz
x,y,z
-x,y,1/2-z
-x,-y,-z
x,-y,1/2+z
1/2+x,1/2+y,z
1/2-x,1/2+y,1/2-z
1/2-x,1/2-y,-z
1/2+x,1/2-y,1/2+z
loop_
_atom_site_type_symbol
_atom_site_label
_atom_site_fract_x
_atom_site_fract_y
_atom_site_fract_z
Si Si1 0.047539 0.614191 0.161643
Si Si2 0.609593 0.594056 0.962322
Si Si3 0.591755 0.596809 0.763818
Si Si4 0.742101 0.962848 0.321042
Si Si5 0.141636 0.340872 0.477858
Si Si6 0.990990 0.999259 0.398512
Si Si7 0.692431 0.624588 0.587403
Si Si8 0.783256 0.859388 0.093637
O O1 0.092065 0.545619 0.053317
O O2 0.022725 0.789203 0.126751
O O3 0.000000 0.506598 0.250000
O O4 0.075972 0.716858 0.220284
O O5 0.601565 0.639689 0.862160
O O6 0.658663 0.690838 0.953807
O O7 0.622508 0.366709 0.960561
O O8 0.558748 0.620669 0.065353
O O9 0.544030 0.458023 0.804539
O O10 0.642274 0.526850 0.671740
O O11 0.774542 0.825484 0.355807
O O12 0.746223 0.165974 0.367366
O O13 0.684125 0.913881 0.370085
O O14 0.768183 0.973463 0.199006
O O15 0.173117 0.297138 0.541739
O O16 0.000000 0.000000 0.500000
O O17 0.721212 0.485829 0.491853
#
# Coordination Sequence:
#
# PCOD9270953 Si02
#       8
#     8   8   8   8   8   8   8   8
#     4   8  14  26  45  75 103 131 173 211 255 310
#     4   9  16  32  50  77 107 133 176 215 264 307
#     4   9  15  27  50  77 106 134 168 221 261 298
#     4  12  23  38  55  76 108 140 181 218 268 313
#     4   9  19  32  53  77 103 138 175 218 261 313
#     4   8  14  24  47  77 103 132 168 217 261 299
#     4  10  20  36  56  78 107 136 179 223 265 309
#     4  11  23  37  54  77 104 142 175 223 263 318
#
# _framework density 23.213204000000001
#
# number of rings (size 3 to 8) (size 9 to 14) (size 15 to 20)
#    0.000    2.500    1.250    3.000    0.000    0.000 
#    0.000    0.000    0.000    1.500    0.000   29.750 
#    0.000    0.000    0.000    0.000    0.000    0.000 
#
# Total GULP energy -178310.406039 kJ/mol
# GULP energy per Si atom -5572.200189 kJ/mol
# Density = 2.316037 g / cm^3
# Si number density = 23.213204 Si / 1000 Ang^3
#
#
#
# Elastic Constant Matrix: (Units=GPa)
#
#
# Indices 1 2 3 4 5 6 
#
# 1 86.9915 7.1844 42.8094 0.0000 -11.1730 0.0000
# 2 7.1844 22.8974 -2.0926 0.0000 -9.7057 0.0000
# 3 42.8094 -2.0926 134.6735 0.0000 -32.1542 0.0000
# 4 0.0000 0.0000 0.0000 7.7301 0.0000 -14.0532
# 5 -11.1730 -9.7057 -32.1542 0.0000 53.1646 0.0000
# 6 0.0000 0.0000 0.0000 -14.0532 0.0000 8.1115
#
#
#
# Elastic Compliance Matrix: (Units=1/GPa)
#
#
# Indices 1 2 3 4 5 6 
#
# 1 0.014178 -0.005262 -0.004800 0.000000 -0.000884 0.000000
# 2 -0.005262 0.050555 0.005140 0.000000 0.011232 0.000000
# 3 -0.004800 0.005140 0.010535 0.000000 0.006302 0.000000
# 4 0.000000 0.000000 0.000000 -0.060179 0.000000 -0.104260
# 5 -0.000884 0.011232 0.006302 0.000000 0.024485 0.000000
# 6 0.000000 0.000000 0.000000 -0.104260 0.000000 -0.057349
#
#
# Mechanical properties :
#
#
# Convention : Reuss Voigt Hill
#
# Bulk Modulus (GPa) = 15.28465 37.81831 26.55148
# Shear Modulus (GPa) = 360.27067 26.91199 193.59133
#
# Velocity S-wave (km/s) = 12.47147 3.40860 9.14211
# Velocity P-wave (km/s) = 14.62813 5.64079 11.08605
#
# Compressibility (1/GPa) = 0.06542512
#
# Stress axis : x y z
#
# Youngs Moduli (GPa) = 70.52956 19.78051 94.91722
#
# Poissons Ratio (x) = 0.10408 0.45558
# Poissons Ratio (y) = 0.37113 -0.48787
# Poissons Ratio (z) = 0.33853 -0.10167
#
# Static dielectric constant tensor:
#      x y z
#    x 1.927920 0.000000 -0.053150 
#    y 0.000000 1.911830 0.000000 
#    z -0.053150 0.000000 1.892970 
# 
# From -- ./inp_files/180801.got.cif
#   From: 2010.05.17/outbox.cif.g08.bks.cpg/sg15_91_cif.got.tgz:180801.got - 2010.06.03 18:47:42.
