data_PCOD9270772
_publ_section_title
;
Structure prediction by ZEFSAII (Michael W. Deem and Ramdas Pophale) SiO2 
 PCOD9270772
Probable space group: C 2/C
;
_chemical_formula_sum "Si O2"
_cell_formula_units_Z 48
_cell_length_a 20.259524
_cell_length_b 22.117824
_cell_length_c 13.738882
_cell_angle_alpha 90.000000
_cell_angle_beta 23.217148
_cell_angle_gamma 90.000000
_cell_volume 2426.936170
_symmetry_space_group_name_H-M "C 2/C"
_symmetry_group_IT_number 15
_symmetry_cell_setting 'monoclinic'
loop_
_space_group_symop_operation_xyz
x,y,z
-x,y,1/2-z
-x,-y,-z
x,-y,1/2+z
1/2+x,1/2+y,z
1/2-x,1/2+y,1/2-z
1/2-x,1/2-y,-z
1/2+x,1/2-y,1/2+z
loop_
_atom_site_type_symbol
_atom_site_label
_atom_site_fract_x
_atom_site_fract_y
_atom_site_fract_z
Si Si1 0.500000 0.617784 0.750000
Si Si2 0.731550 0.519222 0.100292
Si Si3 0.200542 0.901688 0.467848
Si Si4 0.888509 0.215953 0.747207
Si Si5 0.845072 0.678711 0.609930
Si Si6 0.000000 0.415933 0.750000
Si Si7 0.348442 0.478368 0.577000
O O1 0.441898 0.658803 0.739313
O O2 0.644028 0.575069 0.510714
O O3 0.542868 0.496334 0.333444
O O4 0.734956 0.537878 0.208428
O O5 0.766725 0.575789 0.982489
O O6 0.851006 0.461863 0.925378
O O7 0.284287 0.847955 0.294820
O O8 0.227782 0.961318 0.364544
O O9 0.000000 0.891584 0.750000
O O10 0.808658 0.195833 0.753397
O O11 0.040655 0.262517 0.530857
O O12 0.750000 0.250000 0.000000
O O13 0.946522 0.627881 0.410945
#
# Coordination Sequence:
#
# PCOD9270772 Si02
#       7
#     4   8   8   8   8   4   8
#     4  12  21  36  68  94 126 159 226 272 318 386
#     4  10  21  37  55  99 132 165 211 247 342 403
#     4  10  22  42  66  95 131 179 210 265 334 406
#     4  12  24  43  62  99 127 173 227 278 328 370
#     4  12  25  43  68  96 134 173 228 278 325 383
#     4  12  21  36  66  94 140 161 204 288 330 392
#     4  10  20  35  64  95 125 168 213 265 328 399
#
# _framework density 19.778023999999998
#
# number of rings (size 3 to 8) (size 9 to 14) (size 15 to 20)
#    0.000    1.000    7.500    1.000    4.667    0.667 
#    3.000    0.833    0.000    0.000    0.000    0.000 
#    0.000    0.000    0.000    0.000    0.000    0.000 
#
# Total GULP energy -134112.511126 kJ/mol
# GULP energy per Si atom -5588.021297 kJ/mol
# Density = 1.973301 g / cm^3
# Si number density = 19.778024 Si / 1000 Ang^3
#
#
#
# Elastic Constant Matrix: (Units=GPa)
#
#
# Indices 1 2 3 4 5 6 
#
# 1 95.6597 51.2554 52.3249 -0.0043 26.2248 0.0039
# 2 51.2554 107.3604 45.8908 -0.0102 11.1748 0.0051
# 3 52.3249 45.8908 63.0425 -0.0048 26.7709 -0.0031
# 4 -0.0043 -0.0102 -0.0048 29.2207 0.0009 11.9073
# 5 26.2248 11.1748 26.7709 0.0009 33.3421 0.0015
# 6 0.0039 0.0051 -0.0031 11.9073 0.0015 39.4103
#
#
#
# Elastic Compliance Matrix: (Units=1/GPa)
#
#
# Indices 1 2 3 4 5 6 
#
# 1 0.020637 -0.004279 -0.011729 0.000001 -0.005380 -0.000002
# 2 -0.004279 0.015009 -0.010117 0.000004 0.006458 -0.000004
# 3 -0.011729 -0.010117 0.041886 0.000000 -0.021014 0.000007
# 4 0.000001 0.000004 0.000000 0.039027 -0.000002 -0.011792
# 5 -0.005380 0.006458 -0.021014 -0.000002 0.048932 -0.000003
# 6 -0.000002 -0.000004 0.000007 -0.011792 -0.000003 0.028937
#
#
# Mechanical properties :
#
#
# Convention : Reuss Voigt Hill
#
# Bulk Modulus (GPa) = 39.55338 62.77832 51.16585
# Shear Modulus (GPa) = 19.59971 28.16738 23.88354
#
# Velocity S-wave (km/s) = 3.15141 3.77792 3.47879
# Velocity P-wave (km/s) = 5.76922 7.13026 6.48554
#
# Compressibility (1/GPa) = 0.02528229
#
# Stress axis : x y z
#
# Youngs Moduli (GPa) = 48.45628 66.62493 23.87451
#
# Poissons Ratio (x) = 0.28508 0.28003
# Poissons Ratio (y) = 0.20734 0.24153
# Poissons Ratio (z) = 0.56836 0.67403
#
# Static dielectric constant tensor:
#      x y z
#    x 1.749530 -0.000010 -0.011530 
#    y -0.000010 1.683060 0.000000 
#    z -0.011530 0.000000 1.722250 
# 
# From -- ./inp_files/31953.got.cif
#   From: 2010.05.17/outbox.cif.g08.bks.cpg/sg15_16_cif.got.tgz:31953.got - 2010.06.03 18:47:42.
