data_PCOD9270574
_publ_section_title
;
Structure prediction by ZEFSAII (Michael W. Deem and Ramdas Pophale) SiO2 
 PCOD9270574
Probable space group: C 2/C
;
_chemical_formula_sum "Si O2"
_cell_formula_units_Z 64
_cell_length_a 9.036232
_cell_length_b 29.957149
_cell_length_c 23.689132
_cell_angle_alpha 90.000000
_cell_angle_beta 33.194086
_cell_angle_gamma 90.000000
_cell_volume 3510.773087
_symmetry_space_group_name_H-M "C 2/C"
_symmetry_group_IT_number 15
_symmetry_cell_setting 'monoclinic'
loop_
_space_group_symop_operation_xyz
x,y,z
-x,y,1/2-z
-x,-y,-z
x,-y,1/2+z
1/2+x,1/2+y,z
1/2-x,1/2+y,1/2-z
1/2-x,1/2-y,-z
1/2+x,1/2-y,1/2+z
loop_
_atom_site_type_symbol
_atom_site_label
_atom_site_fract_x
_atom_site_fract_y
_atom_site_fract_z
Si Si1 0.785888 0.706213 0.657070
Si Si2 0.381958 0.951063 0.729867
Si Si3 0.184333 0.643171 0.139681
Si Si4 0.816392 0.490425 0.143829
Si Si5 0.557077 0.742044 0.166025
Si Si6 0.240827 0.561454 0.436605
Si Si7 0.704485 0.344820 0.548190
Si Si8 0.660622 0.729453 0.468540
O O1 0.500000 0.682043 0.750000
O O2 0.776461 0.740646 0.607125
O O3 0.837043 0.732033 0.699221
O O4 0.037480 0.674486 0.566045
O O5 0.500000 0.969237 0.750000
O O6 0.540813 0.903784 0.668618
O O7 0.407997 0.986842 0.672422
O O8 0.062993 0.943799 0.842111
O O9 0.479097 0.639289 0.074999
O O10 0.212759 0.680688 0.082755
O O11 0.000000 0.660939 0.250000
O O12 0.500000 0.475213 0.250000
O O13 0.818778 0.531180 0.098369
O O14 0.035677 0.455301 0.050709
O O15 0.500000 0.735951 0.250000
O O16 0.594565 0.695021 0.122229
O O17 0.835224 0.769903 0.072735
O O18 0.205701 0.614115 0.441735
O O19 0.750000 0.750000 0.500000
#
# Coordination Sequence:
#
# PCOD9270574 Si02
#       8
#     8   8   8   8   8   8   8   8
#     4  11  22  39  56  79 116 157 195 241 281 340
#     4  10  20  35  60  91 110 148 185 229 289 337
#     4  11  20  36  59  84 118 145 183 250 292 320
#     4   9  21  39  60  86 122 148 178 233 287 347
#     4  11  23  37  57  84 117 155 194 244 285 341
#     4  10  20  38  61  87 115 148 187 233 286 339
#     4  11  21  38  58  86 114 149 198 240 286 339
#     4  11  22  35  56  84 113 152 196 234 294 342
#
# _framework density 18.229603000000001
#
# number of rings (size 3 to 8) (size 9 to 14) (size 15 to 20)
#    0.000    1.500    5.000    1.875    1.750    4.500 
#    0.000    0.000    0.000    0.750    0.000    0.000 
#    0.000    0.000    0.000    0.000    0.000    0.000 
#
# Total GULP energy -178387.743136 kJ/mol
# GULP energy per Si atom -5574.616973 kJ/mol
# Density = 1.818811 g / cm^3
# Si number density = 18.229603 Si / 1000 Ang^3
#
#
#
# Elastic Constant Matrix: (Units=GPa)
#
#
# Indices 1 2 3 4 5 6 
#
# 1 86.7452 1.3118 18.2940 0.0013 -5.9208 -0.0004
# 2 1.3118 25.7186 13.1291 0.0026 -16.2295 -0.0008
# 3 18.2940 13.1291 83.3227 0.0115 -15.9006 -0.0029
# 4 0.0013 0.0026 0.0115 -106.7806 -0.0010 34.4187
# 5 -5.9208 -16.2295 -15.9006 -0.0010 27.4775 0.0001
# 6 -0.0004 -0.0008 -0.0029 34.4187 0.0001 8.6141
#
#
#
# Elastic Compliance Matrix: (Units=1/GPa)
#
#
# Indices 1 2 3 4 5 6 
#
# 1 0.012203 0.002246 -0.002561 0.000000 0.002474 0.000000
# 2 0.002246 0.063132 -0.003634 0.000001 0.035670 0.000000
# 3 -0.002561 -0.003634 0.014188 0.000001 0.005512 0.000000
# 4 0.000000 0.000001 0.000001 -0.004093 0.000001 0.016355
# 5 0.002474 0.035670 0.005512 0.000001 0.061185 0.000000
# 6 0.000000 0.000000 0.000000 0.016355 0.000000 0.050740
#
#
# Mechanical properties :
#
#
# Convention : Reuss Voigt Hill
#
# Bulk Modulus (GPa) = 12.25101 29.02849 20.63975
# Shear Modulus (GPa) = 21.50902 -3.26770 9.12066
#
# Velocity S-wave (km/s) = 3.43869 -1.34030 2.23921
# Velocity P-wave (km/s) = 4.74353 3.68282 4.24642
#
# Compressibility (1/GPa) = 0.08162594
#
# Stress axis : x y z
#
# Youngs Moduli (GPa) = 81.94688 15.83984 70.48041
#
# Poissons Ratio (x) = -0.03558 0.18050
# Poissons Ratio (y) = -0.18408 0.25612
# Poissons Ratio (z) = 0.20987 0.05756
#
# Static dielectric constant tensor:
#      x y z
#    x 1.648220 0.000000 -0.026590 
#    y 0.000000 1.630440 0.000000 
#    z -0.026590 0.000000 1.664070 
# 
# From -- ./inp_files/266710.got.cif
#   From: 2010.05.17/outbox.cif.g08.bks.cpg/sg15_134_cif.got.tgz:266710.got - 2010.06.03 18:47:42.
