data_PCOD9270310
_publ_section_title
;
Structure prediction by ZEFSAII (Michael W. Deem and Ramdas Pophale) SiO2 
 PCOD9270310
Probable space group: C 2/C
;
_chemical_formula_sum "Si O2"
_cell_formula_units_Z 64
_cell_length_a 17.346474
_cell_length_b 8.949017
_cell_length_c 20.305112
_cell_angle_alpha 90.000000
_cell_angle_beta 108.163111
_cell_angle_gamma 90.000000
_cell_volume 2994.984595
_symmetry_space_group_name_H-M "C 2/C"
_symmetry_group_IT_number 15
_symmetry_cell_setting 'monoclinic'
loop_
_space_group_symop_operation_xyz
x,y,z
-x,y,1/2-z
-x,-y,-z
x,-y,1/2+z
1/2+x,1/2+y,z
1/2-x,1/2+y,1/2-z
1/2-x,1/2-y,-z
1/2+x,1/2-y,1/2+z
loop_
_atom_site_type_symbol
_atom_site_label
_atom_site_fract_x
_atom_site_fract_y
_atom_site_fract_z
Si Si1 0.836480 0.456839 0.694785
Si Si2 0.669540 0.395832 0.714876
Si Si3 0.504869 0.490535 0.829676
Si Si4 0.740997 0.483822 0.880534
Si Si5 0.108541 0.436265 0.160370
Si Si6 0.374946 0.271108 0.096405
Si Si7 0.635766 0.766106 0.394216
Si Si8 0.056877 0.491006 0.452223
O O1 0.741724 0.434552 0.684620
O O2 0.876666 0.451725 0.776284
O O3 0.871063 0.324235 0.661442
O O4 0.853728 0.607077 0.658722
O O5 0.587102 0.475938 0.673049
O O6 0.697160 0.451049 0.796093
O O7 0.644449 0.221130 0.698427
O O8 0.500000 0.516294 0.750000
O O9 0.549102 0.619944 0.880731
O O10 0.560699 0.344104 0.856485
O O11 0.833093 0.518553 0.884908
O O12 0.702554 0.619433 0.913520
O O13 0.715420 0.336323 0.913014
O O14 0.013837 0.450441 0.120064
O O15 0.393100 0.144134 0.046902
O O16 0.617558 0.853232 0.456897
O O17 0.000000 0.500000 0.500000
#
# Coordination Sequence:
#
# PCOD9270310 Si02
#       8
#     8   8   8   8   8   8   8   8
#     4  10  21  32  55  89 119 151 177 223 296 362
#     4  11  19  32  55  90 131 149 172 219 295 371
#     4  11  19  32  56  90 122 146 180 220 291 360
#     4  10  20  35  57  91 121 146 181 227 296 361
#     4  11  21  35  59  86 123 153 187 225 293 349
#     4  10  22  36  56  86 120 144 189 241 289 337
#     4  10  20  37  60  81 119 153 187 231 294 349
#     4  11  26  43  59  78 111 157 213 250 274 323
#
# _framework density 21.369060000000001
#
# number of rings (size 3 to 8) (size 9 to 14) (size 15 to 20)
#    0.000    1.500    6.250    0.000    1.750    2.000 
#    0.000    3.750    0.000    0.000    0.000    0.000 
#    0.000    0.000    0.000    0.000    0.000    0.000 
#
# Total GULP energy -178400.850209 kJ/mol
# GULP energy per Si atom -5575.026569 kJ/mol
# Density = 2.132042 g / cm^3
# Si number density = 21.369060 Si / 1000 Ang^3
#
#
#
# Elastic Constant Matrix: (Units=GPa)
#
#
# Indices 1 2 3 4 5 6 
#
# 1 97.7027 16.1855 16.2722 0.0000 -7.7337 0.0000
# 2 16.1855 84.5556 10.2676 0.0000 -12.4769 0.0000
# 3 16.2722 10.2676 38.5577 0.0000 -23.4796 0.0000
# 4 0.0000 0.0000 0.0000 7.1921 0.0000 -11.2354
# 5 -7.7337 -12.4769 -23.4796 0.0000 37.9495 0.0000
# 6 0.0000 0.0000 0.0000 -11.2354 0.0000 20.4100
#
#
#
# Elastic Compliance Matrix: (Units=1/GPa)
#
#
# Indices 1 2 3 4 5 6 
#
# 1 0.011273 -0.001747 -0.005203 0.000000 -0.001496 0.000000
# 2 -0.001747 0.012742 -0.000516 0.000000 0.003514 0.000000
# 3 -0.005203 -0.000516 0.044156 0.000000 0.026089 0.000000
# 4 0.000000 0.000000 0.000000 0.992860 0.000000 0.546555
# 5 -0.001496 0.003514 0.026089 0.000000 0.043343 0.000000
# 6 0.000000 0.000000 0.000000 0.546555 0.000000 0.349866
#
#
# Mechanical properties :
#
#
# Convention : Reuss Voigt Hill
#
# Bulk Modulus (GPa) = 18.78363 34.02962 26.40662
# Shear Modulus (GPa) = 3.36266 24.98303 14.17284
#
# Velocity S-wave (km/s) = 1.25580 3.42295 2.57814
# Velocity P-wave (km/s) = 3.30332 5.61973 4.60941
#
# Compressibility (1/GPa) = 0.05323785
#
# Stress axis : x y z
#
# Youngs Moduli (GPa) = 88.71022 78.48009 22.64717
#
# Poissons Ratio (x) = 0.13709 0.11784
# Poissons Ratio (y) = 0.15495 0.01169
# Poissons Ratio (z) = 0.46159 0.04050
#
# Static dielectric constant tensor:
#      x y z
#    x 1.779870 0.000000 0.003020 
#    y 0.000000 1.832450 0.000000 
#    z 0.003020 0.000000 1.804760 
# 
# From -- ./inp_files/247472.got.cif
#   From: 2010.05.17/outbox.cif.g08.bks.cpg/sg15_124_cif.got.tgz:247472.got - 2010.06.03 18:47:42.
