data_PCOD9270755
_publ_section_title
;
Structure prediction by ZEFSAII (Michael W. Deem and Ramdas Pophale) SiO2 
 PCOD9270755
Probable space group: C 2/C
;
_chemical_formula_sum "Si O2"
_cell_formula_units_Z 60
_cell_length_a 8.745524
_cell_length_b 16.736047
_cell_length_c 18.830541
_cell_angle_alpha 90.000000
_cell_angle_beta 117.301686
_cell_angle_gamma 90.000000
_cell_volume 2449.117689
_symmetry_space_group_name_H-M "C 2/C"
_symmetry_group_IT_number 15
_symmetry_cell_setting 'monoclinic'
loop_
_space_group_symop_operation_xyz
x,y,z
-x,y,1/2-z
-x,-y,-z
x,-y,1/2+z
1/2+x,1/2+y,z
1/2-x,1/2+y,1/2-z
1/2-x,1/2-y,-z
1/2+x,1/2-y,1/2+z
loop_
_atom_site_type_symbol
_atom_site_label
_atom_site_fract_x
_atom_site_fract_y
_atom_site_fract_z
Si Si1 0.632202 0.847860 0.136146
Si Si2 0.792107 0.719976 0.349613
Si Si3 0.797737 0.685978 0.198090
Si Si4 0.699187 0.465287 0.418381
Si Si5 0.000000 0.589266 0.750000
Si Si6 0.166163 0.094435 0.617364
Si Si7 0.274744 0.136864 0.483240
Si Si8 0.683775 0.167874 0.448086
O O1 0.767801 0.777066 0.165419
O O2 0.734820 0.928290 0.140766
O O3 0.552960 0.855811 0.196171
O O4 0.467028 0.839095 0.049546
O O5 0.716544 0.683724 0.259900
O O6 0.823460 0.815130 0.349039
O O7 0.709401 0.699538 0.409331
O O8 0.981677 0.681830 0.395489
O O9 0.734829 0.645686 0.111727
O O10 0.000000 0.668895 0.250000
O O11 0.498459 0.452632 0.390397
O O12 0.769880 0.553111 0.441735
O O13 0.780305 0.406040 0.493810
O O14 0.166356 0.546991 0.818064
O O15 0.174098 0.114485 0.534814
O O16 0.750000 0.250000 0.500000
#
# Coordination Sequence:
#
# PCOD9270755 Si02
#       8
#     8   8   8   8   4   8   8   8
#     4  11  21  39  65  93 133 174 226 277 344 408
#     4  11  20  39  65  97 135 175 231 283 351 395
#     4  10  20  35  63  99 131 172 233 294 334 405
#     4  12  23  41  70  96 139 181 233 274 347 432
#     4  10  24  40  62 104 124 168 232 288 336 390
#     4  11  23  42  69  98 130 181 231 286 338 419
#     4  11  25  41  63 102 138 180 220 291 351 415
#     4  11  19  35  64 103 126 174 234 282 329 406
#
# _framework density 24.498619999999999
#
# number of rings (size 3 to 8) (size 9 to 14) (size 15 to 20)
#    0.000    1.067    5.333    2.000    0.000    0.000 
#    0.000    2.667    1.467    3.200    0.000    0.000 
#    0.000    0.000    0.000    0.000    0.000    0.000 
#
# Total GULP energy -167490.128332 kJ/mol
# GULP energy per Si atom -5583.004278 kJ/mol
# Density = 2.444286 g / cm^3
# Si number density = 24.498620 Si / 1000 Ang^3
#
#
#
# Elastic Constant Matrix: (Units=GPa)
#
#
# Indices 1 2 3 4 5 6 
#
# 1 73.3142 -6.5124 41.7942 0.0000 -5.0909 0.0000
# 2 -6.5124 56.9272 8.3100 0.0000 12.0810 0.0000
# 3 41.7942 8.3100 137.1880 0.0000 -20.0962 0.0000
# 4 0.0000 0.0000 0.0000 18.9902 0.0000 -3.2631
# 5 -5.0909 12.0810 -20.0962 0.0000 41.8329 0.0000
# 6 0.0000 0.0000 0.0000 -3.2631 0.0000 11.2258
#
#
#
# Elastic Compliance Matrix: (Units=1/GPa)
#
#
# Indices 1 2 3 4 5 6 
#
# 1 0.016992 0.003078 -0.005583 0.000000 -0.001503 0.000000
# 2 0.003078 0.019834 -0.003145 0.000000 -0.006864 0.000000
# 3 -0.005583 -0.003145 0.009912 0.000000 0.004990 0.000000
# 4 0.000000 0.000000 0.000000 0.055427 0.000000 0.016112
# 5 -0.001503 -0.006864 0.004990 0.000000 0.028101 0.000000
# 6 0.000000 0.000000 0.000000 0.016112 0.000000 0.093764
#
#
# Mechanical properties :
#
#
# Convention : Reuss Voigt Hill
#
# Bulk Modulus (GPa) = 28.21851 39.40144 33.80998
# Shear Modulus (GPa) = 20.23127 29.33227 24.78177
#
# Velocity S-wave (km/s) = 2.87681 3.46396 3.18395
# Velocity P-wave (km/s) = 4.75165 5.66716 5.22948
#
# Compressibility (1/GPa) = 0.03543773
#
# Stress axis : x y z
#
# Youngs Moduli (GPa) = 58.85214 50.41818 100.89145
#
# Poissons Ratio (x) = -0.15518 0.56329
# Poissons Ratio (y) = -0.18114 0.31726
# Poissons Ratio (z) = 0.32858 0.15854
#
# Static dielectric constant tensor:
#      x y z
#    x 2.063230 0.000000 -0.062880 
#    y 0.000000 2.033910 0.000000 
#    z -0.062880 0.000000 2.039290 
# 
# From -- ./inp_files/232760.got.cif
#   From: 2010.05.17/outbox.cif.g08.bks.cpg/sg15_117_cif.got.tgz:232760.got - 2010.06.03 18:47:42.
