data_PCOD9270398
_publ_section_title
;
Structure prediction by ZEFSAII (Michael W. Deem and Ramdas Pophale) SiO2 
 PCOD9270398
Probable space group: C 2/C
;
_chemical_formula_sum "Si O2"
_cell_formula_units_Z 60
_cell_length_a 8.598413
_cell_length_b 13.389295
_cell_length_c 23.885488
_cell_angle_alpha 90.000000
_cell_angle_beta 92.606895
_cell_angle_gamma 90.000000
_cell_volume 2747.011312
_symmetry_space_group_name_H-M "C 2/C"
_symmetry_group_IT_number 15
_symmetry_cell_setting 'monoclinic'
loop_
_space_group_symop_operation_xyz
x,y,z
-x,y,1/2-z
-x,-y,-z
x,-y,1/2+z
1/2+x,1/2+y,z
1/2-x,1/2+y,1/2-z
1/2-x,1/2-y,-z
1/2+x,1/2-y,1/2+z
loop_
_atom_site_type_symbol
_atom_site_label
_atom_site_fract_x
_atom_site_fract_y
_atom_site_fract_z
Si Si1 0.699359 0.592802 0.515581
Si Si2 0.465391 0.548696 0.415776
Si Si3 0.000000 0.525085 0.750000
Si Si4 0.747495 0.262651 0.566173
Si Si5 0.382601 0.182628 0.836294
Si Si6 0.655071 0.337692 0.844091
Si Si7 0.910255 0.306680 0.944708
Si Si8 0.834610 0.335213 0.731904
O O1 0.602898 0.539289 0.464123
O O2 0.664804 0.532301 0.571501
O O3 0.870260 0.614347 0.493544
O O4 0.621701 0.699832 0.526934
O O5 0.379156 0.653096 0.424084
O O6 0.549206 0.566060 0.358148
O O7 0.907684 0.592294 0.793526
O O8 0.886952 0.447083 0.715226
O O9 0.750000 0.250000 0.500000
O O10 0.691213 0.168772 0.602902
O O11 0.921270 0.302225 0.580390
O O12 0.548593 0.238598 0.842042
O O13 0.264408 0.265537 0.809575
O O14 0.782677 0.324546 0.894672
O O15 0.735640 0.348559 0.786335
O O16 0.000000 0.285117 0.750000
#
# Coordination Sequence:
#
# PCOD9270398 Si02
#       8
#     8   8   4   8   8   8   8   8
#     4   9  18  35  54  78 126 160 215 261 307 399
#     4   9  19  35  55  86 116 170 209 262 328 383
#     4  10  24  44  74 100 126 180 226 272 346 398
#     4  11  22  38  61  94 128 173 214 270 333 392
#     4  11  22  46  69  93 141 173 215 291 330 391
#     4  10  20  39  64  86 128 169 209 277 338 383
#     4  10  20  35  58  87 122 172 215 262 327 386
#     4  10  22  42  68  98 126 165 227 276 331 410
#
# _framework density 21.841919000000001
#
# number of rings (size 3 to 8) (size 9 to 14) (size 15 to 20)
#    0.400    1.600    2.667    0.800    1.867    1.600 
#    7.200    1.333    0.000    0.000    0.000    0.000 
#    0.000    0.000    0.000    0.000    0.000    0.000 
#
# Total GULP energy -167179.609675 kJ/mol
# GULP energy per Si atom -5572.653656 kJ/mol
# Density = 2.179221 g / cm^3
# Si number density = 21.841919 Si / 1000 Ang^3
#
#
#
# Elastic Constant Matrix: (Units=GPa)
#
#
# Indices 1 2 3 4 5 6 
#
# 1 71.9195 3.1870 21.6512 0.0000 -9.9224 0.0000
# 2 3.1870 49.0876 12.8914 0.0000 -1.4791 0.0000
# 3 21.6512 12.8914 77.8179 0.0000 -19.9878 0.0000
# 4 0.0000 0.0000 0.0000 5.0744 0.0000 -11.1512
# 5 -9.9224 -1.4791 -19.9878 0.0000 40.6119 0.0000
# 6 0.0000 0.0000 0.0000 -11.1512 0.0000 17.2607
#
#
#
# Elastic Compliance Matrix: (Units=1/GPa)
#
#
# Indices 1 2 3 4 5 6 
#
# 1 0.015300 0.000057 -0.003784 0.000000 0.001878 0.000000
# 2 0.000057 0.021342 -0.003833 0.000000 -0.001095 0.000000
# 3 -0.003784 -0.003833 0.016329 0.000000 0.006973 0.000000
# 4 0.000000 0.000000 0.000000 -0.469546 0.000000 -0.303347
# 5 0.001878 -0.001095 0.006973 0.000000 0.028474 0.000000
# 6 0.000000 0.000000 0.000000 -0.303347 0.000000 -0.138041
#
#
# Mechanical properties :
#
#
# Convention : Reuss Voigt Hill
#
# Bulk Modulus (GPa) = 26.41899 30.47604 28.44751
# Shear Modulus (GPa) = -10.03200 23.32910 6.64855
#
# Velocity S-wave (km/s) = -2.14545 3.27171 1.74658
# Velocity P-wave (km/s) = 2.44632 5.31558 4.13763
#
# Compressibility (1/GPa) = 0.03785157
#
# Stress axis : x y z
#
# Youngs Moduli (GPa) = 65.35871 46.85692 61.24006
#
# Poissons Ratio (x) = -0.00267 0.23174
# Poissons Ratio (y) = -0.00372 0.23471
# Poissons Ratio (z) = 0.24732 0.17958
#
# Static dielectric constant tensor:
#      x y z
#    x 1.849300 0.000000 0.020570 
#    y 0.000000 1.826200 0.000000 
#    z 0.020570 0.000000 1.982480 
# 
# From -- ./inp_files/288434.got.cif
#   From: 2010.05.17/outbox.cif.g08.bks.cpg/sg15_145_cif.got.tgz:288434.got - 2010.06.03 18:47:42.
