data_PCOD9270016
_publ_section_title
;
Structure prediction by ZEFSAII (Michael W. Deem and Ramdas Pophale) SiO2 
 PCOD9270016
Probable space group: C 2/C
;
_chemical_formula_sum "Si O2"
_cell_formula_units_Z 36
_cell_length_a 7.230264
_cell_length_b 29.747616
_cell_length_c 8.803895
_cell_angle_alpha 90.000000
_cell_angle_beta 120.391667
_cell_angle_gamma 90.000000
_cell_volume 1633.368643
_symmetry_space_group_name_H-M "C 2/C"
_symmetry_group_IT_number 15
_symmetry_cell_setting 'monoclinic'
loop_
_space_group_symop_operation_xyz
x,y,z
-x,y,1/2-z
-x,-y,-z
x,-y,1/2+z
1/2+x,1/2+y,z
1/2-x,1/2+y,1/2-z
1/2-x,1/2-y,-z
1/2+x,1/2-y,1/2+z
loop_
_atom_site_type_symbol
_atom_site_label
_atom_site_fract_x
_atom_site_fract_y
_atom_site_fract_z
Si Si1 0.000000 0.022290 0.750000
Si Si2 0.329376 0.140408 0.548880
Si Si3 0.781499 0.460015 0.086696
Si Si4 0.493281 0.306979 0.073957
Si Si5 0.245949 0.215626 0.289826
O O1 0.129356 0.048063 0.671246
O O2 0.836000 0.991556 0.583591
O O3 0.500000 0.152132 0.750000
O O4 0.338191 0.087251 0.530314
O O5 0.097946 0.153462 0.519636
O O6 0.355045 0.173619 0.418513
O O7 0.000000 0.479472 0.250000
O O8 0.500000 0.321003 0.250000
O O9 0.640332 0.262340 0.128829
O O10 0.275557 0.293410 0.898674
O O11 0.000000 0.219246 0.250000
#
# Coordination Sequence:
#
# PCOD9270016 Si02
#       5
#     4   8   8   8   8
#     4  10  22  40  68  92 128 156 206 252 310 378
#     4  10  21  37  56  80 113 153 197 235 290 359
#     4  10  22  40  65  94 124 163 202 251 314 367
#     4  11  21  33  55  81 113 149 193 248 288 343
#     4  10  20  35  54  76 108 154 193 233 288 353
#
# _framework density 22.04034
#
# number of rings (size 3 to 8) (size 9 to 14) (size 15 to 20)
#    0.000    1.778    0.000    6.000    6.222    0.000 
#    0.000    0.000    0.000    6.667    0.000    0.000 
#    0.000    0.000    0.000    0.000    0.000    0.000 
#
# Total GULP energy -100556.471454 kJ/mol
# GULP energy per Si atom -5586.470636 kJ/mol
# Density = 2.199017 g / cm^3
# Si number density = 22.040340 Si / 1000 Ang^3
#
#
#
# Elastic Constant Matrix: (Units=GPa)
#
#
# Indices 1 2 3 4 5 6 
#
# 1 41.6106 -3.7986 -2.4163 0.0000 -4.5423 0.0000
# 2 -3.7986 40.6466 14.5601 0.0000 12.9663 0.0000
# 3 -2.4163 14.5601 110.9133 0.0000 12.0019 0.0000
# 4 0.0000 0.0000 0.0000 20.2768 0.0000 -2.4444
# 5 -4.5423 12.9663 12.0019 0.0000 38.7401 0.0000
# 6 0.0000 0.0000 0.0000 -2.4444 0.0000 16.1016
#
#
#
# Elastic Compliance Matrix: (Units=1/GPa)
#
#
# Indices 1 2 3 4 5 6 
#
# 1 0.024430 0.001509 0.000082 0.000000 0.002334 0.000000
# 2 0.001509 0.028446 -0.002784 0.000000 -0.008482 0.000000
# 3 0.000082 -0.002784 0.009603 0.000000 -0.002034 0.000000
# 4 0.000000 0.000000 0.000000 0.050237 0.000000 0.007626
# 5 0.002334 -0.008482 -0.002034 0.000000 0.029556 0.000000
# 6 0.000000 0.000000 0.000000 0.007626 0.000000 0.063263
#
#
# Mechanical properties :
#
#
# Convention : Reuss Voigt Hill
#
# Bulk Modulus (GPa) = 16.64069 23.31787 19.97928
# Shear Modulus (GPa) = 21.93447 27.34537 24.63992
#
# Velocity S-wave (km/s) = 3.15810 3.52617 3.34720
# Velocity P-wave (km/s) = 4.56778 5.21355 4.90131
#
# Compressibility (1/GPa) = 0.06009367
#
# Stress axis : x y z
#
# Youngs Moduli (GPa) = 40.93386 35.15419 104.13048
#
# Poissons Ratio (x) = -0.05306 -0.00849
# Poissons Ratio (y) = -0.06178 0.28986
# Poissons Ratio (z) = -0.00334 0.09785
#
# Static dielectric constant tensor:
#      x y z
#    x 1.924620 0.000000 -0.008210 
#    y 0.000000 1.735820 0.000000 
#    z -0.008210 0.000000 1.878860 
# 
# From -- ./inp_files/24342.got.cif
#   From: 2010.05.17/outbox.cif.g08.bks.cpg/sg15_13_cif.got.tgz:24342.got - 2010.06.03 18:47:42.
