data_PCOD9270752
_publ_section_title
;
Structure prediction by ZEFSAII (Michael W. Deem and Ramdas Pophale) SiO2 
 PCOD9270752
Probable space group: C 2/C
;
_chemical_formula_sum "Si O2"
_cell_formula_units_Z 64
_cell_length_a 14.411402
_cell_length_b 13.435099
_cell_length_c 17.799023
_cell_angle_alpha 90.000000
_cell_angle_beta 57.428947
_cell_angle_gamma 90.000000
_cell_volume 2904.215786
_symmetry_space_group_name_H-M "C 2/C"
_symmetry_group_IT_number 15
_symmetry_cell_setting 'monoclinic'
loop_
_space_group_symop_operation_xyz
x,y,z
-x,y,1/2-z
-x,-y,-z
x,-y,1/2+z
1/2+x,1/2+y,z
1/2-x,1/2+y,1/2-z
1/2-x,1/2-y,-z
1/2+x,1/2-y,1/2+z
loop_
_atom_site_type_symbol
_atom_site_label
_atom_site_fract_x
_atom_site_fract_y
_atom_site_fract_z
Si Si1 0.228877 0.119918 0.264932
Si Si2 0.489165 0.281806 0.668056
Si Si3 0.470552 0.883469 0.957891
Si Si4 0.791365 0.914713 0.178434
Si Si5 0.965888 0.557918 0.683715
Si Si6 0.682836 0.961154 0.929443
Si Si7 0.438158 0.744772 0.697647
Si Si8 0.194015 0.852666 0.498770
O O1 0.136962 0.203571 0.298756
O O2 0.247608 0.070313 0.174215
O O3 0.342574 0.169687 0.242502
O O4 0.181368 0.031744 0.336563
O O5 0.500000 0.314195 0.750000
O O6 0.520669 0.165785 0.651894
O O7 0.568302 0.343418 0.579982
O O8 0.576191 0.888305 0.966343
O O9 0.477987 0.785568 0.903797
O O10 0.495759 0.975970 0.891210
O O11 0.363047 0.925103 0.047417
O O12 0.664302 0.921845 0.260327
O O13 0.872887 0.852225 0.196152
O O14 0.793984 0.867553 0.094766
O O15 0.000000 0.518367 0.750000
O O16 0.748058 0.937457 0.976545
O O17 0.500000 0.732631 0.750000
O O18 0.250000 0.750000 0.500000
#
# Coordination Sequence:
#
# PCOD9270752 Si02
#       8
#     8   8   8   8   8   8   8   8
#     4  11  23  43  67  94 133 179 222 269 334 412
#     4  11  22  39  65  94 135 172 212 274 343 394
#     4  10  20  35  63  95 130 168 222 277 329 386
#     4  12  25  42  65  99 135 170 226 275 333 402
#     4  11  20  34  61  98 130 170 219 275 334 390
#     4  10  20  36  60  99 129 166 217 275 331 386
#     4  11  24  43  66  94 132 183 224 275 334 397
#     4  12  23  39  67 100 132 164 217 285 335 392
#
# _framework density 22.036930000000002
#
# number of rings (size 3 to 8) (size 9 to 14) (size 15 to 20)
#    0.000    1.000    5.000    4.875    1.750    2.000 
#    0.000    0.000    0.000    1.500    0.000    0.000 
#    0.000    0.000    0.000    0.000    0.000    0.000 
#
# Total GULP energy -178816.521049 kJ/mol
# GULP energy per Si atom -5588.016283 kJ/mol
# Density = 2.198677 g / cm^3
# Si number density = 22.036930 Si / 1000 Ang^3
#
#
#
# Elastic Constant Matrix: (Units=GPa)
#
#
# Indices 1 2 3 4 5 6 
#
# 1 111.9897 15.0950 30.1465 0.0000 19.9999 0.0000
# 2 15.0950 54.3182 3.4432 0.0000 8.9107 0.0000
# 3 30.1465 3.4432 85.6030 0.0000 12.0693 0.0000
# 4 0.0000 0.0000 0.0000 20.2043 0.0000 6.4825
# 5 19.9999 8.9107 12.0693 0.0000 38.7956 0.0000
# 6 0.0000 0.0000 0.0000 6.4825 0.0000 31.4876
#
#
#
# Elastic Compliance Matrix: (Units=1/GPa)
#
#
# Indices 1 2 3 4 5 6 
#
# 1 0.010793 -0.002128 -0.003137 0.000000 -0.004099 0.000000
# 2 -0.002128 0.019552 0.000462 0.000000 -0.003537 0.000000
# 3 -0.003137 0.000462 0.013131 0.000000 -0.002574 0.000000
# 4 0.000000 0.000000 0.000000 0.052995 0.000000 -0.010910
# 5 -0.004099 -0.003537 -0.002574 0.000000 0.029502 0.000000
# 6 0.000000 0.000000 0.000000 -0.010910 0.000000 0.034005
#
#
# Mechanical properties :
#
#
# Convention : Reuss Voigt Hill
#
# Bulk Modulus (GPa) = 29.52550 38.80891 34.16721
# Shear Modulus (GPa) = 27.64336 31.64592 29.64464
#
# Velocity S-wave (km/s) = 3.54561 3.79362 3.67171
# Velocity P-wave (km/s) = 5.49446 6.06942 5.78908
#
# Compressibility (1/GPa) = 0.03386902
#
# Stress axis : x y z
#
# Youngs Moduli (GPa) = 92.65425 51.14452 76.15570
#
# Poissons Ratio (x) = 0.10883 0.23893
# Poissons Ratio (y) = 0.19717 -0.03516
# Poissons Ratio (z) = 0.29069 -0.02361
#
# Static dielectric constant tensor:
#      x y z
#    x 1.829980 0.000000 -0.012370 
#    y 0.000000 1.864640 0.000000 
#    z -0.012370 0.000000 1.863640 
# 
# From -- ./inp_files/205395.got.cif
#   From: 2010.05.17/outbox.cif.g08.bks.cpg/sg15_103_cif.got.tgz:205395.got - 2010.06.03 18:47:42.
