data_PCOD9270976
_publ_section_title
;
Structure prediction by ZEFSAII (Michael W. Deem and Ramdas Pophale) SiO2 
 PCOD9270976
Probable space group: C 2/C
;
_chemical_formula_sum "Si O2"
_cell_formula_units_Z 56
_cell_length_a 13.038302
_cell_length_b 17.954542
_cell_length_c 18.617781
_cell_angle_alpha 90.000000
_cell_angle_beta 46.200407
_cell_angle_gamma 90.000000
_cell_volume 3145.713674
_symmetry_space_group_name_H-M "C 2/C"
_symmetry_group_IT_number 15
_symmetry_cell_setting 'monoclinic'
loop_
_space_group_symop_operation_xyz
x,y,z
-x,y,1/2-z
-x,-y,-z
x,-y,1/2+z
1/2+x,1/2+y,z
1/2-x,1/2+y,1/2-z
1/2-x,1/2-y,-z
1/2+x,1/2-y,1/2+z
loop_
_atom_site_type_symbol
_atom_site_label
_atom_site_fract_x
_atom_site_fract_y
_atom_site_fract_z
Si Si1 0.308470 0.678269 0.014339
Si Si2 0.627627 0.927376 0.801235
Si Si3 0.139186 0.272825 0.729114
Si Si4 0.352065 0.508506 0.290833
Si Si5 0.661401 0.054804 0.669200
Si Si6 0.176055 0.473604 0.518290
Si Si7 0.370927 0.366741 0.176554
O O1 0.259932 0.695111 0.118601
O O2 0.232768 0.604658 0.021161
O O3 0.250000 0.750000 0.000000
O O4 0.475170 0.661839 0.924098
O O5 0.592973 0.842704 0.799666
O O6 0.493755 0.965333 0.905287
O O7 0.766807 0.935218 0.781728
O O8 0.650882 0.976201 0.717891
O O9 0.191081 0.202917 0.749412
O O10 0.000000 0.249976 0.750000
O O11 0.500000 0.537104 0.250000
O O12 0.253059 0.489109 0.406508
O O13 0.383270 0.435458 0.226704
O O14 0.500000 0.085488 0.750000
O O15 0.772197 0.104917 0.659426
O O16 0.703545 0.034859 0.567341
#
# Coordination Sequence:
#
# PCOD9270976 Si02
#       7
#     8   8   8   8   8   8   8
#     4  12  21  32  58  87 117 146 181 235 293 343
#     4  10  20  36  56  82 111 151 190 230 285 338
#     4  12  20  36  58  82 114 147 185 235 288 343
#     4  11  22  35  54  83 118 148 188 239 281 330
#     4   9  20  39  60  81 111 155 196 232 278 345
#     4  11  19  35  57  82 113 151 191 233 280 342
#     4  11  23  37  57  87 119 148 190 239 291 337
#
# _framework density 17.802001000000001
#
# number of rings (size 3 to 8) (size 9 to 14) (size 15 to 20)
#    0.000    1.143    5.714    2.143    0.000    1.714 
#    0.000    0.714    0.000    1.714    0.000    0.000 
#    0.000    0.000    0.000    0.000    0.000    0.000 
#
# Total GULP energy -156298.530808 kJ/mol
# GULP energy per Si atom -5582.090386 kJ/mol
# Density = 1.776148 g / cm^3
# Si number density = 17.802001 Si / 1000 Ang^3
#
#
#
# Elastic Constant Matrix: (Units=GPa)
#
#
# Indices 1 2 3 4 5 6 
#
# 1 118.1175 29.8995 24.0762 0.0001 -7.2025 0.0000
# 2 29.8995 55.4052 -2.0698 0.0001 0.2140 0.0000
# 3 24.0762 -2.0698 79.5686 0.0002 1.4900 -0.0001
# 4 0.0001 0.0001 0.0002 22.7736 -0.0001 1.0473
# 5 -7.2025 0.2140 1.4900 -0.0001 18.6934 0.0000
# 6 0.0000 0.0000 -0.0001 1.0473 0.0000 21.6148
#
#
#
# Elastic Compliance Matrix: (Units=1/GPa)
#
#
# Indices 1 2 3 4 5 6 
#
# 1 0.011020 -0.006098 -0.003579 0.000000 0.004601 0.000000
# 2 -0.006098 0.021442 0.002455 0.000000 -0.002791 0.000000
# 3 -0.003579 0.002455 0.013762 0.000000 -0.002504 0.000000
# 4 0.000000 0.000000 0.000000 0.044008 0.000000 -0.002132
# 5 0.004601 -0.002791 -0.002504 0.000000 0.055499 0.000000
# 6 0.000000 0.000000 0.000000 -0.002132 0.000000 0.046368
#
#
# Mechanical properties :
#
#
# Convention : Reuss Voigt Hill
#
# Bulk Modulus (GPa) = 31.46714 39.65591 35.56153
# Shear Modulus (GPa) = 23.02690 26.02872 24.52781
#
# Velocity S-wave (km/s) = 3.60043 3.82792 3.71592
# Velocity P-wave (km/s) = 5.91597 6.47007 6.19921
#
# Compressibility (1/GPa) = 0.03177918
#
# Stress axis : x y z
#
# Youngs Moduli (GPa) = 90.74405 46.63657 72.66614
#
# Poissons Ratio (x) = 0.28441 0.26009
# Poissons Ratio (y) = 0.55340 -0.17842
# Poissons Ratio (z) = 0.32480 -0.11451
#
# Static dielectric constant tensor:
#      x y z
#    x 1.600880 0.000000 0.000670 
#    y 0.000000 1.589230 0.000000 
#    z 0.000670 0.000000 1.660030 
# 
# From -- ./inp_files/199427.got.cif
#   From: 2010.05.17/outbox.cif.g08.bks.cpg/sg15_100_cif.got.tgz:199427.got - 2010.06.03 18:47:42.
