data_PCOD9270552
_publ_section_title
;
Structure prediction by ZEFSAII (Michael W. Deem and Ramdas Pophale) SiO2 
 PCOD9270552
Probable space group: C 2/C
;
_chemical_formula_sum "Si O2"
_cell_formula_units_Z 56
_cell_length_a 13.234883
_cell_length_b 12.276973
_cell_length_c 20.260571
_cell_angle_alpha 90.000000
_cell_angle_beta 75.593236
_cell_angle_gamma 90.000000
_cell_volume 3188.503039
_symmetry_space_group_name_H-M "C 2/C"
_symmetry_group_IT_number 15
_symmetry_cell_setting 'monoclinic'
loop_
_space_group_symop_operation_xyz
x,y,z
-x,y,1/2-z
-x,-y,-z
x,-y,1/2+z
1/2+x,1/2+y,z
1/2-x,1/2+y,1/2-z
1/2-x,1/2-y,-z
1/2+x,1/2-y,1/2+z
loop_
_atom_site_type_symbol
_atom_site_label
_atom_site_fract_x
_atom_site_fract_y
_atom_site_fract_z
Si Si1 0.122793 0.752644 0.720946
Si Si2 0.248836 0.920314 0.623047
Si Si3 0.601500 0.116234 0.594719
Si Si4 0.308377 0.468153 0.016354
Si Si5 0.862869 0.635908 0.645302
Si Si6 0.088847 0.746866 0.461784
Si Si7 0.356837 0.284887 0.518394
O O1 0.179380 0.862198 0.689457
O O2 0.136417 0.672249 0.656598
O O3 0.158806 0.693675 0.781674
O O4 0.000000 0.773236 0.750000
O O5 0.192387 0.939644 0.561587
O O6 0.344476 0.837305 0.592351
O O7 0.287912 0.036783 0.640766
O O8 0.686710 0.028211 0.558749
O O9 0.480754 0.086807 0.624193
O O10 0.602843 0.202837 0.534546
O O11 0.363095 0.367966 0.045253
O O12 0.358831 0.584401 0.021795
O O13 0.856871 0.726697 0.589348
O O14 0.965649 0.748112 0.466919
O O15 0.250000 0.250000 0.500000
#
# Coordination Sequence:
#
# PCOD9270552 Si02
#       7
#     8   8   8   8   8   8   8
#     4  10  20  39  58  80 112 145 195 234 272 337
#     4  11  20  38  61  83 112 145 192 236 278 334
#     4   9  18  35  61  86 105 143 196 233 269 328
#     4  11  19  35  62  86 117 142 189 236 280 331
#     4  10  23  36  57  84 114 151 185 229 290 335
#     4  10  20  35  60  88 109 148 189 233 281 326
#     4  11  23  36  53  89 124 147 179 232 293 338
#
# _framework density 17.563101
#
# number of rings (size 3 to 8) (size 9 to 14) (size 15 to 20)
#    0.000    1.714    4.286    1.286    2.000    2.857 
#    0.000    0.000    0.000    0.000    0.000    0.000 
#    0.000    0.000    0.000    0.000    0.000    0.000 
#
# Total GULP energy -156161.943138 kJ/mol
# GULP energy per Si atom -5577.212255 kJ/mol
# Density = 1.752313 g / cm^3
# Si number density = 17.563101 Si / 1000 Ang^3
#
#
#
# Elastic Constant Matrix: (Units=GPa)
#
#
# Indices 1 2 3 4 5 6 
#
# 1 65.6491 27.0230 26.6918 0.0000 1.2446 0.0000
# 2 27.0230 101.5502 28.6328 0.0000 -7.4795 0.0000
# 3 26.6918 28.6328 71.9984 0.0000 -15.3587 0.0000
# 4 0.0000 0.0000 0.0000 16.6590 0.0000 -1.0806
# 5 1.2446 -7.4795 -15.3587 0.0000 15.6547 0.0000
# 6 0.0000 0.0000 0.0000 -1.0806 0.0000 24.3912
#
#
#
# Elastic Compliance Matrix: (Units=1/GPa)
#
#
# Indices 1 2 3 4 5 6 
#
# 1 0.020582 -0.003928 -0.008622 0.000000 -0.011972 0.000000
# 2 -0.003928 0.011859 -0.002510 0.000000 0.003516 0.000000
# 3 -0.008622 -0.002510 0.022732 0.000000 0.021788 0.000000
# 4 0.000000 0.000000 0.000000 0.060201 0.000000 0.002667
# 5 -0.011972 0.003516 0.021788 0.000000 0.087887 0.000000
# 6 0.000000 0.000000 0.000000 0.002667 0.000000 0.041117
#
#
# Mechanical properties :
#
#
# Convention : Reuss Voigt Hill
#
# Bulk Modulus (GPa) = 39.91565 44.87700 42.39632
# Shear Modulus (GPa) = 17.67734 21.79764 19.73749
#
# Velocity S-wave (km/s) = 3.17599 3.52675 3.35596
# Velocity P-wave (km/s) = 6.01876 6.49548 6.26166
#
# Compressibility (1/GPa) = 0.02505283
#
# Stress axis : x y z
#
# Youngs Moduli (GPa) = 48.58651 84.32260 43.99108
#
# Poissons Ratio (x) = 0.33119 0.37930
# Poissons Ratio (y) = 0.19083 0.11043
# Poissons Ratio (z) = 0.41892 0.21167
#
# Static dielectric constant tensor:
#      x y z
#    x 1.633680 0.000000 -0.022270 
#    y 0.000000 1.583980 0.000000 
#    z -0.022270 0.000000 1.587100 
# 
# From -- ./inp_files/203933.got.cif
#   From: 2010.05.17/outbox.cif.g08.bks.cpg/sg15_102_cif.got.tgz:203933.got - 2010.06.03 18:47:42.
