data_PCOD9270740
_publ_section_title
;
Structure prediction by ZEFSAII (Michael W. Deem and Ramdas Pophale) SiO2 
 PCOD9270740
Probable space group: C 2/C
;
_chemical_formula_sum "Si O2"
_cell_formula_units_Z 60
_cell_length_a 21.232650
_cell_length_b 30.272187
_cell_length_c 13.556256
_cell_angle_alpha 90.000000
_cell_angle_beta 156.867434
_cell_angle_gamma 90.000000
_cell_volume 3423.146003
_symmetry_space_group_name_H-M "C 2/C"
_symmetry_group_IT_number 15
_symmetry_cell_setting 'monoclinic'
loop_
_space_group_symop_operation_xyz
x,y,z
-x,y,1/2-z
-x,-y,-z
x,-y,1/2+z
1/2+x,1/2+y,z
1/2-x,1/2+y,1/2-z
1/2-x,1/2-y,-z
1/2+x,1/2-y,1/2+z
loop_
_atom_site_type_symbol
_atom_site_label
_atom_site_fract_x
_atom_site_fract_y
_atom_site_fract_z
Si Si1 0.691324 0.803934 0.520974
Si Si2 0.192000 0.206087 0.534290
Si Si3 0.108113 0.114622 0.119626
Si Si4 0.500000 0.587534 0.750000
Si Si5 0.349958 0.962316 0.391545
Si Si6 0.119933 0.117997 0.517909
Si Si7 0.309986 0.968558 0.983631
Si Si8 0.702557 0.975488 0.859549
O O1 0.500000 0.807835 0.250000
O O2 0.741066 0.805158 0.477457
O O3 0.746676 0.755568 0.639770
O O4 0.774304 0.843935 0.696578
O O5 0.214009 0.164206 0.636532
O O6 0.000000 0.210294 0.250000
O O7 0.204078 0.069444 0.283388
O O8 0.045687 0.112720 0.917209
O O9 0.977139 0.119077 0.018863
O O10 0.351391 0.556616 0.567198
O O11 0.243050 0.922338 0.201405
O O12 0.539560 0.952765 0.664244
O O13 0.288281 0.982801 0.404584
O O14 0.334258 0.005792 0.301231
O O15 0.000000 0.113272 0.250000
O O16 0.500000 0.957722 0.250000
O O17 0.266074 0.979897 0.032468
#
# Coordination Sequence:
#
# PCOD9270740 Si02
#       8
#     8   8   8   4   8   8   8   8
#     4  10  20  35  63  91 124 149 184 255 321 359
#     4   9  18  37  57  94 119 145 190 247 320 359
#     4  12  23  37  57  89 122 159 199 243 300 370
#     4  12  26  38  54  84 128 166 200 240 296 356
#     4  10  21  36  54  80 114 156 196 246 289 351
#     4  11  21  35  62  90 115 152 201 249 301 362
#     4  10  21  37  56  81 115 154 203 252 291 338
#     4  10  22  37  53  76 117 157 200 245 291 339
#
# _framework density 17.527736000000001
#
# number of rings (size 3 to 8) (size 9 to 14) (size 15 to 20)
#    0.000    1.600    4.000    2.000    2.800    2.133 
#    0.000    0.000    0.000    0.800    5.200    0.000 
#    0.000    0.000    0.000    0.000    0.000    0.000 
#
# Total GULP energy -167188.138747 kJ/mol
# GULP energy per Si atom -5572.937958 kJ/mol
# Density = 1.748784 g / cm^3
# Si number density = 17.527736 Si / 1000 Ang^3
#
#
#
# Elastic Constant Matrix: (Units=GPa)
#
#
# Indices 1 2 3 4 5 6 
#
# 1 106.1838 43.6646 43.3819 0.0000 0.9952 0.0000
# 2 43.6646 121.2566 60.8922 0.0000 5.1516 0.0000
# 3 43.3819 60.8922 78.5492 0.0000 -3.5890 0.0000
# 4 0.0000 0.0000 0.0000 26.6400 0.0000 -0.9806
# 5 0.9952 5.1516 -3.5890 0.0000 26.5335 0.0000
# 6 0.0000 0.0000 0.0000 -0.9806 0.0000 25.0972
#
#
#
# Elastic Compliance Matrix: (Units=1/GPa)
#
#
# Indices 1 2 3 4 5 6 
#
# 1 0.012388 -0.001580 -0.005659 0.000000 -0.000923 0.000000
# 2 -0.001580 0.014155 -0.010287 0.000000 -0.004081 0.000000
# 3 -0.005659 -0.010287 0.024081 0.000000 0.005467 0.000000
# 4 0.000000 0.000000 0.000000 0.037592 0.000000 0.001469
# 5 -0.000923 -0.004081 0.005467 0.000000 0.039255 0.000000
# 6 0.000000 0.000000 0.000000 0.001469 0.000000 0.039902
#
#
# Mechanical properties :
#
#
# Convention : Reuss Voigt Hill
#
# Bulk Modulus (GPa) = 64.21928 66.87410 65.54669
# Shear Modulus (GPa) = 24.08289 26.19088 25.13688
#
# Velocity S-wave (km/s) = 3.71075 3.86975 3.79109
# Velocity P-wave (km/s) = 7.42144 7.62907 7.52597
#
# Compressibility (1/GPa) = 0.01557165
#
# Stress axis : x y z
#
# Youngs Moduli (GPa) = 80.72291 70.64525 41.52630
#
# Poissons Ratio (x) = 0.11160 0.23501
# Poissons Ratio (y) = 0.12752 0.42719
# Poissons Ratio (z) = 0.45684 0.72675
#
# Static dielectric constant tensor:
#      x y z
#    x 1.617970 0.000000 -0.003380 
#    y 0.000000 1.600140 0.000000 
#    z -0.003380 0.000000 1.592220 
# 
# From -- ./inp_files/174971.got.cif
#   From: 2010.05.17/outbox.cif.g08.bks.cpg/sg15_88_cif.got.tgz:174971.got - 2010.06.03 18:47:42.
