data_PCOD9270661
_publ_section_title
;
Structure prediction by ZEFSAII (Michael W. Deem and Ramdas Pophale) SiO2 
 PCOD9270661
Probable space group: C 2/C
;
_chemical_formula_sum "Si O2"
_cell_formula_units_Z 64
_cell_length_a 14.800966
_cell_length_b 17.625187
_cell_length_c 14.258544
_cell_angle_alpha 90.000000
_cell_angle_beta 120.733136
_cell_angle_gamma 90.000000
_cell_volume 3197.227851
_symmetry_space_group_name_H-M "C 2/C"
_symmetry_group_IT_number 15
_symmetry_cell_setting 'monoclinic'
loop_
_space_group_symop_operation_xyz
x,y,z
-x,y,1/2-z
-x,-y,-z
x,-y,1/2+z
1/2+x,1/2+y,z
1/2-x,1/2+y,1/2-z
1/2-x,1/2-y,-z
1/2+x,1/2-y,1/2+z
loop_
_atom_site_type_symbol
_atom_site_label
_atom_site_fract_x
_atom_site_fract_y
_atom_site_fract_z
Si Si1 0.307774 0.203478 0.447646
Si Si2 0.255726 0.267668 0.224595
Si Si3 0.121520 0.505438 0.729079
Si Si4 0.468284 0.173665 0.841140
Si Si5 0.244693 0.670321 0.446515
Si Si6 0.404846 0.955188 0.578300
Si Si7 0.121282 0.894375 0.333746
Si Si8 0.752146 0.963119 0.641056
O O1 0.250000 0.250000 0.500000
O O2 0.306215 0.253906 0.352795
O O3 0.426126 0.183577 0.542852
O O4 0.248594 0.123992 0.391201
O O5 0.131152 0.279235 0.174609
O O6 0.267415 0.192199 0.167591
O O7 0.308759 0.339231 0.197738
O O8 0.077806 0.588267 0.680959
O O9 0.125687 0.500587 0.843180
O O10 0.227378 0.478738 0.736752
O O11 0.029253 0.450576 0.643453
O O12 0.500000 0.190952 0.750000
O O13 0.250000 0.750000 0.500000
O O14 0.144740 0.626302 0.432905
O O15 0.343589 0.624874 0.540887
O O16 0.348189 0.997086 0.463643
O O17 0.000000 0.879398 0.250000
O O18 0.151655 0.982245 0.334122
#
# Coordination Sequence:
#
# PCOD9270661 Si02
#       8
#     8   8   8   8   8   8   8   8
#     4  12  26  41  65  99 134 173 217 269 332 398
#     4  11  24  44  66  95 135 173 218 275 328 396
#     4  11  20  36  65  97 122 155 212 271 327 379
#     4  12  22  42  67  95 132 175 218 276 332 385
#     4   9  21  41  59  90 129 165 207 269 324 386
#     4  10  20  35  61  93 124 157 203 272 319 375
#     4  10  23  44  67  92 127 176 222 267 323 390
#     4  11  22  40  64  90 126 165 218 258 324 389
#
# _framework density 20.017340999999998
#
# number of rings (size 3 to 8) (size 9 to 14) (size 15 to 20)
#    0.000    1.250    5.000    1.125    1.750    0.000 
#   13.500    0.000    0.000    3.000    0.000    0.000 
#    0.000    0.000    0.000    0.000    0.000    0.000 
#
# Total GULP energy -178598.597680 kJ/mol
# GULP energy per Si atom -5581.206177 kJ/mol
# Density = 1.997178 g / cm^3
# Si number density = 20.017341 Si / 1000 Ang^3
#
#
#
# Elastic Constant Matrix: (Units=GPa)
#
#
# Indices 1 2 3 4 5 6 
#
# 1 67.1906 17.4576 16.0633 0.0000 -6.9302 0.0000
# 2 17.4576 81.6693 1.2971 0.0000 -11.6198 0.0000
# 3 16.0633 1.2971 67.4785 0.0000 -16.2526 0.0000
# 4 0.0000 0.0000 0.0000 27.9705 0.0000 -2.4712
# 5 -6.9302 -11.6198 -16.2526 0.0000 27.1162 0.0000
# 6 0.0000 0.0000 0.0000 -2.4712 0.0000 21.6608
#
#
#
# Elastic Compliance Matrix: (Units=1/GPa)
#
#
# Indices 1 2 3 4 5 6 
#
# 1 0.016738 -0.003442 -0.003791 0.000000 0.000531 0.000000
# 2 -0.003442 0.013843 0.002069 0.000000 0.006292 0.000000
# 3 -0.003791 0.002069 0.018305 0.000000 0.010889 0.000000
# 4 0.000000 0.000000 0.000000 0.036116 0.000000 0.004120
# 5 0.000531 0.006292 0.010889 0.000000 0.046237 0.000000
# 6 0.000000 0.000000 0.000000 0.004120 0.000000 0.046636
#
#
# Mechanical properties :
#
#
# Convention : Reuss Voigt Hill
#
# Bulk Modulus (GPa) = 25.93500 31.77493 28.85497
# Shear Modulus (GPa) = 24.86871 27.45085 26.15978
#
# Velocity S-wave (km/s) = 3.52853 3.70720 3.61897
# Velocity P-wave (km/s) = 5.43922 5.85086 5.64879
#
# Compressibility (1/GPa) = 0.03855793
#
# Stress axis : x y z
#
# Youngs Moduli (GPa) = 59.74292 72.24026 54.63042
#
# Poissons Ratio (x) = 0.24867 0.20708
# Poissons Ratio (y) = 0.20565 -0.11302
# Poissons Ratio (z) = 0.22646 -0.14945
#
# Static dielectric constant tensor:
#      x y z
#    x 1.650870 0.000000 -0.057740 
#    y 0.000000 1.730800 0.000000 
#    z -0.057740 0.000000 1.721780 
# 
# From -- ./inp_files/155221.got.cif
#   From: 2010.05.17/outbox.cif.g08.bks.cpg/sg15_78_cif.got.tgz:155221.got - 2010.06.03 18:47:42.
