data_PCOD9270829
_publ_section_title
;
Structure prediction by ZEFSAII (Michael W. Deem and Ramdas Pophale) SiO2 
 PCOD9270829
Probable space group: C 2/C
;
_chemical_formula_sum "Si O2"
_cell_formula_units_Z 64
_cell_length_a 9.887544
_cell_length_b 26.698767
_cell_length_c 12.981773
_cell_angle_alpha 90.000000
_cell_angle_beta 102.605290
_cell_angle_gamma 90.000000
_cell_volume 3344.394170
_symmetry_space_group_name_H-M "C 2/C"
_symmetry_group_IT_number 15
_symmetry_cell_setting 'monoclinic'
loop_
_space_group_symop_operation_xyz
x,y,z
-x,y,1/2-z
-x,-y,-z
x,-y,1/2+z
1/2+x,1/2+y,z
1/2-x,1/2+y,1/2-z
1/2-x,1/2-y,-z
1/2+x,1/2-y,1/2+z
loop_
_atom_site_type_symbol
_atom_site_label
_atom_site_fract_x
_atom_site_fract_y
_atom_site_fract_z
Si Si1 0.988107 0.309490 0.021371
Si Si2 0.128233 0.204913 0.561656
Si Si3 0.787799 0.297411 0.291668
Si Si4 0.862942 0.120272 0.279653
Si Si5 0.356560 0.805211 0.662171
Si Si6 0.086251 0.866870 0.364377
Si Si7 0.245564 0.120216 0.455361
Si Si8 0.501305 0.558562 0.019992
O O1 0.896179 0.262087 0.970143
O O2 0.899641 0.360681 0.006357
O O3 0.103669 0.310616 0.950410
O O4 0.057841 0.295071 0.140594
O O5 0.251254 0.199071 0.665422
O O6 0.158513 0.170486 0.468774
O O7 0.995766 0.179720 0.595910
O O8 0.702185 0.249149 0.317157
O O9 0.726487 0.345864 0.340113
O O10 0.766444 0.156973 0.328851
O O11 0.769468 0.105420 0.166086
O O12 0.000000 0.144358 0.250000
O O13 0.925695 0.076385 0.361415
O O14 0.500000 0.813587 0.750000
O O15 0.000000 0.882940 0.250000
O O16 0.083362 0.911208 0.445452
O O17 0.157921 0.079139 0.503831
O O18 0.500000 0.500000 0.000000
#
# Coordination Sequence:
#
# PCOD9270829 Si02
#       8
#     8   8   8   8   8   8   8   8
#     4  12  22  33  57  86 128 175 208 259 299 366
#     4  10  20  36  50  82 125 166 211 251 292 366
#     4  11  21  33  55  84 123 173 216 242 305 372
#     4  10  22  38  61  90 125 158 206 258 319 371
#     4  12  20  36  59  90 131 174 215 255 302 367
#     4   9  18  35  56  81 113 152 204 258 301 362
#     4  10  22  38  54  87 124 156 204 260 312 367
#     4  10  22  40  64  88 113 152 208 270 325 387
#
# _framework density 19.136500999999999
#
# number of rings (size 3 to 8) (size 9 to 14) (size 15 to 20)
#    0.000    1.500    3.750    1.875    5.250    2.000 
#    0.000    0.000    0.000    3.000    6.500    0.000 
#    0.000    0.000    0.000    0.000    0.000    0.000 
#
# Total GULP energy -178504.278836 kJ/mol
# GULP energy per Si atom -5578.258714 kJ/mol
# Density = 1.909295 g / cm^3
# Si number density = 19.136501 Si / 1000 Ang^3
#
#
#
# Elastic Constant Matrix: (Units=GPa)
#
#
# Indices 1 2 3 4 5 6 
#
# 1 70.3750 41.1383 16.9646 0.0000 1.6554 0.0000
# 2 41.1383 112.5804 36.7461 0.0000 -1.9460 0.0000
# 3 16.9646 36.7461 116.3107 0.0000 11.5581 0.0000
# 4 0.0000 0.0000 0.0000 14.8902 0.0000 4.5547
# 5 1.6554 -1.9460 11.5581 0.0000 29.0883 0.0000
# 6 0.0000 0.0000 0.0000 4.5547 0.0000 16.6080
#
#
#
# Elastic Compliance Matrix: (Units=1/GPa)
#
#
# Indices 1 2 3 4 5 6 
#
# 1 0.018154 -0.006504 -0.000466 0.000000 -0.001283 0.000000
# 2 -0.006504 0.012345 -0.003197 0.000000 0.002466 0.000000
# 3 -0.000466 -0.003197 0.010093 0.000000 -0.004198 0.000000
# 4 0.000000 0.000000 0.000000 0.073308 0.000000 -0.020104
# 5 -0.001283 0.002466 -0.004198 0.000000 0.036284 0.000000
# 6 0.000000 0.000000 0.000000 -0.020104 0.000000 0.065725
#
#
# Mechanical properties :
#
#
# Convention : Reuss Voigt Hill
#
# Bulk Modulus (GPa) = 49.35959 54.32934 51.84447
# Shear Modulus (GPa) = 20.57659 25.74510 23.16084
#
# Velocity S-wave (km/s) = 3.28266 3.67187 3.48271
# Velocity P-wave (km/s) = 6.34171 6.81387 6.58203
#
# Compressibility (1/GPa) = 0.02025949
#
# Stress axis : x y z
#
# Youngs Moduli (GPa) = 55.08455 81.00346 99.08239
#
# Poissons Ratio (x) = 0.52684 0.04613
# Poissons Ratio (y) = 0.35826 0.31673
# Poissons Ratio (z) = 0.02564 0.25894
#
# Static dielectric constant tensor:
#      x y z
#    x 1.758000 0.000000 0.029380 
#    y 0.000000 1.615090 0.000000 
#    z 0.029380 0.000000 1.741630 
# 
# From -- ./inp_files/138672.got.cif
#   From: 2010.05.17/outbox.cif.g08.bks.cpg/sg15_70_cif.got.tgz:138672.got - 2010.06.03 18:47:42.
