data_PCOD9270667
_publ_section_title
;
Structure prediction by ZEFSAII (Michael W. Deem and Ramdas Pophale) SiO2 
 PCOD9270667
Probable space group: C 2/C
;
_chemical_formula_sum "Si O2"
_cell_formula_units_Z 40
_cell_length_a 12.578346
_cell_length_b 15.698331
_cell_length_c 18.941946
_cell_angle_alpha 90.000000
_cell_angle_beta 27.881906
_cell_angle_gamma 90.000000
_cell_volume 1749.134476
_symmetry_space_group_name_H-M "C 2/C"
_symmetry_group_IT_number 15
_symmetry_cell_setting 'monoclinic'
loop_
_space_group_symop_operation_xyz
x,y,z
-x,y,1/2-z
-x,-y,-z
x,-y,1/2+z
1/2+x,1/2+y,z
1/2-x,1/2+y,1/2-z
1/2-x,1/2-y,-z
1/2+x,1/2-y,1/2+z
loop_
_atom_site_type_symbol
_atom_site_label
_atom_site_fract_x
_atom_site_fract_y
_atom_site_fract_z
Si Si1 0.026881 0.670054 0.985559
Si Si2 0.560331 0.633611 0.001676
Si Si3 0.548611 0.111247 0.316068
Si Si4 0.500000 0.033519 0.750000
Si Si5 0.815582 0.836515 0.920146
Si Si6 0.500000 0.265201 0.250000
O O1 0.943044 0.768659 0.024564
O O2 0.944128 0.625288 0.105136
O O3 0.910412 0.628357 0.985442
O O4 0.296365 0.679104 0.837881
O O5 0.793946 0.590326 0.841069
O O6 0.306090 0.603171 0.134436
O O7 0.576740 0.616891 0.076565
O O8 0.441202 0.197776 0.346708
O O9 0.425138 0.029539 0.357194
O O10 0.000000 0.824797 0.750000
O O11 0.750000 0.750000 0.000000
#
# Coordination Sequence:
#
# PCOD9270667 Si02
#       6
#     8   8   8   4   8   4
#     4  10  20  36  63  91 123 161 214 268 311 370
#     4  10  22  37  62  92 124 166 215 261 316 382
#     4  10  20  40  59  86 129 169 208 263 318 380
#     4  11  24  38  60  92 130 173 212 249 326 384
#     4  10  20  35  61  94 125 156 212 267 318 361
#     4   9  20  34  56  90 118 163 212 265 314 376
#
# _framework density 22.868454
#
# number of rings (size 3 to 8) (size 9 to 14) (size 15 to 20)
#    0.000    2.000    2.000    1.200    5.600    0.000 
#    0.000    3.000    2.200    0.000    0.000    0.000 
#    0.000    0.000    0.000    0.000    0.000    0.000 
#
# Total GULP energy -111381.890108 kJ/mol
# GULP energy per Si atom -5569.094505 kJ/mol
# Density = 2.281640 g / cm^3
# Si number density = 22.868454 Si / 1000 Ang^3
#
#
#
# Elastic Constant Matrix: (Units=GPa)
#
#
# Indices 1 2 3 4 5 6 
#
# 1 173.3431 16.8853 33.9326 0.0031 -10.0908 -0.0081
# 2 16.8853 34.8913 29.8792 -0.0033 -6.6619 -0.0020
# 3 33.9326 29.8792 75.2445 0.0004 -12.6165 -0.0134
# 4 0.0031 -0.0033 0.0004 13.1669 0.0023 2.0374
# 5 -10.0908 -6.6619 -12.6165 0.0023 52.5878 0.0064
# 6 -0.0081 -0.0020 -0.0134 2.0374 0.0064 21.7229
#
#
#
# Elastic Compliance Matrix: (Units=1/GPa)
#
#
# Indices 1 2 3 4 5 6 
#
# 1 0.006362 -0.000905 -0.002422 -0.000002 0.000525 0.000001
# 2 -0.000905 0.043659 -0.016702 0.000013 0.001350 -0.000008
# 3 -0.002422 -0.016702 0.021444 -0.000006 0.002564 0.000011
# 4 -0.000002 0.000013 -0.000006 0.077066 -0.000003 -0.007228
# 5 0.000525 0.001350 0.002564 -0.000003 0.019903 -0.000004
# 6 0.000001 -0.000008 0.000011 -0.007228 -0.000004 0.046712
#
#
# Mechanical properties :
#
#
# Convention : Reuss Voigt Hill
#
# Bulk Modulus (GPa) = 31.83922 49.43038 40.63480
# Shear Modulus (GPa) = 18.82010 31.01432 24.91721
#
# Velocity S-wave (km/s) = 2.87186 3.68666 3.30447
# Velocity P-wave (km/s) = 4.99498 6.30746 5.68919
#
# Compressibility (1/GPa) = 0.03140781
#
# Stress axis : x y z
#
# Youngs Moduli (GPa) = 157.19234 22.90470 46.63205
#
# Poissons Ratio (x) = 0.02072 0.11292
# Poissons Ratio (y) = 0.14221 0.77887
# Poissons Ratio (z) = 0.38065 0.38257
#
# Static dielectric constant tensor:
#      x y z
#    x 1.942990 -0.000010 -0.025880 
#    y -0.000010 1.894870 0.000020 
#    z -0.025880 0.000020 1.947020 
# 
# From -- ./inp_files/86675.got.cif
#   From: 2010.05.17/outbox.cif.g08.bks.cpg/sg15_44_cif.got.tgz:86675.got - 2010.06.03 18:47:42.
