data_PCOD9270892
_publ_section_title
;
Structure prediction by ZEFSAII (Michael W. Deem and Ramdas Pophale) SiO2 
 PCOD9270892
Probable space group: C 2/C
;
_chemical_formula_sum "Si O2"
_cell_formula_units_Z 28
_cell_length_a 12.889166
_cell_length_b 7.778143
_cell_length_c 14.002286
_cell_angle_alpha 90.000000
_cell_angle_beta 42.318438
_cell_angle_gamma 90.000000
_cell_volume 945.096959
_symmetry_space_group_name_H-M "C 2/C"
_symmetry_group_IT_number 15
_symmetry_cell_setting 'monoclinic'
loop_
_space_group_symop_operation_xyz
x,y,z
-x,y,1/2-z
-x,-y,-z
x,-y,1/2+z
1/2+x,1/2+y,z
1/2-x,1/2+y,1/2-z
1/2-x,1/2-y,-z
1/2+x,1/2-y,1/2+z
loop_
_atom_site_type_symbol
_atom_site_label
_atom_site_fract_x
_atom_site_fract_y
_atom_site_fract_z
Si Si1 0.500000 0.929480 0.250000
Si Si2 0.546404 0.418753 0.088526
Si Si3 0.690291 0.285697 0.374502
Si Si4 0.691403 0.084465 0.944417
O O1 0.363827 0.823628 0.290448
O O2 0.582860 0.041388 0.112450
O O3 0.370502 0.363492 0.184295
O O4 0.636965 0.277379 0.960783
O O5 0.587567 0.605727 0.019402
O O6 0.639633 0.415756 0.123291
O O7 0.661916 0.083762 0.401005
#
# Coordination Sequence:
#
# PCOD9270892 Si02
#       4
#     4   8   8   8
#     4  10  20  36  54  86 114 138 192 238 268 346
#     4   9  19  37  60  77 109 157 187 233 290 337
#     4  10  20  39  58  82 117 152 188 236 289 339
#     4  10  20  39  58  82 118 150 190 238 283 342
#
# _framework density 29.62659
#
# number of rings (size 3 to 8) (size 9 to 14) (size 15 to 20)
#    0.000    2.286    0.000    4.286    0.000    0.000 
#   20.571   22.857    0.000    0.000    0.000    0.000 
#    0.000    0.000    0.000    0.000    0.000    0.000 
#
# Total GULP energy -78504.682005 kJ/mol
# GULP energy per Si atom -5607.477286 kJ/mol
# Density = 2.955916 g / cm^3
# Si number density = 29.626590 Si / 1000 Ang^3
#
#
#
# Elastic Constant Matrix: (Units=GPa)
#
#
# Indices 1 2 3 4 5 6 
#
# 1 248.4703 52.2919 18.9890 0.0000 -42.8702 0.0000
# 2 52.2919 189.5642 39.2561 0.0000 -18.2572 0.0000
# 3 18.9890 39.2561 92.4978 0.0000 -50.1127 0.0000
# 4 0.0000 0.0000 0.0000 46.3706 0.0000 -12.3889
# 5 -42.8702 -18.2572 -50.1127 0.0000 51.3185 0.0000
# 6 0.0000 0.0000 0.0000 -12.3889 0.0000 58.3863
#
#
#
# Elastic Compliance Matrix: (Units=1/GPa)
#
#
# Indices 1 2 3 4 5 6 
#
# 1 0.005344 -0.001496 0.003542 0.000000 0.007391 0.000000
# 2 -0.001496 0.006215 -0.003842 0.000000 -0.002791 0.000000
# 3 0.003542 -0.003842 0.026705 0.000000 0.027669 0.000000
# 4 0.000000 0.000000 0.000000 0.022861 0.000000 0.004851
# 5 0.007391 -0.002791 0.027669 0.000000 0.051686 0.000000
# 6 0.000000 0.000000 0.000000 0.004851 0.000000 0.018157
#
#
# Mechanical properties :
#
#
# Convention : Reuss Voigt Hill
#
# Bulk Modulus (GPa) = 28.84254 83.51182 56.17718
# Shear Modulus (GPa) = 34.21884 59.21476 46.71680
#
# Velocity S-wave (km/s) = 3.40222 4.47554 3.97527
# Velocity P-wave (km/s) = 5.01896 7.41327 6.33034
#
# Compressibility (1/GPa) = 0.03467101
#
# Stress axis : x y z
#
# Youngs Moduli (GPa) = 187.12980 160.90598 37.44589
#
# Poissons Ratio (x) = 0.24068 -0.13262
# Poissons Ratio (y) = 0.27990 0.14388
# Poissons Ratio (z) = -0.66276 0.61826
#
# Static dielectric constant tensor:
#      x y z
#    x 2.297980 0.000000 0.096300 
#    y 0.000000 2.152310 0.000000 
#    z 0.096300 0.000000 2.540420 
# 
# From -- ./inp_files/92996.got.cif
#   From: 2010.05.17/outbox.cif.g08.bks.cpg/sg15_47_cif.got.tgz:92996.got - 2010.06.03 18:47:42.
