data_PCOD9270700
_publ_section_title
;
Structure prediction by ZEFSAII (Michael W. Deem and Ramdas Pophale) SiO2 
 PCOD9270700
Probable space group: C 2/C
;
_chemical_formula_sum "Si O2"
_cell_formula_units_Z 56
_cell_length_a 12.283596
_cell_length_b 16.694489
_cell_length_c 15.937408
_cell_angle_alpha 90.000000
_cell_angle_beta 63.765403
_cell_angle_gamma 90.000000
_cell_volume 2931.600093
_symmetry_space_group_name_H-M "C 2/C"
_symmetry_group_IT_number 15
_symmetry_cell_setting 'monoclinic'
loop_
_space_group_symop_operation_xyz
x,y,z
-x,y,1/2-z
-x,-y,-z
x,-y,1/2+z
1/2+x,1/2+y,z
1/2-x,1/2+y,1/2-z
1/2-x,1/2-y,-z
1/2+x,1/2-y,1/2+z
loop_
_atom_site_type_symbol
_atom_site_label
_atom_site_fract_x
_atom_site_fract_y
_atom_site_fract_z
Si Si1 0.620579 0.408756 0.487704
Si Si2 0.000000 0.731136 0.750000
Si Si3 0.932299 0.736426 0.079593
Si Si4 0.844425 0.323931 0.451818
Si Si5 0.097791 0.021502 0.343048
Si Si6 0.785985 0.180471 0.232244
Si Si7 0.500000 0.609540 0.750000
Si Si8 0.839912 0.246948 0.889483
O O1 0.576132 0.329137 0.450518
O O2 0.751310 0.396008 0.484000
O O3 0.632750 0.481109 0.418846
O O4 0.523457 0.429091 0.591861
O O5 0.910458 0.682312 0.840698
O O6 0.914670 0.782080 0.716679
O O7 0.808125 0.711889 0.166809
O O8 0.036784 0.718946 0.110971
O O9 0.940951 0.683455 0.992949
O O10 0.750000 0.250000 0.500000
O O11 0.194216 0.085223 0.276797
O O12 0.066221 0.949419 0.292098
O O13 0.731910 0.209598 0.161463
O O14 0.397450 0.665039 0.829946
O O15 0.750000 0.250000 0.000000
#
# Coordination Sequence:
#
# PCOD9270700 Si02
#       8
#     8   4   8   8   8   8   4   8
#     4  10  20  41  59  93 132 171 214 286 336 393
#     4  12  21  36  64  95 126 168 220 266 337 378
#     4  11  21  43  65  97 132 173 227 286 327 405
#     4  10  20  35  62  90 128 162 218 279 320 397
#     4  11  24  36  67  96 135 171 222 280 354 384
#     4  12  23  38  66 101 135 175 225 284 331 408
#     4  12  25  44  68 107 134 174 232 288 325 414
#     4  12  24  44  72  95 134 181 234 279 338 400
#
# _framework density 19.102195999999999
#
# number of rings (size 3 to 8) (size 9 to 14) (size 15 to 20)
#    0.000    0.857    5.714    3.857    4.000    0.000 
#    0.000    0.000    3.143    1.714    0.000    0.000 
#    0.000    0.000    0.000    0.000    0.000    0.000 
#
# Total GULP energy -156073.461822 kJ/mol
# GULP energy per Si atom -5574.052208 kJ/mol
# Density = 1.905872 g / cm^3
# Si number density = 19.102196 Si / 1000 Ang^3
#
#
#
# Elastic Constant Matrix: (Units=GPa)
#
#
# Indices 1 2 3 4 5 6 
#
# 1 110.9241 40.3454 17.8490 0.0000 15.1916 0.0000
# 2 40.3454 73.1320 43.6733 0.0000 -5.1522 0.0000
# 3 17.8490 43.6733 112.8724 0.0000 -0.0597 0.0000
# 4 0.0000 0.0000 0.0000 14.3339 0.0000 1.6324
# 5 15.1916 -5.1522 -0.0597 0.0000 37.5279 0.0000
# 6 0.0000 0.0000 0.0000 1.6324 0.0000 31.3436
#
#
#
# Elastic Compliance Matrix: (Units=1/GPa)
#
#
# Indices 1 2 3 4 5 6 
#
# 1 0.012622 -0.008072 0.001124 0.000000 -0.006216 0.000000
# 2 -0.008072 0.023170 -0.007685 0.000000 0.006437 0.000000
# 3 0.001124 -0.007685 0.011655 0.000000 -0.001492 0.000000
# 4 0.000000 0.000000 0.000000 0.070181 0.000000 -0.003655
# 5 -0.006216 0.006437 -0.001492 0.000000 0.030044 0.000000
# 6 0.000000 0.000000 0.000000 -0.003655 0.000000 0.032095
#
#
# Mechanical properties :
#
#
# Convention : Reuss Voigt Hill
#
# Bulk Modulus (GPa) = 55.00646 55.62933 55.31790
# Shear Modulus (GPa) = 23.24569 29.64512 26.44541
#
# Velocity S-wave (km/s) = 3.49221 3.94372 3.72481
# Velocity P-wave (km/s) = 6.71708 7.06558 6.89353
#
# Compressibility (1/GPa) = 0.01817968
#
# Stress axis : x y z
#
# Youngs Moduli (GPa) = 79.22890 43.15876 85.80284
#
# Poissons Ratio (x) = 0.34839 -0.09646
# Poissons Ratio (y) = 0.63957 0.65942
# Poissons Ratio (z) = -0.08907 0.33169
#
# Static dielectric constant tensor:
#      x y z
#    x 1.715760 0.000000 0.022050 
#    y 0.000000 1.693290 0.000000 
#    z 0.022050 0.000000 1.716070 
# 
# From -- ./inp_files/146003.got.cif
#   From: 2010.05.17/outbox.cif.g08.bks.cpg/sg15_74_cif.got.tgz:146003.got - 2010.06.03 18:47:42.
