data_PCOD9270130
_publ_section_title
;
Structure prediction by ZEFSAII (Michael W. Deem and Ramdas Pophale) SiO2 
 PCOD9270130
Probable space group: C 2/C
;
_chemical_formula_sum "Si O2"
_cell_formula_units_Z 56
_cell_length_a 5.327057
_cell_length_b 18.954492
_cell_length_c 27.331375
_cell_angle_alpha 90.000000
_cell_angle_beta 110.033608
_cell_angle_gamma 90.000000
_cell_volume 2592.710262
_symmetry_space_group_name_H-M "C 2/C"
_symmetry_group_IT_number 15
_symmetry_cell_setting 'monoclinic'
loop_
_space_group_symop_operation_xyz
x,y,z
-x,y,1/2-z
-x,-y,-z
x,-y,1/2+z
1/2+x,1/2+y,z
1/2-x,1/2+y,1/2-z
1/2-x,1/2-y,-z
1/2+x,1/2-y,1/2+z
loop_
_atom_site_type_symbol
_atom_site_label
_atom_site_fract_x
_atom_site_fract_y
_atom_site_fract_z
Si Si1 0.204855 0.234333 0.116104
Si Si2 0.850220 0.540800 0.691401
Si Si3 0.577991 0.234539 0.047221
Si Si4 0.486002 0.980174 0.441581
Si Si5 0.758317 0.419187 0.611692
Si Si6 0.199397 0.110243 0.847276
Si Si7 0.166076 0.873384 0.996648
O O1 0.373147 0.235156 0.077254
O O2 0.286561 0.156491 0.139654
O O3 0.277794 0.305764 0.148183
O O4 0.884975 0.236356 0.086921
O O5 0.732815 0.477017 0.651624
O O6 0.598021 0.589116 0.687735
O O7 0.000000 0.515956 0.750000
O O8 0.070382 0.580567 0.672935
O O9 0.581501 0.164916 0.013229
O O10 0.537576 0.306129 0.014359
O O11 0.263083 0.928517 0.403872
O O12 0.749010 0.930094 0.457444
O O13 0.500000 0.000000 0.500000
O O14 0.512642 0.048577 0.408796
O O15 0.514933 0.408326 0.557197
#
# Coordination Sequence:
#
# PCOD9270130 Si02
#       7
#     8   8   8   8   8   8   8
#     4  11  22  41  62  94 133 166 216 260 312 376
#     4  11  25  49  70  93 122 162 214 278 339 392
#     4  10  22  35  58  89 136 182 210 255 296 361
#     4  11  21  34  57  96 135 177 215 254 304 385
#     4  10  24  38  64  95 132 173 216 267 323 375
#     4  11  24  42  70  95 124 167 214 262 324 388
#     4  10  20  35  55  92 135 179 221 248 304 376
#
# _framework density 21.599021
#
# number of rings (size 3 to 8) (size 9 to 14) (size 15 to 20)
#    0.000    1.429    1.429    3.429    4.000    8.571 
#    0.000    1.429    0.000    0.000    0.000    0.000 
#    0.000    0.000    0.000    0.000    0.000    0.000 
#
# Total GULP energy -156345.691114 kJ/mol
# GULP energy per Si atom -5583.774683 kJ/mol
# Density = 2.154986 g / cm^3
# Si number density = 21.599021 Si / 1000 Ang^3
#
#
#
# Elastic Constant Matrix: (Units=GPa)
#
#
# Indices 1 2 3 4 5 6 
#
# 1 96.0418 33.5553 1.9792 0.0000 5.7832 0.0000
# 2 33.5553 152.6256 33.2702 0.0000 1.1460 0.0000
# 3 1.9792 33.2702 42.4828 0.0000 12.2618 0.0000
# 4 0.0000 0.0000 0.0000 19.4806 0.0000 -0.1745
# 5 5.7832 1.1460 12.2618 0.0000 25.1331 0.0000
# 6 0.0000 0.0000 0.0000 -0.1745 0.0000 21.1817
#
#
#
# Elastic Compliance Matrix: (Units=1/GPa)
#
#
# Indices 1 2 3 4 5 6 
#
# 1 0.011725 -0.003239 0.003173 0.000000 -0.004098 0.000000
# 2 -0.003239 0.009008 -0.008147 0.000000 0.004309 0.000000
# 3 0.003173 -0.008147 0.034772 0.000000 -0.017323 0.000000
# 4 0.000000 0.000000 0.000000 0.051337 0.000000 0.000423
# 5 -0.004098 0.004309 -0.017323 0.000000 0.048986 0.000000
# 6 0.000000 0.000000 0.000000 0.000423 0.000000 0.047214
#
#
# Mechanical properties :
#
#
# Convention : Reuss Voigt Hill
#
# Bulk Modulus (GPa) = 25.58955 47.63994 36.61475
# Shear Modulus (GPa) = 21.50599 27.98211 24.74405
#
# Velocity S-wave (km/s) = 3.15888 3.60325 3.38836
# Velocity P-wave (km/s) = 5.01777 6.27818 5.68303
#
# Compressibility (1/GPa) = 0.03907845
#
# Stress axis : x y z
#
# Youngs Moduli (GPa) = 85.28736 111.01681 28.75917
#
# Poissons Ratio (x) = 0.35955 -0.09125
# Poissons Ratio (y) = 0.27622 0.23431
# Poissons Ratio (z) = -0.27062 0.90448
#
# Static dielectric constant tensor:
#      x y z
#    x 1.855490 0.000000 -0.003030 
#    y 0.000000 1.883300 0.000000 
#    z -0.003030 0.000000 1.778760 
# 
# From -- ./inp_files/305710.got.cif
#   From: 2010.05.17/outbox.cif.g08.bks.cpg/sg15_153_cif.got.tgz:305710.got - 2010.06.03 18:47:42.
