data_PCOD9270223
_publ_section_title
;
Structure prediction by ZEFSAII (Michael W. Deem and Ramdas Pophale) SiO2 
 PCOD9270223
Probable space group: C 2/C
;
_chemical_formula_sum "Si O2"
_cell_formula_units_Z 60
_cell_length_a 24.289572
_cell_length_b 16.308259
_cell_length_c 21.970208
_cell_angle_alpha 90.000000
_cell_angle_beta 21.662347
_cell_angle_gamma 90.000000
_cell_volume 3212.536920
_symmetry_space_group_name_H-M "C 2/C"
_symmetry_group_IT_number 15
_symmetry_cell_setting 'monoclinic'
loop_
_space_group_symop_operation_xyz
x,y,z
-x,y,1/2-z
-x,-y,-z
x,-y,1/2+z
1/2+x,1/2+y,z
1/2-x,1/2+y,1/2-z
1/2-x,1/2-y,-z
1/2+x,1/2-y,1/2+z
loop_
_atom_site_type_symbol
_atom_site_label
_atom_site_fract_x
_atom_site_fract_y
_atom_site_fract_z
Si Si1 0.086328 0.384500 0.916162
Si Si2 0.755067 0.460078 0.578929
Si Si3 0.000000 0.051856 0.250000
Si Si4 0.391556 0.566146 0.139455
Si Si5 0.740677 0.405190 0.405578
Si Si6 0.975917 0.483790 0.627935
Si Si7 0.912366 0.211163 0.524268
Si Si8 0.476167 0.189998 0.839168
O O1 0.246910 0.426684 0.746893
O O2 0.008211 0.406333 0.933023
O O3 0.113251 0.290845 0.907728
O O4 0.011511 0.436209 0.048235
O O5 0.641184 0.486018 0.642859
O O6 0.662813 0.455584 0.736644
O O7 0.831893 0.370474 0.487750
O O8 0.900220 0.514923 0.446278
O O9 0.906689 0.093099 0.401410
O O10 0.500000 0.500000 0.000000
O O11 0.468678 0.653980 0.065607
O O12 0.810034 0.495063 0.321587
O O13 0.711969 0.352429 0.373359
O O14 0.874767 0.362613 0.304211
O O15 0.966925 0.250333 0.405144
O O16 0.500000 0.232330 0.750000
#
# Coordination Sequence:
#
# PCOD9270223 Si02
#       8
#     8   8   4   8   8   8   8   8
#     4  10  20  35  57  80 105 159 209 233 289 348
#     4  10  21  39  53  84 110 155 207 229 284 347
#     4  12  22  34  58  82 116 154 204 236 276 354
#     4  11  22  38  55  81 119 158 197 251 296 337
#     4  11  22  34  52  78 113 162 188 238 282 328
#     4   9  20  39  57  73 114 157 198 242 286 338
#     4  12  22  34  56  84 118 153 206 236 281 350
#     4  11  22  35  52  74 121 162 194 229 273 341
#
# _framework density 18.676828
#
# number of rings (size 3 to 8) (size 9 to 14) (size 15 to 20)
#    0.000    1.333    6.667    1.600    0.933    0.533 
#    0.000    0.000    0.000    0.000    0.000    0.000 
#    0.000    4.267    2.267    0.000    0.000    0.133 
#
# Total GULP energy -167096.995784 kJ/mol
# GULP energy per Si atom -5569.899859 kJ/mol
# Density = 1.863432 g / cm^3
# Si number density = 18.676828 Si / 1000 Ang^3
#
#
#
# Elastic Constant Matrix: (Units=GPa)
#
#
# Indices 1 2 3 4 5 6 
#
# 1 98.2191 32.9800 22.4841 0.0024 -13.1843 0.0009
# 2 32.9800 39.8887 21.8387 -0.0032 6.5556 0.0000
# 3 22.4841 21.8387 83.1450 -0.0065 -3.2069 0.0013
# 4 0.0024 -0.0032 -0.0065 8.3645 0.0026 2.9476
# 5 -13.1843 6.5556 -3.2069 0.0026 21.1223 0.0011
# 6 0.0009 0.0000 0.0013 2.9476 0.0011 25.6416
#
#
#
# Elastic Compliance Matrix: (Units=1/GPa)
#
#
# Indices 1 2 3 4 5 6 
#
# 1 0.018645 -0.018567 0.000509 -0.000018 0.017478 0.000001
# 2 -0.018567 0.050189 -0.009264 0.000026 -0.028573 -0.000001
# 3 0.000509 -0.009264 0.014531 0.000007 0.005399 -0.000002
# 4 -0.000018 0.000026 0.000007 0.124600 -0.000032 -0.014323
# 5 0.017478 -0.028573 0.005399 -0.000032 0.067941 0.000000
# 6 0.000001 -0.000001 -0.000002 -0.014323 0.000000 0.040646
#
#
# Mechanical properties :
#
#
# Convention : Reuss Voigt Hill
#
# Bulk Modulus (GPa) = 34.81736 41.76204 38.28970
# Shear Modulus (GPa) = 13.13133 20.62235 16.87684
#
# Velocity S-wave (km/s) = 2.65445 3.32651 3.00930
# Velocity P-wave (km/s) = 5.29880 6.09615 5.71141
#
# Compressibility (1/GPa) = 0.02872130
#
# Stress axis : x y z
#
# Youngs Moduli (GPa) = 53.63236 19.92481 68.81845
#
# Poissons Ratio (x) = 0.36995 -0.03502
# Poissons Ratio (y) = 0.99580 0.63751
# Poissons Ratio (z) = -0.02729 0.18458
#
# Static dielectric constant tensor:
#      x y z
#    x 1.699340 0.000000 -0.023550 
#    y 0.000000 1.652630 0.000000 
#    z -0.023550 0.000000 1.723150 
# 
# From -- ./inp_files/283655.got.cif
#   From: 2010.05.17/outbox.cif.g08.bks.cpg/sg15_142_cif.got.tgz:283655.got - 2010.06.03 18:47:42.
