data_PCOD9270615
_publ_section_title
;
Structure prediction by ZEFSAII (Michael W. Deem and Ramdas Pophale) SiO2 
 PCOD9270615
Probable space group: C 2/C
;
_chemical_formula_sum "Si O2"
_cell_formula_units_Z 48
_cell_length_a 20.382077
_cell_length_b 9.851520
_cell_length_c 14.207969
_cell_angle_alpha 90.000000
_cell_angle_beta 139.575615
_cell_angle_gamma 90.000000
_cell_volume 1849.933539
_symmetry_space_group_name_H-M "C 2/C"
_symmetry_group_IT_number 15
_symmetry_cell_setting 'monoclinic'
loop_
_space_group_symop_operation_xyz
x,y,z
-x,y,1/2-z
-x,-y,-z
x,-y,1/2+z
1/2+x,1/2+y,z
1/2-x,1/2+y,1/2-z
1/2-x,1/2-y,-z
1/2+x,1/2-y,1/2+z
loop_
_atom_site_type_symbol
_atom_site_label
_atom_site_fract_x
_atom_site_fract_y
_atom_site_fract_z
Si Si1 0.109969 0.997276 0.867420
Si Si2 0.039868 0.694134 0.103588
Si Si3 0.820032 0.754448 0.668858
Si Si4 0.862262 0.522288 0.929531
Si Si5 0.667200 0.629209 0.628307
Si Si6 0.158599 0.466854 0.877603
O O1 0.111093 0.881981 0.784967
O O2 0.000000 0.067683 0.750000
O O3 0.120519 0.929320 0.982299
O O4 0.221108 0.066774 0.984066
O O5 0.080534 0.589967 0.068335
O O6 0.080964 0.833128 0.107926
O O7 0.096827 0.652211 0.261073
O O8 0.921784 0.666195 0.982240
O O9 0.750000 0.750000 0.500000
O O10 0.741643 0.750132 0.669829
O O11 0.864299 0.601308 0.711094
O O12 0.748449 0.536879 0.770021
O O13 0.872373 0.496399 0.051117
#
# Coordination Sequence:
#
# PCOD9270615 Si02
#       6
#     8   8   8   8   8   8
#     4  10  20  35  61  85 119 154 205 254 309 348
#     4  11  22  38  63  87 123 160 206 247 298 369
#     4   8  16  34  55  81 115 149 197 249 299 331
#     4  11  22  38  62  88 119 162 207 244 303 361
#     4  10  21  38  55  92 122 155 201 254 299 356
#     4  10  20  39  56  87 120 160 199 254 296 353
#
# _framework density 25.946878000000002
#
# number of rings (size 3 to 8) (size 9 to 14) (size 15 to 20)
#    0.000    2.333    3.333    3.500    2.333    2.000 
#    0.000    2.500    0.000    0.000    0.000    0.000 
#    0.000    0.000    0.000    0.000    0.000    0.000 
#
# Total GULP energy -134043.116973 kJ/mol
# GULP energy per Si atom -5585.129874 kJ/mol
# Density = 2.588782 g / cm^3
# Si number density = 25.946878 Si / 1000 Ang^3
#
#
#
# Elastic Constant Matrix: (Units=GPa)
#
#
# Indices 1 2 3 4 5 6 
#
# 1 63.0737 15.8733 27.9130 0.0000 -4.3899 0.0000
# 2 15.8733 38.3827 16.5233 0.0000 -1.1115 0.0000
# 3 27.9130 16.5233 127.6516 0.0000 13.1267 0.0000
# 4 0.0000 0.0000 0.0000 21.1368 0.0000 7.0212
# 5 -4.3899 -1.1115 13.1267 0.0000 46.3078 0.0000
# 6 0.0000 0.0000 0.0000 7.0212 0.0000 32.8805
#
#
#
# Elastic Compliance Matrix: (Units=1/GPa)
#
#
# Indices 1 2 3 4 5 6 
#
# 1 0.019256 -0.006303 -0.003674 0.000000 0.002716 0.000000
# 2 -0.006303 0.029788 -0.002564 0.000000 0.000844 0.000000
# 3 -0.003674 -0.002564 0.009282 0.000000 -0.003041 0.000000
# 4 0.000000 0.000000 0.000000 0.050923 0.000000 -0.010874
# 5 0.002716 0.000844 -0.003041 0.000000 0.022734 0.000000
# 6 0.000000 0.000000 0.000000 -0.010874 0.000000 0.032735
#
#
# Mechanical properties :
#
#
# Convention : Reuss Voigt Hill
#
# Bulk Modulus (GPa) = 30.08136 38.85857 34.46997
# Shear Modulus (GPa) = 24.89026 31.31825 28.10426
#
# Velocity S-wave (km/s) = 3.10058 3.47798 3.29469
# Velocity P-wave (km/s) = 4.94335 5.58007 5.27133
#
# Compressibility (1/GPa) = 0.03324317
#
# Stress axis : x y z
#
# Youngs Moduli (GPa) = 51.93303 33.57012 107.73751
#
# Poissons Ratio (x) = 0.21159 0.39582
# Poissons Ratio (y) = 0.32733 0.27628
# Poissons Ratio (z) = 0.19080 0.08609
#
# Static dielectric constant tensor:
#      x y z
#    x 2.079530 0.000000 0.022030 
#    y 0.000000 2.275000 0.000000 
#    z 0.022030 0.000000 1.986740 
# 
# From -- ./inp_files/167911.got.cif
#   From: 2010.05.17/outbox.cif.g08.bks.cpg/sg15_84_cif.got.tgz:167911.got - 2010.06.03 18:47:42.
