data_PCOD9270702
_publ_section_title
;
Structure prediction by ZEFSAII (Michael W. Deem and Ramdas Pophale) SiO2 
 PCOD9270702
Probable space group: C 2/C
;
_chemical_formula_sum "Si O2"
_cell_formula_units_Z 56
_cell_length_a 30.773302
_cell_length_b 15.713140
_cell_length_c 18.453326
_cell_angle_alpha 90.000000
_cell_angle_beta 17.102712
_cell_angle_gamma 90.000000
_cell_volume 2624.130579
_symmetry_space_group_name_H-M "C 2/C"
_symmetry_group_IT_number 15
_symmetry_cell_setting 'monoclinic'
loop_
_space_group_symop_operation_xyz
x,y,z
-x,y,1/2-z
-x,-y,-z
x,-y,1/2+z
1/2+x,1/2+y,z
1/2-x,1/2+y,1/2-z
1/2-x,1/2-y,-z
1/2+x,1/2-y,1/2+z
loop_
_atom_site_type_symbol
_atom_site_label
_atom_site_fract_x
_atom_site_fract_y
_atom_site_fract_z
Si Si1 0.310656 0.366481 0.371956
Si Si2 0.501341 0.535890 0.664917
Si Si3 0.047572 0.100698 0.375713
Si Si4 0.981359 0.689724 0.123294
Si Si5 0.640058 0.114320 0.567473
Si Si6 0.988022 0.700585 0.584968
Si Si7 0.774507 0.808150 0.715057
O O1 0.353981 0.412748 0.377407
O O2 0.134317 0.367185 0.647955
O O3 0.381046 0.272176 0.263189
O O4 0.415748 0.406277 0.143587
O O5 0.500000 0.512450 0.750000
O O6 0.500329 0.452725 0.617174
O O7 0.631365 0.604745 0.442945
O O8 0.065750 0.201534 0.330922
O O9 0.204399 0.071488 0.159564
O O10 0.033014 0.659693 0.961208
O O11 0.116034 0.728238 0.953703
O O12 0.500000 0.069872 0.750000
O O13 0.585927 0.151584 0.730325
O O14 0.688197 0.183366 0.429289
O O15 0.160753 0.701576 0.331263
#
# Coordination Sequence:
#
# PCOD9270702 Si02
#       7
#     8   8   8   8   8   8   8
#     4   9  18  34  59  83 116 155 193 239 293 356
#     4  11  22  36  59  88 120 159 202 243 296 361
#     4  11  21  38  60  90 120 160 198 245 302 357
#     4   9  17  33  57  88 117 146 195 245 292 346
#     4  10  20  36  61  88 114 156 199 245 298 349
#     4  10  20  35  62  91 117 151 202 254 293 350
#     4  10  20  36  60  88 116 160 204 240 302 358
#
# _framework density 21.340402000000001
#
# number of rings (size 3 to 8) (size 9 to 14) (size 15 to 20)
#    0.000    2.000    4.286    1.714    0.000    2.857 
#    0.000    0.000    6.286    4.286    0.000    0.000 
#    0.000    0.000    0.000    0.000    0.000    0.000 
#
# Total GULP energy -156082.090907 kJ/mol
# GULP energy per Si atom -5574.360390 kJ/mol
# Density = 2.129183 g / cm^3
# Si number density = 21.340402 Si / 1000 Ang^3
#
#
#
# Elastic Constant Matrix: (Units=GPa)
#
#
# Indices 1 2 3 4 5 6 
#
# 1 106.0463 25.8924 44.9133 0.0000 6.0953 0.0000
# 2 25.8924 20.7685 27.1453 0.0000 2.4499 -0.0001
# 3 44.9133 27.1453 111.0114 -0.0003 -5.9873 0.0000
# 4 0.0000 0.0000 -0.0003 -4.0084 0.0001 1.7458
# 5 6.0953 2.4499 -5.9873 0.0001 30.5068 -0.0001
# 6 0.0000 -0.0001 0.0000 1.7458 -0.0001 26.3905
#
#
#
# Elastic Compliance Matrix: (Units=1/GPa)
#
#
# Indices 1 2 3 4 5 6 
#
# 1 0.013990 -0.014177 -0.002307 0.000000 -0.002109 0.000000
# 2 -0.014177 0.087771 -0.016125 0.000001 -0.007381 0.000000
# 3 -0.002307 -0.016125 0.014129 -0.000001 0.004529 0.000000
# 4 0.000000 0.000001 -0.000001 -0.242492 0.000001 0.016041
# 5 -0.002109 -0.007381 0.004529 0.000001 0.034683 0.000000
# 6 0.000000 0.000000 0.000000 0.016041 0.000000 0.036831
#
#
# Mechanical properties :
#
#
# Convention : Reuss Voigt Hill
#
# Bulk Modulus (GPa) = 19.73484 48.19202 33.96343
# Shear Modulus (GPa) = 185.06043 19.90282 102.48162
#
# Velocity S-wave (km/s) = 9.32237 3.05722 6.93733
# Velocity P-wave (km/s) = 11.18674 5.92399 8.95089
#
# Compressibility (1/GPa) = 0.05067182
#
# Stress axis : x y z
#
# Youngs Moduli (GPa) = 71.48150 11.39333 70.77798
#
# Poissons Ratio (x) = 0.16152 0.16329
# Poissons Ratio (y) = 1.01338 1.14127
# Poissons Ratio (z) = 0.16492 0.18371
#
# Static dielectric constant tensor:
#      x y z
#    x 1.779580 0.000000 0.013140 
#    y 0.000000 1.795330 0.000000 
#    z 0.013140 0.000000 1.854650 
# 
# From -- ./inp_files/225660.got.cif
#   From: 2010.05.17/outbox.cif.g08.bks.cpg/sg15_113_cif.got.tgz:225660.got - 2010.06.03 18:47:42.
