data_PCOD9270303
_publ_section_title
;
Structure prediction by ZEFSAII (Michael W. Deem and Ramdas Pophale) SiO2 
 PCOD9270303
Probable space group: C 2/C
;
_chemical_formula_sum "Si O2"
_cell_formula_units_Z 44
_cell_length_a 19.050964
_cell_length_b 7.077923
_cell_length_c 14.115903
_cell_angle_alpha 90.000000
_cell_angle_beta 86.050893
_cell_angle_gamma 90.000000
_cell_volume 1898.886681
_symmetry_space_group_name_H-M "C 2/C"
_symmetry_group_IT_number 15
_symmetry_cell_setting 'monoclinic'
loop_
_space_group_symop_operation_xyz
x,y,z
-x,y,1/2-z
-x,-y,-z
x,-y,1/2+z
1/2+x,1/2+y,z
1/2-x,1/2+y,1/2-z
1/2-x,1/2-y,-z
1/2+x,1/2-y,1/2+z
loop_
_atom_site_type_symbol
_atom_site_label
_atom_site_fract_x
_atom_site_fract_y
_atom_site_fract_z
Si Si1 0.820153 0.851763 0.686767
Si Si2 0.096811 0.181550 0.876544
Si Si3 0.784498 0.437510 0.955028
Si Si4 0.772050 0.430108 0.648085
Si Si5 0.562750 0.914878 0.057318
Si Si6 0.000000 0.558776 0.250000
O O1 0.751098 0.945043 0.642862
O O2 0.811247 0.629345 0.668277
O O3 0.889130 0.958436 0.641920
O O4 0.802668 0.897746 0.796306
O O5 0.170468 0.272952 0.835523
O O6 0.042846 0.295275 0.814245
O O7 0.083498 0.234248 0.988726
O O8 0.868023 0.452294 0.947541
O O9 0.750000 0.250000 0.000000
O O10 0.759751 0.577776 0.037939
O O11 0.538944 0.921773 0.169642
O O12 0.500000 0.000000 0.000000
#
# Coordination Sequence:
#
# PCOD9270303 Si02
#       6
#     8   8   8   8   8   4
#     4  11  20  36  58  91 125 156 202 253 306 370
#     4  10  21  38  60  88 120 163 204 251 305 369
#     4   9  20  35  58  88 123 158 194 256 311 353
#     4  10  20  35  57  89 125 155 195 249 307 362
#     4   9  19  35  58  87 117 165 207 244 307 378
#     4  10  20  38  64  82 122 164 208 252 310 366
#
# _framework density 23.171472999999999
#
# number of rings (size 3 to 8) (size 9 to 14) (size 15 to 20)
#    0.000    2.182    1.818    1.091    2.545    2.909 
#    3.273    0.909    0.000   55.636    0.000    0.000 
#    0.000    0.000    0.000    0.000    0.000    0.000 
#
# Total GULP energy -122473.824769 kJ/mol
# GULP energy per Si atom -5566.992035 kJ/mol
# Density = 2.311873 g / cm^3
# Si number density = 23.171473 Si / 1000 Ang^3
#
#
#
# Elastic Constant Matrix: (Units=GPa)
#
#
# Indices 1 2 3 4 5 6 
#
# 1 42.5008 27.5024 33.2739 0.0000 -5.4779 0.0000
# 2 27.5024 119.1213 30.3803 0.0000 -14.9716 0.0000
# 3 33.2739 30.3803 109.3264 0.0000 -35.4702 0.0000
# 4 0.0000 0.0000 0.0000 8.6288 0.0000 -6.8733
# 5 -5.4779 -14.9716 -35.4702 0.0000 42.4807 0.0000
# 6 0.0000 0.0000 0.0000 -6.8733 0.0000 8.9892
#
#
#
# Elastic Compliance Matrix: (Units=1/GPa)
#
#
# Indices 1 2 3 4 5 6 
#
# 1 0.035553 -0.006194 -0.011412 0.000000 -0.007127 0.000000
# 2 -0.006194 0.010184 -0.000054 0.000000 0.002745 0.000000
# 3 -0.011412 -0.000054 0.016666 0.000000 0.012425 0.000000
# 4 0.000000 0.000000 0.000000 0.296440 0.000000 0.226664
# 5 -0.007127 0.002745 0.012425 0.000000 0.033963 0.000000
# 6 0.000000 0.000000 0.000000 0.226664 0.000000 0.284557
#
#
# Mechanical properties :
#
#
# Convention : Reuss Voigt Hill
#
# Bulk Modulus (GPa) = 36.92252 50.36240 43.64246
# Shear Modulus (GPa) = 6.92799 24.00585 15.46692
#
# Velocity S-wave (km/s) = 1.73100 3.22220 2.58640
# Velocity P-wave (km/s) = 4.46813 5.96869 5.27207
#
# Compressibility (1/GPa) = 0.02708375
#
# Stress axis : x y z
#
# Youngs Moduli (GPa) = 28.12740 98.19704 60.00062
#
# Poissons Ratio (x) = 0.60819 0.68470
# Poissons Ratio (y) = 0.17421 0.00325
# Poissons Ratio (z) = 0.32098 0.00532
#
# Static dielectric constant tensor:
#      x y z
#    x 1.868790 0.000000 0.023170 
#    y 0.000000 1.881750 0.000000 
#    z 0.023170 0.000000 1.969270 
# 
# From -- ./inp_files/159345.got.cif
#   From: 2010.05.17/outbox.cif.g08.bks.cpg/sg15_80_cif.got.tgz:159345.got - 2010.06.03 18:47:42.
