data_PCOD9270846
_publ_section_title
;
Structure prediction by ZEFSAII (Michael W. Deem and Ramdas Pophale) SiO2 
 PCOD9270846
Probable space group: C 2/C
;
_chemical_formula_sum "Si O2"
_cell_formula_units_Z 48
_cell_length_a 22.030021
_cell_length_b 19.069535
_cell_length_c 11.314662
_cell_angle_alpha 90.000000
_cell_angle_beta 34.197570
_cell_angle_gamma 90.000000
_cell_volume 2671.592635
_symmetry_space_group_name_H-M "C 2/C"
_symmetry_group_IT_number 15
_symmetry_cell_setting 'monoclinic'
loop_
_space_group_symop_operation_xyz
x,y,z
-x,y,1/2-z
-x,-y,-z
x,-y,1/2+z
1/2+x,1/2+y,z
1/2-x,1/2+y,1/2-z
1/2-x,1/2-y,-z
1/2+x,1/2-y,1/2+z
loop_
_atom_site_type_symbol
_atom_site_label
_atom_site_fract_x
_atom_site_fract_y
_atom_site_fract_z
Si Si1 0.872657 0.440247 0.490448
Si Si2 0.823230 0.685067 0.229681
Si Si3 0.617078 0.723609 0.094821
Si Si4 0.117319 0.735713 0.116489
Si Si5 0.114167 0.597608 0.998407
Si Si6 0.327077 0.147675 0.842066
O O1 0.850844 0.393275 0.641890
O O2 0.837664 0.520577 0.561907
O O3 0.815392 0.403624 0.471765
O O4 0.000000 0.437177 0.250000
O O5 0.888159 0.713416 0.238143
O O6 0.698743 0.700087 0.465328
O O7 0.846976 0.732227 0.077232
O O8 0.500000 0.694124 0.250000
O O9 0.614200 0.782227 0.203726
O O10 0.709946 0.669975 0.982084
O O11 0.000000 0.748929 0.250000
O O12 0.167041 0.666682 0.971091
O O13 0.107866 0.612615 0.869439
O O14 0.000000 0.595086 0.250000
#
# Coordination Sequence:
#
# PCOD9270846 Si02
#       6
#     8   8   8   8   8   8
#     4  10  23  34  57  84 114 147 180 232 275 338
#     4  10  20  36  52  83 105 144 184 220 277 322
#     4  10  21  34  58  81 110 143 189 235 269 332
#     4  10  22  34  55  80 112 142 179 228 275 330
#     4  10  22  34  54  82 112 148 178 221 286 338
#     4  10  20  37  54  82 111 146 185 225 287 317
#
# _framework density 17.966811
#
# number of rings (size 3 to 8) (size 9 to 14) (size 15 to 20)
#    0.000    2.000    1.667    2.000   11.667    1.333 
#    0.000    0.000    0.000    2.000    0.000    0.000 
#    0.000    0.000    0.000    0.000    0.000    0.000 
#
# Total GULP energy -133811.189162 kJ/mol
# GULP energy per Si atom -5575.466215 kJ/mol
# Density = 1.792592 g / cm^3
# Si number density = 17.966811 Si / 1000 Ang^3
#
#
#
# Elastic Constant Matrix: (Units=GPa)
#
#
# Indices 1 2 3 4 5 6 
#
# 1 112.9408 15.3656 39.9724 0.0000 -4.7237 0.0000
# 2 15.3656 67.5689 29.6887 0.0000 -2.1584 0.0000
# 3 39.9724 29.6887 67.8336 0.0000 5.4923 0.0000
# 4 0.0000 0.0000 0.0000 17.2781 0.0000 2.0418
# 5 -4.7237 -2.1584 5.4923 0.0000 38.9053 0.0000
# 6 0.0000 0.0000 0.0000 2.0418 0.0000 16.3958
#
#
#
# Elastic Compliance Matrix: (Units=1/GPa)
#
#
# Indices 1 2 3 4 5 6 
#
# 1 0.011420 0.000650 -0.007212 0.000000 0.002441 0.000000
# 2 0.000650 0.018544 -0.008688 0.000000 0.002334 0.000000
# 3 -0.007212 -0.008688 0.023169 0.000000 -0.004628 0.000000
# 4 0.000000 0.000000 0.000000 0.058741 0.000000 -0.007315
# 5 0.002441 0.002334 -0.004628 0.000000 0.026783 0.000000
# 6 0.000000 0.000000 0.000000 -0.007315 0.000000 0.061902
#
#
# Mechanical properties :
#
#
# Convention : Reuss Voigt Hill
#
# Bulk Modulus (GPa) = 44.18301 46.48852 45.33576
# Shear Modulus (GPa) = 20.95534 25.40361 23.17947
#
# Velocity S-wave (km/s) = 3.41887 3.76429 3.59573
# Velocity P-wave (km/s) = 6.34269 6.69507 6.52126
#
# Compressibility (1/GPa) = 0.02263314
#
# Stress axis : x y z
#
# Youngs Moduli (GPa) = 87.56385 53.92627 43.16180
#
# Poissons Ratio (x) = -0.03503 0.31126
# Poissons Ratio (y) = -0.05688 0.37498
# Poissons Ratio (z) = 0.63147 0.46850
#
# Static dielectric constant tensor:
#      x y z
#    x 1.639430 0.000000 0.001410 
#    y 0.000000 1.631440 0.000000 
#    z 0.001410 0.000000 1.647540 
# 
# From -- ./inp_files/119352.got.cif
#   From: 2010.05.17/outbox.cif.g08.bks.cpg/sg15_60_cif.got.tgz:119352.got - 2010.06.03 18:47:42.
