data_PCOD9270059
_publ_section_title
;
Structure prediction by ZEFSAII (Michael W. Deem and Ramdas Pophale) SiO2 
 PCOD9270059
Probable space group: C 2/C
;
_chemical_formula_sum "Si O2"
_cell_formula_units_Z 64
_cell_length_a 19.069338
_cell_length_b 14.971378
_cell_length_c 14.587745
_cell_angle_alpha 90.000000
_cell_angle_beta 134.913530
_cell_angle_gamma 90.000000
_cell_volume 2949.341084
_symmetry_space_group_name_H-M "C 2/C"
_symmetry_group_IT_number 15
_symmetry_cell_setting 'monoclinic'
loop_
_space_group_symop_operation_xyz
x,y,z
-x,y,1/2-z
-x,-y,-z
x,-y,1/2+z
1/2+x,1/2+y,z
1/2-x,1/2+y,1/2-z
1/2-x,1/2-y,-z
1/2+x,1/2-y,1/2+z
loop_
_atom_site_type_symbol
_atom_site_label
_atom_site_fract_x
_atom_site_fract_y
_atom_site_fract_z
Si Si1 0.882136 0.418546 0.627047
Si Si2 0.889359 0.506745 0.935200
Si Si3 0.318834 0.372592 0.563176
Si Si4 0.099077 0.307174 0.311462
Si Si5 0.589286 0.729535 0.903269
Si Si6 0.726551 0.377811 0.765498
Si Si7 0.688994 0.546560 0.048140
Si Si8 0.128415 0.296584 0.132071
O O1 0.873024 0.477640 0.527877
O O2 0.851629 0.315928 0.578872
O O3 0.807358 0.452964 0.635090
O O4 0.000000 0.415940 0.750000
O O5 0.836956 0.414337 0.864998
O O6 0.844714 0.599400 0.853892
O O7 0.000000 0.500000 0.000000
O O8 0.207360 0.349952 0.424908
O O9 0.387329 0.284960 0.619137
O O10 0.311415 0.388146 0.665937
O O11 0.353058 0.458123 0.537910
O O12 0.080578 0.288803 0.187422
O O13 0.000000 0.358256 0.250000
O O14 0.500000 0.718076 0.750000
O O15 0.644127 0.635749 0.962018
O O16 0.565679 0.764032 0.985783
O O17 0.672027 0.440379 0.640615
O O18 0.716179 0.276308 0.721148
#
# Coordination Sequence:
#
# PCOD9270059 Si02
#       8
#     8   8   8   8   8   8   8   8
#     4  10  20  35  54  88 122 152 196 244 301 365
#     4  11  21  35  60  94 121 156 205 256 306 367
#     4  10  22  40  59  91 118 155 211 246 303 373
#     4  10  22  40  63  84 119 162 200 255 305 359
#     4   9  20  38  58  86 122 156 195 247 303 366
#     4  10  21  39  58  86 126 160 197 258 312 367
#     4  11  20  36  62  83 116 162 195 249 305 360
#     4   9  21  39  60  89 126 158 202 253 314 373
#
# _framework density 21.699762
#
# number of rings (size 3 to 8) (size 9 to 14) (size 15 to 20)
#    0.000    2.000    1.250    1.875    1.750    1.000 
#    0.000    1.250    0.000    4.500    0.000    0.000 
#    0.000    0.000    0.000    0.000    0.000    0.000 
#
# Total GULP energy -178381.484559 kJ/mol
# GULP energy per Si atom -5574.421392 kJ/mol
# Density = 2.165037 g / cm^3
# Si number density = 21.699762 Si / 1000 Ang^3
#
#
#
# Elastic Constant Matrix: (Units=GPa)
#
#
# Indices 1 2 3 4 5 6 
#
# 1 44.4586 11.4934 29.0451 0.0000 -10.0729 0.0000
# 2 11.4934 113.9349 21.8610 0.0000 0.1311 0.0000
# 3 29.0451 21.8610 91.0907 0.0000 -14.6273 0.0000
# 4 0.0000 0.0000 0.0000 28.9639 0.0000 -3.2276
# 5 -10.0729 0.1311 -14.6273 0.0000 25.6463 0.0000
# 6 0.0000 0.0000 0.0000 -3.2276 0.0000 17.6057
#
#
#
# Elastic Compliance Matrix: (Units=1/GPa)
#
#
# Indices 1 2 3 4 5 6 
#
# 1 0.029696 -0.001474 -0.007971 0.000000 0.007125 0.000000
# 2 -0.001474 0.009322 -0.002056 0.000000 -0.001799 0.000000
# 3 -0.007971 -0.002056 0.014874 0.000000 0.005363 0.000000
# 4 0.000000 0.000000 0.000000 0.035246 0.000000 0.006461
# 5 0.007125 -0.001799 0.005363 0.000000 0.044859 0.000000
# 6 0.000000 0.000000 0.000000 0.006461 0.000000 0.057984
#
#
# Mechanical properties :
#
#
# Convention : Reuss Voigt Hill
#
# Bulk Modulus (GPa) = 32.37335 41.58701 36.98018
# Shear Modulus (GPa) = 22.19462 26.91549 24.55505
#
# Velocity S-wave (km/s) = 3.20160 3.52569 3.36755
# Velocity P-wave (km/s) = 5.34959 5.98167 5.67444
#
# Compressibility (1/GPa) = 0.03088961
#
# Stress axis : x y z
#
# Youngs Moduli (GPa) = 33.67502 107.27014 67.23002
#
# Poissons Ratio (x) = 0.15816 0.53587
# Poissons Ratio (y) = 0.04965 0.13823
# Poissons Ratio (z) = 0.26842 0.22056
#
# Static dielectric constant tensor:
#      x y z
#    x 1.771480 0.000000 -0.024150 
#    y 0.000000 1.833480 0.000000 
#    z -0.024150 0.000000 1.864990 
# 
# From -- ./inp_files/162565.got.cif
#   From: 2010.05.17/outbox.cif.g08.bks.cpg/sg15_82_cif.got.tgz:162565.got - 2010.06.03 18:47:42.
