data_PCOD9270354
_publ_section_title
;
Structure prediction by ZEFSAII (Michael W. Deem and Ramdas Pophale) SiO2 
 PCOD9270354
Probable space group: C 2/C
;
_chemical_formula_sum "Si O2"
_cell_formula_units_Z 24
_cell_length_a 22.300738
_cell_length_b 6.680104
_cell_length_c 11.595723
_cell_angle_alpha 90.000000
_cell_angle_beta 145.180620
_cell_angle_gamma 90.000000
_cell_volume 986.347098
_symmetry_space_group_name_H-M "C 2/C"
_symmetry_group_IT_number 15
_symmetry_cell_setting 'monoclinic'
loop_
_space_group_symop_operation_xyz
x,y,z
-x,y,1/2-z
-x,-y,-z
x,-y,1/2+z
1/2+x,1/2+y,z
1/2-x,1/2+y,1/2-z
1/2-x,1/2-y,-z
1/2+x,1/2-y,1/2+z
loop_
_atom_site_type_symbol
_atom_site_label
_atom_site_fract_x
_atom_site_fract_y
_atom_site_fract_z
Si Si1 0.393053 0.682636 0.411898
Si Si2 0.744959 0.666619 0.864398
Si Si3 0.471114 0.742568 0.077142
O O1 0.295685 0.561093 0.201337
O O2 0.347740 0.794934 0.450777
O O3 0.449503 0.801423 0.399139
O O4 0.471173 0.503633 0.575566
O O5 0.648129 0.781093 0.648701
O O6 0.750000 0.750000 0.000000
O O7 0.500000 0.812220 0.250000
#
# Coordination Sequence:
#
# PCOD9270354 Si02
#       3
#     8   8   8
#     4   9  20  35  60  79 111 143 186 220 273 326
#     4  10  20  35  58  84 108 144 185 225 268 324
#     4   9  19  35  57  77 109 148 183 213 277 328
#
# _framework density 24.332205999999999
#
# number of rings (size 3 to 8) (size 9 to 14) (size 15 to 20)
#    2.000    0.667    0.000    2.000    0.000    1.333 
#    0.000    1.667    0.000    0.000    0.000    0.000 
#    0.000    0.000    0.000    0.000    0.000    0.000 
#
# Total GULP energy -66971.807884 kJ/mol
# GULP energy per Si atom -5580.983990 kJ/mol
# Density = 2.427683 g / cm^3
# Si number density = 24.332206 Si / 1000 Ang^3
#
#
#
# Elastic Constant Matrix: (Units=GPa)
#
#
# Indices 1 2 3 4 5 6 
#
# 1 252.3688 35.9871 65.4645 0.0000 -4.8184 0.0000
# 2 35.9871 74.0896 8.0096 0.0000 0.2461 0.0000
# 3 65.4645 8.0096 103.4706 0.0000 -29.9653 0.0000
# 4 0.0000 0.0000 0.0000 19.9130 0.0000 16.4256
# 5 -4.8184 0.2461 -29.9653 0.0000 44.5448 0.0000
# 6 0.0000 0.0000 0.0000 16.4256 0.0000 26.5864
#
#
#
# Elastic Compliance Matrix: (Units=1/GPa)
#
#
# Indices 1 2 3 4 5 6 
#
# 1 0.005177 -0.002113 -0.003659 0.000000 -0.001890 0.000000
# 2 -0.002113 0.014507 0.000154 0.000000 -0.000205 0.000000
# 3 -0.003659 0.000154 0.014721 0.000000 0.009506 0.000000
# 4 0.000000 0.000000 0.000000 0.102407 0.000000 -0.063269
# 5 -0.001890 -0.000205 0.009506 0.000000 0.028641 0.000000
# 6 0.000000 0.000000 0.000000 -0.063269 0.000000 0.076702
#
#
# Mechanical properties :
#
#
# Convention : Reuss Voigt Hill
#
# Bulk Modulus (GPa) = 43.15935 72.09461 57.62698
# Shear Modulus (GPa) = 19.14886 39.57338 29.36112
#
# Velocity S-wave (km/s) = 2.80835 4.03721 3.47749
# Velocity P-wave (km/s) = 5.31901 7.17117 6.31338
#
# Compressibility (1/GPa) = 0.02316995
#
# Stress axis : x y z
#
# Youngs Moduli (GPa) = 193.17014 68.93068 67.93206
#
# Poissons Ratio (x) = 0.14563 0.24857
# Poissons Ratio (y) = 0.40810 -0.01048
# Poissons Ratio (z) = 0.70682 -0.01064
#
# Static dielectric constant tensor:
#      x y z
#    x 1.879900 0.000000 0.025610 
#    y 0.000000 2.061530 0.000000 
#    z 0.025610 0.000000 1.916820 
# 
# From -- ./inp_files/36244.got.cif
#   From: 2010.05.17/outbox.cif.g08.bks.cpg/sg15_19_cif.got.tgz:36244.got - 2010.06.03 18:47:42.
