data_PCOD9270852
_publ_section_title
;
Structure prediction by ZEFSAII (Michael W. Deem and Ramdas Pophale) SiO2 
 PCOD9270852
Probable space group: C 2/C
;
_chemical_formula_sum "Si O2"
_cell_formula_units_Z 52
_cell_length_a 18.113404
_cell_length_b 27.694025
_cell_length_c 5.477252
_cell_angle_alpha 90.000000
_cell_angle_beta 73.156143
_cell_angle_gamma 90.000000
_cell_volume 2629.694360
_symmetry_space_group_name_H-M "C 2/C"
_symmetry_group_IT_number 15
_symmetry_cell_setting 'monoclinic'
loop_
_space_group_symop_operation_xyz
x,y,z
-x,y,1/2-z
-x,-y,-z
x,-y,1/2+z
1/2+x,1/2+y,z
1/2-x,1/2+y,1/2-z
1/2-x,1/2-y,-z
1/2+x,1/2-y,1/2+z
loop_
_atom_site_type_symbol
_atom_site_label
_atom_site_fract_x
_atom_site_fract_y
_atom_site_fract_z
Si Si1 0.550025 0.217483 0.454825
Si Si2 0.661178 0.942994 0.967027
Si Si3 0.710131 0.270187 0.289079
Si Si4 0.264596 0.123044 0.746148
Si Si5 0.500000 0.970666 0.250000
Si Si6 0.590007 0.878122 0.696266
Si Si7 0.292471 0.480070 0.349313
O O1 0.500000 0.221303 0.250000
O O2 0.621334 0.253753 0.378736
O O3 0.587203 0.163883 0.402540
O O4 0.500000 0.222011 0.750000
O O5 0.717454 0.901405 0.010940
O O6 0.581260 0.943122 0.191337
O O7 0.629116 0.927477 0.739240
O O8 0.710082 0.991313 0.921693
O O9 0.750000 0.250000 0.500000
O O10 0.716843 0.328154 0.288109
O O11 0.750000 0.250000 0.000000
O O12 0.349361 0.138852 0.563971
O O13 0.223235 0.077352 0.649512
O O14 0.500000 0.000000 0.500000
O O15 0.500000 0.887733 0.750000
O O16 0.329911 0.499324 0.563823
#
# Coordination Sequence:
#
# PCOD9270852 Si02
#       7
#     8   8   8   8   4   8   8
#     4  11  25  44  63  90 127 163 209 268 324 380
#     4  11  23  36  51  79 117 158 208 257 301 355
#     4  12  25  43  68  96 124 162 217 270 330 384
#     4  11  23  39  58  85 116 161 210 262 310 366
#     4  12  26  36  50  72 112 168 216 250 294 344
#     4  11  23  34  56  80 114 167 208 252 300 366
#     4  10  20  36  53  75 115 154 195 250 297 349
#
# _framework density 19.774163000000001
#
# number of rings (size 3 to 8) (size 9 to 14) (size 15 to 20)
#    0.000    0.923    3.077    4.615   10.769    0.000 
#    0.000    0.000    0.000    0.000    0.000    0.000 
#    0.000   14.769    0.000    0.000    0.000    0.000 
#
# Total GULP energy -144942.404467 kJ/mol
# GULP energy per Si atom -5574.707864 kJ/mol
# Density = 1.972916 g / cm^3
# Si number density = 19.774163 Si / 1000 Ang^3
#
#
#
# Elastic Constant Matrix: (Units=GPa)
#
#
# Indices 1 2 3 4 5 6 
#
# 1 46.7995 36.5856 33.5031 0.0000 4.6205 0.0000
# 2 36.5856 158.2914 39.1797 0.0000 0.0601 0.0000
# 3 33.5031 39.1797 125.0036 0.0000 17.1227 0.0000
# 4 0.0000 0.0000 0.0000 25.4440 0.0000 -4.0485
# 5 4.6205 0.0601 17.1227 0.0000 21.3650 0.0000
# 6 0.0000 0.0000 0.0000 -4.0485 0.0000 37.6751
#
#
#
# Elastic Compliance Matrix: (Units=1/GPa)
#
#
# Indices 1 2 3 4 5 6 
#
# 1 0.030203 -0.005453 -0.006171 0.000000 -0.001571 0.000000
# 2 -0.005453 0.007903 -0.001319 0.000000 0.002214 0.000000
# 3 -0.006171 -0.001319 0.011103 0.000000 -0.007560 0.000000
# 4 0.000000 0.000000 0.000000 0.039986 0.000000 0.004297
# 5 -0.001571 0.002214 -0.007560 0.000000 0.053198 0.000000
# 6 0.000000 0.000000 0.000000 0.004297 0.000000 0.027004
#
#
# Mechanical properties :
#
#
# Convention : Reuss Voigt Hill
#
# Bulk Modulus (GPa) = 42.87412 60.95903 51.91657
# Shear Modulus (GPa) = 24.62365 31.61856 28.12110
#
# Velocity S-wave (km/s) = 3.53263 4.00307 3.77518
# Velocity P-wave (km/s) = 6.19421 7.22915 6.73160
#
# Compressibility (1/GPa) = 0.02332409
#
# Stress axis : x y z
#
# Youngs Moduli (GPa) = 33.10907 126.52781 90.06948
#
# Poissons Ratio (x) = 0.68994 0.55579
# Poissons Ratio (y) = 0.18054 0.11880
# Poissons Ratio (z) = 0.20431 0.16689
#
# Static dielectric constant tensor:
#      x y z
#    x 1.817740 0.000000 -0.006440 
#    y 0.000000 1.730860 0.000000 
#    z -0.006440 0.000000 1.910550 
# 
# From -- ./inp_files/11214.got.cif
#   From: 2010.05.17/outbox.cif.g08.bks.cpg/sg15_6_cif.got.tgz:11214.got - 2010.06.03 18:47:42.
