data_PCOD9270115
_publ_section_title
;
Structure prediction by ZEFSAII (Michael W. Deem and Ramdas Pophale) SiO2 
 PCOD9270115
Probable space group: C 2/C
;
_chemical_formula_sum "Si O2"
_cell_formula_units_Z 56
_cell_length_a 19.746103
_cell_length_b 18.285058
_cell_length_c 14.646374
_cell_angle_alpha 90.000000
_cell_angle_beta 31.325195
_cell_angle_gamma 90.000000
_cell_volume 2749.307595
_symmetry_space_group_name_H-M "C 2/C"
_symmetry_group_IT_number 15
_symmetry_cell_setting 'monoclinic'
loop_
_space_group_symop_operation_xyz
x,y,z
-x,y,1/2-z
-x,-y,-z
x,-y,1/2+z
1/2+x,1/2+y,z
1/2-x,1/2+y,1/2-z
1/2-x,1/2-y,-z
1/2+x,1/2-y,1/2+z
loop_
_atom_site_type_symbol
_atom_site_label
_atom_site_fract_x
_atom_site_fract_y
_atom_site_fract_z
Si Si1 0.187764 0.310764 0.801236
Si Si2 0.024698 0.431541 0.402479
Si Si3 0.478454 0.806432 0.677958
Si Si4 0.271413 0.163824 0.730743
Si Si5 0.339550 0.962752 0.870641
Si Si6 0.347657 0.458470 0.244991
Si Si7 0.364458 0.435892 0.554939
O O1 0.117837 0.278765 0.790411
O O2 0.215245 0.240235 0.830769
O O3 0.320099 0.352367 0.621501
O O4 0.093057 0.373566 0.951500
O O5 0.151180 0.385649 0.286983
O O6 0.061786 0.472228 0.267199
O O7 0.000000 0.500000 0.500000
O O8 0.500000 0.767148 0.750000
O O9 0.617729 0.816801 0.471207
O O10 0.414225 0.885737 0.773680
O O11 0.167966 0.113537 0.798878
O O12 0.229891 0.963659 0.916767
O O13 0.268287 0.965951 0.049354
O O14 0.343223 0.523399 0.176331
O O15 0.484787 0.450956 0.138606
#
# Coordination Sequence:
#
# PCOD9270115 Si02
#       7
#     8   8   8   8   8   8   8
#     4  10  23  36  58  86 123 169 200 253 320 375
#     4  11  19  40  66  83 119 168 217 260 299 371
#     4  10  20  35  55  85 120 160 204 251 302 377
#     4  11  21  36  57  89 121 161 204 251 322 377
#     4  11  20  38  65  92 115 160 224 259 297 371
#     4  11  22  36  63  89 121 160 206 261 318 377
#     4  10  22  40  55  89 125 160 203 256 320 377
#
# _framework density 20.368765
#
# number of rings (size 3 to 8) (size 9 to 14) (size 15 to 20)
#    0.000    1.429    7.143    0.429    4.000    0.571 
#    0.000    0.000    0.000    0.857    7.429    0.000 
#    0.000    0.000    0.000    0.000    0.000    0.000 
#
# Total GULP energy -156274.858991 kJ/mol
# GULP energy per Si atom -5581.244964 kJ/mol
# Density = 2.032240 g / cm^3
# Si number density = 20.368765 Si / 1000 Ang^3
#
#
#
# Elastic Constant Matrix: (Units=GPa)
#
#
# Indices 1 2 3 4 5 6 
#
# 1 74.1606 20.5023 9.7813 0.0000 -23.4740 0.0000
# 2 20.5023 105.0702 26.9577 0.0000 -5.7485 0.0000
# 3 9.7813 26.9577 69.9497 0.0000 -3.8553 -0.0001
# 4 0.0000 0.0000 0.0000 15.0135 0.0000 -5.8674
# 5 -23.4740 -5.7485 -3.8553 0.0000 28.8033 0.0000
# 6 0.0000 0.0000 -0.0001 -5.8674 0.0000 15.5905
#
#
#
# Elastic Compliance Matrix: (Units=1/GPa)
#
#
# Indices 1 2 3 4 5 6 
#
# 1 0.019044 -0.002696 -0.000804 0.000000 0.014875 0.000000
# 2 -0.002696 0.011015 -0.003897 0.000000 -0.000520 0.000000
# 3 -0.000804 -0.003897 0.015949 0.000000 0.000702 0.000000
# 4 0.000000 0.000000 0.000000 0.078092 0.000000 0.029390
# 5 0.014875 -0.000520 0.000702 0.000000 0.046831 0.000000
# 6 0.000000 0.000000 0.000000 0.029390 0.000000 0.075202
#
#
# Mechanical properties :
#
#
# Convention : Reuss Voigt Hill
#
# Bulk Modulus (GPa) = 32.03688 40.40699 36.22194
# Shear Modulus (GPa) = 18.42766 24.67740 21.55253
#
# Velocity S-wave (km/s) = 3.01109 3.48448 3.25640
# Velocity P-wave (km/s) = 5.27745 6.00580 5.65337
#
# Compressibility (1/GPa) = 0.03121403
#
# Stress axis : x y z
#
# Youngs Moduli (GPa) = 52.51041 90.78707 62.70053
#
# Poissons Ratio (x) = 0.24475 0.05042
# Poissons Ratio (y) = 0.14156 0.24432
# Poissons Ratio (z) = 0.04223 0.35377
#
# Static dielectric constant tensor:
#      x y z
#    x 1.785820 0.000000 -0.023640 
#    y 0.000000 1.746080 0.000000 
#    z -0.023640 0.000000 1.740610 
# 
# From -- ./inp_files/169118.got.cif
#   From: 2010.05.17/outbox.cif.g08.bks.cpg/sg15_85_cif.got.tgz:169118.got - 2010.06.03 18:47:42.
