data_PCOD9270254
_publ_section_title
;
Structure prediction by ZEFSAII (Michael W. Deem and Ramdas Pophale) SiO2 
 PCOD9270254
Probable space group: C 2/C
;
_chemical_formula_sum "Si O2"
_cell_formula_units_Z 48
_cell_length_a 13.154452
_cell_length_b 8.480028
_cell_length_c 18.766328
_cell_angle_alpha 90.000000
_cell_angle_beta 59.490225
_cell_angle_gamma 90.000000
_cell_volume 1803.541273
_symmetry_space_group_name_H-M "C 2/C"
_symmetry_group_IT_number 15
_symmetry_cell_setting 'monoclinic'
loop_
_space_group_symop_operation_xyz
x,y,z
-x,y,1/2-z
-x,-y,-z
x,-y,1/2+z
1/2+x,1/2+y,z
1/2-x,1/2+y,1/2-z
1/2-x,1/2-y,-z
1/2+x,1/2-y,1/2+z
loop_
_atom_site_type_symbol
_atom_site_label
_atom_site_fract_x
_atom_site_fract_y
_atom_site_fract_z
Si Si1 0.876633 0.459412 0.582132
Si Si2 0.161179 0.100496 0.570048
Si Si3 0.500000 0.155414 0.750000
Si Si4 0.357047 0.678064 0.509289
Si Si5 0.895882 0.757241 0.654778
Si Si6 0.500000 0.629572 0.750000
Si Si7 0.325564 0.120641 0.341989
O O1 0.774557 0.532569 0.569612
O O2 0.859036 0.270808 0.583559
O O3 0.867823 0.568426 0.654477
O O4 0.000000 0.500000 0.500000
O O5 0.149934 0.010008 0.499447
O O6 0.051046 0.051883 0.660641
O O7 0.166305 0.287715 0.583876
O O8 0.598253 0.038349 0.679827
O O9 0.421070 0.266274 0.728631
O O10 0.250000 0.750000 0.500000
O O11 0.480519 0.719960 0.429050
O O12 0.799417 0.868671 0.653217
O O13 0.603315 0.753098 0.732849
#
# Coordination Sequence:
#
# PCOD9270254 Si02
#       7
#     8   8   4   8   8   4   8
#     4   8  15  30  51  74 108 146 187 224 276 335
#     4   8  14  28  53  76 105 147 187 223 289 339
#     4  11  22  39  56  88 125 144 193 248 286 353
#     4   9  17  31  55  84 111 149 197 243 277 344
#     4  10  20  35  57  84 108 157 193 228 303 350
#     4   7  14  27  50  76 103 146 179 224 294 337
#     4   8  18  37  53  78 114 156 175 235 305 338
#
# _framework density 26.614305000000002
#
# number of rings (size 3 to 8) (size 9 to 14) (size 15 to 20)
#    1.000    2.333    0.000    0.000    0.000    2.000 
#    9.000    0.000    0.000   38.000    0.000    0.000 
#    0.000    0.000    0.000    0.000    0.000    0.000 
#
# Total GULP energy -133792.753073 kJ/mol
# GULP energy per Si atom -5574.698045 kJ/mol
# Density = 2.655373 g / cm^3
# Si number density = 26.614305 Si / 1000 Ang^3
#
#
#
# Elastic Constant Matrix: (Units=GPa)
#
#
# Indices 1 2 3 4 5 6 
#
# 1 125.1179 20.9286 49.3798 0.0000 -17.5616 0.0000
# 2 20.9286 114.7920 34.1321 0.0000 1.7733 0.0000
# 3 49.3798 34.1321 41.9393 0.0000 1.3454 0.0000
# 4 0.0000 0.0000 0.0000 42.1400 0.0000 6.6525
# 5 -17.5616 1.7733 1.3454 0.0000 46.3415 0.0000
# 6 0.0000 0.0000 0.0000 6.6525 0.0000 33.5443
#
#
#
# Elastic Compliance Matrix: (Units=1/GPa)
#
#
# Indices 1 2 3 4 5 6 
#
# 1 0.018208 0.003972 -0.024911 0.000000 0.007471 0.000000
# 2 0.003972 0.012360 -0.014783 0.000000 0.001461 0.000000
# 3 -0.024911 -0.014783 0.065550 0.000000 -0.010778 0.000000
# 4 0.000000 0.000000 0.000000 0.024497 0.000000 -0.004858
# 5 0.007471 0.001461 -0.010778 0.000000 0.024667 0.000000
# 6 0.000000 0.000000 0.000000 -0.004858 0.000000 0.030775
#
#
# Mechanical properties :
#
#
# Convention : Reuss Voigt Hill
#
# Bulk Modulus (GPa) = 40.52518 54.52561 47.52539
# Shear Modulus (GPa) = 19.55215 36.23240 27.89227
#
# Velocity S-wave (km/s) = 2.71338 3.69370 3.24082
# Velocity P-wave (km/s) = 5.00764 6.22279 5.64799
#
# Compressibility (1/GPa) = 0.02467602
#
# Stress axis : x y z
#
# Youngs Moduli (GPa) = 54.92041 80.90524 15.25542
#
# Poissons Ratio (x) = -0.32134 0.38002
# Poissons Ratio (y) = -0.21813 0.22551
# Poissons Ratio (z) = 1.36810 1.19599
#
# Static dielectric constant tensor:
#      x y z
#    x 2.053270 0.000000 -0.059240 
#    y 0.000000 1.925200 0.000000 
#    z -0.059240 0.000000 2.269330 
# 
# From -- ./inp_files/268239.got.cif
#   From: 2010.05.17/outbox.cif.g08.bks.cpg/sg15_135_cif.got.tgz:268239.got - 2010.06.03 18:47:42.
