data_PCOD9270025
_publ_section_title
;
Structure prediction by ZEFSAII (Michael W. Deem and Ramdas Pophale) SiO2 
 PCOD9270025
Probable space group: C 2/C
;
_chemical_formula_sum "Si O2"
_cell_formula_units_Z 56
_cell_length_a 20.903001
_cell_length_b 8.433225
_cell_length_c 16.706109
_cell_angle_alpha 90.000000
_cell_angle_beta 47.310968
_cell_angle_gamma 90.000000
_cell_volume 2164.667580
_symmetry_space_group_name_H-M "C 2/C"
_symmetry_group_IT_number 15
_symmetry_cell_setting 'monoclinic'
loop_
_space_group_symop_operation_xyz
x,y,z
-x,y,1/2-z
-x,-y,-z
x,-y,1/2+z
1/2+x,1/2+y,z
1/2-x,1/2+y,1/2-z
1/2-x,1/2-y,-z
1/2+x,1/2-y,1/2+z
loop_
_atom_site_type_symbol
_atom_site_label
_atom_site_fract_x
_atom_site_fract_y
_atom_site_fract_z
Si Si1 0.012871 0.686607 0.476238
Si Si2 0.293187 0.748187 0.622169
Si Si3 0.133658 0.690142 0.596969
Si Si4 0.740493 0.114584 0.823999
Si Si5 0.451948 0.688630 0.182821
Si Si6 0.842440 0.317992 0.950872
Si Si7 0.068921 0.823025 0.270065
O O1 0.107449 0.744331 0.428251
O O2 0.016892 0.717329 0.378162
O O3 0.000000 0.500000 0.500000
O O4 0.948179 0.778936 0.591572
O O5 0.305654 0.712803 0.517172
O O6 0.240366 0.641258 0.729129
O O7 0.261635 0.927883 0.659106
O O8 0.125462 0.749646 0.694647
O O9 0.151207 0.503724 0.576539
O O10 0.037188 0.719722 0.642128
O O11 0.831828 0.179260 0.779481
O O12 0.666435 0.187630 0.944826
O O13 0.461459 0.503512 0.192977
O O14 0.914396 0.227905 0.836087
O O15 0.750000 0.250000 0.000000
#
# Coordination Sequence:
#
# PCOD9270025 Si02
#       7
#     8   8   8   8   8   8   8
#     4  10  20  35  55  79 111 150 185 227 281 338
#     4   9  19  35  53  75 106 140 178 225 276 328
#     4   9  19  37  54  76 112 148 180 226 287 336
#     4   9  19  35  54  78 107 139 181 229 275 328
#     4  10  20  35  54  80 113 146 181 230 283 338
#     4   9  18  36  58  79 106 144 190 234 276 337
#     4  10  20  35  56  83 110 143 190 235 278 339
#
# _framework density 25.870023
#
# number of rings (size 3 to 8) (size 9 to 14) (size 15 to 20)
#    0.000    2.571    0.000    1.286    0.000    2.286 
#    0.000   17.857    0.000    0.000    0.000    0.000 
#    0.000    0.000    0.000    0.000    0.000    0.000 
#
# Total GULP energy -156673.420782 kJ/mol
# GULP energy per Si atom -5595.479314 kJ/mol
# Density = 2.581114 g / cm^3
# Si number density = 25.870023 Si / 1000 Ang^3
#
#
#
# Elastic Constant Matrix: (Units=GPa)
#
#
# Indices 1 2 3 4 5 6 
#
# 1 81.5238 13.9283 55.2020 -0.0002 28.4350 0.0002
# 2 13.9283 122.4457 86.1679 -0.0005 14.4320 0.0011
# 3 55.2020 86.1679 265.3390 0.0002 33.0246 0.0001
# 4 -0.0002 -0.0005 0.0002 52.9559 0.0000 -3.0614
# 5 28.4350 14.4320 33.0246 0.0000 67.2545 -0.0001
# 6 0.0002 0.0011 0.0001 -3.0614 -0.0001 32.4616
#
#
#
# Elastic Compliance Matrix: (Units=1/GPa)
#
#
# Indices 1 2 3 4 5 6 
#
# 1 0.016031 0.000895 -0.002938 0.000000 -0.005527 0.000000
# 2 0.000895 0.010661 -0.003532 0.000000 -0.000932 0.000000
# 3 -0.002938 -0.003532 0.005622 0.000000 -0.000760 0.000000
# 4 0.000000 0.000000 0.000000 0.018987 0.000000 0.001791
# 5 -0.005527 -0.000932 -0.000760 0.000000 0.017779 0.000000
# 6 0.000000 0.000000 0.000000 0.001791 0.000000 0.030974
#
#
# Mechanical properties :
#
#
# Convention : Reuss Voigt Hill
#
# Bulk Modulus (GPa) = 47.25160 86.65611 66.95385
# Shear Modulus (GPa) = 42.28056 51.46843 46.87450
#
# Velocity S-wave (km/s) = 4.04709 4.46522 4.26129
# Velocity P-wave (km/s) = 6.33587 7.75588 7.08156
#
# Compressibility (1/GPa) = 0.02116331
#
# Stress axis : x y z
#
# Youngs Moduli (GPa) = 62.38084 93.80309 177.88138
#
# Poissons Ratio (x) = -0.08400 0.52260
# Poissons Ratio (y) = -0.05586 0.62834
# Poissons Ratio (z) = 0.18327 0.33134
#
# Static dielectric constant tensor:
#      x y z
#    x 2.126200 0.000000 -0.000630 
#    y 0.000000 1.882420 0.000000 
#    z -0.000630 0.000000 2.075250 
# 
# From -- ./inp_files/224404.got.cif
#   From: 2010.05.17/outbox.cif.g08.bks.cpg/sg15_113_cif.got.tgz:224404.got - 2010.06.03 18:47:42.
