data_PCOD9270422
_publ_section_title
;
Structure prediction by ZEFSAII (Michael W. Deem and Ramdas Pophale) SiO2 
 PCOD9270422
Probable space group: C 2/C
;
_chemical_formula_sum "Si O2"
_cell_formula_units_Z 48
_cell_length_a 10.155731
_cell_length_b 27.606189
_cell_length_c 14.685542
_cell_angle_alpha 90.000000
_cell_angle_beta 32.362524
_cell_angle_gamma 90.000000
_cell_volume 2203.860583
_symmetry_space_group_name_H-M "C 2/C"
_symmetry_group_IT_number 15
_symmetry_cell_setting 'monoclinic'
loop_
_space_group_symop_operation_xyz
x,y,z
-x,y,1/2-z
-x,-y,-z
x,-y,1/2+z
1/2+x,1/2+y,z
1/2-x,1/2+y,1/2-z
1/2-x,1/2-y,-z
1/2+x,1/2-y,1/2+z
loop_
_atom_site_type_symbol
_atom_site_label
_atom_site_fract_x
_atom_site_fract_y
_atom_site_fract_z
Si Si1 0.126993 0.263059 0.434739
Si Si2 0.243110 0.108891 0.153013
Si Si3 0.711229 0.499368 0.700690
Si Si4 0.023763 0.323462 0.831399
Si Si5 0.860072 0.417864 0.236956
Si Si6 0.198085 0.686845 0.713804
O O1 0.191326 0.296627 0.484798
O O2 0.318855 0.222641 0.292919
O O3 0.082481 0.299605 0.378106
O O4 0.890150 0.229372 0.585466
O O5 0.348785 0.143125 0.168774
O O6 0.000000 0.131132 0.250000
O O7 0.164163 0.057483 0.244446
O O8 0.436124 0.096051 0.959568
O O9 0.500000 0.513913 0.750000
O O10 0.709738 0.536859 0.785117
O O11 0.000000 0.500000 0.500000
O O12 0.000000 0.351301 0.750000
O O13 0.704031 0.368299 0.340315
O O14 0.000000 0.428661 0.250000
O O15 0.000000 0.687289 0.750000
#
# Coordination Sequence:
#
# PCOD9270422 Si02
#       6
#     8   8   8   8   8   8
#     4  10  22  38  57  84 122 163 204 259 305 371
#     4  10  22  41  64  88 125 159 204 261 313 374
#     4   9  20  43  66  94 127 171 209 262 321 383
#     4  11  23  40  60  86 121 161 209 251 317 368
#     4  10  21  39  63  93 130 160 211 261 317 378
#     4  10  20  35  58  90 122 160 208 248 312 367
#
# _framework density 21.779962999999999
#
# number of rings (size 3 to 8) (size 9 to 14) (size 15 to 20)
#    0.000    2.000    1.667    1.000    4.667    3.333 
#    6.000    8.333    0.000    0.000    0.000    0.000 
#    0.000    0.000    0.000    0.000    0.000    0.000 
#
# Total GULP energy -133750.926494 kJ/mol
# GULP energy per Si atom -5572.955271 kJ/mol
# Density = 2.173039 g / cm^3
# Si number density = 21.779963 Si / 1000 Ang^3
#
#
#
# Elastic Constant Matrix: (Units=GPa)
#
#
# Indices 1 2 3 4 5 6 
#
# 1 171.9893 76.2987 35.5169 0.0000 25.1714 0.0000
# 2 76.2987 103.6537 4.1956 0.0000 9.9400 0.0000
# 3 35.5169 4.1956 40.4475 0.0000 11.2345 0.0000
# 4 0.0000 0.0000 0.0000 23.0317 0.0000 2.5193
# 5 25.1714 9.9400 11.2345 0.0000 32.3756 0.0000
# 6 0.0000 0.0000 0.0000 2.5193 0.0000 53.7783
#
#
#
# Elastic Compliance Matrix: (Units=1/GPa)
#
#
# Indices 1 2 3 4 5 6 
#
# 1 0.011522 -0.007792 -0.008284 0.000000 -0.003691 0.000000
# 2 -0.007792 0.015211 0.005399 0.000000 -0.000486 0.000000
# 3 -0.008284 0.005399 0.033320 0.000000 -0.006779 0.000000
# 4 0.000000 0.000000 0.000000 0.043642 0.000000 -0.002044
# 5 -0.003691 -0.000486 -0.006779 0.000000 0.036259 0.000000
# 6 0.000000 0.000000 0.000000 -0.002044 0.000000 0.018691
#
#
# Mechanical properties :
#
#
# Convention : Reuss Voigt Hill
#
# Bulk Modulus (GPa) = 25.83974 60.90142 43.37058
# Shear Modulus (GPa) = 25.92040 35.17575 30.54808
#
# Velocity S-wave (km/s) = 3.45353 4.02313 3.74916
# Velocity P-wave (km/s) = 5.27183 7.04298 6.22077
#
# Compressibility (1/GPa) = 0.03870008
#
# Stress axis : x y z
#
# Youngs Moduli (GPa) = 86.79128 65.74149 30.01165
#
# Poissons Ratio (x) = 0.51225 0.24861
# Poissons Ratio (y) = 0.67627 -0.16204
# Poissons Ratio (z) = 0.71897 -0.35494
#
# Static dielectric constant tensor:
#      x y z
#    x 1.851800 0.000000 0.053740 
#    y 0.000000 1.799440 0.000000 
#    z 0.053740 0.000000 2.009430 
# 
# From -- ./inp_files/138929.got.cif
#   From: 2010.05.17/outbox.cif.g08.bks.cpg/sg15_70_cif.got.tgz:138929.got - 2010.06.03 18:47:42.
