data_PCOD9270294
_publ_section_title
;
Structure prediction by ZEFSAII (Michael W. Deem and Ramdas Pophale) SiO2 
 PCOD9270294
Probable space group: C 2/C
;
_chemical_formula_sum "Si O2"
_cell_formula_units_Z 40
_cell_length_a 9.983955
_cell_length_b 18.489498
_cell_length_c 12.837770
_cell_angle_alpha 90.000000
_cell_angle_beta 135.897985
_cell_angle_gamma 90.000000
_cell_volume 1649.255376
_symmetry_space_group_name_H-M "C 2/C"
_symmetry_group_IT_number 15
_symmetry_cell_setting 'monoclinic'
loop_
_space_group_symop_operation_xyz
x,y,z
-x,y,1/2-z
-x,-y,-z
x,-y,1/2+z
1/2+x,1/2+y,z
1/2-x,1/2+y,1/2-z
1/2-x,1/2-y,-z
1/2+x,1/2-y,1/2+z
loop_
_atom_site_type_symbol
_atom_site_label
_atom_site_fract_x
_atom_site_fract_y
_atom_site_fract_z
Si Si1 0.123854 0.281053 0.658517
Si Si2 0.233657 0.938699 0.372032
Si Si3 0.273713 0.603666 0.086793
Si Si4 0.196231 0.834537 0.531866
Si Si5 0.782147 0.128581 0.849696
O O1 0.152550 0.338108 0.583541
O O2 0.185772 0.316585 0.800157
O O3 0.257278 0.212140 0.702196
O O4 0.924298 0.238152 0.565554
O O5 0.293758 0.881139 0.494764
O O6 0.294853 0.917752 0.289533
O O7 0.000000 0.932015 0.250000
O O8 0.281173 0.021327 0.419165
O O9 0.500000 0.612712 0.250000
O O10 0.236722 0.614552 0.943520
O O11 0.014363 0.882097 0.472229
#
# Coordination Sequence:
#
# PCOD9270294 Si02
#       5
#     8   8   8   8   8
#     4  10  20  35  57  88 115 154 196 238 288 344
#     4   9  20  34  54  88 112 152 190 249 281 338
#     4  11  19  32  59  84 118 146 198 243 288 334
#     4   9  20  36  55  86 116 149 195 239 286 343
#     4   9  20  34  52  85 117 143 197 242 287 334
#
# _framework density 24.253371000000001
#
# number of rings (size 3 to 8) (size 9 to 14) (size 15 to 20)
#    1.200    1.200    2.000    0.600    2.800    3.200 
#    0.000    0.000    0.000    1.200    5.200    0.000 
#    0.000    0.000    0.000    0.000    0.000    0.000 
#
# Total GULP energy -111794.111107 kJ/mol
# GULP energy per Si atom -5589.705555 kJ/mol
# Density = 2.419817 g / cm^3
# Si number density = 24.253371 Si / 1000 Ang^3
#
#
#
# Elastic Constant Matrix: (Units=GPa)
#
#
# Indices 1 2 3 4 5 6 
#
# 1 97.1317 38.4648 61.1643 0.0000 -21.5187 0.0000
# 2 38.4648 155.4158 81.4818 0.0000 -37.0027 0.0000
# 3 61.1643 81.4818 211.4950 0.0000 -54.4212 0.0000
# 4 0.0000 0.0000 0.0000 30.1599 0.0000 -1.1166
# 5 -21.5187 -37.0027 -54.4212 0.0000 47.7250 0.0000
# 6 0.0000 0.0000 0.0000 -1.1166 0.0000 4.3980
#
#
#
# Elastic Compliance Matrix: (Units=1/GPa)
#
#
# Indices 1 2 3 4 5 6 
#
# 1 0.012956 -0.001353 -0.002820 0.000000 0.001578 0.000000
# 2 -0.001353 0.008732 -0.001964 0.000000 0.003921 0.000000
# 3 -0.002820 -0.001964 0.007899 0.000000 0.006213 0.000000
# 4 0.000000 0.000000 0.000000 0.033471 0.000000 0.008498
# 5 0.001578 0.003921 0.006213 0.000000 0.031790 0.000000
# 6 0.000000 0.000000 0.000000 0.008498 0.000000 0.229532
#
#
# Mechanical properties :
#
#
# Convention : Reuss Voigt Hill
#
# Bulk Modulus (GPa) = 57.75534 91.80712 74.78123
# Shear Modulus (GPa) = 14.60170 35.31869 24.96019
#
# Velocity S-wave (km/s) = 2.45633 3.82021 3.21151
# Velocity P-wave (km/s) = 5.64887 7.57589 6.68221
#
# Compressibility (1/GPa) = 0.01731442
#
# Stress axis : x y z
#
# Youngs Moduli (GPa) = 77.18369 114.51558 126.59404
#
# Poissons Ratio (x) = 0.15489 0.35698
# Poissons Ratio (y) = 0.10440 0.24866
# Poissons Ratio (z) = 0.21765 0.22494
#
# Static dielectric constant tensor:
#      x y z
#    x 2.106050 0.000000 0.047450 
#    y 0.000000 1.941920 0.000000 
#    z 0.047450 0.000000 1.862540 
# 
# From -- ./inp_files/142568.got.cif
#   From: 2010.05.17/outbox.cif.g08.bks.cpg/sg15_72_cif.got.tgz:142568.got - 2010.06.03 18:47:42.
