data_PCOD9270632
_publ_section_title
;
Structure prediction by ZEFSAII (Michael W. Deem and Ramdas Pophale) SiO2 
 PCOD9270632
Probable space group: C 2/C
;
_chemical_formula_sum "Si O2"
_cell_formula_units_Z 56
_cell_length_a 19.948514
_cell_length_b 19.060618
_cell_length_c 7.924586
_cell_angle_alpha 90.000000
_cell_angle_beta 62.748411
_cell_angle_gamma 90.000000
_cell_volume 2678.724450
_symmetry_space_group_name_H-M "C 2/C"
_symmetry_group_IT_number 15
_symmetry_cell_setting 'monoclinic'
loop_
_space_group_symop_operation_xyz
x,y,z
-x,y,1/2-z
-x,-y,-z
x,-y,1/2+z
1/2+x,1/2+y,z
1/2-x,1/2+y,1/2-z
1/2-x,1/2-y,-z
1/2+x,1/2-y,1/2+z
loop_
_atom_site_type_symbol
_atom_site_label
_atom_site_fract_x
_atom_site_fract_y
_atom_site_fract_z
Si Si1 0.763663 0.438803 0.688684
Si Si2 0.590663 0.574748 0.466995
Si Si3 0.000000 0.808637 0.250000
Si Si4 0.458986 0.219270 0.967638
Si Si5 0.073062 0.604168 0.890197
Si Si6 0.500000 0.451971 0.750000
Si Si7 0.187044 0.691665 0.556591
Si Si8 0.134173 0.466143 0.633352
O O1 0.769638 0.377972 0.546461
O O2 0.826226 0.426203 0.760023
O O3 0.794893 0.508256 0.562631
O O4 0.679103 0.438597 0.850588
O O5 0.567119 0.639294 0.613439
O O6 0.555296 0.503898 0.584391
O O7 0.550032 0.587337 0.332480
O O8 0.023245 0.762268 0.384436
O O9 0.500000 0.247800 0.750000
O O10 0.493226 0.140750 0.950460
O O11 0.371988 0.215291 0.018648
O O12 0.133608 0.665264 0.771926
O O13 0.091371 0.535415 0.754750
O O14 0.083203 0.579288 0.069267
O O15 0.250000 0.750000 0.500000
#
# Coordination Sequence:
#
# PCOD9270632 Si02
#       8
#     8   8   4   8   8   4   8   8
#     4  10  20  35  61  88 128 155 206 260 318 381
#     4  10  21  37  59  93 119 166 209 266 321 386
#     4  11  26  38  64  94 120 175 224 242 324 385
#     4  10  24  45  63  87 133 169 212 269 308 379
#     4   9  20  41  67  90 129 165 212 265 325 376
#     4   9  20  38  60  84 128 155 212 268 326 371
#     4  10  23  40  60  90 123 173 210 254 326 376
#     4   9  19  38  63  98 119 164 208 260 328 384
#
# _framework density 20.905472
#
# number of rings (size 3 to 8) (size 9 to 14) (size 15 to 20)
#    0.000    2.286    0.000    0.857    7.000    1.143 
#    0.000   23.571    0.000    0.000    0.000    0.000 
#    0.000    0.000    0.000    0.000    0.000    0.000 
#
# Total GULP energy -156338.642436 kJ/mol
# GULP energy per Si atom -5583.522944 kJ/mol
# Density = 2.085789 g / cm^3
# Si number density = 20.905472 Si / 1000 Ang^3
#
#
#
# Elastic Constant Matrix: (Units=GPa)
#
#
# Indices 1 2 3 4 5 6 
#
# 1 122.7296 48.8480 48.7399 0.0000 -10.7058 0.0000
# 2 48.8480 59.5895 18.6265 0.0000 3.6779 0.0000
# 3 48.7399 18.6265 77.7692 0.0000 2.3347 0.0000
# 4 0.0000 0.0000 0.0000 22.2583 0.0000 11.5370
# 5 -10.7058 3.6779 2.3347 0.0000 45.0928 0.0000
# 6 0.0000 0.0000 0.0000 11.5370 0.0000 31.8543
#
#
#
# Elastic Compliance Matrix: (Units=1/GPa)
#
#
# Indices 1 2 3 4 5 6 
#
# 1 0.015981 -0.011064 -0.007519 0.000000 0.005086 0.000000
# 2 -0.011064 0.025871 0.000881 0.000000 -0.004783 0.000000
# 3 -0.007519 0.000881 0.017442 0.000000 -0.002760 0.000000
# 4 0.000000 0.000000 0.000000 0.055310 0.000000 -0.020032
# 5 0.005086 -0.004783 -0.002760 0.000000 0.023917 0.000000
# 6 0.000000 0.000000 0.000000 -0.020032 0.000000 0.038648
#
#
# Mechanical properties :
#
#
# Convention : Reuss Voigt Hill
#
# Bulk Modulus (GPa) = 41.85513 54.72414 48.28964
# Shear Modulus (GPa) = 22.67198 29.43267 26.05233
#
# Velocity S-wave (km/s) = 3.29675 3.75626 3.53398
# Velocity P-wave (km/s) = 5.87843 6.71166 6.30882
#
# Compressibility (1/GPa) = 0.02389193
#
# Stress axis : x y z
#
# Youngs Moduli (GPa) = 62.57342 38.65335 57.33170
#
# Poissons Ratio (x) = 0.42767 0.43105
# Poissons Ratio (y) = 0.69233 -0.05054
# Poissons Ratio (z) = 0.47046 -0.03407
#
# Static dielectric constant tensor:
#      x y z
#    x 1.769580 0.000000 0.004610 
#    y 0.000000 1.753200 0.000000 
#    z 0.004610 0.000000 1.801460 
# 
# From -- ./inp_files/56530.got.cif
#   From: 2010.05.17/outbox.cif.g08.bks.cpg/sg15_29_cif.got.tgz:56530.got - 2010.06.03 18:47:42.
