data_PCOD9270240
_publ_section_title
;
Structure prediction by ZEFSAII (Michael W. Deem and Ramdas Pophale) SiO2 
 PCOD9270240
Probable space group: C 2/C
;
_chemical_formula_sum "Si O2"
_cell_formula_units_Z 64
_cell_length_a 32.709711
_cell_length_b 17.754753
_cell_length_c 19.660390
_cell_angle_alpha 90.000000
_cell_angle_beta 17.182414
_cell_angle_gamma 90.000000
_cell_volume 3372.995506
_symmetry_space_group_name_H-M "C 2/C"
_symmetry_group_IT_number 15
_symmetry_cell_setting 'monoclinic'
loop_
_space_group_symop_operation_xyz
x,y,z
-x,y,1/2-z
-x,-y,-z
x,-y,1/2+z
1/2+x,1/2+y,z
1/2-x,1/2+y,1/2-z
1/2-x,1/2-y,-z
1/2+x,1/2-y,1/2+z
loop_
_atom_site_type_symbol
_atom_site_label
_atom_site_fract_x
_atom_site_fract_y
_atom_site_fract_z
Si Si1 0.103130 0.565113 0.642746
Si Si2 0.102278 0.299581 0.788155
Si Si3 0.120897 0.477030 0.754247
Si Si4 0.406978 0.272466 0.335158
Si Si5 0.090909 0.741036 0.669923
Si Si6 0.087821 0.219116 0.325683
Si Si7 0.419177 0.435180 0.589634
Si Si8 0.568080 0.547927 0.710421
O O1 0.096928 0.519374 0.721845
O O2 0.059125 0.651618 0.728731
O O3 0.256528 0.561954 0.366190
O O4 0.000000 0.534452 0.750000
O O5 0.119677 0.387011 0.744837
O O6 0.242723 0.256983 0.588898
O O7 0.039315 0.259130 0.821809
O O8 0.000798 0.290481 0.012018
O O9 0.282659 0.491307 0.516550
O O10 0.000000 0.500000 0.000000
O O11 0.500000 0.243896 0.250000
O O12 0.407086 0.362727 0.339782
O O13 0.072709 0.787839 0.768483
O O14 0.256483 0.737765 0.398560
O O15 0.000000 0.767272 0.750000
O O16 0.038034 0.145645 0.446146
O O17 0.500000 0.500000 0.500000
O O18 0.464797 0.449536 0.439273
O O19 0.500000 0.517246 0.750000
#
# Coordination Sequence:
#
# PCOD9270240 Si02
#       8
#     8   8   8   8   8   8   8   8
#     4  10  22  39  62  86 119 156 200 242 290 354
#     4  10  20  35  57  82 114 148 187 236 283 348
#     4  11  23  38  58  85 122 158 192 241 298 350
#     4   9  19  35  56  83 110 142 187 239 286 337
#     4   9  20  39  61  86 112 153 199 240 283 343
#     4  10  20  37  61  84 116 149 193 242 288 344
#     4  11  21  39  64  86 117 155 193 246 298 346
#     4  10  21  39  62  86 113 153 205 243 289 352
#
# _framework density 18.974232000000001
#
# number of rings (size 3 to 8) (size 9 to 14) (size 15 to 20)
#    0.000    2.000    2.500    0.750    1.750    1.500 
#    6.750    1.875    0.000    0.000    0.000    0.000 
#    0.000    0.000    0.000    0.000    0.000    0.000 
#
# Total GULP energy -178150.949594 kJ/mol
# GULP energy per Si atom -5567.217175 kJ/mol
# Density = 1.893105 g / cm^3
# Si number density = 18.974232 Si / 1000 Ang^3
#
#
#
# Elastic Constant Matrix: (Units=GPa)
#
#
# Indices 1 2 3 4 5 6 
#
# 1 152.7284 20.1054 78.4165 -0.0001 -7.3736 0.0002
# 2 20.1054 24.1719 19.5740 -0.0006 -2.2242 0.0003
# 3 78.4165 19.5740 75.6997 -0.0002 12.2191 0.0004
# 4 -0.0001 -0.0006 -0.0002 22.1730 0.0001 3.8441
# 5 -7.3736 -2.2242 12.2191 0.0001 28.3286 -0.0002
# 6 0.0002 0.0003 0.0004 3.8441 -0.0002 20.6321
#
#
#
# Elastic Compliance Matrix: (Units=1/GPa)
#
#
# Indices 1 2 3 4 5 6 
#
# 1 0.018095 0.004283 -0.022213 0.000000 0.014627 0.000000
# 2 0.004283 0.056536 -0.021445 0.000001 0.014803 -0.000001
# 3 -0.022213 -0.021445 0.046186 0.000000 -0.027387 -0.000001
# 4 0.000000 0.000001 0.000000 0.046605 0.000000 -0.008683
# 5 0.014627 0.014803 -0.027387 0.000000 0.052082 0.000001
# 6 0.000000 -0.000001 -0.000001 -0.008683 0.000001 0.050086
#
#
# Mechanical properties :
#
#
# Convention : Reuss Voigt Hill
#
# Bulk Modulus (GPa) = 23.77153 54.31019 39.04086
# Shear Modulus (GPa) = 13.79837 23.19368 18.49603
#
# Velocity S-wave (km/s) = 2.69962 3.50004 3.12556
# Velocity P-wave (km/s) = 4.71941 6.70962 5.80051
#
# Compressibility (1/GPa) = 0.04206713
#
# Stress axis : x y z
#
# Youngs Moduli (GPa) = 55.26453 17.68789 21.65175
#
# Poissons Ratio (x) = -0.07575 0.48094
# Poissons Ratio (y) = -0.23668 0.46431
# Poissons Ratio (z) = 1.22757 0.37931
#
# Static dielectric constant tensor:
#      x y z
#    x 1.694810 0.000000 0.205190 
#    y 0.000000 1.680470 0.000000 
#    z 0.205190 0.000000 1.526410 
# 
# From -- ./inp_files/225880.got.cif
#   From: 2010.05.17/outbox.cif.g08.bks.cpg/sg15_113_cif.got.tgz:225880.got - 2010.06.03 18:47:42.
