data_PCOD9270899
_publ_section_title
;
Structure prediction by ZEFSAII (Michael W. Deem and Ramdas Pophale) SiO2 
 PCOD9270899
Probable space group: C 2/C
;
_chemical_formula_sum "Si O2"
_cell_formula_units_Z 60
_cell_length_a 18.494620
_cell_length_b 8.121567
_cell_length_c 17.704980
_cell_angle_alpha 90.000000
_cell_angle_beta 50.726506
_cell_angle_gamma 90.000000
_cell_volume 2058.715545
_symmetry_space_group_name_H-M "C 2/C"
_symmetry_group_IT_number 15
_symmetry_cell_setting 'monoclinic'
loop_
_space_group_symop_operation_xyz
x,y,z
-x,y,1/2-z
-x,-y,-z
x,-y,1/2+z
1/2+x,1/2+y,z
1/2-x,1/2+y,1/2-z
1/2-x,1/2-y,-z
1/2+x,1/2-y,1/2+z
loop_
_atom_site_type_symbol
_atom_site_label
_atom_site_fract_x
_atom_site_fract_y
_atom_site_fract_z
Si Si1 0.569842 0.638443 0.869946
Si Si2 0.500000 0.000000 0.000000
Si Si3 0.032926 0.867339 0.649454
Si Si4 0.867858 0.335036 0.206103
Si Si5 0.203919 0.131577 0.635127
Si Si6 0.343921 0.125704 0.998040
Si Si7 0.209964 0.922978 0.850333
Si Si8 0.564706 0.820812 0.633887
O O1 0.499502 0.493734 0.892753
O O2 0.644732 0.649417 0.751695
O O3 0.629137 0.561028 0.898962
O O4 0.500584 0.796782 0.899548
O O5 0.586258 0.091633 0.898809
O O6 0.422927 0.125303 0.009952
O O7 0.954355 0.722390 0.698990
O O8 0.000000 0.947174 0.750000
O O9 0.134023 0.791012 0.563628
O O10 0.807694 0.181892 0.214730
O O11 0.803828 0.470856 0.286675
O O12 0.250863 0.953612 0.594868
O O13 0.278740 0.281274 0.594402
O O14 0.134842 0.175737 0.612327
O O15 0.374309 0.979380 0.921669
O O16 0.500000 0.843524 0.750000
#
# Coordination Sequence:
#
# PCOD9270899 Si02
#       8
#     8   4   8   8   8   8   8   8
#     4  10  22  43  64  88 125 169 205 257 316 381
#     4  10  20  36  54  88 122 158 192 252 314 352
#     4  10  22  38  62  92 122 160 212 248 312 383
#     4  10  22  36  64  83 122 155 206 251 308 369
#     4  11  22  40  65  90 128 164 211 260 322 365
#     4  11  22  38  63  92 126 165 209 262 311 375
#     4  11  20  38  63  91 115 164 211 251 305 378
#     4  10  23  40  66  92 125 169 211 256 315 383
#
# _framework density 29.144383999999999
#
# number of rings (size 3 to 8) (size 9 to 14) (size 15 to 20)
#    0.000    1.600    2.667    2.000    9.333    0.000 
#    0.000    3.333   11.733    0.000    0.000    0.000 
#    0.000    0.000    0.000    0.000    0.000    0.000 
#
# Total GULP energy -167614.371501 kJ/mol
# GULP energy per Si atom -5587.145717 kJ/mol
# Density = 2.907805 g / cm^3
# Si number density = 29.144384 Si / 1000 Ang^3
#
#
#
# Elastic Constant Matrix: (Units=GPa)
#
#
# Indices 1 2 3 4 5 6 
#
# 1 129.6921 7.6864 10.5601 0.0000 4.7014 0.0000
# 2 7.6864 107.0859 0.9475 -0.0002 -14.1849 0.0001
# 3 10.5601 0.9475 110.5788 0.0000 6.1833 0.0000
# 4 0.0000 -0.0002 0.0000 29.0345 0.0000 6.6116
# 5 4.7014 -14.1849 6.1833 0.0000 20.8069 0.0000
# 6 0.0000 0.0001 0.0000 6.6116 0.0000 29.3523
#
#
#
# Elastic Compliance Matrix: (Units=1/GPa)
#
#
# Indices 1 2 3 4 5 6 
#
# 1 0.007891 -0.000849 -0.000625 0.000000 -0.002176 0.000000
# 2 -0.000849 0.010383 -0.000421 0.000000 0.007395 0.000000
# 3 -0.000625 -0.000421 0.009269 0.000000 -0.002901 0.000000
# 4 0.000000 0.000000 0.000000 0.036304 0.000000 -0.008177
# 5 -0.002176 0.007395 -0.002901 0.000000 0.054456 0.000000
# 6 0.000000 0.000000 0.000000 -0.008177 0.000000 0.035911
#
#
# Mechanical properties :
#
#
# Convention : Reuss Voigt Hill
#
# Bulk Modulus (GPa) = 42.10206 42.86053 42.48129
# Shear Modulus (GPa) = 30.13486 37.71624 33.92555
#
# Velocity S-wave (km/s) = 3.21905 3.60129 3.41552
# Velocity P-wave (km/s) = 5.31919 5.65955 5.49201
#
# Compressibility (1/GPa) = 0.02375181
#
# Stress axis : x y z
#
# Youngs Moduli (GPa) = 126.73246 96.31517 107.88906
#
# Poissons Ratio (x) = 0.08178 0.06739
# Poissons Ratio (y) = 0.10761 0.04547
# Poissons Ratio (z) = 0.07915 0.04059
#
# Static dielectric constant tensor:
#      x y z
#    x 2.270980 0.000000 -0.011090 
#    y 0.000000 2.365660 0.000000 
#    z -0.011090 0.000000 2.493160 
# 
# From -- ./inp_files/252100.got.cif
#   From: 2010.05.17/outbox.cif.g08.bks.cpg/sg15_127_cif.got.tgz:252100.got - 2010.06.03 18:47:42.
