data_PCOD9270626
_publ_section_title
;
Structure prediction by ZEFSAII (Michael W. Deem and Ramdas Pophale) SiO2 
 PCOD9270626
Probable space group: C 2/C
;
_chemical_formula_sum "Si O2"
_cell_formula_units_Z 52
_cell_length_a 19.759528
_cell_length_b 13.799730
_cell_length_c 8.253050
_cell_angle_alpha 90.000000
_cell_angle_beta 63.565863
_cell_angle_gamma 90.000000
_cell_volume 2015.122097
_symmetry_space_group_name_H-M "C 2/C"
_symmetry_group_IT_number 15
_symmetry_cell_setting 'monoclinic'
loop_
_space_group_symop_operation_xyz
x,y,z
-x,y,1/2-z
-x,-y,-z
x,-y,1/2+z
1/2+x,1/2+y,z
1/2-x,1/2+y,1/2-z
1/2-x,1/2-y,-z
1/2+x,1/2-y,1/2+z
loop_
_atom_site_type_symbol
_atom_site_label
_atom_site_fract_x
_atom_site_fract_y
_atom_site_fract_z
Si Si1 0.074823 0.878808 0.057829
Si Si2 0.623225 0.004420 0.742071
Si Si3 0.128644 0.227559 0.928394
Si Si4 0.587324 0.184034 0.130596
Si Si5 0.139327 0.979163 0.287806
Si Si6 0.212956 0.397045 0.915362
Si Si7 0.500000 0.148817 0.750000
O O1 0.093886 0.767668 0.989635
O O2 0.133130 0.932197 0.116417
O O3 0.000000 0.875073 0.250000
O O4 0.072512 0.945799 0.903375
O O5 0.625158 0.919428 0.601361
O O6 0.644927 0.940611 0.873957
O O7 0.690350 0.075813 0.621348
O O8 0.548462 0.072777 0.812369
O O9 0.114750 0.256743 0.757219
O O10 0.134468 0.112009 0.916400
O O11 0.205062 0.282993 0.896784
O O12 0.060245 0.279410 0.099379
O O13 0.500000 0.160161 0.250000
O O14 0.212465 0.047466 0.214385
#
# Coordination Sequence:
#
# PCOD9270626 Si02
#       7
#     8   8   8   8   8   8   4
#     4  10  22  39  61  87 113 153 202 240 292 342
#     4  10  20  35  61  87 120 152 191 243 293 343
#     4   9  22  37  59  85 121 153 193 239 296 345
#     4   9  18  34  57  89 114 142 191 240 291 340
#     4  11  22  42  61  81 124 156 192 246 285 353
#     4  10  22  38  56  88 116 159 196 230 295 353
#     4  10  20  36  58  90 120 150 194 246 294 336
#
# _framework density 25.804887999999998
#
# number of rings (size 3 to 8) (size 9 to 14) (size 15 to 20)
#    0.000    2.154    0.769    1.385    3.231    3.077 
#    0.000   11.538    0.000    0.000    0.000    0.000 
#    0.000    0.000    0.000    0.000    0.000    0.000 
#
# Total GULP energy -145065.688024 kJ/mol
# GULP energy per Si atom -5579.449539 kJ/mol
# Density = 2.574616 g / cm^3
# Si number density = 25.804888 Si / 1000 Ang^3
#
#
#
# Elastic Constant Matrix: (Units=GPa)
#
#
# Indices 1 2 3 4 5 6 
#
# 1 60.5478 9.4157 -1.7650 0.0000 -14.6211 0.0000
# 2 9.4157 158.9498 28.0009 0.0000 -13.8071 0.0000
# 3 -1.7650 28.0009 48.4670 0.0000 -15.7755 0.0000
# 4 0.0000 0.0000 0.0000 14.8130 0.0000 4.9920
# 5 -14.6211 -13.8071 -15.7755 0.0000 27.2386 0.0000
# 6 0.0000 0.0000 0.0000 4.9920 0.0000 31.0042
#
#
#
# Elastic Compliance Matrix: (Units=1/GPa)
#
#
# Indices 1 2 3 4 5 6 
#
# 1 0.020133 -0.001024 0.005759 0.000000 0.013623 0.000000
# 2 -0.001024 0.007105 -0.003880 0.000000 0.000805 0.000000
# 3 0.005759 -0.003880 0.028897 0.000000 0.017860 0.000000
# 4 0.000000 0.000000 0.000000 0.071381 0.000000 -0.011493
# 5 0.013623 0.000805 0.017860 0.000000 0.054777 0.000000
# 6 0.000000 0.000000 0.000000 -0.011493 0.000000 0.034104
#
#
# Mechanical properties :
#
#
# Convention : Reuss Voigt Hill
#
# Bulk Modulus (GPa) = 17.28757 37.69641 27.49199
# Shear Modulus (GPa) = 21.37024 30.09872 25.73448
#
# Velocity S-wave (km/s) = 2.88088 3.41896 3.16139
# Velocity P-wave (km/s) = 4.21661 5.49779 4.89926
#
# Compressibility (1/GPa) = 0.05784504
#
# Stress axis : x y z
#
# Youngs Moduli (GPa) = 49.67053 140.73780 34.60511
#
# Poissons Ratio (x) = 0.14407 -0.19928
# Poissons Ratio (y) = 0.05085 0.13428
# Poissons Ratio (z) = -0.28604 0.54611
#
# Static dielectric constant tensor:
#      x y z
#    x 2.188830 0.000000 0.009500 
#    y 0.000000 2.025800 0.000000 
#    z 0.009500 0.000000 2.063160 
# 
# From -- ./inp_files/111520.got.cif
#   From: 2010.05.17/outbox.cif.g08.bks.cpg/sg15_56_cif.got.tgz:111520.got - 2010.06.03 18:47:42.
