data_PCOD9270779
_publ_section_title
;
Structure prediction by ZEFSAII (Michael W. Deem and Ramdas Pophale) SiO2 
 PCOD9270779
Probable space group: C 2/C
;
_chemical_formula_sum "Si O2"
_cell_formula_units_Z 56
_cell_length_a 12.054841
_cell_length_b 17.075538
_cell_length_c 14.009994
_cell_angle_alpha 90.000000
_cell_angle_beta 78.657306
_cell_angle_gamma 90.000000
_cell_volume 2827.531310
_symmetry_space_group_name_H-M "C 2/C"
_symmetry_group_IT_number 15
_symmetry_cell_setting 'monoclinic'
loop_
_space_group_symop_operation_xyz
x,y,z
-x,y,1/2-z
-x,-y,-z
x,-y,1/2+z
1/2+x,1/2+y,z
1/2-x,1/2+y,1/2-z
1/2-x,1/2-y,-z
1/2+x,1/2-y,1/2+z
loop_
_atom_site_type_symbol
_atom_site_label
_atom_site_fract_x
_atom_site_fract_y
_atom_site_fract_z
Si Si1 0.796392 0.337597 0.979059
Si Si2 0.602693 0.672011 0.000325
Si Si3 0.183912 0.059517 0.651567
Si Si4 0.888064 0.130855 0.144561
Si Si5 0.737436 0.625246 0.147021
Si Si6 0.464564 0.203815 0.147163
Si Si7 0.928972 0.949554 0.137563
O O1 0.718716 0.372296 0.907961
O O2 0.924984 0.330667 0.923486
O O3 0.750000 0.250000 0.000000
O O4 0.771292 0.387338 0.078564
O O5 0.585119 0.726020 0.910306
O O6 0.606482 0.584189 0.957077
O O7 0.488165 0.680817 0.081541
O O8 0.706499 0.672665 0.056263
O O9 0.160621 0.077394 0.766899
O O10 0.058383 0.076563 0.631230
O O11 0.215460 0.967691 0.638194
O O12 0.846230 0.155191 0.255549
O O13 0.932370 0.042534 0.145603
O O14 0.863402 0.641219 0.162454
O O15 0.500000 0.225928 0.250000
#
# Coordination Sequence:
#
# PCOD9270779 Si02
#       7
#     8   8   8   8   8   8   8
#     4  12  23  40  65  92 125 166 216 254 314 377
#     4  12  22  38  66  95 126 159 209 265 323 367
#     4  10  21  37  64  95 126 163 208 261 309 374
#     4  11  20  37  63  94 122 160 200 264 318 370
#     4  11  24  42  62  93 125 166 214 256 313 380
#     4  12  27  43  61  89 129 176 210 253 315 383
#     4  10  20  35  64  99 127 148 206 271 323 355
#
# _framework density 19.805263
#
# number of rings (size 3 to 8) (size 9 to 14) (size 15 to 20)
#    0.000    0.857    5.714    2.143    4.000    0.571 
#    0.000    0.000    0.000    0.000    0.000    0.000 
#    0.000    0.000    0.000    0.000    0.000    0.000 
#
# Total GULP energy -156304.175369 kJ/mol
# GULP energy per Si atom -5582.291977 kJ/mol
# Density = 1.976018 g / cm^3
# Si number density = 19.805263 Si / 1000 Ang^3
#
#
#
# Elastic Constant Matrix: (Units=GPa)
#
#
# Indices 1 2 3 4 5 6 
#
# 1 91.0420 16.6654 41.9916 0.0000 -0.0548 0.0000
# 2 16.6654 47.2251 43.4377 0.0000 -10.4869 0.0000
# 3 41.9916 43.4377 137.0724 0.0000 -2.7050 0.0000
# 4 0.0000 0.0000 0.0000 30.0078 0.0000 -5.6571
# 5 -0.0548 -10.4869 -2.7050 0.0000 29.8982 0.0000
# 6 0.0000 0.0000 0.0000 -5.6571 0.0000 16.1761
#
#
#
# Elastic Compliance Matrix: (Units=1/GPa)
#
#
# Indices 1 2 3 4 5 6 
#
# 1 0.012865 -0.001529 -0.003473 0.000000 -0.000827 0.000000
# 2 -0.001529 0.033128 -0.009818 0.000000 0.010729 0.000000
# 3 -0.003473 -0.009818 0.011423 0.000000 -0.002417 0.000000
# 4 0.000000 0.000000 0.000000 0.035677 0.000000 0.012477
# 5 -0.000827 0.010729 -0.002417 0.000000 0.036990 0.000000
# 6 0.000000 0.000000 0.000000 0.012477 0.000000 0.066183
#
#
# Mechanical properties :
#
#
# Convention : Reuss Voigt Hill
#
# Bulk Modulus (GPa) = 36.00267 53.28099 44.64183
# Shear Modulus (GPa) = 21.26176 26.76607 24.01392
#
# Velocity S-wave (km/s) = 3.28005 3.68021 3.48588
# Velocity P-wave (km/s) = 5.70638 6.70965 6.22825
#
# Compressibility (1/GPa) = 0.02777572
#
# Stress axis : x y z
#
# Youngs Moduli (GPa) = 77.72909 30.18616 87.54373
#
# Poissons Ratio (x) = 0.04617 0.30403
# Poissons Ratio (y) = 0.11887 0.85949
# Poissons Ratio (z) = 0.26994 0.29636
#
# Static dielectric constant tensor:
#      x y z
#    x 1.717660 0.000000 0.023480 
#    y 0.000000 1.732720 0.000000 
#    z 0.023480 0.000000 1.739790 
# 
# From -- ./inp_files/145552.got.cif
#   From: 2010.05.17/outbox.cif.g08.bks.cpg/sg15_73_cif.got.tgz:145552.got - 2010.06.03 18:47:42.
