data_PCOD9270936
_publ_section_title
;
Structure prediction by ZEFSAII (Michael W. Deem and Ramdas Pophale) SiO2 
 PCOD9270936
Probable space group: C 2/C
;
_chemical_formula_sum "Si O2"
_cell_formula_units_Z 60
_cell_length_a 14.817649
_cell_length_b 23.313930
_cell_length_c 8.532827
_cell_angle_alpha 90.000000
_cell_angle_beta 104.662395
_cell_angle_gamma 90.000000
_cell_volume 2851.734700
_symmetry_space_group_name_H-M "C 2/C"
_symmetry_group_IT_number 15
_symmetry_cell_setting 'monoclinic'
loop_
_space_group_symop_operation_xyz
x,y,z
-x,y,1/2-z
-x,-y,-z
x,-y,1/2+z
1/2+x,1/2+y,z
1/2-x,1/2+y,1/2-z
1/2-x,1/2-y,-z
1/2+x,1/2-y,1/2+z
loop_
_atom_site_type_symbol
_atom_site_label
_atom_site_fract_x
_atom_site_fract_y
_atom_site_fract_z
Si Si1 0.689261 0.476148 0.868581
Si Si2 0.460284 0.682856 0.891239
Si Si3 0.651160 0.265277 0.880668
Si Si4 0.113215 0.440228 0.527592
Si Si5 0.410232 0.373616 0.822091
Si Si6 0.000000 0.481554 0.750000
Si Si7 0.698063 0.412824 0.211478
Si Si8 0.111596 0.642672 0.790550
O O1 0.796847 0.471062 0.867381
O O2 0.634692 0.435146 0.724999
O O3 0.667964 0.542727 0.833590
O O4 0.684446 0.448082 0.040301
O O5 0.500000 0.710258 0.750000
O O6 0.371521 0.641075 0.824927
O O7 0.424335 0.724377 0.013727
O O8 0.546166 0.644656 0.994491
O O9 0.652937 0.322543 0.776503
O O10 0.622240 0.209813 0.768642
O O11 0.750000 0.250000 0.000000
O O12 0.036015 0.442875 0.625221
O O13 0.139101 0.377500 0.478559
O O14 0.076969 0.477373 0.363517
O O15 0.500000 0.374335 0.750000
O O16 0.806355 0.390633 0.269770
O O17 0.000000 0.629943 0.750000
#
# Coordination Sequence:
#
# PCOD9270936 Si02
#       8
#     8   8   8   8   8   4   8   8
#     4  11  22  38  60  92 127 166 219 263 321 388
#     4  11  24  44  65  97 135 166 216 280 330 379
#     4  11  20  44  75  90 125 174 221 266 325 399
#     4  10  20  36  55  86 120 162 209 263 313 383
#     4  10  21  42  66  93 124 172 215 262 327 386
#     4  10  20  36  56  78 126 170 198 264 330 368
#     4  11  24  40  63  97 129 174 217 274 324 395
#     4  11  21  38  66  94 119 171 229 258 318 396
#
# _framework density 21.039825
#
# number of rings (size 3 to 8) (size 9 to 14) (size 15 to 20)
#    0.000    1.333    4.667    3.600    3.733    1.067 
#    1.200    0.667    0.000    0.000    0.000    0.000 
#    0.000    0.000    0.000    0.000    0.000    0.000 
#
# Total GULP energy -167179.014254 kJ/mol
# GULP energy per Si atom -5572.633808 kJ/mol
# Density = 2.099194 g / cm^3
# Si number density = 21.039825 Si / 1000 Ang^3
#
#
#
# Elastic Constant Matrix: (Units=GPa)
#
#
# Indices 1 2 3 4 5 6 
#
# 1 66.7680 18.4926 19.3532 0.0000 16.4533 0.0000
# 2 18.4926 79.6653 -10.0170 0.0000 -1.6375 0.0000
# 3 19.3532 -10.0170 29.8264 0.0000 -6.5022 0.0000
# 4 0.0000 0.0000 0.0000 9.3564 0.0000 -11.3075
# 5 16.4533 -1.6375 -6.5022 0.0000 40.1467 0.0000
# 6 0.0000 0.0000 0.0000 -11.3075 0.0000 19.7879
#
#
#
# Elastic Compliance Matrix: (Units=1/GPa)
#
#
# Indices 1 2 3 4 5 6 
#
# 1 0.029805 -0.010612 -0.026599 0.000000 -0.016956 0.000000
# 2 -0.010612 0.016949 0.014177 0.000000 0.007336 0.000000
# 3 -0.026599 0.014177 0.060175 0.000000 0.021225 0.000000
# 4 0.000000 0.000000 0.000000 0.345437 0.000000 0.197395
# 5 -0.016956 0.007336 0.021225 0.000000 0.035595 0.000000
# 6 0.000000 0.000000 0.000000 0.197395 0.000000 0.163334
#
#
# Mechanical properties :
#
#
# Convention : Reuss Voigt Hill
#
# Bulk Modulus (GPa) = 16.43082 25.76859 21.09970
# Shear Modulus (GPa) = 6.96719 23.75360 15.36040
#
# Velocity S-wave (km/s) = 1.82171 3.36368 2.70490
# Velocity P-wave (km/s) = 3.50017 5.23067 4.45034
#
# Compressibility (1/GPa) = 0.06086124
#
# Stress axis : x y z
#
# Youngs Moduli (GPa) = 33.55188 58.99993 16.61820
#
# Poissons Ratio (x) = 0.62608 0.44203
# Poissons Ratio (y) = 0.35604 -0.23560
# Poissons Ratio (z) = 0.89245 -0.83645
#
# Static dielectric constant tensor:
#      x y z
#    x 1.818370 0.000000 0.033810 
#    y 0.000000 1.868630 0.000000 
#    z 0.033810 0.000000 1.804610 
# 
# From -- ./inp_files/42241.got.cif
#   From: 2010.05.17/outbox.cif.g08.bks.cpg/sg15_22_cif.got.tgz:42241.got - 2010.06.03 18:47:42.
