data_PCOD9270860
_publ_section_title
;
Structure prediction by ZEFSAII (Michael W. Deem and Ramdas Pophale) SiO2 
 PCOD9270860
Probable space group: C 2/C
;
_chemical_formula_sum "Si O2"
_cell_formula_units_Z 64
_cell_length_a 25.814602
_cell_length_b 16.931790
_cell_length_c 14.714582
_cell_angle_alpha 90.000000
_cell_angle_beta 30.557898
_cell_angle_gamma 90.000000
_cell_volume 3269.860963
_symmetry_space_group_name_H-M "C 2/C"
_symmetry_group_IT_number 15
_symmetry_cell_setting 'monoclinic'
loop_
_space_group_symop_operation_xyz
x,y,z
-x,y,1/2-z
-x,-y,-z
x,-y,1/2+z
1/2+x,1/2+y,z
1/2-x,1/2+y,1/2-z
1/2-x,1/2-y,-z
1/2+x,1/2-y,1/2+z
loop_
_atom_site_type_symbol
_atom_site_label
_atom_site_fract_x
_atom_site_fract_y
_atom_site_fract_z
Si Si1 0.572072 0.465098 0.230881
Si Si2 0.156190 0.163104 0.951881
Si Si3 0.072153 0.149010 0.268995
Si Si4 0.293979 0.743731 0.107845
Si Si5 0.115893 0.597727 0.107151
Si Si6 0.910328 0.865343 0.558778
Si Si7 0.796401 0.592066 0.335625
Si Si8 0.246637 0.501469 0.767150
O O1 0.500000 0.465017 0.250000
O O2 0.572626 0.553381 0.268164
O O3 0.520565 0.404533 0.378608
O O4 0.685285 0.438811 0.035644
O O5 0.230977 0.221831 0.787754
O O6 0.194747 0.074995 0.868263
O O7 0.146403 0.173318 0.074849
O O8 0.042337 0.172875 0.084846
O O9 0.098233 0.175386 0.330736
O O10 0.385350 0.693075 0.013838
O O11 0.222418 0.683257 0.161666
O O12 0.335071 0.816483 0.987648
O O13 0.127672 0.581460 0.195962
O O14 0.000000 0.596883 0.250000
O O15 0.181228 0.535947 0.948536
O O16 0.828691 0.936557 0.674961
O O17 0.819875 0.542347 0.209524
#
# Coordination Sequence:
#
# PCOD9270860 Si02
#       8
#     8   8   8   8   8   8   8   8
#     4  12  18  34  63  99 119 138 186 257 316 352
#     4  10  20  36  53  85 124 154 190 239 296 361
#     4  11  19  33  60  88 118 154 191 243 307 358
#     4  10  24  39  56  86 122 158 195 243 297 363
#     4  11  26  41  61  86 119 162 206 246 293 352
#     4  11  22  33  61  91 122 152 192 247 304 368
#     4  11  22  40  66  88 120 158 194 256 308 350
#     4  10  20  39  59  89 118 150 199 247 295 359
#
# _framework density 19.572697999999999
#
# number of rings (size 3 to 8) (size 9 to 14) (size 15 to 20)
#    0.000    1.250    6.250    1.500    5.250    2.000 
#    0.000    0.000   11.000    0.000    0.000    0.000 
#    0.000    0.000    0.000    0.000    0.000    0.000 
#
# Total GULP energy -178834.622610 kJ/mol
# GULP energy per Si atom -5588.581957 kJ/mol
# Density = 1.952815 g / cm^3
# Si number density = 19.572698 Si / 1000 Ang^3
#
#
#
# Elastic Constant Matrix: (Units=GPa)
#
#
# Indices 1 2 3 4 5 6 
#
# 1 113.4102 1.8556 -5.1011 0.0000 7.7764 0.0000
# 2 1.8556 49.8410 0.5560 0.0000 -3.4019 0.0000
# 3 -5.1011 0.5560 19.6859 0.0000 3.3930 0.0000
# 4 0.0000 0.0000 0.0000 11.7205 0.0000 2.3736
# 5 7.7764 -3.4019 3.3930 0.0000 22.2005 0.0000
# 6 0.0000 0.0000 0.0000 2.3736 0.0000 6.5328
#
#
#
# Elastic Compliance Matrix: (Units=1/GPa)
#
#
# Indices 1 2 3 4 5 6 
#
# 1 0.009226 -0.000637 0.003063 0.000000 -0.003797 0.000000
# 2 -0.000637 0.020345 -0.001351 0.000000 0.003547 0.000000
# 3 0.003063 -0.001351 0.053253 0.000000 -0.009419 0.000000
# 4 0.000000 0.000000 0.000000 0.092098 0.000000 -0.033463
# 5 -0.003797 0.003547 -0.009419 0.000000 0.048357 0.000000
# 6 0.000000 0.000000 0.000000 -0.033463 0.000000 0.165231
#
#
# Mechanical properties :
#
#
# Convention : Reuss Voigt Hill
#
# Bulk Modulus (GPa) = 11.76823 19.72869 15.74846
# Shear Modulus (GPa) = 12.05736 20.46585 16.26161
#
# Velocity S-wave (km/s) = 2.48469 3.23713 2.88554
# Velocity P-wave (km/s) = 3.77587 4.90649 4.37783
#
# Compressibility (1/GPa) = 0.08497454
#
# Stress axis : x y z
#
# Youngs Moduli (GPa) = 108.38776 49.15286 18.77826
#
# Poissons Ratio (x) = 0.03130 -0.05752
# Poissons Ratio (y) = 0.06903 0.02537
# Poissons Ratio (z) = -0.33201 0.06641
#
# Static dielectric constant tensor:
#      x y z
#    x 1.711390 0.000000 0.028520 
#    y 0.000000 1.680550 0.000000 
#    z 0.028520 0.000000 1.676540 
# 
# From -- ./inp_files/174230.got.cif
#   From: 2010.05.17/outbox.cif.g08.bks.cpg/sg15_88_cif.got.tgz:174230.got - 2010.06.03 18:47:42.
