data_PCOD9270588
_publ_section_title
;
Structure prediction by ZEFSAII (Michael W. Deem and Ramdas Pophale) SiO2 
 PCOD9270588
Probable space group: C 2/C
;
_chemical_formula_sum "Si O2"
_cell_formula_units_Z 48
_cell_length_a 11.341447
_cell_length_b 16.641087
_cell_length_c 11.463488
_cell_angle_alpha 90.000000
_cell_angle_beta 76.016672
_cell_angle_gamma 90.000000
_cell_volume 2099.435547
_symmetry_space_group_name_H-M "C 2/C"
_symmetry_group_IT_number 15
_symmetry_cell_setting 'monoclinic'
loop_
_space_group_symop_operation_xyz
x,y,z
-x,y,1/2-z
-x,-y,-z
x,-y,1/2+z
1/2+x,1/2+y,z
1/2-x,1/2+y,1/2-z
1/2-x,1/2-y,-z
1/2+x,1/2-y,1/2+z
loop_
_atom_site_type_symbol
_atom_site_label
_atom_site_fract_x
_atom_site_fract_y
_atom_site_fract_z
Si Si1 0.699574 0.461800 0.337617
Si Si2 0.331476 0.090007 0.583097
Si Si3 0.413970 0.927980 0.451802
Si Si4 0.280429 0.814127 0.644970
Si Si5 0.695216 0.650611 0.408055
Si Si6 0.081208 0.832977 0.504650
O O1 0.731664 0.446730 0.194638
O O2 0.812867 0.419114 0.376714
O O3 0.688067 0.555796 0.370299
O O4 0.590051 0.413592 0.423878
O O5 0.457908 0.109734 0.616948
O O6 0.266779 0.151640 0.512860
O O7 0.393802 0.022313 0.484397
O O8 0.369486 0.884197 0.579695
O O9 0.265612 0.808516 0.785556
O O10 0.152322 0.835311 0.611672
O O11 0.342759 0.734500 0.581339
O O12 0.559976 0.684598 0.447916
#
# Coordination Sequence:
#
# PCOD9270588 Si02
#       6
#     8   8   8   8   8   8
#     4  10  20  38  61  91 126 163 209 258 309 379
#     4  10  20  35  60  93 121 158 209 259 313 361
#     4   9  19  36  60  88 120 162 213 255 298 376
#     4  10  21  42  63  87 121 167 212 258 316 379
#     4  11  22  39  62  93 126 160 208 265 319 370
#     4  10  23  40  63  89 122 165 213 257 315 388
#
# _framework density 22.863287
#
# number of rings (size 3 to 8) (size 9 to 14) (size 15 to 20)
#    0.000    2.000    1.667    1.500    0.000    2.667 
#    3.000   10.000    0.000    0.000    0.000    0.000 
#    0.000    0.000    0.000    0.000    0.000    0.000 
#
# Total GULP energy -133882.632808 kJ/mol
# GULP energy per Si atom -5578.443034 kJ/mol
# Density = 2.281125 g / cm^3
# Si number density = 22.863287 Si / 1000 Ang^3
#
#
#
# Elastic Constant Matrix: (Units=GPa)
#
#
# Indices 1 2 3 4 5 6 
#
# 1 65.6929 15.2758 17.3175 0.0000 -9.4354 0.0000
# 2 15.2758 45.2043 4.8540 0.0000 1.8608 0.0000
# 3 17.3175 4.8540 87.0572 0.0000 -2.5920 0.0000
# 4 0.0000 0.0000 0.0000 26.3443 0.0000 2.6875
# 5 -9.4354 1.8608 -2.5920 0.0000 18.9669 0.0000
# 6 0.0000 0.0000 0.0000 2.6875 0.0000 15.5691
#
#
#
# Elastic Compliance Matrix: (Units=1/GPa)
#
#
# Indices 1 2 3 4 5 6 
#
# 1 0.018928 -0.006458 -0.003119 0.000000 0.009624 0.000000
# 2 -0.006458 0.024564 -0.000253 0.000000 -0.005657 0.000000
# 3 -0.003119 -0.000253 0.012125 0.000000 0.000130 0.000000
# 4 0.000000 0.000000 0.000000 0.038639 0.000000 -0.006670
# 5 0.009624 -0.005657 0.000130 0.000000 0.058084 0.000000
# 6 0.000000 0.000000 0.000000 -0.006670 0.000000 0.065381
#
#
# Mechanical properties :
#
#
# Convention : Reuss Voigt Hill
#
# Bulk Modulus (GPa) = 27.81030 30.31655 29.06342
# Shear Modulus (GPa) = 20.05078 22.87655 21.46367
#
# Velocity S-wave (km/s) = 2.96461 3.16663 3.06728
# Velocity P-wave (km/s) = 4.88965 5.16321 5.02829
#
# Compressibility (1/GPa) = 0.03595790
#
# Stress axis : x y z
#
# Youngs Moduli (GPa) = 52.83092 40.70988 82.47366
#
# Poissons Ratio (x) = 0.26289 0.25721
# Poissons Ratio (y) = 0.34116 0.02091
# Poissons Ratio (z) = 0.16476 0.01032
#
# Static dielectric constant tensor:
#      x y z
#    x 2.036520 0.000000 0.059530 
#    y 0.000000 1.917710 0.000000 
#    z 0.059530 0.000000 1.888060 
# 
# From -- ./inp_files/87767.got.cif
#   From: 2010.05.17/outbox.cif.g08.bks.cpg/sg15_44_cif.got.tgz:87767.got - 2010.06.03 18:47:42.
