data_PCOD9270336
_publ_section_title
;
Structure prediction by ZEFSAII (Michael W. Deem and Ramdas Pophale) SiO2 
 PCOD9270336
Probable space group: C 2/C
;
_chemical_formula_sum "Si O2"
_cell_formula_units_Z 48
_cell_length_a 13.139693
_cell_length_b 14.224620
_cell_length_c 11.695560
_cell_angle_alpha 90.000000
_cell_angle_beta 94.221953
_cell_angle_gamma 90.000000
_cell_volume 2180.051658
_symmetry_space_group_name_H-M "C 2/C"
_symmetry_group_IT_number 15
_symmetry_cell_setting 'monoclinic'
loop_
_space_group_symop_operation_xyz
x,y,z
-x,y,1/2-z
-x,-y,-z
x,-y,1/2+z
1/2+x,1/2+y,z
1/2-x,1/2+y,1/2-z
1/2-x,1/2-y,-z
1/2+x,1/2-y,1/2+z
loop_
_atom_site_type_symbol
_atom_site_label
_atom_site_fract_x
_atom_site_fract_y
_atom_site_fract_z
Si Si1 0.885204 0.065249 0.235878
Si Si2 0.744824 0.100443 0.810855
Si Si3 0.325998 0.861611 0.437632
Si Si4 0.904338 0.831996 0.502870
Si Si5 0.626320 0.346617 0.527837
Si Si6 0.037470 0.366937 0.381460
O O1 0.868648 0.110772 0.111491
O O2 0.883437 0.141854 0.337054
O O3 0.000000 0.025081 0.250000
O O4 0.803277 0.989134 0.266192
O O5 0.713534 0.156750 0.694454
O O6 0.640579 0.075124 0.868843
O O7 0.820503 0.157588 0.898673
O O8 0.354118 0.762420 0.498564
O O9 0.226137 0.901621 0.492705
O O10 0.436153 0.910871 0.431392
O O11 0.927732 0.726209 0.547152
O O12 0.014711 0.873444 0.472543
O O13 0.000000 0.340198 0.250000
#
# Coordination Sequence:
#
# PCOD9270336 Si02
#       6
#     8   8   8   8   8   8
#     4  10  22  35  52  80 115 143 170 221 278 323
#     4  11  22  31  57  84 108 140 178 224 266 320
#     4   9  19  36  60  78 105 144 184 219 260 322
#     4  10  20  35  58  82 107 138 180 226 271 312
#     4   9  19  37  58  80 107 142 177 223 273 316
#     4   9  18  38  57  78 104 145 184 215 262 324
#
# _framework density 22.017827
#
# number of rings (size 3 to 8) (size 9 to 14) (size 15 to 20)
#    0.000    2.333    0.000    4.000    4.667    1.333 
#    0.000    0.833    3.667    0.000    0.000    0.000 
#    0.000    0.000    0.000    0.000    0.000    0.000 
#
# Total GULP energy -133837.935330 kJ/mol
# GULP energy per Si atom -5576.580639 kJ/mol
# Density = 2.196771 g / cm^3
# Si number density = 22.017827 Si / 1000 Ang^3
#
#
#
# Elastic Constant Matrix: (Units=GPa)
#
#
# Indices 1 2 3 4 5 6 
#
# 1 221.2460 21.1671 50.3813 0.0000 -24.4708 0.0000
# 2 21.1671 15.2897 -1.0080 0.0000 -2.1683 0.0000
# 3 50.3813 -1.0080 74.6011 0.0000 8.0047 0.0000
# 4 0.0000 0.0000 0.0000 1.4185 0.0000 3.8486
# 5 -24.4708 -2.1683 8.0047 0.0000 40.9346 0.0000
# 6 0.0000 0.0000 0.0000 3.8486 0.0000 26.8633
#
#
#
# Elastic Compliance Matrix: (Units=1/GPa)
#
#
# Indices 1 2 3 4 5 6 
#
# 1 0.007259 -0.009720 -0.005561 0.000000 0.004912 0.000000
# 2 -0.009720 0.078933 0.007973 0.000000 -0.003189 0.000000
# 3 -0.005561 0.007973 0.017956 0.000000 -0.006413 0.000000
# 4 0.000000 0.000000 0.000000 1.153248 0.000000 -0.165221
# 5 0.004912 -0.003189 -0.006413 0.000000 0.028451 0.000000
# 6 0.000000 0.000000 0.000000 -0.165221 0.000000 0.060896
#
#
# Mechanical properties :
#
#
# Convention : Reuss Voigt Hill
#
# Bulk Modulus (GPa) = 11.16907 50.24640 30.70773
# Shear Modulus (GPa) = 3.59401 29.88303 16.73852
#
# Velocity S-wave (km/s) = 1.27901 3.68804 2.76021
# Velocity P-wave (km/s) = 2.69535 6.40358 4.91278
#
# Compressibility (1/GPa) = 0.08953296
#
# Stress axis : x y z
#
# Youngs Moduli (GPa) = 137.75133 12.66890 55.69125
#
# Poissons Ratio (x) = 0.12314 0.30970
# Poissons Ratio (y) = 1.33895 -0.44403
# Poissons Ratio (z) = 0.76604 -0.10101
#
# Static dielectric constant tensor:
#      x y z
#    x 1.895210 0.000000 -0.030060 
#    y 0.000000 1.827990 0.000000 
#    z -0.030060 0.000000 1.793360 
# 
# From -- ./inp_files/87479.got.cif
#   From: 2010.05.17/outbox.cif.g08.bks.cpg/sg15_44_cif.got.tgz:87479.got - 2010.06.03 18:47:42.
