data_PCOD9270553
_publ_section_title
;
Structure prediction by ZEFSAII (Michael W. Deem and Ramdas Pophale) SiO2 
 PCOD9270553
Probable space group: C 2/C
;
_chemical_formula_sum "Si O2"
_cell_formula_units_Z 56
_cell_length_a 22.145185
_cell_length_b 15.059276
_cell_length_c 10.008889
_cell_angle_alpha 90.000000
_cell_angle_beta 45.755342
_cell_angle_gamma 90.000000
_cell_volume 2391.139146
_symmetry_space_group_name_H-M "C 2/C"
_symmetry_group_IT_number 15
_symmetry_cell_setting 'monoclinic'
loop_
_space_group_symop_operation_xyz
x,y,z
-x,y,1/2-z
-x,-y,-z
x,-y,1/2+z
1/2+x,1/2+y,z
1/2-x,1/2+y,1/2-z
1/2-x,1/2-y,-z
1/2+x,1/2-y,1/2+z
loop_
_atom_site_type_symbol
_atom_site_label
_atom_site_fract_x
_atom_site_fract_y
_atom_site_fract_z
Si Si1 0.859045 0.996296 0.456692
Si Si2 0.495738 0.153285 0.907745
Si Si3 0.918765 0.379492 0.957786
Si Si4 0.266390 0.424849 0.354075
Si Si5 0.604373 0.680032 0.191338
Si Si6 0.324629 0.764092 0.687831
Si Si7 0.640411 0.319019 0.938286
O O1 0.789194 0.977608 0.451492
O O2 0.901826 0.903529 0.428096
O O3 0.813541 0.027020 0.660741
O O4 0.913490 0.079703 0.324272
O O5 0.500000 0.115621 0.750000
O O6 0.526801 0.255478 0.842484
O O7 0.556264 0.108351 0.923887
O O8 0.400571 0.169059 0.105409
O O9 0.000000 0.408156 0.750000
O O10 0.831249 0.418865 0.038715
O O11 0.905027 0.273454 0.961809
O O12 0.309551 0.326589 0.293282
O O13 0.648382 0.673688 0.266156
O O14 0.656940 0.728721 0.992427
O O15 0.236949 0.813917 0.834756
#
# Coordination Sequence:
#
# PCOD9270553 Si02
#       7
#     8   8   8   8   8   8   8
#     4  11  21  38  60  85 119 155 195 234 289 349
#     4   9  19  37  60  87 116 150 192 235 290 343
#     4  10  23  40  60  86 119 148 195 249 288 335
#     4  10  23  40  60  85 118 156 197 236 289 349
#     4   9  18  37  56  85 121 153 190 235 288 350
#     4   9  19  34  64  86 114 147 196 245 282 343
#     4  10  20  35  60  88 112 153 196 237 294 338
#
# _framework density 23.419799000000001
#
# number of rings (size 3 to 8) (size 9 to 14) (size 15 to 20)
#    0.000    2.286    1.429    0.429    4.000    4.571 
#    0.000    5.000    0.000    0.000    0.000    0.000 
#    0.000    0.000    0.000    0.000    0.000    0.000 
#
# Total GULP energy -156415.335961 kJ/mol
# GULP energy per Si atom -5586.261999 kJ/mol
# Density = 2.336649 g / cm^3
# Si number density = 23.419799 Si / 1000 Ang^3
#
#
#
# Elastic Constant Matrix: (Units=GPa)
#
#
# Indices 1 2 3 4 5 6 
#
# 1 92.5950 12.3660 45.8709 0.0000 11.1127 0.0000
# 2 12.3660 59.4207 9.3178 0.0000 2.1983 0.0000
# 3 45.8709 9.3178 41.8328 0.0000 3.7675 0.0000
# 4 0.0000 0.0000 0.0000 -19.4256 0.0000 -1.2462
# 5 11.1127 2.1983 3.7675 0.0000 41.4886 0.0000
# 6 0.0000 0.0000 0.0000 -1.2462 0.0000 7.4306
#
#
#
# Elastic Compliance Matrix: (Units=1/GPa)
#
#
# Indices 1 2 3 4 5 6 
#
# 1 0.024362 -0.000816 -0.026162 0.000000 -0.004106 0.000000
# 2 -0.000816 0.017479 -0.002959 0.000000 -0.000439 0.000000
# 3 -0.026162 -0.002959 0.053040 0.000000 0.002348 0.000000
# 4 0.000000 0.000000 0.000000 -0.050930 0.000000 -0.008541
# 5 -0.004106 -0.000439 0.002348 0.000000 0.025013 0.000000
# 6 0.000000 0.000000 0.000000 -0.008541 0.000000 0.133147
#
#
# Mechanical properties :
#
#
# Convention : Reuss Voigt Hill
#
# Bulk Modulus (GPa) = 28.56586 36.55087 32.55837
# Shear Modulus (GPa) = 18.27122 14.31829 16.29476
#
# Velocity S-wave (km/s) = 2.79617 2.47528 2.64060
# Velocity P-wave (km/s) = 4.75905 4.87956 4.81968
#
# Compressibility (1/GPa) = 0.03500682
#
# Stress axis : x y z
#
# Youngs Moduli (GPa) = 41.04748 57.21094 18.85365
#
# Poissons Ratio (x) = 0.04666 0.49325
# Poissons Ratio (y) = 0.03348 0.05580
# Poissons Ratio (z) = 1.07389 0.16931
#
# Static dielectric constant tensor:
#      x y z
#    x 1.934520 0.000000 0.023190 
#    y 0.000000 1.911110 0.000000 
#    z 0.023190 0.000000 1.844220 
# 
# From -- ./inp_files/62664.got.cif
#   From: 2010.05.17/outbox.cif.g08.bks.cpg/sg15_32_cif.got.tgz:62664.got - 2010.06.03 18:47:42.
