data_PCOD9270679
_publ_section_title
;
Structure prediction by ZEFSAII (Michael W. Deem and Ramdas Pophale) SiO2 
 PCOD9270679
Probable space group: C 2/C
;
_chemical_formula_sum "Si O2"
_cell_formula_units_Z 48
_cell_length_a 10.142693
_cell_length_b 14.718863
_cell_length_c 21.962867
_cell_angle_alpha 90.000000
_cell_angle_beta 36.131829
_cell_angle_gamma 90.000000
_cell_volume 1933.335764
_symmetry_space_group_name_H-M "C 2/C"
_symmetry_group_IT_number 15
_symmetry_cell_setting 'monoclinic'
loop_
_space_group_symop_operation_xyz
x,y,z
-x,y,1/2-z
-x,-y,-z
x,-y,1/2+z
1/2+x,1/2+y,z
1/2-x,1/2+y,1/2-z
1/2-x,1/2-y,-z
1/2+x,1/2-y,1/2+z
loop_
_atom_site_type_symbol
_atom_site_label
_atom_site_fract_x
_atom_site_fract_y
_atom_site_fract_z
Si Si1 0.754271 0.933724 0.368852
Si Si2 0.365352 0.592131 0.540013
Si Si3 0.703596 0.229566 0.259631
Si Si4 0.013430 0.924247 0.638012
Si Si5 0.864817 0.430044 0.219497
Si Si6 0.291808 0.739612 0.080125
O O1 0.613013 0.951542 0.361399
O O2 0.672597 0.847728 0.437955
O O3 0.000000 0.905808 0.250000
O O4 0.811402 0.021928 0.386212
O O5 0.500000 0.500000 0.500000
O O6 0.366726 0.610842 0.467022
O O7 0.503441 0.676437 0.515715
O O8 0.112653 0.574651 0.653379
O O9 0.875277 0.155856 0.221645
O O10 0.762790 0.329481 0.260202
O O11 0.750621 0.226121 0.168604
O O12 0.440276 0.211428 0.365289
O O13 0.817842 0.996224 0.691942
#
# Coordination Sequence:
#
# PCOD9270679 Si02
#       6
#     8   8   8   8   8   8
#     4   9  16  34  60  85 112 147 192 246 295 344
#     4  11  24  36  55  88 118 156 202 242 285 354
#     4   9  16  31  60  86 106 154 195 238 291 351
#     4  10  20  35  62  84 116 155 195 243 301 345
#     4  10  20  38  60  85 120 149 197 247 291 355
#     4   9  15  32  55  81 111 149 194 236 285 342
#
# _framework density 24.827555
#
# number of rings (size 3 to 8) (size 9 to 14) (size 15 to 20)
#    0.000    2.333    5.000    1.000    0.000    8.667 
#    0.000    0.833   11.000    0.000    0.000    0.000 
#    0.000    0.000    0.000    0.000    0.000    0.000 
#
# Total GULP energy -134254.462721 kJ/mol
# GULP energy per Si atom -5593.935947 kJ/mol
# Density = 2.477105 g / cm^3
# Si number density = 24.827555 Si / 1000 Ang^3
#
#
#
# Elastic Constant Matrix: (Units=GPa)
#
#
# Indices 1 2 3 4 5 6 
#
# 1 62.1262 13.3156 37.8289 -0.0005 -14.5774 0.0002
# 2 13.3156 81.8050 8.5327 0.0003 1.1346 -0.0006
# 3 37.8289 8.5327 106.7505 0.0003 -14.5467 -0.0002
# 4 -0.0005 0.0003 0.0003 22.1144 0.0000 -9.1817
# 5 -14.5774 1.1346 -14.5467 0.0000 30.4160 -0.0001
# 6 0.0002 -0.0006 -0.0002 -9.1817 -0.0001 38.5840
#
#
#
# Elastic Compliance Matrix: (Units=1/GPa)
#
#
# Indices 1 2 3 4 5 6 
#
# 1 0.022681 -0.003097 -0.006732 0.000001 0.007767 0.000000
# 2 -0.003097 0.012778 -0.000204 0.000000 -0.002059 0.000000
# 3 -0.006732 -0.000204 0.012121 0.000000 0.002578 0.000000
# 4 0.000001 0.000000 0.000000 0.050177 0.000000 0.011940
# 5 0.007767 -0.002059 0.002578 0.000000 0.037910 0.000000
# 6 0.000000 0.000000 0.000000 0.011940 0.000000 0.028759
#
#
# Mechanical properties :
#
#
# Convention : Reuss Voigt Hill
#
# Bulk Modulus (GPa) = 36.34566 41.11514 38.73040
# Shear Modulus (GPa) = 25.81791 30.95650 28.38720
#
# Velocity S-wave (km/s) = 3.22823 3.53492 3.38505
# Velocity P-wave (km/s) = 5.34475 5.76690 5.55983
#
# Compressibility (1/GPa) = 0.02751360
#
# Stress axis : x y z
#
# Youngs Moduli (GPa) = 44.08887 78.25799 82.50297
#
# Poissons Ratio (x) = 0.24240 0.55538
# Poissons Ratio (y) = 0.13657 0.01686
# Poissons Ratio (z) = 0.29679 0.01599
#
# Static dielectric constant tensor:
#      x y z
#    x 2.005520 0.000000 0.041130 
#    y 0.000000 1.943120 0.000000 
#    z 0.041130 0.000000 1.980640 
# 
# From -- ./inp_files/238483.got.cif
#   From: 2010.05.17/outbox.cif.g08.bks.cpg/sg15_120_cif.got.tgz:238483.got - 2010.06.03 18:47:42.
