data_PCOD9270682
_publ_section_title
;
Structure prediction by ZEFSAII (Michael W. Deem and Ramdas Pophale) SiO2 
 PCOD9270682
Probable space group: C 2/C
;
_chemical_formula_sum "Si O2"
_cell_formula_units_Z 56
_cell_length_a 18.322978
_cell_length_b 8.161191
_cell_length_c 17.859046
_cell_angle_alpha 90.000000
_cell_angle_beta 114.111353
_cell_angle_gamma 90.000000
_cell_volume 2437.593291
_symmetry_space_group_name_H-M "C 2/C"
_symmetry_group_IT_number 15
_symmetry_cell_setting 'monoclinic'
loop_
_space_group_symop_operation_xyz
x,y,z
-x,y,1/2-z
-x,-y,-z
x,-y,1/2+z
1/2+x,1/2+y,z
1/2-x,1/2+y,1/2-z
1/2-x,1/2-y,-z
1/2+x,1/2-y,1/2+z
loop_
_atom_site_type_symbol
_atom_site_label
_atom_site_fract_x
_atom_site_fract_y
_atom_site_fract_z
Si Si1 0.013316 0.994330 0.166438
Si Si2 0.040943 0.349883 0.848960
Si Si3 0.196240 0.297329 0.088921
Si Si4 0.713419 0.976043 0.948581
Si Si5 0.310299 0.808302 0.183622
Si Si6 0.050650 0.663705 0.642960
Si Si7 0.199703 0.042612 0.752672
O O1 0.997922 0.170755 0.123065
O O2 0.106801 0.951621 0.195033
O O3 0.000000 0.013877 0.250000
O O4 0.967024 0.832812 0.121145
O O5 0.133261 0.392392 0.881799
O O6 0.000000 0.344720 0.750000
O O7 0.997628 0.494539 0.877381
O O8 0.211298 0.130193 0.049348
O O9 0.115671 0.315411 0.103881
O O10 0.267956 0.320121 0.177989
O O11 0.204497 0.443355 0.032377
O O12 0.704190 0.155330 0.909175
O O13 0.253195 0.936181 0.202202
O O14 0.397928 0.833130 0.257314
O O15 0.286314 0.628635 0.200005
#
# Coordination Sequence:
#
# PCOD9270682 Si02
#       7
#     8   8   8   8   8   8   8
#     4  10  21  33  59  92 117 146 197 249 299 353
#     4  11  21  36  65  87 116 155 201 246 308 354
#     4  10  23  40  58  82 125 154 199 243 301 350
#     4  11  22  40  59  85 117 163 193 245 298 362
#     4  10  20  35  62  86 115 146 197 244 295 343
#     4  10  21  38  60  90 118 152 195 257 291 355
#     4  10  21  35  60  90 113 149 193 247 294 353
#
# _framework density 22.973478
#
# number of rings (size 3 to 8) (size 9 to 14) (size 15 to 20)
#    0.000    1.714    1.429    4.714    6.000    1.143 
#    0.000    0.714    0.000    0.000    0.000    0.000 
#    0.000    0.000    0.000    0.000    0.000    0.000 
#
# Total GULP energy -156389.462581 kJ/mol
# GULP energy per Si atom -5585.337949 kJ/mol
# Density = 2.292119 g / cm^3
# Si number density = 22.973478 Si / 1000 Ang^3
#
#
#
# Elastic Constant Matrix: (Units=GPa)
#
#
# Indices 1 2 3 4 5 6 
#
# 1 72.1829 45.0733 2.9792 0.0000 -2.9961 0.0000
# 2 45.0733 100.7420 -7.4632 0.0000 -15.8073 0.0000
# 3 2.9792 -7.4632 44.8012 0.0000 -2.3643 0.0000
# 4 0.0000 0.0000 0.0000 4.4077 0.0000 2.2310
# 5 -2.9961 -15.8073 -2.3643 0.0000 18.4588 0.0000
# 6 0.0000 0.0000 0.0000 2.2310 0.0000 28.0990
#
#
#
# Elastic Compliance Matrix: (Units=1/GPa)
#
#
# Indices 1 2 3 4 5 6 
#
# 1 0.020090 -0.010156 -0.003337 0.000000 -0.005863 0.000000
# 2 -0.010156 0.016873 0.004190 0.000000 0.013338 0.000000
# 3 -0.003337 0.004190 0.023561 0.000000 0.006064 0.000000
# 4 0.000000 0.000000 0.000000 0.236374 0.000000 -0.018767
# 5 -0.005863 0.013338 0.006064 0.000000 0.065422 0.000000
# 6 0.000000 0.000000 0.000000 -0.018767 0.000000 0.037078
#
#
# Mechanical properties :
#
#
# Convention : Reuss Voigt Hill
#
# Bulk Modulus (GPa) = 23.85590 33.21164 28.53377
# Shear Modulus (GPa) = 11.57473 22.00223 16.78848
#
# Velocity S-wave (km/s) = 2.24705 3.09807 2.70622
# Velocity P-wave (km/s) = 4.13992 5.22353 4.71297
#
# Compressibility (1/GPa) = 0.04191836
#
# Stress axis : x y z
#
# Youngs Moduli (GPa) = 49.77723 59.26519 42.44339
#
# Poissons Ratio (x) = 0.60187 0.14164
# Poissons Ratio (y) = 0.50552 -0.17784
# Poissons Ratio (z) = 0.16611 -0.24832
#
# Static dielectric constant tensor:
#      x y z
#    x 1.854790 0.000000 -0.007420 
#    y 0.000000 1.919250 0.000000 
#    z -0.007420 0.000000 1.964360 
# 
# From -- ./inp_files/247576.got.cif
#   From: 2010.05.17/outbox.cif.g08.bks.cpg/sg15_124_cif.got.tgz:247576.got - 2010.06.03 18:47:42.
