data_PCOD9270824
_publ_section_title
;
Structure prediction by ZEFSAII (Michael W. Deem and Ramdas Pophale) SiO2 
 PCOD9270824
Probable space group: C 2/C
;
_chemical_formula_sum "Si O2"
_cell_formula_units_Z 56
_cell_length_a 19.269944
_cell_length_b 17.702806
_cell_length_c 16.309913
_cell_angle_alpha 90.000000
_cell_angle_beta 154.967882
_cell_angle_gamma 90.000000
_cell_volume 2354.204391
_symmetry_space_group_name_H-M "C 2/C"
_symmetry_group_IT_number 15
_symmetry_cell_setting 'monoclinic'
loop_
_space_group_symop_operation_xyz
x,y,z
-x,y,1/2-z
-x,-y,-z
x,-y,1/2+z
1/2+x,1/2+y,z
1/2-x,1/2+y,1/2-z
1/2-x,1/2-y,-z
1/2+x,1/2-y,1/2+z
loop_
_atom_site_type_symbol
_atom_site_label
_atom_site_fract_x
_atom_site_fract_y
_atom_site_fract_z
Si Si1 0.132737 0.563879 0.222694
Si Si2 0.827291 0.496108 0.992374
Si Si3 0.178719 0.347826 0.919662
Si Si4 0.468848 0.513779 0.561789
Si Si5 0.087815 0.358926 0.502006
Si Si6 0.316732 0.775852 0.300738
Si Si7 0.076835 0.817352 0.179319
O O1 0.182259 0.639917 0.326421
O O2 0.280268 0.502061 0.386671
O O3 0.126147 0.587306 0.121183
O O4 0.953316 0.538598 0.063016
O O5 0.632874 0.478569 0.775252
O O6 0.901359 0.412073 0.065477
O O7 0.821943 0.562031 0.055020
O O8 0.000000 0.317876 0.750000
O O9 0.314660 0.307891 0.121804
O O10 0.500000 0.500000 0.500000
O O11 0.493404 0.602570 0.603414
O O12 0.218768 0.291461 0.651576
O O13 0.913502 0.323067 0.336969
O O14 0.197583 0.824629 0.230398
O O15 0.445673 0.741829 0.504975
#
# Coordination Sequence:
#
# PCOD9270824 Si02
#       7
#     8   8   8   8   8   8   8
#     4  11  21  36  59  84 113 145 177 228 292 329
#     4  10  21  35  57  83 112 142 182 234 282 328
#     4   9  20  37  55  82 112 144 180 229 284 334
#     4  11  20  33  56  84 109 139 183 233 286 328
#     4  11  20  37  53  82 112 146 187 228 270 325
#     4  10  21  34  54  75 110 153 192 221 263 323
#     4  10  20  36  50  74 113 144 186 231 257 330
#
# _framework density 23.787229
#
# number of rings (size 3 to 8) (size 9 to 14) (size 15 to 20)
#    0.000    1.714    2.857    3.000    2.000    2.286 
#    0.000    7.857    0.000    0.000    0.000    9.000 
#    0.000    0.000    0.000    0.000    0.000    0.000 
#
# Total GULP energy -156110.255199 kJ/mol
# GULP energy per Si atom -5575.366257 kJ/mol
# Density = 2.373309 g / cm^3
# Si number density = 23.787229 Si / 1000 Ang^3
#
#
#
# Elastic Constant Matrix: (Units=GPa)
#
#
# Indices 1 2 3 4 5 6 
#
# 1 47.0811 14.7769 24.5312 0.0000 15.9973 0.0000
# 2 14.7769 70.3363 16.2562 0.0001 8.9611 0.0001
# 3 24.5312 16.2562 58.8377 0.0003 15.2727 0.0002
# 4 0.0000 0.0001 0.0003 23.8742 0.0001 10.9465
# 5 15.9973 8.9611 15.2727 0.0001 38.8143 0.0000
# 6 0.0000 0.0001 0.0002 10.9465 0.0000 35.1675
#
#
#
# Elastic Compliance Matrix: (Units=1/GPa)
#
#
# Indices 1 2 3 4 5 6 
#
# 1 0.029845 -0.003062 -0.009565 0.000000 -0.007830 0.000000
# 2 -0.003062 0.015652 -0.002715 0.000000 -0.001283 0.000000
# 3 -0.009565 -0.002715 0.022885 0.000000 -0.004436 0.000000
# 4 0.000000 0.000000 0.000000 0.048859 0.000000 -0.015208
# 5 -0.007830 -0.001283 -0.004436 0.000000 0.031033 0.000000
# 6 0.000000 0.000000 0.000000 -0.015208 0.000000 0.033169
#
#
# Mechanical properties :
#
#
# Convention : Reuss Voigt Hill
#
# Bulk Modulus (GPa) = 26.52573 31.93151 29.22862
# Shear Modulus (GPa) = 22.25263 27.61726 24.93494
#
# Velocity S-wave (km/s) = 3.06189 3.41106 3.24118
# Velocity P-wave (km/s) = 4.86577 5.38207 5.13042
#
# Compressibility (1/GPa) = 0.03769925
#
# Stress axis : x y z
#
# Youngs Moduli (GPa) = 33.50626 63.89120 43.69625
#
# Poissons Ratio (x) = 0.19563 0.41795
# Poissons Ratio (y) = 0.10259 0.11862
# Poissons Ratio (z) = 0.32048 0.17344
#
# Static dielectric constant tensor:
#      x y z
#    x 1.870230 0.000000 -0.014650 
#    y 0.000000 1.994060 0.000000 
#    z -0.014650 0.000000 2.020130 
# 
# From -- ./inp_files/56699.got.cif
#   From: 2010.05.17/outbox.cif.g08.bks.cpg/sg15_29_cif.got.tgz:56699.got - 2010.06.03 18:47:42.
