data_PCOD9270644
_publ_section_title
;
Structure prediction by ZEFSAII (Michael W. Deem and Ramdas Pophale) SiO2 
 PCOD9270644
Probable space group: C 2/C
;
_chemical_formula_sum "Si O2"
_cell_formula_units_Z 64
_cell_length_a 25.767814
_cell_length_b 21.017366
_cell_length_c 12.248582
_cell_angle_alpha 90.000000
_cell_angle_beta 28.673329
_cell_angle_gamma 90.000000
_cell_volume 3182.845975
_symmetry_space_group_name_H-M "C 2/C"
_symmetry_group_IT_number 15
_symmetry_cell_setting 'monoclinic'
loop_
_space_group_symop_operation_xyz
x,y,z
-x,y,1/2-z
-x,-y,-z
x,-y,1/2+z
1/2+x,1/2+y,z
1/2-x,1/2+y,1/2-z
1/2-x,1/2-y,-z
1/2+x,1/2-y,1/2+z
loop_
_atom_site_type_symbol
_atom_site_label
_atom_site_fract_x
_atom_site_fract_y
_atom_site_fract_z
Si Si1 0.677083 0.724881 0.946269
Si Si2 0.111586 0.355160 0.007692
Si Si3 0.864283 0.096941 0.381762
Si Si4 0.701506 0.662850 0.673894
Si Si5 0.600379 0.787834 0.791044
Si Si6 0.888882 0.048731 0.567876
Si Si7 0.578164 0.271670 0.000140
Si Si8 0.174860 0.908269 0.782923
O O1 0.652406 0.690464 0.877089
O O2 0.802475 0.743102 0.705601
O O3 0.616933 0.791002 0.070996
O O4 0.644485 0.673131 0.094210
O O5 0.000000 0.387916 0.250000
O O6 0.114576 0.325791 0.879216
O O7 0.218838 0.394535 0.840670
O O8 0.831111 0.069017 0.560505
O O9 0.799542 0.080613 0.392527
O O10 0.987959 0.072970 0.148023
O O11 0.650628 0.715534 0.687560
O O12 0.829244 0.671917 0.424885
O O13 0.670300 0.589255 0.728028
O O14 0.478525 0.773143 0.984699
O O15 0.884689 0.973196 0.576492
O O16 0.500000 0.268998 0.250000
O O17 0.599012 0.345769 0.931986
#
# Coordination Sequence:
#
# PCOD9270644 Si02
#       8
#     8   8   8   8   8   8   8   8
#     4   9  20  36  56  90 119 151 207 251 314 369
#     4  10  24  38  60  85 125 168 204 262 304 375
#     4  10  22  38  63  92 121 161 199 260 312 366
#     4   9  18  35  57  85 115 158 203 252 308 377
#     4  10  20  35  61  90 121 162 206 257 326 371
#     4  10  22  40  63  90 123 167 205 254 312 385
#     4  11  22  36  60  92 129 157 198 269 315 375
#     4  11  25  40  59  95 126 165 210 256 311 376
#
# _framework density 20.107790000000001
#
# number of rings (size 3 to 8) (size 9 to 14) (size 15 to 20)
#    0.000    2.000    1.250    1.125   12.250    2.000 
#    0.000    0.000    5.500    1.500    0.000    0.000 
#    0.000    0.000    0.000    0.000    0.000    0.000 
#
# Total GULP energy -178190.679041 kJ/mol
# GULP energy per Si atom -5568.458720 kJ/mol
# Density = 2.006202 g / cm^3
# Si number density = 20.107790 Si / 1000 Ang^3
#
#
#
# Elastic Constant Matrix: (Units=GPa)
#
#
# Indices 1 2 3 4 5 6 
#
# 1 59.6164 10.2384 13.9681 0.0001 0.5945 -0.0001
# 2 10.2384 93.4033 25.6193 0.0000 -0.1568 0.0000
# 3 13.9681 25.6193 65.4102 0.0000 -9.5900 0.0000
# 4 0.0001 0.0000 0.0000 17.9783 0.0000 4.4728
# 5 0.5945 -0.1568 -9.5900 0.0000 26.2642 0.0000
# 6 -0.0001 0.0000 0.0000 4.4728 0.0000 14.3083
#
#
#
# Elastic Compliance Matrix: (Units=1/GPa)
#
#
# Indices 1 2 3 4 5 6 
#
# 1 0.017819 -0.000943 -0.003693 0.000000 -0.001758 0.000000
# 2 -0.000943 0.012120 -0.004788 0.000000 -0.001655 0.000000
# 3 -0.003693 -0.004788 0.018976 0.000000 0.006984 0.000000
# 4 0.000000 0.000000 0.000000 0.060313 0.000000 -0.018854
# 5 -0.001758 -0.001655 0.006984 0.000000 0.040655 0.000000
# 6 0.000000 0.000000 0.000000 -0.018854 0.000000 0.075783
#
#
# Mechanical properties :
#
#
# Convention : Reuss Voigt Hill
#
# Bulk Modulus (GPa) = 33.26073 35.34240 34.30156
# Shear Modulus (GPa) = 19.64344 22.95045 21.29695
#
# Velocity S-wave (km/s) = 3.12894 3.38208 3.25797
# Velocity P-wave (km/s) = 5.44342 5.73288 5.59003
#
# Compressibility (1/GPa) = 0.03006549
#
# Stress axis : x y z
#
# Youngs Moduli (GPa) = 56.12056 82.50658 52.69745
#
# Poissons Ratio (x) = 0.07781 0.19464
# Poissons Ratio (y) = 0.05293 0.25233
# Poissons Ratio (z) = 0.20728 0.39507
#
# Static dielectric constant tensor:
#      x y z
#    x 1.793710 0.000000 0.017990 
#    y 0.000000 1.744280 0.000000 
#    z 0.017990 0.000000 1.761730 
# 
# From -- ./inp_files/124268.got.cif
#   From: 2010.05.17/outbox.cif.g08.bks.cpg/sg15_63_cif.got.tgz:124268.got - 2010.06.03 18:47:42.
