data_PCOD9270793
_publ_section_title
;
Structure prediction by ZEFSAII (Michael W. Deem and Ramdas Pophale) SiO2 
 PCOD9270793
Probable space group: C 2/C
;
_chemical_formula_sum "Si O2"
_cell_formula_units_Z 48
_cell_length_a 19.083604
_cell_length_b 12.031860
_cell_length_c 11.094122
_cell_angle_alpha 90.000000
_cell_angle_beta 48.523774
_cell_angle_gamma 90.000000
_cell_volume 1908.541510
_symmetry_space_group_name_H-M "C 2/C"
_symmetry_group_IT_number 15
_symmetry_cell_setting 'monoclinic'
loop_
_space_group_symop_operation_xyz
x,y,z
-x,y,1/2-z
-x,-y,-z
x,-y,1/2+z
1/2+x,1/2+y,z
1/2-x,1/2+y,1/2-z
1/2-x,1/2-y,-z
1/2+x,1/2-y,1/2+z
loop_
_atom_site_type_symbol
_atom_site_label
_atom_site_fract_x
_atom_site_fract_y
_atom_site_fract_z
Si Si1 0.808107 0.205450 0.559542
Si Si2 0.340868 0.925236 0.641007
Si Si3 0.636627 0.538691 0.822489
Si Si4 0.642271 0.759514 0.657132
Si Si5 0.068150 0.826127 0.783641
Si Si6 0.888557 0.667522 0.571634
O O1 0.850994 0.325549 0.536528
O O2 0.869948 0.104687 0.545684
O O3 0.826621 0.185939 0.396723
O O4 0.715826 0.192245 0.751855
O O5 0.360182 0.864101 0.747260
O O6 0.236027 0.973435 0.732742
O O7 0.400928 0.035892 0.556322
O O8 0.624619 0.640101 0.739876
O O9 0.570973 0.440822 0.851983
O O10 0.750000 0.750000 0.500000
O O11 0.596645 0.783969 0.578742
O O12 0.049482 0.730829 0.902302
O O13 0.000000 0.815507 0.750000
#
# Coordination Sequence:
#
# PCOD9270793 Si02
#       6
#     8   8   8   8   8   8
#     4  10  22  38  63  92 119 154 213 256 308 359
#     4  10  20  35  65  97 120 154 199 269 312 351
#     4  10  22  37  63  93 129 158 198 258 313 368
#     4  11  19  35  59  99 127 150 201 260 314 362
#     4  12  27  42  59  88 129 171 208 249 307 378
#     4  11  23  37  66  94 125 159 205 263 310 363
#
# _framework density 25.150093999999999
#
# number of rings (size 3 to 8) (size 9 to 14) (size 15 to 20)
#    0.000    1.333    6.667    0.500    9.333    0.667 
#    0.000    0.833    0.000    0.000    0.000    0.000 
#    0.000    0.000    0.000    0.000    0.000    0.000 
#
# Total GULP energy -133914.559634 kJ/mol
# GULP energy per Si atom -5579.773318 kJ/mol
# Density = 2.509285 g / cm^3
# Si number density = 25.150094 Si / 1000 Ang^3
#
#
#
# Elastic Constant Matrix: (Units=GPa)
#
#
# Indices 1 2 3 4 5 6 
#
# 1 105.3252 27.4417 24.6405 0.0000 21.5501 0.0000
# 2 27.4417 182.1082 29.7130 0.0000 16.5164 0.0000
# 3 24.6405 29.7130 118.4091 0.0000 18.7666 0.0000
# 4 0.0000 0.0000 0.0000 18.9149 0.0000 18.6825
# 5 21.5501 16.5164 18.7666 0.0000 52.3755 0.0000
# 6 0.0000 0.0000 0.0000 18.6825 0.0000 8.9027
#
#
#
# Elastic Compliance Matrix: (Units=1/GPa)
#
#
# Indices 1 2 3 4 5 6 
#
# 1 0.010845 -0.001076 -0.001414 0.000000 -0.003617 0.000000
# 2 -0.001076 0.005926 -0.001100 0.000000 -0.001032 0.000000
# 3 -0.001414 -0.001100 0.009402 0.000000 -0.002440 0.000000
# 4 0.000000 0.000000 0.000000 -0.049284 0.000000 0.103423
# 5 -0.003617 -0.001032 -0.002440 0.000000 0.021781 0.000000
# 6 0.000000 0.000000 0.000000 0.103423 0.000000 -0.104710
#
#
# Mechanical properties :
#
#
# Convention : Reuss Voigt Hill
#
# Bulk Modulus (GPa) = 52.64317 63.27032 57.95675
# Shear Modulus (GPa) = -54.03692 37.64177 -8.19758
#
# Velocity S-wave (km/s) = -4.64030 3.87290 -1.80736
# Velocity P-wave (km/s) = 2.78080 6.72390 4.32886
#
# Compressibility (1/GPa) = 0.01899581
#
# Stress axis : x y z
#
# Youngs Moduli (GPa) = 92.20523 168.73733 106.35771
#
# Poissons Ratio (x) = 0.18149 0.15037
# Poissons Ratio (y) = 0.09917 0.11696
# Poissons Ratio (z) = 0.13036 0.18556
#
# Static dielectric constant tensor:
#      x y z
#    x 2.531270 0.000000 -0.209870 
#    y 0.000000 1.941650 0.000000 
#    z -0.209870 0.000000 2.025810 
# 
# From -- ./inp_files/110520.got.cif
#   From: 2010.05.17/outbox.cif.g08.bks.cpg/sg15_56_cif.got.tgz:110520.got - 2010.06.03 18:47:42.
