data_PCOD9270879
_publ_section_title
;
Structure prediction by ZEFSAII (Michael W. Deem and Ramdas Pophale) SiO2 
 PCOD9270879
Probable space group: C 2/C
;
_chemical_formula_sum "Si O2"
_cell_formula_units_Z 36
_cell_length_a 12.233152
_cell_length_b 26.572986
_cell_length_c 5.262441
_cell_angle_alpha 90.000000
_cell_angle_beta 128.178037
_cell_angle_gamma 90.000000
_cell_volume 1344.746399
_symmetry_space_group_name_H-M "C 2/C"
_symmetry_group_IT_number 15
_symmetry_cell_setting 'monoclinic'
loop_
_space_group_symop_operation_xyz
x,y,z
-x,y,1/2-z
-x,-y,-z
x,-y,1/2+z
1/2+x,1/2+y,z
1/2-x,1/2+y,1/2-z
1/2-x,1/2-y,-z
1/2+x,1/2-y,1/2+z
loop_
_atom_site_type_symbol
_atom_site_label
_atom_site_fract_x
_atom_site_fract_y
_atom_site_fract_z
Si Si1 0.500000 0.033428 0.250000
Si Si2 0.163330 0.859052 0.267217
Si Si3 0.096755 0.751449 0.167324
Si Si4 0.316534 0.465776 0.206845
Si Si5 0.344365 0.841262 0.032016
O O1 0.500000 0.000000 0.500000
O O2 0.655953 0.055233 0.475145
O O3 0.063235 0.810461 0.095964
O O4 0.096698 0.914328 0.156367
O O5 0.265812 0.852365 0.175703
O O6 0.249266 0.855805 0.655375
O O7 0.250000 0.750000 0.500000
O O8 0.000000 0.728119 0.250000
O O9 0.125661 0.718411 0.958740
O O10 0.335563 0.501179 0.480098
O O11 0.500000 0.865332 0.250000
#
# Coordination Sequence:
#
# PCOD9270879 Si02
#       5
#     4   8   8   8   8
#     4   8  16  28  46  70 104 146 190 238 298 346
#     4  11  23  38  61  90 124 170 216 256 320 383
#     4  10  22  43  67  95 131 168 211 263 320 384
#     4  10  20  36  54  81 121 163 208 264 313 367
#     4  11  22  38  60  92 129 164 210 263 318 383
#
# _framework density 26.770842999999999
#
# number of rings (size 3 to 8) (size 9 to 14) (size 15 to 20)
#    0.000    1.778    0.000    5.333    3.111    1.778 
#    4.000    0.000    0.000    1.333    0.000    0.000 
#    0.000    0.000    0.000    0.000    0.000    0.000 
#
# Total GULP energy -100653.116104 kJ/mol
# GULP energy per Si atom -5591.839784 kJ/mol
# Density = 2.670991 g / cm^3
# Si number density = 26.770843 Si / 1000 Ang^3
#
#
#
# Elastic Constant Matrix: (Units=GPa)
#
#
# Indices 1 2 3 4 5 6 
#
# 1 157.1950 21.5254 46.1645 0.0000 -42.2337 0.0000
# 2 21.5254 207.3441 21.4292 0.0000 -41.1490 0.0000
# 3 46.1645 21.4292 129.2838 0.0000 -43.9410 0.0000
# 4 0.0000 0.0000 0.0000 28.2809 0.0000 -5.5995
# 5 -42.2337 -41.1490 -43.9410 0.0000 58.7574 0.0000
# 6 0.0000 0.0000 0.0000 -5.5995 0.0000 16.4317
#
#
#
# Elastic Compliance Matrix: (Units=1/GPa)
#
#
# Indices 1 2 3 4 5 6 
#
# 1 0.008040 0.000300 -0.001187 0.000000 0.005102 0.000000
# 2 0.000300 0.005641 0.000501 0.000000 0.004541 0.000000
# 3 -0.001187 0.000501 0.010599 0.000000 0.007424 0.000000
# 4 0.000000 0.000000 0.000000 0.037918 0.000000 0.012921
# 5 0.005102 0.004541 0.007424 0.000000 0.029419 0.000000
# 6 0.000000 0.000000 0.000000 0.012921 0.000000 0.065261
#
#
# Mechanical properties :
#
#
# Convention : Reuss Voigt Hill
#
# Bulk Modulus (GPa) = 42.53527 74.67347 58.60437
# Shear Modulus (GPa) = 30.21439 47.67425 38.94432
#
# Velocity S-wave (km/s) = 3.36315 4.22456 3.81823
# Velocity P-wave (km/s) = 5.56814 7.19375 6.43251
#
# Compressibility (1/GPa) = 0.02350990
#
# Stress axis : x y z
#
# Youngs Moduli (GPa) = 124.38533 177.26757 94.34891
#
# Poissons Ratio (x) = -0.05327 0.11195
# Poissons Ratio (y) = -0.03738 -0.04729
# Poissons Ratio (z) = 0.14759 -0.08885
#
# Static dielectric constant tensor:
#      x y z
#    x 2.202690 0.000000 0.393240 
#    y 0.000000 2.163800 0.000000 
#    z 0.393240 0.000000 2.935520 
# 
# From -- ./inp_files/8174.got.cif
#   From: 2010.05.17/outbox.cif.g08.bks.cpg/sg15_5_cif.got.tgz:8174.got - 2010.06.03 18:47:42.
