data_PCOD9270638
_publ_section_title
;
Structure prediction by ZEFSAII (Michael W. Deem and Ramdas Pophale) SiO2 
 PCOD9270638
Probable space group: C 2/C
;
_chemical_formula_sum "Si O2"
_cell_formula_units_Z 60
_cell_length_a 23.300130
_cell_length_b 14.540293
_cell_length_c 8.575014
_cell_angle_alpha 90.000000
_cell_angle_beta 72.379867
_cell_angle_gamma 90.000000
_cell_volume 2768.838868
_symmetry_space_group_name_H-M "C 2/C"
_symmetry_group_IT_number 15
_symmetry_cell_setting 'monoclinic'
loop_
_space_group_symop_operation_xyz
x,y,z
-x,y,1/2-z
-x,-y,-z
x,-y,1/2+z
1/2+x,1/2+y,z
1/2-x,1/2+y,1/2-z
1/2-x,1/2-y,-z
1/2+x,1/2-y,1/2+z
loop_
_atom_site_type_symbol
_atom_site_label
_atom_site_fract_x
_atom_site_fract_y
_atom_site_fract_z
Si Si1 0.882833 0.041820 0.786828
Si Si2 0.713249 0.231464 0.866577
Si Si3 0.524726 0.315195 0.406416
Si Si4 0.284401 0.120435 0.180482
Si Si5 0.000000 0.507450 0.750000
Si Si6 0.601479 0.365088 0.898789
Si Si7 0.748180 0.945853 0.451058
Si Si8 0.427342 0.116164 0.065161
O O1 0.929641 0.099014 0.642868
O O2 0.814147 0.074459 0.827758
O O3 0.883316 0.933470 0.753810
O O4 0.898936 0.068612 0.949723
O O5 0.757281 0.276956 0.702112
O O6 0.650341 0.285632 0.895635
O O7 0.704485 0.122095 0.889091
O O8 0.750000 0.250000 0.000000
O O9 0.500000 0.301543 0.250000
O O10 0.466140 0.329687 0.560183
O O11 0.556488 0.222669 0.432003
O O12 0.256074 0.077593 0.362961
O O13 0.355628 0.113319 0.133803
O O14 0.264780 0.052622 0.060648
O O15 0.044496 0.571023 0.612443
O O16 0.040870 0.442061 0.824168
#
# Coordination Sequence:
#
# PCOD9270638 Si02
#       8
#     8   8   8   8   4   8   8   8
#     4  11  20  41  60  92 125 163 204 260 311 369
#     4  10  20  35  61  89 121 163 205 244 301 373
#     4  10  23  37  66  91 118 168 217 250 308 375
#     4  11  22  37  63  90 121 163 204 254 311 357
#     4  10  24  40  64  84 126 162 202 262 316 352
#     4  11  22  40  64  89 126 163 207 258 309 373
#     4  11  21  37  63  90 125 162 205 255 306 370
#     4  11  22  42  61  92 122 163 211 258 305 375
#
# _framework density 21.669733999999998
#
# number of rings (size 3 to 8) (size 9 to 14) (size 15 to 20)
#    0.000    1.333    4.667    2.000    5.600    2.133 
#    2.400    0.667    0.000    0.000    0.000    0.000 
#    0.000    0.000    0.000    0.000    0.000    0.000 
#
# Total GULP energy -167501.901233 kJ/mol
# GULP energy per Si atom -5583.396708 kJ/mol
# Density = 2.162041 g / cm^3
# Si number density = 21.669734 Si / 1000 Ang^3
#
#
#
# Elastic Constant Matrix: (Units=GPa)
#
#
# Indices 1 2 3 4 5 6 
#
# 1 94.4586 0.7828 14.4009 0.0000 -38.0389 0.0000
# 2 0.7828 32.0224 -8.2672 0.0000 1.1583 0.0000
# 3 14.4009 -8.2672 33.8202 0.0000 -15.4955 0.0000
# 4 0.0000 0.0000 0.0000 45.8505 0.0000 21.1293
# 5 -38.0389 1.1583 -15.4955 0.0000 31.6236 0.0000
# 6 0.0000 0.0000 0.0000 21.1293 0.0000 56.3811
#
#
#
# Elastic Compliance Matrix: (Units=1/GPa)
#
#
# Indices 1 2 3 4 5 6 
#
# 1 0.020838 -0.000653 0.003175 0.000000 0.026646 0.000000
# 2 -0.000653 0.033668 0.009779 0.000000 0.002772 0.000000
# 3 0.003175 0.009779 0.041512 0.000000 0.023802 0.000000
# 4 0.000000 0.000000 0.000000 0.026363 0.000000 -0.009880
# 5 0.026646 0.002772 0.023802 0.000000 0.075234 0.000000
# 6 0.000000 0.000000 0.000000 -0.009880 0.000000 0.021439
#
#
# Mechanical properties :
#
#
# Convention : Reuss Voigt Hill
#
# Bulk Modulus (GPa) = 8.29052 19.34823 13.81937
# Shear Modulus (GPa) = 21.30742 36.99669 29.15205
#
# Velocity S-wave (km/s) = 3.13913 4.13643 3.67180
# Velocity P-wave (km/s) = 4.11983 5.63573 4.93632
#
# Compressibility (1/GPa) = 0.12061975
#
# Stress axis : x y z
#
# Youngs Moduli (GPa) = 47.98873 29.70152 24.08946
#
# Poissons Ratio (x) = 0.01941 -0.07650
# Poissons Ratio (y) = 0.03136 -0.23556
# Poissons Ratio (z) = -0.15239 -0.29044
#
# Static dielectric constant tensor:
#      x y z
#    x 1.798660 0.000000 -0.011990 
#    y 0.000000 1.824610 0.000000 
#    z -0.011990 0.000000 1.820400 
# 
# From -- ./inp_files/61874.got.cif
#   From: 2010.05.17/outbox.cif.g08.bks.cpg/sg15_31_cif.got.tgz:61874.got - 2010.06.03 18:47:42.
