data_PCOD9270928
_publ_section_title
;
Structure prediction by ZEFSAII (Michael W. Deem and Ramdas Pophale) SiO2 
 PCOD9270928
Probable space group: C 2/C
;
_chemical_formula_sum "Si O2"
_cell_formula_units_Z 56
_cell_length_a 18.803699
_cell_length_b 14.066762
_cell_length_c 17.839891
_cell_angle_alpha 90.000000
_cell_angle_beta 40.030746
_cell_angle_gamma 90.000000
_cell_volume 3035.111925
_symmetry_space_group_name_H-M "C 2/C"
_symmetry_group_IT_number 15
_symmetry_cell_setting 'monoclinic'
loop_
_space_group_symop_operation_xyz
x,y,z
-x,y,1/2-z
-x,-y,-z
x,-y,1/2+z
1/2+x,1/2+y,z
1/2-x,1/2+y,1/2-z
1/2-x,1/2-y,-z
1/2+x,1/2-y,1/2+z
loop_
_atom_site_type_symbol
_atom_site_label
_atom_site_fract_x
_atom_site_fract_y
_atom_site_fract_z
Si Si1 0.827859 0.161377 0.725534
Si Si2 0.789993 0.512425 0.093238
Si Si3 0.384717 0.491300 0.387540
Si Si4 0.884436 0.026976 0.555031
Si Si5 0.707912 0.121981 0.254346
Si Si6 0.444722 0.293859 0.375042
Si Si7 0.976714 0.413572 0.857397
O O1 0.762192 0.083110 0.826796
O O2 0.836316 0.118399 0.635891
O O3 0.774987 0.265433 0.768470
O O4 0.954184 0.171241 0.654098
O O5 0.705208 0.535104 0.094733
O O6 0.797950 0.587869 0.154313
O O7 0.905223 0.490917 0.959236
O O8 0.500000 0.489370 0.250000
O O9 0.396705 0.542146 0.457104
O O10 0.360583 0.380446 0.429895
O O11 0.802949 0.939681 0.638858
O O12 0.000000 0.000000 0.500000
O O13 0.593498 0.099068 0.304477
O O14 0.500000 0.278545 0.250000
O O15 0.410975 0.187067 0.422202
O O16 0.000000 0.432034 0.750000
#
# Coordination Sequence:
#
# PCOD9270928 Si02
#       7
#     8   8   8   8   8   8   8
#     4  10  20  36  55  83 115 146 188 238 289 336
#     4  11  21  35  58  78 109 160 183 232 294 345
#     4  11  19  34  55  86 117 139 189 247 291 338
#     4  11  21  36  61  87 112 151 196 242 293 339
#     4  10  23  38  53  83 116 147 191 237 285 350
#     4   9  16  31  50  82 116 136 177 239 288 341
#     4  10  21  35  52  81 113 148 187 226 291 352
#
# _framework density 18.450718999999999
#
# number of rings (size 3 to 8) (size 9 to 14) (size 15 to 20)
#    0.000    1.714    4.286    2.143    2.000    0.571 
#    0.000    0.714    0.000    0.857    0.000    0.000 
#    0.000    0.000    0.000    0.000    0.000    0.000 
#
# Total GULP energy -156162.253361 kJ/mol
# GULP energy per Si atom -5577.223334 kJ/mol
# Density = 1.840872 g / cm^3
# Si number density = 18.450719 Si / 1000 Ang^3
#
#
#
# Elastic Constant Matrix: (Units=GPa)
#
#
# Indices 1 2 3 4 5 6 
#
# 1 123.5846 23.7183 33.0793 0.0000 24.1843 0.0000
# 2 23.7183 38.4771 3.9433 0.0000 7.8180 0.0000
# 3 33.0793 3.9433 68.5080 0.0000 20.5359 0.0000
# 4 0.0000 0.0000 0.0000 22.4853 0.0000 -0.3320
# 5 24.1843 7.8180 20.5359 0.0000 36.6634 0.0000
# 6 0.0000 0.0000 0.0000 -0.3320 0.0000 22.3298
#
#
#
# Elastic Compliance Matrix: (Units=1/GPa)
#
#
# Indices 1 2 3 4 5 6 
#
# 1 0.010938 -0.005560 -0.003790 0.000000 -0.003906 0.000000
# 2 -0.005560 0.029995 0.002134 0.000000 -0.003924 0.000000
# 3 -0.003790 0.002134 0.018857 0.000000 -0.008517 0.000000
# 4 0.000000 0.000000 0.000000 0.044483 0.000000 0.000661
# 5 -0.003906 -0.003924 -0.008517 0.000000 0.035459 0.000000
# 6 0.000000 0.000000 0.000000 0.000661 0.000000 0.044793
#
#
# Mechanical properties :
#
#
# Convention : Reuss Voigt Hill
#
# Bulk Modulus (GPa) = 22.04665 39.11684 30.58174
# Shear Modulus (GPa) = 23.35604 27.61763 25.48684
#
# Velocity S-wave (km/s) = 3.56175 3.87309 3.72068
# Velocity P-wave (km/s) = 5.37491 6.42245 5.92189
#
# Compressibility (1/GPa) = 0.04535836
#
# Stress axis : x y z
#
# Youngs Moduli (GPa) = 91.42731 33.33835 53.02996
#
# Poissons Ratio (x) = 0.18537 0.20100
# Poissons Ratio (y) = 0.50835 -0.11319
# Poissons Ratio (z) = 0.34654 -0.07116
#
# Static dielectric constant tensor:
#      x y z
#    x 1.653330 0.000000 0.000590 
#    y 0.000000 1.668760 0.000000 
#    z 0.000590 0.000000 1.639370 
# 
# From -- ./inp_files/105283.got.cif
#   From: 2010.05.17/outbox.cif.g08.bks.cpg/sg15_53_cif.got.tgz:105283.got - 2010.06.03 18:47:42.
