data_PCOD9270209
_publ_section_title
;
Structure prediction by ZEFSAII (Michael W. Deem and Ramdas Pophale) SiO2 
 PCOD9270209
Probable space group: C 2/C
;
_chemical_formula_sum "Si O2"
_cell_formula_units_Z 56
_cell_length_a 23.865271
_cell_length_b 20.609995
_cell_length_c 5.370224
_cell_angle_alpha 90.000000
_cell_angle_beta 125.964170
_cell_angle_gamma 90.000000
_cell_volume 2137.920207
_symmetry_space_group_name_H-M "C 2/C"
_symmetry_group_IT_number 15
_symmetry_cell_setting 'monoclinic'
loop_
_space_group_symop_operation_xyz
x,y,z
-x,y,1/2-z
-x,-y,-z
x,-y,1/2+z
1/2+x,1/2+y,z
1/2-x,1/2+y,1/2-z
1/2-x,1/2-y,-z
1/2+x,1/2-y,1/2+z
loop_
_atom_site_type_symbol
_atom_site_label
_atom_site_fract_x
_atom_site_fract_y
_atom_site_fract_z
Si Si1 0.000000 0.043243 0.750000
Si Si2 0.629701 0.637125 0.130727
Si Si3 0.878435 0.460011 0.973559
Si Si4 0.149691 0.276127 0.095187
Si Si5 0.339487 0.277738 0.388159
Si Si6 0.544768 0.129643 0.158203
Si Si7 0.216041 0.042176 0.054980
Si Si8 0.500000 0.247164 0.750000
O O1 0.934207 0.089117 0.531120
O O2 0.000000 0.000000 0.500000
O O3 0.673100 0.653612 0.497875
O O4 0.676615 0.607300 0.034400
O O5 0.604222 0.709672 0.003106
O O6 0.890630 0.507547 0.770099
O O7 0.929589 0.402741 0.029951
O O8 0.797545 0.443159 0.759361
O O9 0.185508 0.255304 0.932428
O O10 0.115707 0.345348 0.968694
O O11 0.182444 0.273313 0.452307
O O12 0.424918 0.280347 0.577924
O O13 0.500000 0.093791 0.250000
O O14 0.506809 0.196698 0.995232
O O15 0.199912 0.993721 0.250245
#
# Coordination Sequence:
#
# PCOD9270209 Si02
#       8
#     4   8   8   8   8   8   8   4
#     4  12  28  35  50  86 119 150 196 252 294 334
#     4  10  23  37  62  81 121 154 200 246 299 348
#     4  10  25  44  63  89 118 157 202 249 298 352
#     4   9  21  34  55  90 113 153 190 235 290 357
#     4   9  20  31  55  81 118 145 198 219 287 352
#     4  11  21  38  63  90 126 156 196 239 300 370
#     4  10  22  42  65  81 112 163 210 246 295 358
#     4  10  20  35  56  90 127 160 186 230 304 370
#
# _framework density 26.193681000000002
#
# number of rings (size 3 to 8) (size 9 to 14) (size 15 to 20)
#    0.857    1.143    1.429    0.857   11.000    0.571 
#    0.000    0.714    0.000    3.429    0.000    0.000 
#    0.000    0.000    0.000    0.000    0.000    0.000 
#
# Total GULP energy -156078.203141 kJ/mol
# GULP energy per Si atom -5574.221541 kJ/mol
# Density = 2.613406 g / cm^3
# Si number density = 26.193681 Si / 1000 Ang^3
#
#
#
# Elastic Constant Matrix: (Units=GPa)
#
#
# Indices 1 2 3 4 5 6 
#
# 1 120.0370 28.0111 25.3136 0.0000 -40.6682 0.0000
# 2 28.0111 57.5752 -2.5901 0.0000 -10.6490 0.0000
# 3 25.3136 -2.5901 137.5546 0.0000 -49.9826 0.0000
# 4 0.0000 0.0000 0.0000 26.8390 0.0000 -21.2694
# 5 -40.6682 -10.6490 -49.9826 0.0000 44.6983 0.0000
# 6 0.0000 0.0000 0.0000 -21.2694 0.0000 -0.5792
#
#
#
# Elastic Compliance Matrix: (Units=1/GPa)
#
#
# Indices 1 2 3 4 5 6 
#
# 1 0.013529 -0.003802 0.002665 0.000000 0.014384 0.000000
# 2 -0.003802 0.020129 0.002635 0.000000 0.004283 0.000000
# 3 0.002665 0.002635 0.013371 0.000000 0.018005 0.000000
# 4 0.000000 0.000000 0.000000 0.001238 0.000000 -0.045454
# 5 0.014384 0.004283 0.018005 0.000000 0.056613 0.000000
# 6 0.000000 0.000000 0.000000 -0.045454 0.000000 -0.057356
#
#
# Mechanical properties :
#
#
# Convention : Reuss Voigt Hill
#
# Bulk Modulus (GPa) = 19.98944 46.29287 33.14115
# Shear Modulus (GPa) = 81.69671 31.82045 56.75858
#
# Velocity S-wave (km/s) = 5.59081 3.48920 4.66003
# Velocity P-wave (km/s) = 7.02312 5.82618 6.45246
#
# Compressibility (1/GPa) = 0.05002642
#
# Stress axis : x y z
#
# Youngs Moduli (GPa) = 73.91485 49.67985 74.78703
#
# Poissons Ratio (x) = 0.18887 -0.19933
# Poissons Ratio (y) = 0.28100 -0.19706
# Poissons Ratio (z) = -0.19701 -0.13090
#
# Static dielectric constant tensor:
#      x y z
#    x 2.049480 0.000000 -0.011610 
#    y 0.000000 2.075240 0.000000 
#    z -0.011610 0.000000 2.269820 
# 
# From -- ./inp_files/15719.got.cif
#   From: 2010.05.17/outbox.cif.g08.bks.cpg/sg15_8_cif.got.tgz:15719.got - 2010.06.03 18:47:42.
