data_PCOD9270527
_publ_section_title
;
Structure prediction by ZEFSAII (Michael W. Deem and Ramdas Pophale) SiO2 
 PCOD9270527
Probable space group: C 2/C
;
_chemical_formula_sum "Si O2"
_cell_formula_units_Z 32
_cell_length_a 16.969045
_cell_length_b 15.128279
_cell_length_c 12.962997
_cell_angle_alpha 90.000000
_cell_angle_beta 158.180880
_cell_angle_gamma 90.000000
_cell_volume 1236.855037
_symmetry_space_group_name_H-M "C 2/C"
_symmetry_group_IT_number 15
_symmetry_cell_setting 'monoclinic'
loop_
_space_group_symop_operation_xyz
x,y,z
-x,y,1/2-z
-x,-y,-z
x,-y,1/2+z
1/2+x,1/2+y,z
1/2-x,1/2+y,1/2-z
1/2-x,1/2-y,-z
1/2+x,1/2-y,1/2+z
loop_
_atom_site_type_symbol
_atom_site_label
_atom_site_fract_x
_atom_site_fract_y
_atom_site_fract_z
Si Si1 0.053666 0.924276 0.978856
Si Si2 0.497485 0.682561 0.596256
Si Si3 0.852654 0.564552 0.657745
Si Si4 0.139214 0.628886 0.300819
O O1 0.866002 0.939792 0.670468
O O2 0.027518 0.835576 0.013430
O O3 0.268784 0.913622 0.171758
O O4 0.000000 0.000000 0.000000
O O5 0.285227 0.634668 0.376976
O O6 0.491907 0.785744 0.617578
O O7 0.689809 0.644549 0.899484
O O8 0.955256 0.467521 0.800473
O O9 0.000000 0.612533 0.750000
#
# Coordination Sequence:
#
# PCOD9270527 Si02
#       4
#     8   8   8   8
#     4  11  20  42  63  90 135 174 209 268 334 378
#     4  10  20  36  59  92 133 165 198 265 335 380
#     4  11  24  39  64  95 128 171 224 263 313 399
#     4  10  20  35  59  96 129 159 206 268 322 382
#
# _framework density 25.872070000000001
#
# number of rings (size 3 to 8) (size 9 to 14) (size 15 to 20)
#    0.000    1.500    5.000    1.500    7.000    1.000 
#    4.500    0.000    0.000    6.000    0.000    0.000 
#    0.000    0.000    0.000    0.000    0.000    0.000 
#
# Total GULP energy -89344.084206 kJ/mol
# GULP energy per Si atom -5584.005263 kJ/mol
# Density = 2.581318 g / cm^3
# Si number density = 25.872070 Si / 1000 Ang^3
#
#
#
# Elastic Constant Matrix: (Units=GPa)
#
#
# Indices 1 2 3 4 5 6 
#
# 1 269.3102 16.6492 26.9651 0.0000 30.4134 0.0000
# 2 16.6492 31.8693 -2.2059 0.0000 0.8049 0.0000
# 3 26.9651 -2.2059 49.4220 0.0000 -1.2842 0.0000
# 4 0.0000 0.0000 0.0000 12.7180 0.0000 6.9554
# 5 30.4134 0.8049 -1.2842 0.0000 46.9921 0.0000
# 6 0.0000 0.0000 0.0000 6.9554 0.0000 28.4132
#
#
#
# Elastic Compliance Matrix: (Units=1/GPa)
#
#
# Indices 1 2 3 4 5 6 
#
# 1 0.004454 -0.002434 -0.002615 0.000000 -0.002913 0.000000
# 2 -0.002434 0.032818 0.002821 0.000000 0.001091 0.000000
# 3 -0.002615 0.002821 0.021845 0.000000 0.002241 0.000000
# 4 0.000000 0.000000 0.000000 0.090783 0.000000 -0.022223
# 5 -0.002913 0.001091 0.002241 0.000000 0.023208 0.000000
# 6 0.000000 0.000000 0.000000 -0.022223 0.000000 0.040635
#
#
# Mechanical properties :
#
#
# Convention : Reuss Voigt Hill
#
# Bulk Modulus (GPa) = 18.29451 48.15759 33.22605
# Shear Modulus (GPa) = 21.14892 38.23753 29.69322
#
# Velocity S-wave (km/s) = 2.86220 3.84858 3.39144
# Velocity P-wave (km/s) = 4.24375 6.19701 5.31094
#
# Compressibility (1/GPa) = 0.05466119
#
# Stress axis : x y z
#
# Youngs Moduli (GPa) = 224.49569 30.47134 45.77772
#
# Poissons Ratio (x) = 0.07418 0.11970
# Poissons Ratio (y) = 0.54653 -0.12916
# Poissons Ratio (z) = 0.58699 -0.08597
#
# Static dielectric constant tensor:
#      x y z
#    x 2.159320 0.000000 0.064270 
#    y 0.000000 2.081390 0.000000 
#    z 0.064270 0.000000 2.035140 
# 
# From -- ./inp_files/98581.got.cif
#   From: 2010.05.17/outbox.cif.g08.bks.cpg/sg15_50_cif.got.tgz:98581.got - 2010.06.03 18:47:42.
