data_PCOD9270768
_publ_section_title
;
Structure prediction by ZEFSAII (Michael W. Deem and Ramdas Pophale) SiO2 
 PCOD9270768
Probable space group: C 2/C
;
_chemical_formula_sum "Si O2"
_cell_formula_units_Z 44
_cell_length_a 26.694374
_cell_length_b 9.980656
_cell_length_c 8.266544
_cell_angle_alpha 90.000000
_cell_angle_beta 134.655510
_cell_angle_gamma 90.000000
_cell_volume 1566.691054
_symmetry_space_group_name_H-M "C 2/C"
_symmetry_group_IT_number 15
_symmetry_cell_setting 'monoclinic'
loop_
_space_group_symop_operation_xyz
x,y,z
-x,y,1/2-z
-x,-y,-z
x,-y,1/2+z
1/2+x,1/2+y,z
1/2-x,1/2+y,1/2-z
1/2-x,1/2-y,-z
1/2+x,1/2-y,1/2+z
loop_
_atom_site_type_symbol
_atom_site_label
_atom_site_fract_x
_atom_site_fract_y
_atom_site_fract_z
Si Si1 0.097872 0.872115 0.247304
Si Si2 0.594465 0.880931 0.240213
Si Si3 0.314314 0.627444 0.073856
Si Si4 0.000000 0.795627 0.750000
Si Si5 0.723299 0.022797 0.165230
Si Si6 0.500000 0.805551 0.750000
Si Si7 0.750000 0.750000 0.000000
O O1 0.167218 0.793624 0.346185
O O2 0.057420 0.791469 0.295830
O O3 0.125900 0.021959 0.343419
O O4 0.041232 0.880190 0.975473
O O5 0.653058 0.770733 0.322478
O O6 0.554267 0.803756 0.288299
O O7 0.644304 0.995978 0.421802
O O8 0.539527 0.896689 0.971683
O O9 0.257811 0.618222 0.798163
O O10 0.276388 0.578366 0.150089
O O11 0.724527 0.121970 0.320188
#
# Coordination Sequence:
#
# PCOD9270768 Si02
#       7
#     8   8   8   4   8   4   4
#     4  10  21  39  63 103 140 184 227 286 350 423
#     4  11  22  42  64 102 137 186 229 283 348 430
#     4  11  24  40  67 106 141 180 230 289 355 414
#     4  10  20  35  64  93 134 188 220 285 360 419
#     4  11  24  42  67 100 140 181 233 291 346 413
#     4  10  24  41  70 105 146 190 226 287 362 431
#     4  10  20  40  66  92 134 182 230 282 334 404
#
# _framework density 28.084668000000001
#
# number of rings (size 3 to 8) (size 9 to 14) (size 15 to 20)
#    0.000    1.455    1.818    3.818    2.545    4.364 
#    0.000    0.000    0.000    3.273    0.000    0.000 
#    0.000    0.000    0.000    0.000    0.000    0.000 
#
# Total GULP energy -123143.123457 kJ/mol
# GULP energy per Si atom -5597.414703 kJ/mol
# Density = 2.802075 g / cm^3
# Si number density = 28.084668 Si / 1000 Ang^3
#
#
#
# Elastic Constant Matrix: (Units=GPa)
#
#
# Indices 1 2 3 4 5 6 
#
# 1 145.8463 18.3077 -2.1009 0.0000 21.8240 0.0000
# 2 18.3077 101.9000 26.3575 0.0000 9.1084 0.0000
# 3 -2.1009 26.3575 203.4677 0.0000 23.5254 0.0000
# 4 0.0000 0.0000 0.0000 -5.7814 0.0000 -2.9772
# 5 21.8240 9.1084 23.5254 0.0000 30.8745 0.0000
# 6 0.0000 0.0000 0.0000 -2.9772 0.0000 52.3596
#
#
#
# Elastic Compliance Matrix: (Units=1/GPa)
#
#
# Indices 1 2 3 4 5 6 
#
# 1 0.007901 -0.001124 0.000915 0.000000 -0.005951 0.000000
# 2 -0.001124 0.010450 -0.001207 0.000000 -0.001368 0.000000
# 3 0.000915 -0.001207 0.005608 0.000000 -0.004564 0.000000
# 4 0.000000 0.000000 0.000000 -0.168047 0.000000 -0.009555
# 5 -0.005951 -0.001368 -0.004564 0.000000 0.040477 0.000000
# 6 0.000000 0.000000 0.000000 -0.009555 0.000000 0.018555
#
#
# Mechanical properties :
#
#
# Convention : Reuss Voigt Hill
#
# Bulk Modulus (GPa) = 47.33213 59.59362 53.46288
# Shear Modulus (GPa) = -66.50738 42.73385 -11.88677
#
# Velocity S-wave (km/s) = -4.87159 3.90501 -2.05953
# Velocity P-wave (km/s) = 3.84100 6.44961 3.66362
#
# Compressibility (1/GPa) = 0.02112730
#
# Stress axis : x y z
#
# Youngs Moduli (GPa) = 126.56093 95.69288 178.30607
#
# Poissons Ratio (x) = 0.10760 -0.16320
# Poissons Ratio (y) = 0.14231 0.21524
# Poissons Ratio (z) = -0.11584 0.11551
#
# Static dielectric constant tensor:
#      x y z
#    x 1.457310 0.000000 0.417710 
#    y 0.000000 2.328980 0.000000 
#    z 0.417710 0.000000 1.927670 
# 
# From -- ./inp_files/66358.got.cif
#   From: 2010.05.17/outbox.cif.g08.bks.cpg/sg15_34_cif.got.tgz:66358.got - 2010.06.03 18:47:42.
