data_PCOD9270269
_publ_section_title
;
Structure prediction by ZEFSAII (Michael W. Deem and Ramdas Pophale) SiO2 
 PCOD9270269
Probable space group: C 2/C
;
_chemical_formula_sum "Si O2"
_cell_formula_units_Z 64
_cell_length_a 13.102300
_cell_length_b 28.601899
_cell_length_c 8.283176
_cell_angle_alpha 90.000000
_cell_angle_beta 89.696920
_cell_angle_gamma 90.000000
_cell_volume 3104.082255
_symmetry_space_group_name_H-M "C 2/C"
_symmetry_group_IT_number 15
_symmetry_cell_setting 'monoclinic'
loop_
_space_group_symop_operation_xyz
x,y,z
-x,y,1/2-z
-x,-y,-z
x,-y,1/2+z
1/2+x,1/2+y,z
1/2-x,1/2+y,1/2-z
1/2-x,1/2-y,-z
1/2+x,1/2-y,1/2+z
loop_
_atom_site_type_symbol
_atom_site_label
_atom_site_fract_x
_atom_site_fract_y
_atom_site_fract_z
Si Si1 0.280421 0.698650 0.941294
Si Si2 0.698051 0.855906 0.705152
Si Si3 0.506778 0.310259 0.432277
Si Si4 0.116202 0.449873 0.738222
Si Si5 0.829097 0.746187 0.140215
Si Si6 0.904451 0.888726 0.864041
Si Si7 0.391382 0.538857 0.660270
Si Si8 0.248651 0.021209 0.554731
O O1 0.394084 0.689387 0.004327
O O2 0.296998 0.709727 0.754205
O O3 0.250000 0.750000 0.000000
O O4 0.209932 0.658612 0.016183
O O5 0.617001 0.894085 0.761549
O O6 0.680120 0.805138 0.784545
O O7 0.802550 0.881257 0.761957
O O8 0.500000 0.330977 0.250000
O O9 0.555871 0.259122 0.412213
O O10 0.575023 0.339217 0.551876
O O11 0.190490 0.478019 0.860548
O O12 0.167451 0.455683 0.561149
O O13 0.000000 0.467707 0.750000
O O14 0.750000 0.750000 0.000000
O O15 0.000000 0.901748 0.750000
O O16 0.898246 0.923626 0.016361
O O17 0.500000 0.531956 0.750000
O O18 0.307178 0.549283 0.800595
O O19 0.343042 0.494888 0.564235
#
# Coordination Sequence:
#
# PCOD9270269 Si02
#       8
#     8   8   8   8   8   8   8   8
#     4   9  20  36  56  83 120 160 205 257 317 383
#     4  11  22  39  60  92 126 164 214 273 325 381
#     4  10  20  35  57  85 115 164 210 252 320 389
#     4  11  24  45  72  94 126 168 224 278 333 390
#     4  10  20  36  59  85 122 165 213 267 312 377
#     4  12  23  36  61  92 132 169 217 261 326 402
#     4  11  24  40  65  99 137 169 208 265 331 406
#     4  10  24  45  67  97 128 172 215 267 337 408
#
# _framework density 20.618009000000001
#
# number of rings (size 3 to 8) (size 9 to 14) (size 15 to 20)
#    0.000    1.500    3.750    1.125    1.750    5.000 
#    0.000    0.000    0.000    0.000    0.000    0.000 
#    0.000    0.000    0.000    0.000    0.000    0.000 
#
# Total GULP energy -178302.570003 kJ/mol
# GULP energy per Si atom -5571.955313 kJ/mol
# Density = 2.057108 g / cm^3
# Si number density = 20.618009 Si / 1000 Ang^3
#
#
#
# Elastic Constant Matrix: (Units=GPa)
#
#
# Indices 1 2 3 4 5 6 
#
# 1 85.8735 16.8541 26.5492 0.0000 -3.4320 0.0000
# 2 16.8541 62.5432 24.0170 0.0000 -1.0861 0.0000
# 3 26.5492 24.0170 85.6575 0.0000 -6.7101 0.0000
# 4 0.0000 0.0000 0.0000 28.0125 0.0000 -4.4932
# 5 -3.4320 -1.0861 -6.7101 0.0000 31.7998 0.0000
# 6 0.0000 0.0000 0.0000 -4.4932 0.0000 24.2775
#
#
#
# Elastic Compliance Matrix: (Units=1/GPa)
#
#
# Indices 1 2 3 4 5 6 
#
# 1 0.013160 -0.002228 -0.003405 0.000000 0.000626 0.000000
# 2 -0.002228 0.018302 -0.004485 0.000000 -0.000562 0.000000
# 3 -0.003405 -0.004485 0.014181 0.000000 0.002472 0.000000
# 4 0.000000 0.000000 0.000000 0.036791 0.000000 0.006809
# 5 0.000626 -0.000562 0.002472 0.000000 0.032017 0.000000
# 6 0.000000 0.000000 0.000000 0.006809 0.000000 0.042451
#
#
# Mechanical properties :
#
#
# Convention : Reuss Voigt Hill
#
# Bulk Modulus (GPa) = 39.35980 40.99053 40.17517
# Shear Modulus (GPa) = 26.93880 27.92822 27.43351
#
# Velocity S-wave (km/s) = 3.61857 3.68442 3.65164
# Velocity P-wave (km/s) = 6.04898 6.16636 6.10795
#
# Compressibility (1/GPa) = 0.02540663
#
# Stress axis : x y z
#
# Youngs Moduli (GPa) = 75.98737 54.63929 70.51693
#
# Poissons Ratio (x) = 0.12173 0.24013
# Poissons Ratio (y) = 0.16929 0.31627
# Poissons Ratio (z) = 0.25875 0.24506
#
# Static dielectric constant tensor:
#      x y z
#    x 1.784720 0.000000 -0.036860 
#    y 0.000000 1.846680 0.000000 
#    z -0.036860 0.000000 1.765540 
# 
# From -- ./inp_files/35667.got.cif
#   From: 2010.05.17/outbox.cif.g08.bks.cpg/sg15_18_cif.got.tgz:35667.got - 2010.06.03 18:47:42.
