data_PCOD9270397
_publ_section_title
;
Structure prediction by ZEFSAII (Michael W. Deem and Ramdas Pophale) SiO2 
 PCOD9270397
Probable space group: C 2/C
;
_chemical_formula_sum "Si O2"
_cell_formula_units_Z 64
_cell_length_a 17.612995
_cell_length_b 16.152695
_cell_length_c 24.409252
_cell_angle_alpha 90.000000
_cell_angle_beta 28.340294
_cell_angle_gamma 90.000000
_cell_volume 3296.541784
_symmetry_space_group_name_H-M "C 2/C"
_symmetry_group_IT_number 15
_symmetry_cell_setting 'monoclinic'
loop_
_space_group_symop_operation_xyz
x,y,z
-x,y,1/2-z
-x,-y,-z
x,-y,1/2+z
1/2+x,1/2+y,z
1/2-x,1/2+y,1/2-z
1/2-x,1/2-y,-z
1/2+x,1/2-y,1/2+z
loop_
_atom_site_type_symbol
_atom_site_label
_atom_site_fract_x
_atom_site_fract_y
_atom_site_fract_z
Si Si1 0.097521 0.256561 0.326559
Si Si2 0.777470 0.493743 0.635274
Si Si3 0.379160 0.085037 0.958594
Si Si4 0.127988 0.841877 0.216501
Si Si5 0.692182 0.678824 0.376585
Si Si6 0.480304 0.389228 0.825064
Si Si7 0.829242 0.521045 0.226954
Si Si8 0.096073 0.865729 0.364111
O O1 0.097517 0.228147 0.389316
O O2 0.272374 0.295398 0.204480
O O3 0.967862 0.327685 0.399214
O O4 0.055398 0.178484 0.316699
O O5 0.847777 0.439679 0.541763
O O6 0.772812 0.590700 0.623125
O O7 0.590029 0.470017 0.758410
O O8 0.849836 0.470328 0.647951
O O9 0.505925 0.018410 0.855665
O O10 0.203097 0.090928 0.045074
O O11 0.192505 0.748204 0.170817
O O12 0.065840 0.853857 0.318362
O O13 0.000000 0.858364 0.250000
O O14 0.782155 0.604158 0.288095
O O15 0.565691 0.643482 0.499801
O O16 0.500000 0.358672 0.750000
O O17 0.687736 0.451978 0.318987
#
# Coordination Sequence:
#
# PCOD9270397 Si02
#       8
#     8   8   8   8   8   8   8   8
#     4  10  21  37  56  90 120 153 205 247 306 375
#     4  10  20  38  61  88 117 159 200 255 309 360
#     4  10  21  34  59  87 122 152 205 258 304 359
#     4  10  22  40  60  91 121 148 205 260 305 359
#     4  11  22  37  64  85 119 167 203 248 308 368
#     4  10  20  35  58  87 122 161 194 252 317 362
#     4  10  20  39  59  84 119 160 208 246 297 372
#     4   9  22  38  60  87 117 159 203 248 300 375
#
# _framework density 19.414283999999999
#
# number of rings (size 3 to 8) (size 9 to 14) (size 15 to 20)
#    0.000    2.000    1.250    3.000    3.500    2.500 
#    0.000    2.500    0.000    0.000    0.000    0.000 
#    0.000    0.000    0.000    0.000    0.000    0.000 
#
# Total GULP energy -178545.971525 kJ/mol
# GULP energy per Si atom -5579.561610 kJ/mol
# Density = 1.937010 g / cm^3
# Si number density = 19.414284 Si / 1000 Ang^3
#
#
#
# Elastic Constant Matrix: (Units=GPa)
#
#
# Indices 1 2 3 4 5 6 
#
# 1 69.3218 17.8664 17.5600 -0.0014 -15.3725 0.0012
# 2 17.8664 97.1382 31.5570 0.0174 -6.8890 0.0024
# 3 17.5600 31.5570 53.6804 0.0091 -17.5148 0.0014
# 4 -0.0014 0.0174 0.0091 6.3631 0.0017 -3.2304
# 5 -15.3725 -6.8890 -17.5148 0.0017 18.2750 -0.0016
# 6 0.0012 0.0024 0.0014 -3.2304 -0.0016 30.5643
#
#
#
# Elastic Compliance Matrix: (Units=1/GPa)
#
#
# Indices 1 2 3 4 5 6 
#
# 1 0.018233 -0.002385 0.000216 0.000007 0.014645 0.000001
# 2 -0.002385 0.013188 -0.008738 -0.000024 -0.005409 -0.000003
# 3 0.000216 -0.008738 0.032998 -0.000032 0.028513 -0.000003
# 4 0.000007 -0.000024 -0.000032 0.166067 -0.000048 0.017552
# 5 0.014645 -0.005409 0.028513 -0.000048 0.092327 -0.000002
# 6 0.000001 -0.000003 -0.000003 0.017552 -0.000002 0.034573
#
#
# Mechanical properties :
#
#
# Convention : Reuss Voigt Hill
#
# Bulk Modulus (GPa) = 23.47074 39.34523 31.40799
# Shear Modulus (GPa) = 12.70964 21.25094 16.98029
#
# Velocity S-wave (km/s) = 2.56140 3.31207 2.96062
# Velocity P-wave (km/s) = 4.56764 5.91071 5.28204
#
# Compressibility (1/GPa) = 0.04260624
#
# Stress axis : x y z
#
# Youngs Moduli (GPa) = 54.84526 75.82512 30.30498
#
# Poissons Ratio (x) = 0.18086 -0.00655
# Poissons Ratio (y) = 0.13081 0.26479
# Poissons Ratio (z) = -0.01186 0.66252
#
# Static dielectric constant tensor:
#      x y z
#    x 1.686280 0.000000 -0.022020 
#    y 0.000000 1.692690 0.000000 
#    z -0.022020 0.000000 1.685420 
# 
# From -- ./inp_files/277627.got.cif
#   From: 2010.05.17/outbox.cif.g08.bks.cpg/sg15_139_cif.got.tgz:277627.got - 2010.06.03 18:47:42.
