data_PCOD9270248
_publ_section_title
;
Structure prediction by ZEFSAII (Michael W. Deem and Ramdas Pophale) SiO2 
 PCOD9270248
Probable space group: C 2/C
;
_chemical_formula_sum "Si O2"
_cell_formula_units_Z 56
_cell_length_a 7.625904
_cell_length_b 26.306675
_cell_length_c 14.802728
_cell_angle_alpha 90.000000
_cell_angle_beta 120.961431
_cell_angle_gamma 90.000000
_cell_volume 2546.479439
_symmetry_space_group_name_H-M "C 2/C"
_symmetry_group_IT_number 15
_symmetry_cell_setting 'monoclinic'
loop_
_space_group_symop_operation_xyz
x,y,z
-x,y,1/2-z
-x,-y,-z
x,-y,1/2+z
1/2+x,1/2+y,z
1/2-x,1/2+y,1/2-z
1/2-x,1/2-y,-z
1/2+x,1/2-y,1/2+z
loop_
_atom_site_type_symbol
_atom_site_label
_atom_site_fract_x
_atom_site_fract_y
_atom_site_fract_z
Si Si1 0.698704 0.187923 0.101309
Si Si2 0.754038 0.679207 0.891011
Si Si3 0.314312 0.421019 0.044758
Si Si4 0.672395 0.622086 0.521205
Si Si5 0.280405 0.973338 0.931418
Si Si6 0.693929 0.297192 0.169917
Si Si7 0.095360 0.406632 0.677680
O O1 0.759010 0.244221 0.143899
O O2 0.685954 0.149133 0.182580
O O3 0.469855 0.188480 0.996964
O O4 0.843721 0.162228 0.064853
O O5 0.700223 0.618857 0.877002
O O6 0.556618 0.702388 0.890461
O O7 0.761290 0.698356 0.791023
O O8 0.469721 0.399890 0.011903
O O9 0.363570 0.478772 0.084272
O O10 0.096906 0.413797 0.939330
O O11 0.773777 0.572951 0.501295
O O12 0.766514 0.655378 0.627897
O O13 0.254245 0.948923 0.824959
O O14 0.500000 0.000000 0.000000
O O15 0.000000 0.413941 0.750000
#
# Coordination Sequence:
#
# PCOD9270248 Si02
#       7
#     8   8   8   8   8   8   8
#     4  10  20  36  57  81 121 151 190 238 286 343
#     4   9  20  36  57  85 109 153 193 239 284 343
#     4   9  18  37  59  81 118 146 185 238 289 337
#     4  10  20  35  57  83 115 150 186 236 287 342
#     4   9  18  36  58  81 110 148 188 234 293 337
#     4  10  20  36  57  85 115 147 201 234 288 343
#     4   9  19  35  58  86 110 148 194 229 280 349
#
# _framework density 21.991144999999999
#
# number of rings (size 3 to 8) (size 9 to 14) (size 15 to 20)
#    0.000    2.571    0.000    2.143    2.000    0.571 
#    5.143    2.857    3.143    0.000    0.000    0.000 
#    0.000    0.000    0.000    0.000    0.000    0.000 
#
# Total GULP energy -156140.770729 kJ/mol
# GULP energy per Si atom -5576.456097 kJ/mol
# Density = 2.194109 g / cm^3
# Si number density = 21.991145 Si / 1000 Ang^3
#
#
#
# Elastic Constant Matrix: (Units=GPa)
#
#
# Indices 1 2 3 4 5 6 
#
# 1 86.2972 44.4510 24.4468 0.0000 -17.7753 0.0000
# 2 44.4510 173.7686 38.9143 0.0000 -27.3231 0.0000
# 3 24.4468 38.9143 47.1655 0.0000 -17.9176 0.0000
# 4 0.0000 0.0000 0.0000 5.9141 0.0000 -7.3052
# 5 -17.7753 -27.3231 -17.9176 0.0000 31.3647 0.0000
# 6 0.0000 0.0000 0.0000 -7.3052 0.0000 31.4215
#
#
#
# Elastic Compliance Matrix: (Units=1/GPa)
#
#
# Indices 1 2 3 4 5 6 
#
# 1 0.014760 -0.002177 -0.004339 0.000000 0.003990 0.000000
# 2 -0.002177 0.007714 -0.004026 0.000000 0.003187 0.000000
# 3 -0.004339 -0.004026 0.031298 0.000000 0.011914 0.000000
# 4 0.000000 0.000000 0.000000 0.237206 0.000000 0.055149
# 5 0.003990 0.003187 0.011914 0.000000 0.043726 0.000000
# 6 0.000000 0.000000 0.000000 0.055149 0.000000 0.044647
#
#
# Mechanical properties :
#
#
# Convention : Reuss Voigt Hill
#
# Bulk Modulus (GPa) = 30.59048 58.09507 44.34278
# Shear Modulus (GPa) = 12.15566 27.03469 19.59518
#
# Velocity S-wave (km/s) = 2.35362 3.51000 2.98828
# Velocity P-wave (km/s) = 4.61807 6.54994 5.66693
#
# Compressibility (1/GPa) = 0.03268991
#
# Stress axis : x y z
#
# Youngs Moduli (GPa) = 67.75054 129.63049 31.95076
#
# Poissons Ratio (x) = 0.28216 0.13863
# Poissons Ratio (y) = 0.14747 0.12863
# Poissons Ratio (z) = 0.29395 0.52188
#
# Static dielectric constant tensor:
#      x y z
#    x 1.929090 0.000000 0.023470 
#    y 0.000000 1.862040 0.000000 
#    z 0.023470 0.000000 1.795760 
# 
# From -- ./inp_files/138691.got.cif
#   From: 2010.05.17/outbox.cif.g08.bks.cpg/sg15_70_cif.got.tgz:138691.got - 2010.06.03 18:47:42.
