data_PCOD9270943
_publ_section_title
;
Structure prediction by ZEFSAII (Michael W. Deem and Ramdas Pophale) SiO2 
 PCOD9270943
Probable space group: C 2/C
;
_chemical_formula_sum "Si O2"
_cell_formula_units_Z 60
_cell_length_a 26.480528
_cell_length_b 10.941780
_cell_length_c 15.066613
_cell_angle_alpha 90.000000
_cell_angle_beta 50.706163
_cell_angle_gamma 90.000000
_cell_volume 3378.467735
_symmetry_space_group_name_H-M "C 2/C"
_symmetry_group_IT_number 15
_symmetry_cell_setting 'monoclinic'
loop_
_space_group_symop_operation_xyz
x,y,z
-x,y,1/2-z
-x,-y,-z
x,-y,1/2+z
1/2+x,1/2+y,z
1/2-x,1/2+y,1/2-z
1/2-x,1/2-y,-z
1/2+x,1/2-y,1/2+z
loop_
_atom_site_type_symbol
_atom_site_label
_atom_site_fract_x
_atom_site_fract_y
_atom_site_fract_z
Si Si1 0.000000 0.565457 0.750000
Si Si2 0.234091 0.056307 0.033394
Si Si3 0.358091 0.904651 0.147220
Si Si4 0.004193 0.634050 0.947365
Si Si5 0.740728 0.264287 0.361230
Si Si6 0.820772 0.199359 0.891648
Si Si7 0.134973 0.686790 0.339268
Si Si8 0.369740 0.923017 0.924012
O O1 0.995487 0.631730 0.850491
O O2 0.065051 0.484951 0.683346
O O3 0.229802 0.145581 0.122613
O O4 0.183499 0.945007 0.091602
O O5 0.226005 0.138832 0.955458
O O6 0.306637 0.995922 0.957260
O O7 0.421312 0.832712 0.113453
O O8 0.293447 0.828506 0.239325
O O9 0.354471 0.041754 0.191930
O O10 0.366889 0.927912 0.033175
O O11 0.000000 0.500000 0.000000
O O12 0.942132 0.703892 0.057286
O O13 0.677266 0.223129 0.377870
O O14 0.837528 0.235830 0.772835
O O15 0.868497 0.281579 0.897333
O O16 0.750000 0.250000 0.000000
#
# Coordination Sequence:
#
# PCOD9270943 Si02
#       8
#     4   8   8   8   8   8   8   8
#     4  12  18  32  60  82 122 152 184 250 308 344
#     4  10  21  39  52  85 113 148 202 231 300 345
#     4  11  21  36  57  92 118 146 200 239 308 349
#     4  10  20  36  55  89 120 151 193 253 299 350
#     4  11  21  34  61  81 117 152 188 255 281 358
#     4  10  21  36  55  80 113 154 191 241 293 352
#     4  11  21  37  58  86 121 148 193 245 303 350
#     4  11  20  35  56  85 116 147 190 244 297 360
#
# _framework density 17.759530000000002
#
# number of rings (size 3 to 8) (size 9 to 14) (size 15 to 20)
#    0.000    1.333    4.000    5.600    0.000    1.067 
#    0.000    0.000    0.000    2.400    0.000    0.000 
#    0.000    0.000    0.000    0.000    0.000    0.000 
#
# Total GULP energy -167325.537003 kJ/mol
# GULP energy per Si atom -5577.517900 kJ/mol
# Density = 1.771911 g / cm^3
# Si number density = 17.759530 Si / 1000 Ang^3
#
#
#
# Elastic Constant Matrix: (Units=GPa)
#
#
# Indices 1 2 3 4 5 6 
#
# 1 70.1568 11.8435 19.2605 0.0000 -9.8953 0.0000
# 2 11.8435 81.1871 22.8418 0.0000 -4.6437 0.0000
# 3 19.2605 22.8418 84.7635 0.0000 2.6866 0.0000
# 4 0.0000 0.0000 0.0000 22.0991 0.0000 -2.1244
# 5 -9.8953 -4.6437 2.6866 0.0000 30.4787 0.0000
# 6 0.0000 0.0000 0.0000 -2.1244 0.0000 8.7667
#
#
#
# Elastic Compliance Matrix: (Units=1/GPa)
#
#
# Indices 1 2 3 4 5 6 
#
# 1 0.016171 -0.001047 -0.003564 0.000000 0.005405 0.000000
# 2 -0.001047 0.013566 -0.003482 0.000000 0.002034 0.000000
# 3 -0.003564 -0.003482 0.013637 0.000000 -0.002890 0.000000
# 4 0.000000 0.000000 0.000000 0.046330 0.000000 0.011227
# 5 0.005405 0.002034 -0.002890 0.000000 0.035129 0.000000
# 6 0.000000 0.000000 0.000000 0.011227 0.000000 0.116789
#
#
# Mechanical properties :
#
#
# Convention : Reuss Voigt Hill
#
# Bulk Modulus (GPa) = 36.78057 38.22211 37.50134
# Shear Modulus (GPa) = 18.73561 24.41300 21.57431
#
# Velocity S-wave (km/s) = 3.25154 3.71164 3.48918
# Velocity P-wave (km/s) = 5.90356 6.31958 6.11511
#
# Compressibility (1/GPa) = 0.02718827
#
# Stress axis : x y z
#
# Youngs Moduli (GPa) = 61.83823 73.71342 73.32863
#
# Poissons Ratio (x) = 0.07720 0.26131
# Poissons Ratio (y) = 0.06476 0.25535
# Poissons Ratio (z) = 0.22037 0.25669
#
# Static dielectric constant tensor:
#      x y z
#    x 1.626990 0.000000 -0.081450 
#    y 0.000000 1.610680 0.000000 
#    z -0.081450 0.000000 0.664140 
# 
# From -- ./inp_files/177353.got.cif
#   From: 2010.05.17/outbox.cif.g08.bks.cpg/sg15_89_cif.got.tgz:177353.got - 2010.06.03 18:47:42.
