data_PCOD9270562
_publ_section_title
;
Structure prediction by ZEFSAII (Michael W. Deem and Ramdas Pophale) SiO2 
 PCOD9270562
Probable space group: C 2/C
;
_chemical_formula_sum "Si O2"
_cell_formula_units_Z 40
_cell_length_a 10.041211
_cell_length_b 19.428100
_cell_length_c 9.922842
_cell_angle_alpha 90.000000
_cell_angle_beta 71.853688
_cell_angle_gamma 90.000000
_cell_volume 1839.487811
_symmetry_space_group_name_H-M "C 2/C"
_symmetry_group_IT_number 15
_symmetry_cell_setting 'monoclinic'
loop_
_space_group_symop_operation_xyz
x,y,z
-x,y,1/2-z
-x,-y,-z
x,-y,1/2+z
1/2+x,1/2+y,z
1/2-x,1/2+y,1/2-z
1/2-x,1/2-y,-z
1/2+x,1/2-y,1/2+z
loop_
_atom_site_type_symbol
_atom_site_label
_atom_site_fract_x
_atom_site_fract_y
_atom_site_fract_z
Si Si1 0.598273 0.024942 0.843782
Si Si2 0.835600 0.813148 0.631765
Si Si3 0.619491 0.840242 0.463273
Si Si4 0.041021 0.935600 0.578173
Si Si5 0.695457 0.109543 0.392562
O O1 0.500000 0.041536 0.750000
O O2 0.683170 0.954910 0.791964
O O3 0.678758 0.093129 0.865257
O O4 0.500000 0.000000 0.000000
O O5 0.705172 0.829803 0.573963
O O6 0.872404 0.733437 0.609642
O O7 0.786657 0.831196 0.796678
O O8 0.959226 0.866615 0.559266
O O9 0.456809 0.860196 0.532345
O O10 0.208528 0.921869 0.520115
O O11 0.000000 0.947421 0.750000
O O12 0.000000 0.000000 0.500000
#
# Coordination Sequence:
#
# PCOD9270562 Si02
#       5
#     8   8   8   8   8
#     4  10  20  35  60  89 115 149 201 253 296 355
#     4  10  21  39  58  86 126 159 196 254 310 359
#     4  10  21  37  61  88 117 158 207 249 301 368
#     4  10  22  39  60  87 124 162 199 248 306 367
#     4  10  20  38  62  86 119 160 200 252 309 360
#
# _framework density 21.745183999999998
#
# number of rings (size 3 to 8) (size 9 to 14) (size 15 to 20)
#    0.000    2.000    0.000    4.200    0.000    8.000 
#    0.000   10.000    0.000    0.000    0.000    0.000 
#    0.000    0.000    0.000    0.000    0.000    0.000 
#
# Total GULP energy -111623.407952 kJ/mol
# GULP energy per Si atom -5581.170398 kJ/mol
# Density = 2.169569 g / cm^3
# Si number density = 21.745184 Si / 1000 Ang^3
#
#
#
# Elastic Constant Matrix: (Units=GPa)
#
#
# Indices 1 2 3 4 5 6 
#
# 1 126.2345 51.2804 9.1019 0.0000 2.4837 0.0000
# 2 51.2804 198.0728 37.2740 0.0000 4.8474 0.0000
# 3 9.1019 37.2740 39.4247 0.0000 13.9032 0.0000
# 4 0.0000 0.0000 0.0000 35.4654 0.0000 6.7177
# 5 2.4837 4.8474 13.9032 0.0000 23.8219 0.0000
# 6 0.0000 0.0000 0.0000 6.7177 0.0000 39.7002
#
#
#
# Elastic Compliance Matrix: (Units=1/GPa)
#
#
# Indices 1 2 3 4 5 6 
#
# 1 0.008862 -0.002358 0.000428 0.000000 -0.000694 0.000000
# 2 -0.002358 0.006909 -0.007024 0.000000 0.002940 0.000000
# 3 0.000428 -0.007024 0.039561 0.000000 -0.021704 0.000000
# 4 0.000000 0.000000 0.000000 0.029130 0.000000 -0.004929
# 5 -0.000694 0.002940 -0.021704 0.000000 0.054120 0.000000
# 6 0.000000 0.000000 0.000000 -0.004929 0.000000 0.026023
#
#
# Mechanical properties :
#
#
# Convention : Reuss Voigt Hill
#
# Bulk Modulus (GPa) = 26.72077 62.11605 44.41841
# Shear Modulus (GPa) = 25.64249 37.53588 31.58918
#
# Velocity S-wave (km/s) = 3.43771 4.15923 3.81556
# Velocity P-wave (km/s) = 5.29830 7.18978 6.31526
#
# Compressibility (1/GPa) = 0.03742407
#
# Stress axis : x y z
#
# Youngs Moduli (GPa) = 112.83549 144.73722 25.27724
#
# Poissons Ratio (x) = 0.34130 -0.01082
# Poissons Ratio (y) = 0.26607 0.17756
# Poissons Ratio (z) = -0.04830 1.01670
#
# Static dielectric constant tensor:
#      x y z
#    x 1.897360 0.000000 -0.058640 
#    y 0.000000 1.807900 0.000000 
#    z -0.058640 0.000000 1.836390 
# 
# From -- ./inp_files/76691.got.cif
#   From: 2010.05.17/outbox.cif.g08.bks.cpg/sg15_39_cif.got.tgz:76691.got - 2010.06.03 18:47:42.
