data_PCOD9270721
_publ_section_title
;
Structure prediction by ZEFSAII (Michael W. Deem and Ramdas Pophale) SiO2 
 PCOD9270721
Probable space group: C 2/C
;
_chemical_formula_sum "Si O2"
_cell_formula_units_Z 40
_cell_length_a 10.983807
_cell_length_b 8.647732
_cell_length_c 16.346709
_cell_angle_alpha 90.000000
_cell_angle_beta 83.107810
_cell_angle_gamma 90.000000
_cell_volume 1541.472261
_symmetry_space_group_name_H-M "C 2/C"
_symmetry_group_IT_number 15
_symmetry_cell_setting 'monoclinic'
loop_
_space_group_symop_operation_xyz
x,y,z
-x,y,1/2-z
-x,-y,-z
x,-y,1/2+z
1/2+x,1/2+y,z
1/2-x,1/2+y,1/2-z
1/2-x,1/2-y,-z
1/2+x,1/2-y,1/2+z
loop_
_atom_site_type_symbol
_atom_site_label
_atom_site_fract_x
_atom_site_fract_y
_atom_site_fract_z
Si Si1 0.614263 0.810623 0.180952
Si Si2 0.629586 0.845532 0.616500
Si Si3 0.323200 0.102208 0.567712
Si Si4 0.394150 0.385633 0.979639
Si Si5 0.371447 0.197707 0.145220
O O1 0.500000 0.791385 0.250000
O O2 0.576751 0.723569 0.099598
O O3 0.744760 0.737801 0.200427
O O4 0.640645 0.989681 0.158405
O O5 0.601727 0.861207 0.520541
O O6 0.756002 0.751551 0.608607
O O7 0.509165 0.758974 0.660908
O O8 0.213038 0.998308 0.540835
O O9 0.380799 0.987170 0.628958
O O10 0.500000 0.500000 0.000000
O O11 0.353394 0.284432 0.060063
#
# Coordination Sequence:
#
# PCOD9270721 Si02
#       5
#     8   8   8   8   8
#     4  11  25  45  60  92 142 172 212 284 342 391
#     4  11  21  37  64  95 124 164 214 270 327 388
#     4  10  20  35  63 100 124 156 218 281 313 378
#     4  11  20  40  70  97 127 175 227 273 325 396
#     4  11  21  41  63  94 127 166 220 269 318 394
#
# _framework density 25.949216
#
# number of rings (size 3 to 8) (size 9 to 14) (size 15 to 20)
#    0.000    1.200    6.000    1.800    0.000    0.000 
#    3.600    4.000    0.000    0.000    0.000    0.000 
#    0.000    0.000    0.000    0.000    0.000    0.000 
#
# Total GULP energy -112091.428290 kJ/mol
# GULP energy per Si atom -5604.571415 kJ/mol
# Density = 2.589015 g / cm^3
# Si number density = 25.949216 Si / 1000 Ang^3
#
#
#
# Elastic Constant Matrix: (Units=GPa)
#
#
# Indices 1 2 3 4 5 6 
#
# 1 91.6350 21.6352 33.2857 0.0000 -46.2568 0.0000
# 2 21.6352 117.2618 46.0453 0.0000 -25.4885 0.0000
# 3 33.2857 46.0453 166.6812 0.0000 -37.9711 0.0000
# 4 0.0000 0.0000 0.0000 14.7597 0.0000 -17.0567
# 5 -46.2568 -25.4885 -37.9711 0.0000 47.0270 0.0000
# 6 0.0000 0.0000 0.0000 -17.0567 0.0000 43.0720
#
#
#
# Elastic Compliance Matrix: (Units=1/GPa)
#
#
# Indices 1 2 3 4 5 6 
#
# 1 0.021767 0.000590 0.000540 0.000000 0.022166 0.000000
# 2 0.000590 0.010150 -0.001883 0.000000 0.004562 0.000000
# 3 0.000540 -0.001883 0.007720 0.000000 0.005744 0.000000
# 4 0.000000 0.000000 0.000000 0.124919 0.000000 0.049469
# 5 0.022166 0.004562 0.005744 0.000000 0.050178 0.000000
# 6 0.000000 0.000000 0.000000 0.049469 0.000000 0.042807
#
#
# Mechanical properties :
#
#
# Convention : Reuss Voigt Hill
#
# Bulk Modulus (GPa) = 26.22512 64.16781 45.19647
# Shear Modulus (GPa) = 18.39886 39.27921 28.83903
#
# Velocity S-wave (km/s) = 2.66566 3.89484 3.33733
# Velocity P-wave (km/s) = 4.42748 6.70882 5.68379
#
# Compressibility (1/GPa) = 0.03813138
#
# Stress axis : x y z
#
# Youngs Moduli (GPa) = 45.94189 98.52416 129.52849
#
# Poissons Ratio (x) = -0.05814 -0.06992
# Poissons Ratio (y) = -0.02711 0.24384
# Poissons Ratio (z) = -0.02480 0.18548
#
# Static dielectric constant tensor:
#      x y z
#    x 2.132200 0.000000 0.043300 
#    y 0.000000 2.048260 0.000000 
#    z 0.043300 0.000000 2.099380 
# 
# From -- ./inp_files/235717.got.cif
#   From: 2010.05.17/outbox.cif.g08.bks.cpg/sg15_118_cif.got.tgz:235717.got - 2010.06.03 18:47:42.
