data_PCOD9270918
_publ_section_title
;
Structure prediction by ZEFSAII (Michael W. Deem and Ramdas Pophale) SiO2 
 PCOD9270918
Probable space group: C 2/C
;
_chemical_formula_sum "Si O2"
_cell_formula_units_Z 64
_cell_length_a 8.239782
_cell_length_b 14.866395
_cell_length_c 27.698515
_cell_angle_alpha 90.000000
_cell_angle_beta 100.571248
_cell_angle_gamma 90.000000
_cell_volume 3335.366468
_symmetry_space_group_name_H-M "C 2/C"
_symmetry_group_IT_number 15
_symmetry_cell_setting 'monoclinic'
loop_
_space_group_symop_operation_xyz
x,y,z
-x,y,1/2-z
-x,-y,-z
x,-y,1/2+z
1/2+x,1/2+y,z
1/2-x,1/2+y,1/2-z
1/2-x,1/2-y,-z
1/2+x,1/2-y,1/2+z
loop_
_atom_site_type_symbol
_atom_site_label
_atom_site_fract_x
_atom_site_fract_y
_atom_site_fract_z
Si Si1 0.183904 0.002656 0.092445
Si Si2 0.027238 0.183285 0.195117
Si Si3 0.140587 0.431704 0.989196
Si Si4 0.675613 0.819751 0.854711
Si Si5 0.341961 0.180365 0.613278
Si Si6 0.906313 0.329189 0.907931
Si Si7 0.639903 0.474790 0.871980
Si Si8 0.809184 0.356040 0.407525
O O1 0.237079 0.015613 0.040034
O O2 0.284175 0.079866 0.125972
O O3 0.993421 0.020528 0.092576
O O4 0.233985 0.907361 0.117939
O O5 0.927463 0.261161 0.160536
O O6 0.951420 0.087021 0.173162
O O7 0.000000 0.193323 0.250000
O O8 0.220250 0.189942 0.189150
O O9 0.048708 0.353861 0.953404
O O10 0.224987 0.387604 0.040201
O O11 0.000000 0.500000 0.000000
O O12 0.484426 0.806675 0.859197
O O13 0.759743 0.745226 0.893391
O O14 0.216208 0.250734 0.582170
O O15 0.494743 0.142296 0.590737
O O16 0.798725 0.418510 0.896223
O O17 0.708720 0.575309 0.867206
#
# Coordination Sequence:
#
# PCOD9270918 Si02
#       8
#     8   8   8   8   8   8   8   8
#     4  10  20  36  55  80 112 151 186 229 273 324
#     4   9  20  40  63  87 108 136 182 233 285 351
#     4  11  20  36  55  81 116 151 200 233 261 332
#     4   9  20  37  58  80 114 147 181 229 284 327
#     4  10  20  36  58  80 113 149 183 230 289 327
#     4  10  20  36  55  80 113 154 186 227 276 321
#     4  10  20  36  58  80 114 149 181 229 287 326
#     4  11  20  36  56  82 114 154 187 232 276 323
#
# _framework density 19.188296000000001
#
# number of rings (size 3 to 8) (size 9 to 14) (size 15 to 20)
#    0.000    2.000    2.500    2.250    0.000    3.000 
#    0.000    7.500    0.000    0.000    0.000    0.000 
#    0.000    0.000    0.000    0.000    0.000    0.000 
#
# Total GULP energy -178174.542714 kJ/mol
# GULP energy per Si atom -5567.954460 kJ/mol
# Density = 1.914462 g / cm^3
# Si number density = 19.188296 Si / 1000 Ang^3
#
#
#
# Elastic Constant Matrix: (Units=GPa)
#
#
# Indices 1 2 3 4 5 6 
#
# 1 76.6274 -3.6354 30.2595 0.0000 -23.0923 0.0000
# 2 -3.6354 72.8562 26.9248 0.0000 4.6755 0.0000
# 3 30.2595 26.9248 93.0685 0.0000 -22.0993 0.0000
# 4 0.0000 0.0000 0.0000 14.9414 0.0000 -1.6008
# 5 -23.0923 4.6755 -22.0993 0.0000 24.9945 0.0000
# 6 0.0000 0.0000 0.0000 -1.6008 0.0000 39.0329
#
#
#
# Elastic Compliance Matrix: (Units=1/GPa)
#
#
# Indices 1 2 3 4 5 6 
#
# 1 0.018598 0.001097 -0.002953 0.000000 0.014366 0.000000
# 2 0.001097 0.017054 -0.007350 0.000000 -0.008675 0.000000
# 3 -0.002953 -0.007350 0.017100 0.000000 0.013766 0.000000
# 4 0.000000 0.000000 0.000000 0.067223 0.000000 0.002757
# 5 0.014366 -0.008675 0.013766 0.000000 0.067076 0.000000
# 6 0.000000 0.000000 0.000000 0.002757 0.000000 0.025732
#
#
# Mechanical properties :
#
#
# Convention : Reuss Voigt Hill
#
# Bulk Modulus (GPa) = 29.12091 38.84998 33.98545
# Shear Modulus (GPa) = 20.60654 28.39398 24.50026
#
# Velocity S-wave (km/s) = 3.28061 3.85093 3.57716
# Velocity P-wave (km/s) = 5.43684 6.32958 5.90012
#
# Compressibility (1/GPa) = 0.03433958
#
# Stress axis : x y z
#
# Youngs Moduli (GPa) = 53.77030 58.63891 58.47914
#
# Poissons Ratio (x) = -0.06434 0.17268
# Poissons Ratio (y) = -0.05900 0.42984
# Poissons Ratio (z) = 0.15877 0.43101
#
# Static dielectric constant tensor:
#      x y z
#    x 1.728000 0.000000 -0.032900 
#    y 0.000000 1.683710 0.000000 
#    z -0.032900 0.000000 1.662450 
# 
# From -- ./inp_files/288771.got.cif
#   From: 2010.05.17/outbox.cif.g08.bks.cpg/sg15_145_cif.got.tgz:288771.got - 2010.06.03 18:47:42.
