data_PCOD9270297
_publ_section_title
;
Structure prediction by ZEFSAII (Michael W. Deem and Ramdas Pophale) SiO2 
 PCOD9270297
Probable space group: C 2/C
;
_chemical_formula_sum "Si O2"
_cell_formula_units_Z 60
_cell_length_a 21.671476
_cell_length_b 14.158177
_cell_length_c 15.195580
_cell_angle_alpha 90.000000
_cell_angle_beta 44.328271
_cell_angle_gamma 90.000000
_cell_volume 3257.964359
_symmetry_space_group_name_H-M "C 2/C"
_symmetry_group_IT_number 15
_symmetry_cell_setting 'monoclinic'
loop_
_space_group_symop_operation_xyz
x,y,z
-x,y,1/2-z
-x,-y,-z
x,-y,1/2+z
1/2+x,1/2+y,z
1/2-x,1/2+y,1/2-z
1/2-x,1/2-y,-z
1/2+x,1/2-y,1/2+z
loop_
_atom_site_type_symbol
_atom_site_label
_atom_site_fract_x
_atom_site_fract_y
_atom_site_fract_z
Si Si1 0.155821 0.349545 0.622043
Si Si2 0.291961 0.444900 0.588233
Si Si3 0.644237 0.240817 0.945402
Si Si4 0.000000 0.499017 0.750000
Si Si5 0.441035 0.057441 0.989508
Si Si6 0.936466 0.265331 0.612894
Si Si7 0.721620 0.052437 0.807568
Si Si8 0.589669 0.555071 0.925931
O O1 0.246709 0.405868 0.547239
O O2 0.161590 0.286196 0.529412
O O3 0.080745 0.427541 0.684023
O O4 0.125067 0.288819 0.739413
O O5 0.325300 0.348248 0.601184
O O6 0.215159 0.500647 0.719359
O O7 0.372280 0.518993 0.518139
O O8 0.697542 0.162720 0.834754
O O9 0.539501 0.229528 0.036474
O O10 0.010307 0.561455 0.652635
O O11 0.419771 0.155216 0.057292
O O12 0.500000 0.000000 0.000000
O O13 0.351953 0.999088 0.061179
O O14 0.923283 0.164641 0.580415
O O15 0.824248 0.032559 0.723147
O O16 0.500000 0.500000 0.000000
#
# Coordination Sequence:
#
# PCOD9270297 Si02
#       8
#     8   8   8   4   8   8   8   8
#     4  12  20  36  59  95 125 152 202 270 326 369
#     4  10  23  36  58  83 125 164 203 252 313 377
#     4  12  21  36  59  96 124 160 206 266 324 373
#     4  12  22  36  60  94 134 152 204 262 336 370
#     4  12  20  37  61  94 125 164 199 267 324 382
#     4  12  20  37  64  88 128 162 208 256 322 380
#     4  10  20  35  57  88 119 159 206 242 320 371
#     4  10  22  40  59  83 120 169 220 247 301 394
#
# _framework density 18.416408000000001
#
# number of rings (size 3 to 8) (size 9 to 14) (size 15 to 20)
#    0.800    0.000    8.000    1.200    0.000    0.000 
#    0.000    0.000    0.000    5.600    0.000    0.000 
#    0.000    0.000    0.000    0.000    0.000    0.000 
#
# Total GULP energy -167019.117650 kJ/mol
# GULP energy per Si atom -5567.303922 kJ/mol
# Density = 1.837449 g / cm^3
# Si number density = 18.416408 Si / 1000 Ang^3
#
#
#
# Elastic Constant Matrix: (Units=GPa)
#
#
# Indices 1 2 3 4 5 6 
#
# 1 93.7613 36.6658 23.4062 0.0000 -16.4022 0.0000
# 2 36.6658 125.5960 33.6482 0.0000 9.9543 0.0000
# 3 23.4062 33.6482 63.8171 0.0000 0.5227 0.0000
# 4 0.0000 0.0000 0.0000 19.2564 0.0000 -3.0739
# 5 -16.4022 9.9543 0.5227 0.0000 33.2865 0.0000
# 6 0.0000 0.0000 0.0000 -3.0739 0.0000 33.0567
#
#
#
# Elastic Compliance Matrix: (Units=1/GPa)
#
#
# Indices 1 2 3 4 5 6 
#
# 1 0.014532 -0.004033 -0.003272 0.000000 0.008418 0.000000
# 2 -0.004033 0.010639 -0.004089 0.000000 -0.005105 0.000000
# 3 -0.003272 -0.004089 0.019032 0.000000 -0.000689 0.000000
# 4 0.000000 0.000000 0.000000 0.052713 0.000000 0.004902
# 5 0.008418 -0.005105 -0.000689 0.000000 0.035728 0.000000
# 6 0.000000 0.000000 0.000000 0.004902 0.000000 0.030707
#
#
# Mechanical properties :
#
#
# Convention : Reuss Voigt Hill
#
# Bulk Modulus (GPa) = 46.69697 52.29052 49.49375
# Shear Modulus (GPa) = 25.86957 29.75019 27.80988
#
# Velocity S-wave (km/s) = 3.75200 4.02359 3.89016
# Velocity P-wave (km/s) = 6.64690 7.07395 6.86374
#
# Compressibility (1/GPa) = 0.02141466
#
# Stress axis : x y z
#
# Youngs Moduli (GPa) = 68.81351 93.99052 52.54440
#
# Poissons Ratio (x) = 0.37905 0.17195
# Poissons Ratio (y) = 0.27752 0.21484
# Poissons Ratio (z) = 0.22519 0.38431
#
# Static dielectric constant tensor:
#      x y z
#    x 1.685040 0.000000 -0.025260 
#    y 0.000000 1.635400 0.000000 
#    z -0.025260 0.000000 1.676250 
# 
# From -- ./inp_files/168262.got.cif
#   From: 2010.05.17/outbox.cif.g08.bks.cpg/sg15_85_cif.got.tgz:168262.got - 2010.06.03 18:47:42.
