data_PCOD9270158
_publ_section_title
;
Structure prediction by ZEFSAII (Michael W. Deem and Ramdas Pophale) SiO2 
 PCOD9270158
Probable space group: C 2/C
;
_chemical_formula_sum "Si O2"
_cell_formula_units_Z 60
_cell_length_a 19.163280
_cell_length_b 11.636769
_cell_length_c 12.976888
_cell_angle_alpha 90.000000
_cell_angle_beta 68.433386
_cell_angle_gamma 90.000000
_cell_volume 2691.234134
_symmetry_space_group_name_H-M "C 2/C"
_symmetry_group_IT_number 15
_symmetry_cell_setting 'monoclinic'
loop_
_space_group_symop_operation_xyz
x,y,z
-x,y,1/2-z
-x,-y,-z
x,-y,1/2+z
1/2+x,1/2+y,z
1/2-x,1/2+y,1/2-z
1/2-x,1/2-y,-z
1/2+x,1/2-y,1/2+z
loop_
_atom_site_type_symbol
_atom_site_label
_atom_site_fract_x
_atom_site_fract_y
_atom_site_fract_z
Si Si1 0.811602 0.375632 0.565166
Si Si2 0.500000 0.180512 0.250000
Si Si3 0.447588 0.261531 0.063996
Si Si4 0.347417 0.516817 0.587430
Si Si5 0.104763 0.763278 0.891169
Si Si6 0.347334 0.808958 0.904199
Si Si7 0.786992 0.924031 0.427928
Si Si8 0.203578 0.660240 0.663792
O O1 0.888096 0.342081 0.580756
O O2 0.767530 0.494374 0.606833
O O3 0.826466 0.369279 0.433958
O O4 0.752737 0.275921 0.623700
O O5 0.484773 0.252923 0.155922
O O6 0.581520 0.125471 0.182176
O O7 0.405326 0.381701 0.077330
O O8 0.515121 0.254309 0.945915
O O9 0.370536 0.397151 0.627161
O O10 0.344756 0.497536 0.464413
O O11 0.265572 0.565717 0.660219
O O12 0.134186 0.718893 0.986475
O O13 0.141483 0.688343 0.781702
O O14 0.329134 0.686552 0.858840
O O15 0.268944 0.873169 0.953705
#
# Coordination Sequence:
#
# PCOD9270158 Si02
#       8
#     8   4   8   8   8   8   8   8
#     4   9  19  36  56  81 115 150 183 230 285 335
#     4  10  22  40  54  76 114 150 182 234 288 332
#     4  10  21  38  58  81 114 149 187 232 286 345
#     4   9  19  36  58  83 113 146 186 237 284 334
#     4  10  20  35  56  83 114 150 187 230 281 338
#     4   9  20  37  57  81 114 149 190 234 277 336
#     4   9  18  36  59  84 111 146 191 235 278 335
#     4   9  19  35  55  83 114 144 185 231 280 337
#
# _framework density 22.294605000000001
#
# number of rings (size 3 to 8) (size 9 to 14) (size 15 to 20)
#    0.000    2.667    0.000    1.200    0.000    9.067 
#    0.000   10.667    0.000    0.000    0.000    0.000 
#    0.000    3.200    0.000    0.000    0.000    0.000 
#
# Total GULP energy -167401.567935 kJ/mol
# GULP energy per Si atom -5580.052265 kJ/mol
# Density = 2.224386 g / cm^3
# Si number density = 22.294605 Si / 1000 Ang^3
#
#
#
# Elastic Constant Matrix: (Units=GPa)
#
#
# Indices 1 2 3 4 5 6 
#
# 1 81.3903 -0.6655 22.9104 0.0000 9.7864 0.0000
# 2 -0.6655 40.7228 1.0809 0.0000 21.8055 0.0000
# 3 22.9104 1.0809 98.4780 0.0000 -6.9273 0.0000
# 4 0.0000 0.0000 0.0000 13.9566 0.0000 4.1746
# 5 9.7864 21.8055 -6.9273 0.0000 18.5592 0.0000
# 6 0.0000 0.0000 0.0000 4.1746 0.0000 26.1663
#
#
#
# Elastic Compliance Matrix: (Units=1/GPa)
#
#
# Indices 1 2 3 4 5 6 
#
# 1 0.018644 0.019301 -0.007020 0.000000 -0.035129 0.000000
# 2 0.019301 0.090321 -0.014031 0.000000 -0.121534 0.000000
# 3 -0.007020 -0.014031 0.013722 0.000000 0.025309 0.000000
# 4 0.000000 0.000000 0.000000 0.075241 0.000000 -0.012004
# 5 -0.035129 -0.121534 0.025309 0.000000 0.224644 0.000000
# 6 0.000000 0.000000 0.000000 -0.012004 0.000000 0.040132
#
#
# Mechanical properties :
#
#
# Convention : Reuss Voigt Hill
#
# Bulk Modulus (GPa) = 8.39013 29.69361 19.04187
# Shear Modulus (GPa) = 9.88270 24.88746 17.38508
#
# Velocity S-wave (km/s) = 2.10770 3.34473 2.79550
# Velocity P-wave (km/s) = 3.11363 5.31639 4.35653
#
# Compressibility (1/GPa) = 0.11918765
#
# Stress axis : x y z
#
# Youngs Moduli (GPa) = 53.63534 11.07162 72.87491
#
# Poissons Ratio (x) = -0.21370 0.51162
# Poissons Ratio (y) = -1.03523 1.02250
# Poissons Ratio (z) = 0.37655 0.15534
#
# Static dielectric constant tensor:
#      x y z
#    x 1.816360 0.000000 0.001310 
#    y 0.000000 1.859960 0.000000 
#    z 0.001310 0.000000 1.851170 
# 
# From -- ./inp_files/161319.got.cif
#   From: 2010.05.17/outbox.cif.g08.bks.cpg/sg15_81_cif.got.tgz:161319.got - 2010.06.03 18:47:42.
