data_PCOD9270699
_publ_section_title
;
Structure prediction by ZEFSAII (Michael W. Deem and Ramdas Pophale) SiO2 
 PCOD9270699
Probable space group: C 2/C
;
_chemical_formula_sum "Si O2"
_cell_formula_units_Z 52
_cell_length_a 17.515724
_cell_length_b 14.574666
_cell_length_c 13.932647
_cell_angle_alpha 90.000000
_cell_angle_beta 135.635233
_cell_angle_gamma 90.000000
_cell_volume 2487.004525
_symmetry_space_group_name_H-M "C 2/C"
_symmetry_group_IT_number 15
_symmetry_cell_setting 'monoclinic'
loop_
_space_group_symop_operation_xyz
x,y,z
-x,y,1/2-z
-x,-y,-z
x,-y,1/2+z
1/2+x,1/2+y,z
1/2-x,1/2+y,1/2-z
1/2-x,1/2-y,-z
1/2+x,1/2-y,1/2+z
loop_
_atom_site_type_symbol
_atom_site_label
_atom_site_fract_x
_atom_site_fract_y
_atom_site_fract_z
Si Si1 0.209639 0.443193 0.933116
Si Si2 0.747046 0.895072 0.186136
Si Si3 0.000000 0.432894 0.250000
Si Si4 0.989223 0.395541 0.451677
Si Si5 0.880386 0.080824 0.349059
Si Si6 0.185887 0.305173 0.737385
Si Si7 0.052939 0.014405 0.893562
O O1 0.205424 0.358515 0.855466
O O2 0.103886 0.503832 0.821441
O O3 0.212046 0.411485 0.044882
O O4 0.320182 0.501369 0.015228
O O5 0.637706 0.875812 0.147413
O O6 0.810347 0.985897 0.277577
O O7 0.816359 0.803083 0.253044
O O8 0.978697 0.382863 0.130574
O O9 0.000000 0.500000 0.500000
O O10 0.073093 0.338399 0.590626
O O11 0.940863 0.078274 0.506523
O O12 0.789734 0.159968 0.266941
O O13 0.974785 0.070025 0.354177
O O14 0.000000 0.056262 0.750000
#
# Coordination Sequence:
#
# PCOD9270699 Si02
#       7
#     8   8   4   8   8   8   8
#     4  11  20  38  65 104 127 162 215 280 341 396
#     4  12  23  41  67  97 135 168 218 281 330 393
#     4  12  22  42  76  94 124 184 238 268 324 402
#     4  12  22  43  69  95 130 181 222 270 333 393
#     4  10  21  40  61  90 126 175 211 258 329 389
#     4  11  24  40  66  99 133 169 224 270 334 397
#     4  10  20  35  62  90 125 165 201 257 329 393
#
# _framework density 20.908687
#
# number of rings (size 3 to 8) (size 9 to 14) (size 15 to 20)
#    0.000    0.923    6.154    1.385    0.000    3.692 
#    0.000    2.308    3.385    0.000    0.000    0.000 
#    0.000    0.000    0.000    0.000    0.000    0.000 
#
# Total GULP energy -145209.054336 kJ/mol
# GULP energy per Si atom -5584.963628 kJ/mol
# Density = 2.086110 g / cm^3
# Si number density = 20.908687 Si / 1000 Ang^3
#
#
#
# Elastic Constant Matrix: (Units=GPa)
#
#
# Indices 1 2 3 4 5 6 
#
# 1 77.4196 -3.3661 8.7265 0.0000 2.1772 0.0000
# 2 -3.3661 53.1589 28.8096 0.0000 -6.0881 0.0000
# 3 8.7265 28.8096 103.9218 0.0000 -7.6893 0.0000
# 4 0.0000 0.0000 0.0000 -35.1718 0.0000 12.4201
# 5 2.1772 -6.0881 -7.6893 0.0000 51.0002 0.0000
# 6 0.0000 0.0000 0.0000 12.4201 0.0000 13.2139
#
#
#
# Elastic Compliance Matrix: (Units=1/GPa)
#
#
# Indices 1 2 3 4 5 6 
#
# 1 0.013186 0.001635 -0.001606 0.000000 -0.000610 0.000000
# 2 0.001635 0.022493 -0.006249 0.000000 0.001673 0.000000
# 3 -0.001606 -0.006249 0.011569 0.000000 0.001067 0.000000
# 4 0.000000 0.000000 0.000000 -0.021347 0.000000 0.020064
# 5 -0.000610 0.001673 0.001067 0.000000 0.019994 0.000000
# 6 0.000000 0.000000 0.000000 0.020064 0.000000 0.056819
#
#
# Mechanical properties :
#
#
# Convention : Reuss Voigt Hill
#
# Bulk Modulus (GPa) = 28.72827 33.64892 31.18859
# Shear Modulus (GPa) = 39.44552 19.16382 29.30467
#
# Velocity S-wave (km/s) = 4.34817 3.03074 3.74780
# Velocity P-wave (km/s) = 6.24327 5.32685 5.80318
#
# Compressibility (1/GPa) = 0.03480892
#
# Stress axis : x y z
#
# Youngs Moduli (GPa) = 75.83873 44.45732 86.43913
#
# Poissons Ratio (x) = -0.07270 0.13880
# Poissons Ratio (y) = -0.12402 0.54018
# Poissons Ratio (z) = 0.12178 0.27783
#
# Static dielectric constant tensor:
#      x y z
#    x 1.814750 0.000000 0.003980 
#    y 0.000000 1.730400 0.000000 
#    z 0.003980 0.000000 1.768760 
# 
# From -- ./inp_files/162624.got.cif
#   From: 2010.05.17/outbox.cif.g08.bks.cpg/sg15_82_cif.got.tgz:162624.got - 2010.06.03 18:47:42.
