data_PCOD9270241
_publ_section_title
;
Structure prediction by ZEFSAII (Michael W. Deem and Ramdas Pophale) SiO2 
 PCOD9270241
Probable space group: C 2/C
;
_chemical_formula_sum "Si O2"
_cell_formula_units_Z 40
_cell_length_a 8.168704
_cell_length_b 26.239210
_cell_length_c 7.478209
_cell_angle_alpha 90.000000
_cell_angle_beta 82.637725
_cell_angle_gamma 90.000000
_cell_volume 1589.667298
_symmetry_space_group_name_H-M "C 2/C"
_symmetry_group_IT_number 15
_symmetry_cell_setting 'monoclinic'
loop_
_space_group_symop_operation_xyz
x,y,z
-x,y,1/2-z
-x,-y,-z
x,-y,1/2+z
1/2+x,1/2+y,z
1/2-x,1/2+y,1/2-z
1/2-x,1/2-y,-z
1/2+x,1/2-y,1/2+z
loop_
_atom_site_type_symbol
_atom_site_label
_atom_site_fract_x
_atom_site_fract_y
_atom_site_fract_z
Si Si1 0.300724 0.232933 0.291860
Si Si2 0.812739 0.624976 0.352796
Si Si3 0.312948 0.019428 0.519733
Si Si4 0.193274 0.339012 0.236678
Si Si5 0.846673 0.064713 0.637352
O O1 0.500000 0.232840 0.250000
O O2 0.250000 0.250000 0.500000
O O3 0.241900 0.175143 0.260531
O O4 0.232491 0.280479 0.189814
O O5 0.771612 0.564918 0.383499
O O6 0.778347 0.645009 0.560242
O O7 0.000000 0.622573 0.250000
O O8 0.298180 0.044506 0.715516
O O9 0.500000 0.000000 0.500000
O O10 0.176220 0.974806 0.518786
O O11 0.301516 0.377366 0.102383
O O12 0.000000 0.347412 0.250000
O O13 0.000000 0.063185 0.750000
#
# Coordination Sequence:
#
# PCOD9270241 Si02
#       5
#     8   8   8   8   8
#     4   9  18  35  56  78 109 149 187 229 286 345
#     4   9  18  34  54  77 108 147 183 225 281 337
#     4  11  21  36  58  83 112 151 193 234 282 344
#     4  10  20  35  57  83 108 144 193 240 283 340
#     4  11  22  36  55  83 115 149 188 238 291 344
#
# _framework density 25.162495
#
# number of rings (size 3 to 8) (size 9 to 14) (size 15 to 20)
#    0.000    2.000    0.000    5.400    0.000    0.000 
#    0.000   10.000    0.000    9.600    0.000    0.000 
#    0.000    0.000    0.000    0.000    0.000    0.000 
#
# Total GULP energy -111422.650153 kJ/mol
# GULP energy per Si atom -5571.132508 kJ/mol
# Density = 2.510522 g / cm^3
# Si number density = 25.162495 Si / 1000 Ang^3
#
#
#
# Elastic Constant Matrix: (Units=GPa)
#
#
# Indices 1 2 3 4 5 6 
#
# 1 86.5299 30.2135 2.0163 0.0000 13.1475 0.0000
# 2 30.2135 216.1338 39.5770 0.0000 37.3215 0.0000
# 3 2.0163 39.5770 59.6550 0.0000 -8.9311 0.0000
# 4 0.0000 0.0000 0.0000 21.7732 0.0000 4.0669
# 5 13.1475 37.3215 -8.9311 0.0000 31.8907 0.0000
# 6 0.0000 0.0000 0.0000 4.0669 0.0000 18.9641
#
#
#
# Elastic Compliance Matrix: (Units=1/GPa)
#
#
# Indices 1 2 3 4 5 6 
#
# 1 0.012533 -0.000958 -0.000411 0.000000 -0.004160 0.000000
# 2 -0.000958 0.007845 -0.006772 0.000000 -0.010683 0.000000
# 3 -0.000411 -0.006772 0.023465 0.000000 0.014666 0.000000
# 4 0.000000 0.000000 0.000000 0.047845 0.000000 -0.010260
# 5 -0.004160 -0.010683 0.014666 0.000000 0.049682 0.000000
# 6 0.000000 0.000000 0.000000 -0.010260 0.000000 0.054932
#
#
# Mechanical properties :
#
#
# Convention : Reuss Voigt Hill
#
# Bulk Modulus (GPa) = 36.28191 56.21471 46.24831
# Shear Modulus (GPa) = 22.54580 33.89305 28.21942
#
# Velocity S-wave (km/s) = 2.99659 3.67409 3.35249
# Velocity P-wave (km/s) = 5.14034 6.35513 5.77974
#
# Compressibility (1/GPa) = 0.02756194
#
# Stress axis : x y z
#
# Youngs Moduli (GPa) = 79.78904 127.46228 42.61620
#
# Poissons Ratio (x) = 0.12216 0.01750
# Poissons Ratio (y) = 0.07647 0.28859
# Poissons Ratio (z) = 0.03276 0.86316
#
# Static dielectric constant tensor:
#      x y z
#    x 2.012590 0.000000 0.045900 
#    y 0.000000 2.220900 0.000000 
#    z 0.045900 0.000000 2.131140 
# 
# From -- ./inp_files/24415.got.cif
#   From: 2010.05.17/outbox.cif.g08.bks.cpg/sg15_13_cif.got.tgz:24415.got - 2010.06.03 18:47:42.
