data_PCOD9270100
_publ_section_title
;
Structure prediction by ZEFSAII (Michael W. Deem and Ramdas Pophale) SiO2 
 PCOD9270100
Probable space group: C 2/C
;
_chemical_formula_sum "Si O2"
_cell_formula_units_Z 28
_cell_length_a 11.443139
_cell_length_b 22.385429
_cell_length_c 5.178536
_cell_angle_alpha 90.000000
_cell_angle_beta 73.913587
_cell_angle_gamma 90.000000
_cell_volume 1274.591093
_symmetry_space_group_name_H-M "C 2/C"
_symmetry_group_IT_number 15
_symmetry_cell_setting 'monoclinic'
loop_
_space_group_symop_operation_xyz
x,y,z
-x,y,1/2-z
-x,-y,-z
x,-y,1/2+z
1/2+x,1/2+y,z
1/2-x,1/2+y,1/2-z
1/2-x,1/2-y,-z
1/2+x,1/2-y,1/2+z
loop_
_atom_site_type_symbol
_atom_site_label
_atom_site_fract_x
_atom_site_fract_y
_atom_site_fract_z
Si Si1 0.500000 0.754312 0.750000
Si Si2 0.710264 0.148099 0.064923
Si Si3 0.635759 0.976222 0.840715
Si Si4 0.830071 0.190116 0.486374
O O1 0.387407 0.797860 0.883512
O O2 0.453324 0.714157 0.541877
O O3 0.643007 0.088745 0.207928
O O4 0.812543 0.159456 0.220446
O O5 0.768894 0.149203 0.746642
O O6 0.694208 0.018809 0.587849
O O7 0.500000 0.000000 0.000000
O O8 0.750000 0.250000 0.500000
#
# Coordination Sequence:
#
# PCOD9270100 Si02
#       4
#     4   8   8   8
#     4  10  20  36  56  78 118 154 182 228 280 342
#     4  11  22  36  56  86 118 148 189 238 283 342
#     4  10  20  35  55  83 112 146 185 230 295 348
#     4  10  22  36  54  83 115 155 194 227 278 343
#
# _framework density 21.967829999999999
#
# number of rings (size 3 to 8) (size 9 to 14) (size 15 to 20)
#    0.000    1.714    0.000    6.857    0.000   12.571 
#    0.000    0.000    0.000    0.000    0.000   20.000 
#    0.000    0.000    0.000    0.000    0.000    0.000 
#
# Total GULP energy -78034.498022 kJ/mol
# GULP energy per Si atom -5573.892716 kJ/mol
# Density = 2.191783 g / cm^3
# Si number density = 21.967830 Si / 1000 Ang^3
#
#
#
# Elastic Constant Matrix: (Units=GPa)
#
#
# Indices 1 2 3 4 5 6 
#
# 1 125.6786 50.8643 43.0479 0.0000 21.4153 0.0000
# 2 50.8643 115.0035 43.3375 0.0000 -2.0759 0.0000
# 3 43.0479 43.3375 159.2044 0.0000 27.1244 0.0000
# 4 0.0000 0.0000 0.0000 36.6361 0.0000 2.5122
# 5 21.4153 -2.0759 27.1244 0.0000 33.9341 0.0000
# 6 0.0000 0.0000 0.0000 2.5122 0.0000 27.0908
#
#
#
# Elastic Compliance Matrix: (Units=1/GPa)
#
#
# Indices 1 2 3 4 5 6 
#
# 1 0.011336 -0.004945 -0.000519 0.000000 -0.007041 0.000000
# 2 -0.004945 0.012142 -0.003040 0.000000 0.006294 0.000000
# 3 -0.000519 -0.003040 0.008364 0.000000 -0.006544 0.000000
# 4 0.000000 0.000000 0.000000 0.027470 0.000000 -0.002547
# 5 -0.007041 0.006294 -0.006544 0.000000 0.039528 0.000000
# 6 0.000000 0.000000 0.000000 -0.002547 0.000000 0.037149
#
#
# Mechanical properties :
#
#
# Convention : Reuss Voigt Hill
#
# Bulk Modulus (GPa) = 67.42028 74.93177 71.17602
# Shear Modulus (GPa) = 31.65695 37.04132 34.34914
#
# Velocity S-wave (km/s) = 3.80025 4.11075 3.95854
# Velocity P-wave (km/s) = 7.07198 7.53092 7.30506
#
# Compressibility (1/GPa) = 0.01483233
#
# Stress axis : x y z
#
# Youngs Moduli (GPa) = 88.21556 82.35988 119.55682
#
# Poissons Ratio (x) = 0.40727 0.06210
# Poissons Ratio (y) = 0.43623 0.36349
# Poissons Ratio (z) = 0.04582 0.25040
#
# Static dielectric constant tensor:
#      x y z
#    x 1.992640 0.000000 0.057800 
#    y 0.000000 1.845570 0.000000 
#    z 0.057800 0.000000 1.935680 
# 
# From -- ./inp_files/3475.got.cif
#   From: 2010.05.17/outbox.cif.g08.bks.cpg/sg15_2_cif.got.tgz:3475.got - 2010.06.03 18:47:42.
