data_PCOD9270818
_publ_section_title
;
Structure prediction by ZEFSAII (Michael W. Deem and Ramdas Pophale) SiO2 
 PCOD9270818
Probable space group: C 2/C
;
_chemical_formula_sum "Si O2"
_cell_formula_units_Z 48
_cell_length_a 14.300344
_cell_length_b 13.752281
_cell_length_c 11.359407
_cell_angle_alpha 90.000000
_cell_angle_beta 115.893342
_cell_angle_gamma 90.000000
_cell_volume 2009.696369
_symmetry_space_group_name_H-M "C 2/C"
_symmetry_group_IT_number 15
_symmetry_cell_setting 'monoclinic'
loop_
_space_group_symop_operation_xyz
x,y,z
-x,y,1/2-z
-x,-y,-z
x,-y,1/2+z
1/2+x,1/2+y,z
1/2-x,1/2+y,1/2-z
1/2-x,1/2-y,-z
1/2+x,1/2-y,1/2+z
loop_
_atom_site_type_symbol
_atom_site_label
_atom_site_fract_x
_atom_site_fract_y
_atom_site_fract_z
Si Si1 0.358312 0.869957 0.855920
Si Si2 0.500000 0.638918 0.250000
Si Si3 0.337856 0.464713 0.827578
Si Si4 0.479151 0.834103 0.363249
Si Si5 0.729505 0.341540 0.231455
Si Si6 0.346327 0.676409 0.555792
Si Si7 0.000000 0.692268 0.250000
O O1 0.268152 0.947349 0.803918
O O2 0.304202 0.763964 0.833530
O O3 0.409986 0.870197 0.755938
O O4 0.449064 0.881408 0.999263
O O5 0.574534 0.567570 0.217026
O O6 0.521705 0.723356 0.362094
O O7 0.320043 0.571766 0.871528
O O8 0.345643 0.392982 0.944039
O O9 0.500000 0.885366 0.250000
O O10 0.354807 0.836506 0.314655
O O11 0.671933 0.365028 0.323845
O O12 0.250000 0.750000 0.500000
O O13 0.451878 0.738890 0.622745
#
# Coordination Sequence:
#
# PCOD9270818 Si02
#       7
#     8   4   8   8   8   8   4
#     4  11  22  43  68 100 135 194 231 298 363 418
#     4  10  22  45  67  96 136 196 222 295 365 420
#     4  12  25  42  74 103 146 184 245 307 358 434
#     4  10  23  43  72  94 148 188 238 287 369 440
#     4  11  25  44  69 108 137 191 244 302 356 439
#     4  11  21  45  68  97 142 186 238 296 359 426
#     4  10  20  35  75  94 126 188 238 287 359 418
#
# _framework density 23.884205000000001
#
# number of rings (size 3 to 8) (size 9 to 14) (size 15 to 20)
#    0.500    0.667    5.000    2.000    0.000    8.667 
#    1.500    5.000    0.000    0.000    0.000    0.000 
#    0.000    0.000    0.000    0.000    0.000    0.000 
#
# Total GULP energy -133899.939123 kJ/mol
# GULP energy per Si atom -5579.164130 kJ/mol
# Density = 2.382984 g / cm^3
# Si number density = 23.884205 Si / 1000 Ang^3
#
#
#
# Elastic Constant Matrix: (Units=GPa)
#
#
# Indices 1 2 3 4 5 6 
#
# 1 94.5622 -3.4113 16.6627 0.0000 2.6368 0.0000
# 2 -3.4113 77.7385 -9.4848 0.0000 -1.9018 0.0000
# 3 16.6627 -9.4848 61.9677 0.0000 2.2057 0.0000
# 4 0.0000 0.0000 0.0000 13.8409 0.0000 4.0402
# 5 2.6368 -1.9018 2.2057 0.0000 20.5285 0.0000
# 6 0.0000 0.0000 0.0000 4.0402 0.0000 20.5190
#
#
#
# Elastic Compliance Matrix: (Units=1/GPa)
#
#
# Indices 1 2 3 4 5 6 
#
# 1 0.011127 0.000103 -0.002937 0.000000 -0.001104 0.000000
# 2 0.000103 0.013130 0.001947 0.000000 0.000994 0.000000
# 3 -0.002937 0.001947 0.017271 0.000000 -0.001298 0.000000
# 4 0.000000 0.000000 0.000000 0.076655 0.000000 -0.015093
# 5 -0.001104 0.000994 -0.001298 0.000000 0.049086 0.000000
# 6 0.000000 0.000000 0.000000 -0.015093 0.000000 0.051707
#
#
# Mechanical properties :
#
#
# Convention : Reuss Voigt Hill
#
# Bulk Modulus (GPa) = 25.15495 26.86684 26.01090
# Shear Modulus (GPa) = 21.36724 26.34447 23.85586
#
# Velocity S-wave (km/s) = 2.99426 3.32476 3.16383
# Velocity P-wave (km/s) = 4.74437 5.10019 4.92549
#
# Compressibility (1/GPa) = 0.03975360
#
# Stress axis : x y z
#
# Youngs Moduli (GPa) = 89.87101 76.16157 57.89944
#
# Poissons Ratio (x) = -0.00784 0.17005
# Poissons Ratio (y) = -0.00925 -0.11271
# Poissons Ratio (z) = 0.26394 -0.14826
#
# Static dielectric constant tensor:
#      x y z
#    x 1.905900 0.000000 -0.047480 
#    y 0.000000 2.022500 0.000000 
#    z -0.047480 0.000000 2.030530 
# 
# From -- ./inp_files/97228.got.cif
#   From: 2010.05.17/outbox.cif.g08.bks.cpg/sg15_49_cif.got.tgz:97228.got - 2010.06.03 18:47:42.
