data_PCOD9270645
_publ_section_title
;
Structure prediction by ZEFSAII (Michael W. Deem and Ramdas Pophale) SiO2 
 PCOD9270645
Probable space group: C 2/C
;
_chemical_formula_sum "Si O2"
_cell_formula_units_Z 60
_cell_length_a 17.809726
_cell_length_b 21.689669
_cell_length_c 8.355414
_cell_angle_alpha 90.000000
_cell_angle_beta 69.573197
_cell_angle_gamma 90.000000
_cell_volume 3024.633778
_symmetry_space_group_name_H-M "C 2/C"
_symmetry_group_IT_number 15
_symmetry_cell_setting 'monoclinic'
loop_
_space_group_symop_operation_xyz
x,y,z
-x,y,1/2-z
-x,-y,-z
x,-y,1/2+z
1/2+x,1/2+y,z
1/2-x,1/2+y,1/2-z
1/2-x,1/2-y,-z
1/2+x,1/2-y,1/2+z
loop_
_atom_site_type_symbol
_atom_site_label
_atom_site_fract_x
_atom_site_fract_y
_atom_site_fract_z
Si Si1 0.410630 0.150094 0.104119
Si Si2 0.203674 0.332676 0.524634
Si Si3 0.000000 0.550179 0.250000
Si Si4 0.311941 0.917182 0.421412
Si Si5 0.192879 0.189859 0.031720
Si Si6 0.643973 0.291211 0.928256
Si Si7 0.153493 0.533300 0.945308
Si Si8 0.476445 0.726957 0.455226
O O1 0.341742 0.176591 0.271959
O O2 0.451338 0.094356 0.166603
O O3 0.374256 0.126391 0.966325
O O4 0.472262 0.203622 0.022082
O O5 0.297418 0.320773 0.484056
O O6 0.166463 0.281994 0.430807
O O7 0.186169 0.403057 0.494182
O O8 0.933350 0.518917 0.412111
O O9 0.239137 0.871070 0.439577
O O10 0.347380 0.950356 0.239784
O O11 0.293369 0.973420 0.556369
O O12 0.167590 0.183095 0.236279
O O13 0.114192 0.201595 0.982290
O O14 0.250000 0.250000 0.000000
O O15 0.548619 0.301934 0.004573
O O16 0.500000 0.727040 0.250000
#
# Coordination Sequence:
#
# PCOD9270645 Si02
#       8
#     8   8   4   8   8   8   8   8
#     4  11  21  36  58  86 128 162 197 247 298 372
#     4  10  20  38  60  88 127 165 199 246 305 370
#     4  10  24  40  58  90 128 158 202 244 302 362
#     4  12  25  40  64  84 122 164 208 248 301 375
#     4  11  20  38  60  90 122 158 206 256 307 361
#     4  10  20  35  61  90 124 162 198 253 308 359
#     4  11  25  41  60  89 116 165 204 242 303 364
#     4  10  21  33  58  94 121 156 202 255 310 353
#
# _framework density 19.837112000000001
#
# number of rings (size 3 to 8) (size 9 to 14) (size 15 to 20)
#    0.000    1.333    2.667    4.000    3.733    3.200 
#    0.000    0.000    0.000    0.800    0.000    0.000 
#    0.000    0.000    0.000    0.000    0.000    0.000 
#
# Total GULP energy -167459.952971 kJ/mol
# GULP energy per Si atom -5581.998432 kJ/mol
# Density = 1.979196 g / cm^3
# Si number density = 19.837112 Si / 1000 Ang^3
#
#
#
# Elastic Constant Matrix: (Units=GPa)
#
#
# Indices 1 2 3 4 5 6 
#
# 1 126.4022 12.6268 29.2747 0.0000 -7.5437 0.0000
# 2 12.6268 62.7141 27.3441 0.0000 -9.9599 0.0000
# 3 29.2747 27.3441 71.0404 0.0000 1.7753 0.0000
# 4 0.0000 0.0000 0.0000 1.1296 0.0000 0.8776
# 5 -7.5437 -9.9599 1.7753 0.0000 18.0687 0.0000
# 6 0.0000 0.0000 0.0000 0.8776 0.0000 24.2582
#
#
#
# Elastic Compliance Matrix: (Units=1/GPa)
#
#
# Indices 1 2 3 4 5 6 
#
# 1 0.009069 0.000697 -0.004120 0.000000 0.004575 0.000000
# 2 0.000697 0.021838 -0.009023 0.000000 0.013215 0.000000
# 3 -0.004120 -0.009023 0.019462 0.000000 -0.008606 0.000000
# 4 0.000000 0.000000 0.000000 0.910890 0.000000 -0.032954
# 5 0.004575 0.013215 -0.008606 0.000000 0.065384 0.000000
# 6 0.000000 0.000000 0.000000 -0.032954 0.000000 0.042415
#
#
# Mechanical properties :
#
#
# Convention : Reuss Voigt Hill
#
# Bulk Modulus (GPa) = 39.25053 44.29422 41.77238
# Shear Modulus (GPa) = 4.53538 21.41870 12.97704
#
# Velocity S-wave (km/s) = 1.51370 3.28949 2.56047
# Velocity P-wave (km/s) = 4.78376 6.06672 5.46303
#
# Compressibility (1/GPa) = 0.02547736
#
# Stress axis : x y z
#
# Youngs Moduli (GPa) = 110.26802 45.79176 51.38128
#
# Poissons Ratio (x) = -0.03191 0.21168
# Poissons Ratio (y) = -0.07685 0.46362
# Poissons Ratio (z) = 0.45427 0.41318
#
# Static dielectric constant tensor:
#      x y z
#    x 1.757510 0.000000 -0.002830 
#    y 0.000000 1.676460 0.000000 
#    z -0.002830 0.000000 1.756690 
# 
# From -- ./inp_files/51527.got.cif
#   From: 2010.05.17/outbox.cif.g08.bks.cpg/sg15_26_cif.got.tgz:51527.got - 2010.06.03 18:47:42.
