data_PCOD9270419
_publ_section_title
;
Structure prediction by ZEFSAII (Michael W. Deem and Ramdas Pophale) SiO2 
 PCOD9270419
Probable space group: C 2/C
;
_chemical_formula_sum "Si O2"
_cell_formula_units_Z 48
_cell_length_a 8.201565
_cell_length_b 20.893919
_cell_length_c 13.296523
_cell_angle_alpha 90.000000
_cell_angle_beta 116.871110
_cell_angle_gamma 90.000000
_cell_volume 2032.506854
_symmetry_space_group_name_H-M "C 2/C"
_symmetry_group_IT_number 15
_symmetry_cell_setting 'monoclinic'
loop_
_space_group_symop_operation_xyz
x,y,z
-x,y,1/2-z
-x,-y,-z
x,-y,1/2+z
1/2+x,1/2+y,z
1/2-x,1/2+y,1/2-z
1/2-x,1/2-y,-z
1/2+x,1/2-y,1/2+z
loop_
_atom_site_type_symbol
_atom_site_label
_atom_site_fract_x
_atom_site_fract_y
_atom_site_fract_z
Si Si1 0.229623 0.258436 0.194845
Si Si2 0.893860 0.443040 0.838077
Si Si3 0.310666 0.204472 0.606569
Si Si4 0.249500 0.882960 0.616327
Si Si5 0.069125 0.572157 0.929022
Si Si6 0.657799 0.381660 0.371247
O O1 0.301937 0.271907 0.327843
O O2 0.219460 0.186846 0.153331
O O3 0.321136 0.305581 0.141006
O O4 0.025663 0.281504 0.160109
O O5 0.744544 0.431429 0.710381
O O6 0.026414 0.504748 0.865054
O O7 0.040289 0.385871 0.864307
O O8 0.833195 0.440883 0.936508
O O9 0.250000 0.250000 0.500000
O O10 0.316347 0.127265 0.594693
O O11 0.133941 0.896068 0.483089
O O12 0.858356 0.593000 0.893477
O O13 0.500000 0.404419 0.250000
#
# Coordination Sequence:
#
# PCOD9270419 Si02
#       6
#     8   8   8   8   8   8
#     4  10  22  35  55  88 120 156 210 247 311 370
#     4   9  19  35  65  87 115 156 204 266 290 375
#     4  10  21  37  61  87 122 163 194 258 312 368
#     4  10  20  35  58  90 114 154 209 251 308 357
#     4   9  19  40  62  91 118 158 212 240 317 378
#     4  10  22  36  59  87 124 160 195 261 312 365
#
# _framework density 23.616157000000001
#
# number of rings (size 3 to 8) (size 9 to 14) (size 15 to 20)
#    0.000    2.333    0.000    1.500    4.667    6.667 
#    0.000    0.833   14.667    0.000    0.000    0.000 
#    0.000    0.000    0.000    0.000    0.000    0.000 
#
# Total GULP energy -133703.296009 kJ/mol
# GULP energy per Si atom -5570.970667 kJ/mol
# Density = 2.356241 g / cm^3
# Si number density = 23.616157 Si / 1000 Ang^3
#
#
#
# Elastic Constant Matrix: (Units=GPa)
#
#
# Indices 1 2 3 4 5 6 
#
# 1 52.9324 3.9605 22.2281 0.0000 -0.0049 0.0000
# 2 3.9605 89.3537 34.3594 0.0000 -12.3060 0.0000
# 3 22.2281 34.3594 201.6768 0.0000 -10.4615 0.0000
# 4 0.0000 0.0000 0.0000 27.1690 0.0000 -8.8754
# 5 -0.0049 -12.3060 -10.4615 0.0000 21.5191 0.0000
# 6 0.0000 0.0000 0.0000 -8.8754 0.0000 6.8410
#
#
#
# Elastic Compliance Matrix: (Units=1/GPa)
#
#
# Indices 1 2 3 4 5 6 
#
# 1 0.019836 -0.000190 -0.002215 0.000000 -0.001181 0.000000
# 2 -0.000190 0.012786 -0.001824 0.000000 0.006425 0.000000
# 3 -0.002215 -0.001824 0.005600 0.000000 0.001679 0.000000
# 4 0.000000 0.000000 0.000000 0.063881 0.000000 0.082878
# 5 -0.001181 0.006425 0.001679 0.000000 0.050961 0.000000
# 6 0.000000 0.000000 0.000000 0.082878 0.000000 0.253703
#
#
# Mechanical properties :
#
#
# Convention : Reuss Voigt Hill
#
# Bulk Modulus (GPa) = 33.59735 51.67320 42.63527
# Shear Modulus (GPa) = 11.76063 30.00015 20.88039
#
# Velocity S-wave (km/s) = 2.23399 3.56803 2.97670
# Velocity P-wave (km/s) = 4.57292 6.23718 5.46873
#
# Compressibility (1/GPa) = 0.02976426
#
# Stress axis : x y z
#
# Youngs Moduli (GPa) = 50.41245 78.20921 178.55718
#
# Poissons Ratio (x) = 0.01487 0.39553
# Poissons Ratio (y) = 0.00958 0.32571
# Poissons Ratio (z) = 0.11167 0.14266
#
# Static dielectric constant tensor:
#      x y z
#    x 1.888840 0.000000 0.033050 
#    y 0.000000 2.081260 0.000000 
#    z 0.033050 0.000000 1.845280 
# 
# From -- ./inp_files/136170.got.cif
#   From: 2010.05.17/outbox.cif.g08.bks.cpg/sg15_69_cif.got.tgz:136170.got - 2010.06.03 18:47:42.
