data_PCOD9270055
_publ_section_title
;
Structure prediction by ZEFSAII (Michael W. Deem and Ramdas Pophale) SiO2 
 PCOD9270055
Probable space group: C 2/C
;
_chemical_formula_sum "Si O2"
_cell_formula_units_Z 48
_cell_length_a 14.370254
_cell_length_b 12.024010
_cell_length_c 23.034832
_cell_angle_alpha 90.000000
_cell_angle_beta 32.686518
_cell_angle_gamma 90.000000
_cell_volume 2149.446280
_symmetry_space_group_name_H-M "C 2/C"
_symmetry_group_IT_number 15
_symmetry_cell_setting 'monoclinic'
loop_
_space_group_symop_operation_xyz
x,y,z
-x,y,1/2-z
-x,-y,-z
x,-y,1/2+z
1/2+x,1/2+y,z
1/2-x,1/2+y,1/2-z
1/2-x,1/2-y,-z
1/2+x,1/2-y,1/2+z
loop_
_atom_site_type_symbol
_atom_site_label
_atom_site_fract_x
_atom_site_fract_y
_atom_site_fract_z
Si Si1 0.163602 0.799297 0.806486
Si Si2 0.365719 0.143208 0.958714
Si Si3 0.845189 0.929488 0.027804
Si Si4 0.001889 0.787688 0.185024
Si Si5 0.142632 0.166465 0.491412
Si Si6 0.658670 0.207789 0.403851
O O1 0.323925 0.775400 0.764303
O O2 0.232938 0.833855 0.707211
O O3 0.018947 0.881459 0.906959
O O4 0.061734 0.682650 0.850909
O O5 0.298753 0.055754 0.947747
O O6 0.333943 0.129156 0.043893
O O7 0.250000 0.250000 0.000000
O O8 0.867380 0.053204 0.039100
O O9 0.785161 0.831531 0.102941
O O10 0.047044 0.856580 0.103259
O O11 0.000000 0.841980 0.250000
O O12 0.162566 0.703354 0.102760
O O13 0.033596 0.265159 0.518376
#
# Coordination Sequence:
#
# PCOD9270055 Si02
#       6
#     8   8   8   8   8   8
#     4   9  18  34  57  78 108 147 184 218 284 345
#     4   8  17  31  50  76 113 139 171 225 279 327
#     4  10  20  35  54  87 117 136 191 242 272 327
#     4  10  20  38  58  75 110 153 186 219 290 339
#     4  10  21  37  56  82 115 145 187 241 273 331
#     4   9  17  33  58  78 108 154 176 222 289 332
#
# _framework density 22.331333999999998
#
# number of rings (size 3 to 8) (size 9 to 14) (size 15 to 20)
#    0.000    3.000    0.000    2.500    0.000    6.000 
#   12.000    0.000    0.000    4.000    0.000    0.000 
#    0.000    0.000    0.000    0.000    0.000    0.000 
#
# Total GULP energy -133770.294795 kJ/mol
# GULP energy per Si atom -5573.762283 kJ/mol
# Density = 2.228051 g / cm^3
# Si number density = 22.331334 Si / 1000 Ang^3
#
#
#
# Elastic Constant Matrix: (Units=GPa)
#
#
# Indices 1 2 3 4 5 6 
#
# 1 142.4239 -4.9407 49.5105 -0.0001 -2.9671 0.0000
# 2 -4.9407 27.2407 -2.2710 -0.0002 -13.1424 0.0000
# 3 49.5105 -2.2710 71.2894 -0.0007 -4.1180 0.0001
# 4 -0.0001 -0.0002 -0.0007 9.8358 0.0000 2.5477
# 5 -2.9671 -13.1424 -4.1180 0.0000 33.1064 0.0000
# 6 0.0000 0.0000 0.0001 2.5477 0.0000 17.3086
#
#
#
# Elastic Compliance Matrix: (Units=1/GPa)
#
#
# Indices 1 2 3 4 5 6 
#
# 1 0.009302 0.001453 -0.006378 0.000000 0.000617 0.000000
# 2 0.001453 0.046082 0.001534 0.000001 0.018614 0.000000
# 3 -0.006378 0.001534 0.018642 0.000001 0.002356 0.000000
# 4 0.000000 0.000001 0.000001 0.105700 0.000001 -0.015558
# 5 0.000617 0.018614 0.002356 0.000001 0.037943 0.000000
# 6 0.000000 0.000000 0.000000 -0.015558 0.000000 0.060065
#
#
# Mechanical properties :
#
#
# Convention : Reuss Voigt Hill
#
# Bulk Modulus (GPa) = 14.87134 36.17241 25.52187
# Shear Modulus (GPa) = 16.29038 25.29385 20.79211
#
# Velocity S-wave (km/s) = 2.70383 3.36916 3.05466
# Velocity P-wave (km/s) = 4.05234 5.60073 4.88823
#
# Compressibility (1/GPa) = 0.06724343
#
# Stress axis : x y z
#
# Youngs Moduli (GPa) = 107.50627 21.70058 53.64250
#
# Poissons Ratio (x) = -0.03153 0.34214
# Poissons Ratio (y) = -0.15621 -0.08229
# Poissons Ratio (z) = 0.68569 -0.03329
#
# Static dielectric constant tensor:
#      x y z
#    x 1.955930 0.000000 0.028600 
#    y 0.000000 1.841240 0.000000 
#    z 0.028600 0.000000 1.833000 
# 
# From -- ./inp_files/274276.got.cif
#   From: 2010.05.17/outbox.cif.g08.bks.cpg/sg15_138_cif.got.tgz:274276.got - 2010.06.03 18:47:42.
