data_PCOD9270934
_publ_section_title
;
Structure prediction by ZEFSAII (Michael W. Deem and Ramdas Pophale) SiO2 
 PCOD9270934
Probable space group: C 2/C
;
_chemical_formula_sum "Si O2"
_cell_formula_units_Z 60
_cell_length_a 21.253079
_cell_length_b 26.347206
_cell_length_c 8.703508
_cell_angle_alpha 90.000000
_cell_angle_beta 36.069087
_cell_angle_gamma 90.000000
_cell_volume 2869.388143
_symmetry_space_group_name_H-M "C 2/C"
_symmetry_group_IT_number 15
_symmetry_cell_setting 'monoclinic'
loop_
_space_group_symop_operation_xyz
x,y,z
-x,y,1/2-z
-x,-y,-z
x,-y,1/2+z
1/2+x,1/2+y,z
1/2-x,1/2+y,1/2-z
1/2-x,1/2-y,-z
1/2+x,1/2-y,1/2+z
loop_
_atom_site_type_symbol
_atom_site_label
_atom_site_fract_x
_atom_site_fract_y
_atom_site_fract_z
Si Si1 0.500000 0.176980 0.750000
Si Si2 0.559920 0.615027 0.904910
Si Si3 0.624845 0.530093 0.546320
Si Si4 0.596083 0.279718 0.179187
Si Si5 0.066775 0.337130 0.783515
Si Si6 0.772887 0.861636 0.205629
Si Si7 0.676823 0.430380 0.628264
Si Si8 0.793932 0.744743 0.086484
O O1 0.526178 0.147810 0.535351
O O2 0.598642 0.213102 0.606146
O O3 0.617731 0.577781 0.672774
O O4 0.579268 0.673429 0.824040
O O5 0.622738 0.609278 0.939142
O O6 0.437109 0.599125 0.137421
O O7 0.500000 0.518689 0.750000
O O8 0.668869 0.480494 0.540685
O O9 0.692224 0.547964 0.267555
O O10 0.500000 0.284153 0.250000
O O11 0.587730 0.223400 0.263953
O O12 0.705729 0.281633 0.868696
O O13 0.178427 0.362926 0.515895
O O14 0.000000 0.340867 0.750000
O O15 0.801964 0.803274 0.121027
O O16 0.743426 0.889906 0.105356
O O17 0.750000 0.750000 0.000000
#
# Coordination Sequence:
#
# PCOD9270934 Si02
#       8
#     4   8   8   8   8   8   8   8
#     4  12  22  40  64  84 120 180 210 262 332 366
#     4  11  21  33  56  89 122 161 205 239 306 389
#     4  10  20  36  55  85 127 163 194 243 307 381
#     4  10  20  37  55  83 127 164 203 264 305 369
#     4  10  23  43  59  85 124 164 216 268 315 364
#     4  11  23  37  56  87 117 159 205 260 305 370
#     4  11  22  36  59  87 124 165 196 249 309 379
#     4  11  25  37  60  90 127 169 225 271 318 376
#
# _framework density 20.910381000000001
#
# number of rings (size 3 to 8) (size 9 to 14) (size 15 to 20)
#    0.000    1.333    0.000    8.800    7.467    2.133 
#    2.400    0.000    0.000    0.000    0.000    3.733 
#    0.000    0.000    0.000    0.000    0.000    0.000 
#
# Total GULP energy -167487.279052 kJ/mol
# GULP energy per Si atom -5582.909302 kJ/mol
# Density = 2.086279 g / cm^3
# Si number density = 20.910381 Si / 1000 Ang^3
#
#
#
# Elastic Constant Matrix: (Units=GPa)
#
#
# Indices 1 2 3 4 5 6 
#
# 1 66.9819 11.3587 27.7100 0.0000 10.8448 0.0000
# 2 11.3587 50.3872 19.9794 0.0000 20.3194 0.0000
# 3 27.7100 19.9794 91.5287 0.0000 26.2379 0.0000
# 4 0.0000 0.0000 0.0000 27.1853 0.0000 10.7275
# 5 10.8448 20.3194 26.2379 0.0000 37.2346 0.0000
# 6 0.0000 0.0000 0.0000 10.7275 0.0000 -2.6826
#
#
#
# Elastic Compliance Matrix: (Units=1/GPa)
#
#
# Indices 1 2 3 4 5 6 
#
# 1 0.017265 -0.001726 -0.004610 0.000000 -0.000838 0.000000
# 2 -0.001726 0.025906 -0.001534 0.000000 -0.012554 0.000000
# 3 -0.004610 -0.001534 0.015077 0.000000 -0.008444 0.000000
# 4 0.000000 0.000000 0.000000 0.014268 0.000000 0.057059
# 5 -0.000838 -0.012554 -0.008444 0.000000 0.039902 0.000000
# 6 0.000000 0.000000 0.000000 0.057059 0.000000 -0.144598
#
#
# Mechanical properties :
#
#
# Convention : Reuss Voigt Hill
#
# Bulk Modulus (GPa) = 23.52476 36.33265 29.92870
# Shear Modulus (GPa) = -2201.59639 22.33745 -1089.62947
#
# Velocity S-wave (km/s) = -32.48320 3.27195 -22.85227
# Velocity P-wave (km/s) = 37.35777 5.62915 26.11432
#
# Compressibility (1/GPa) = 0.04250841
#
# Stress axis : x y z
#
# Youngs Moduli (GPa) = 57.92102 38.60107 66.32787
#
# Poissons Ratio (x) = 0.06663 0.30576
# Poissons Ratio (y) = 0.09998 0.10172
# Poissons Ratio (z) = 0.26701 0.05920
#
# Static dielectric constant tensor:
#      x y z
#    x 1.830920 0.000000 0.005760 
#    y 0.000000 1.714460 0.000000 
#    z 0.005760 0.000000 1.760550 
# 
# From -- ./inp_files/59124.got.cif
#   From: 2010.05.17/outbox.cif.g08.bks.cpg/sg15_30_cif.got.tgz:59124.got - 2010.06.03 18:47:42.
