data_PCOD9270800
_publ_section_title
;
Structure prediction by ZEFSAII (Michael W. Deem and Ramdas Pophale) SiO2 
 PCOD9270800
Probable space group: C 2/C
;
_chemical_formula_sum "Si O2"
_cell_formula_units_Z 56
_cell_length_a 14.095431
_cell_length_b 9.126735
_cell_length_c 23.639912
_cell_angle_alpha 90.000000
_cell_angle_beta 132.983414
_cell_angle_gamma 90.000000
_cell_volume 2224.765912
_symmetry_space_group_name_H-M "C 2/C"
_symmetry_group_IT_number 15
_symmetry_cell_setting 'monoclinic'
loop_
_space_group_symop_operation_xyz
x,y,z
-x,y,1/2-z
-x,-y,-z
x,-y,1/2+z
1/2+x,1/2+y,z
1/2-x,1/2+y,1/2-z
1/2-x,1/2-y,-z
1/2+x,1/2-y,1/2+z
loop_
_atom_site_type_symbol
_atom_site_label
_atom_site_fract_x
_atom_site_fract_y
_atom_site_fract_z
Si Si1 0.500000 0.837643 0.750000
Si Si2 0.000000 0.818615 0.750000
Si Si3 0.024632 0.767163 0.137477
Si Si4 0.261099 0.442561 0.720987
Si Si5 0.179816 0.414839 0.382394
Si Si6 0.359400 0.980490 0.514474
Si Si7 0.117226 0.015104 0.111827
Si Si8 0.617917 0.846852 0.088359
O O1 0.467536 0.739249 0.791478
O O2 0.393009 0.946788 0.678194
O O3 0.893274 0.904981 0.742674
O O4 0.914984 0.718241 0.672489
O O5 0.156620 0.686667 0.170052
O O6 0.914408 0.661993 0.068896
O O7 0.008789 0.923445 0.101115
O O8 0.283580 0.458884 0.796289
O O9 0.197257 0.592981 0.673865
O O10 0.200977 0.431990 0.457917
O O11 0.318389 0.412858 0.408966
O O12 0.304480 0.913839 0.434030
O O13 0.477337 0.080786 0.539799
O O14 0.096972 0.174393 0.077776
#
# Coordination Sequence:
#
# PCOD9270800 Si02
#       8
#     4   4   8   8   8   8   8   8
#     4   9  18  35  58  92 123 161 202 252 315 369
#     4  11  22  39  62  96 125 165 210 260 313 369
#     4  10  20  37  64  91 125 163 208 255 312 375
#     4  11  22  39  62  93 125 164 206 260 314 369
#     4  10  20  35  66  89 121 164 207 254 310 369
#     4   9  21  44  64  85 124 172 207 245 315 383
#     4  12  22  36  63  93 125 157 205 268 311 359
#     4  10  23  41  66  89 126 165 206 258 312 372
#
# _framework density 25.171188000000001
#
# number of rings (size 3 to 8) (size 9 to 14) (size 15 to 20)
#    0.000    1.714    2.857    1.714    2.000    1.714 
#    2.571    0.714    3.143    0.000    0.000    0.000 
#    0.000    0.000    0.000    0.000    0.000    0.000 
#
# Total GULP energy -156529.291153 kJ/mol
# GULP energy per Si atom -5590.331827 kJ/mol
# Density = 2.511390 g / cm^3
# Si number density = 25.171188 Si / 1000 Ang^3
#
#
#
# Elastic Constant Matrix: (Units=GPa)
#
#
# Indices 1 2 3 4 5 6 
#
# 1 90.0773 10.2303 7.9233 0.0000 -29.5962 0.0000
# 2 10.2303 68.8387 -3.0358 0.0000 9.5689 0.0000
# 3 7.9233 -3.0358 63.4379 0.0000 -17.6346 0.0000
# 4 0.0000 0.0000 0.0000 13.4476 0.0000 -7.4010
# 5 -29.5962 9.5689 -17.6346 0.0000 34.4978 0.0000
# 6 0.0000 0.0000 0.0000 -7.4010 0.0000 19.1719
#
#
#
# Elastic Compliance Matrix: (Units=1/GPa)
#
#
# Indices 1 2 3 4 5 6 
#
# 1 0.017108 -0.004835 0.002430 0.000000 0.017260 0.000000
# 2 -0.004835 0.016490 -0.001202 0.000000 -0.009336 0.000000
# 3 0.002430 -0.001202 0.018737 0.000000 0.011996 0.000000
# 4 0.000000 0.000000 0.000000 0.094424 0.000000 0.036451
# 5 0.017260 -0.009336 0.011996 0.000000 0.052517 0.000000
# 6 0.000000 0.000000 0.000000 0.036451 0.000000 0.066231
#
#
# Mechanical properties :
#
#
# Convention : Reuss Voigt Hill
#
# Bulk Modulus (GPa) = 22.16252 28.06553 25.11402
# Shear Modulus (GPa) = 17.37545 27.23917 22.30731
#
# Velocity S-wave (km/s) = 2.63019 3.29318 2.98018
# Velocity P-wave (km/s) = 4.24826 5.06302 4.67343
#
# Compressibility (1/GPa) = 0.04512122
#
# Stress axis : x y z
#
# Youngs Moduli (GPa) = 58.45190 60.64299 53.36988
#
# Poissons Ratio (x) = 0.29318 -0.12969
# Poissons Ratio (y) = 0.28259 0.06417
# Poissons Ratio (z) = -0.14204 0.07291
#
# Static dielectric constant tensor:
#      x y z
#    x 2.009740 0.000000 0.032530 
#    y 0.000000 2.007820 0.000000 
#    z 0.032530 0.000000 1.995140 
# 
# From -- ./inp_files/273280.got.cif
#   From: 2010.05.17/outbox.cif.g08.bks.cpg/sg15_137_cif.got.tgz:273280.got - 2010.06.03 18:47:42.
