data_PCOD9270418
_publ_section_title
;
Structure prediction by ZEFSAII (Michael W. Deem and Ramdas Pophale) SiO2 
 PCOD9270418
Probable space group: C 2/C
;
_chemical_formula_sum "Si O2"
_cell_formula_units_Z 40
_cell_length_a 12.480395
_cell_length_b 10.214732
_cell_length_c 19.673804
_cell_angle_alpha 90.000000
_cell_angle_beta 44.110846
_cell_angle_gamma 90.000000
_cell_volume 1745.754981
_symmetry_space_group_name_H-M "C 2/C"
_symmetry_group_IT_number 15
_symmetry_cell_setting 'monoclinic'
loop_
_space_group_symop_operation_xyz
x,y,z
-x,y,1/2-z
-x,-y,-z
x,-y,1/2+z
1/2+x,1/2+y,z
1/2-x,1/2+y,1/2-z
1/2-x,1/2-y,-z
1/2+x,1/2-y,1/2+z
loop_
_atom_site_type_symbol
_atom_site_label
_atom_site_fract_x
_atom_site_fract_y
_atom_site_fract_z
Si Si1 0.852589 0.007794 0.641309
Si Si2 0.091757 0.817711 0.506383
Si Si3 0.216816 0.561404 0.464194
Si Si4 0.023216 0.545763 0.316015
Si Si5 0.890832 0.822394 0.396961
O O1 0.826687 0.084412 0.582962
O O2 0.989896 0.091093 0.612875
O O3 0.698574 0.990322 0.753786
O O4 0.916168 0.864865 0.590970
O O5 0.124087 0.671785 0.465720
O O6 0.157189 0.852022 0.551521
O O7 0.303647 0.436251 0.393263
O O8 0.094180 0.511068 0.575594
O O9 0.000000 0.493787 0.250000
O O10 0.990907 0.700942 0.326180
O O11 0.750000 0.750000 0.500000
#
# Coordination Sequence:
#
# PCOD9270418 Si02
#       5
#     8   8   8   8   8
#     4  10  20  35  58  90 111 155 200 241 290 356
#     4   9  18  34  61  82 113 149 198 233 290 356
#     4   9  18  37  58  83 111 156 189 239 293 351
#     4  11  21  36  58  83 116 153 194 246 301 344
#     4   9  21  39  56  81 121 156 193 239 303 356
#
# _framework density 22.912721999999999
#
# number of rings (size 3 to 8) (size 9 to 14) (size 15 to 20)
#    0.000    2.400    2.000    0.000    5.600    0.000 
#    0.000    6.000    0.000    0.000    0.000    0.000 
#    0.000    0.000    0.000    0.000    0.000    0.000 
#
# Total GULP energy -111358.263012 kJ/mol
# GULP energy per Si atom -5567.913151 kJ/mol
# Density = 2.286057 g / cm^3
# Si number density = 22.912722 Si / 1000 Ang^3
#
#
#
# Elastic Constant Matrix: (Units=GPa)
#
#
# Indices 1 2 3 4 5 6 
#
# 1 28.6068 20.3341 20.5085 0.0000 -16.1265 0.0000
# 2 20.3341 93.4544 6.4269 0.0000 -24.0286 0.0000
# 3 20.5085 6.4269 53.2764 0.0000 -25.3756 0.0000
# 4 0.0000 0.0000 0.0000 27.3314 0.0000 -14.0007
# 5 -16.1265 -24.0286 -25.3756 0.0000 19.7020 0.0000
# 6 0.0000 0.0000 0.0000 -14.0007 0.0000 32.8938
#
#
#
# Elastic Compliance Matrix: (Units=1/GPa)
#
#
# Indices 1 2 3 4 5 6 
#
# 1 0.064935 -0.000658 0.000042 0.000000 0.052403 0.000000
# 2 -0.000658 0.028618 0.034068 0.000000 0.078242 0.000000
# 3 0.000042 0.034068 0.089124 0.000000 0.156373 0.000000
# 4 0.000000 0.000000 0.000000 0.046790 0.000000 0.019915
# 5 0.052403 0.078242 0.156373 0.000000 0.390476 0.000000
# 6 0.000000 0.000000 0.000000 0.019915 0.000000 0.038877
#
#
# Mechanical properties :
#
#
# Convention : Reuss Voigt Hill
#
# Bulk Modulus (GPa) = 4.00671 29.98628 16.99650
# Shear Modulus (GPa) = 7.40620 24.52333 15.96476
#
# Velocity S-wave (km/s) = 1.79982 3.27508 2.64249
# Velocity P-wave (km/s) = 2.46407 5.23614 4.09199
#
# Compressibility (1/GPa) = 0.24958139
#
# Stress axis : x y z
#
# Youngs Moduli (GPa) = 15.39995 34.94311 11.22027
#
# Poissons Ratio (x) = 0.02300 -0.00048
# Poissons Ratio (y) = 0.01013 -0.38225
# Poissons Ratio (z) = -0.00065 -1.19043
#
# Static dielectric constant tensor:
#      x y z
#    x 1.987990 0.000000 -0.024660 
#    y 0.000000 1.911180 0.000000 
#    z -0.024660 0.000000 1.859440 
# 
# From -- ./inp_files/294690.got.cif
#   From: 2010.05.17/outbox.cif.g08.bks.cpg/sg15_148_cif.got.tgz:294690.got - 2010.06.03 18:47:42.
