data_PCOD9270952
_publ_section_title
;
Structure prediction by ZEFSAII (Michael W. Deem and Ramdas Pophale) SiO2 
 PCOD9270952
Probable space group: C 2/C
;
_chemical_formula_sum "Si O2"
_cell_formula_units_Z 56
_cell_length_a 12.035702
_cell_length_b 8.908596
_cell_length_c 24.659775
_cell_angle_alpha 90.000000
_cell_angle_beta 61.788261
_cell_angle_gamma 90.000000
_cell_volume 2329.955085
_symmetry_space_group_name_H-M "C 2/C"
_symmetry_group_IT_number 15
_symmetry_cell_setting 'monoclinic'
loop_
_space_group_symop_operation_xyz
x,y,z
-x,y,1/2-z
-x,-y,-z
x,-y,1/2+z
1/2+x,1/2+y,z
1/2-x,1/2+y,1/2-z
1/2-x,1/2-y,-z
1/2+x,1/2-y,1/2+z
loop_
_atom_site_type_symbol
_atom_site_label
_atom_site_fract_x
_atom_site_fract_y
_atom_site_fract_z
Si Si1 0.984655 0.824701 0.998748
Si Si2 0.480959 0.079749 0.444720
Si Si3 0.873227 0.030999 0.347261
Si Si4 0.345357 0.584138 0.738065
Si Si5 0.778907 0.259541 0.921023
Si Si6 0.262530 0.133795 0.309408
Si Si7 0.517034 0.777491 0.114111
O O1 0.129548 0.773976 0.958187
O O2 0.922023 0.783025 0.956446
O O3 0.937441 0.731194 0.061795
O O4 0.000000 0.000000 0.000000
O O5 0.350597 0.151092 0.451552
O O6 0.500000 0.000000 0.500000
O O7 0.506702 0.951649 0.394243
O O8 0.813464 0.002406 0.302017
O O9 0.810187 0.916660 0.404900
O O10 0.013568 0.962299 0.309161
O O11 0.893701 0.202430 0.361103
O O12 0.338206 0.758488 0.752038
O O13 0.253126 0.528978 0.712227
O O14 0.816634 0.344607 0.856547
O O15 0.120729 0.204761 0.344361
#
# Coordination Sequence:
#
# PCOD9270952 Si02
#       7
#     8   8   8   8   8   8   8
#     4  10  20  37  57  76 105 145 185 228 277 332
#     4  10  21  36  54  80 109 139 182 231 276 326
#     4   9  18  35  56  76 107 145 180 220 275 333
#     4   9  18  33  54  80 107 142 181 221 270 328
#     4  10  20  36  56  78 105 144 185 223 275 334
#     4   9  19  34  53  78 108 142 180 219 268 326
#     4   9  19  35  52  78 110 139 177 228 273 317
#
# _framework density 24.034799
#
# number of rings (size 3 to 8) (size 9 to 14) (size 15 to 20)
#    0.000    2.571    0.000    1.286    0.000    2.286 
#    0.000   10.714    0.000    0.000    0.000    0.000 
#    0.000    0.000    0.000    0.000    0.000    0.000 
#
# Total GULP energy -156002.353463 kJ/mol
# GULP energy per Si atom -5571.512624 kJ/mol
# Density = 2.398009 g / cm^3
# Si number density = 24.034799 Si / 1000 Ang^3
#
#
#
# Elastic Constant Matrix: (Units=GPa)
#
#
# Indices 1 2 3 4 5 6 
#
# 1 52.6269 16.1361 14.0821 0.0000 8.0667 0.0000
# 2 16.1361 88.0772 30.7998 0.0000 -2.8251 0.0000
# 3 14.0821 30.7998 34.2416 0.0000 -4.3952 0.0000
# 4 0.0000 0.0000 0.0000 31.8310 0.0000 11.9236
# 5 8.0667 -2.8251 -4.3952 0.0000 15.0211 0.0000
# 6 0.0000 0.0000 0.0000 11.9236 0.0000 34.3791
#
#
#
# Elastic Compliance Matrix: (Units=1/GPa)
#
#
# Indices 1 2 3 4 5 6 
#
# 1 0.025018 -0.001120 -0.011464 0.000000 -0.017000 0.000000
# 2 -0.001120 0.016638 -0.014574 0.000000 -0.000534 0.000000
# 3 -0.011464 -0.014574 0.049318 0.000000 0.017846 0.000000
# 4 0.000000 0.000000 0.000000 0.036107 0.000000 -0.012523
# 5 -0.017000 -0.000534 0.017846 0.000000 0.080824 0.000000
# 6 0.000000 0.000000 0.000000 -0.012523 0.000000 0.033431
#
#
# Mechanical properties :
#
#
# Convention : Reuss Voigt Hill
#
# Bulk Modulus (GPa) = 27.27763 32.99797 30.13780
# Shear Modulus (GPa) = 16.24057 23.84141 20.04099
#
# Velocity S-wave (km/s) = 2.60226 3.15295 2.89075
# Velocity P-wave (km/s) = 4.51696 5.19748 4.86912
#
# Compressibility (1/GPa) = 0.03666008
#
# Stress axis : x y z
#
# Youngs Moduli (GPa) = 39.97047 60.10344 20.27648
#
# Poissons Ratio (x) = 0.06732 0.23245
# Poissons Ratio (y) = 0.04477 0.29550
# Poissons Ratio (z) = 0.45821 0.87592
#
# Static dielectric constant tensor:
#      x y z
#    x 1.921820 0.000000 0.014360 
#    y 0.000000 3.235020 0.000000 
#    z 0.014360 0.000000 2.096800 
# 
# From -- ./inp_files/272641.got.cif
#   From: 2010.05.17/outbox.cif.g08.bks.cpg/sg15_137_cif.got.tgz:272641.got - 2010.06.03 18:47:42.
