data_PCOD9270922
_publ_section_title
;
Structure prediction by ZEFSAII (Michael W. Deem and Ramdas Pophale) SiO2 
 PCOD9270922
Probable space group: C 2/C
;
_chemical_formula_sum "Si O2"
_cell_formula_units_Z 64
_cell_length_a 14.188934
_cell_length_b 8.636641
_cell_length_c 30.171801
_cell_angle_alpha 90.000000
_cell_angle_beta 114.229101
_cell_angle_gamma 90.000000
_cell_volume 3371.698277
_symmetry_space_group_name_H-M "C 2/C"
_symmetry_group_IT_number 15
_symmetry_cell_setting 'monoclinic'
loop_
_space_group_symop_operation_xyz
x,y,z
-x,y,1/2-z
-x,-y,-z
x,-y,1/2+z
1/2+x,1/2+y,z
1/2-x,1/2+y,1/2-z
1/2-x,1/2-y,-z
1/2+x,1/2-y,1/2+z
loop_
_atom_site_type_symbol
_atom_site_label
_atom_site_fract_x
_atom_site_fract_y
_atom_site_fract_z
Si Si1 0.600217 0.156238 0.885319
Si Si2 0.471597 0.573494 0.194097
Si Si3 0.423199 0.716119 0.408821
Si Si4 0.686640 0.768677 0.592034
Si Si5 0.232522 0.897546 0.372464
Si Si6 0.914087 0.905492 0.357673
Si Si7 0.604579 0.187800 0.407312
Si Si8 0.029758 0.329104 0.988918
O O1 0.559140 0.268297 0.837867
O O2 0.517741 0.183465 0.908221
O O3 0.715126 0.216776 0.917262
O O4 0.611320 0.972729 0.882000
O O5 0.500000 0.602581 0.250000
O O6 0.370544 0.460851 0.171682
O O7 0.565906 0.489514 0.185576
O O8 0.314894 0.778225 0.367573
O O9 0.443193 0.542566 0.397216
O O10 0.420664 0.737435 0.460820
O O11 0.685697 0.672212 0.638370
O O12 0.577896 0.749364 0.546677
O O13 0.701554 0.949731 0.604551
O O14 0.188811 0.810119 0.407164
O O15 0.995635 0.766645 0.374510
O O16 0.601421 0.161395 0.459314
O O17 0.000000 0.500000 0.000000
#
# Coordination Sequence:
#
# PCOD9270922 Si02
#       8
#     8   8   8   8   8   8   8   8
#     4  10  20  36  59  82 115 151 187 236 293 337
#     4   9  20  40  63  87 108 136 182 235 290 357
#     4  11  20  36  56  84 118 158 194 238 283 332
#     4  10  20  36  55  81 116 156 193 234 282 334
#     4  10  20  36  59  82 115 151 185 235 293 336
#     4   9  20  37  59  82 115 150 187 236 292 334
#     4  10  20  36  55  83 117 157 193 237 284 336
#     4  11  20  36  55  81 119 158 206 239 272 336
#
# _framework density 18.981532999999999
#
# number of rings (size 3 to 8) (size 9 to 14) (size 15 to 20)
#    0.000    2.000    2.500    2.250    0.000    3.000 
#    0.000    7.500    0.000    0.000    0.000    0.000 
#    0.000    0.000    0.000    0.000    0.000    0.000 
#
# Total GULP energy -178188.145133 kJ/mol
# GULP energy per Si atom -5568.379535 kJ/mol
# Density = 1.893833 g / cm^3
# Si number density = 18.981533 Si / 1000 Ang^3
#
#
#
# Elastic Constant Matrix: (Units=GPa)
#
#
# Indices 1 2 3 4 5 6 
#
# 1 78.7796 -2.4789 23.2575 0.0000 -3.1252 0.0000
# 2 -2.4789 81.5774 29.5189 0.0000 -5.9027 0.0000
# 3 23.2575 29.5189 89.4819 0.0000 -11.5747 0.0000
# 4 0.0000 0.0000 0.0000 16.0800 0.0000 -6.4794
# 5 -3.1252 -5.9027 -11.5747 0.0000 19.9198 0.0000
# 6 0.0000 0.0000 0.0000 -6.4794 0.0000 37.9219
#
#
#
# Elastic Compliance Matrix: (Units=1/GPa)
#
#
# Indices 1 2 3 4 5 6 
#
# 1 0.014027 0.001991 -0.004262 0.000000 0.000314 0.000000
# 2 0.001991 0.014248 -0.005008 0.000000 0.001625 0.000000
# 3 -0.004262 -0.005008 0.014767 0.000000 0.006428 0.000000
# 4 0.000000 0.000000 0.000000 0.066787 0.000000 0.011411
# 5 0.000314 0.001625 0.006428 0.000000 0.054467 0.000000
# 6 0.000000 0.000000 0.000000 0.011411 0.000000 0.028320
#
#
# Mechanical properties :
#
#
# Convention : Reuss Voigt Hill
#
# Bulk Modulus (GPa) = 35.10628 38.93708 37.02168
# Shear Modulus (GPa) = 23.07677 28.08711 25.58194
#
# Velocity S-wave (km/s) = 3.49054 3.85087 3.67512
# Velocity P-wave (km/s) = 5.89748 6.35058 6.12822
#
# Compressibility (1/GPa) = 0.02848494
#
# Stress axis : x y z
#
# Youngs Moduli (GPa) = 71.29102 70.18323 67.72018
#
# Poissons Ratio (x) = -0.13975 0.28862
# Poissons Ratio (y) = -0.14195 0.33913
# Poissons Ratio (z) = 0.30384 0.35146
#
# Static dielectric constant tensor:
#      x y z
#    x 1.712640 0.000000 -0.011630 
#    y 0.000000 1.679080 0.000000 
#    z -0.011630 0.000000 1.642040 
# 
# From -- ./inp_files/295194.got.cif
#   From: 2010.05.17/outbox.cif.g08.bks.cpg/sg15_148_cif.got.tgz:295194.got - 2010.06.03 18:47:42.
