data_PCOD9270715
_publ_section_title
;
Structure prediction by ZEFSAII (Michael W. Deem and Ramdas Pophale) SiO2 
 PCOD9270715
Probable space group: C 2/C
;
_chemical_formula_sum "Si O2"
_cell_formula_units_Z 56
_cell_length_a 7.848575
_cell_length_b 21.530648
_cell_length_c 14.635230
_cell_angle_alpha 90.000000
_cell_angle_beta 66.478105
_cell_angle_gamma 90.000000
_cell_volume 2267.634480
_symmetry_space_group_name_H-M "C 2/C"
_symmetry_group_IT_number 15
_symmetry_cell_setting 'monoclinic'
loop_
_space_group_symop_operation_xyz
x,y,z
-x,y,1/2-z
-x,-y,-z
x,-y,1/2+z
1/2+x,1/2+y,z
1/2-x,1/2+y,1/2-z
1/2-x,1/2-y,-z
1/2+x,1/2-y,1/2+z
loop_
_atom_site_type_symbol
_atom_site_label
_atom_site_fract_x
_atom_site_fract_y
_atom_site_fract_z
Si Si1 0.371287 0.273125 0.865195
Si Si2 0.336659 0.592503 0.718472
Si Si3 0.964470 0.440405 0.098808
Si Si4 0.559495 0.159932 0.328684
Si Si5 0.800785 0.441097 0.946744
Si Si6 0.216043 0.146622 0.966678
Si Si7 0.854632 0.943638 0.702212
O O1 0.500000 0.271873 0.750000
O O2 0.173401 0.296768 0.870606
O O3 0.342142 0.206218 0.914579
O O4 0.425576 0.324569 0.929322
O O5 0.500000 0.614620 0.750000
O O6 0.134142 0.603270 0.806143
O O7 0.357540 0.619449 0.612957
O O8 0.332930 0.517457 0.720166
O O9 0.054537 0.504388 0.115573
O O10 0.146390 0.405210 0.021086
O O11 0.808193 0.452570 0.054170
O O12 0.500000 0.195541 0.250000
O O13 0.390841 0.126348 0.415050
O O14 0.687327 0.103363 0.262126
O O15 0.629422 0.442607 0.912854
O O16 0.000000 0.925516 0.750000
#
# Coordination Sequence:
#
# PCOD9270715 Si02
#       7
#     8   8   8   8   8   8   8
#     4  11  24  45  67  99 134 175 227 283 340 397
#     4  11  23  40  61  97 134 170 224 283 337 389
#     4  11  20  39  65  92 132 174 228 274 338 410
#     4  10  20  38  61  93 130 174 220 269 335 407
#     4  10  20  35  62  95 128 176 223 274 337 411
#     4  11  24  43  72  95 128 185 231 275 339 409
#     4  10  20  36  58  93 133 173 215 275 340 399
#
# _framework density 24.695336999999999
#
# number of rings (size 3 to 8) (size 9 to 14) (size 15 to 20)
#    0.000    1.429    4.286    1.714    0.000    0.571 
#    7.714    1.429    0.000    4.286    0.000    0.000 
#    0.000    0.000    0.000    0.000    0.000    0.000 
#
# Total GULP energy -156371.040066 kJ/mol
# GULP energy per Si atom -5584.680002 kJ/mol
# Density = 2.463913 g / cm^3
# Si number density = 24.695337 Si / 1000 Ang^3
#
#
#
# Elastic Constant Matrix: (Units=GPa)
#
#
# Indices 1 2 3 4 5 6 
#
# 1 86.1253 11.6672 34.9451 0.0000 48.3248 0.0000
# 2 11.6672 74.0214 13.5228 0.0000 6.4795 0.0000
# 3 34.9451 13.5228 129.2277 0.0000 26.7890 0.0000
# 4 0.0000 0.0000 0.0000 36.6068 0.0000 6.9342
# 5 48.3248 6.4795 26.7890 0.0000 51.7041 0.0000
# 6 0.0000 0.0000 0.0000 6.9342 0.0000 23.0231
#
#
#
# Elastic Compliance Matrix: (Units=1/GPa)
#
#
# Indices 1 2 3 4 5 6 
#
# 1 0.025127 -0.001646 -0.002013 0.000000 -0.022236 0.000000
# 2 -0.001646 0.013937 -0.001087 0.000000 0.000355 0.000000
# 3 -0.002013 -0.001087 0.008938 0.000000 -0.002613 0.000000
# 4 0.000000 0.000000 0.000000 0.028970 0.000000 -0.008725
# 5 -0.022236 0.000355 -0.002613 0.000000 0.041433 0.000000
# 6 0.000000 0.000000 0.000000 -0.008725 0.000000 0.046063
#
#
# Mechanical properties :
#
#
# Convention : Reuss Voigt Hill
#
# Bulk Modulus (GPa) = 25.96768 45.51606 35.74187
# Shear Modulus (GPa) = 26.76718 37.54943 32.15830
#
# Velocity S-wave (km/s) = 3.29583 3.90360 3.61252
# Velocity P-wave (km/s) = 5.00214 6.22804 5.64844
#
# Compressibility (1/GPa) = 0.03850941
#
# Stress axis : x y z
#
# Youngs Moduli (GPa) = 39.79760 71.75381 111.88044
#
# Poissons Ratio (x) = 0.11813 0.22522
# Poissons Ratio (y) = 0.06552 0.12159
# Poissons Ratio (z) = 0.08011 0.07798
#
# Static dielectric constant tensor:
#      x y z
#    x 2.024430 0.000000 -0.027980 
#    y 0.000000 1.900430 0.000000 
#    z -0.027980 0.000000 2.105450 
# 
# From -- ./inp_files/137268.got.cif
#   From: 2010.05.17/outbox.cif.g08.bks.cpg/sg15_69_cif.got.tgz:137268.got - 2010.06.03 18:47:42.
