data_PCOD9270176
_publ_section_title
;
Structure prediction by ZEFSAII (Michael W. Deem and Ramdas Pophale) SiO2 
 PCOD9270176
Probable space group: C 2/C
;
_chemical_formula_sum "Si O2"
_cell_formula_units_Z 64
_cell_length_a 30.616998
_cell_length_b 12.442583
_cell_length_c 14.409735
_cell_angle_alpha 90.000000
_cell_angle_beta 140.354493
_cell_angle_gamma 90.000000
_cell_volume 3502.467959
_symmetry_space_group_name_H-M "C 2/C"
_symmetry_group_IT_number 15
_symmetry_cell_setting 'monoclinic'
loop_
_space_group_symop_operation_xyz
x,y,z
-x,y,1/2-z
-x,-y,-z
x,-y,1/2+z
1/2+x,1/2+y,z
1/2-x,1/2+y,1/2-z
1/2-x,1/2-y,-z
1/2+x,1/2-y,1/2+z
loop_
_atom_site_type_symbol
_atom_site_label
_atom_site_fract_x
_atom_site_fract_y
_atom_site_fract_z
Si Si1 0.298881 0.103300 0.614504
Si Si2 0.349126 0.689299 0.094230
Si Si3 0.064186 0.299197 0.420035
Si Si4 0.232185 0.001421 0.324012
Si Si5 0.546632 0.666980 0.578146
Si Si6 0.090449 0.079024 0.137194
Si Si7 0.832469 0.444701 0.824093
Si Si8 0.192036 0.230573 0.829338
O O1 0.339670 0.206113 0.644228
O O2 0.227111 0.142369 0.542511
O O3 0.275565 0.037063 0.485384
O O4 0.339272 0.031016 0.753520
O O5 0.383236 0.727444 0.054970
O O6 0.393914 0.606928 0.228931
O O7 0.043118 0.233943 0.477232
O O8 0.099906 0.409082 0.510475
O O9 0.000000 0.318959 0.250000
O O10 0.164981 0.078071 0.211713
O O11 0.276993 0.015522 0.306694
O O12 0.209105 0.879159 0.302999
O O13 0.470405 0.657360 0.495910
O O14 0.565196 0.543252 0.586889
O O15 0.613915 0.714511 0.739338
O O16 0.808524 0.333203 0.738125
O O17 0.250000 0.250000 0.000000
#
# Coordination Sequence:
#
# PCOD9270176 Si02
#       8
#     8   8   8   8   8   8   8   8
#     4  10  21  36  56  87 116 150 190 249 296 345
#     4  10  20  35  58  82 118 146 192 245 293 346
#     4  11  21  37  58  87 114 158 204 246 282 365
#     4  10  20  35  56  85 117 147 195 244 290 358
#     4   9  19  33  55  83 115 148 191 237 298 350
#     4   9  18  34  53  82 114 147 179 238 300 345
#     4  11  23  36  61  87 116 154 199 242 305 351
#     4  10  20  36  57  83 114 152 192 242 294 351
#
# _framework density 18.272829999999999
#
# number of rings (size 3 to 8) (size 9 to 14) (size 15 to 20)
#    0.000    2.000    3.750    0.000    5.250    0.000 
#    0.000    0.625    2.750    0.000    0.000    0.000 
#    0.000    0.000    0.000    0.000    0.000    0.000 
#
# Total GULP energy -178356.584698 kJ/mol
# GULP energy per Si atom -5573.643272 kJ/mol
# Density = 1.823124 g / cm^3
# Si number density = 18.272830 Si / 1000 Ang^3
#
#
#
# Elastic Constant Matrix: (Units=GPa)
#
#
# Indices 1 2 3 4 5 6 
#
# 1 38.8455 18.4473 14.8543 0.0000 1.4024 0.0000
# 2 18.4473 73.3871 25.1601 0.0000 -3.1104 0.0000
# 3 14.8543 25.1601 107.6554 0.0000 0.4205 0.0000
# 4 0.0000 0.0000 0.0000 22.8210 0.0000 -0.6009
# 5 1.4024 -3.1104 0.4205 0.0000 11.8921 0.0000
# 6 0.0000 0.0000 0.0000 -0.6009 0.0000 20.5295
#
#
#
# Elastic Compliance Matrix: (Units=1/GPa)
#
#
# Indices 1 2 3 4 5 6 
#
# 1 0.030199 -0.006951 -0.002522 0.000000 -0.005290 0.000000
# 2 -0.006951 0.016606 -0.002942 0.000000 0.005267 0.000000
# 3 -0.002522 -0.002942 0.010328 0.000000 -0.000837 0.000000
# 4 0.000000 0.000000 0.000000 0.043853 0.000000 0.001284
# 5 -0.005290 0.005267 -0.000837 0.000000 0.086120 0.000000
# 6 0.000000 0.000000 0.000000 0.001284 0.000000 0.048748
#
#
# Mechanical properties :
#
#
# Convention : Reuss Voigt Hill
#
# Bulk Modulus (GPa) = 30.95723 37.42349 34.19036
# Shear Modulus (GPa) = 18.41952 21.81028 20.11490
#
# Velocity S-wave (km/s) = 3.17839 3.45859 3.32144
# Velocity P-wave (km/s) = 5.51797 6.03937 5.78455
#
# Compressibility (1/GPa) = 0.03230263
#
# Stress axis : x y z
#
# Youngs Moduli (GPa) = 33.11357 60.22073 96.82620
#
# Poissons Ratio (x) = 0.41858 0.24417
# Poissons Ratio (y) = 0.23016 0.28490
# Poissons Ratio (z) = 0.08350 0.17719
#
# Static dielectric constant tensor:
#      x y z
#    x 1.614990 0.000000 0.031640 
#    y 0.000000 1.628290 0.000000 
#    z 0.031640 0.000000 1.682540 
# 
# From -- ./inp_files/177840.got.cif
#   From: 2010.05.17/outbox.cif.g08.bks.cpg/sg15_89_cif.got.tgz:177840.got - 2010.06.03 18:47:42.
