data_PCOD9270551
_publ_section_title
;
Structure prediction by ZEFSAII (Michael W. Deem and Ramdas Pophale) SiO2 
 PCOD9270551
Probable space group: C 2/C
;
_chemical_formula_sum "Si O2"
_cell_formula_units_Z 40
_cell_length_a 17.744160
_cell_length_b 20.197400
_cell_length_c 9.048018
_cell_angle_alpha 90.000000
_cell_angle_beta 38.794832
_cell_angle_gamma 90.000000
_cell_volume 2031.648977
_symmetry_space_group_name_H-M "C 2/C"
_symmetry_group_IT_number 15
_symmetry_cell_setting 'monoclinic'
loop_
_space_group_symop_operation_xyz
x,y,z
-x,y,1/2-z
-x,-y,-z
x,-y,1/2+z
1/2+x,1/2+y,z
1/2-x,1/2+y,1/2-z
1/2-x,1/2-y,-z
1/2+x,1/2-y,1/2+z
loop_
_atom_site_type_symbol
_atom_site_label
_atom_site_fract_x
_atom_site_fract_y
_atom_site_fract_z
Si Si1 0.361439 0.420486 0.453202
Si Si2 0.870194 0.969454 0.747881
Si Si3 0.435311 0.785009 0.197096
Si Si4 0.860856 0.208939 0.772143
Si Si5 0.192017 0.156101 0.972866
O O1 0.500000 0.442738 0.250000
O O2 0.313743 0.434834 0.689374
O O3 0.301814 0.468019 0.422916
O O4 0.373347 0.346603 0.377889
O O5 0.865317 0.911910 0.879269
O O6 0.000000 0.000000 0.500000
O O7 0.500000 0.809048 0.250000
O O8 0.333888 0.834762 0.291419
O O9 0.370510 0.716502 0.344078
O O10 0.531493 0.759835 0.929219
O O11 0.834981 0.170578 0.657462
O O12 0.750000 0.250000 0.000000
#
# Coordination Sequence:
#
# PCOD9270551 Si02
#       5
#     8   8   8   8   8
#     4  10  21  34  57  87 123 154 206 256 318 368
#     4  10  20  35  60  87 122 156 200 264 325 368
#     4   9  20  36  58  87 122 168 208 253 315 376
#     4  11  24  36  59  92 131 168 215 256 316 377
#     4  10  21  38  60  86 129 160 210 263 320 374
#
# _framework density 19.68844
#
# number of rings (size 3 to 8) (size 9 to 14) (size 15 to 20)
#    0.000    2.000    0.000    3.600   11.200    7.200 
#    0.000    0.000    0.000    1.200    0.000    0.000 
#    0.000    0.000    0.000    0.000    0.000    0.000 
#
# Total GULP energy -111375.980392 kJ/mol
# GULP energy per Si atom -5568.799020 kJ/mol
# Density = 1.964363 g / cm^3
# Si number density = 19.688440 Si / 1000 Ang^3
#
#
#
# Elastic Constant Matrix: (Units=GPa)
#
#
# Indices 1 2 3 4 5 6 
#
# 1 60.9063 32.0955 38.9961 0.0000 -5.0899 0.0000
# 2 32.0955 79.8588 41.1093 0.0000 8.8888 0.0000
# 3 38.9961 41.1093 101.0645 0.0000 12.3268 0.0000
# 4 0.0000 0.0000 0.0000 22.0279 0.0000 19.9949
# 5 -5.0899 8.8888 12.3268 0.0000 26.2764 0.0000
# 6 0.0000 0.0000 0.0000 19.9949 0.0000 19.8892
#
#
#
# Elastic Compliance Matrix: (Units=1/GPa)
#
#
# Indices 1 2 3 4 5 6 
#
# 1 0.027105 -0.007704 -0.008786 0.000000 0.011978 0.000000
# 2 -0.007704 0.018182 -0.003703 0.000000 -0.005906 0.000000
# 3 -0.008786 -0.003703 0.015747 0.000000 -0.007836 0.000000
# 4 0.000000 0.000000 0.000000 0.519012 0.000000 -0.521771
# 5 0.011978 -0.005906 -0.007836 0.000000 0.046051 0.000000
# 6 0.000000 0.000000 0.000000 -0.521771 0.000000 0.574824
#
#
# Mechanical properties :
#
#
# Convention : Reuss Voigt Hill
#
# Bulk Modulus (GPa) = 48.43047 51.80350 50.11698
# Shear Modulus (GPa) = 4.00581 22.28059 13.14320
#
# Velocity S-wave (km/s) = 1.42794 3.36766 2.58652
# Velocity P-wave (km/s) = 5.23168 6.44130 5.86774
#
# Compressibility (1/GPa) = 0.02064816
#
# Stress axis : x y z
#
# Youngs Moduli (GPa) = 36.89418 55.00003 63.50587
#
# Poissons Ratio (x) = 0.42372 0.55794
# Poissons Ratio (y) = 0.28423 0.23514
# Poissons Ratio (z) = 0.32414 0.20365
#
# Static dielectric constant tensor:
#      x y z
#    x 1.797270 0.000000 0.049780 
#    y 0.000000 1.686700 0.000000 
#    z 0.049780 0.000000 1.729060 
# 
# From -- ./inp_files/29103.got.cif
#   From: 2010.05.17/outbox.cif.g08.bks.cpg/sg15_15_cif.got.tgz:29103.got - 2010.06.03 18:47:42.
