data_PCOD9270005
_publ_section_title
;
Structure prediction by ZEFSAII (Michael W. Deem and Ramdas Pophale) SiO2 
 PCOD9270005
Probable space group: C 2/C
;
_chemical_formula_sum "Si O2"
_cell_formula_units_Z 40
_cell_length_a 17.204261
_cell_length_b 20.031186
_cell_length_c 10.461750
_cell_angle_alpha 90.000000
_cell_angle_beta 146.388327
_cell_angle_gamma 90.000000
_cell_volume 1995.780109
_symmetry_space_group_name_H-M "C 2/C"
_symmetry_group_IT_number 15
_symmetry_cell_setting 'monoclinic'
loop_
_space_group_symop_operation_xyz
x,y,z
-x,y,1/2-z
-x,-y,-z
x,-y,1/2+z
1/2+x,1/2+y,z
1/2-x,1/2+y,1/2-z
1/2-x,1/2-y,-z
1/2+x,1/2-y,1/2+z
loop_
_atom_site_type_symbol
_atom_site_label
_atom_site_fract_x
_atom_site_fract_y
_atom_site_fract_z
Si Si1 0.090359 0.172253 0.549691
Si Si2 0.155915 0.812690 0.413809
Si Si3 0.289061 0.633948 0.042085
Si Si4 0.552269 0.043361 0.688219
Si Si5 0.866056 0.325153 0.922072
O O1 0.136934 0.148766 0.753859
O O2 0.202621 0.161648 0.590565
O O3 0.069516 0.252821 0.522175
O O4 0.947100 0.136675 0.311850
O O5 0.250000 0.750000 0.500000
O O6 0.243505 0.841969 0.652016
O O7 0.000000 0.795039 0.250000
O O8 0.200891 0.674581 0.027776
O O9 0.215503 0.561898 0.927709
O O10 0.500000 0.013253 0.750000
O O11 0.477307 0.115498 0.569877
O O12 0.500000 0.000000 0.500000
#
# Coordination Sequence:
#
# PCOD9270005 Si02
#       5
#     8   8   8   8   8
#     4  10  21  32  60  93 127 155 189 252 322 370
#     4  10  20  35  53  84 130 165 197 239 309 380
#     4  10  21  35  59  91 126 151 202 253 312 369
#     4  10  24  42  63  85 118 168 214 256 302 367
#     4  10  21  35  60  88 122 163 198 253 307 369
#
# _framework density 20.042287999999999
#
# number of rings (size 3 to 8) (size 9 to 14) (size 15 to 20)
#    0.000    2.000    2.000    0.600   11.200    3.200 
#    0.000    1.000    4.400   10.800    0.000    0.000 
#    0.000    0.000    0.000    0.000    0.000    0.000 
#
# Total GULP energy -111475.113099 kJ/mol
# GULP energy per Si atom -5573.755655 kJ/mol
# Density = 1.999667 g / cm^3
# Si number density = 20.042288 Si / 1000 Ang^3
#
#
#
# Elastic Constant Matrix: (Units=GPa)
#
#
# Indices 1 2 3 4 5 6 
#
# 1 130.1796 33.2861 64.0092 0.0000 -31.1303 0.0000
# 2 33.2861 29.7709 23.6975 0.0000 -6.7264 0.0000
# 3 64.0092 23.6975 137.5737 0.0000 -22.6712 0.0000
# 4 0.0000 0.0000 0.0000 26.0840 0.0000 -14.7642
# 5 -31.1303 -6.7264 -22.6712 0.0000 36.0693 0.0000
# 6 0.0000 0.0000 0.0000 -14.7642 0.0000 11.5468
#
#
#
# Elastic Compliance Matrix: (Units=1/GPa)
#
#
# Indices 1 2 3 4 5 6 
#
# 1 0.014117 -0.011355 -0.003295 0.000000 0.007996 0.000000
# 2 -0.011355 0.048437 -0.003555 0.000000 -0.003002 0.000000
# 3 -0.003295 -0.003555 0.009857 0.000000 0.002689 0.000000
# 4 0.000000 0.000000 0.000000 0.138775 0.000000 0.177443
# 5 0.007996 -0.003002 0.002689 0.000000 0.035756 0.000000
# 6 0.000000 0.000000 0.000000 0.177443 0.000000 0.313490
#
#
# Mechanical properties :
#
#
# Convention : Reuss Voigt Hill
#
# Bulk Modulus (GPa) = 27.77606 59.94554 43.86080
# Shear Modulus (GPa) = 8.21231 26.50877 17.36054
#
# Velocity S-wave (km/s) = 2.02642 3.64076 2.94631
# Velocity P-wave (km/s) = 4.40045 6.90275 5.78844
#
# Compressibility (1/GPa) = 0.03600223
#
# Stress axis : x y z
#
# Youngs Moduli (GPa) = 70.83599 20.64535 101.44747
#
# Poissons Ratio (x) = 0.23443 0.33424
# Poissons Ratio (y) = 0.80433 0.36065
# Poissons Ratio (z) = 0.23339 0.07339
#
# Static dielectric constant tensor:
#      x y z
#    x 1.751550 0.000000 -0.007290 
#    y 0.000000 1.694560 0.000000 
#    z -0.007290 0.000000 1.764700 
# 
# From -- ./inp_files/107574.got.cif
#   From: 2010.05.17/outbox.cif.g08.bks.cpg/sg15_54_cif.got.tgz:107574.got - 2010.06.03 18:47:42.
