data_PCOD9270102
_publ_section_title
;
Structure prediction by ZEFSAII (Michael W. Deem and Ramdas Pophale) SiO2 
 PCOD9270102
Probable space group: C 2/C
;
_chemical_formula_sum "Si O2"
_cell_formula_units_Z 60
_cell_length_a 11.904414
_cell_length_b 19.095432
_cell_length_c 25.757557
_cell_angle_alpha 90.000000
_cell_angle_beta 148.473243
_cell_angle_gamma 90.000000
_cell_volume 3061.667831
_symmetry_space_group_name_H-M "C 2/C"
_symmetry_group_IT_number 15
_symmetry_cell_setting 'monoclinic'
loop_
_space_group_symop_operation_xyz
x,y,z
-x,y,1/2-z
-x,-y,-z
x,-y,1/2+z
1/2+x,1/2+y,z
1/2-x,1/2+y,1/2-z
1/2-x,1/2-y,-z
1/2+x,1/2-y,1/2+z
loop_
_atom_site_type_symbol
_atom_site_label
_atom_site_fract_x
_atom_site_fract_y
_atom_site_fract_z
Si Si1 0.714556 0.321302 0.187493
Si Si2 0.000000 0.437625 0.250000
Si Si3 0.629293 0.877168 0.720572
Si Si4 0.459830 0.595900 0.435297
Si Si5 0.937710 0.757191 0.482251
Si Si6 0.266498 0.021365 0.067444
Si Si7 0.009532 0.805313 0.815096
Si Si8 0.074619 0.223999 0.837142
O O1 0.830267 0.391286 0.215388
O O2 0.634567 0.285282 0.102829
O O3 0.900892 0.270345 0.282923
O O4 0.529847 0.322140 0.158137
O O5 0.871317 0.478969 0.156054
O O6 0.735743 0.905256 0.815702
O O7 0.847519 0.860218 0.775890
O O8 0.506616 0.803904 0.683313
O O9 0.463949 0.929660 0.627098
O O10 0.541641 0.675697 0.471441
O O11 0.402194 0.573723 0.471654
O O12 0.631012 0.537657 0.483282
O O13 0.755799 0.702824 0.428763
O O14 0.169667 0.724288 0.564620
O O15 0.000000 0.817062 0.750000
O O16 0.000000 0.204454 0.750000
#
# Coordination Sequence:
#
# PCOD9270102 Si02
#       8
#     8   4   8   8   8   8   8   8
#     4  10  20  35  55  83 114 151 187 236 292 340
#     4  12  18  36  56  78 118 142 192 238 278 348
#     4  11  20  37  57  83 116 152 189 234 297 339
#     4  11  20  32  55  85 117 141 186 236 286 345
#     4  11  18  35  53  84 117 145 191 236 284 350
#     4  11  21  33  54  83 113 147 182 238 284 341
#     4   9  20  37  58  81 111 151 192 239 284 346
#     4  11  21  35  55  83 121 153 186 238 289 343
#
# _framework density 19.597162000000001
#
# number of rings (size 3 to 8) (size 9 to 14) (size 15 to 20)
#    0.000    1.333    7.333    0.400    0.000    0.533 
#    2.400    0.000    0.000    1.600    0.000    0.000 
#    0.000    0.000    0.000    0.000    0.000    0.000 
#
# Total GULP energy -167285.310628 kJ/mol
# GULP energy per Si atom -5576.177021 kJ/mol
# Density = 1.955256 g / cm^3
# Si number density = 19.597162 Si / 1000 Ang^3
#
#
#
# Elastic Constant Matrix: (Units=GPa)
#
#
# Indices 1 2 3 4 5 6 
#
# 1 61.4968 21.8340 20.1338 0.0000 32.5210 0.0001
# 2 21.8340 48.1489 20.2066 -0.0001 20.6993 0.0000
# 3 20.1338 20.2066 111.4069 -0.0002 38.1171 -0.0001
# 4 0.0000 -0.0001 -0.0002 28.5438 0.0001 10.2533
# 5 32.5210 20.6993 38.1171 0.0001 30.6730 0.0000
# 6 0.0001 0.0000 -0.0001 10.2533 0.0000 20.9739
#
#
#
# Elastic Compliance Matrix: (Units=1/GPa)
#
#
# Indices 1 2 3 4 5 6 
#
# 1 0.048800 0.002692 0.015686 0.000000 -0.073050 0.000000
# 2 0.002692 0.029818 0.003421 0.000000 -0.027228 0.000000
# 3 0.015686 0.003421 0.020877 0.000000 -0.044884 0.000000
# 4 0.000000 0.000000 0.000000 0.042496 -0.000001 -0.020775
# 5 -0.073050 -0.027228 -0.044884 -0.000001 0.184204 0.000000
# 6 0.000000 0.000000 0.000000 -0.020775 0.000000 0.057834
#
#
# Mechanical properties :
#
#
# Convention : Reuss Voigt Hill
#
# Bulk Modulus (GPa) = 6.98846 38.37794 22.68320
# Shear Modulus (GPa) = 12.88229 26.63004 19.75617
#
# Velocity S-wave (km/s) = 2.56668 3.69029 3.17853
# Velocity P-wave (km/s) = 3.51533 6.14683 5.00705
#
# Compressibility (1/GPa) = 0.14309300
#
# Stress axis : x y z
#
# Youngs Moduli (GPa) = 20.49172 33.53718 47.89852
#
# Poissons Ratio (x) = -0.09028 -0.75133
# Poissons Ratio (y) = -0.05516 -0.16386
# Poissons Ratio (z) = -0.32143 -0.11473
#
# Static dielectric constant tensor:
#      x y z
#    x 1.739070 0.000000 0.013200 
#    y 0.000000 1.732920 0.000000 
#    z 0.013200 0.000000 1.757650 
# 
# From -- ./inp_files/146724.got.cif
#   From: 2010.05.17/outbox.cif.g08.bks.cpg/sg15_74_cif.got.tgz:146724.got - 2010.06.03 18:47:42.
