data_PCOD9270017
_publ_section_title
;
Structure prediction by ZEFSAII (Michael W. Deem and Ramdas Pophale) SiO2 
 PCOD9270017
Probable space group: C 2/C
;
_chemical_formula_sum "Si O2"
_cell_formula_units_Z 48
_cell_length_a 9.145410
_cell_length_b 7.126169
_cell_length_c 28.929784
_cell_angle_alpha 90.000000
_cell_angle_beta 86.712993
_cell_angle_gamma 90.000000
_cell_volume 1882.302498
_symmetry_space_group_name_H-M "C 2/C"
_symmetry_group_IT_number 15
_symmetry_cell_setting 'monoclinic'
loop_
_space_group_symop_operation_xyz
x,y,z
-x,y,1/2-z
-x,-y,-z
x,-y,1/2+z
1/2+x,1/2+y,z
1/2-x,1/2+y,1/2-z
1/2-x,1/2-y,-z
1/2+x,1/2-y,1/2+z
loop_
_atom_site_type_symbol
_atom_site_label
_atom_site_fract_x
_atom_site_fract_y
_atom_site_fract_z
Si Si1 0.087366 0.017293 0.291312
Si Si2 0.838010 0.457133 0.552995
Si Si3 0.820909 0.929778 0.851859
Si Si4 0.193286 0.535798 0.547629
Si Si5 0.179472 0.474938 0.646086
Si Si6 0.085432 0.409908 0.791344
O O1 0.118142 0.803430 0.277867
O O2 0.000000 0.104057 0.250000
O O3 0.232439 0.098646 0.311090
O O4 0.984934 0.014433 0.338519
O O5 0.749836 0.508947 0.600671
O O6 0.780498 0.534932 0.504864
O O7 0.788381 0.232786 0.549238
O O8 0.010450 0.523306 0.553745
O O9 0.816600 0.702705 0.853316
O O10 0.734120 0.992999 0.807620
O O11 0.233558 0.426629 0.593855
O O12 0.015799 0.415231 0.661254
O O13 0.000000 0.497022 0.750000
#
# Coordination Sequence:
#
# PCOD9270017 Si02
#       6
#     8   8   8   8   8   8
#     4  10  22  37  53  79 114 147 186 241 295 352
#     4   9  17  32  56  85 113 154 199 246 305 371
#     4  10  20  35  55  79 109 145 191 236 293 357
#     4   9  17  32  57  83 115 153 198 248 304 370
#     4  10  20  35  55  81 107 147 190 238 294 352
#     4  10  20  35  54  77 107 144 187 233 290 353
#
# _framework density 25.500681
#
# number of rings (size 3 to 8) (size 9 to 14) (size 15 to 20)
#    0.000    2.333    1.667    1.000    0.000    2.000 
#    0.000    0.833    0.000    1.000    0.000    0.000 
#    0.000    0.000    0.000    0.000    0.000    0.000 
#
# Total GULP energy -133694.633415 kJ/mol
# GULP energy per Si atom -5570.609726 kJ/mol
# Density = 2.544264 g / cm^3
# Si number density = 25.500681 Si / 1000 Ang^3
#
#
#
# Elastic Constant Matrix: (Units=GPa)
#
#
# Indices 1 2 3 4 5 6 
#
# 1 89.5023 13.4879 16.0093 0.0000 -6.4699 0.0000
# 2 13.4879 142.9474 3.6381 0.0000 19.5089 0.0000
# 3 16.0093 3.6381 146.2211 0.0000 8.2897 0.0000
# 4 0.0000 0.0000 0.0000 0.5125 0.0000 -19.1529
# 5 -6.4699 19.5089 8.2897 0.0000 34.1189 0.0000
# 6 0.0000 0.0000 0.0000 -19.1529 0.0000 7.0945
#
#
#
# Elastic Compliance Matrix: (Units=1/GPa)
#
#
# Indices 1 2 3 4 5 6 
#
# 1 0.011925 -0.001567 -0.001466 0.000000 0.003514 0.000000
# 2 -0.001567 0.007794 0.000251 0.000000 -0.004815 0.000000
# 3 -0.001466 0.000251 0.007115 0.000000 -0.002150 0.000000
# 4 0.000000 0.000000 0.000000 -0.019533 0.000000 -0.052734
# 5 0.003514 -0.004815 -0.002150 0.000000 0.033251 0.000000
# 6 0.000000 0.000000 0.000000 -0.052734 0.000000 -0.001411
#
#
# Mechanical properties :
#
#
# Convention : Reuss Voigt Hill
#
# Bulk Modulus (GPa) = 47.01619 49.43793 48.22706
# Shear Modulus (GPa) = 96.53175 31.38087 63.95631
#
# Velocity S-wave (km/s) = 6.15928 3.51178 5.01345
# Velocity P-wave (km/s) = 8.31021 5.98936 7.24334
#
# Compressibility (1/GPa) = 0.02126927
#
# Stress axis : x y z
#
# Youngs Moduli (GPa) = 83.85519 128.30040 140.54613
#
# Poissons Ratio (x) = 0.20111 0.20602
# Poissons Ratio (y) = 0.13144 -0.03523
# Poissons Ratio (z) = 0.12292 -0.03216
#
# Static dielectric constant tensor:
#      x y z
#    x 1.968270 0.000000 0.023350 
#    y 0.000000 1.971730 0.000000 
#    z 0.023350 0.000000 2.012250 
# 
# From -- ./inp_files/306648.got.cif
#   From: 2010.05.17/outbox.cif.g08.bks.cpg/sg15_154_cif.got.tgz:306648.got - 2010.06.03 18:47:42.
