data_PCOD9270126
_publ_section_title
;
Structure prediction by ZEFSAII (Michael W. Deem and Ramdas Pophale) SiO2 
 PCOD9270126
Probable space group: C 2/C
;
_chemical_formula_sum "Si O2"
_cell_formula_units_Z 60
_cell_length_a 14.602796
_cell_length_b 23.793117
_cell_length_c 8.884966
_cell_angle_alpha 90.000000
_cell_angle_beta 116.148410
_cell_angle_gamma 90.000000
_cell_volume 2771.104135
_symmetry_space_group_name_H-M "C 2/C"
_symmetry_group_IT_number 15
_symmetry_cell_setting 'monoclinic'
loop_
_space_group_symop_operation_xyz
x,y,z
-x,y,1/2-z
-x,-y,-z
x,-y,1/2+z
1/2+x,1/2+y,z
1/2-x,1/2+y,1/2-z
1/2-x,1/2-y,-z
1/2+x,1/2-y,1/2+z
loop_
_atom_site_type_symbol
_atom_site_label
_atom_site_fract_x
_atom_site_fract_y
_atom_site_fract_z
Si Si1 0.000000 0.980352 0.750000
Si Si2 0.277336 0.844453 0.280324
Si Si3 0.530405 0.786140 0.940748
Si Si4 0.410206 0.039648 0.561766
Si Si5 0.708241 0.026485 0.739691
Si Si6 0.398401 0.164976 0.573552
Si Si7 0.609610 0.330506 0.394554
Si Si8 0.621884 0.557996 0.066745
O O1 0.960698 0.941896 0.858878
O O2 0.921274 0.021777 0.605614
O O3 0.382769 0.828211 0.438368
O O4 0.258985 0.911314 0.281868
O O5 0.303884 0.830278 0.122941
O O6 0.185470 0.817701 0.310120
O O7 0.500000 0.800567 0.750000
O O8 0.583035 0.725006 0.970473
O O9 0.428921 0.789584 0.970554
O O10 0.500000 0.036725 0.750000
O O11 0.314053 0.030901 0.600756
O O12 0.401114 0.103481 0.497767
O O13 0.392294 0.992217 0.425192
O O14 0.788270 0.976756 0.789921
O O15 0.500000 0.165298 0.750000
O O16 0.500000 0.349656 0.250000
O O17 0.650828 0.380798 0.527659
#
# Coordination Sequence:
#
# PCOD9270126 Si02
#       8
#     4   8   8   8   8   8   8   8
#     4  10  22  38  64  84 124 168 210 264 334 366
#     4  10  21  40  64  90 129 173 206 269 326 383
#     4  10  22  41  65  92 125 169 221 270 324 387
#     4  10  20  35  55  89 130 163 204 257 322 386
#     4  11  22  35  61  95 126 165 213 256 321 394
#     4   8  18  38  60  84 119 167 210 258 320 381
#     4  11  23  41  64  93 129 174 221 269 326 386
#     4  11  22  41  61  93 128 170 214 270 320 384
#
# _framework density 21.65202
#
# number of rings (size 3 to 8) (size 9 to 14) (size 15 to 20)
#    0.000    1.867    0.667    4.000    1.867    2.667 
#    3.600    2.667    0.000    0.000    0.000    2.800 
#    0.000    0.000    0.000    0.000    0.000    0.000 
#
# Total GULP energy -167152.071515 kJ/mol
# GULP energy per Si atom -5571.735717 kJ/mol
# Density = 2.160274 g / cm^3
# Si number density = 21.652020 Si / 1000 Ang^3
#
#
#
# Elastic Constant Matrix: (Units=GPa)
#
#
# Indices 1 2 3 4 5 6 
#
# 1 87.8421 30.3629 18.4762 0.0000 -30.0492 0.0000
# 2 30.3629 72.3559 34.2735 0.0000 -25.2495 0.0000
# 3 18.4762 34.2735 75.7775 0.0000 -11.7155 0.0000
# 4 0.0000 0.0000 0.0000 26.8349 0.0000 1.3948
# 5 -30.0492 -25.2495 -11.7155 0.0000 43.8821 0.0000
# 6 0.0000 0.0000 0.0000 1.3948 0.0000 25.7908
#
#
#
# Elastic Compliance Matrix: (Units=1/GPa)
#
#
# Indices 1 2 3 4 5 6 
#
# 1 0.015623 -0.003003 -0.001110 0.000000 0.008674 0.000000
# 2 -0.003003 0.021677 -0.007783 0.000000 0.008339 0.000000
# 3 -0.001110 -0.007783 0.016874 0.000000 -0.000733 0.000000
# 4 0.000000 0.000000 0.000000 0.037370 0.000000 -0.002021
# 5 0.008674 0.008339 -0.000733 0.000000 0.033330 0.000000
# 6 0.000000 0.000000 0.000000 -0.002021 0.000000 0.038883
#
#
# Mechanical properties :
#
#
# Convention : Reuss Voigt Hill
#
# Bulk Modulus (GPa) = 32.91465 44.68896 38.80180
# Shear Modulus (GPa) = 25.29388 29.49241 27.39314
#
# Velocity S-wave (km/s) = 3.42160 3.69468 3.56076
# Velocity P-wave (km/s) = 5.55378 6.23581 5.90465
#
# Compressibility (1/GPa) = 0.03038161
#
# Stress axis : x y z
#
# Youngs Moduli (GPa) = 64.00956 46.13105 59.26293
#
# Poissons Ratio (x) = 0.13855 0.06577
# Poissons Ratio (y) = 0.19224 0.46125
# Poissons Ratio (z) = 0.07104 0.35904
#
# Static dielectric constant tensor:
#      x y z
#    x 1.932330 0.000000 -0.019070 
#    y 0.000000 1.853500 0.000000 
#    z -0.019070 0.000000 1.803860 
# 
# From -- ./inp_files/42236.got.cif
#   From: 2010.05.17/outbox.cif.g08.bks.cpg/sg15_22_cif.got.tgz:42236.got - 2010.06.03 18:47:42.
