data_PCOD9270181
_publ_section_title
;
Structure prediction by ZEFSAII (Michael W. Deem and Ramdas Pophale) SiO2 
 PCOD9270181
Probable space group: C 2/C
;
_chemical_formula_sum "Si O2"
_cell_formula_units_Z 48
_cell_length_a 8.731617
_cell_length_b 16.391320
_cell_length_c 19.076815
_cell_angle_alpha 90.000000
_cell_angle_beta 110.698725
_cell_angle_gamma 90.000000
_cell_volume 2554.088458
_symmetry_space_group_name_H-M "C 2/C"
_symmetry_group_IT_number 15
_symmetry_cell_setting 'monoclinic'
loop_
_space_group_symop_operation_xyz
x,y,z
-x,y,1/2-z
-x,-y,-z
x,-y,1/2+z
1/2+x,1/2+y,z
1/2-x,1/2+y,1/2-z
1/2-x,1/2-y,-z
1/2+x,1/2-y,1/2+z
loop_
_atom_site_type_symbol
_atom_site_label
_atom_site_fract_x
_atom_site_fract_y
_atom_site_fract_z
Si Si1 0.556341 0.322712 0.926057
Si Si2 0.036121 0.859867 0.173187
Si Si3 0.943028 0.553100 0.923202
Si Si4 0.390590 0.476001 0.662726
Si Si5 0.773824 0.655146 0.594557
Si Si6 0.765137 0.726541 0.922836
O O1 0.597480 0.396647 0.882383
O O2 0.643768 0.241792 0.910153
O O3 0.367837 0.296121 0.900547
O O4 0.623939 0.345315 0.014434
O O5 0.917282 0.787166 0.132778
O O6 0.000000 0.866630 0.250000
O O7 0.209206 0.847448 0.163823
O O8 0.972057 0.947292 0.135585
O O9 0.799428 0.503640 0.859230
O O10 0.860598 0.639989 0.931421
O O11 0.100124 0.582476 0.903808
O O12 0.000000 0.500000 0.000000
O O13 0.500000 0.462902 0.750000
O O14 0.750000 0.750000 0.000000
#
# Coordination Sequence:
#
# PCOD9270181 Si02
#       6
#     8   8   8   8   8   8
#     4  10  20  35  59  91 118 152 200 253 306 360
#     4  10  22  39  57  83 121 164 204 245 304 370
#     4  10  20  36  60  88 116 155 200 251 303 361
#     4  10  22  39  56  84 126 158 198 251 311 370
#     4  10  20  36  61  91 116 154 204 256 299 365
#     4  10  20  35  56  85 119 151 195 247 296 357
#
# _framework density 18.793396999999999
#
# number of rings (size 3 to 8) (size 9 to 14) (size 15 to 20)
#    0.000    2.000    3.333    0.000    0.000    3.333 
#    0.000   12.500    0.000    0.000    0.000    0.000 
#    0.000    0.000    0.000    0.000    0.000    0.000 
#
# Total GULP energy -133643.507292 kJ/mol
# GULP energy per Si atom -5568.479470 kJ/mol
# Density = 1.875062 g / cm^3
# Si number density = 18.793397 Si / 1000 Ang^3
#
#
#
# Elastic Constant Matrix: (Units=GPa)
#
#
# Indices 1 2 3 4 5 6 
#
# 1 118.0801 35.9863 35.1659 0.0000 -15.9021 0.0000
# 2 35.9863 73.9727 27.3556 0.0000 -3.5623 0.0000
# 3 35.1659 27.3556 63.8604 0.0000 -5.9590 0.0000
# 4 0.0000 0.0000 0.0000 24.4789 0.0000 -0.9554
# 5 -15.9021 -3.5623 -5.9590 0.0000 29.8334 0.0000
# 6 0.0000 0.0000 0.0000 -0.9554 0.0000 25.5127
#
#
#
# Elastic Compliance Matrix: (Units=1/GPa)
#
#
# Indices 1 2 3 4 5 6 
#
# 1 0.011557 -0.003805 -0.004281 0.000000 0.004851 0.000000
# 2 -0.003805 0.017325 -0.005423 0.000000 -0.001043 0.000000
# 3 -0.004281 -0.005423 0.020448 0.000000 0.001155 0.000000
# 4 0.000000 0.000000 0.000000 0.040911 0.000000 0.001532
# 5 0.004851 -0.001043 0.001155 0.000000 0.036211 0.000000
# 6 0.000000 0.000000 0.000000 0.001532 0.000000 0.039253
#
#
# Mechanical properties :
#
#
# Convention : Reuss Voigt Hill
#
# Bulk Modulus (GPa) = 44.82358 50.32543 47.57451
# Shear Modulus (GPa) = 24.97979 26.45870 25.71925
#
# Velocity S-wave (km/s) = 3.64975 3.75623 3.70337
# Velocity P-wave (km/s) = 6.45472 6.75639 6.60727
#
# Compressibility (1/GPa) = 0.02230968
#
# Stress axis : x y z
#
# Youngs Moduli (GPa) = 86.52910 57.71983 48.90542
#
# Poissons Ratio (x) = 0.21964 0.20938
# Poissons Ratio (y) = 0.32927 0.26523
# Poissons Ratio (z) = 0.37046 0.31303
#
# Static dielectric constant tensor:
#      x y z
#    x 1.685790 0.000000 0.028840 
#    y 0.000000 1.659090 0.000000 
#    z 0.028840 0.000000 1.671610 
# 
# From -- ./inp_files/189952.got.cif
#   From: 2010.05.17/outbox.cif.g08.bks.cpg/sg15_95_cif.got.tgz:189952.got - 2010.06.03 18:47:42.
