data_PCOD9270212
_publ_section_title
;
Structure prediction by ZEFSAII (Michael W. Deem and Ramdas Pophale) SiO2 
 PCOD9270212
Probable space group: C 2/C
;
_chemical_formula_sum "Si O2"
_cell_formula_units_Z 44
_cell_length_a 10.439488
_cell_length_b 26.372751
_cell_length_c 11.814578
_cell_angle_alpha 90.000000
_cell_angle_beta 41.723418
_cell_angle_gamma 90.000000
_cell_volume 2164.831264
_symmetry_space_group_name_H-M "C 2/C"
_symmetry_group_IT_number 15
_symmetry_cell_setting 'monoclinic'
loop_
_space_group_symop_operation_xyz
x,y,z
-x,y,1/2-z
-x,-y,-z
x,-y,1/2+z
1/2+x,1/2+y,z
1/2-x,1/2+y,1/2-z
1/2-x,1/2-y,-z
1/2+x,1/2-y,1/2+z
loop_
_atom_site_type_symbol
_atom_site_label
_atom_site_fract_x
_atom_site_fract_y
_atom_site_fract_z
Si Si1 0.729100 0.698969 0.086894
Si Si2 0.000000 0.628758 0.750000
Si Si3 0.783928 0.064763 0.143017
Si Si4 0.777407 0.048252 0.678835
Si Si5 0.937240 0.334931 0.658788
Si Si6 0.792373 0.893259 0.388051
O O1 0.500000 0.686230 0.250000
O O2 0.820501 0.702862 0.153910
O O3 0.750000 0.750000 0.000000
O O4 0.862091 0.660199 0.926293
O O5 0.137890 0.591104 0.726692
O O6 0.687382 0.112641 0.266952
O O7 0.702042 0.008712 0.214985
O O8 0.755076 0.081390 0.032854
O O9 0.011764 0.057034 0.015805
O O10 0.801330 0.061245 0.794154
O O11 0.000000 0.323045 0.750000
O O12 0.136107 0.350654 0.469247
O O13 0.000000 0.867852 0.250000
#
# Coordination Sequence:
#
# PCOD9270212 Si02
#       6
#     8   4   8   8   8   8
#     4  12  26  48  73  98 135 176 233 300 356 412
#     4  12  24  40  70 100 132 182 230 274 350 402
#     4   9  20  35  57  90 136 173 216 271 322 402
#     4  10  20  35  56  92 131 175 223 260 328 407
#     4  10  21  41  67  97 130 172 221 276 348 405
#     4   9  18  34  56  85 126 175 215 265 322 392
#
# _framework density 20.324909000000002
#
# number of rings (size 3 to 8) (size 9 to 14) (size 15 to 20)
#    0.000    1.818    2.727    1.091    3.818    2.182 
#    0.000    4.545    0.000    0.000    0.000    0.000 
#    0.000    0.000    0.000    0.000    0.000    0.000 
#
# Total GULP energy -122541.544013 kJ/mol
# GULP energy per Si atom -5570.070182 kJ/mol
# Density = 2.027865 g / cm^3
# Si number density = 20.324909 Si / 1000 Ang^3
#
#
#
# Elastic Constant Matrix: (Units=GPa)
#
#
# Indices 1 2 3 4 5 6 
#
# 1 110.4246 44.9229 36.4376 0.0000 -6.8093 0.0000
# 2 44.9229 80.5226 26.9554 0.0000 -2.2768 0.0000
# 3 36.4376 26.9554 87.4973 0.0000 -12.0773 0.0000
# 4 0.0000 0.0000 0.0000 164.9972 0.0000 -65.5601
# 5 -6.8093 -2.2768 -12.0773 0.0000 21.5946 0.0000
# 6 0.0000 0.0000 0.0000 -65.5601 0.0000 96.3369
#
#
#
# Elastic Compliance Matrix: (Units=1/GPa)
#
#
# Indices 1 2 3 4 5 6 
#
# 1 0.012622 -0.005921 -0.003218 0.000000 0.001556 0.000000
# 2 -0.005921 0.016644 -0.002901 0.000000 -0.001735 0.000000
# 3 -0.003218 -0.002901 0.014608 0.000000 0.006849 0.000000
# 4 0.000000 0.000000 0.000000 0.008307 0.000000 0.005653
# 5 0.001556 -0.001735 0.006849 0.000000 0.050447 0.000000
# 6 0.000000 0.000000 0.000000 0.005653 0.000000 0.014227
#
#
# Mechanical properties :
#
#
# Convention : Reuss Voigt Hill
#
# Bulk Modulus (GPa) = 50.51749 55.00847 52.76298
# Shear Modulus (GPa) = 33.89059 67.92764 50.90912
#
# Velocity S-wave (km/s) = 4.08786 5.78735 5.01019
# Velocity P-wave (km/s) = 6.86948 8.47238 7.71268
#
# Compressibility (1/GPa) = 0.01979512
#
# Stress axis : x y z
#
# Youngs Moduli (GPa) = 79.22445 60.08082 68.45485
#
# Poissons Ratio (x) = 0.35573 0.22026
# Poissons Ratio (y) = 0.46907 0.19861
# Poissons Ratio (z) = 0.25492 0.17432
#
# Static dielectric constant tensor:
#      x y z
#    x 1.809230 0.000000 -0.006400 
#    y 0.000000 1.772870 0.000000 
#    z -0.006400 0.000000 1.767850 
# 
# From -- ./inp_files/91141.got.cif
#   From: 2010.05.17/outbox.cif.g08.bks.cpg/sg15_46_cif.got.tgz:91141.got - 2010.06.03 18:47:42.
