data_PCOD9270084
_publ_section_title
;
Structure prediction by ZEFSAII (Michael W. Deem and Ramdas Pophale) SiO2 
 PCOD9270084
Probable space group: C 2/C
;
_chemical_formula_sum "Si O2"
_cell_formula_units_Z 64
_cell_length_a 18.513574
_cell_length_b 16.951842
_cell_length_c 14.609465
_cell_angle_alpha 90.000000
_cell_angle_beta 30.833424
_cell_angle_gamma 90.000000
_cell_volume 2350.025146
_symmetry_space_group_name_H-M "C 2/C"
_symmetry_group_IT_number 15
_symmetry_cell_setting 'monoclinic'
loop_
_space_group_symop_operation_xyz
x,y,z
-x,y,1/2-z
-x,-y,-z
x,-y,1/2+z
1/2+x,1/2+y,z
1/2-x,1/2+y,1/2-z
1/2-x,1/2-y,-z
1/2+x,1/2-y,1/2+z
loop_
_atom_site_type_symbol
_atom_site_label
_atom_site_fract_x
_atom_site_fract_y
_atom_site_fract_z
Si Si1 0.458609 0.260974 0.902644
Si Si2 0.730759 0.883991 0.943251
Si Si3 0.986201 0.478874 0.393327
Si Si4 0.650698 0.712712 0.476374
Si Si5 0.020238 0.008541 0.336678
Si Si6 0.782320 0.557545 0.280430
Si Si7 0.350044 0.338335 0.309096
Si Si8 0.701594 0.839002 0.181966
O O1 0.500000 0.273159 0.750000
O O2 0.600605 0.237034 0.799529
O O3 0.362204 0.182150 0.005052
O O4 0.353944 0.325357 0.059760
O O5 0.878537 0.918436 0.746701
O O6 0.618068 0.955879 0.075937
O O7 0.746242 0.849050 0.027327
O O8 0.864312 0.474393 0.603220
O O9 0.092572 0.552093 0.279147
O O10 0.098642 0.412148 0.304550
O O11 0.732878 0.647758 0.328516
O O12 0.662534 0.676057 0.567386
O O13 0.486937 0.711939 0.631502
O O14 0.716244 0.799280 0.407091
O O15 0.110083 0.928430 0.253625
O O16 0.000000 0.017453 0.250000
O O17 0.862883 0.991468 0.545044
#
# Coordination Sequence:
#
# PCOD9270084 Si02
#       8
#     8   8   8   8   8   8   8   8
#     4   9  18  33  52  80 111 138 169 223 273 313
#     4  10  21  34  56  82 111 139 185 227 271 327
#     4  10  22  38  53  79 111 152 181 226 277 327
#     4   9  17  33  53  75 104 139 172 221 274 325
#     4  11  20  35  57  84 108 141 184 230 276 330
#     4  10  21  38  57  75 114 146 184 227 280 334
#     4   9  17  32  53  79 105 131 175 223 276 315
#     4  10  20  35  55  80 112 143 182 224 272 328
#
# _framework density 27.233751999999999
#
# number of rings (size 3 to 8) (size 9 to 14) (size 15 to 20)
#    0.000    2.250    2.500    3.375    0.000    5.000 
#    0.000    5.000    0.000    0.000    0.000    0.000 
#    0.000    0.000    0.000    0.000    0.000    0.000 
#
# Total GULP energy -178827.831690 kJ/mol
# GULP energy per Si atom -5588.369740 kJ/mol
# Density = 2.717177 g / cm^3
# Si number density = 27.233752 Si / 1000 Ang^3
#
#
#
# Elastic Constant Matrix: (Units=GPa)
#
#
# Indices 1 2 3 4 5 6 
#
# 1 42.5974 18.9682 37.1629 -0.0002 -15.4140 0.0002
# 2 18.9682 78.8236 54.0361 -0.0001 -18.3410 0.0002
# 3 37.1629 54.0361 204.7418 -0.0004 -31.1991 0.0005
# 4 -0.0002 -0.0001 -0.0004 48.0025 0.0004 -23.5138
# 5 -15.4140 -18.3410 -31.1991 0.0004 45.8643 -0.0003
# 6 0.0002 0.0002 0.0005 -23.5138 -0.0003 26.1262
#
#
#
# Elastic Compliance Matrix: (Units=1/GPa)
#
#
# Indices 1 2 3 4 5 6 
#
# 1 0.030486 -0.003321 -0.003680 0.000000 0.006414 0.000000
# 2 -0.003321 0.016471 -0.003247 0.000000 0.003262 0.000000
# 3 -0.003680 -0.003247 0.006719 0.000000 0.002036 0.000000
# 4 0.000000 0.000000 0.000000 0.037258 0.000000 0.033533
# 5 0.006414 0.003262 0.002036 0.000000 0.026648 0.000000
# 6 0.000000 0.000000 0.000000 0.033533 0.000000 0.068455
#
#
# Mechanical properties :
#
#
# Convention : Reuss Voigt Hill
#
# Bulk Modulus (GPa) = 30.13865 60.72190 45.43027
# Shear Modulus (GPa) = 22.97871 38.39832 30.68852
#
# Velocity S-wave (km/s) = 2.90790 3.75901 3.36051
# Velocity P-wave (km/s) = 4.72919 6.41757 5.63695
#
# Compressibility (1/GPa) = 0.03317999
#
# Stress axis : x y z
#
# Youngs Moduli (GPa) = 32.80235 60.71389 148.82565
#
# Poissons Ratio (x) = 0.20164 0.54760
# Poissons Ratio (y) = 0.10894 0.48326
# Poissons Ratio (z) = 0.12070 0.19715
#
# Static dielectric constant tensor:
#      x y z
#    x 2.287920 0.000000 0.087300 
#    y 0.000000 2.241360 0.000000 
#    z 0.087300 0.000000 2.103470 
# 
# From -- ./inp_files/258065.got.cif
#   From: 2010.05.17/outbox.cif.g08.bks.cpg/sg15_130_cif.got.tgz:258065.got - 2010.06.03 18:47:42.
