data_PCOD9270613
_publ_section_title
;
Structure prediction by ZEFSAII (Michael W. Deem and Ramdas Pophale) SiO2 
 PCOD9270613
Probable space group: C 2/C
;
_chemical_formula_sum "Si O2"
_cell_formula_units_Z 48
_cell_length_a 16.002992
_cell_length_b 31.859037
_cell_length_c 8.607539
_cell_angle_alpha 90.000000
_cell_angle_beta 146.976506
_cell_angle_gamma 90.000000
_cell_volume 2391.639373
_symmetry_space_group_name_H-M "C 2/C"
_symmetry_group_IT_number 15
_symmetry_cell_setting 'monoclinic'
loop_
_space_group_symop_operation_xyz
x,y,z
-x,y,1/2-z
-x,-y,-z
x,-y,1/2+z
1/2+x,1/2+y,z
1/2-x,1/2+y,1/2-z
1/2-x,1/2-y,-z
1/2+x,1/2-y,1/2+z
loop_
_atom_site_type_symbol
_atom_site_label
_atom_site_fract_x
_atom_site_fract_y
_atom_site_fract_z
Si Si1 0.183354 0.534077 0.693094
Si Si2 0.817407 0.195425 0.965550
Si Si3 0.321633 0.215444 0.418445
Si Si4 0.326482 0.634160 0.417736
Si Si5 0.164592 0.109286 0.429545
Si Si6 0.180550 0.552077 0.343001
O O1 0.242394 0.545612 0.613756
O O2 0.223964 0.486409 0.798027
O O3 0.002054 0.544386 0.422079
O O4 0.252199 0.565557 0.924956
O O5 0.770604 0.208020 0.066303
O O6 0.755495 0.148078 0.850228
O O7 0.000000 0.190461 0.250000
O O8 0.785064 0.236488 0.811026
O O9 0.268124 0.178022 0.222944
O O10 0.500000 0.212736 0.750000
O O11 0.340085 0.622261 0.257024
O O12 0.236651 0.596445 0.363680
O O13 0.500000 0.639020 0.750000
O O14 0.000000 0.103519 0.250000
#
# Coordination Sequence:
#
# PCOD9270613 Si02
#       6
#     8   8   8   8   8   8
#     4  10  21  39  60  86 115 156 194 246 291 356
#     4   8  16  32  55  84 114 149 199 242 289 348
#     4   9  18  33  58  85 112 154 204 242 286 355
#     4  11  23  36  57  88 125 154 194 247 297 351
#     4  10  20  35  61  83 114 158 197 236 297 354
#     4  10  22  38  59  85 122 149 197 244 297 346
#
# _framework density 20.069914000000001
#
# number of rings (size 3 to 8) (size 9 to 14) (size 15 to 20)
#    0.000    2.333    0.000    2.000    4.667    2.000 
#    0.000    3.333    3.667   35.000    0.000    0.000 
#    0.000    0.000    0.000    0.000    0.000    0.000 
#
# Total GULP energy -133615.237625 kJ/mol
# GULP energy per Si atom -5567.301568 kJ/mol
# Density = 2.002423 g / cm^3
# Si number density = 20.069914 Si / 1000 Ang^3
#
#
#
# Elastic Constant Matrix: (Units=GPa)
#
#
# Indices 1 2 3 4 5 6 
#
# 1 67.3532 6.9742 4.2887 0.0000 -5.3120 0.0000
# 2 6.9742 150.1415 32.4873 0.0000 -10.3942 0.0000
# 3 4.2887 32.4873 49.6589 0.0000 -10.3437 0.0000
# 4 0.0000 0.0000 0.0000 27.9190 0.0000 20.1117
# 5 -5.3120 -10.3942 -10.3437 0.0000 19.4553 0.0000
# 6 0.0000 0.0000 0.0000 20.1117 0.0000 57.2419
#
#
#
# Elastic Compliance Matrix: (Units=1/GPa)
#
#
# Indices 1 2 3 4 5 6 
#
# 1 0.015204 -0.000385 -0.000269 0.000000 0.003802 0.000000
# 2 -0.000385 0.007814 -0.004758 0.000000 0.001540 0.000000
# 3 -0.000269 -0.004758 0.025559 0.000000 0.010973 0.000000
# 4 0.000000 0.000000 0.000000 0.047955 0.000000 -0.016849
# 5 0.003802 0.001540 0.010973 0.000000 0.059095 0.000000
# 6 0.000000 0.000000 0.000000 -0.016849 0.000000 0.023389
#
#
# Mechanical properties :
#
#
# Convention : Reuss Voigt Hill
#
# Bulk Modulus (GPa) = 26.48797 39.40598 32.94698
# Shear Modulus (GPa) = 24.70039 35.81681 30.25860
#
# Velocity S-wave (km/s) = 3.51196 4.22904 3.88707
# Velocity P-wave (km/s) = 5.44717 6.59722 6.04959
#
# Compressibility (1/GPa) = 0.03775298
#
# Stress axis : x y z
#
# Youngs Moduli (GPa) = 65.77222 127.96802 39.12492
#
# Poissons Ratio (x) = 0.04923 0.01054
# Poissons Ratio (y) = 0.02530 0.18617
# Poissons Ratio (z) = 0.01771 0.60890
#
# Static dielectric constant tensor:
#      x y z
#    x 1.679930 0.000000 -0.012110 
#    y 0.000000 1.788410 0.000000 
#    z -0.012110 0.000000 1.744770 
# 
# From -- ./inp_files/52884.got.cif
#   From: 2010.05.17/outbox.cif.g08.bks.cpg/sg15_27_cif.got.tgz:52884.got - 2010.06.03 18:47:42.
