data_PCOD9270805
_publ_section_title
;
Structure prediction by ZEFSAII (Michael W. Deem and Ramdas Pophale) SiO2 
 PCOD9270805
Probable space group: C 2/C
;
_chemical_formula_sum "Si O2"
_cell_formula_units_Z 52
_cell_length_a 11.919836
_cell_length_b 13.284246
_cell_length_c 22.086090
_cell_angle_alpha 90.000000
_cell_angle_beta 38.738775
_cell_angle_gamma 90.000000
_cell_volume 2188.473193
_symmetry_space_group_name_H-M "C 2/C"
_symmetry_group_IT_number 15
_symmetry_cell_setting 'monoclinic'
loop_
_space_group_symop_operation_xyz
x,y,z
-x,y,1/2-z
-x,-y,-z
x,-y,1/2+z
1/2+x,1/2+y,z
1/2-x,1/2+y,1/2-z
1/2-x,1/2-y,-z
1/2+x,1/2-y,1/2+z
loop_
_atom_site_type_symbol
_atom_site_label
_atom_site_fract_x
_atom_site_fract_y
_atom_site_fract_z
Si Si1 0.352343 0.635545 0.856402
Si Si2 0.653634 0.590478 0.505771
Si Si3 0.950523 0.527800 0.159351
Si Si4 0.136781 0.135310 0.974325
Si Si5 0.017787 0.666710 0.545189
Si Si6 0.500000 0.905338 0.250000
Si Si7 0.806985 0.093967 0.330331
O O1 0.500000 0.680386 0.750000
O O2 0.391471 0.639216 0.910665
O O3 0.165351 0.679199 0.914275
O O4 0.334945 0.517226 0.846822
O O5 0.871369 0.596243 0.407364
O O6 0.516618 0.629054 0.512852
O O7 0.630263 0.469460 0.513088
O O8 0.900892 0.477746 0.243565
O O9 0.997075 0.430822 0.096501
O O10 0.786842 0.582631 0.195278
O O11 0.333277 0.143029 0.858332
O O12 0.078688 0.225156 0.043664
O O13 0.165639 0.644727 0.432935
O O14 0.000000 0.144488 0.250000
#
# Coordination Sequence:
#
# PCOD9270805 Si02
#       7
#     8   8   8   8   8   4   8
#     4  10  20  37  69  91 121 167 214 260 304 374
#     4  10  20  43  63  86 124 172 211 245 325 378
#     4  10  20  41  66  89 128 167 214 262 306 383
#     4  10  25  39  64  89 131 171 203 262 319 381
#     4  11  21  40  65  96 126 160 214 268 316 360
#     4  10  24  38  62  92 126 172 210 248 326 380
#     4  10  20  35  66  99 124 162 213 262 311 374
#
# _framework density 23.760857000000001
#
# number of rings (size 3 to 8) (size 9 to 14) (size 15 to 20)
#    0.000    1.846    3.077    0.923    7.538    3.077 
#    0.000    0.000   15.231    0.000    0.000    0.000 
#    0.000    0.000    0.000    0.000    0.000    0.000 
#
# Total GULP energy -145222.840059 kJ/mol
# GULP energy per Si atom -5585.493848 kJ/mol
# Density = 2.370678 g / cm^3
# Si number density = 23.760857 Si / 1000 Ang^3
#
#
#
# Elastic Constant Matrix: (Units=GPa)
#
#
# Indices 1 2 3 4 5 6 
#
# 1 165.0479 -1.7285 35.7924 0.0000 -19.5618 0.0000
# 2 -1.7285 48.9895 29.7170 0.0000 -14.6582 0.0000
# 3 35.7924 29.7170 112.9902 0.0000 -21.8934 0.0000
# 4 0.0000 0.0000 0.0000 30.3044 0.0000 -4.7636
# 5 -19.5618 -14.6582 -21.8934 0.0000 40.4379 0.0000
# 6 0.0000 0.0000 0.0000 -4.7636 0.0000 -5.3042
#
#
#
# Elastic Compliance Matrix: (Units=1/GPa)
#
#
# Indices 1 2 3 4 5 6 
#
# 1 0.006940 0.002536 -0.002275 0.000000 0.003044 0.000000
# 2 0.002536 0.026577 -0.006356 0.000000 0.007420 0.000000
# 3 -0.002275 -0.006356 0.011823 0.000000 0.002997 0.000000
# 4 0.000000 0.000000 0.000000 0.028916 0.000000 -0.025969
# 5 0.003044 0.007420 0.002997 0.000000 0.030514 0.000000
# 6 0.000000 0.000000 0.000000 -0.025969 0.000000 -0.165207
#
#
# Mechanical properties :
#
#
# Convention : Reuss Voigt Hill
#
# Bulk Modulus (GPa) = 30.16552 50.50992 40.33772
# Shear Modulus (GPa) = -134.42457 30.63739 -51.89359
#
# Velocity S-wave (km/s) = -7.52973 3.59473 -4.67839
# Velocity P-wave (km/s) = 7.92923 6.20751 3.48852
#
# Compressibility (1/GPa) = 0.03315043
#
# Stress axis : x y z
#
# Youngs Moduli (GPa) = 144.09867 37.62587 84.57846
#
# Poissons Ratio (x) = -0.09542 0.19245
# Poissons Ratio (y) = -0.36544 0.53755
# Poissons Ratio (z) = 0.32788 0.23914
#
# Static dielectric constant tensor:
#      x y z
#    x 1.889520 0.000000 -0.033060 
#    y 0.000000 2.040340 0.000000 
#    z -0.033060 0.000000 1.907600 
# 
# From -- ./inp_files/269902.got.cif
#   From: 2010.05.17/outbox.cif.g08.bks.cpg/sg15_135_cif.got.tgz:269902.got - 2010.06.03 18:47:42.
