data_PCOD9270058
_publ_section_title
;
Structure prediction by ZEFSAII (Michael W. Deem and Ramdas Pophale) SiO2 
 PCOD9270058
Probable space group: C 2/C
;
_chemical_formula_sum "Si O2"
_cell_formula_units_Z 44
_cell_length_a 12.157255
_cell_length_b 31.707868
_cell_length_c 4.901769
_cell_angle_alpha 90.000000
_cell_angle_beta 114.635213
_cell_angle_gamma 90.000000
_cell_volume 1717.551560
_symmetry_space_group_name_H-M "C 2/C"
_symmetry_group_IT_number 15
_symmetry_cell_setting 'monoclinic'
loop_
_space_group_symop_operation_xyz
x,y,z
-x,y,1/2-z
-x,-y,-z
x,-y,1/2+z
1/2+x,1/2+y,z
1/2-x,1/2+y,1/2-z
1/2-x,1/2-y,-z
1/2+x,1/2-y,1/2+z
loop_
_atom_site_type_symbol
_atom_site_label
_atom_site_fract_x
_atom_site_fract_y
_atom_site_fract_z
Si Si1 0.887089 0.721290 0.323554
Si Si2 0.251653 0.387928 0.378367
Si Si3 0.000000 0.209304 0.250000
Si Si4 0.000000 0.356629 0.250000
Si Si5 0.000000 0.500000 0.500000
Si Si6 0.171441 0.164311 0.033465
Si Si7 0.257374 0.524665 0.591833
O O1 0.893146 0.758683 0.547896
O O2 0.756410 0.706052 0.094003
O O3 0.000000 0.733485 0.250000
O O4 0.931738 0.676205 0.484947
O O5 0.284934 0.374462 0.721037
O O6 0.282572 0.433396 0.283356
O O7 0.107566 0.380390 0.206978
O O8 0.321120 0.355387 0.256375
O O9 0.054284 0.181104 0.066869
O O10 0.890833 0.478838 0.605069
O O11 0.000000 0.463751 0.250000
O O12 0.298587 0.513724 0.331701
#
# Coordination Sequence:
#
# PCOD9270058 Si02
#       7
#     8   8   4   4   4   8   8
#     4  10  20  40  61  91 124 167 205 258 307 381
#     4  11  23  39  62  87 134 166 205 258 304 387
#     4  11  26  40  68  88 126 164 218 274 298 368
#     4   9  20  36  54  88 128 172 202 236 320 360
#     4   8  16  28  42  74 112 142 198 212 278 356
#     4  11  25  43  61  97 122 172 211 254 324 363
#     4  10  20  35  54  88 120 166 203 245 305 375
#
# _framework density 25.617861000000001
#
# number of rings (size 3 to 8) (size 9 to 14) (size 15 to 20)
#    0.000    1.818    1.818    1.636    6.364    0.727 
#    9.818    0.000    0.000    0.000    0.000   12.727 
#    0.000    0.000    0.000    0.000    0.000    0.000 
#
# Total GULP energy -122515.434193 kJ/mol
# GULP energy per Si atom -5568.883372 kJ/mol
# Density = 2.555955 g / cm^3
# Si number density = 25.617861 Si / 1000 Ang^3
#
#
#
# Elastic Constant Matrix: (Units=GPa)
#
#
# Indices 1 2 3 4 5 6 
#
# 1 94.3325 26.3546 17.0355 0.0000 -19.2786 0.0000
# 2 26.3546 114.3239 13.1322 0.0000 7.1508 0.0000
# 3 17.0355 13.1322 117.7503 0.0000 -29.5594 0.0000
# 4 0.0000 0.0000 0.0000 87.4139 0.0000 -18.8245
# 5 -19.2786 7.1508 -29.5594 0.0000 35.5540 0.0000
# 6 0.0000 0.0000 0.0000 -18.8245 0.0000 18.2441
#
#
#
# Elastic Compliance Matrix: (Units=1/GPa)
#
#
# Indices 1 2 3 4 5 6 
#
# 1 0.013228 -0.003645 0.000603 0.000000 0.008407 0.000000
# 2 -0.003645 0.010180 -0.002045 0.000000 -0.005724 0.000000
# 3 0.000603 -0.002045 0.011145 0.000000 0.010004 0.000000
# 4 0.000000 0.000000 0.000000 0.014708 0.000000 0.015176
# 5 0.008407 -0.005724 0.010004 0.000000 0.042153 0.000000
# 6 0.000000 0.000000 0.000000 0.015176 0.000000 0.070471
#
#
# Mechanical properties :
#
#
# Convention : Reuss Voigt Hill
#
# Bulk Modulus (GPa) = 41.01648 48.82791 44.92220
# Shear Modulus (GPa) = 27.74926 46.23471 36.99198
#
# Velocity S-wave (km/s) = 3.29477 4.25288 3.80411
# Velocity P-wave (km/s) = 5.52446 6.57400 6.07195
#
# Compressibility (1/GPa) = 0.02438044
#
# Stress axis : x y z
#
# Youngs Moduli (GPa) = 75.59542 98.23004 89.72872
#
# Poissons Ratio (x) = 0.35801 -0.05413
# Poissons Ratio (y) = 0.27552 0.18349
# Poissons Ratio (z) = -0.04560 0.20088
#
# Static dielectric constant tensor:
#      x y z
#    x 2.462140 0.000000 1.364880 
#    y 0.000000 2.087320 0.000000 
#    z 1.364880 0.000000 6.608870 
# 
# From -- ./inp_files/5891.got.cif
#   From: 2010.05.17/outbox.cif.g08.bks.cpg/sg15_3_cif.got.tgz:5891.got - 2010.06.03 18:47:42.
