data_PCOD9270371
_publ_section_title
;
Structure prediction by ZEFSAII (Michael W. Deem and Ramdas Pophale) SiO2 
 PCOD9270371
Probable space group: C 2/C
;
_chemical_formula_sum "Si O2"
_cell_formula_units_Z 48
_cell_length_a 16.205299
_cell_length_b 8.927844
_cell_length_c 19.767059
_cell_angle_alpha 90.000000
_cell_angle_beta 107.718293
_cell_angle_gamma 90.000000
_cell_volume 2724.206532
_symmetry_space_group_name_H-M "C 2/C"
_symmetry_group_IT_number 15
_symmetry_cell_setting 'monoclinic'
loop_
_space_group_symop_operation_xyz
x,y,z
-x,y,1/2-z
-x,-y,-z
x,-y,1/2+z
1/2+x,1/2+y,z
1/2-x,1/2+y,1/2-z
1/2-x,1/2-y,-z
1/2+x,1/2-y,1/2+z
loop_
_atom_site_type_symbol
_atom_site_label
_atom_site_fract_x
_atom_site_fract_y
_atom_site_fract_z
Si Si1 0.972780 0.854542 0.168621
Si Si2 0.213149 0.152167 0.929227
Si Si3 0.011229 0.217053 0.330798
Si Si4 0.341308 0.324604 0.535222
Si Si5 0.397210 0.128590 0.915502
Si Si6 0.459925 0.786937 0.946616
O O1 0.874689 0.798932 0.130035
O O2 0.000000 0.806885 0.250000
O O3 0.029778 0.788457 0.122793
O O4 0.986136 0.035141 0.167874
O O5 0.294426 0.138931 0.898786
O O6 0.182111 0.993372 0.951486
O O7 0.250000 0.250000 0.000000
O O8 0.102364 0.253313 0.390976
O O9 0.000000 0.263940 0.250000
O O10 0.937232 0.290123 0.359618
O O11 0.250000 0.250000 0.500000
O O12 0.399087 0.304922 0.482611
O O13 0.423969 0.954260 0.926622
O O14 0.447464 0.201798 0.992141
#
# Coordination Sequence:
#
# PCOD9270371 Si02
#       6
#     8   8   8   8   8   8
#     4  10  22  40  56  80 117 151 183 228 285 337
#     4  11  21  35  59  86 110 140 193 233 270 335
#     4   9  21  38  58  78 115 153 184 222 283 336
#     4  10  20  36  58  81 115 145 183 233 278 325
#     4  10  20  35  58  86 112 143 189 233 272 332
#     4  10  20  36  58  82 113 149 184 228 285 328
#
# _framework density 17.619810000000001
#
# number of rings (size 3 to 8) (size 9 to 14) (size 15 to 20)
#    0.000    2.000    3.333    0.000    2.333    2.667 
#    3.000    0.000    0.000    0.000    0.000    0.000 
#    0.000    0.000    0.000    0.000    0.000    0.000 
#
# Total GULP energy -133758.722368 kJ/mol
# GULP energy per Si atom -5573.280099 kJ/mol
# Density = 1.757971 g / cm^3
# Si number density = 17.619810 Si / 1000 Ang^3
#
#
#
# Elastic Constant Matrix: (Units=GPa)
#
#
# Indices 1 2 3 4 5 6 
#
# 1 139.3650 31.9234 76.7285 0.0000 3.0510 0.0000
# 2 31.9234 25.0030 33.4989 0.0000 -1.4175 0.0000
# 3 76.7285 33.4989 160.7616 0.0000 -8.9052 0.0000
# 4 0.0000 0.0000 0.0000 23.1147 0.0000 -4.0945
# 5 3.0510 -1.4175 -8.9052 0.0000 28.0689 0.0000
# 6 0.0000 0.0000 0.0000 -4.0945 0.0000 28.5036
#
#
#
# Elastic Compliance Matrix: (Units=1/GPa)
#
#
# Indices 1 2 3 4 5 6 
#
# 1 0.011505 -0.010102 -0.003546 0.000000 -0.002886 0.000000
# 2 -0.010102 0.064378 -0.008502 0.000000 0.001652 0.000000
# 3 -0.003546 -0.008502 0.009855 0.000000 0.003083 0.000000
# 4 0.000000 0.000000 0.000000 0.044392 0.000000 0.006377
# 5 -0.002886 0.001652 0.003083 0.000000 0.037002 0.000000
# 6 0.000000 0.000000 0.000000 0.006377 0.000000 0.035999
#
#
# Mechanical properties :
#
#
# Convention : Reuss Voigt Hill
#
# Bulk Modulus (GPa) = 24.13228 67.71455 45.92341
# Shear Modulus (GPa) = 19.13930 28.13603 23.63766
#
# Velocity S-wave (km/s) = 3.29939 4.00038 3.66668
# Velocity P-wave (km/s) = 5.31417 7.73639 6.63672
#
# Compressibility (1/GPa) = 0.04143828
#
# Stress axis : x y z
#
# Youngs Moduli (GPa) = 86.92047 15.53334 101.47057
#
# Poissons Ratio (x) = 0.15692 0.35980
# Poissons Ratio (y) = 0.87807 0.86268
# Poissons Ratio (z) = 0.30821 0.13206
#
# Static dielectric constant tensor:
#      x y z
#    x 1.715950 0.000000 -0.056880 
#    y 0.000000 1.686750 0.000000 
#    z -0.056880 0.000000 1.648320 
# 
# From -- ./inp_files/242339.got.cif
#   From: 2010.05.17/outbox.cif.g08.bks.cpg/sg15_122_cif.got.tgz:242339.got - 2010.06.03 18:47:42.
