data_PCOD9270746
_publ_section_title
;
Structure prediction by ZEFSAII (Michael W. Deem and Ramdas Pophale) SiO2 
 PCOD9270746
Probable space group: C 2/C
;
_chemical_formula_sum "Si O2"
_cell_formula_units_Z 48
_cell_length_a 19.171823
_cell_length_b 10.075542
_cell_length_c 20.415738
_cell_angle_alpha 90.000000
_cell_angle_beta 39.271415
_cell_angle_gamma 90.000000
_cell_volume 2496.301294
_symmetry_space_group_name_H-M "C 2/C"
_symmetry_group_IT_number 15
_symmetry_cell_setting 'monoclinic'
loop_
_space_group_symop_operation_xyz
x,y,z
-x,y,1/2-z
-x,-y,-z
x,-y,1/2+z
1/2+x,1/2+y,z
1/2-x,1/2+y,1/2-z
1/2-x,1/2-y,-z
1/2+x,1/2-y,1/2+z
loop_
_atom_site_type_symbol
_atom_site_label
_atom_site_fract_x
_atom_site_fract_y
_atom_site_fract_z
Si Si1 0.573752 0.574910 0.358374
Si Si2 0.506710 0.066491 0.422765
Si Si3 0.650308 0.155543 0.762554
Si Si4 0.157736 0.987022 0.434517
Si Si5 0.834033 0.199776 0.738031
Si Si6 0.701348 0.247296 0.963290
O O1 0.610439 0.694131 0.285755
O O2 0.644536 0.560966 0.373874
O O3 0.450692 0.599157 0.474229
O O4 0.591185 0.431593 0.314059
O O5 0.599185 0.182531 0.346907
O O6 0.392657 0.136966 0.483719
O O7 0.500000 0.000000 0.500000
O O8 0.550809 0.946424 0.345560
O O9 0.732644 0.099404 0.648082
O O10 0.726882 0.161555 0.772526
O O11 0.155093 0.105104 0.487218
O O12 0.794475 0.234966 0.839320
O O13 0.750000 0.250000 0.000000
#
# Coordination Sequence:
#
# PCOD9270746 Si02
#       6
#     8   8   8   8   8   8
#     4  10  20  35  63  93 126 157 207 278 332 372
#     4  12  23  39  66  99 128 163 229 273 329 384
#     4  11  21  34  64  96 125 156 212 283 323 378
#     4  10  20  38  57  91 127 160 212 264 327 379
#     4  11  21  39  62  99 128 166 214 273 331 391
#     4  12  25  42  63  93 134 177 219 265 327 412
#
# _framework density 19.228448
#
# number of rings (size 3 to 8) (size 9 to 14) (size 15 to 20)
#    0.000    1.000    6.667    1.000    4.667    0.667 
#    0.000    0.000    0.000    6.000    0.000    0.000 
#    0.000    0.000    0.000    0.000    0.000    0.000 
#
# Total GULP energy -133835.825715 kJ/mol
# GULP energy per Si atom -5576.492738 kJ/mol
# Density = 1.918468 g / cm^3
# Si number density = 19.228448 Si / 1000 Ang^3
#
#
#
# Elastic Constant Matrix: (Units=GPa)
#
#
# Indices 1 2 3 4 5 6 
#
# 1 70.9581 26.9150 37.8036 0.0000 8.9658 0.0000
# 2 26.9150 130.0358 49.0813 0.0000 -10.5064 0.0000
# 3 37.8036 49.0813 97.0818 0.0000 -11.9736 0.0000
# 4 0.0000 0.0000 0.0000 42.8222 0.0000 -4.5539
# 5 8.9658 -10.5064 -11.9736 0.0000 16.8617 0.0000
# 6 0.0000 0.0000 0.0000 -4.5539 0.0000 13.2882
#
#
#
# Elastic Compliance Matrix: (Units=1/GPa)
#
#
# Indices 1 2 3 4 5 6 
#
# 1 0.023344 -0.002639 -0.010401 0.000000 -0.021442 0.000000
# 2 -0.002639 0.009920 -0.003345 0.000000 0.005208 0.000000
# 3 -0.010401 -0.003345 0.018048 0.000000 0.016262 0.000000
# 4 0.000000 0.000000 0.000000 0.024236 0.000000 0.008306
# 5 -0.021442 0.005208 0.016262 0.000000 0.085500 0.000000
# 6 0.000000 0.000000 0.000000 0.008306 0.000000 0.078101
#
#
# Mechanical properties :
#
#
# Convention : Reuss Voigt Hill
#
# Bulk Modulus (GPa) = 53.93113 58.40840 56.16977
# Shear Modulus (GPa) = 17.97927 26.87948 22.42938
#
# Velocity S-wave (km/s) = 3.06115 3.74291 3.41907
# Velocity P-wave (km/s) = 6.37202 7.00865 6.69790
#
# Compressibility (1/GPa) = 0.01854217
#
# Stress axis : x y z
#
# Youngs Moduli (GPa) = 42.83741 100.80853 55.40920
#
# Poissons Ratio (x) = 0.26599 0.57630
# Poissons Ratio (y) = 0.11303 0.18536
# Poissons Ratio (z) = 0.44554 0.33724
#
# Static dielectric constant tensor:
#      x y z
#    x 1.686470 0.000000 -0.029510 
#    y 0.000000 1.705760 0.000000 
#    z -0.029510 0.000000 1.711570 
# 
# From -- ./inp_files/251780.got.cif
#   From: 2010.05.17/outbox.cif.g08.bks.cpg/sg15_126_cif.got.tgz:251780.got - 2010.06.03 18:47:42.
