data_PCOD9270507
_publ_section_title
;
Structure prediction by ZEFSAII (Michael W. Deem and Ramdas Pophale) SiO2 
 PCOD9270507
Probable space group: C 2/C
;
_chemical_formula_sum "Si O2"
_cell_formula_units_Z 48
_cell_length_a 13.694862
_cell_length_b 28.696824
_cell_length_c 8.849447
_cell_angle_alpha 90.000000
_cell_angle_beta 130.254762
_cell_angle_gamma 90.000000
_cell_volume 2654.201594
_symmetry_space_group_name_H-M "C 2/C"
_symmetry_group_IT_number 15
_symmetry_cell_setting 'monoclinic'
loop_
_space_group_symop_operation_xyz
x,y,z
-x,y,1/2-z
-x,-y,-z
x,-y,1/2+z
1/2+x,1/2+y,z
1/2-x,1/2+y,1/2-z
1/2-x,1/2-y,-z
1/2+x,1/2-y,1/2+z
loop_
_atom_site_type_symbol
_atom_site_label
_atom_site_fract_x
_atom_site_fract_y
_atom_site_fract_z
Si Si1 1.000000 0.294783 0.430667
Si Si2 0.251184 0.643932 0.820194
Si Si3 0.000000 0.192540 0.930151
Si Si4 0.348021 0.950195 0.417737
Si Si5 0.348021 0.049805 0.278304
Si Si6 0.751184 0.856068 0.682174
O O1 0.000000 0.246139 0.516953
O O2 0.126021 0.324854 0.592187
O O3 0.000000 0.285513 0.250000
O O4 0.873979 0.324854 0.340144
O O5 0.374790 0.667583 0.871517
O O6 0.226584 0.592588 0.730557
O O7 0.264331 0.642049 0.014332
O O8 0.000000 0.189700 0.750000
O O9 0.125210 0.167583 0.121937
O O10 0.500000 0.943675 0.537974
O O11 0.331011 0.950663 0.581011
O O12 0.310950 1.000000 0.310950
O O13 0.273416 0.092587 0.277390
#
# Coordination Sequence:
#
# PCOD9270507 Si02
#       6
#     8   8   8   8   8   8
#     4  10  22  40  63  88 115 154 203 248 293 350
#     4  11  22  40  63  88 119 157 200 245 296 351
#     4  12  26  40  57  86 123 160 198 244 299 354
#     4  10  20  35  59  90 122 154 194 242 292 347
#     4  10  20  35  59  90 122 154 194 242 292 347
#     4  11  22  40  63  88 119 157 200 245 296 351
#
# _framework density 18.084534000000001
#
# number of rings (size 3 to 8) (size 9 to 14) (size 15 to 20)
#    0.000    1.333    1.667    4.500    0.000    8.000 
#    0.000    0.833    0.000    0.000    0.000    0.000 
#    0.000    0.000    0.000    0.000    0.000    0.000 
#
# Total GULP energy -134210.964881 kJ/mol
# GULP energy per Si atom -5592.123537 kJ/mol
# Density = 1.804337 g / cm^3
# Si number density = 18.084534 Si / 1000 Ang^3
#
#
#
# Elastic Constant Matrix: (Units=GPa)
#
#
# Indices 1 2 3 4 5 6 
#
# 1 124.0700 92.5057 70.1607 0.0000 13.3159 0.0000
# 2 92.5057 196.8088 92.5057 0.0000 0.0030 0.0000
# 3 70.1607 92.5057 120.1885 0.0000 14.3795 0.0000
# 4 0.0000 0.0000 0.0000 31.1032 0.0000 -11.8849
# 5 13.3159 0.0030 14.3795 0.0000 18.4342 0.0000
# 6 0.0000 0.0000 0.0000 -11.8849 0.0000 29.4371
#
#
#
# Elastic Compliance Matrix: (Units=1/GPa)
#
#
# Indices 1 2 3 4 5 6 
#
# 1 0.014944 -0.005276 -0.003718 0.000000 -0.007893 0.000000
# 2 -0.005276 0.010317 -0.005864 0.000000 0.008384 0.000000
# 3 -0.003718 -0.005864 0.016194 0.000000 -0.009945 0.000000
# 4 0.000000 0.000000 0.000000 0.038016 0.000000 0.015349
# 5 -0.007893 0.008384 -0.009945 0.000000 0.067705 0.000000
# 6 0.000000 0.000000 0.000000 0.015349 0.000000 0.040168
#
#
# Mechanical properties :
#
#
# Convention : Reuss Voigt Hill
#
# Bulk Modulus (GPa) = 85.19140 105.71242 95.45191
# Shear Modulus (GPa) = 22.62733 28.18788 25.40761
#
# Velocity S-wave (km/s) = 3.54107 3.95229 3.75231
# Velocity P-wave (km/s) = 7.99553 8.91117 8.46574
#
# Compressibility (1/GPa) = 0.01173827
#
# Stress axis : x y z
#
# Youngs Moduli (GPa) = 66.91857 96.92723 61.75226
#
# Poissons Ratio (x) = 0.51140 0.22960
# Poissons Ratio (y) = 0.35307 0.36210
# Poissons Ratio (z) = 0.24881 0.56836
#
# Static dielectric constant tensor:
#      x y z
#    x 1.597480 0.000000 -0.001620 
#    y 0.000000 1.586230 0.000000 
#    z -0.001620 0.000000 1.597710 
# 
# From -- ./inp_files/43914.got.cif
#   From: 2010.05.17/outbox.cif.g08.bks.cpg/sg15_22_cif.got.tgz:43914.got - 2010.06.03 18:47:42.
