data_PCOD9270391
_publ_section_title
;
Structure prediction by ZEFSAII (Michael W. Deem and Ramdas Pophale) SiO2 
 PCOD9270391
Probable space group: C 2/C
;
_chemical_formula_sum "Si O2"
_cell_formula_units_Z 56
_cell_length_a 23.838999
_cell_length_b 18.835644
_cell_length_c 20.716957
_cell_angle_alpha 90.000000
_cell_angle_beta 159.672372
_cell_angle_gamma 90.000000
_cell_volume 3231.536696
_symmetry_space_group_name_H-M "C 2/C"
_symmetry_group_IT_number 15
_symmetry_cell_setting 'monoclinic'
loop_
_space_group_symop_operation_xyz
x,y,z
-x,y,1/2-z
-x,-y,-z
x,-y,1/2+z
1/2+x,1/2+y,z
1/2-x,1/2+y,1/2-z
1/2-x,1/2-y,-z
1/2+x,1/2-y,1/2+z
loop_
_atom_site_type_symbol
_atom_site_label
_atom_site_fract_x
_atom_site_fract_y
_atom_site_fract_z
Si Si1 0.269329 0.330729 0.353615
Si Si2 0.390870 0.182477 0.439889
Si Si3 0.920836 0.028105 0.979679
Si Si4 0.967953 0.513688 0.286549
Si Si5 0.267421 0.407838 0.622098
Si Si6 0.106317 0.441561 0.656819
Si Si7 0.176547 0.902149 0.956041
O O1 0.339783 0.264047 0.391103
O O2 0.316401 0.399793 0.362812
O O3 0.335583 0.348170 0.497197
O O4 0.079340 0.322737 0.160629
O O5 0.272435 0.144897 0.363231
O O6 0.384787 0.134008 0.369272
O O7 0.069824 0.048950 0.186566
O O8 0.788680 0.971098 0.858408
O O9 0.000000 0.000000 0.000000
O O10 0.959040 0.561433 0.340719
O O11 0.000000 0.546274 0.250000
O O12 0.118586 0.461604 0.459531
O O13 0.808275 0.463206 0.112975
O O14 0.272406 0.369884 0.557988
O O15 0.000000 0.500000 0.500000
O O16 0.000000 0.932842 0.750000
#
# Coordination Sequence:
#
# PCOD9270391 Si02
#       7
#     8   8   8   8   8   8   8
#     4  12  25  41  52  83 120 156 198 246 287 350
#     4  12  25  39  57  80 121 155 202 241 293 344
#     4  12  21  35  61  83 113 152 199 244 295 344
#     4  10  20  35  58  87 117 146 194 248 299 343
#     4  11  20  35  55  84 111 156 194 235 286 350
#     4  12  19  39  61  84 112 157 195 254 293 346
#     4  11  20  36  55  78 118 160 196 232 282 351
#
# _framework density 17.329217
#
# number of rings (size 3 to 8) (size 9 to 14) (size 15 to 20)
#    0.000    0.571    8.571    0.857    0.000    0.571 
#    0.000    0.000    0.000    0.000    0.000    1.000 
#    4.286    0.000    0.000    0.000    0.000    0.000 
#
# Total GULP energy -156000.066606 kJ/mol
# GULP energy per Si atom -5571.430950 kJ/mol
# Density = 1.728977 g / cm^3
# Si number density = 17.329217 Si / 1000 Ang^3
#
#
#
# Elastic Constant Matrix: (Units=GPa)
#
#
# Indices 1 2 3 4 5 6 
#
# 1 130.0948 49.5475 -1.6097 -0.0001 -9.0357 0.0005
# 2 49.5475 67.5850 22.6919 0.0007 -10.3983 0.0011
# 3 -1.6097 22.6919 105.6144 -0.0024 11.1012 -0.0013
# 4 -0.0001 0.0007 -0.0024 16.5808 -0.0004 0.7150
# 5 -9.0357 -10.3983 11.1012 -0.0004 24.6874 0.0004
# 6 0.0005 0.0011 -0.0013 0.7150 0.0004 10.0113
#
#
#
# Elastic Compliance Matrix: (Units=1/GPa)
#
#
# Indices 1 2 3 4 5 6 
#
# 1 0.011075 -0.008952 0.002165 0.000001 -0.000691 0.000001
# 2 -0.008952 0.025170 -0.006628 -0.000002 0.010305 -0.000003
# 3 0.002165 -0.006628 0.011688 0.000002 -0.007255 0.000002
# 4 0.000001 -0.000002 0.000002 0.060497 0.000000 -0.004321
# 5 -0.000691 0.010305 -0.007255 0.000000 0.047857 -0.000004
# 6 0.000001 -0.000003 0.000002 -0.004321 -0.000004 0.100196
#
#
# Mechanical properties :
#
#
# Convention : Reuss Voigt Hill
#
# Bulk Modulus (GPa) = 47.38695 49.39484 48.39089
# Shear Modulus (GPa) = 17.22074 25.76684 21.49379
#
# Velocity S-wave (km/s) = 3.15578 3.86022 3.52564
# Velocity P-wave (km/s) = 6.37833 6.95946 6.67522
#
# Compressibility (1/GPa) = 0.02110286
#
# Stress axis : x y z
#
# Youngs Moduli (GPa) = 90.29237 39.72965 85.55818
#
# Poissons Ratio (x) = 0.35568 -0.18523
# Poissons Ratio (y) = 0.80834 0.56705
# Poissons Ratio (z) = -0.19547 0.26331
#
# Static dielectric constant tensor:
#      x y z
#    x 1.643750 0.000000 -0.004050 
#    y 0.000000 1.572430 0.000000 
#    z -0.004050 0.000000 1.624260 
# 
# From -- ./inp_files/56165.got.cif
#   From: 2010.05.17/outbox.cif.g08.bks.cpg/sg15_29_cif.got.tgz:56165.got - 2010.06.03 18:47:42.
