data_PCOD9270792
_publ_section_title
;
Structure prediction by ZEFSAII (Michael W. Deem and Ramdas Pophale) SiO2 
 PCOD9270792
Probable space group: C 2/C
;
_chemical_formula_sum "Si O2"
_cell_formula_units_Z 56
_cell_length_a 5.175092
_cell_length_b 20.787905
_cell_length_c 24.474039
_cell_angle_alpha 90.000000
_cell_angle_beta 82.916649
_cell_angle_gamma 90.000000
_cell_volume 2612.805703
_symmetry_space_group_name_H-M "C 2/C"
_symmetry_group_IT_number 15
_symmetry_cell_setting 'monoclinic'
loop_
_space_group_symop_operation_xyz
x,y,z
-x,y,1/2-z
-x,-y,-z
x,-y,1/2+z
1/2+x,1/2+y,z
1/2-x,1/2+y,1/2-z
1/2-x,1/2-y,-z
1/2+x,1/2-y,1/2+z
loop_
_atom_site_type_symbol
_atom_site_label
_atom_site_fract_x
_atom_site_fract_y
_atom_site_fract_z
Si Si1 0.288335 0.229707 0.611851
Si Si2 0.417988 0.141250 0.808950
Si Si3 0.648593 0.773690 0.799797
Si Si4 0.443388 0.351167 0.868259
Si Si5 0.598956 0.084704 0.092259
Si Si6 0.280313 0.121450 0.531064
Si Si7 0.755047 0.936605 0.084211
O O1 0.374336 0.177603 0.656361
O O2 0.508993 0.284229 0.599452
O O3 0.221276 0.190391 0.559651
O O4 0.045106 0.267042 0.643709
O O5 0.500000 0.107829 0.750000
O O6 0.252824 0.201465 0.790846
O O7 0.271632 0.094417 0.854721
O O8 0.500000 0.793748 0.750000
O O9 0.873624 0.822035 0.811301
O O10 0.707163 0.391107 0.865625
O O11 0.200038 0.394857 0.892357
O O12 0.651185 0.009045 0.085795
O O13 0.698728 0.118188 0.034123
O O14 0.558474 0.101298 0.549193
O O15 0.049856 0.073645 0.556436
#
# Coordination Sequence:
#
# PCOD9270792 Si02
#       7
#     8   8   8   8   8   8   8
#     4  10  21  39  62  96 123 153 213 267 320 383
#     4  10  20  35  65  96 119 154 200 275 332 361
#     4  11  20  40  68  90 123 158 207 268 327 377
#     4  11  25  41  61  93 126 169 213 252 319 392
#     4  12  24  43  62  89 136 179 210 255 314 387
#     4  11  23  40  67  95 124 169 217 272 320 369
#     4  11  23  41  65  93 127 164 223 264 313 391
#
# _framework density 21.432898999999999
#
# number of rings (size 3 to 8) (size 9 to 14) (size 15 to 20)
#    0.000    1.143    4.286    2.571    0.000    1.143 
#    0.000    0.714    0.000    0.000    0.000    0.000 
#    0.000    0.000    0.000    0.000    0.000    0.000 
#
# Total GULP energy -156365.246822 kJ/mol
# GULP energy per Si atom -5584.473101 kJ/mol
# Density = 2.138412 g / cm^3
# Si number density = 21.432899 Si / 1000 Ang^3
#
#
#
# Elastic Constant Matrix: (Units=GPa)
#
#
# Indices 1 2 3 4 5 6 
#
# 1 72.1874 11.3122 3.4435 0.0000 -3.0037 0.0000
# 2 11.3122 41.4728 0.0349 0.0000 4.2284 0.0000
# 3 3.4435 0.0349 59.9664 0.0000 10.0071 0.0000
# 4 0.0000 0.0000 0.0000 3.1320 0.0000 0.3147
# 5 -3.0037 4.2284 10.0071 0.0000 28.0311 0.0000
# 6 0.0000 0.0000 0.0000 0.3147 0.0000 33.4557
#
#
#
# Elastic Compliance Matrix: (Units=1/GPa)
#
#
# Indices 1 2 3 4 5 6 
#
# 1 0.014697 -0.004281 -0.001289 0.000000 0.002681 0.000000
# 2 -0.004281 0.025759 0.001016 0.000000 -0.004707 0.000000
# 3 -0.001289 0.001016 0.017862 0.000000 -0.006668 0.000000
# 4 0.000000 0.000000 0.000000 0.319591 0.000000 -0.003006
# 5 0.002681 -0.004707 -0.006668 0.000000 0.039053 0.000000
# 6 0.000000 0.000000 0.000000 -0.003006 0.000000 0.029919
#
#
# Mechanical properties :
#
#
# Convention : Reuss Voigt Hill
#
# Bulk Modulus (GPa) = 20.32060 22.57864 21.44962
# Shear Modulus (GPa) = 10.58447 23.51280 17.04863
#
# Velocity S-wave (km/s) = 2.22467 3.31576 2.82342
# Velocity P-wave (km/s) = 4.01254 5.02160 4.54516
#
# Compressibility (1/GPa) = 0.04921113
#
# Stress axis : x y z
#
# Youngs Moduli (GPa) = 68.04246 38.82146 55.98414
#
# Poissons Ratio (x) = 0.16619 0.07215
# Poissons Ratio (y) = 0.29128 -0.05690
# Poissons Ratio (z) = 0.08769 -0.03946
#
# Static dielectric constant tensor:
#      x y z
#    x 1.845280 0.000000 -0.027700 
#    y 0.000000 1.784590 0.000000 
#    z -0.027700 0.000000 1.785550 
# 
# From -- ./inp_files/261177.got.cif
#   From: 2010.05.17/outbox.cif.g08.bks.cpg/sg15_131_cif.got.tgz:261177.got - 2010.06.03 18:47:42.
