data_PCOD9270166
_publ_section_title
;
Structure prediction by ZEFSAII (Michael W. Deem and Ramdas Pophale) SiO2 
 PCOD9270166
Probable space group: C 2/C
;
_chemical_formula_sum "Si O2"
_cell_formula_units_Z 40
_cell_length_a 16.169949
_cell_length_b 8.541426
_cell_length_c 19.818122
_cell_angle_alpha 90.000000
_cell_angle_beta 142.814868
_cell_angle_gamma 90.000000
_cell_volume 1654.323824
_symmetry_space_group_name_H-M "C 2/C"
_symmetry_group_IT_number 15
_symmetry_cell_setting 'monoclinic'
loop_
_space_group_symop_operation_xyz
x,y,z
-x,y,1/2-z
-x,-y,-z
x,-y,1/2+z
1/2+x,1/2+y,z
1/2-x,1/2+y,1/2-z
1/2-x,1/2-y,-z
1/2+x,1/2-y,1/2+z
loop_
_atom_site_type_symbol
_atom_site_label
_atom_site_fract_x
_atom_site_fract_y
_atom_site_fract_z
Si Si1 0.732928 0.845257 0.827759
Si Si2 0.811774 0.696494 0.467564
Si Si3 0.740107 0.147859 0.782474
Si Si4 0.030287 0.996472 0.925794
Si Si5 0.814533 0.123838 0.592466
O O1 0.789417 0.745851 0.802660
O O2 0.649367 0.727950 0.819784
O O3 0.653433 0.993121 0.744200
O O4 0.849997 0.921297 0.951496
O O5 0.750000 0.750000 0.500000
O O6 0.739610 0.747542 0.349927
O O7 0.797601 0.509063 0.460476
O O8 0.944014 0.810045 0.550146
O O9 0.889674 0.072849 0.859512
O O10 0.067848 0.036502 0.873041
O O11 0.750000 0.250000 0.500000
#
# Coordination Sequence:
#
# PCOD9270166 Si02
#       5
#     8   8   8   8   8
#     4  10  20  35  56  84 114 145 188 236 287 339
#     4   9  17  33  57  82 110 147 185 227 285 346
#     4  11  21  37  59  83 113 153 195 241 288 345
#     4   9  20  38  60  82 112 153 193 234 288 348
#     4   9  18  35  58  83 113 149 183 232 291 343
#
# _framework density 24.179061999999998
#
# number of rings (size 3 to 8) (size 9 to 14) (size 15 to 20)
#    0.000    2.400    0.000    4.800    0.000    0.800 
#    0.000   18.000    0.000   18.000    0.000    0.000 
#    0.000    0.000    0.000    0.000    0.000    0.000 
#
# Total GULP energy -111444.234155 kJ/mol
# GULP energy per Si atom -5572.211708 kJ/mol
# Density = 2.412403 g / cm^3
# Si number density = 24.179062 Si / 1000 Ang^3
#
#
#
# Elastic Constant Matrix: (Units=GPa)
#
#
# Indices 1 2 3 4 5 6 
#
# 1 106.7927 48.1425 49.0569 0.0000 -36.7705 0.0000
# 2 48.1425 202.4735 38.4674 0.0000 -21.3099 0.0000
# 3 49.0569 38.4674 41.6511 0.0000 -34.7671 0.0000
# 4 0.0000 0.0000 0.0000 33.6362 0.0000 -25.9588
# 5 -36.7705 -21.3099 -34.7671 0.0000 56.9480 0.0000
# 6 0.0000 0.0000 0.0000 -25.9588 0.0000 51.1962
#
#
#
# Elastic Compliance Matrix: (Units=1/GPa)
#
#
# Indices 1 2 3 4 5 6 
#
# 1 0.020670 -0.000155 -0.026734 0.000000 -0.003033 0.000000
# 2 -0.000155 0.006145 -0.007457 0.000000 -0.002353 0.000000
# 3 -0.026734 -0.007457 0.093078 0.000000 0.036773 0.000000
# 4 0.000000 0.000000 0.000000 0.048843 0.000000 0.024765
# 5 -0.003033 -0.002353 0.036773 0.000000 0.037171 0.000000
# 6 0.000000 0.000000 0.000000 0.024765 0.000000 0.032090
#
#
# Mechanical properties :
#
#
# Convention : Reuss Voigt Hill
#
# Bulk Modulus (GPa) = 19.53051 69.13899 44.33475
# Shear Modulus (GPa) = 15.44374 42.70611 29.07493
#
# Velocity S-wave (km/s) = 2.53004 4.20723 3.47145
# Velocity P-wave (km/s) = 4.07796 7.22895 5.86888
#
# Compressibility (1/GPa) = 0.05120195
#
# Stress axis : x y z
#
# Youngs Moduli (GPa) = 48.37884 162.73946 10.74364
#
# Poissons Ratio (x) = 0.02520 0.28722
# Poissons Ratio (y) = 0.00749 0.08011
# Poissons Ratio (z) = 1.29336 1.21352
#
# Static dielectric constant tensor:
#      x y z
#    x 1.966980 0.000000 0.031280 
#    y 0.000000 2.007510 0.000000 
#    z 0.031280 0.000000 2.018540 
# 
# From -- ./inp_files/209349.got.cif
#   From: 2010.05.17/outbox.cif.g08.bks.cpg/sg15_105_cif.got.tgz:209349.got - 2010.06.03 18:47:42.
