data_PCOD9270894
_publ_section_title
;
Structure prediction by ZEFSAII (Michael W. Deem and Ramdas Pophale) SiO2 
 PCOD9270894
Probable space group: C 2/C
;
_chemical_formula_sum "Si O2"
_cell_formula_units_Z 36
_cell_length_a 6.642244
_cell_length_b 24.296971
_cell_length_c 10.451523
_cell_angle_alpha 90.000000
_cell_angle_beta 65.477787
_cell_angle_gamma 90.000000
_cell_volume 1534.591113
_symmetry_space_group_name_H-M "C 2/C"
_symmetry_group_IT_number 15
_symmetry_cell_setting 'monoclinic'
loop_
_space_group_symop_operation_xyz
x,y,z
-x,y,1/2-z
-x,-y,-z
x,-y,1/2+z
1/2+x,1/2+y,z
1/2-x,1/2+y,1/2-z
1/2-x,1/2-y,-z
1/2+x,1/2-y,1/2+z
loop_
_atom_site_type_symbol
_atom_site_label
_atom_site_fract_x
_atom_site_fract_y
_atom_site_fract_z
Si Si1 0.000000 0.822970 0.750000
Si Si2 0.452316 0.421029 0.113759
Si Si3 0.638142 0.985702 0.591420
Si Si4 0.031772 0.317725 0.886685
Si Si5 0.536068 0.696704 0.530506
O O1 0.237821 0.848928 0.643599
O O2 0.054954 0.794936 0.871912
O O3 0.500000 0.431633 0.250000
O O4 0.263506 0.459626 0.106666
O O5 0.677828 0.439828 0.985158
O O6 0.402544 0.357419 0.102556
O O7 0.500000 0.967005 0.750000
O O8 0.500000 0.000000 0.500000
O O9 0.000000 0.334293 0.750000
O O10 0.786374 0.317871 0.014081
O O11 0.072678 0.251785 0.886776
#
# Coordination Sequence:
#
# PCOD9270894 Si02
#       5
#     4   8   8   8   8
#     4  10  20  36  54  86 124 172 208 256 318 390
#     4  11  24  42  67  96 125 168 224 266 331 402
#     4  11  24  45  67  93 131 168 209 276 336 389
#     4   9  19  37  57  82 126 167 207 263 320 375
#     4  10  21  36  58  89 124 163 214 266 318 384
#
# _framework density 23.459019000000001
#
# number of rings (size 3 to 8) (size 9 to 14) (size 15 to 20)
#    0.000    1.778    2.222    1.333    0.000    6.222 
#    2.000    0.000    0.000    0.000    0.000    0.000 
#    0.000    0.000    0.000    0.000    0.000    0.000 
#
# Total GULP energy -100271.632017 kJ/mol
# GULP energy per Si atom -5570.646223 kJ/mol
# Density = 2.340563 g / cm^3
# Si number density = 23.459019 Si / 1000 Ang^3
#
#
#
# Elastic Constant Matrix: (Units=GPa)
#
#
# Indices 1 2 3 4 5 6 
#
# 1 116.0559 -0.0336 39.0720 0.0000 15.6678 0.0000
# 2 -0.0336 110.5981 9.4701 0.0000 12.6751 0.0000
# 3 39.0720 9.4701 126.8398 0.0000 4.8573 0.0000
# 4 0.0000 0.0000 0.0000 13.1358 0.0000 13.1240
# 5 15.6678 12.6751 4.8573 0.0000 40.4290 0.0000
# 6 0.0000 0.0000 0.0000 13.1240 0.0000 -1.6685
#
#
#
# Elastic Compliance Matrix: (Units=1/GPa)
#
#
# Indices 1 2 3 4 5 6 
#
# 1 0.010149 0.000697 -0.003033 0.000000 -0.003787 0.000000
# 2 0.000697 0.009471 -0.000801 0.000000 -0.003143 0.000000
# 3 -0.003033 -0.000801 0.008864 0.000000 0.000362 0.000000
# 4 0.000000 0.000000 0.000000 0.008594 0.000000 0.067595
# 5 -0.003787 -0.003143 0.000362 0.000000 0.027144 0.000000
# 6 0.000000 0.000000 0.000000 0.067595 0.000000 -0.067655
#
#
# Mechanical properties :
#
#
# Convention : Reuss Voigt Hill
#
# Bulk Modulus (GPa) = 45.02776 50.05674 47.54225
# Shear Modulus (GPa) = 487.99004 30.71160 259.35082
#
# Velocity S-wave (km/s) = 14.43848 3.62216 10.52591
# Velocity P-wave (km/s) = 17.23936 6.23519 12.96289
#
# Compressibility (1/GPa) = 0.02220852
#
# Stress axis : x y z
#
# Youngs Moduli (GPa) = 98.52929 105.58786 112.81136
#
# Poissons Ratio (x) = -0.07358 0.34220
# Poissons Ratio (y) = -0.06866 0.09041
# Poissons Ratio (z) = 0.29888 0.08462
#
# Static dielectric constant tensor:
#      x y z
#    x 1.957620 0.000000 -0.000810 
#    y 0.000000 1.873090 0.000000 
#    z -0.000810 0.000000 1.812780 
# 
# From -- ./inp_files/72893.got.cif
#   From: 2010.05.17/outbox.cif.g08.bks.cpg/sg15_37_cif.got.tgz:72893.got - 2010.06.03 18:47:42.
