data_PCOD9270761
_publ_section_title
;
Structure prediction by ZEFSAII (Michael W. Deem and Ramdas Pophale) SiO2 
 PCOD9270761
Probable space group: C 2/C
;
_chemical_formula_sum "Si O2"
_cell_formula_units_Z 48
_cell_length_a 17.073708
_cell_length_b 15.842072
_cell_length_c 23.040464
_cell_angle_alpha 90.000000
_cell_angle_beta 158.624323
_cell_angle_gamma 90.000000
_cell_volume 2271.467601
_symmetry_space_group_name_H-M "C 2/C"
_symmetry_group_IT_number 15
_symmetry_cell_setting 'monoclinic'
loop_
_space_group_symop_operation_xyz
x,y,z
-x,y,1/2-z
-x,-y,-z
x,-y,1/2+z
1/2+x,1/2+y,z
1/2-x,1/2+y,1/2-z
1/2-x,1/2-y,-z
1/2+x,1/2-y,1/2+z
loop_
_atom_site_type_symbol
_atom_site_label
_atom_site_fract_x
_atom_site_fract_y
_atom_site_fract_z
Si Si1 0.387037 0.122787 0.113141
Si Si2 0.306567 0.969344 0.746037
Si Si3 0.659833 0.867902 0.172514
Si Si4 0.239776 0.225536 0.425676
Si Si5 0.958353 0.814397 0.288275
Si Si6 0.616567 0.372652 0.059026
O O1 0.500000 0.094451 0.250000
O O2 0.464342 0.065241 0.114157
O O3 0.478541 0.216399 0.163289
O O4 0.133681 0.131366 0.944393
O O5 0.130136 0.895240 0.625240
O O6 0.318921 0.030654 0.809730
O O7 0.229392 0.035543 0.642690
O O8 0.830187 0.836599 0.339843
O O9 0.729283 0.831632 0.158682
O O10 0.428847 0.837186 0.035635
O O11 0.250000 0.250000 0.500000
O O12 0.280355 0.310288 0.416020
O O13 0.000000 0.191986 0.250000
O O14 0.000000 0.835651 0.250000
#
# Coordination Sequence:
#
# PCOD9270761 Si02
#       6
#     8   8   8   8   8   8
#     4  10  20  35  64  90 120 160 221 262 316 371
#     4   9  19  39  64  98 116 170 220 276 311 362
#     4  10  21  40  64  90 133 163 221 267 326 385
#     4  12  23  42  64 100 131 175 214 268 331 394
#     4  10  22  40  60  94 128 168 205 264 332 392
#     4   9  20  38  66  95 125 165 227 264 319 368
#
# _framework density 21.131712
#
# number of rings (size 3 to 8) (size 9 to 14) (size 15 to 20)
#    1.000    1.000    1.667    2.000    0.000    4.667 
#    3.000    1.667    0.000    0.000    0.000    0.000 
#    0.000    0.000    0.000    0.000    0.000    0.000 
#
# Total GULP energy -133770.712851 kJ/mol
# GULP energy per Si atom -5573.779702 kJ/mol
# Density = 2.108362 g / cm^3
# Si number density = 21.131712 Si / 1000 Ang^3
#
#
#
# Elastic Constant Matrix: (Units=GPa)
#
#
# Indices 1 2 3 4 5 6 
#
# 1 108.0070 21.3981 26.7692 0.0073 17.4057 0.0007
# 2 21.3981 26.3088 16.0087 -0.0002 10.7181 0.0090
# 3 26.7692 16.0087 87.1646 0.0261 25.1248 0.0094
# 4 0.0073 -0.0002 0.0261 20.0653 0.0066 9.2745
# 5 17.4057 10.7181 25.1248 0.0066 31.5053 0.0007
# 6 0.0007 0.0090 0.0094 9.2745 0.0007 27.9307
#
#
#
# Elastic Compliance Matrix: (Units=1/GPa)
#
#
# Indices 1 2 3 4 5 6 
#
# 1 0.011510 -0.007404 -0.001387 -0.000003 -0.002734 0.000004
# 2 -0.007404 0.050564 -0.004199 0.000022 -0.009763 -0.000022
# 3 -0.001387 -0.004199 0.015630 -0.000018 -0.010270 0.000002
# 4 -0.000003 0.000022 -0.000018 0.058873 -0.000004 -0.019549
# 5 -0.002734 -0.009763 -0.010270 -0.000004 0.044763 0.000007
# 6 0.000004 -0.000022 0.000002 -0.019549 0.000007 0.042294
#
#
# Mechanical properties :
#
#
# Convention : Reuss Voigt Hill
#
# Bulk Modulus (GPa) = 19.33291 38.87026 29.10159
# Shear Modulus (GPa) = 18.73681 26.38721 22.56201
#
# Velocity S-wave (km/s) = 2.98093 3.53753 3.27109
# Velocity P-wave (km/s) = 4.58438 5.92619 5.29794
#
# Compressibility (1/GPa) = 0.05172526
#
# Stress axis : x y z
#
# Youngs Moduli (GPa) = 86.88250 19.77686 63.98008
#
# Poissons Ratio (x) = 0.14642 0.08874
# Poissons Ratio (y) = 0.64324 0.26863
# Poissons Ratio (z) = 0.12050 0.08304
#
# Static dielectric constant tensor:
#      x y z
#    x 1.779290 0.000000 -0.028370 
#    y 0.000000 1.751530 -0.000010 
#    z -0.028370 -0.000010 1.806680 
# 
# From -- ./inp_files/299271.got.cif
#   From: 2010.05.17/outbox.cif.g08.bks.cpg/sg15_150_cif.got.tgz:299271.got - 2010.06.03 18:47:42.
