data_PCOD9270627
_publ_section_title
;
Structure prediction by ZEFSAII (Michael W. Deem and Ramdas Pophale) SiO2 
 PCOD9270627
Probable space group: C 2/C
;
_chemical_formula_sum "Si O2"
_cell_formula_units_Z 48
_cell_length_a 17.546400
_cell_length_b 14.549098
_cell_length_c 18.476420
_cell_angle_alpha 90.000000
_cell_angle_beta 147.397956
_cell_angle_gamma 90.000000
_cell_volume 2541.383371
_symmetry_space_group_name_H-M "C 2/C"
_symmetry_group_IT_number 15
_symmetry_cell_setting 'monoclinic'
loop_
_space_group_symop_operation_xyz
x,y,z
-x,y,1/2-z
-x,-y,-z
x,-y,1/2+z
1/2+x,1/2+y,z
1/2-x,1/2+y,1/2-z
1/2-x,1/2-y,-z
1/2+x,1/2-y,1/2+z
loop_
_atom_site_type_symbol
_atom_site_label
_atom_site_fract_x
_atom_site_fract_y
_atom_site_fract_z
Si Si1 0.893813 0.942532 0.495053
Si Si2 0.653188 0.666201 0.396902
Si Si3 0.699951 0.232071 0.236487
Si Si4 0.056349 0.854812 0.493907
Si Si5 0.670815 0.077421 0.090311
Si Si6 0.843639 0.419011 0.309731
O O1 0.869841 0.897352 0.552229
O O2 0.749806 0.948714 0.333261
O O3 0.996447 0.879550 0.526996
O O4 0.949912 0.045748 0.547735
O O5 0.500000 0.701630 0.250000
O O6 0.750000 0.750000 0.500000
O O7 0.724538 0.608450 0.389205
O O8 0.785941 0.183825 0.369891
O O9 0.675557 0.157009 0.154774
O O10 0.803047 0.313797 0.292435
O O11 0.549996 0.282588 0.127653
O O12 0.699541 0.982909 0.156492
O O13 0.510596 0.070906 0.932795
#
# Coordination Sequence:
#
# PCOD9270627 Si02
#       6
#     8   8   8   8   8   8
#     4  10  22  39  61  87 127 170 206 259 317 374
#     4  12  28  41  63  93 137 169 202 258 330 389
#     4  11  19  35  60  89 120 155 205 265 301 359
#     4  10  20  35  61  87 122 157 216 250 306 366
#     4  11  23  39  61  97 126 160 214 254 327 372
#     4  10  22  38  64  90 122 165 213 267 299 376
#
# _framework density 18.887350999999999
#
# number of rings (size 3 to 8) (size 9 to 14) (size 15 to 20)
#    0.000    1.333    3.333    3.000    9.333    0.000 
#    0.000    0.000    0.000    1.000    8.667    0.000 
#    0.000    0.000    0.000    0.000    0.000    0.000 
#
# Total GULP energy -134053.420679 kJ/mol
# GULP energy per Si atom -5585.559195 kJ/mol
# Density = 1.884436 g / cm^3
# Si number density = 18.887351 Si / 1000 Ang^3
#
#
#
# Elastic Constant Matrix: (Units=GPa)
#
#
# Indices 1 2 3 4 5 6 
#
# 1 51.7006 18.9985 26.3988 0.0000 7.3290 0.0000
# 2 18.9985 80.4132 29.9385 -0.0001 8.3548 0.0000
# 3 26.3988 29.9385 140.1212 -0.0004 4.3477 0.0000
# 4 0.0000 -0.0001 -0.0004 27.5123 -0.0001 5.7291
# 5 7.3290 8.3548 4.3477 -0.0001 12.5294 0.0000
# 6 0.0000 0.0000 0.0000 5.7291 0.0000 11.9438
#
#
#
# Elastic Compliance Matrix: (Units=1/GPa)
#
#
# Indices 1 2 3 4 5 6 
#
# 1 0.023797 -0.003235 -0.003464 0.000000 -0.010560 0.000000
# 2 -0.003235 0.014814 -0.002333 0.000000 -0.007176 0.000000
# 3 -0.003464 -0.002333 0.008266 0.000000 0.000714 0.000000
# 4 0.000000 0.000000 0.000000 0.040381 0.000000 -0.019370
# 5 -0.010560 -0.007176 0.000714 0.000000 0.090527 0.000000
# 6 0.000000 0.000000 0.000000 -0.019370 0.000000 0.093016
#
#
# Mechanical properties :
#
#
# Convention : Reuss Voigt Hill
#
# Bulk Modulus (GPa) = 34.70829 46.98962 40.84895
# Shear Modulus (GPa) = 16.75209 23.52374 20.13792
#
# Velocity S-wave (km/s) = 2.98140 3.53296 3.26883
# Velocity P-wave (km/s) = 5.50164 6.44789 5.99347
#
# Compressibility (1/GPa) = 0.02881156
#
# Stress axis : x y z
#
# Youngs Moduli (GPa) = 42.02218 67.50201 120.98175
#
# Poissons Ratio (x) = 0.21839 0.41913
# Poissons Ratio (y) = 0.13595 0.28226
# Poissons Ratio (z) = 0.14558 0.15749
#
# Static dielectric constant tensor:
#      x y z
#    x 1.615570 0.000000 0.015180 
#    y 0.000000 1.652160 0.000000 
#    z 0.015180 0.000000 1.684790 
# 
# From -- ./inp_files/249008.got.cif
#   From: 2010.05.17/outbox.cif.g08.bks.cpg/sg15_125_cif.got.tgz:249008.got - 2010.06.03 18:47:42.
