data_PCOD9270920
_publ_section_title
;
Structure prediction by ZEFSAII (Michael W. Deem and Ramdas Pophale) SiO2 
 PCOD9270920
Probable space group: C 2/C
;
_chemical_formula_sum "Si O2"
_cell_formula_units_Z 36
_cell_length_a 26.385218
_cell_length_b 7.314440
_cell_length_c 25.130842
_cell_angle_alpha 90.000000
_cell_angle_beta 15.587952
_cell_angle_gamma 90.000000
_cell_volume 1303.300040
_symmetry_space_group_name_H-M "C 2/C"
_symmetry_group_IT_number 15
_symmetry_cell_setting 'monoclinic'
loop_
_space_group_symop_operation_xyz
x,y,z
-x,y,1/2-z
-x,-y,-z
x,-y,1/2+z
1/2+x,1/2+y,z
1/2-x,1/2+y,1/2-z
1/2-x,1/2-y,-z
1/2+x,1/2-y,1/2+z
loop_
_atom_site_type_symbol
_atom_site_label
_atom_site_fract_x
_atom_site_fract_y
_atom_site_fract_z
Si Si1 0.000000 0.049982 0.250000
Si Si2 0.678162 0.610457 0.381344
Si Si3 0.753136 0.020783 0.303278
Si Si4 0.729251 0.965761 0.940520
Si Si5 0.676938 0.888254 0.650692
O O1 0.867516 0.145390 0.339517
O O2 0.839718 0.939591 0.444507
O O3 0.649960 0.827386 0.414849
O O4 0.786902 0.591714 0.215148
O O5 0.477608 0.513590 0.578596
O O6 0.772572 0.547846 0.340526
O O7 0.712388 0.124008 0.399286
O O8 0.831152 0.166943 0.835171
O O9 0.519974 0.025413 0.168030
#
# Coordination Sequence:
#
# PCOD9270920 Si02
#       5
#     4   8   8   8   8
#     4  12  20  32  44  74 108 144 176 226 262 340
#     4  10  20  36  55  80 115 145 180 230 276 326
#     4  10  20  36  55  80 115 145 180 230 276 326
#     4  11  20  30  48  73 106 143 176 220 275 323
#     4  11  20  30  48  73 106 143 176 220 275 323
#
# _framework density 27.622188000000001
#
# number of rings (size 3 to 8) (size 9 to 14) (size 15 to 20)
#    0.000    1.333    4.444    5.333    0.000    3.556 
#    0.000    0.000    0.000    0.000    0.000    1.556 
#    0.000    0.000    0.000    0.000    0.000    0.000 
#
# Total GULP energy -100773.575342 kJ/mol
# GULP energy per Si atom -5598.531963 kJ/mol
# Density = 2.755932 g / cm^3
# Si number density = 27.622188 Si / 1000 Ang^3
#
#
#
# Elastic Constant Matrix: (Units=GPa)
#
#
# Indices 1 2 3 4 5 6 
#
# 1 233.4973 14.0373 71.8401 -0.0089 4.8882 0.0022
# 2 14.0373 90.3998 9.0628 0.0220 -0.7632 -0.0067
# 3 71.8401 9.0628 151.4685 0.0276 -14.3340 -0.0150
# 4 -0.0089 0.0220 0.0276 -11.8645 -0.0100 22.3474
# 5 4.8882 -0.7632 -14.3340 -0.0100 59.5501 0.0051
# 6 0.0022 -0.0067 -0.0150 22.3474 0.0051 19.2834
#
#
#
# Elastic Compliance Matrix: (Units=1/GPa)
#
#
# Indices 1 2 3 4 5 6 
#
# 1 0.005101 -0.000552 -0.002483 -0.000005 -0.001024 0.000003
# 2 -0.000552 0.011188 -0.000399 0.000008 0.000093 -0.000006
# 3 -0.002483 -0.000399 0.008005 0.000009 0.002126 -0.000005
# 4 -0.000005 0.000008 0.000009 -0.026481 -0.000004 0.030689
# 5 -0.001024 0.000093 0.002126 -0.000004 0.017389 0.000002
# 6 0.000003 -0.000006 -0.000005 0.030689 0.000002 0.016293
#
#
# Mechanical properties :
#
#
# Convention : Reuss Voigt Hill
#
# Bulk Modulus (GPa) = 57.38418 73.91623 65.65021
# Shear Modulus (GPa) = 113.19064 38.75547 75.97305
#
# Velocity S-wave (km/s) = 6.40836 3.74980 5.25015
# Velocity P-wave (km/s) = 8.69344 6.75025 7.78273
#
# Compressibility (1/GPa) = 0.01742640
#
# Stress axis : x y z
#
# Youngs Moduli (GPa) = 196.02583 89.37800 124.92357
#
# Poissons Ratio (x) = 0.04932 0.31023
# Poissons Ratio (y) = 0.10817 0.04984
# Poissons Ratio (z) = 0.48681 0.03566
#
# Static dielectric constant tensor:
#      x y z
#    x 2.245040 -0.000010 0.054680 
#    y -0.000010 2.148520 0.000020 
#    z 0.054680 0.000020 2.121820 
# 
# From -- ./inp_files/252665.got.cif
#   From: 2010.05.17/outbox.cif.g08.bks.cpg/sg15_127_cif.got.tgz:252665.got - 2010.06.03 18:47:42.
