data_PCOD9270636
_publ_section_title
;
Structure prediction by ZEFSAII (Michael W. Deem and Ramdas Pophale) SiO2 
 PCOD9270636
Probable space group: C 2/C
;
_chemical_formula_sum "Si O2"
_cell_formula_units_Z 60
_cell_length_a 8.118346
_cell_length_b 24.414396
_cell_length_c 17.117778
_cell_angle_alpha 90.000000
_cell_angle_beta 47.551277
_cell_angle_gamma 90.000000
_cell_volume 2503.500305
_symmetry_space_group_name_H-M "C 2/C"
_symmetry_group_IT_number 15
_symmetry_cell_setting 'monoclinic'
loop_
_space_group_symop_operation_xyz
x,y,z
-x,y,1/2-z
-x,-y,-z
x,-y,1/2+z
1/2+x,1/2+y,z
1/2-x,1/2+y,1/2-z
1/2-x,1/2-y,-z
1/2+x,1/2-y,1/2+z
loop_
_atom_site_type_symbol
_atom_site_label
_atom_site_fract_x
_atom_site_fract_y
_atom_site_fract_z
Si Si1 0.810217 0.810540 0.376078
Si Si2 0.607363 0.365972 0.590336
Si Si3 0.576019 0.482948 0.561067
Si Si4 0.750000 0.250000 0.500000
Si Si5 0.888421 0.517602 0.206453
Si Si6 0.951168 0.253910 0.575475
Si Si7 0.740708 0.564548 0.629622
Si Si8 0.155440 0.364026 0.818050
O O1 0.941341 0.796517 0.414262
O O2 0.594851 0.769666 0.449828
O O3 0.711369 0.871617 0.401751
O O4 0.000000 0.801674 0.250000
O O5 0.663352 0.421652 0.528006
O O6 0.695774 0.314968 0.515021
O O7 0.344512 0.356983 0.691728
O O8 0.723169 0.373551 0.637791
O O9 0.500000 0.500000 0.500000
O O10 0.370226 0.475545 0.687403
O O11 0.716644 0.530035 0.558164
O O12 0.785363 0.249574 0.389633
O O13 0.892101 0.472365 0.137983
O O14 0.970541 0.579269 0.160819
O O15 0.000000 0.497317 0.250000
O O16 0.967891 0.306322 0.627639
O O17 0.500000 0.567696 0.750000
#
# Coordination Sequence:
#
# PCOD9270636 Si02
#       8
#     8   8   8   4   8   8   8   8
#     4  10  23  43  63  85 124 170 202 249 315 376
#     4   9  18  36  61  87 123 162 202 254 311 363
#     4  10  20  35  61  89 119 160 203 244 309 376
#     4  10  22  38  60  92 126 154 210 262 304 364
#     4  10  20  38  59  92 119 155 206 260 311 366
#     4  10  23  41  62  93 121 161 216 254 307 373
#     4   9  19  40  62  80 121 167 199 242 310 381
#     4   9  18  37  61  86 120 163 203 259 309 363
#
# _framework density 23.966443999999999
#
# number of rings (size 3 to 8) (size 9 to 14) (size 15 to 20)
#    0.000    2.400    1.333    0.000    3.733    1.600 
#    9.600    1.333    0.000    0.000    0.000    0.000 
#    0.000    0.000    0.000    0.000    0.000    0.000 
#
# Total GULP energy -167085.015751 kJ/mol
# GULP energy per Si atom -5569.500525 kJ/mol
# Density = 2.391189 g / cm^3
# Si number density = 23.966444 Si / 1000 Ang^3
#
#
#
# Elastic Constant Matrix: (Units=GPa)
#
#
# Indices 1 2 3 4 5 6 
#
# 1 44.1932 35.9224 16.1012 0.0000 30.4138 0.0000
# 2 35.9224 163.0675 57.0406 0.0000 32.4704 0.0000
# 3 16.1012 57.0406 98.7201 0.0000 -1.8446 0.0000
# 4 0.0000 0.0000 0.0000 36.7012 0.0000 0.0523
# 5 30.4138 32.4704 -1.8446 0.0000 46.7809 0.0000
# 6 0.0000 0.0000 0.0000 0.0523 0.0000 26.2956
#
#
#
# Elastic Compliance Matrix: (Units=1/GPa)
#
#
# Indices 1 2 3 4 5 6 
#
# 1 0.047196 -0.002040 -0.007071 0.000000 -0.029547 0.000000
# 2 -0.002040 0.009518 -0.005269 0.000000 -0.005488 0.000000
# 3 -0.007071 -0.005269 0.014492 0.000000 0.008826 0.000000
# 4 0.000000 0.000000 0.000000 0.027247 0.000000 -0.000054
# 5 -0.029547 -0.005488 0.008826 0.000000 0.044742 0.000000
# 6 0.000000 0.000000 0.000000 -0.000054 0.000000 0.038029
#
#
# Mechanical properties :
#
#
# Convention : Reuss Voigt Hill
#
# Bulk Modulus (GPa) = 23.55938 58.23434 40.89686
# Shear Modulus (GPa) = 22.30804 35.08333 28.69568
#
# Velocity S-wave (km/s) = 3.05422 3.83018 3.46400
# Velocity P-wave (km/s) = 4.72114 6.62657 5.75328
#
# Compressibility (1/GPa) = 0.04244594
#
# Stress axis : x y z
#
# Youngs Moduli (GPa) = 21.18803 105.06764 69.00199
#
# Poissons Ratio (x) = 0.21435 0.48791
# Poissons Ratio (y) = 0.04323 0.36358
# Poissons Ratio (z) = 0.14982 0.55361
#
# Static dielectric constant tensor:
#      x y z
#    x 1.373420 0.000000 0.038770 
#    y 0.000000 1.914840 0.000000 
#    z 0.038770 0.000000 1.945550 
# 
# From -- ./inp_files/192511.got.cif
#   From: 2010.05.17/outbox.cif.g08.bks.cpg/sg15_97_cif.got.tgz:192511.got - 2010.06.03 18:47:42.
