data_PCOD9270224
_publ_section_title
;
Structure prediction by ZEFSAII (Michael W. Deem and Ramdas Pophale) SiO2 
 PCOD9270224
Probable space group: C 2/C
;
_chemical_formula_sum "Si O2"
_cell_formula_units_Z 64
_cell_length_a 32.777781
_cell_length_b 9.713026
_cell_length_c 19.666397
_cell_angle_alpha 90.000000
_cell_angle_beta 142.796429
_cell_angle_gamma 90.000000
_cell_volume 3785.838361
_symmetry_space_group_name_H-M "C 2/C"
_symmetry_group_IT_number 15
_symmetry_cell_setting 'monoclinic'
loop_
_space_group_symop_operation_xyz
x,y,z
-x,y,1/2-z
-x,-y,-z
x,-y,1/2+z
1/2+x,1/2+y,z
1/2-x,1/2+y,1/2-z
1/2-x,1/2-y,-z
1/2+x,1/2-y,1/2+z
loop_
_atom_site_type_symbol
_atom_site_label
_atom_site_fract_x
_atom_site_fract_y
_atom_site_fract_z
Si Si1 0.681308 0.586711 0.376100
Si Si2 0.457450 0.531444 0.510649
Si Si3 0.948810 0.424432 0.336602
Si Si4 0.968212 0.851585 0.781856
Si Si5 0.788675 0.663076 0.774554
Si Si6 0.195155 0.979846 0.739623
Si Si7 0.297113 0.909645 0.133195
Si Si8 0.053736 0.344181 0.008898
O O1 0.606407 0.581979 0.308357
O O2 0.688871 0.514059 0.313059
O O3 0.691906 0.748656 0.371974
O O4 0.738431 0.540287 0.505218
O O5 0.500000 0.500000 0.500000
O O6 0.482962 0.433236 0.603124
O O7 0.379615 0.508802 0.389738
O O8 0.466665 0.691756 0.540206
O O9 0.962680 0.305369 0.300761
O O10 0.871569 0.475542 0.224839
O O11 0.951823 0.355963 0.416087
O O12 0.004897 0.542643 0.411748
O O13 0.000000 0.857025 0.750000
O O14 0.741237 0.596539 0.767850
O O15 0.777239 0.589832 0.686148
O O16 0.866695 0.637985 0.898669
O O17 0.779463 0.826469 0.748499
#
# Coordination Sequence:
#
# PCOD9270224 Si02
#       8
#     8   8   8   8   8   8   8   8
#     4   9  17  34  53  76 109 145 173 221 277 324
#     4  11  19  37  58  80 109 151 185 223 280 333
#     4   9  17  35  56  84 106 138 180 234 276 330
#     4  11  22  34  55  86 109 139 193 235 268 332
#     4   9  19  34  52  83 105 139 180 225 269 319
#     4  10  20  35  57  80 111 140 183 228 272 322
#     4   8  16  32  54  74 107 139 170 217 283 319
#     4   9  18  35  59  79 113 140 180 231 283 325
#
# _framework density 16.905106
#
# number of rings (size 3 to 8) (size 9 to 14) (size 15 to 20)
#    0.000    2.500    2.500    1.500    1.750    1.000 
#    9.000    0.625    2.750    1.500    0.000    0.000 
#    0.000    0.000    0.000    0.000    0.000    0.000 
#
# Total GULP energy -178355.453724 kJ/mol
# GULP energy per Si atom -5573.607929 kJ/mol
# Density = 1.686663 g / cm^3
# Si number density = 16.905106 Si / 1000 Ang^3
#
#
#
# Elastic Constant Matrix: (Units=GPa)
#
#
# Indices 1 2 3 4 5 6 
#
# 1 132.2945 44.5660 50.5249 0.0000 -5.6089 0.0000
# 2 44.5660 34.8485 35.0270 0.0000 5.7096 0.0000
# 3 50.5249 35.0270 106.6984 0.0000 -8.1147 0.0000
# 4 0.0000 0.0000 0.0000 25.1660 0.0000 1.9728
# 5 -5.6089 5.7096 -8.1147 0.0000 17.2580 0.0000
# 6 0.0000 0.0000 0.0000 1.9728 0.0000 25.9992
#
#
#
# Elastic Compliance Matrix: (Units=1/GPa)
#
#
# Indices 1 2 3 4 5 6 
#
# 1 0.015472 -0.023341 0.001354 0.000000 0.013387 0.000000
# 2 -0.023341 0.087468 -0.021197 0.000000 -0.046490 0.000000
# 3 0.001354 -0.021197 0.016859 0.000000 0.015380 0.000000
# 4 0.000000 0.000000 0.000000 0.039974 0.000000 -0.003033
# 5 0.013387 -0.046490 0.015380 0.000000 0.084907 0.000000
# 6 0.000000 0.000000 0.000000 -0.003033 0.000000 0.038693
#
#
# Mechanical properties :
#
#
# Convention : Reuss Voigt Hill
#
# Bulk Modulus (GPa) = 29.91207 59.34191 44.62699
# Shear Modulus (GPa) = 13.12731 23.26621 18.19676
#
# Velocity S-wave (km/s) = 2.78965 3.71385 3.28442
# Velocity P-wave (km/s) = 5.30177 7.31911 6.39055
#
# Compressibility (1/GPa) = 0.03343132
#
# Stress axis : x y z
#
# Youngs Moduli (GPa) = 64.63188 11.43278 59.31426
#
# Poissons Ratio (x) = 0.26685 -0.08031
# Poissons Ratio (y) = 1.50857 1.25729
# Poissons Ratio (z) = -0.08751 0.24234
#
# Static dielectric constant tensor:
#      x y z
#    x 1.549180 0.000000 0.018430 
#    y 0.000000 1.589670 0.000000 
#    z 0.018430 0.000000 1.569740 
# 
# From -- ./inp_files/224631.got.cif
#   From: 2010.05.17/outbox.cif.g08.bks.cpg/sg15_113_cif.got.tgz:224631.got - 2010.06.03 18:47:42.
