data_PCOD9270365
_publ_section_title
;
Structure prediction by ZEFSAII (Michael W. Deem and Ramdas Pophale) SiO2 
 PCOD9270365
Probable space group: C 2/C
;
_chemical_formula_sum "Si O2"
_cell_formula_units_Z 36
_cell_length_a 16.266015
_cell_length_b 8.710810
_cell_length_c 23.832868
_cell_angle_alpha 90.000000
_cell_angle_beta 147.611016
_cell_angle_gamma 90.000000
_cell_volume 1808.876189
_symmetry_space_group_name_H-M "C 2/C"
_symmetry_group_IT_number 15
_symmetry_cell_setting 'monoclinic'
loop_
_space_group_symop_operation_xyz
x,y,z
-x,y,1/2-z
-x,-y,-z
x,-y,1/2+z
1/2+x,1/2+y,z
1/2-x,1/2+y,1/2-z
1/2-x,1/2-y,-z
1/2+x,1/2-y,1/2+z
loop_
_atom_site_type_symbol
_atom_site_label
_atom_site_fract_x
_atom_site_fract_y
_atom_site_fract_z
Si Si1 0.000000 0.913166 0.750000
Si Si2 0.237168 0.145874 0.296471
Si Si3 0.532259 0.640819 0.978985
Si Si4 0.897762 0.152229 0.603071
Si Si5 0.233606 0.779829 0.305958
O O1 0.894040 0.821629 0.732695
O O2 0.893758 0.024929 0.649668
O O3 0.392045 0.238959 0.399241
O O4 0.202399 0.196335 0.212670
O O5 0.257068 0.962173 0.311379
O O6 0.681112 0.724194 0.089624
O O7 0.500000 0.500000 0.000000
O O8 0.555794 0.579128 0.929894
O O9 0.750000 0.250000 0.500000
O O10 0.050847 0.250718 0.705211
#
# Coordination Sequence:
#
# PCOD9270365 Si02
#       5
#     4   8   8   8   8
#     4  10  20  38  56  86 120 146 190 244 286 334
#     4  10  21  38  61  84 115 154 189 237 289 338
#     4  11  22  39  59  84 116 155 195 232 283 347
#     4  10  20  35  58  85 115 151 190 235 286 340
#     4  10  20  37  59  85 115 151 194 237 284 343
#
# _framework density 19.901861
#
# number of rings (size 3 to 8) (size 9 to 14) (size 15 to 20)
#    0.000    1.778    0.000    7.333    0.000    1.778 
#    0.000   11.111    0.000    1.333    0.000    0.000 
#    0.000    0.000    0.000    0.000    0.000    0.000 
#
# Total GULP energy -100389.874298 kJ/mol
# GULP energy per Si atom -5577.215239 kJ/mol
# Density = 1.985656 g / cm^3
# Si number density = 19.901861 Si / 1000 Ang^3
#
#
#
# Elastic Constant Matrix: (Units=GPa)
#
#
# Indices 1 2 3 4 5 6 
#
# 1 89.1246 -1.7882 23.7493 0.0000 -9.7173 0.0000
# 2 -1.7882 58.8206 18.2636 0.0000 1.5123 0.0000
# 3 23.7493 18.2636 122.5184 0.0000 -4.3785 0.0000
# 4 0.0000 0.0000 0.0000 29.5286 0.0000 -9.8277
# 5 -9.7173 1.5123 -4.3785 0.0000 38.0732 0.0000
# 6 0.0000 0.0000 0.0000 -9.8277 0.0000 36.6504
#
#
#
# Elastic Compliance Matrix: (Units=1/GPa)
#
#
# Indices 1 2 3 4 5 6 
#
# 1 0.012190 0.001050 -0.002420 0.000000 0.002791 0.000000
# 2 0.001050 0.017956 -0.002908 0.000000 -0.000780 0.000000
# 3 -0.002420 -0.002908 0.009084 0.000000 0.000543 0.000000
# 4 0.000000 0.000000 0.000000 0.037184 0.000000 0.009971
# 5 0.002791 -0.000780 0.000543 0.000000 0.027071 0.000000
# 6 0.000000 0.000000 0.000000 0.009971 0.000000 0.029958
#
#
# Mechanical properties :
#
#
# Convention : Reuss Voigt Hill
#
# Bulk Modulus (GPa) = 32.60005 38.99035 35.79520
# Shear Modulus (GPa) = 32.84635 36.19970 34.52303
#
# Velocity S-wave (km/s) = 4.06694 4.26950 4.16945
# Velocity P-wave (km/s) = 6.20236 6.62862 6.41903
#
# Compressibility (1/GPa) = 0.03067480
#
# Stress axis : x y z
#
# Youngs Moduli (GPa) = 82.03129 55.69237 110.08365
#
# Poissons Ratio (x) = -0.05849 0.26638
# Poissons Ratio (y) = -0.08615 0.32013
# Poissons Ratio (z) = 0.19850 0.16196
#
# Static dielectric constant tensor:
#      x y z
#    x 1.756980 0.000000 0.028270 
#    y 0.000000 1.672710 0.000000 
#    z 0.028270 0.000000 1.735720 
# 
# From -- ./inp_files/102452.got.cif
#   From: 2010.05.17/outbox.cif.g08.bks.cpg/sg15_52_cif.got.tgz:102452.got - 2010.06.03 18:47:42.
