data_PCOD9270295
_publ_section_title
;
Structure prediction by ZEFSAII (Michael W. Deem and Ramdas Pophale) SiO2 
 PCOD9270295
Probable space group: C 2/C
;
_chemical_formula_sum "Si O2"
_cell_formula_units_Z 48
_cell_length_a 12.830626
_cell_length_b 14.938104
_cell_length_c 15.101570
_cell_angle_alpha 90.000000
_cell_angle_beta 118.629997
_cell_angle_gamma 90.000000
_cell_volume 2540.548407
_symmetry_space_group_name_H-M "C 2/C"
_symmetry_group_IT_number 15
_symmetry_cell_setting 'monoclinic'
loop_
_space_group_symop_operation_xyz
x,y,z
-x,y,1/2-z
-x,-y,-z
x,-y,1/2+z
1/2+x,1/2+y,z
1/2-x,1/2+y,1/2-z
1/2-x,1/2-y,-z
1/2+x,1/2-y,1/2+z
loop_
_atom_site_type_symbol
_atom_site_label
_atom_site_fract_x
_atom_site_fract_y
_atom_site_fract_z
Si Si1 0.215611 0.838010 0.254353
Si Si2 0.483658 0.479780 0.338475
Si Si3 0.933647 0.663975 0.319458
Si Si4 0.866534 0.514845 0.722310
Si Si5 0.654436 0.573668 0.056877
Si Si6 0.852839 0.724976 0.972923
O O1 0.171468 0.737258 0.216234
O O2 0.294433 0.835610 0.374436
O O3 0.093012 0.891833 0.215763
O O4 0.293062 0.896606 0.217345
O O5 0.500000 0.526628 0.250000
O O6 0.407459 0.528523 0.383276
O O7 0.601799 0.455573 0.440811
O O8 0.882606 0.563073 0.303111
O O9 0.000000 0.672868 0.250000
O O10 0.032962 0.685019 0.432749
O O11 0.790456 0.458671 0.618727
O O12 0.000000 0.538845 0.750000
O O13 0.622397 0.677092 0.056081
O O14 0.750000 0.750000 0.000000
#
# Coordination Sequence:
#
# PCOD9270295 Si02
#       6
#     8   8   8   8   8   8
#     4  11  21  35  61  87 115 155 198 243 297 353
#     4  10  20  35  57  88 117 148 198 252 301 353
#     4  11  20  36  60  89 117 148 197 248 299 350
#     4  10  22  40  58  83 123 161 194 242 303 361
#     4  10  20  35  58  86 117 153 198 247 302 351
#     4  12  20  33  60  87 117 149 194 250 303 353
#
# _framework density 18.893557999999999
#
# number of rings (size 3 to 8) (size 9 to 14) (size 15 to 20)
#    0.000    1.333    5.000    2.500    0.000    0.667 
#    0.000    2.500    0.000    1.000    0.000    0.000 
#    0.000    0.000    0.000    0.000    0.000    0.000 
#
# Total GULP energy -133727.993151 kJ/mol
# GULP energy per Si atom -5571.999715 kJ/mol
# Density = 1.885056 g / cm^3
# Si number density = 18.893558 Si / 1000 Ang^3
#
#
#
# Elastic Constant Matrix: (Units=GPa)
#
#
# Indices 1 2 3 4 5 6 
#
# 1 64.9763 18.4632 27.4949 0.0000 15.6646 0.0000
# 2 18.4632 54.6391 2.1734 0.0000 -7.4272 0.0000
# 3 27.4949 2.1734 147.1776 0.0000 18.9496 0.0000
# 4 0.0000 0.0000 0.0000 26.5419 0.0000 2.2910
# 5 15.6646 -7.4272 18.9496 0.0000 31.5538 0.0000
# 6 0.0000 0.0000 0.0000 2.2910 0.0000 22.6518
#
#
#
# Elastic Compliance Matrix: (Units=1/GPa)
#
#
# Indices 1 2 3 4 5 6 
#
# 1 0.021651 -0.008759 -0.002456 0.000000 -0.011335 0.000000
# 2 -0.008759 0.022567 0.000064 0.000000 0.009622 0.000000
# 3 -0.002456 0.000064 0.007688 0.000000 -0.003383 0.000000
# 4 0.000000 0.000000 0.000000 0.038008 0.000000 -0.003844
# 5 -0.011335 0.009622 -0.003383 0.000000 0.041615 0.000000
# 6 0.000000 0.000000 0.000000 -0.003844 0.000000 0.044535
#
#
# Mechanical properties :
#
#
# Convention : Reuss Voigt Hill
#
# Bulk Modulus (GPa) = 33.77893 40.33953 37.05923
# Shear Modulus (GPa) = 24.01130 30.72695 27.36912
#
# Velocity S-wave (km/s) = 3.56880 4.03714 3.81017
# Velocity P-wave (km/s) = 5.90755 6.56724 6.24611
#
# Compressibility (1/GPa) = 0.02960426
#
# Stress axis : x y z
#
# Youngs Moduli (GPa) = 46.18674 44.31213 130.07475
#
# Poissons Ratio (x) = 0.38815 0.31946
# Poissons Ratio (y) = 0.40457 -0.00836
# Poissons Ratio (z) = 0.11343 -0.00285
#
# Static dielectric constant tensor:
#      x y z
#    x 1.725080 0.000000 -0.038390 
#    y 0.000000 1.785420 0.000000 
#    z -0.038390 0.000000 1.764200 
# 
# From -- ./inp_files/144380.got.cif
#   From: 2010.05.17/outbox.cif.g08.bks.cpg/sg15_73_cif.got.tgz:144380.got - 2010.06.03 18:47:42.
