data_PCOD9270263
_publ_section_title
;
Structure prediction by ZEFSAII (Michael W. Deem and Ramdas Pophale) SiO2 
 PCOD9270263
Probable space group: C 2/C
;
_chemical_formula_sum "Si O2"
_cell_formula_units_Z 56
_cell_length_a 7.354588
_cell_length_b 12.433041
_cell_length_c 24.453251
_cell_angle_alpha 90.000000
_cell_angle_beta 88.239109
_cell_angle_gamma 90.000000
_cell_volume 2234.946771
_symmetry_space_group_name_H-M "C 2/C"
_symmetry_group_IT_number 15
_symmetry_cell_setting 'monoclinic'
loop_
_space_group_symop_operation_xyz
x,y,z
-x,y,1/2-z
-x,-y,-z
x,-y,1/2+z
1/2+x,1/2+y,z
1/2-x,1/2+y,1/2-z
1/2-x,1/2-y,-z
1/2+x,1/2-y,1/2+z
loop_
_atom_site_type_symbol
_atom_site_label
_atom_site_fract_x
_atom_site_fract_y
_atom_site_fract_z
Si Si1 0.570784 0.349855 0.045247
Si Si2 0.000272 0.126087 0.166953
Si Si3 0.078506 0.632416 0.083928
Si Si4 0.446430 0.850927 0.187480
Si Si5 0.293304 0.556738 0.628588
Si Si6 0.624997 0.087566 0.302512
Si Si7 0.691151 0.586932 0.047638
O O1 0.670081 0.239057 0.058604
O O2 0.443452 0.371156 0.099269
O O3 0.686645 0.458110 0.039181
O O4 0.429401 0.353771 0.996471
O O5 0.880808 0.233871 0.170303
O O6 0.174704 0.137304 0.204799
O O7 0.095063 0.111923 0.106661
O O8 0.880136 0.019275 0.174527
O O9 0.989914 0.635661 0.145834
O O10 0.900703 0.618489 0.048095
O O11 0.210967 0.530162 0.086435
O O12 0.500000 0.846798 0.250000
O O13 0.629480 0.873071 0.151830
O O14 0.336769 0.961767 0.181945
O O15 0.500000 0.092892 0.250000
#
# Coordination Sequence:
#
# PCOD9270263 Si02
#       7
#     8   8   8   8   8   8   8
#     4  10  20  39  61  86 118 153 189 233 290 341
#     4  10  21  40  62  84 116 154 189 236 288 339
#     4  10  20  35  57  84 117 153 187 236 287 333
#     4  10  22  39  57  82 114 150 192 239 286 331
#     4  10  22  37  58  87 114 149 197 233 280 350
#     4   9  20  40  59  83 117 149 193 243 284 337
#     4   9  20  38  60  87 120 150 188 238 284 344
#
# _framework density 25.056525000000001
#
# number of rings (size 3 to 8) (size 9 to 14) (size 15 to 20)
#    0.000    2.286    0.000    2.143    0.000    8.571 
#    0.000   16.429    0.000    3.429    0.000    0.000 
#    0.000    0.000    0.000    0.000    0.000    0.000 
#
# Total GULP energy -156696.457622 kJ/mol
# GULP energy per Si atom -5596.302058 kJ/mol
# Density = 2.499950 g / cm^3
# Si number density = 25.056525 Si / 1000 Ang^3
#
#
#
# Elastic Constant Matrix: (Units=GPa)
#
#
# Indices 1 2 3 4 5 6 
#
# 1 49.2702 6.6802 2.3572 0.0000 13.0261 0.0000
# 2 6.6802 61.8069 27.3715 0.0000 12.3041 0.0000
# 3 2.3572 27.3715 84.5996 0.0000 18.6914 0.0000
# 4 0.0000 0.0000 0.0000 28.2106 0.0000 -1.2674
# 5 13.0261 12.3041 18.6914 0.0000 37.1284 0.0000
# 6 0.0000 0.0000 0.0000 -1.2674 0.0000 12.8603
#
#
#
# Elastic Compliance Matrix: (Units=1/GPa)
#
#
# Indices 1 2 3 4 5 6 
#
# 1 0.022613 -0.001549 0.001700 0.000000 -0.008276 0.000000
# 2 -0.001549 0.019424 -0.005557 0.000000 -0.003096 0.000000
# 3 0.001700 -0.005557 0.014960 0.000000 -0.006286 0.000000
# 4 0.000000 0.000000 0.000000 0.035605 0.000000 0.003509
# 5 -0.008276 -0.003096 -0.006286 0.000000 0.034027 0.000000
# 6 0.000000 0.000000 0.000000 0.003509 0.000000 0.078104
#
#
# Mechanical properties :
#
#
# Convention : Reuss Voigt Hill
#
# Bulk Modulus (GPa) = 21.65300 29.83273 25.74287
# Shear Modulus (GPa) = 21.65040 26.25771 23.95406
#
# Velocity S-wave (km/s) = 2.94268 3.24070 3.09528
# Velocity P-wave (km/s) = 4.49514 5.09263 4.80318
#
# Compressibility (1/GPa) = 0.04618297
#
# Stress axis : x y z
#
# Youngs Moduli (GPa) = 44.22250 51.48190 66.84554
#
# Poissons Ratio (x) = 0.07976 -0.11361
# Poissons Ratio (y) = 0.06851 0.37149
# Poissons Ratio (z) = -0.07516 0.28611
#
# Static dielectric constant tensor:
#      x y z
#    x 1.927300 0.000000 0.007630 
#    y 0.000000 1.967920 0.000000 
#    z 0.007630 0.000000 2.000140 
# 
# From -- ./inp_files/307258.got.cif
#   From: 2010.05.17/outbox.cif.g08.bks.cpg/sg15_154_cif.got.tgz:307258.got - 2010.06.03 18:47:42.
