data_PCOD9270701
_publ_section_title
;
Structure prediction by ZEFSAII (Michael W. Deem and Ramdas Pophale) SiO2 
 PCOD9270701
Probable space group: C 2/C
;
_chemical_formula_sum "Si O2"
_cell_formula_units_Z 60
_cell_length_a 15.683319
_cell_length_b 13.146288
_cell_length_c 13.792830
_cell_angle_alpha 90.000000
_cell_angle_beta 120.453685
_cell_angle_gamma 90.000000
_cell_volume 2451.441255
_symmetry_space_group_name_H-M "C 2/C"
_symmetry_group_IT_number 15
_symmetry_cell_setting 'monoclinic'
loop_
_space_group_symop_operation_xyz
x,y,z
-x,y,1/2-z
-x,-y,-z
x,-y,1/2+z
1/2+x,1/2+y,z
1/2-x,1/2+y,1/2-z
1/2-x,1/2-y,-z
1/2+x,1/2-y,1/2+z
loop_
_atom_site_type_symbol
_atom_site_label
_atom_site_fract_x
_atom_site_fract_y
_atom_site_fract_z
Si Si1 0.000000 0.046831 0.250000
Si Si2 0.358232 0.218303 0.191223
Si Si3 0.635822 0.257937 0.536808
Si Si4 0.396763 0.999182 0.692094
Si Si5 0.537524 0.614850 0.612025
Si Si6 0.774590 0.861869 0.393352
Si Si7 0.385630 0.027420 0.957997
Si Si8 0.217990 0.133143 0.368690
O O1 0.101916 0.107452 0.286607
O O2 0.990025 0.972368 0.150821
O O3 0.367863 0.248874 0.083344
O O4 0.407734 0.111020 0.246507
O O5 0.409111 0.305446 0.283343
O O6 0.240870 0.200655 0.131454
O O7 0.543299 0.329750 0.501414
O O8 0.627505 0.145372 0.574915
O O9 0.500000 0.056548 0.750000
O O10 0.373192 0.975599 0.567380
O O11 0.315457 0.068615 0.691383
O O12 0.627776 0.588340 0.594238
O O13 0.775550 0.864622 0.510355
O O14 0.754927 0.744090 0.355464
O O15 0.296824 0.951160 0.876170
O O16 0.500000 0.000000 0.000000
#
# Coordination Sequence:
#
# PCOD9270701 Si02
#       8
#     4   8   8   8   8   8   8   8
#     4  12  26  40  74  98 144 174 230 278 356 412
#     4  10  20  37  60  91 127 162 213 269 338 387
#     4  10  20  35  62  90 130 167 203 270 341 388
#     4  10  22  38  61  88 122 166 209 269 318 390
#     4  12  23  41  65 102 134 177 220 289 336 411
#     4  10  25  45  67  87 137 174 235 272 334 398
#     4  10  20  37  66  90 121 166 214 265 326 393
#     4  10  24  48  63  95 133 184 221 285 334 413
#
# _framework density 24.475397999999998
#
# number of rings (size 3 to 8) (size 9 to 14) (size 15 to 20)
#    0.000    1.600    1.333    3.200    6.533    3.733 
#    2.400    0.000    0.000    0.000    0.000    0.000 
#    0.000    0.000    0.000    0.000    0.000    0.000 
#
# Total GULP energy -167833.945166 kJ/mol
# GULP energy per Si atom -5594.464839 kJ/mol
# Density = 2.441969 g / cm^3
# Si number density = 24.475398 Si / 1000 Ang^3
#
#
#
# Elastic Constant Matrix: (Units=GPa)
#
#
# Indices 1 2 3 4 5 6 
#
# 1 143.9981 27.5251 21.8975 0.0000 36.0883 0.0000
# 2 27.5251 72.3023 19.0620 0.0000 16.7092 0.0000
# 3 21.8975 19.0620 73.2204 0.0000 4.5505 0.0000
# 4 0.0000 0.0000 0.0000 26.4810 0.0000 11.6745
# 5 36.0883 16.7092 4.5505 0.0000 63.0369 0.0000
# 6 0.0000 0.0000 0.0000 11.6745 0.0000 33.8541
#
#
#
# Elastic Compliance Matrix: (Units=1/GPa)
#
#
# Indices 1 2 3 4 5 6 
#
# 1 0.008660 -0.001805 -0.001850 0.000000 -0.004346 0.000000
# 2 -0.001805 0.016124 -0.003472 0.000000 -0.002990 0.000000
# 3 -0.001850 -0.003472 0.015059 0.000000 0.000892 0.000000
# 4 0.000000 0.000000 0.000000 0.044533 0.000000 -0.015357
# 5 -0.004346 -0.002990 0.000892 0.000000 0.019080 0.000000
# 6 0.000000 0.000000 0.000000 -0.015357 0.000000 0.034834
#
#
# Mechanical properties :
#
#
# Convention : Reuss Voigt Hill
#
# Bulk Modulus (GPa) = 39.07828 47.38778 43.23303
# Shear Modulus (GPa) = 31.04145 39.41012 35.22579
#
# Velocity S-wave (km/s) = 3.56514 4.01707 3.79784
# Velocity P-wave (km/s) = 5.74004 6.39682 6.07731
#
# Compressibility (1/GPa) = 0.02558966
#
# Stress axis : x y z
#
# Youngs Moduli (GPa) = 115.47386 62.01804 66.40488
#
# Poissons Ratio (x) = 0.11193 0.12285
# Poissons Ratio (y) = 0.20840 0.23057
# Poissons Ratio (z) = 0.21362 0.21534
#
# Static dielectric constant tensor:
#      x y z
#    x 1.993000 0.000000 -0.012570 
#    y 0.000000 1.924760 0.000000 
#    z -0.012570 0.000000 1.979950 
# 
# From -- ./inp_files/154295.got.cif
#   From: 2010.05.17/outbox.cif.g08.bks.cpg/sg15_78_cif.got.tgz:154295.got - 2010.06.03 18:47:42.
