data_PCOD9270916
_publ_section_title
;
Structure prediction by ZEFSAII (Michael W. Deem and Ramdas Pophale) SiO2 
 PCOD9270916
Probable space group: C 2/C
;
_chemical_formula_sum "Si O2"
_cell_formula_units_Z 36
_cell_length_a 8.192302
_cell_length_b 29.288706
_cell_length_c 7.149806
_cell_angle_alpha 90.000000
_cell_angle_beta 120.245216
_cell_angle_gamma 90.000000
_cell_volume 1482.014975
_symmetry_space_group_name_H-M "C 2/C"
_symmetry_group_IT_number 15
_symmetry_cell_setting 'monoclinic'
loop_
_space_group_symop_operation_xyz
x,y,z
-x,y,1/2-z
-x,-y,-z
x,-y,1/2+z
1/2+x,1/2+y,z
1/2-x,1/2+y,1/2-z
1/2-x,1/2-y,-z
1/2+x,1/2-y,1/2+z
loop_
_atom_site_type_symbol
_atom_site_label
_atom_site_fract_x
_atom_site_fract_y
_atom_site_fract_z
Si Si1 0.776648 0.457040 0.580227
Si Si2 0.220498 0.863079 0.417074
Si Si3 0.000000 0.032768 0.250000
Si Si4 0.823763 0.184485 0.247831
Si Si5 0.038157 0.721379 0.497844
O O1 0.779763 0.415435 0.431488
O O2 0.662325 0.500536 0.436052
O O3 0.630439 0.443086 0.666091
O O4 0.000000 0.466271 0.750000
O O5 0.262621 0.850990 0.657835
O O6 0.319094 0.819810 0.378856
O O7 0.000000 0.860003 0.250000
O O8 0.902903 0.229115 0.400733
O O9 0.657899 0.204673 0.027889
O O10 0.000000 0.162655 0.250000
O O11 0.000000 0.725436 0.250000
#
# Coordination Sequence:
#
# PCOD9270916 Si02
#       5
#     8   8   4   8   8
#     4  11  22  43  69  96 130 165 207 257 319 378
#     4  11  22  39  59  83 118 161 204 247 304 370
#     4  10  24  42  70 100 126 164 208 256 322 380
#     4  11  21  34  57  83 118 154 204 258 302 354
#     4  10  20  36  55  80 110 161 199 242 307 361
#
# _framework density 24.291253000000001
#
# number of rings (size 3 to 8) (size 9 to 14) (size 15 to 20)
#    0.000    1.333    1.111    8.000    1.556    0.000 
#    0.000    0.000    0.000    0.000    0.000    0.000 
#    0.000    0.000    0.000    0.000    0.000    0.000 
#
# Total GULP energy -100426.067007 kJ/mol
# GULP energy per Si atom -5579.225945 kJ/mol
# Density = 2.423596 g / cm^3
# Si number density = 24.291253 Si / 1000 Ang^3
#
#
#
# Elastic Constant Matrix: (Units=GPa)
#
#
# Indices 1 2 3 4 5 6 
#
# 1 93.0263 -1.6965 25.2704 0.0000 18.8410 0.0000
# 2 -1.6965 75.3982 20.7371 0.0000 1.0749 0.0000
# 3 25.2704 20.7371 74.7271 0.0000 34.0714 0.0000
# 4 0.0000 0.0000 0.0000 19.2256 0.0000 3.5970
# 5 18.8410 1.0749 34.0714 0.0000 54.3298 0.0000
# 6 0.0000 0.0000 0.0000 3.5970 0.0000 26.6702
#
#
#
# Elastic Compliance Matrix: (Units=1/GPa)
#
#
# Indices 1 2 3 4 5 6 
#
# 1 0.012143 0.001276 -0.003542 0.000000 -0.002015 0.000000
# 2 0.001276 0.014876 -0.005915 0.000000 0.002973 0.000000
# 3 -0.003542 -0.005915 0.021858 0.000000 -0.012362 0.000000
# 4 0.000000 0.000000 0.000000 0.053360 0.000000 -0.007197
# 5 -0.002015 0.002973 -0.012362 0.000000 0.026799 0.000000
# 6 0.000000 0.000000 0.000000 -0.007197 0.000000 0.038466
#
#
# Mechanical properties :
#
#
# Convention : Reuss Voigt Hill
#
# Bulk Modulus (GPa) = 30.75455 36.86372 33.80913
# Shear Modulus (GPa) = 25.68034 33.30118 29.49076
#
# Velocity S-wave (km/s) = 3.25496 3.70660 3.48810
# Velocity P-wave (km/s) = 5.17828 5.79027 5.49280
#
# Compressibility (1/GPa) = 0.03251552
#
# Stress axis : x y z
#
# Youngs Moduli (GPa) = 82.35075 67.22195 45.75066
#
# Poissons Ratio (x) = -0.08578 0.16203
# Poissons Ratio (y) = -0.10508 0.27062
# Poissons Ratio (z) = 0.29166 0.39762
#
# Static dielectric constant tensor:
#      x y z
#    x 2.109480 0.000000 -0.044250 
#    y 0.000000 1.885640 0.000000 
#    z -0.044250 0.000000 2.023740 
# 
# From -- ./inp_files/24341.got.cif
#   From: 2010.05.17/outbox.cif.g08.bks.cpg/sg15_13_cif.got.tgz:24341.got - 2010.06.03 18:47:42.
