data_PCOD9270629
_publ_section_title
;
Structure prediction by ZEFSAII (Michael W. Deem and Ramdas Pophale) SiO2 
 PCOD9270629
Probable space group: C 2/C
;
_chemical_formula_sum "Si O2"
_cell_formula_units_Z 64
_cell_length_a 21.426556
_cell_length_b 8.232921
_cell_length_c 23.962459
_cell_angle_alpha 90.000000
_cell_angle_beta 55.125944
_cell_angle_gamma 90.000000
_cell_volume 3467.920269
_symmetry_space_group_name_H-M "C 2/C"
_symmetry_group_IT_number 15
_symmetry_cell_setting 'monoclinic'
loop_
_space_group_symop_operation_xyz
x,y,z
-x,y,1/2-z
-x,-y,-z
x,-y,1/2+z
1/2+x,1/2+y,z
1/2-x,1/2+y,1/2-z
1/2-x,1/2-y,-z
1/2+x,1/2-y,1/2+z
loop_
_atom_site_type_symbol
_atom_site_label
_atom_site_fract_x
_atom_site_fract_y
_atom_site_fract_z
Si Si1 0.403958 0.643277 0.061167
Si Si2 0.306239 0.904714 0.172038
Si Si3 0.192348 0.106101 0.153554
Si Si4 0.960726 0.021712 0.430969
Si Si5 0.248084 0.975558 0.384087
Si Si6 0.447869 0.431586 0.224761
Si Si7 0.199933 0.910752 0.522982
Si Si8 0.825963 0.329084 0.750849
O O1 0.365727 0.805143 0.104416
O O2 0.475594 0.604119 0.063296
O O3 0.336543 0.506329 0.098608
O O4 0.432478 0.632425 0.982594
O O5 0.248093 0.775686 0.230428
O O6 0.253510 0.008785 0.158157
O O7 0.340267 0.026094 0.200291
O O8 0.219068 0.293661 0.137979
O O9 0.191824 0.034233 0.090834
O O10 0.110476 0.070917 0.223477
O O11 0.884369 0.122885 0.457799
O O12 0.998516 0.986417 0.352776
O O13 0.239072 0.017231 0.454364
O O14 0.301765 0.094336 0.322324
O O15 0.500000 0.379828 0.250000
O O16 0.395348 0.290017 0.226376
O O17 0.250000 0.750000 0.500000
#
# Coordination Sequence:
#
# PCOD9270629 Si02
#       8
#     8   8   8   8   8   8   8   8
#     4   9  21  38  60  86 113 154 194 242 298 343
#     4  10  21  36  58  88 113 148 196 242 295 345
#     4  10  20  35  61  88 113 152 196 237 288 355
#     4  10  20  38  60  80 119 157 191 239 294 348
#     4   9  19  36  60  86 113 149 194 243 288 340
#     4  11  23  39  57  84 121 159 192 234 295 354
#     4   9  18  37  59  84 109 149 202 239 277 343
#     4  10  22  36  57  86 115 149 192 243 290 350
#
# _framework density 18.454865999999999
#
# number of rings (size 3 to 8) (size 9 to 14) (size 15 to 20)
#    0.000    2.250    1.250    0.750   10.500    0.000 
#    2.250    6.250    0.000    0.000    0.000    0.000 
#    0.000    0.000    0.000    0.000    0.000    0.000 
#
# Total GULP energy -178266.816363 kJ/mol
# GULP energy per Si atom -5570.838011 kJ/mol
# Density = 1.841286 g / cm^3
# Si number density = 18.454866 Si / 1000 Ang^3
#
#
#
# Elastic Constant Matrix: (Units=GPa)
#
#
# Indices 1 2 3 4 5 6 
#
# 1 78.0274 16.1820 40.9870 -0.0013 -0.0692 -0.0006
# 2 16.1820 57.4439 32.8695 -0.0036 -5.1590 -0.0017
# 3 40.9870 32.8695 117.1355 -0.0001 -1.7703 0.0002
# 4 -0.0013 -0.0036 -0.0001 -13.8332 0.0000 -7.0508
# 5 -0.0692 -5.1590 -1.7703 0.0000 28.2217 -0.0001
# 6 -0.0006 -0.0017 0.0002 -7.0508 -0.0001 17.6703
#
#
#
# Elastic Compliance Matrix: (Units=1/GPa)
#
#
# Indices 1 2 3 4 5 6 
#
# 1 0.015824 -0.001591 -0.005099 -0.000001 -0.000572 0.000000
# 2 -0.001591 0.021235 -0.005348 -0.000005 0.003542 0.000000
# 3 -0.005099 -0.005348 0.011818 0.000002 -0.000249 0.000000
# 4 -0.000001 -0.000005 0.000002 -0.060072 -0.000001 -0.023970
# 5 -0.000572 0.003542 -0.000249 -0.000001 0.036064 0.000000
# 6 0.000000 0.000000 0.000000 -0.023970 0.000000 0.047028
#
#
# Mechanical properties :
#
#
# Convention : Reuss Voigt Hill
#
# Bulk Modulus (GPa) = 40.32283 48.07598 44.19941
# Shear Modulus (GPa) = 47.96558 17.24965 32.60761
#
# Velocity S-wave (km/s) = 5.10364 3.06059 4.20799
# Velocity P-wave (km/s) = 7.52505 6.21263 6.90012
#
# Compressibility (1/GPa) = 0.02479984
#
# Stress axis : x y z
#
# Youngs Moduli (GPa) = 63.19507 47.09183 84.61356
#
# Poissons Ratio (x) = 0.07494 0.43145
# Poissons Ratio (y) = 0.10056 0.45255
# Poissons Ratio (z) = 0.32224 0.25187
#
# Static dielectric constant tensor:
#      x y z
#    x 1.636370 0.000000 0.012780 
#    y 0.000000 1.626260 0.000000 
#    z 0.012780 0.000000 1.674900 
# 
# From -- ./inp_files/279380.got.cif
#   From: 2010.05.17/outbox.cif.g08.bks.cpg/sg15_140_cif.got.tgz:279380.got - 2010.06.03 18:47:42.
