data_PCOD9270243
_publ_section_title
;
Structure prediction by ZEFSAII (Michael W. Deem and Ramdas Pophale) SiO2 
 PCOD9270243
Probable space group: C 2/C
;
_chemical_formula_sum "Si O2"
_cell_formula_units_Z 48
_cell_length_a 16.465047
_cell_length_b 8.890696
_cell_length_c 15.530718
_cell_angle_alpha 90.000000
_cell_angle_beta 63.295529
_cell_angle_gamma 90.000000
_cell_volume 2030.978203
_symmetry_space_group_name_H-M "C 2/C"
_symmetry_group_IT_number 15
_symmetry_cell_setting 'monoclinic'
loop_
_space_group_symop_operation_xyz
x,y,z
-x,y,1/2-z
-x,-y,-z
x,-y,1/2+z
1/2+x,1/2+y,z
1/2-x,1/2+y,1/2-z
1/2-x,1/2-y,-z
1/2+x,1/2-y,1/2+z
loop_
_atom_site_type_symbol
_atom_site_label
_atom_site_fract_x
_atom_site_fract_y
_atom_site_fract_z
Si Si1 0.816649 0.291320 0.572382
Si Si2 0.000000 0.406710 0.250000
Si Si3 0.813132 0.535952 0.916106
Si Si4 0.177786 0.839149 0.255473
Si Si5 0.990493 0.838662 0.900037
Si Si6 0.000000 0.914604 0.250000
Si Si7 0.175521 0.864583 0.875106
O O1 0.816404 0.442653 0.517170
O O2 0.722795 0.199322 0.602738
O O3 0.840591 0.283213 0.660417
O O4 0.895486 0.196217 0.488496
O O5 0.090405 0.492335 0.175354
O O6 0.019244 0.296945 0.322070
O O7 0.735502 0.422601 0.925057
O O8 0.094910 0.835249 0.228251
O O9 0.275494 0.788072 0.175594
O O10 0.183362 0.003524 0.297766
O O11 0.068140 0.850955 0.935061
O O12 0.983332 0.981366 0.841505
#
# Coordination Sequence:
#
# PCOD9270243 Si02
#       7
#     8   4   8   8   8   4   8
#     4   9  18  34  57  84 109 144 190 233 268 326
#     4   9  16  31  52  78 108 146 182 218 268 344
#     4   9  18  30  53  81 108 138 181 228 271 314
#     4  10  21  37  58  81 112 147 187 227 279 332
#     4   9  17  32  56  82 109 141 190 230 270 321
#     4   9  20  33  54  84 112 150 182 232 282 320
#     4  10  20  35  57  83 110 150 186 227 277 336
#
# _framework density 23.633932999999999
#
# number of rings (size 3 to 8) (size 9 to 14) (size 15 to 20)
#    0.000    2.667    0.000    2.000    0.000   12.000 
#    0.000    0.000    0.000   32.000    0.000    0.000 
#    0.000    0.000    0.000    0.000    0.000    0.000 
#
# Total GULP energy -134033.646614 kJ/mol
# GULP energy per Si atom -5584.735276 kJ/mol
# Density = 2.358014 g / cm^3
# Si number density = 23.633933 Si / 1000 Ang^3
#
#
#
# Elastic Constant Matrix: (Units=GPa)
#
#
# Indices 1 2 3 4 5 6 
#
# 1 180.5763 28.7570 46.5211 0.0000 -1.2300 0.0000
# 2 28.7570 40.7809 11.8063 0.0000 0.0329 0.0000
# 3 46.5211 11.8063 59.1593 0.0000 -5.6324 0.0000
# 4 0.0000 0.0000 0.0000 2.2593 0.0000 -7.5863
# 5 -1.2300 0.0329 -5.6324 0.0000 31.4600 0.0000
# 6 0.0000 0.0000 0.0000 -7.5863 0.0000 19.2301
#
#
#
# Elastic Compliance Matrix: (Units=1/GPa)
#
#
# Indices 1 2 3 4 5 6 
#
# 1 0.007468 -0.003766 -0.005181 0.000000 -0.000632 0.000000
# 2 -0.003766 0.027953 -0.002680 0.000000 -0.000656 0.000000
# 3 -0.005181 -0.002680 0.021866 0.000000 0.003715 0.000000
# 4 0.000000 0.000000 0.000000 -1.363205 0.000000 -0.537789
# 5 -0.000632 -0.000656 0.003715 0.000000 0.032427 0.000000
# 6 0.000000 0.000000 0.000000 -0.537789 0.000000 -0.160157
#
#
# Mechanical properties :
#
#
# Convention : Reuss Voigt Hill
#
# Bulk Modulus (GPa) = 29.38238 50.52059 39.95149
# Shear Modulus (GPa) = -3.57386 23.48536 9.95575
#
# Velocity S-wave (km/s) = -1.23104 3.15574 2.05466
# Velocity P-wave (km/s) = 3.23089 5.89075 4.75077
#
# Compressibility (1/GPa) = 0.03403401
#
# Stress axis : x y z
#
# Youngs Moduli (GPa) = 133.90406 35.77433 45.73223
#
# Poissons Ratio (x) = 0.13471 0.23695
# Poissons Ratio (y) = 0.50423 0.12255
# Poissons Ratio (z) = 0.69379 0.09587
#
# Static dielectric constant tensor:
#      x y z
#    x 1.888850 0.000000 0.028910 
#    y 0.000000 1.947200 0.000000 
#    z 0.028910 0.000000 1.905880 
# 
# From -- ./inp_files/151887.got.cif
#   From: 2010.05.17/outbox.cif.g08.bks.cpg/sg15_76_cif.got.tgz:151887.got - 2010.06.03 18:47:42.
