data_PCOD9270035
_publ_section_title
;
Structure prediction by ZEFSAII (Michael W. Deem and Ramdas Pophale) SiO2 
 PCOD9270035
Probable space group: C 2/C
;
_chemical_formula_sum "Si O2"
_cell_formula_units_Z 64
_cell_length_a 28.197870
_cell_length_b 20.274057
_cell_length_c 18.007180
_cell_angle_alpha 90.000000
_cell_angle_beta 162.281048
_cell_angle_gamma 90.000000
_cell_volume 3133.093492
_symmetry_space_group_name_H-M "C 2/C"
_symmetry_group_IT_number 15
_symmetry_cell_setting 'monoclinic'
loop_
_space_group_symop_operation_xyz
x,y,z
-x,y,1/2-z
-x,-y,-z
x,-y,1/2+z
1/2+x,1/2+y,z
1/2-x,1/2+y,1/2-z
1/2-x,1/2-y,-z
1/2+x,1/2-y,1/2+z
loop_
_atom_site_type_symbol
_atom_site_label
_atom_site_fract_x
_atom_site_fract_y
_atom_site_fract_z
Si Si1 0.881743 0.660804 0.662353
Si Si2 0.093234 0.189430 0.320363
Si Si3 0.292886 0.568848 0.209841
Si Si4 0.001152 0.765873 0.117567
Si Si5 0.218408 0.648202 0.238127
Si Si6 0.937334 0.159424 0.937633
Si Si7 0.319287 0.926196 0.499429
Si Si8 0.208337 0.646160 0.397373
O O1 0.862689 0.734193 0.600003
O O2 0.750800 0.653939 0.530708
O O3 0.836115 0.609386 0.530474
O O4 0.049180 0.657981 0.949627
O O5 0.000000 0.161347 0.250000
O O6 0.978569 0.185724 0.079267
O O7 0.289834 0.591460 0.291223
O O8 0.454377 0.595840 0.417546
O O9 0.258175 0.493032 0.145331
O O10 0.009070 0.787516 0.043168
O O11 0.063550 0.691416 0.209886
O O12 0.135049 0.810372 0.356391
O O13 0.834976 0.789027 0.901777
O O14 0.201277 0.631894 0.299384
O O15 0.763118 0.136369 0.662463
O O16 0.500000 0.928718 0.750000
O O17 0.288886 0.915076 0.541953
#
# Coordination Sequence:
#
# PCOD9270035 Si02
#       8
#     8   8   8   8   8   8   8   8
#     4  10  21  34  55  83 110 146 189 235 286 342
#     4  10  20  35  54  82 115 143 183 236 289 343
#     4  10  21  41  60  79 113 158 198 230 281 345
#     4   9  20  37  57  83 119 149 183 238 298 351
#     4  11  20  35  61  85 110 151 197 241 285 336
#     4   9  20  38  60  82 109 152 192 231 290 351
#     4  11  23  39  58  82 117 156 192 234 284 339
#     4  10  22  37  56  88 118 151 194 237 285 347
#
# _framework density 20.427095000000001
#
# number of rings (size 3 to 8) (size 9 to 14) (size 15 to 20)
#    0.000    2.000    0.000    3.375    0.000    8.000 
#    0.000    5.000    0.000    0.000    0.000    0.000 
#    0.000    0.000    0.000    0.000    0.000    0.000 
#
# Total GULP energy -178714.878403 kJ/mol
# GULP energy per Si atom -5584.839950 kJ/mol
# Density = 2.038060 g / cm^3
# Si number density = 20.427095 Si / 1000 Ang^3
#
#
#
# Elastic Constant Matrix: (Units=GPa)
#
#
# Indices 1 2 3 4 5 6 
#
# 1 119.3093 24.4344 23.0950 0.0000 -9.0471 0.0000
# 2 24.4344 53.4741 3.2478 0.0000 -1.7672 0.0000
# 3 23.0950 3.2478 85.3089 0.0000 -0.5771 0.0000
# 4 0.0000 0.0000 0.0000 21.1017 0.0000 -10.5416
# 5 -9.0471 -1.7672 -0.5771 0.0000 30.4251 0.0000
# 6 0.0000 0.0000 0.0000 -10.5416 0.0000 5.2177
#
#
#
# Elastic Compliance Matrix: (Units=1/GPa)
#
#
# Indices 1 2 3 4 5 6 
#
# 1 0.009952 -0.004307 -0.002512 0.000000 0.002661 0.000000
# 2 -0.004307 0.020643 0.000380 0.000000 -0.000074 0.000000
# 3 -0.002512 0.000380 0.012384 0.000000 -0.000490 0.000000
# 4 0.000000 0.000000 0.000000 -5.099112 0.000000-10.302029
# 5 0.002661 -0.000074 -0.000490 0.000000 0.033645 0.000000
# 6 0.000000 0.000000 0.000000-10.302029 0.000000-20.622129
#
#
# Mechanical properties :
#
#
# Convention : Reuss Voigt Hill
#
# Bulk Modulus (GPa) = 33.22220 39.96074 36.59147
# Shear Modulus (GPa) = -0.19515 25.16991 12.48738
#
# Velocity S-wave (km/s) = -0.30942 3.51405 2.47516
# Velocity P-wave (km/s) = 4.02137 6.00582 5.11084
#
# Compressibility (1/GPa) = 0.03010036
#
# Stress axis : x y z
#
# Youngs Moduli (GPa) = 100.48541 48.44238 80.74647
#
# Poissons Ratio (x) = 0.20863 0.20285
# Poissons Ratio (y) = 0.43277 -0.03065
# Poissons Ratio (z) = 0.25244 -0.01839
#
# Static dielectric constant tensor:
#      x y z
#    x 1.735290 0.000000 0.028430 
#    y 0.000000 1.726950 0.000000 
#    z 0.028430 0.000000 1.762190 
# 
# From -- ./inp_files/223160.got.cif
#   From: 2010.05.17/outbox.cif.g08.bks.cpg/sg15_112_cif.got.tgz:223160.got - 2010.06.03 18:47:42.
