data_PCOD9270056
_publ_section_title
;
Structure prediction by ZEFSAII (Michael W. Deem and Ramdas Pophale) SiO2 
 PCOD9270056
Probable space group: C 2/C
;
_chemical_formula_sum "Si O2"
_cell_formula_units_Z 56
_cell_length_a 8.795658
_cell_length_b 16.226080
_cell_length_c 20.915128
_cell_angle_alpha 90.000000
_cell_angle_beta 70.150213
_cell_angle_gamma 90.000000
_cell_volume 2807.637381
_symmetry_space_group_name_H-M "C 2/C"
_symmetry_group_IT_number 15
_symmetry_cell_setting 'monoclinic'
loop_
_space_group_symop_operation_xyz
x,y,z
-x,y,1/2-z
-x,-y,-z
x,-y,1/2+z
1/2+x,1/2+y,z
1/2-x,1/2+y,1/2-z
1/2-x,1/2-y,-z
1/2+x,1/2-y,1/2+z
loop_
_atom_site_type_symbol
_atom_site_label
_atom_site_fract_x
_atom_site_fract_y
_atom_site_fract_z
Si Si1 0.076186 0.062068 0.040440
Si Si2 0.262513 0.349791 0.094409
Si Si3 0.011634 0.282709 0.555772
Si Si4 0.622107 0.959602 0.930736
Si Si5 0.326169 0.298321 0.590834
Si Si6 0.550904 0.216998 0.811710
Si Si7 0.491444 0.034659 0.818922
O O1 0.193385 0.020341 0.075516
O O2 0.930786 0.119140 0.084562
O O3 0.195115 0.120266 0.981976
O O4 0.000000 0.000000 0.000000
O O5 0.418374 0.298596 0.094341
O O6 0.112409 0.287417 0.122274
O O7 0.189480 0.430263 0.140347
O O8 0.153680 0.310324 0.582902
O O9 0.084568 0.258573 0.475815
O O10 0.897589 0.361238 0.566087
O O11 0.564588 0.991228 0.869956
O O12 0.500000 0.000000 0.000000
O O13 0.319209 0.258409 0.661746
O O14 0.500000 0.252194 0.750000
O O15 0.590724 0.120650 0.795409
O O16 0.500000 0.989143 0.750000
#
# Coordination Sequence:
#
# PCOD9270056 Si02
#       7
#     8   8   8   8   8   8   8
#     4  11  22  34  58  86 116 147 191 247 296 339
#     4   9  18  38  58  80 111 150 189 231 287 352
#     4  10  21  34  59  87 112 145 195 241 292 338
#     4  12  20  35  59  88 113 155 196 234 292 355
#     4  10  20  35  54  87 118 144 187 250 287 336
#     4   9  18  36  59  77 111 152 188 221 288 346
#     4   9  20  37  62  84 117 155 189 240 296 356
#
# _framework density 19.945595999999998
#
# number of rings (size 3 to 8) (size 9 to 14) (size 15 to 20)
#    0.857    1.143    1.429    3.429    0.000    4.571 
#    0.000    3.571    3.143    0.000    0.000    0.000 
#    0.000    0.000    0.000    0.000    0.000    0.000 
#
# Total GULP energy -155875.722596 kJ/mol
# GULP energy per Si atom -5566.990093 kJ/mol
# Density = 1.990020 g / cm^3
# Si number density = 19.945596 Si / 1000 Ang^3
#
#
#
# Elastic Constant Matrix: (Units=GPa)
#
#
# Indices 1 2 3 4 5 6 
#
# 1 97.4912 24.4726 52.2072 0.0000 28.3940 0.0000
# 2 24.4726 50.5254 26.3993 0.0000 18.1226 0.0000
# 3 52.2072 26.3993 101.1686 0.0000 40.6336 0.0000
# 4 0.0000 0.0000 0.0000 23.6626 0.0000 4.4438
# 5 28.3940 18.1226 40.6336 0.0000 29.6748 0.0000
# 6 0.0000 0.0000 0.0000 4.4438 0.0000 23.4285
#
#
#
# Elastic Compliance Matrix: (Units=1/GPa)
#
#
# Indices 1 2 3 4 5 6 
#
# 1 0.015316 -0.002592 -0.004393 0.000000 -0.007056 0.000000
# 2 -0.002592 0.025818 -0.000140 0.000000 -0.013096 0.000000
# 3 -0.004393 -0.000140 0.023255 0.000000 -0.027554 0.000000
# 4 0.000000 0.000000 0.000000 0.043822 0.000000 -0.008312
# 5 -0.007056 -0.013096 -0.027554 0.000000 0.086178 0.000000
# 6 0.000000 0.000000 0.000000 -0.008312 0.000000 0.044260
#
#
# Mechanical properties :
#
#
# Convention : Reuss Voigt Hill
#
# Bulk Modulus (GPa) = 19.94461 50.59370 35.26915
# Shear Modulus (GPa) = 18.54535 25.09357 21.81946
#
# Velocity S-wave (km/s) = 3.05256 3.55082 3.31108
# Velocity P-wave (km/s) = 4.73766 6.49862 5.68671
#
# Compressibility (1/GPa) = 0.05013887
#
# Stress axis : x y z
#
# Youngs Moduli (GPa) = 65.29292 38.73322 43.00191
#
# Poissons Ratio (x) = 0.10040 0.18891
# Poissons Ratio (y) = 0.16924 0.00600
# Poissons Ratio (z) = 0.28683 0.00541
#
# Static dielectric constant tensor:
#      x y z
#    x 1.753500 0.000000 -0.008960 
#    y 0.000000 1.747340 0.000000 
#    z -0.008960 0.000000 1.728720 
# 
# From -- ./inp_files/232185.got.cif
#   From: 2010.05.17/outbox.cif.g08.bks.cpg/sg15_117_cif.got.tgz:232185.got - 2010.06.03 18:47:42.
