data_PCOD9270990
_publ_section_title
;
Structure prediction by ZEFSAII (Michael W. Deem and Ramdas Pophale) SiO2 
 PCOD9270990
Probable space group: C 2/C
;
_chemical_formula_sum "Si O2"
_cell_formula_units_Z 48
_cell_length_a 30.471831
_cell_length_b 5.154602
_cell_length_c 22.431018
_cell_angle_alpha 90.000000
_cell_angle_beta 139.956867
_cell_angle_gamma 90.000000
_cell_volume 2266.728509
_symmetry_space_group_name_H-M "C 2/C"
_symmetry_group_IT_number 15
_symmetry_cell_setting 'monoclinic'
loop_
_space_group_symop_operation_xyz
x,y,z
-x,y,1/2-z
-x,-y,-z
x,-y,1/2+z
1/2+x,1/2+y,z
1/2-x,1/2+y,1/2-z
1/2-x,1/2-y,-z
1/2+x,1/2-y,1/2+z
loop_
_atom_site_type_symbol
_atom_site_label
_atom_site_fract_x
_atom_site_fract_y
_atom_site_fract_z
Si Si1 0.416578 0.779147 0.762181
Si Si2 0.664698 0.329353 0.637885
Si Si3 0.024325 0.971380 0.957489
Si Si4 0.547563 0.926272 0.389572
Si Si5 0.814369 0.332799 0.760087
Si Si6 0.078749 0.921075 0.353160
O O1 0.468311 0.597883 0.855051
O O2 0.358147 0.867827 0.746294
O O3 0.385424 0.633141 0.672593
O O4 0.467293 0.008785 0.792156
O O5 0.595597 0.378952 0.531439
O O6 0.732714 0.349678 0.668838
O O7 0.670082 0.555586 0.693449
O O8 0.665180 0.055901 0.671985
O O9 0.040300 0.682604 0.949608
O O10 0.000000 0.000000 0.000000
O O11 0.583646 0.689466 0.392763
O O12 0.586020 0.178509 0.405024
O O13 0.000000 0.922327 0.250000
#
# Coordination Sequence:
#
# PCOD9270990 Si02
#       6
#     8   8   8   8   8   8
#     4  11  23  35  65  89 120 155 204 247 289 351
#     4  10  23  39  58  81 129 157 192 236 300 363
#     4  12  23  36  60  96 124 148 189 255 306 349
#     4  11  22  37  55  89 118 152 191 247 296 339
#     4  10  22  41  57  84 116 169 197 230 289 368
#     4  10  20  36  56  83 116 155 198 240 285 341
#
# _framework density 21.175889999999999
#
# number of rings (size 3 to 8) (size 9 to 14) (size 15 to 20)
#    0.000    1.333    5.000    2.500    2.333    1.333 
#    0.000    0.000    0.000    2.000    0.000    0.000 
#    0.000    0.000    0.000    0.000    0.000    0.000 
#
# Total GULP energy -133889.687579 kJ/mol
# GULP energy per Si atom -5578.736982 kJ/mol
# Density = 2.112769 g / cm^3
# Si number density = 21.175890 Si / 1000 Ang^3
#
#
#
# Elastic Constant Matrix: (Units=GPa)
#
#
# Indices 1 2 3 4 5 6 
#
# 1 134.6454 24.5627 43.0700 -0.0031 -7.8324 0.0035
# 2 24.5627 108.3765 25.1252 0.0079 -11.9562 -0.0105
# 3 43.0700 25.1252 62.0818 -0.0018 -14.0648 0.0037
# 4 -0.0031 0.0079 -0.0018 26.5339 0.0012 -4.5757
# 5 -7.8324 -11.9562 -14.0648 0.0012 32.0724 0.0002
# 6 0.0035 -0.0105 0.0037 -4.5757 0.0002 19.1545
#
#
#
# Elastic Compliance Matrix: (Units=1/GPa)
#
#
# Indices 1 2 3 4 5 6 
#
# 1 0.009611 -0.000749 -0.006546 0.000001 -0.000803 -0.000001
# 2 -0.000749 0.010384 -0.003161 -0.000003 0.002302 0.000006
# 3 -0.006546 -0.003161 0.023649 0.000001 0.007594 -0.000005
# 4 0.000001 -0.000003 0.000001 0.039307 -0.000002 0.009390
# 5 -0.000803 0.002302 0.007594 -0.000002 0.035172 -0.000001
# 6 -0.000001 0.000006 -0.000005 0.009390 -0.000001 0.054450
#
#
# Mechanical properties :
#
#
# Convention : Reuss Voigt Hill
#
# Bulk Modulus (GPa) = 43.99429 54.51328 49.25379
# Shear Modulus (GPa) = 24.86790 29.70856 27.28823
#
# Velocity S-wave (km/s) = 3.43060 3.74965 3.59367
# Velocity P-wave (km/s) = 6.04258 6.67424 6.36625
#
# Compressibility (1/GPa) = 0.02273022
#
# Stress axis : x y z
#
# Youngs Moduli (GPa) = 104.04824 96.30498 42.28475
#
# Poissons Ratio (x) = 0.07215 0.27681
# Poissons Ratio (y) = 0.07795 0.13367
# Poissons Ratio (z) = 0.68114 0.30444
#
# Static dielectric constant tensor:
#      x y z
#    x 1.806920 0.000000 -0.054450 
#    y 0.000000 1.845300 0.000000 
#    z -0.054450 0.000000 1.800740 
# 
# From -- ./inp_files/258335.got.cif
#   From: 2010.05.17/outbox.cif.g08.bks.cpg/sg15_130_cif.got.tgz:258335.got - 2010.06.03 18:47:42.
