data_PCOD9270884
_publ_section_title
;
Structure prediction by ZEFSAII (Michael W. Deem and Ramdas Pophale) SiO2 
 PCOD9270884
Probable space group: C 2/C
;
_chemical_formula_sum "Si O2"
_cell_formula_units_Z 52
_cell_length_a 30.220100
_cell_length_b 11.283343
_cell_length_c 8.131116
_cell_angle_alpha 90.000000
_cell_angle_beta 119.387468
_cell_angle_gamma 90.000000
_cell_volume 2415.806285
_symmetry_space_group_name_H-M "C 2/C"
_symmetry_group_IT_number 15
_symmetry_cell_setting 'monoclinic'
loop_
_space_group_symop_operation_xyz
x,y,z
-x,y,1/2-z
-x,-y,-z
x,-y,1/2+z
1/2+x,1/2+y,z
1/2-x,1/2+y,1/2-z
1/2-x,1/2-y,-z
1/2+x,1/2-y,1/2+z
loop_
_atom_site_type_symbol
_atom_site_label
_atom_site_fract_x
_atom_site_fract_y
_atom_site_fract_z
Si Si1 0.631713 0.150170 0.728247
Si Si2 0.317597 0.937634 0.502036
Si Si3 0.000000 0.986922 0.750000
Si Si4 0.699639 0.325843 0.060565
Si Si5 0.432167 0.375216 0.896035
Si Si6 0.669278 0.530500 0.825775
Si Si7 0.750911 0.127941 0.320500
O O1 0.652962 0.135158 0.583354
O O2 0.582742 0.236870 0.626711
O O3 0.664218 0.228612 0.914577
O O4 0.640555 0.020215 0.826399
O O5 0.284961 0.868839 0.581039
O O6 0.277074 0.019771 0.327000
O O7 0.955428 0.072266 0.604809
O O8 0.024280 0.903532 0.656451
O O9 0.674686 0.394446 0.169873
O O10 0.745520 0.249911 0.212748
O O11 0.708173 0.421042 0.933005
O O12 0.383848 0.460999 0.766427
O O13 0.690847 0.609793 0.015115
#
# Coordination Sequence:
#
# PCOD9270884 Si02
#       7
#     8   8   4   8   8   8   8
#     4   9  19  38  61  87 116 157 198 235 292 351
#     4   9  19  36  59  85 121 159 197 233 275 344
#     4  10  22  40  62  88 118 142 186 256 316 358
#     4  10  22  35  54  82 118 160 202 243 281 327
#     4  10  21  39  62  87 113 149 192 246 306 353
#     4  11  21  37  56  83 117 153 204 237 275 353
#     4  10  20  36  54  83 122 161 194 238 284 325
#
# _framework density 21.524902999999998
#
# number of rings (size 3 to 8) (size 9 to 14) (size 15 to 20)
#    0.000    2.154    0.000    3.231    0.000    3.692 
#    0.000   40.769    0.000    2.769    0.000    0.000 
#    0.000    0.000    0.000    0.000    0.000    0.000 
#
# Total GULP energy -144976.933133 kJ/mol
# GULP energy per Si atom -5576.035890 kJ/mol
# Density = 2.147591 g / cm^3
# Si number density = 21.524903 Si / 1000 Ang^3
#
#
#
# Elastic Constant Matrix: (Units=GPa)
#
#
# Indices 1 2 3 4 5 6 
#
# 1 55.3304 29.0371 17.1401 0.0000 -3.7239 0.0000
# 2 29.0371 91.5932 28.9466 0.0000 0.6471 0.0000
# 3 17.1401 28.9466 83.3977 0.0000 8.0893 0.0000
# 4 0.0000 0.0000 0.0000 45.2065 0.0000 -6.6765
# 5 -3.7239 0.6471 8.0893 0.0000 30.4824 0.0000
# 6 0.0000 0.0000 0.0000 -6.6765 0.0000 40.2757
#
#
#
# Elastic Compliance Matrix: (Units=1/GPa)
#
#
# Indices 1 2 3 4 5 6 
#
# 1 0.022471 -0.006266 -0.002794 0.000000 0.003620 0.000000
# 2 -0.006266 0.014034 -0.003572 0.000000 -0.000116 0.000000
# 3 -0.002794 -0.003572 0.014196 0.000000 -0.004033 0.000000
# 4 0.000000 0.000000 0.000000 0.022676 0.000000 0.003759
# 5 0.003620 -0.000116 -0.004033 0.000000 0.034321 0.000000
# 6 0.000000 0.000000 0.000000 0.003759 0.000000 0.025452
#
#
# Mechanical properties :
#
#
# Convention : Reuss Voigt Hill
#
# Bulk Modulus (GPa) = 39.31488 42.28544 40.80016
# Shear Modulus (GPa) = 29.95918 33.53943 31.74930
#
# Velocity S-wave (km/s) = 3.73478 3.95165 3.84474
# Velocity P-wave (km/s) = 6.07475 6.36461 6.22137
#
# Compressibility (1/GPa) = 0.02543566
#
# Stress axis : x y z
#
# Youngs Moduli (GPa) = 44.50181 71.25505 70.44206
#
# Poissons Ratio (x) = 0.44650 0.19685
# Poissons Ratio (y) = 0.27886 0.25162
# Poissons Ratio (z) = 0.12436 0.25453
#
# Static dielectric constant tensor:
#      x y z
#    x 1.790120 0.000000 -0.026310 
#    y 0.000000 1.911480 0.000000 
#    z -0.026310 0.000000 1.895180 
# 
# From -- ./inp_files/69195.got.cif
#   From: 2010.05.17/outbox.cif.g08.bks.cpg/sg15_35_cif.got.tgz:69195.got - 2010.06.03 18:47:42.
