data_PCOD9270709
_publ_section_title
;
Structure prediction by ZEFSAII (Michael W. Deem and Ramdas Pophale) SiO2 
 PCOD9270709
Probable space group: C 2/C
;
_chemical_formula_sum "Si O2"
_cell_formula_units_Z 48
_cell_length_a 17.729923
_cell_length_b 30.906901
_cell_length_c 9.972421
_cell_angle_alpha 90.000000
_cell_angle_beta 150.542583
_cell_angle_gamma 90.000000
_cell_volume 2687.390288
_symmetry_space_group_name_H-M "C 2/C"
_symmetry_group_IT_number 15
_symmetry_cell_setting 'monoclinic'
loop_
_space_group_symop_operation_xyz
x,y,z
-x,y,1/2-z
-x,-y,-z
x,-y,1/2+z
1/2+x,1/2+y,z
1/2-x,1/2+y,1/2-z
1/2-x,1/2-y,-z
1/2+x,1/2-y,1/2+z
loop_
_atom_site_type_symbol
_atom_site_label
_atom_site_fract_x
_atom_site_fract_y
_atom_site_fract_z
Si Si1 0.682243 0.461892 0.047423
Si Si2 0.890941 0.382129 0.450858
Si Si3 0.321519 0.970400 0.967163
Si Si4 0.182477 0.706342 0.553871
Si Si5 0.888141 0.375282 0.962672
Si Si6 0.817548 0.801565 0.965577
O O1 0.500000 0.456572 0.750000
O O2 0.752628 0.471291 0.009494
O O3 0.767170 0.419543 0.237265
O O4 0.726206 0.500235 0.217539
O O5 0.805228 0.335799 0.334218
O O6 0.006534 0.382163 0.504693
O O7 0.000000 0.388479 0.750000
O O8 0.326308 0.921212 0.919879
O O9 0.500000 0.985016 0.250000
O O10 0.231489 0.754731 0.670981
O O11 0.258623 0.697489 0.527813
O O12 0.000000 0.710088 0.250000
O O13 0.757127 0.341321 0.726629
O O14 0.000000 0.357384 0.250000
O O15 0.000000 0.804945 0.250000
#
# Coordination Sequence:
#
# PCOD9270709 Si02
#       6
#     8   8   8   8   8   8
#     4  12  26  42  63  95 128 155 201 265 306 356
#     4  11  21  41  67  88 117 173 209 239 302 378
#     4  11  24  43  65  90 122 167 206 244 304 377
#     4   9  18  36  62  88 118 159 213 240 293 366
#     4  11  22  41  62  91 128 159 204 255 305 366
#     4  10  20  35  62  93 119 156 208 258 292 353
#
# _framework density 17.861194999999999
#
# number of rings (size 3 to 8) (size 9 to 14) (size 15 to 20)
#    0.000    1.333    6.667    1.500    2.333    2.000 
#    0.000    1.667    0.000    0.000    0.000    0.000 
#    0.000    0.000    0.000    0.000    0.000    0.000 
#
# Total GULP energy -133905.749366 kJ/mol
# GULP energy per Si atom -5579.406224 kJ/mol
# Density = 1.782054 g / cm^3
# Si number density = 17.861195 Si / 1000 Ang^3
#
#
#
# Elastic Constant Matrix: (Units=GPa)
#
#
# Indices 1 2 3 4 5 6 
#
# 1 96.3182 3.8023 40.4500 0.0000 4.1459 0.0000
# 2 3.8023 104.6576 56.8538 0.0000 1.2840 0.0000
# 3 40.4500 56.8538 115.3560 0.0000 6.9263 0.0000
# 4 0.0000 0.0000 0.0000 32.8342 0.0000 5.6162
# 5 4.1459 1.2840 6.9263 0.0000 30.7046 0.0000
# 6 0.0000 0.0000 0.0000 5.6162 0.0000 -11.4773
#
#
#
# Elastic Compliance Matrix: (Units=1/GPa)
#
#
# Indices 1 2 3 4 5 6 
#
# 1 0.012709 0.002661 -0.005736 0.000000 -0.000533 0.000000
# 2 0.002661 0.013631 -0.007700 0.000000 0.000808 0.000000
# 3 -0.005736 -0.007700 0.014607 0.000000 -0.002199 0.000000
# 4 0.000000 0.000000 0.000000 0.028104 0.000000 0.013752
# 5 -0.000533 0.000808 -0.002199 0.000000 0.033103 0.000000
# 6 0.000000 0.000000 0.000000 0.013752 0.000000 -0.080399
#
#
# Mechanical properties :
#
#
# Convention : Reuss Voigt Hill
#
# Bulk Modulus (GPa) = 51.55284 57.61600 54.58442
# Shear Modulus (GPa) = 100.46270 24.76067 62.61168
#
# Velocity S-wave (km/s) = 7.50789 3.72732 5.92711
# Velocity P-wave (km/s) = 10.20214 7.13103 8.80157
#
# Compressibility (1/GPa) = 0.01939758
#
# Stress axis : x y z
#
# Youngs Moduli (GPa) = 78.68456 73.36161 68.46086
#
# Poissons Ratio (x) = -0.19519 0.39267
# Poissons Ratio (y) = -0.20935 0.52712
# Poissons Ratio (z) = 0.45131 0.56486
#
# Static dielectric constant tensor:
#      x y z
#    x 1.610160 0.000000 -0.009340 
#    y 0.000000 1.649020 0.000000 
#    z -0.009340 0.000000 1.580490 
# 
# From -- ./inp_files/52893.got.cif
#   From: 2010.05.17/outbox.cif.g08.bks.cpg/sg15_27_cif.got.tgz:52893.got - 2010.06.03 18:47:42.
