data_PCOD9270998
_publ_section_title
;
Structure prediction by ZEFSAII (Michael W. Deem and Ramdas Pophale) SiO2 
 PCOD9270998
Probable space group: C 2/C
;
_chemical_formula_sum "Si O2"
_cell_formula_units_Z 36
_cell_length_a 15.840314
_cell_length_b 7.916278
_cell_length_c 12.936020
_cell_angle_alpha 90.000000
_cell_angle_beta 111.552144
_cell_angle_gamma 90.000000
_cell_volume 1508.716031
_symmetry_space_group_name_H-M "C 2/C"
_symmetry_group_IT_number 15
_symmetry_cell_setting 'monoclinic'
loop_
_space_group_symop_operation_xyz
x,y,z
-x,y,1/2-z
-x,-y,-z
x,-y,1/2+z
1/2+x,1/2+y,z
1/2-x,1/2+y,1/2-z
1/2-x,1/2-y,-z
1/2+x,1/2-y,1/2+z
loop_
_atom_site_type_symbol
_atom_site_label
_atom_site_fract_x
_atom_site_fract_y
_atom_site_fract_z
Si Si1 0.490812 0.297276 0.512749
Si Si2 0.199809 0.885559 0.104177
Si Si3 0.690803 0.236329 0.577923
Si Si4 0.500000 0.639081 0.250000
Si Si5 0.694536 0.426443 0.852665
O O1 0.500000 0.500000 0.500000
O O2 0.391533 0.273392 0.418816
O O3 0.582710 0.214777 0.510668
O O4 0.490107 0.263452 0.636423
O O5 0.282585 0.764808 0.168743
O O6 0.198346 0.081066 0.138359
O O7 0.199645 0.911975 0.979912
O O8 0.750000 0.250000 0.500000
O O9 0.736575 0.072478 0.648682
O O10 0.409089 0.529842 0.218763
#
# Coordination Sequence:
#
# PCOD9270998 Si02
#       5
#     8   8   8   4   8
#     4   9  18  35  57  82 117 154 189 243 289 342
#     4   8  16  32  55  79 109 147 184 230 286 330
#     4   9  17  32  55  81 108 142 191 231 279 339
#     4  10  20  36  56  84 120 154 194 236 298 344
#     4   9  17  32  54  79 110 147 184 231 279 340
#
# _framework density 23.861350000000002
#
# number of rings (size 3 to 8) (size 9 to 14) (size 15 to 20)
#    0.000    3.111    0.000    1.333    0.000    0.889 
#    8.000    1.111    0.000    5.333    0.000    0.000 
#    0.000    0.000    0.000    0.000    0.000    0.000 
#
# Total GULP energy -100316.082158 kJ/mol
# GULP energy per Si atom -5573.115675 kJ/mol
# Density = 2.380704 g / cm^3
# Si number density = 23.861350 Si / 1000 Ang^3
#
#
#
# Elastic Constant Matrix: (Units=GPa)
#
#
# Indices 1 2 3 4 5 6 
#
# 1 143.5994 40.7357 28.2673 0.0000 19.7243 0.0000
# 2 40.7357 102.2440 36.5445 0.0000 31.9863 0.0000
# 3 28.2673 36.5445 57.2920 0.0000 3.5359 0.0000
# 4 0.0000 0.0000 0.0000 31.0739 0.0000 3.4906
# 5 19.7243 31.9863 3.5359 0.0000 53.8447 0.0000
# 6 0.0000 0.0000 0.0000 3.4906 0.0000 36.5718
#
#
#
# Elastic Compliance Matrix: (Units=1/GPa)
#
#
# Indices 1 2 3 4 5 6 
#
# 1 0.008263 -0.001685 -0.002888 0.000000 -0.001836 0.000000
# 2 -0.001685 0.016356 -0.009077 0.000000 -0.008503 0.000000
# 3 -0.002888 -0.009077 0.024370 0.000000 0.004850 0.000000
# 4 0.000000 0.000000 0.000000 0.032530 0.000000 -0.003105
# 5 -0.001836 -0.008503 0.004850 0.000000 0.023977 0.000000
# 6 0.000000 0.000000 0.000000 -0.003105 0.000000 0.027640
#
#
# Mechanical properties :
#
#
# Convention : Reuss Voigt Hill
#
# Bulk Modulus (GPa) = 46.10848 57.13672 51.62260
# Shear Modulus (GPa) = 29.82103 37.47058 33.64581
#
# Velocity S-wave (km/s) = 3.53903 3.96706 3.75914
# Velocity P-wave (km/s) = 6.00543 6.70676 6.36576
#
# Compressibility (1/GPa) = 0.02168799
#
# Stress axis : x y z
#
# Youngs Moduli (GPa) = 121.02669 61.13819 41.03386
#
# Poissons Ratio (x) = 0.10303 0.11853
# Poissons Ratio (y) = 0.20395 0.37246
# Poissons Ratio (z) = 0.34958 0.55495
#
# Static dielectric constant tensor:
#      x y z
#    x 1.994660 0.000000 -0.076270 
#    y 0.000000 1.885540 0.000000 
#    z -0.076270 0.000000 2.064620 
# 
# From -- ./inp_files/208212.got.cif
#   From: 2010.05.17/outbox.cif.g08.bks.cpg/sg15_105_cif.got.tgz:208212.got - 2010.06.03 18:47:42.
