data_PCOD9270075
_publ_section_title
;
Structure prediction by ZEFSAII (Michael W. Deem and Ramdas Pophale) SiO2 
 PCOD9270075
Probable space group: C 2/C
;
_chemical_formula_sum "Si O2"
_cell_formula_units_Z 40
_cell_length_a 20.194333
_cell_length_b 18.998888
_cell_length_c 4.957383
_cell_angle_alpha 90.000000
_cell_angle_beta 117.227386
_cell_angle_gamma 90.000000
_cell_volume 1691.252859
_symmetry_space_group_name_H-M "C 2/C"
_symmetry_group_IT_number 15
_symmetry_cell_setting 'monoclinic'
loop_
_space_group_symop_operation_xyz
x,y,z
-x,y,1/2-z
-x,-y,-z
x,-y,1/2+z
1/2+x,1/2+y,z
1/2-x,1/2+y,1/2-z
1/2-x,1/2-y,-z
1/2+x,1/2-y,1/2+z
loop_
_atom_site_type_symbol
_atom_site_label
_atom_site_fract_x
_atom_site_fract_y
_atom_site_fract_z
Si Si1 0.727180 0.821760 0.305178
Si Si2 0.912018 0.960548 0.912325
Si Si3 0.893162 0.170897 0.011920
Si Si4 0.579584 0.238202 0.427426
Si Si5 0.732074 0.041857 0.141191
O O1 0.750000 0.750000 0.500000
O O2 0.804512 0.842727 0.303652
O O3 0.708485 0.883244 0.480762
O O4 0.654493 0.804217 0.995407
O O5 0.924659 0.893239 0.747736
O O6 0.822038 0.958668 0.785803
O O7 0.935114 0.026438 0.763903
O O8 0.923553 0.194637 0.780217
O O9 0.907953 0.235807 0.243708
O O10 0.500000 0.201476 0.250000
O O11 0.707732 0.979789 0.892208
#
# Coordination Sequence:
#
# PCOD9270075 Si02
#       5
#     8   8   8   8   8
#     4   9  20  36  59  86 110 142 188 229 266 321
#     4   9  16  28  49  75 101 133 173 216 261 314
#     4  10  20  35  55  79 107 138 178 224 270 321
#     4  11  22  36  54  77 108 141 176 226 279 320
#     4   9  18  31  50  79 112 139 170 220 275 319
#
# _framework density 23.651108000000001
#
# number of rings (size 3 to 8) (size 9 to 14) (size 15 to 20)
#    0.000    2.400    0.000    2.400    0.000   12.800 
#    0.000    0.000    0.000   13.200    0.000    0.000 
#    0.000    0.000    0.000    0.000    0.000    0.000 
#
# Total GULP energy -111751.098556 kJ/mol
# GULP energy per Si atom -5587.554928 kJ/mol
# Density = 2.359728 g / cm^3
# Si number density = 23.651108 Si / 1000 Ang^3
#
#
#
# Elastic Constant Matrix: (Units=GPa)
#
#
# Indices 1 2 3 4 5 6 
#
# 1 78.3941 0.5049 47.9870 0.0000 21.7248 0.0000
# 2 0.5049 78.0031 25.1462 0.0000 6.9943 0.0000
# 3 47.9870 25.1462 130.7955 0.0000 2.1306 0.0000
# 4 0.0000 0.0000 0.0000 30.2160 0.0000 -3.2365
# 5 21.7248 6.9943 2.1306 0.0000 51.5876 0.0000
# 6 0.0000 0.0000 0.0000 -3.2365 0.0000 15.7224
#
#
#
# Elastic Compliance Matrix: (Units=1/GPa)
#
#
# Indices 1 2 3 4 5 6 
#
# 1 0.019808 0.003121 -0.007730 0.000000 -0.008445 0.000000
# 2 0.003121 0.014318 -0.003847 0.000000 -0.003097 0.000000
# 3 -0.007730 -0.003847 0.011167 0.000000 0.003316 0.000000
# 4 0.000000 0.000000 0.000000 0.033841 0.000000 0.006966
# 5 -0.008445 -0.003097 0.003316 0.000000 0.023224 0.000000
# 6 0.000000 0.000000 0.000000 0.006966 0.000000 0.065038
#
#
# Mechanical properties :
#
#
# Convention : Reuss Voigt Hill
#
# Bulk Modulus (GPa) = 35.23518 48.27430 41.75474
# Shear Modulus (GPa) = 25.80408 33.74218 29.77313
#
# Velocity S-wave (km/s) = 3.30666 3.78122 3.55187
# Velocity P-wave (km/s) = 5.43221 6.28640 5.87485
#
# Compressibility (1/GPa) = 0.02838073
#
# Stress axis : x y z
#
# Youngs Moduli (GPa) = 50.48487 69.84357 89.54902
#
# Poissons Ratio (x) = -0.21798 0.69218
# Poissons Ratio (y) = -0.15756 0.34452
# Poissons Ratio (z) = 0.39023 0.26870
#
# Static dielectric constant tensor:
#      x y z
#    x 1.993480 0.000000 0.061360 
#    y 0.000000 1.968200 0.000000 
#    z 0.061360 0.000000 1.910830 
# 
# From -- ./inp_files/9805.got.cif
#   From: 2010.05.17/outbox.cif.g08.bks.cpg/sg15_5_cif.got.tgz:9805.got - 2010.06.03 18:47:42.
