data_PCOD9270965
_publ_section_title
;
Structure prediction by ZEFSAII (Michael W. Deem and Ramdas Pophale) SiO2 
 PCOD9270965
Probable space group: C 2/C
;
_chemical_formula_sum "Si O2"
_cell_formula_units_Z 48
_cell_length_a 21.914274
_cell_length_b 8.969242
_cell_length_c 11.432272
_cell_angle_alpha 90.000000
_cell_angle_beta 109.001404
_cell_angle_gamma 90.000000
_cell_volume 2124.622513
_symmetry_space_group_name_H-M "C 2/C"
_symmetry_group_IT_number 15
_symmetry_cell_setting 'monoclinic'
loop_
_space_group_symop_operation_xyz
x,y,z
-x,y,1/2-z
-x,-y,-z
x,-y,1/2+z
1/2+x,1/2+y,z
1/2-x,1/2+y,1/2-z
1/2-x,1/2-y,-z
1/2+x,1/2-y,1/2+z
loop_
_atom_site_type_symbol
_atom_site_label
_atom_site_fract_x
_atom_site_fract_y
_atom_site_fract_z
Si Si1 0.096449 0.096784 0.254918
Si Si2 0.898628 0.501868 0.102480
Si Si3 0.033407 0.772313 0.931978
Si Si4 0.703515 0.196318 0.810522
Si Si5 0.300603 0.061752 0.349826
Si Si6 0.903907 0.246020 0.781297
O O1 0.087600 0.145175 0.385898
O O2 0.153083 0.185079 0.225616
O O3 0.031835 0.148371 0.147630
O O4 0.106822 0.922213 0.262720
O O5 0.959011 0.397603 0.107137
O O6 0.846654 0.404921 0.145895
O O7 0.921283 0.647650 0.184064
O O8 0.855234 0.522023 0.960072
O O9 0.047849 0.767498 0.077936
O O10 0.755288 0.318992 0.888758
O O11 0.733187 0.071631 0.742926
O O12 0.340466 0.172530 0.291316
#
# Coordination Sequence:
#
# PCOD9270965 Si02
#       6
#     8   8   8   8   8   8
#     4  10  20  37  57  85 118 154 190 236 292 346
#     4   9  20  38  59  84 114 152 197 242 290 342
#     4   9  20  39  58  83 120 152 189 240 291 343
#     4  10  20  36  56  80 115 153 191 240 293 343
#     4  10  20  37  58  85 115 150 196 243 290 345
#     4  10  20  37  61  88 114 152 198 238 289 348
#
# _framework density 22.592248000000001
#
# number of rings (size 3 to 8) (size 9 to 14) (size 15 to 20)
#    0.000    2.333    0.000    2.000    0.000    1.333 
#    0.000   41.667    0.000    0.000    0.000    0.000 
#    0.000    0.000    0.000    0.000    0.000    0.000 
#
# Total GULP energy -133645.023526 kJ/mol
# GULP energy per Si atom -5568.542647 kJ/mol
# Density = 2.254083 g / cm^3
# Si number density = 22.592248 Si / 1000 Ang^3
#
#
#
# Elastic Constant Matrix: (Units=GPa)
#
#
# Indices 1 2 3 4 5 6 
#
# 1 46.8808 35.7684 2.0709 0.0000 4.1867 0.0000
# 2 35.7684 171.6995 64.1489 0.0000 0.0806 0.0000
# 3 2.0709 64.1489 48.9448 0.0000 3.3053 0.0000
# 4 0.0000 0.0000 0.0000 -53.4626 0.0000 -1.3536
# 5 4.1867 0.0806 3.3053 0.0000 18.5766 0.0000
# 6 0.0000 0.0000 0.0000 -1.3536 0.0000 -0.0905
#
#
#
# Elastic Compliance Matrix: (Units=1/GPa)
#
#
# Indices 1 2 3 4 5 6 
#
# 1 0.030708 -0.012048 0.015137 0.000000 -0.009562 0.000000
# 2 -0.012048 0.016269 -0.021247 0.000000 0.006425 0.000000
# 3 0.015137 -0.021247 0.048444 0.000000 -0.011939 0.000000
# 4 0.000000 0.000000 0.000000 -0.030105 0.000000 0.450253
# 5 -0.009562 0.006425 -0.011939 0.000000 0.058083 0.000000
# 6 0.000000 0.000000 0.000000 0.450253 0.000000-17.783120
#
#
# Mechanical properties :
#
#
# Convention : Reuss Voigt Hill
#
# Bulk Modulus (GPa) = 16.91893 52.38904 34.65399
# Shear Modulus (GPa) = -0.28403 4.04050 1.87823
#
# Velocity S-wave (km/s) = -0.35496 1.33878 0.91278
# Velocity P-wave (km/s) = 2.70871 5.06251 4.05994
#
# Compressibility (1/GPa) = 0.05910538
#
# Stress axis : x y z
#
# Youngs Moduli (GPa) = 32.56463 61.46636 20.64234
#
# Poissons Ratio (x) = 0.74055 -0.31246
# Poissons Ratio (y) = 0.39234 0.43859
# Poissons Ratio (z) = -0.49293 1.30598
#
# Static dielectric constant tensor:
#      x y z
#    x 1.930610 0.000000 -0.032670 
#    y 0.000000 1.821370 0.000000 
#    z -0.032670 0.000000 1.908850 
# 
# From -- ./inp_files/116778.got.cif
#   From: 2010.05.17/outbox.cif.g08.bks.cpg/sg15_59_cif.got.tgz:116778.got - 2010.06.03 18:47:42.
