data_PCOD9270795
_publ_section_title
;
Structure prediction by ZEFSAII (Michael W. Deem and Ramdas Pophale) SiO2 
 PCOD9270795
Probable space group: C 2/C
;
_chemical_formula_sum "Si O2"
_cell_formula_units_Z 48
_cell_length_a 8.539330
_cell_length_b 24.276989
_cell_length_c 13.309041
_cell_angle_alpha 90.000000
_cell_angle_beta 126.892469
_cell_angle_gamma 90.000000
_cell_volume 2206.617205
_symmetry_space_group_name_H-M "C 2/C"
_symmetry_group_IT_number 15
_symmetry_cell_setting 'monoclinic'
loop_
_space_group_symop_operation_xyz
x,y,z
-x,y,1/2-z
-x,-y,-z
x,-y,1/2+z
1/2+x,1/2+y,z
1/2-x,1/2+y,1/2-z
1/2-x,1/2-y,-z
1/2+x,1/2-y,1/2+z
loop_
_atom_site_type_symbol
_atom_site_label
_atom_site_fract_x
_atom_site_fract_y
_atom_site_fract_z
Si Si1 0.674075 0.466034 0.758826
Si Si2 0.834827 0.984577 0.038348
Si Si3 0.045472 0.394948 0.935844
Si Si4 0.537422 0.232763 0.380210
Si Si5 0.395041 0.905944 0.102667
Si Si6 0.287738 0.787919 0.111481
O O1 0.500000 0.431754 0.750000
O O2 0.563237 0.496271 0.624985
O O3 0.866830 0.431039 0.820533
O O4 0.710272 0.512037 0.857573
O O5 0.744959 0.925616 0.977067
O O6 0.712379 0.036527 0.954194
O O7 0.022560 0.332505 0.893859
O O8 0.015936 0.395754 0.046012
O O9 0.500000 0.243400 0.250000
O O10 0.750000 0.250000 0.500000
O O11 0.376232 0.268134 0.375548
O O12 0.500000 0.910808 0.250000
O O13 0.265744 0.851069 0.067356
O O14 0.500000 0.782680 0.250000
O O15 0.250000 0.750000 0.000000
#
# Coordination Sequence:
#
# PCOD9270795 Si02
#       6
#     8   8   8   8   8   8
#     4   7  16  31  60  99 123 172 229 270 338 416
#     4   8  18  35  60  97 132 166 219 291 356 406
#     4  11  20  42  69  93 145 187 228 292 367 425
#     4  12  29  49  68 105 151 192 237 305 382 422
#     4  10  20  35  66 102 125 176 241 296 330 414
#     4  11  23  44  73  99 132 191 253 297 338 430
#
# _framework density 21.752753999999999
#
# number of rings (size 3 to 8) (size 9 to 14) (size 15 to 20)
#    1.000    1.000    1.667    3.000    2.333    4.000 
#    3.000    3.333    0.000   18.000    0.000    0.000 
#    0.000    0.000    0.000    0.000    0.000    0.000 
#
# Total GULP energy -133785.996130 kJ/mol
# GULP energy per Si atom -5574.416505 kJ/mol
# Density = 2.170324 g / cm^3
# Si number density = 21.752754 Si / 1000 Ang^3
#
#
#
# Elastic Constant Matrix: (Units=GPa)
#
#
# Indices 1 2 3 4 5 6 
#
# 1 111.2844 44.8235 38.6550 0.0000 3.8803 0.0000
# 2 44.8235 105.3747 24.3147 0.0000 -0.6983 0.0000
# 3 38.6550 24.3147 136.0505 0.0000 -10.5563 0.0000
# 4 0.0000 0.0000 0.0000 8.3347 0.0000 -11.7448
# 5 3.8803 -0.6983 -10.5563 0.0000 35.7741 0.0000
# 6 0.0000 0.0000 0.0000 -11.7448 0.0000 27.1292
#
#
#
# Elastic Compliance Matrix: (Units=1/GPa)
#
#
# Indices 1 2 3 4 5 6 
#
# 1 0.011780 -0.004395 -0.002730 0.000000 -0.002169 0.000000
# 2 -0.004395 0.011542 -0.000777 0.000000 0.000473 0.000000
# 3 -0.002730 -0.000777 0.008481 0.000000 0.002783 0.000000
# 4 0.000000 0.000000 0.000000 0.307679 0.000000 0.133200
# 5 -0.002169 0.000473 0.002783 0.000000 0.029019 0.000000
# 6 0.000000 0.000000 0.000000 0.133200 0.000000 0.094526
#
#
# Mechanical properties :
#
#
# Convention : Reuss Voigt Hill
#
# Bulk Modulus (GPa) = 62.50770 63.14400 62.82585
# Shear Modulus (GPa) = 10.32706 30.57536 20.45121
#
# Velocity S-wave (km/s) = 2.18123 3.75318 3.06954
# Velocity P-wave (km/s) = 5.92804 6.91902 6.44261
#
# Compressibility (1/GPa) = 0.01599803
#
# Stress axis : x y z
#
# Youngs Moduli (GPa) = 84.88788 86.63899 117.91509
#
# Poissons Ratio (x) = 0.38082 0.32188
# Poissons Ratio (y) = 0.37312 0.09165
# Poissons Ratio (z) = 0.23173 0.06734
#
# Static dielectric constant tensor:
#      x y z
#    x 1.885270 0.000000 -0.014580 
#    y 0.000000 1.759890 0.000000 
#    z -0.014580 0.000000 1.870490 
# 
# From -- ./inp_files/79896.got.cif
#   From: 2010.05.17/outbox.cif.g08.bks.cpg/sg15_40_cif.got.tgz:79896.got - 2010.06.03 18:47:42.
