data_PCOD9270663
_publ_section_title
;
Structure prediction by ZEFSAII (Michael W. Deem and Ramdas Pophale) SiO2 
 PCOD9270663
Probable space group: C 2/C
;
_chemical_formula_sum "Si O2"
_cell_formula_units_Z 56
_cell_length_a 14.425510
_cell_length_b 14.071148
_cell_length_c 15.885415
_cell_angle_alpha 90.000000
_cell_angle_beta 129.432952
_cell_angle_gamma 90.000000
_cell_volume 2490.484073
_symmetry_space_group_name_H-M "C 2/C"
_symmetry_group_IT_number 15
_symmetry_cell_setting 'monoclinic'
loop_
_space_group_symop_operation_xyz
x,y,z
-x,y,1/2-z
-x,-y,-z
x,-y,1/2+z
1/2+x,1/2+y,z
1/2-x,1/2+y,1/2-z
1/2-x,1/2-y,-z
1/2+x,1/2-y,1/2+z
loop_
_atom_site_type_symbol
_atom_site_label
_atom_site_fract_x
_atom_site_fract_y
_atom_site_fract_z
Si Si1 0.802921 0.127960 0.267507
Si Si2 0.634594 0.294566 0.116134
Si Si3 0.000000 0.544753 0.250000
Si Si4 0.935176 0.327162 0.074011
Si Si5 0.070073 0.080216 0.988235
Si Si6 0.000000 0.179911 0.250000
Si Si7 0.424745 0.993387 0.870597
Si Si8 0.755890 0.441873 0.056033
O O1 0.731348 0.227011 0.214975
O O2 0.851651 0.125908 0.391092
O O3 0.909972 0.125472 0.260583
O O4 0.711334 0.040356 0.199437
O O5 0.699946 0.369461 0.091392
O O6 0.561194 0.225240 0.011607
O O7 0.532289 0.351583 0.107638
O O8 0.021184 0.581679 0.167133
O O9 0.126532 0.490950 0.336778
O O10 0.932576 0.250906 0.146990
O O11 0.810780 0.384848 0.009728
O O12 0.044356 0.401009 0.146802
O O13 0.159362 0.022676 0.979469
O O14 0.000000 0.000000 0.000000
O O15 0.500000 0.000000 0.000000
#
# Coordination Sequence:
#
# PCOD9270663 Si02
#       8
#     8   8   4   8   8   4   8   8
#     4  12  24  39  61  97 143 173 224 290 347 417
#     4  11  22  36  62  96 132 169 222 288 345 394
#     4  10  21  36  66  90 127 188 230 267 350 418
#     4  11  21  37  61  98 131 168 231 281 343 407
#     4  10  23  41  59  91 136 183 220 265 359 426
#     4  12  25  36  66 106 133 176 224 301 360 402
#     4  11  23  40  61 103 137 182 230 287 348 424
#     4  10  20  35  61  93 132 176 219 274 339 424
#
# _framework density 22.485588
#
# number of rings (size 3 to 8) (size 9 to 14) (size 15 to 20)
#    0.000    1.143    5.714    2.143    0.000    0.000 
#    0.000    0.000    0.000    3.429    0.000    5.000 
#    0.000    0.000    0.000    0.000    0.000    0.000 
#
# Total GULP energy -156162.330243 kJ/mol
# GULP energy per Si atom -5577.226080 kJ/mol
# Density = 2.243441 g / cm^3
# Si number density = 22.485588 Si / 1000 Ang^3
#
#
#
# Elastic Constant Matrix: (Units=GPa)
#
#
# Indices 1 2 3 4 5 6 
#
# 1 119.3300 49.0297 12.9709 0.0000 22.7060 0.0000
# 2 49.0297 64.9513 4.7396 0.0000 27.4059 0.0000
# 3 12.9709 4.7396 47.5393 0.0000 5.1286 0.0000
# 4 0.0000 0.0000 0.0000 29.3100 0.0000 23.6906
# 5 22.7060 27.4059 5.1286 0.0000 40.5778 0.0000
# 6 0.0000 0.0000 0.0000 23.6906 0.0000 46.6772
#
#
#
# Elastic Compliance Matrix: (Units=1/GPa)
#
#
# Indices 1 2 3 4 5 6 
#
# 1 0.012441 -0.008959 -0.002436 0.000000 -0.000603 0.000000
# 2 -0.008959 0.028000 0.001168 0.000000 -0.014046 0.000000
# 3 -0.002436 0.001168 0.021819 0.000000 -0.002183 0.000000
# 4 0.000000 0.000000 0.000000 0.057850 0.000000 -0.029361
# 5 -0.000603 -0.014046 -0.002183 0.000000 0.034744 0.000000
# 6 0.000000 0.000000 0.000000 -0.029361 0.000000 0.036326
#
#
# Mechanical properties :
#
#
# Convention : Reuss Voigt Hill
#
# Bulk Modulus (GPa) = 23.92012 40.58900 32.25456
# Shear Modulus (GPa) = 22.16623 34.31837 28.24230
#
# Velocity S-wave (km/s) = 3.14315 3.91095 3.54788
# Velocity P-wave (km/s) = 4.88196 6.20357 5.58202
#
# Compressibility (1/GPa) = 0.04180582
#
# Stress axis : x y z
#
# Youngs Moduli (GPa) = 80.38180 35.71391 45.83159
#
# Poissons Ratio (x) = 0.31996 0.11165
# Poissons Ratio (y) = 0.72014 -0.05354
# Poissons Ratio (z) = 0.19582 -0.04172
#
# Static dielectric constant tensor:
#      x y z
#    x 1.951830 0.000000 -0.054260 
#    y 0.000000 1.920540 0.000000 
#    z -0.054260 0.000000 1.929120 
# 
# From -- ./inp_files/205519.got.cif
#   From: 2010.05.17/outbox.cif.g08.bks.cpg/sg15_103_cif.got.tgz:205519.got - 2010.06.03 18:47:42.
