data_PCOD9270845
_publ_section_title
;
Structure prediction by ZEFSAII (Michael W. Deem and Ramdas Pophale) SiO2 
 PCOD9270845
Probable space group: C 2/C
;
_chemical_formula_sum "Si O2"
_cell_formula_units_Z 56
_cell_length_a 31.494424
_cell_length_b 15.045141
_cell_length_c 9.286284
_cell_angle_alpha 90.000000
_cell_angle_beta 40.128179
_cell_angle_gamma 90.000000
_cell_volume 2835.924396
_symmetry_space_group_name_H-M "C 2/C"
_symmetry_group_IT_number 15
_symmetry_cell_setting 'monoclinic'
loop_
_space_group_symop_operation_xyz
x,y,z
-x,y,1/2-z
-x,-y,-z
x,-y,1/2+z
1/2+x,1/2+y,z
1/2-x,1/2+y,1/2-z
1/2-x,1/2-y,-z
1/2+x,1/2-y,1/2+z
loop_
_atom_site_type_symbol
_atom_site_label
_atom_site_fract_x
_atom_site_fract_y
_atom_site_fract_z
Si Si1 0.529313 0.360892 0.018042
Si Si2 0.706706 0.995458 0.331420
Si Si3 0.060200 0.054870 0.982084
Si Si4 0.172951 0.184464 0.772910
Si Si5 0.320619 0.874123 0.836054
Si Si6 0.345493 0.259940 0.855583
Si Si7 0.252736 0.386964 0.945342
O O1 0.500000 0.342494 0.250000
O O2 0.572401 0.452671 0.907275
O O3 0.468664 0.387226 0.073631
O O4 0.577486 0.282190 0.844844
O O5 0.665145 0.064539 0.340512
O O6 0.758753 0.048968 0.294463
O O7 0.669933 0.931045 0.541851
O O8 0.744707 0.939494 0.113555
O O9 0.000000 0.049845 0.250000
O O10 0.120938 0.106050 0.891488
O O11 0.242450 0.149458 0.533656
O O12 0.149421 0.275332 0.754284
O O13 0.181001 0.211368 0.918962
O O14 0.317126 0.162518 0.900656
O O15 0.310433 0.317013 0.820166
#
# Coordination Sequence:
#
# PCOD9270845 Si02
#       7
#     8   8   8   8   8   8   8
#     4  10  23  38  55  87 115 152 197 232 277 342
#     4  10  20  36  52  82 119 145 188 226 290 359
#     4  10  21  38  57  81 117 156 195 228 277 343
#     4  11  21  36  58  84 118 151 197 241 276 351
#     4  10  22  35  55  87 114 150 194 228 297 342
#     4  11  21  37  57  83 121 147 195 246 282 341
#     4  10  22  35  57  86 115 153 187 236 300 340
#
# _framework density 19.746648
#
# number of rings (size 3 to 8) (size 9 to 14) (size 15 to 20)
#    0.000    1.714    4.286    0.000    4.000    2.286 
#    0.000    0.000    0.000    0.000    0.000   20.000 
#    0.000    0.000    0.000    0.000    0.000    0.000 
#
# Total GULP energy -156195.888209 kJ/mol
# GULP energy per Si atom -5578.424579 kJ/mol
# Density = 1.970170 g / cm^3
# Si number density = 19.746648 Si / 1000 Ang^3
#
#
#
# Elastic Constant Matrix: (Units=GPa)
#
#
# Indices 1 2 3 4 5 6 
#
# 1 37.2937 24.3310 25.3034 0.0000 22.4424 0.0000
# 2 24.3310 76.4959 13.3086 0.0000 1.2184 0.0000
# 3 25.3034 13.3086 39.9769 0.0000 16.4677 0.0000
# 4 0.0000 0.0000 0.0000 20.7021 0.0000 7.0594
# 5 22.4424 1.2184 16.4677 0.0000 34.9324 0.0000
# 6 0.0000 0.0000 0.0000 7.0594 0.0000 37.0938
#
#
#
# Elastic Compliance Matrix: (Units=1/GPa)
#
#
# Indices 1 2 3 4 5 6 
#
# 1 0.085140 -0.021134 -0.030560 0.000000 -0.039554 0.000000
# 2 -0.021134 0.019248 0.002051 0.000000 0.011939 0.000000
# 3 -0.030560 0.002051 0.044200 0.000000 -0.001275 0.000000
# 4 0.000000 0.000000 0.000000 0.051657 0.000000 -0.009831
# 5 -0.039554 0.011939 -0.001275 0.000000 0.054223 0.000000
# 6 0.000000 0.000000 0.000000 -0.009831 0.000000 0.028830
#
#
# Mechanical properties :
#
#
# Convention : Reuss Voigt Hill
#
# Bulk Modulus (GPa) = 20.28342 31.07251 25.67797
# Shear Modulus (GPa) = 12.53084 24.60055 18.56569
#
# Velocity S-wave (km/s) = 2.52182 3.53343 3.06959
# Velocity P-wave (km/s) = 4.33285 5.69356 5.05916
#
# Compressibility (1/GPa) = 0.04930136
#
# Stress axis : x y z
#
# Youngs Moduli (GPa) = 11.74542 51.95455 22.62455
#
# Poissons Ratio (x) = 1.09798 0.69141
# Poissons Ratio (y) = 0.24822 -0.04640
# Poissons Ratio (z) = 0.35894 -0.10654
#
# Static dielectric constant tensor:
#      x y z
#    x 1.714060 0.000000 0.043700 
#    y 0.000000 1.765450 0.000000 
#    z 0.043700 0.000000 1.683610 
# 
# From -- ./inp_files/66292.got.cif
#   From: 2010.05.17/outbox.cif.g08.bks.cpg/sg15_34_cif.got.tgz:66292.got - 2010.06.03 18:47:42.
