data_PCOD9270021
_publ_section_title
;
Structure prediction by ZEFSAII (Michael W. Deem and Ramdas Pophale) SiO2 
 PCOD9270021
Probable space group: C 2/C
;
_chemical_formula_sum "Si O2"
_cell_formula_units_Z 32
_cell_length_a 23.596350
_cell_length_b 6.992997
_cell_length_c 19.807020
_cell_angle_alpha 90.000000
_cell_angle_beta 160.019319
_cell_angle_gamma 90.000000
_cell_volume 1116.802704
_symmetry_space_group_name_H-M "C 2/C"
_symmetry_group_IT_number 15
_symmetry_cell_setting 'monoclinic'
loop_
_space_group_symop_operation_xyz
x,y,z
-x,y,1/2-z
-x,-y,-z
x,-y,1/2+z
1/2+x,1/2+y,z
1/2-x,1/2+y,1/2-z
1/2-x,1/2-y,-z
1/2+x,1/2-y,1/2+z
loop_
_atom_site_type_symbol
_atom_site_label
_atom_site_fract_x
_atom_site_fract_y
_atom_site_fract_z
Si Si1 0.305282 0.050892 0.009600
Si Si2 0.415716 0.045078 0.494888
Si Si3 0.391023 0.604537 0.434387
Si Si4 0.730689 0.505513 0.066588
O O1 0.500000 0.070934 0.250000
O O2 0.203434 0.957903 0.957294
O O3 0.316824 0.934024 0.954039
O O4 0.245127 0.262805 0.920150
O O5 0.434981 0.821359 0.498472
O O6 0.603687 0.096716 0.721189
O O7 0.297483 0.120745 0.304286
O O8 0.500000 0.500000 0.500000
O O9 0.393614 0.497414 0.509582
#
# Coordination Sequence:
#
# PCOD9270021 Si02
#       4
#     8   8   8   8
#     4   8  15  29  51  77 101 130 178 228 263 300
#     4  10  20  35  54  79 109 141 178 222 270 318
#     4  11  21  33  51  79 112 144 179 219 267 322
#     4   9  17  31  52  77 105 136 175 222 266 307
#
# _framework density 28.653224999999999
#
# number of rings (size 3 to 8) (size 9 to 14) (size 15 to 20)
#    0.000    2.500    0.000    3.750    0.000    2.000 
#    0.000    0.000    0.000    1.500    0.000   52.500 
#    0.000    0.000    0.000    0.000    0.000    0.000 
#
# Total GULP energy -89620.737845 kJ/mol
# GULP energy per Si atom -5601.296115 kJ/mol
# Density = 2.858801 g / cm^3
# Si number density = 28.653225 Si / 1000 Ang^3
#
#
#
# Elastic Constant Matrix: (Units=GPa)
#
#
# Indices 1 2 3 4 5 6 
#
# 1 305.5759 36.4485 43.0670 0.0000 -3.5924 0.0000
# 2 36.4485 105.9349 46.9402 0.0000 6.9690 0.0000
# 3 43.0670 46.9402 154.6638 0.0000 -25.4205 0.0001
# 4 0.0000 0.0000 0.0000 37.6825 0.0001 9.5048
# 5 -3.5924 6.9690 -25.4205 0.0001 36.8763 0.0000
# 6 0.0000 0.0000 0.0001 9.5048 0.0000 30.4918
#
#
#
# Elastic Compliance Matrix: (Units=1/GPa)
#
#
# Indices 1 2 3 4 5 6 
#
# 1 0.003477 -0.000891 -0.000693 0.000000 0.000030 0.000000
# 2 -0.000891 0.011980 -0.004256 0.000000 -0.005285 0.000000
# 3 -0.000693 -0.004256 0.009103 0.000000 0.007012 0.000000
# 4 0.000000 0.000000 0.000000 0.028802 0.000000 -0.008978
# 5 0.000030 -0.005285 0.007012 0.000000 0.032953 0.000000
# 6 0.000000 0.000000 0.000000 -0.008978 0.000000 0.035594
#
#
# Mechanical properties :
#
#
# Convention : Reuss Voigt Hill
#
# Bulk Modulus (GPa) = 77.64639 91.00954 84.32797
# Shear Modulus (GPa) = 36.26264 50.32470 43.29367
#
# Velocity S-wave (km/s) = 3.56134 4.19541 3.89131
# Velocity P-wave (km/s) = 6.63840 7.43640 7.04870
#
# Compressibility (1/GPa) = 0.01287890
#
# Stress axis : x y z
#
# Youngs Moduli (GPa) = 287.62082 83.47175 109.85585
#
# Poissons Ratio (x) = 0.07439 0.07611
# Poissons Ratio (y) = 0.25633 0.46759
# Poissons Ratio (z) = 0.19926 0.35529
#
# Static dielectric constant tensor:
#      x y z
#    x 2.295300 0.000000 0.035560 
#    y 0.000000 2.268070 0.000000 
#    z 0.035560 0.000000 2.141130 
# 
# From -- ./inp_files/247195.got.cif
#   From: 2010.05.17/outbox.cif.g08.bks.cpg/sg15_124_cif.got.tgz:247195.got - 2010.06.03 18:47:42.
