data_PCOD9270576
_publ_section_title
;
Structure prediction by ZEFSAII (Michael W. Deem and Ramdas Pophale) SiO2 
 PCOD9270576
Probable space group: C 2/C
;
_chemical_formula_sum "Si O2"
_cell_formula_units_Z 48
_cell_length_a 13.369528
_cell_length_b 36.095210
_cell_length_c 5.174533
_cell_angle_alpha 90.000000
_cell_angle_beta 63.359867
_cell_angle_gamma 90.000000
_cell_volume 2232.013315
_symmetry_space_group_name_H-M "C 2/C"
_symmetry_group_IT_number 15
_symmetry_cell_setting 'monoclinic'
loop_
_space_group_symop_operation_xyz
x,y,z
-x,y,1/2-z
-x,-y,-z
x,-y,1/2+z
1/2+x,1/2+y,z
1/2-x,1/2+y,1/2-z
1/2-x,1/2-y,-z
1/2+x,1/2-y,1/2+z
loop_
_atom_site_type_symbol
_atom_site_label
_atom_site_fract_x
_atom_site_fract_y
_atom_site_fract_z
Si Si1 0.625669 0.892529 0.024193
Si Si2 0.721764 0.594421 0.654487
Si Si3 0.432234 0.752015 0.587219
Si Si4 0.289634 0.186324 0.035522
Si Si5 0.873016 0.984026 0.174796
Si Si6 0.334661 0.324722 0.331238
O O1 0.500000 0.904511 0.250000
O O2 0.707390 0.903976 0.163454
O O3 0.687694 0.904946 0.686585
O O4 0.625963 0.847419 0.006598
O O5 0.642879 0.558563 0.736032
O O6 0.647943 0.631963 0.739919
O O7 0.500000 0.768165 0.750000
O O8 0.323744 0.775449 0.634269
O O9 0.413072 0.709006 0.665014
O O10 0.500000 0.756016 0.250000
O O11 0.183978 0.176414 0.338446
O O12 0.266496 0.185259 0.756547
O O13 0.818527 0.008075 0.463022
O O14 0.000000 0.000000 0.000000
#
# Coordination Sequence:
#
# PCOD9270576 Si02
#       6
#     8   8   8   8   8   8
#     4  10  20  35  60  91 118 156 198 246 304 348
#     4  10  21  38  61  87 122 153 195 253 295 365
#     4  12  23  35  51  81 115 152 199 252 298 348
#     4  10  20  36  58  76 111 156 206 243 285 357
#     4  10  21  40  64  93 115 153 201 235 293 354
#     4  10  21  38  55  80 110 158 195 240 310 345
#
# _framework density 21.505248999999999
#
# number of rings (size 3 to 8) (size 9 to 14) (size 15 to 20)
#    0.000    1.667    0.000    5.000    0.000    2.667 
#    6.000    0.000    0.000   10.000    0.000    0.000 
#    0.000    0.000    0.000    0.000    0.000    0.000 
#
# Total GULP energy -133633.799855 kJ/mol
# GULP energy per Si atom -5568.074994 kJ/mol
# Density = 2.145630 g / cm^3
# Si number density = 21.505249 Si / 1000 Ang^3
#
#
#
# Elastic Constant Matrix: (Units=GPa)
#
#
# Indices 1 2 3 4 5 6 
#
# 1 28.2896 70.1220 62.2583 0.0000 -83.5642 0.0000
# 2 70.1220 35.4624 -86.4092 0.0000 208.6902 0.0000
# 3 62.2583 -86.4092 -15.1471 0.0000 289.9553 0.0000
# 4 0.0000 0.0000 0.0000 31.9589 0.0000 -0.2277
# 5 -83.5642 208.6902 289.9553 0.0000 -489.2924 0.0000
# 6 0.0000 0.0000 0.0000 -0.2277 0.0000 14.5343
#
#
#
# Elastic Compliance Matrix: (Units=1/GPa)
#
#
# Indices 1 2 3 4 5 6 
#
# 1 0.030331 -0.008251 -0.000504 0.000000 -0.008998 0.000000
# 2 -0.008251 0.010895 -0.001920 0.000000 0.004918 0.000000
# 3 -0.000504 -0.001920 0.006880 0.000000 0.003344 0.000000
# 4 0.000000 0.000000 0.000000 0.031294 0.000000 0.000490
# 5 -0.008998 0.004918 0.003344 0.000000 0.003572 0.000000
# 6 0.000000 0.000000 0.000000 0.000490 0.000000 0.068810
#
#
# Mechanical properties :
#
#
# Convention : Reuss Voigt Hill
#
# Bulk Modulus (GPa) = 37.37552 15.61634 26.49593
# Shear Modulus (GPa) = 27.46488 -88.38424 -30.45968
#
# Velocity S-wave (km/s) = 3.57756 -6.41780 -3.76757
# Velocity P-wave (km/s) = 5.87220 6.90218 2.56489
#
# Compressibility (1/GPa) = 0.02675548
#
# Stress axis : x y z
#
# Youngs Moduli (GPa) = 32.96935 91.78940 145.34983
#
# Poissons Ratio (x) = 0.75740 0.07320
# Poissons Ratio (y) = 0.27205 0.27908
# Poissons Ratio (z) = 0.01660 0.17624
#
# Static dielectric constant tensor:
#      x y z
#    x 1.783140 0.000000 0.022550 
#    y 0.000000 1.832350 0.000000 
#    z 0.022550 0.000000 1.788340 
# 
# From -- ./inp_files/8934.got.cif
#   From: 2010.05.17/outbox.cif.g08.bks.cpg/sg15_5_cif.got.tgz:8934.got - 2010.06.03 18:47:42.
