data_PCOD9270356
_publ_section_title
;
Structure prediction by ZEFSAII (Michael W. Deem and Ramdas Pophale) SiO2 
 PCOD9270356
Probable space group: C 2/C
;
_chemical_formula_sum "Si O2"
_cell_formula_units_Z 48
_cell_length_a 11.104217
_cell_length_b 8.744310
_cell_length_c 23.100949
_cell_angle_alpha 90.000000
_cell_angle_beta 67.651028
_cell_angle_gamma 90.000000
_cell_volume 2074.584205
_symmetry_space_group_name_H-M "C 2/C"
_symmetry_group_IT_number 15
_symmetry_cell_setting 'monoclinic'
loop_
_space_group_symop_operation_xyz
x,y,z
-x,y,1/2-z
-x,-y,-z
x,-y,1/2+z
1/2+x,1/2+y,z
1/2-x,1/2+y,1/2-z
1/2-x,1/2-y,-z
1/2+x,1/2-y,1/2+z
loop_
_atom_site_type_symbol
_atom_site_label
_atom_site_fract_x
_atom_site_fract_y
_atom_site_fract_z
Si Si1 0.001365 0.163130 0.638867
Si Si2 0.098584 0.338086 0.315048
Si Si3 0.689270 0.540198 0.254887
Si Si4 0.177010 0.806485 0.428040
Si Si5 0.149885 0.447693 0.656941
Si Si6 0.069607 0.144855 0.069973
O O1 0.894292 0.244530 0.617458
O O2 0.102277 0.284345 0.643996
O O3 0.927333 0.069548 0.702733
O O4 0.057262 0.032677 0.586822
O O5 0.222783 0.445220 0.305535
O O6 0.137577 0.213081 0.258191
O O7 0.976614 0.443707 0.321529
O O8 0.048346 0.235171 0.377693
O O9 0.789042 0.557775 0.290712
O O10 0.082617 0.818439 0.500171
O O11 0.297338 0.701152 0.424181
O O12 0.241737 0.971353 0.402719
#
# Coordination Sequence:
#
# PCOD9270356 Si02
#       6
#     8   8   8   8   8   8
#     4  10  20  35  58  84 111 149 187 225 277 329
#     4  10  20  37  58  78 108 146 182 229 283 327
#     4  10  21  37  56  80 110 142 184 233 279 333
#     4   9  19  37  56  80 118 150 180 228 277 325
#     4  10  21  36  56  82 110 144 186 229 276 331
#     4   9  19  36  57  84 115 148 186 228 275 329
#
# _framework density 23.137166000000001
#
# number of rings (size 3 to 8) (size 9 to 14) (size 15 to 20)
#    0.000    2.333    0.000    2.000    0.000    2.000 
#    0.000   14.167    0.000    0.000    0.000    0.000 
#    0.000    0.000    0.000    0.000    0.000    0.000 
#
# Total GULP energy -134293.154980 kJ/mol
# GULP energy per Si atom -5595.548124 kJ/mol
# Density = 2.308450 g / cm^3
# Si number density = 23.137166 Si / 1000 Ang^3
#
#
#
# Elastic Constant Matrix: (Units=GPa)
#
#
# Indices 1 2 3 4 5 6 
#
# 1 61.4513 30.0071 20.2139 0.0000 1.9883 0.0000
# 2 30.0071 98.8758 24.4740 0.0000 -5.0224 0.0000
# 3 20.2139 24.4740 69.3221 0.0000 -20.2652 0.0000
# 4 0.0000 0.0000 0.0000 12.6750 0.0000 -4.3967
# 5 1.9883 -5.0224 -20.2652 0.0000 34.9565 0.0000
# 6 0.0000 0.0000 0.0000 -4.3967 0.0000 48.8024
#
#
#
# Elastic Compliance Matrix: (Units=1/GPa)
#
#
# Indices 1 2 3 4 5 6 
#
# 1 0.020880 -0.005167 -0.005814 0.000000 -0.005300 0.000000
# 2 -0.005167 0.012380 -0.002719 0.000000 0.000496 0.000000
# 3 -0.005814 -0.002719 0.020545 0.000000 0.011850 0.000000
# 4 0.000000 0.000000 0.000000 0.081440 0.000000 0.007337
# 5 -0.005300 0.000496 0.011850 0.000000 0.035850 0.000000
# 6 0.000000 0.000000 0.000000 0.007337 0.000000 0.021152
#
#
# Mechanical properties :
#
#
# Convention : Reuss Voigt Hill
#
# Bulk Modulus (GPa) = 37.87092 42.11546 39.99319
# Shear Modulus (GPa) = 21.88682 29.61706 25.75194
#
# Velocity S-wave (km/s) = 3.07898 3.58168 3.33980
# Velocity P-wave (km/s) = 5.38922 5.94530 5.67408
#
# Compressibility (1/GPa) = 0.02640548
#
# Stress axis : x y z
#
# Youngs Moduli (GPa) = 47.89277 80.77554 48.67383
#
# Poissons Ratio (x) = 0.41736 0.28298
# Poissons Ratio (y) = 0.24746 0.13234
# Poissons Ratio (z) = 0.27844 0.21963
#
# Static dielectric constant tensor:
#      x y z
#    x 1.876390 0.000000 -0.011510 
#    y 0.000000 1.876390 0.000000 
#    z -0.011510 0.000000 1.878390 
# 
# From -- ./inp_files/267632.got.cif
#   From: 2010.05.17/outbox.cif.g08.bks.cpg/sg15_134_cif.got.tgz:267632.got - 2010.06.03 18:47:42.
