data_PCOD9270522
_publ_section_title
;
Structure prediction by ZEFSAII (Michael W. Deem and Ramdas Pophale) SiO2 
 PCOD9270522
Probable space group: C 2/C
;
_chemical_formula_sum "Si O2"
_cell_formula_units_Z 24
_cell_length_a 11.244907
_cell_length_b 9.575896
_cell_length_c 8.169918
_cell_angle_alpha 90.000000
_cell_angle_beta 100.649955
_cell_angle_gamma 90.000000
_cell_volume 864.583427
_symmetry_space_group_name_H-M "C 2/C"
_symmetry_group_IT_number 15
_symmetry_cell_setting 'monoclinic'
loop_
_space_group_symop_operation_xyz
x,y,z
-x,y,1/2-z
-x,-y,-z
x,-y,1/2+z
1/2+x,1/2+y,z
1/2-x,1/2+y,1/2-z
1/2-x,1/2-y,-z
1/2+x,1/2-y,1/2+z
loop_
_atom_site_type_symbol
_atom_site_label
_atom_site_fract_x
_atom_site_fract_y
_atom_site_fract_z
Si Si1 0.794445 0.802758 0.760664
Si Si2 0.417335 0.134998 0.508601
Si Si3 0.589722 0.367855 0.394752
O O1 0.711807 0.888109 0.612823
O O2 0.880701 0.702661 0.674141
O O3 0.700466 0.700706 0.826719
O O4 0.849639 0.902602 0.914785
O O5 0.495247 0.250924 0.434048
O O6 0.500000 0.000000 0.500000
O O7 0.500000 0.453126 0.250000
#
# Coordination Sequence:
#
# PCOD9270522 Si02
#       3
#     8   8   8
#     4   9  19  34  53  90 131 165 219 276 324 387
#     4  10  20  35  59  93 128 170 224 273 325 393
#     4   9  18  33  54  84 124 172 214 261 329 387
#
# _framework density 27.759032000000001
#
# number of rings (size 3 to 8) (size 9 to 14) (size 15 to 20)
#    0.000    2.667    0.000    1.000    0.000    8.000 
#    0.000    8.333    0.000    0.000    0.000  331.333 
#    0.000    0.000    0.000    0.000    0.000    0.333 
#
# Total GULP energy -67021.439972 kJ/mol
# GULP energy per Si atom -5585.119998 kJ/mol
# Density = 2.769585 g / cm^3
# Si number density = 27.759032 Si / 1000 Ang^3
#
#
#
# Elastic Constant Matrix: (Units=GPa)
#
#
# Indices 1 2 3 4 5 6 
#
# 1 210.8453 56.3073 112.3784 0.0000 -36.4656 0.0000
# 2 56.3073 52.6748 33.0175 0.0000 -25.6892 0.0000
# 3 112.3784 33.0175 218.4711 0.0000 15.2158 0.0000
# 4 0.0000 0.0000 0.0000 10.9372 0.0000 -37.7417
# 5 -36.4656 -25.6892 15.2158 0.0000 95.7118 0.0000
# 6 0.0000 0.0000 0.0000 -37.7417 0.0000 61.0265
#
#
#
# Elastic Compliance Matrix: (Units=1/GPa)
#
#
# Indices 1 2 3 4 5 6 
#
# 1 0.008706 -0.005794 -0.003767 0.000000 0.002361 0.000000
# 2 -0.005794 0.029231 -0.001851 0.000000 0.005932 0.000000
# 3 -0.003767 -0.001851 0.007007 0.000000 -0.003046 0.000000
# 4 0.000000 0.000000 0.000000 -0.080618 0.000000 -0.049858
# 5 0.002361 0.005932 -0.003046 0.000000 0.013424 0.000000
# 6 0.000000 0.000000 0.000000 -0.049858 0.000000 -0.014448
#
#
# Mechanical properties :
#
#
# Convention : Reuss Voigt Hill
#
# Bulk Modulus (GPa) = 45.20617 98.37752 71.79184
# Shear Modulus (GPa) = -769.06533 52.22095 -358.42219
#
# Velocity S-wave (km/s) = -16.66289 4.34201 -11.37539
# Velocity P-wave (km/s) = 18.81175 7.78808 12.10842
#
# Compressibility (1/GPa) = 0.02212088
#
# Stress axis : x y z
#
# Youngs Moduli (GPa) = 114.85936 34.21013 142.71753
#
# Poissons Ratio (x) = 0.19821 0.53764
# Poissons Ratio (y) = 0.66550 0.26410
# Poissons Ratio (z) = 0.43270 0.06331
#
# Static dielectric constant tensor:
#      x y z
#    x 2.075020 0.000000 0.133180 
#    y 0.000000 2.080700 0.000000 
#    z 0.133180 0.000000 2.405310 
# 
# From -- ./inp_files/27072.got.cif
#   From: 2010.05.17/outbox.cif.g08.bks.cpg/sg15_14_cif.got.tgz:27072.got - 2010.06.03 18:47:42.
