data_PCOD9270675
_publ_section_title
;
Structure prediction by ZEFSAII (Michael W. Deem and Ramdas Pophale) SiO2 
 PCOD9270675
Probable space group: C 2/C
;
_chemical_formula_sum "Si O2"
_cell_formula_units_Z 48
_cell_length_a 11.996258
_cell_length_b 17.305236
_cell_length_c 12.955033
_cell_angle_alpha 90.000000
_cell_angle_beta 60.340482
_cell_angle_gamma 90.000000
_cell_volume 2337.073165
_symmetry_space_group_name_H-M "C 2/C"
_symmetry_group_IT_number 15
_symmetry_cell_setting 'monoclinic'
loop_
_space_group_symop_operation_xyz
x,y,z
-x,y,1/2-z
-x,-y,-z
x,-y,1/2+z
1/2+x,1/2+y,z
1/2-x,1/2+y,1/2-z
1/2-x,1/2-y,-z
1/2+x,1/2-y,1/2+z
loop_
_atom_site_type_symbol
_atom_site_label
_atom_site_fract_x
_atom_site_fract_y
_atom_site_fract_z
Si Si1 0.885431 0.119475 0.722168
Si Si2 0.118876 0.681887 0.622500
Si Si3 0.902520 0.432251 0.657375
Si Si4 0.339839 0.773298 0.619023
Si Si5 0.687420 0.057566 0.962603
Si Si6 0.740177 0.473495 0.387863
O O1 0.892687 0.200249 0.657704
O O2 0.754768 0.114339 0.850738
O O3 0.867248 0.051676 0.645243
O O4 0.000000 0.109430 0.750000
O O5 0.201358 0.749778 0.637364
O O6 0.084620 0.704023 0.520996
O O7 0.208432 0.606282 0.586736
O O8 0.000000 0.665627 0.750000
O O9 0.835875 0.349188 0.690527
O O10 0.853809 0.480665 0.580953
O O11 0.855618 0.486467 0.771196
O O12 0.053660 0.416328 0.574561
O O13 0.785879 0.031940 0.006966
#
# Coordination Sequence:
#
# PCOD9270675 Si02
#       6
#     8   8   8   8   8   8
#     4  10  24  42  57  85 129 165 199 245 305 368
#     4  10  20  38  66  91 122 161 205 249 297 358
#     4  10  20  35  62 100 119 144 203 262 302 350
#     4  10  22  38  60  91 128 157 198 250 299 368
#     4  10  20  37  65  89 118 160 200 252 307 346
#     4  10  20  38  67  92 116 157 209 256 301 356
#
# _framework density 20.538509999999999
#
# number of rings (size 3 to 8) (size 9 to 14) (size 15 to 20)
#    0.000    2.000    1.667    1.500    7.000    2.000 
#    3.000    5.000    0.000    0.000    0.000    0.000 
#    0.000    0.000    0.000    0.000    0.000    0.000 
#
# Total GULP energy -133834.236133 kJ/mol
# GULP energy per Si atom -5576.426506 kJ/mol
# Density = 2.049176 g / cm^3
# Si number density = 20.538510 Si / 1000 Ang^3
#
#
#
# Elastic Constant Matrix: (Units=GPa)
#
#
# Indices 1 2 3 4 5 6 
#
# 1 78.0707 19.2316 28.2995 0.0000 25.9941 0.0000
# 2 19.2316 83.4922 24.1142 0.0000 11.7892 0.0000
# 3 28.2995 24.1142 63.1289 0.0000 25.0554 0.0000
# 4 0.0000 0.0000 0.0000 29.6448 0.0000 6.4205
# 5 25.9941 11.7892 25.0554 0.0000 29.7099 0.0000
# 6 0.0000 0.0000 0.0000 6.4205 0.0000 13.2526
#
#
#
# Elastic Compliance Matrix: (Units=1/GPa)
#
#
# Indices 1 2 3 4 5 6 
#
# 1 0.018608 -0.001700 -0.002252 0.000000 -0.013707 0.000000
# 2 -0.001700 0.013663 -0.004352 0.000000 -0.000264 0.000000
# 3 -0.002252 -0.004352 0.025621 0.000000 -0.017910 0.000000
# 4 0.000000 0.000000 0.000000 0.037687 0.000000 -0.018258
# 5 -0.013707 -0.000264 -0.017910 0.000000 0.060859 0.000000
# 6 0.000000 0.000000 0.000000 -0.018258 0.000000 0.084302
#
#
# Mechanical properties :
#
#
# Convention : Reuss Voigt Hill
#
# Bulk Modulus (GPa) = 24.22330 40.88695 32.55512
# Shear Modulus (GPa) = 18.44268 24.72457 21.58362
#
# Velocity S-wave (km/s) = 2.99984 3.47337 3.24525
# Velocity P-wave (km/s) = 4.88041 6.00303 5.47059
#
# Compressibility (1/GPa) = 0.04128256
#
# Stress axis : x y z
#
# Youngs Moduli (GPa) = 53.74104 73.19016 39.03085
#
# Poissons Ratio (x) = 0.12444 0.08790
# Poissons Ratio (y) = 0.09138 0.16987
# Poissons Ratio (z) = 0.12102 0.31854
#
# Static dielectric constant tensor:
#      x y z
#    x 1.766540 0.000000 0.028210 
#    y 0.000000 1.701130 0.000000 
#    z 0.028210 0.000000 1.779460 
# 
# From -- ./inp_files/87761.got.cif
#   From: 2010.05.17/outbox.cif.g08.bks.cpg/sg15_44_cif.got.tgz:87761.got - 2010.06.03 18:47:42.
