data_PCOD9270874
_publ_section_title
;
Structure prediction by ZEFSAII (Michael W. Deem and Ramdas Pophale) SiO2 
 PCOD9270874
Probable space group: C 2/C
;
_chemical_formula_sum "Si O2"
_cell_formula_units_Z 56
_cell_length_a 29.935654
_cell_length_b 12.227888
_cell_length_c 11.601360
_cell_angle_alpha 90.000000
_cell_angle_beta 137.805213
_cell_angle_gamma 90.000000
_cell_volume 2852.293321
_symmetry_space_group_name_H-M "C 2/C"
_symmetry_group_IT_number 15
_symmetry_cell_setting 'monoclinic'
loop_
_space_group_symop_operation_xyz
x,y,z
-x,y,1/2-z
-x,-y,-z
x,-y,1/2+z
1/2+x,1/2+y,z
1/2-x,1/2+y,1/2-z
1/2-x,1/2-y,-z
1/2+x,1/2-y,1/2+z
loop_
_atom_site_type_symbol
_atom_site_label
_atom_site_fract_x
_atom_site_fract_y
_atom_site_fract_z
Si Si1 0.621533 0.427517 0.003005
Si Si2 0.465223 0.244018 0.790486
Si Si3 0.227787 0.914885 0.020052
Si Si4 0.863072 0.822562 0.005591
Si Si5 0.354750 0.762236 0.255061
Si Si6 0.230777 0.659090 0.369347
Si Si7 0.103486 0.223794 0.668565
O O1 0.567534 0.351693 0.833219
O O2 0.609726 0.555385 0.963198
O O3 0.691920 0.405945 0.075504
O O4 0.623016 0.386648 0.136845
O O5 0.500000 0.181568 0.750000
O O6 0.405502 0.199847 0.753648
O O7 0.526246 0.263299 0.992894
O O8 0.292921 0.842465 0.138669
O O9 0.249933 0.039802 0.046177
O O10 0.174207 0.858778 0.832418
O O11 0.885445 0.784009 0.174386
O O12 0.883850 0.748372 0.938480
O O13 0.781632 0.825656 0.859479
O O14 0.250000 0.750000 0.500000
O O15 0.152275 0.683831 0.205107
#
# Coordination Sequence:
#
# PCOD9270874 Si02
#       7
#     8   8   8   8   8   8   8
#     4   9  19  34  56  81 114 145 193 229 288 338
#     4   9  20  38  55  77 113 151 194 232 278 351
#     4   9  19  37  59  87 111 149 185 243 284 333
#     4  10  21  32  56  88 113 149 182 241 290 334
#     4  10  20  36  58  85 118 143 193 235 286 340
#     4   9  19  35  57  83 113 146 187 229 287 336
#     4  10  20  36  54  79 119 153 186 233 281 350
#
# _framework density 19.633324000000002
#
# number of rings (size 3 to 8) (size 9 to 14) (size 15 to 20)
#    0.000    2.571    0.000    0.857    8.000    2.286 
#    7.714    0.714    0.000    0.000    0.000    0.000 
#    0.000    0.000    0.000    0.000    0.000    0.000 
#
# Total GULP energy -155935.461991 kJ/mol
# GULP energy per Si atom -5569.123643 kJ/mol
# Density = 1.958864 g / cm^3
# Si number density = 19.633324 Si / 1000 Ang^3
#
#
#
# Elastic Constant Matrix: (Units=GPa)
#
#
# Indices 1 2 3 4 5 6 
#
# 1 105.2142 10.6031 34.1173 0.0000 -6.2977 0.0000
# 2 10.6031 47.2443 0.9154 0.0000 4.5088 0.0000
# 3 34.1173 0.9154 72.4754 0.0000 -1.7440 0.0000
# 4 0.0000 0.0000 0.0000 9.1852 0.0000 -4.6894
# 5 -6.2977 4.5088 -1.7440 0.0000 37.6573 0.0000
# 6 0.0000 0.0000 0.0000 -4.6894 0.0000 17.1879
#
#
#
# Elastic Compliance Matrix: (Units=1/GPa)
#
#
# Indices 1 2 3 4 5 6 
#
# 1 0.011649 -0.002703 -0.005401 0.000000 0.002022 0.000000
# 2 -0.002703 0.022046 0.000920 0.000000 -0.003049 0.000000
# 3 -0.005401 0.000920 0.016322 0.000000 -0.000258 0.000000
# 4 0.000000 0.000000 0.000000 0.126489 0.000000 0.034510
# 5 0.002022 -0.003049 -0.000258 0.000000 0.027247 0.000000
# 6 0.000000 0.000000 0.000000 0.034510 0.000000 0.067596
#
#
# Mechanical properties :
#
#
# Convention : Reuss Voigt Hill
#
# Bulk Modulus (GPa) = 28.04937 35.13395 31.59166
# Shear Modulus (GPa) = 16.80107 24.75928 20.78018
#
# Velocity S-wave (km/s) = 2.92848 3.55503 3.25686
# Velocity P-wave (km/s) = 5.07467 5.89787 5.50169
#
# Compressibility (1/GPa) = 0.03565142
#
# Stress axis : x y z
#
# Youngs Moduli (GPa) = 85.84326 45.35904 61.26539
#
# Poissons Ratio (x) = 0.12259 0.33089
# Poissons Ratio (y) = 0.23201 -0.05639
# Poissons Ratio (z) = 0.46364 -0.04175
#
# Static dielectric constant tensor:
#      x y z
#    x 1.730220 0.000000 0.007210 
#    y 0.000000 1.682620 0.000000 
#    z 0.007210 0.000000 1.741240 
# 
# From -- ./inp_files/126763.got.cif
#   From: 2010.05.17/outbox.cif.g08.bks.cpg/sg15_64_cif.got.tgz:126763.got - 2010.06.03 18:47:42.
