data_PCOD9270189
_publ_section_title
;
Structure prediction by ZEFSAII (Michael W. Deem and Ramdas Pophale) SiO2 
 PCOD9270189
Probable space group: C 2/C
;
_chemical_formula_sum "Si O2"
_cell_formula_units_Z 44
_cell_length_a 10.090652
_cell_length_b 26.545982
_cell_length_c 8.316398
_cell_angle_alpha 90.000000
_cell_angle_beta 71.694289
_cell_angle_gamma 90.000000
_cell_volume 2114.948773
_symmetry_space_group_name_H-M "C 2/C"
_symmetry_group_IT_number 15
_symmetry_cell_setting 'monoclinic'
loop_
_space_group_symop_operation_xyz
x,y,z
-x,y,1/2-z
-x,-y,-z
x,-y,1/2+z
1/2+x,1/2+y,z
1/2-x,1/2+y,1/2-z
1/2-x,1/2-y,-z
1/2+x,1/2-y,1/2+z
loop_
_atom_site_type_symbol
_atom_site_label
_atom_site_fract_x
_atom_site_fract_y
_atom_site_fract_z
Si Si1 0.500000 0.637082 0.750000
Si Si2 0.210996 0.791913 0.752230
Si Si3 0.458306 0.916966 0.096248
Si Si4 0.441705 0.276201 0.031122
Si Si5 0.140287 0.476970 0.803437
Si Si6 0.741405 0.606516 0.436297
O O1 0.566391 0.674233 0.856632
O O2 0.616100 0.607095 0.609848
O O3 0.359463 0.766046 0.662402
O O4 0.136216 0.788081 0.606975
O O5 0.226111 0.848027 0.815814
O O6 0.102688 0.765625 0.919432
O O7 0.500000 0.892660 0.250000
O O8 0.350768 0.964036 0.164862
O O9 0.596735 0.944625 0.975769
O O10 0.383099 0.885284 0.987153
O O11 0.252346 0.446061 0.661672
O O12 0.000000 0.473668 0.750000
#
# Coordination Sequence:
#
# PCOD9270189 Si02
#       6
#     4   8   8   8   8   8
#     4  10  22  38  56  80 120 152 188 234 292 332
#     4   9  19  38  61  84 117 152 197 232 294 347
#     4   9  17  33  57  82 113 146 185 240 293 328
#     4   9  19  38  59  83 114 161 183 244 294 340
#     4   8  16  33  54  80 112 147 183 238 294 325
#     4  10  20  35  56  86 113 153 195 231 278 355
#
# _framework density 20.804286999999999
#
# number of rings (size 3 to 8) (size 9 to 14) (size 15 to 20)
#    0.000    2.909    0.000    1.091    0.000    4.364 
#   14.727    0.909    0.000    2.182    0.000    0.000 
#    0.000    0.000    0.000    0.000    0.000    0.000 
#
# Total GULP energy -122594.042505 kJ/mol
# GULP energy per Si atom -5572.456477 kJ/mol
# Density = 2.075694 g / cm^3
# Si number density = 20.804287 Si / 1000 Ang^3
#
#
#
# Elastic Constant Matrix: (Units=GPa)
#
#
# Indices 1 2 3 4 5 6 
#
# 1 27.8063 18.6001 21.5752 0.0000 -8.2716 0.0000
# 2 18.6001 49.5358 45.2022 0.0000 -25.9150 0.0000
# 3 21.5752 45.2022 134.3831 0.0000 -20.0840 0.0000
# 4 0.0000 0.0000 0.0000 46.7209 0.0000 -11.9712
# 5 -8.2716 -25.9150 -20.0840 0.0000 28.9037 0.0000
# 6 0.0000 0.0000 0.0000 -11.9712 0.0000 31.6118
#
#
#
# Elastic Compliance Matrix: (Units=1/GPa)
#
#
# Indices 1 2 3 4 5 6 
#
# 1 0.048813 -0.018426 -0.002254 0.000000 -0.004118 0.000000
# 2 -0.018426 0.056560 -0.010351 0.000000 0.038246 0.000000
# 3 -0.002254 -0.010351 0.010937 0.000000 -0.002326 0.000000
# 4 0.000000 0.000000 0.000000 0.023704 0.000000 0.008976
# 5 -0.004118 0.038246 -0.002326 0.000000 0.066095 0.000000
# 6 0.000000 0.000000 0.000000 0.008976 0.000000 0.035033
#
#
# Mechanical properties :
#
#
# Convention : Reuss Voigt Hill
#
# Bulk Modulus (GPa) = 18.43370 42.49781 30.46575
# Shear Modulus (GPa) = 15.56245 29.87046 22.71645
#
# Velocity S-wave (km/s) = 2.73800 3.79328 3.30799
# Velocity P-wave (km/s) = 4.34457 6.29739 5.40982
#
# Compressibility (1/GPa) = 0.05424847
#
# Stress axis : x y z
#
# Youngs Moduli (GPa) = 20.48648 17.68034 91.42892
#
# Poissons Ratio (x) = 0.32577 0.20613
# Poissons Ratio (y) = 0.37748 0.94636
# Poissons Ratio (z) = 0.04619 0.18300
#
# Static dielectric constant tensor:
#      x y z
#    x 1.808030 0.000000 0.010520 
#    y 0.000000 1.770780 0.000000 
#    z 0.010520 0.000000 1.818670 
# 
# From -- ./inp_files/32434.got.cif
#   From: 2010.05.17/outbox.cif.g08.bks.cpg/sg15_17_cif.got.tgz:32434.got - 2010.06.03 18:47:42.
