data_PCOD9270326
_publ_section_title
;
Structure prediction by ZEFSAII (Michael W. Deem and Ramdas Pophale) SiO2 
 PCOD9270326
Probable space group: C 2/C
;
_chemical_formula_sum "Si O2"
_cell_formula_units_Z 48
_cell_length_a 8.447524
_cell_length_b 16.599680
_cell_length_c 18.846457
_cell_angle_alpha 90.000000
_cell_angle_beta 90.000000
_cell_angle_gamma 90.000000
_cell_volume 2642.766958
_symmetry_space_group_name_H-M "C 2/C"
_symmetry_group_IT_number 15
_symmetry_cell_setting 'monoclinic'
loop_
_space_group_symop_operation_xyz
x,y,z
-x,y,1/2-z
-x,-y,-z
x,-y,1/2+z
1/2+x,1/2+y,z
1/2-x,1/2+y,1/2-z
1/2-x,1/2-y,-z
1/2+x,1/2-y,1/2+z
loop_
_atom_site_type_symbol
_atom_site_label
_atom_site_fract_x
_atom_site_fract_y
_atom_site_fract_z
Si Si1 0.186962 0.235459 0.168407
Si Si2 0.607771 0.173488 0.050797
Si Si3 0.292641 0.593042 0.920157
Si Si4 0.707359 0.906957 0.920157
Si Si5 0.892229 0.173488 0.550797
Si Si6 0.313038 0.235459 0.668407
O O1 0.227842 0.144553 0.145675
O O2 0.285412 0.292420 0.114750
O O3 0.230849 0.250000 0.250000
O O4 0.000000 0.250000 0.160097
O O5 0.480258 0.107767 0.075402
O O6 0.500000 0.250000 0.026200
O O7 0.714588 0.207580 0.114750
O O8 0.712101 0.135846 0.988556
O O9 0.250000 0.500000 0.917889
O O10 0.480258 0.607767 0.924599
O O11 0.227842 0.644553 0.854325
O O12 0.787899 0.864153 0.988556
#
# Coordination Sequence:
#
# PCOD9270326 Si02
#       6
#     8   8   8   8   8   8
#     4  10  21  39  58  77 108 150 187 221 273 339
#     4  10  20  35  58  79 109 148 183 220 270 336
#     4  11  21  35  56  85 112 139 182 234 275 318
#     4  11  21  35  56  85 112 139 182 234 275 318
#     4  10  20  35  58  79 109 148 183 220 270 336
#     4  10  21  39  58  77 108 150 187 221 273 339
#
# _framework density 18.162782
#
# number of rings (size 3 to 8) (size 9 to 14) (size 15 to 20)
#    0.000    1.667    0.000    8.000    0.000    6.000 
#    0.000    8.333    0.000    0.000    0.000    0.000 
#    0.000    0.000    0.000    0.000    0.000    0.000 
#
# Total GULP energy -134054.215012 kJ/mol
# GULP energy per Si atom -5585.592292 kJ/mol
# Density = 1.812144 g / cm^3
# Si number density = 18.162782 Si / 1000 Ang^3
#
#
#
# Elastic Constant Matrix: (Units=GPa)
#
#
# Indices 1 2 3 4 5 6 
#
# 1 103.3129 61.2274 57.0461 0.0000 0.0002 0.0000
# 2 61.2274 150.0069 88.6675 0.0000 0.0006 0.0000
# 3 57.0461 88.6675 151.4337 0.0000 0.0003 0.0000
# 4 0.0000 0.0000 0.0000 3.6145 0.0000 0.0000
# 5 0.0002 0.0006 0.0003 0.0000 22.0208 0.0000
# 6 0.0000 0.0000 0.0000 0.0000 0.0000 26.6172
#
#
#
# Elastic Compliance Matrix: (Units=1/GPa)
#
#
# Indices 1 2 3 4 5 6 
#
# 1 0.013526 -0.003837 -0.002849 0.000000 0.000000 0.000000
# 2 -0.003837 0.011283 -0.005161 0.000000 0.000000 0.000000
# 3 -0.002849 -0.005161 0.010699 0.000000 0.000000 0.000000
# 4 0.000000 0.000000 0.000000 0.276667 0.000000 0.000000
# 5 0.000000 0.000000 0.000000 0.000000 0.045412 0.000000
# 6 0.000000 0.000000 0.000000 0.000000 0.000000 0.037570
#
#
# Mechanical properties :
#
#
# Convention : Reuss Voigt Hill
#
# Bulk Modulus (GPa) = 84.64338 90.95951 87.80145
# Shear Modulus (GPa) = 11.82624 23.63798 17.73211
#
# Velocity S-wave (km/s) = 2.55448 3.61148 3.12795
# Velocity P-wave (km/s) = 7.44341 8.22066 7.84167
#
# Compressibility (1/GPa) = 0.01181427
#
# Stress axis : x y z
#
# Youngs Moduli (GPa) = 73.92976 88.62745 93.47008
#
# Poissons Ratio (x) = 0.34007 0.26627
# Poissons Ratio (y) = 0.28368 0.48241
# Poissons Ratio (z) = 0.21061 0.45741
#
# Static dielectric constant tensor:
#      x y z
#    x 1.648170 0.000000 0.000000 
#    y 0.000000 1.609820 0.000000 
#    z 0.000000 0.000000 1.617550 
# 
# From -- ./inp_files/189881.got.cif
#   From: 2010.05.17/outbox.cif.g08.bks.cpg/sg15_95_cif.got.tgz:189881.got - 2010.06.03 18:47:42.
