data_PCOD9270904
_publ_section_title
;
Structure prediction by ZEFSAII (Michael W. Deem and Ramdas Pophale) SiO2 
 PCOD9270904
Probable space group: C 2/C
;
_chemical_formula_sum "Si O2"
_cell_formula_units_Z 44
_cell_length_a 7.321104
_cell_length_b 32.564302
_cell_length_c 7.315744
_cell_angle_alpha 90.000000
_cell_angle_beta 87.521629
_cell_angle_gamma 90.000000
_cell_volume 1742.490535
_symmetry_space_group_name_H-M "C 2/C"
_symmetry_group_IT_number 15
_symmetry_cell_setting 'monoclinic'
loop_
_space_group_symop_operation_xyz
x,y,z
-x,y,1/2-z
-x,-y,-z
x,-y,1/2+z
1/2+x,1/2+y,z
1/2-x,1/2+y,1/2-z
1/2-x,1/2-y,-z
1/2+x,1/2-y,1/2+z
loop_
_atom_site_type_symbol
_atom_site_label
_atom_site_fract_x
_atom_site_fract_y
_atom_site_fract_z
Si Si1 0.128455 0.823836 0.465495
Si Si2 0.254347 0.960483 0.114478
Si Si3 0.000000 0.103136 0.750000
Si Si4 0.343120 0.047642 0.032817
Si Si5 0.500000 0.112679 0.250000
Si Si6 0.000000 0.246320 0.750000
Si Si7 0.277735 0.181475 0.365517
O O1 0.138583 0.865440 0.346178
O O2 0.146954 0.783205 0.341757
O O3 0.237210 0.821169 0.648725
O O4 0.914504 0.821188 0.529938
O O5 0.093412 0.927583 0.096202
O O6 0.433322 0.958441 0.977994
O O7 0.303827 0.949528 0.321068
O O8 0.223706 0.009521 0.111268
O O9 0.339050 0.087122 0.159256
O O10 0.400955 0.141910 0.401215
O O11 0.892199 0.277221 0.888365
#
# Coordination Sequence:
#
# PCOD9270904 Si02
#       7
#     8   8   4   8   4   4   8
#     4  10  21  37  56  82 117 144 176 228 276 321
#     4  10  21  36  55  78 106 141 185 230 279 327
#     4  11  22  37  56  82 112 146 182 229 284 327
#     4  10  20  36  55  76 105 143 184 230 273 326
#     4  11  20  35  58  80 106 146 190 225 272 327
#     4  10  20  36  60  84 110 148 184 216 266 330
#     4  10  21  36  57  84 112 145 183 223 270 328
#
# _framework density 25.251214000000001
#
# number of rings (size 3 to 8) (size 9 to 14) (size 15 to 20)
#    0.000    1.818    0.000    5.455    0.000    0.727 
#    0.000    1.818    0.000   17.455    0.000    0.000 
#    0.000    0.000    0.000    0.000    0.000    0.000 
#
# Total GULP energy -122816.721204 kJ/mol
# GULP energy per Si atom -5582.578237 kJ/mol
# Density = 2.519374 g / cm^3
# Si number density = 25.251214 Si / 1000 Ang^3
#
#
#
# Elastic Constant Matrix: (Units=GPa)
#
#
# Indices 1 2 3 4 5 6 
#
# 1 53.4565 18.0538 -6.8547 0.0000 -17.8044 0.0000
# 2 18.0538 173.7449 23.1455 0.0000 -8.9515 0.0000
# 3 -6.8547 23.1455 68.1924 0.0000 11.7858 0.0000
# 4 0.0000 0.0000 0.0000 18.6097 0.0000 -7.4632
# 5 -17.8044 -8.9515 11.7858 0.0000 37.9581 0.0000
# 6 0.0000 0.0000 0.0000 -7.4632 0.0000 40.6508
#
#
#
# Elastic Compliance Matrix: (Units=1/GPa)
#
#
# Indices 1 2 3 4 5 6 
#
# 1 0.022834 -0.002038 0.001288 0.000000 0.009830 0.000000
# 2 -0.002038 0.006385 -0.002607 0.000000 0.001359 0.000000
# 3 0.001288 -0.002607 0.016570 0.000000 -0.005155 0.000000
# 4 0.000000 0.000000 0.000000 0.058006 0.000000 0.010649
# 5 0.009830 0.001359 -0.005155 0.000000 0.032877 0.000000
# 6 0.000000 0.000000 0.000000 0.010649 0.000000 0.026555
#
#
# Mechanical properties :
#
#
# Convention : Reuss Voigt Hill
#
# Bulk Modulus (GPa) = 25.59165 40.45368 33.02266
# Shear Modulus (GPa) = 27.32765 36.84700 32.08733
#
# Velocity S-wave (km/s) = 3.29330 3.82411 3.56859
# Velocity P-wave (km/s) = 4.96164 5.96270 5.48505
#
# Compressibility (1/GPa) = 0.03907525
#
# Stress axis : x y z
#
# Youngs Moduli (GPa) = 43.79398 156.62672 60.35124
#
# Poissons Ratio (x) = 0.31918 -0.07773
# Poissons Ratio (y) = 0.08924 0.15732
# Poissons Ratio (z) = -0.05641 0.40829
#
# Static dielectric constant tensor:
#      x y z
#    x 2.045920 0.000000 0.004550 
#    y 0.000000 2.145120 0.000000 
#    z 0.004550 0.000000 2.003740 
# 
# From -- ./inp_files/25632.got.cif
#   From: 2010.05.17/outbox.cif.g08.bks.cpg/sg15_13_cif.got.tgz:25632.got - 2010.06.03 18:47:42.
