data_PCOD9270040
_publ_section_title
;
Structure prediction by ZEFSAII (Michael W. Deem and Ramdas Pophale) SiO2 
 PCOD9270040
Probable space group: C 2/C
;
_chemical_formula_sum "Si O2"
_cell_formula_units_Z 56
_cell_length_a 13.183698
_cell_length_b 26.297742
_cell_length_c 9.897140
_cell_angle_alpha 90.000000
_cell_angle_beta 63.646138
_cell_angle_gamma 90.000000
_cell_volume 3074.730978
_symmetry_space_group_name_H-M "C 2/C"
_symmetry_group_IT_number 15
_symmetry_cell_setting 'monoclinic'
loop_
_space_group_symop_operation_xyz
x,y,z
-x,y,1/2-z
-x,-y,-z
x,-y,1/2+z
1/2+x,1/2+y,z
1/2-x,1/2+y,1/2-z
1/2-x,1/2-y,-z
1/2+x,1/2-y,1/2+z
loop_
_atom_site_type_symbol
_atom_site_label
_atom_site_fract_x
_atom_site_fract_y
_atom_site_fract_z
Si Si1 0.938378 0.210501 0.502134
Si Si2 0.915365 0.494705 0.675753
Si Si3 0.831860 0.196960 0.270318
Si Si4 0.740540 0.192158 0.787240
Si Si5 0.866013 0.598798 0.807956
Si Si6 0.654792 0.108647 0.374244
Si Si7 0.969579 0.687336 0.423613
O O1 0.861176 0.203813 0.412822
O O2 0.874000 0.188519 0.672169
O O3 0.055476 0.185971 0.383071
O O4 0.973534 0.268785 0.516612
O O5 0.847986 0.547181 0.735142
O O6 0.842879 0.443613 0.708569
O O7 0.000000 0.490026 0.750000
O O8 0.000000 0.500000 0.500000
O O9 0.786158 0.251503 0.250700
O O10 0.742220 0.153316 0.292261
O O11 0.683581 0.148377 0.731470
O O12 0.666106 0.187757 0.968817
O O13 0.000000 0.605481 0.750000
O O14 0.821439 0.593615 0.985539
O O15 0.530747 0.134464 0.427399
O O16 0.000000 0.697492 0.250000
#
# Coordination Sequence:
#
# PCOD9270040 Si02
#       7
#     8   8   8   8   8   8   8
#     4  10  20  35  54  83 116 144 197 234 285 347
#     4  11  21  36  56  87 120 153 193 244 301 354
#     4  10  21  33  59  90 109 152 192 245 292 344
#     4  11  19  34  58  81 118 147 195 237 287 353
#     4  11  20  32  57  89 112 150 187 241 300 349
#     4  12  20  37  58  83 124 146 196 244 300 353
#     4  11  23  34  51  82 119 164 190 230 293 352
#
# _framework density 18.212976000000001
#
# number of rings (size 3 to 8) (size 9 to 14) (size 15 to 20)
#    0.000    1.143    7.143    1.714    2.000    0.571 
#    0.000    0.000    0.000    0.857    0.000    0.000 
#    0.000    0.000    0.000    0.000    0.000    0.000 
#
# Total GULP energy -156059.318735 kJ/mol
# GULP energy per Si atom -5573.547098 kJ/mol
# Density = 1.817152 g / cm^3
# Si number density = 18.212976 Si / 1000 Ang^3
#
#
#
# Elastic Constant Matrix: (Units=GPa)
#
#
# Indices 1 2 3 4 5 6 
#
# 1 28.8020 28.0982 24.7603 0.0000 -13.0491 0.0000
# 2 28.0982 126.5099 20.5311 0.0000 -7.0684 0.0000
# 3 24.7603 20.5311 114.6099 0.0000 -17.1812 0.0000
# 4 0.0000 0.0000 0.0000 25.0625 0.0000 0.3813
# 5 -13.0491 -7.0684 -17.1812 0.0000 30.2037 0.0000
# 6 0.0000 0.0000 0.0000 0.3813 0.0000 23.4832
#
#
#
# Elastic Compliance Matrix: (Units=1/GPa)
#
#
# Indices 1 2 3 4 5 6 
#
# 1 0.061636 -0.011250 -0.008421 0.000000 0.019206 0.000000
# 2 -0.011250 0.010233 0.000249 0.000000 -0.002324 0.000000
# 3 -0.008421 0.000249 0.010892 0.000000 0.002616 0.000000
# 4 0.000000 0.000000 0.000000 0.039910 0.000000 -0.000648
# 5 0.019206 -0.002324 0.002616 0.000000 0.042350 0.000000
# 6 0.000000 0.000000 0.000000 -0.000648 0.000000 0.042594
#
#
# Mechanical properties :
#
#
# Convention : Reuss Voigt Hill
#
# Bulk Modulus (GPa) = 22.77052 46.30012 34.53532
# Shear Modulus (GPa) = 19.14983 28.85200 24.00092
#
# Velocity S-wave (km/s) = 3.24611 3.98445 3.63408
# Velocity P-wave (km/s) = 5.15549 6.82968 6.05077
#
# Compressibility (1/GPa) = 0.04391642
#
# Stress axis : x y z
#
# Youngs Moduli (GPa) = 16.22432 97.72418 91.80914
#
# Poissons Ratio (x) = 1.09937 0.77316
# Poissons Ratio (y) = 0.18252 -0.02285
# Poissons Ratio (z) = 0.13663 -0.02432
#
# Static dielectric constant tensor:
#      x y z
#    x 1.639150 0.000000 -0.022700 
#    y 0.000000 1.624280 0.000000 
#    z -0.022700 0.000000 1.700190 
# 
# From -- ./inp_files/34210.got.cif
#   From: 2010.05.17/outbox.cif.g08.bks.cpg/sg15_18_cif.got.tgz:34210.got - 2010.06.03 18:47:42.
