data_PCOD9270838
_publ_section_title
;
Structure prediction by ZEFSAII (Michael W. Deem and Ramdas Pophale) SiO2 
 PCOD9270838
Probable space group: C 2/C
;
_chemical_formula_sum "Si O2"
_cell_formula_units_Z 56
_cell_length_a 24.168413
_cell_length_b 15.530335
_cell_length_c 22.387304
_cell_angle_alpha 90.000000
_cell_angle_beta 159.048924
_cell_angle_gamma 90.000000
_cell_volume 3004.641191
_symmetry_space_group_name_H-M "C 2/C"
_symmetry_group_IT_number 15
_symmetry_cell_setting 'monoclinic'
loop_
_space_group_symop_operation_xyz
x,y,z
-x,y,1/2-z
-x,-y,-z
x,-y,1/2+z
1/2+x,1/2+y,z
1/2-x,1/2+y,1/2-z
1/2-x,1/2-y,-z
1/2+x,1/2-y,1/2+z
loop_
_atom_site_type_symbol
_atom_site_label
_atom_site_fract_x
_atom_site_fract_y
_atom_site_fract_z
Si Si1 0.961077 0.377254 0.016441
Si Si2 0.065701 0.871510 0.062927
Si Si3 0.082489 0.563544 0.164089
Si Si4 0.431044 0.181508 0.112488
Si Si5 0.556239 0.488967 0.464679
Si Si6 0.801829 0.758584 0.766558
Si Si7 0.064276 0.137505 0.748514
O O1 0.952997 0.392447 0.936066
O O2 0.805749 0.326103 0.876389
O O3 0.996375 0.470720 0.077713
O O4 0.094417 0.308236 0.165483
O O5 0.201222 0.804211 0.205883
O O6 0.062243 0.947236 0.106365
O O7 0.912780 0.817025 0.917221
O O8 0.065727 0.912552 0.996519
O O9 0.266729 0.544615 0.352669
O O10 0.019425 0.619201 0.155453
O O11 0.500000 0.174177 0.250000
O O12 0.469618 0.278790 0.129449
O O13 0.247302 0.160085 0.929351
O O14 0.482484 0.451018 0.330921
O O15 0.000000 0.129343 0.750000
#
# Coordination Sequence:
#
# PCOD9270838 Si02
#       7
#     8   8   8   8   8   8   8
#     4  10  22  34  54  82 117 150 188 223 280 329
#     4  10  22  34  54  82 117 150 188 223 280 329
#     4  11  22  36  55  82 117 147 189 232 273 335
#     4  11  24  40  60  82 111 147 189 229 275 332
#     4  11  22  36  55  82 117 147 189 232 273 335
#     4  10  20  36  52  78 114 152 188 222 276 338
#     4  11  24  40  60  82 111 147 189 229 275 332
#
# _framework density 18.637832
#
# number of rings (size 3 to 8) (size 9 to 14) (size 15 to 20)
#    0.000    1.429    2.857    3.429    8.000    0.000 
#    0.000    0.000    0.000    0.000    0.000    6.000 
#    0.000    0.000    0.000    0.000    0.000    0.000 
#
# Total GULP energy -156045.007297 kJ/mol
# GULP energy per Si atom -5573.035975 kJ/mol
# Density = 1.859541 g / cm^3
# Si number density = 18.637832 Si / 1000 Ang^3
#
#
#
# Elastic Constant Matrix: (Units=GPa)
#
#
# Indices 1 2 3 4 5 6 
#
# 1 55.8956 25.5909 13.6000 0.0020 -2.6458 0.0003
# 2 25.5909 83.8101 15.8603 0.0013 -8.0086 0.0002
# 3 13.6000 15.8603 95.0473 0.0061 12.5739 0.0040
# 4 0.0020 0.0013 0.0061 26.2541 0.0023 3.9133
# 5 -2.6458 -8.0086 12.5739 0.0023 15.4506 0.0008
# 6 0.0003 0.0002 0.0040 3.9133 0.0008 19.6064
#
#
#
# Elastic Compliance Matrix: (Units=1/GPa)
#
#
# Indices 1 2 3 4 5 6 
#
# 1 0.021250 -0.005780 -0.002422 -0.000001 0.002614 0.000000
# 2 -0.005780 0.015131 -0.002919 0.000000 0.009228 0.000000
# 3 -0.002422 -0.002919 0.013010 -0.000001 -0.012515 -0.000002
# 4 -0.000001 0.000000 -0.000001 0.039257 -0.000005 -0.007835
# 5 0.002614 0.009228 -0.012515 -0.000005 0.080139 0.000000
# 6 0.000000 0.000000 -0.000002 -0.007835 0.000000 0.052568
#
#
# Mechanical properties :
#
#
# Convention : Reuss Voigt Hill
#
# Bulk Modulus (GPa) = 36.83303 38.31725 37.57514
# Shear Modulus (GPa) = 19.79054 24.24234 22.01644
#
# Velocity S-wave (km/s) = 3.26214 3.61044 3.44070
# Velocity P-wave (km/s) = 5.83045 6.16311 5.99908
#
# Compressibility (1/GPa) = 0.02714954
#
# Stress axis : x y z
#
# Youngs Moduli (GPa) = 47.05891 66.08997 76.86226
#
# Poissons Ratio (x) = 0.38203 0.18614
# Poissons Ratio (y) = 0.27202 0.22433
# Poissons Ratio (z) = 0.11397 0.19289
#
# Static dielectric constant tensor:
#      x y z
#    x 1.660130 0.000000 0.006290 
#    y 0.000000 1.686000 0.000000 
#    z 0.006290 0.000000 1.715830 
# 
# From -- ./inp_files/278062.got.cif
#   From: 2010.05.17/outbox.cif.g08.bks.cpg/sg15_140_cif.got.tgz:278062.got - 2010.06.03 18:47:42.
