data_PCOD9270450
_publ_section_title
;
Structure prediction by ZEFSAII (Michael W. Deem and Ramdas Pophale) SiO2 
 PCOD9270450
Probable space group: C 2/C
;
_chemical_formula_sum "Si O2"
_cell_formula_units_Z 64
_cell_length_a 23.588753
_cell_length_b 13.165580
_cell_length_c 11.872722
_cell_angle_alpha 90.000000
_cell_angle_beta 91.354078
_cell_angle_gamma 90.000000
_cell_volume 3686.158326
_symmetry_space_group_name_H-M "C 2/C"
_symmetry_group_IT_number 15
_symmetry_cell_setting 'monoclinic'
loop_
_space_group_symop_operation_xyz
x,y,z
-x,y,1/2-z
-x,-y,-z
x,-y,1/2+z
1/2+x,1/2+y,z
1/2-x,1/2+y,1/2-z
1/2-x,1/2-y,-z
1/2+x,1/2-y,1/2+z
loop_
_atom_site_type_symbol
_atom_site_label
_atom_site_fract_x
_atom_site_fract_y
_atom_site_fract_z
Si Si1 0.286363 0.936303 0.275880
Si Si2 0.187315 0.707184 0.516320
Si Si3 0.105805 0.114288 0.980972
Si Si4 0.833813 0.652562 0.238894
Si Si5 0.944170 0.992150 0.822882
Si Si6 0.729956 0.746815 0.370602
Si Si7 0.666864 0.539465 0.332613
Si Si8 0.562516 0.288187 0.243968
O O1 0.306584 0.874226 0.385609
O O2 0.289623 0.857079 0.173066
O O3 0.324601 0.035681 0.266461
O O4 0.221705 0.977946 0.288019
O O5 0.250000 0.750000 0.500000
O O6 0.144602 0.799610 0.540375
O O7 0.168268 0.662483 0.395929
O O8 0.080372 0.162859 0.865654
O O9 0.146063 0.021980 0.941861
O O10 0.058767 0.069625 0.061710
O O11 0.781866 0.715125 0.291064
O O12 0.890699 0.706025 0.284284
O O13 0.886403 0.963836 0.753998
O O14 0.000000 0.972163 0.750000
O O15 0.940823 0.114071 0.837749
O O16 0.750000 0.750000 0.500000
O O17 0.685483 0.654728 0.355958
O O18 0.500000 0.243402 0.250000
#
# Coordination Sequence:
#
# PCOD9270450 Si02
#       8
#     8   8   8   8   8   8   8   8
#     4  11  22  36  57  84 119 150 189 233 287 340
#     4  11  19  37  60  79 112 155 189 225 277 356
#     4  10  20  35  59  83 111 152 188 227 286 347
#     4  10  23  37  56  85 114 147 197 231 284 344
#     4  10  21  35  55  80 115 143 194 235 285 331
#     4  11  23  34  51  89 122 146 181 234 294 342
#     4  10  22  33  54  83 110 157 181 231 285 338
#     4   9  20  39  59  82 109 151 194 239 279 333
#
# _framework density 17.36225
#
# number of rings (size 3 to 8) (size 9 to 14) (size 15 to 20)
#    0.000    1.750    2.500    2.250    8.750    4.500 
#    0.000    0.000    0.000    6.000    0.000    0.000 
#    0.000    0.000    0.000    0.000    0.000    0.000 
#
# Total GULP energy -178580.092045 kJ/mol
# GULP energy per Si atom -5580.627876 kJ/mol
# Density = 1.732273 g / cm^3
# Si number density = 17.362250 Si / 1000 Ang^3
#
#
#
# Elastic Constant Matrix: (Units=GPa)
#
#
# Indices 1 2 3 4 5 6 
#
# 1 85.6911 41.6164 5.4424 0.0000 -11.6751 0.0000
# 2 41.6164 108.5088 29.0373 0.0000 -16.6170 0.0000
# 3 5.4424 29.0373 58.6467 0.0000 -11.2065 0.0000
# 4 0.0000 0.0000 0.0000 26.2497 0.0000 -4.3856
# 5 -11.6751 -16.6170 -11.2065 0.0000 20.0213 0.0000
# 6 0.0000 0.0000 0.0000 -4.3856 0.0000 22.7182
#
#
#
# Elastic Compliance Matrix: (Units=1/GPa)
#
#
# Indices 1 2 3 4 5 6 
#
# 1 0.014952 -0.005540 0.002400 0.000000 0.005464 0.000000
# 2 -0.005540 0.013510 -0.005207 0.000000 0.005068 0.000000
# 3 0.002400 -0.005207 0.021105 0.000000 0.008891 0.000000
# 4 0.000000 0.000000 0.000000 0.039365 0.000000 0.007599
# 5 0.005464 0.005068 0.008891 0.000000 0.062316 0.000000
# 6 0.000000 0.000000 0.000000 0.007599 0.000000 0.045485
#
#
# Mechanical properties :
#
#
# Convention : Reuss Voigt Hill
#
# Bulk Modulus (GPa) = 30.41935 45.00431 37.71183
# Shear Modulus (GPa) = 22.28302 25.58120 23.93211
#
# Velocity S-wave (km/s) = 3.58637 3.84263 3.71671
# Velocity P-wave (km/s) = 5.89133 6.75757 6.33927
#
# Compressibility (1/GPa) = 0.03287381
#
# Stress axis : x y z
#
# Youngs Moduli (GPa) = 66.87849 74.01901 47.38111
#
# Poissons Ratio (x) = 0.41007 -0.11369
# Poissons Ratio (y) = 0.37051 0.24669
# Poissons Ratio (z) = -0.16048 0.38539
#
# Static dielectric constant tensor:
#      x y z
#    x 1.586970 0.000000 0.011260 
#    y 0.000000 1.593300 0.000000 
#    z 0.011260 0.000000 1.586130 
# 
# From -- ./inp_files/117566.got.cif
#   From: 2010.05.17/outbox.cif.g08.bks.cpg/sg15_59_cif.got.tgz:117566.got - 2010.06.03 18:47:42.
