data_PCOD9270232
_publ_section_title
;
Structure prediction by ZEFSAII (Michael W. Deem and Ramdas Pophale) SiO2 
 PCOD9270232
Probable space group: C 2/C
;
_chemical_formula_sum "Si O2"
_cell_formula_units_Z 52
_cell_length_a 30.211686
_cell_length_b 10.792524
_cell_length_c 8.372826
_cell_angle_alpha 90.000000
_cell_angle_beta 45.070482
_cell_angle_gamma 90.000000
_cell_volume 1932.807674
_symmetry_space_group_name_H-M "C 2/C"
_symmetry_group_IT_number 15
_symmetry_cell_setting 'monoclinic'
loop_
_space_group_symop_operation_xyz
x,y,z
-x,y,1/2-z
-x,-y,-z
x,-y,1/2+z
1/2+x,1/2+y,z
1/2-x,1/2+y,1/2-z
1/2-x,1/2-y,-z
1/2+x,1/2-y,1/2+z
loop_
_atom_site_type_symbol
_atom_site_label
_atom_site_fract_x
_atom_site_fract_y
_atom_site_fract_z
Si Si1 0.253424 0.662054 0.143693
Si Si2 0.500000 0.558260 0.750000
Si Si3 0.066656 0.637331 0.267225
Si Si4 0.873451 0.893394 0.502052
Si Si5 0.639298 0.002089 0.342728
Si Si6 0.465009 0.711378 0.167557
Si Si7 0.168870 0.242898 0.098313
O O1 0.319839 0.599036 0.007558
O O2 0.199373 0.559258 0.275182
O O3 0.233335 0.752067 0.340178
O O4 0.250000 0.750000 0.000000
O O5 0.569596 0.510435 0.626276
O O6 0.521472 0.622838 0.524157
O O7 0.115294 0.602913 0.280072
O O8 0.999103 0.663687 0.511855
O O9 0.089302 0.766307 0.131670
O O10 0.080079 0.533793 0.102339
O O11 0.838476 0.866885 0.756394
O O12 0.659720 0.874366 0.208638
O O13 0.500000 0.686712 0.250000
O O14 0.391092 0.731922 0.365956
#
# Coordination Sequence:
#
# PCOD9270232 Si02
#       7
#     8   4   8   8   8   8   8
#     4  12  22  35  56  79 107 154 200 235 288 343
#     4   8  18  36  56  86 114 146 194 240 290 346
#     4  10  20  36  51  80 114 154 192 229 268 334
#     4   9  19  36  58  75 113 149 185 241 292 337
#     4  11  21  36  53  77 117 148 201 233 272 339
#     4  10  20  35  57  81 117 162 197 226 272 340
#     4  10  22  38  52  81 117 153 194 236 282 343
#
# _framework density 26.903867999999999
#
# number of rings (size 3 to 8) (size 9 to 14) (size 15 to 20)
#    0.000    1.846    3.077    2.308    2.154    0.615 
#    2.769    0.000    0.000    0.000    0.000    1.077 
#    0.000    0.000    0.000    1.692    0.000    0.000 
#
# Total GULP energy -145387.692210 kJ/mol
# GULP energy per Si atom -5591.834316 kJ/mol
# Density = 2.684263 g / cm^3
# Si number density = 26.903868 Si / 1000 Ang^3
#
#
#
# Elastic Constant Matrix: (Units=GPa)
#
#
# Indices 1 2 3 4 5 6 
#
# 1 169.2188 41.0312 61.9118 0.0000 -9.6263 0.0000
# 2 41.0312 79.2897 23.4585 0.0000 0.3708 0.0000
# 3 61.9118 23.4585 93.3446 0.0000 -10.6521 0.0000
# 4 0.0000 0.0000 0.0000 15.5902 0.0000 1.2483
# 5 -9.6263 0.3708 -10.6521 0.0000 44.7392 0.0000
# 6 0.0000 0.0000 0.0000 1.2483 0.0000 37.3370
#
#
#
# Elastic Compliance Matrix: (Units=1/GPa)
#
#
# Indices 1 2 3 4 5 6 
#
# 1 0.008402 -0.002945 -0.004753 0.000000 0.000701 0.000000
# 2 -0.002945 0.014697 -0.001877 0.000000 -0.001203 0.000000
# 3 -0.004753 -0.001877 0.014619 0.000000 0.002474 0.000000
# 4 0.000000 0.000000 0.000000 0.064315 0.000000 -0.002150
# 5 0.000701 -0.001203 0.002474 0.000000 0.023101 0.000000
# 6 0.000000 0.000000 0.000000 -0.002150 0.000000 0.026855
#
#
# Mechanical properties :
#
#
# Convention : Reuss Voigt Hill
#
# Bulk Modulus (GPa) = 53.85555 66.07291 59.96423
# Shear Modulus (GPa) = 28.19591 33.89673 31.04632
#
# Velocity S-wave (km/s) = 3.24083 3.55339 3.40070
# Velocity P-wave (km/s) = 5.83654 6.43798 6.14463
#
# Compressibility (1/GPa) = 0.01856819
#
# Stress axis : x y z
#
# Youngs Moduli (GPa) = 119.01298 68.04052 68.40193
#
# Poissons Ratio (x) = 0.20040 0.32511
# Poissons Ratio (y) = 0.35052 0.12841
# Poissons Ratio (z) = 0.56565 0.12773
#
# Static dielectric constant tensor:
#      x y z
#    x 2.149310 0.000000 0.045190 
#    y 0.000000 2.243740 0.000000 
#    z 0.045190 0.000000 2.060980 
# 
# From -- ./inp_files/70067.got.cif
#   From: 2010.05.17/outbox.cif.g08.bks.cpg/sg15_36_cif.got.tgz:70067.got - 2010.06.03 18:47:42.
