data_PCOD9270982
_publ_section_title
;
Structure prediction by ZEFSAII (Michael W. Deem and Ramdas Pophale) SiO2 
 PCOD9270982
Probable space group: C 2/C
;
_chemical_formula_sum "Si O2"
_cell_formula_units_Z 36
_cell_length_a 23.642391
_cell_length_b 10.265861
_cell_length_c 13.297512
_cell_angle_alpha 90.000000
_cell_angle_beta 27.396571
_cell_angle_gamma 90.000000
_cell_volume 1485.092248
_symmetry_space_group_name_H-M "C 2/C"
_symmetry_group_IT_number 15
_symmetry_cell_setting 'monoclinic'
loop_
_space_group_symop_operation_xyz
x,y,z
-x,y,1/2-z
-x,-y,-z
x,-y,1/2+z
1/2+x,1/2+y,z
1/2-x,1/2+y,1/2-z
1/2-x,1/2-y,-z
1/2+x,1/2-y,1/2+z
loop_
_atom_site_type_symbol
_atom_site_label
_atom_site_fract_x
_atom_site_fract_y
_atom_site_fract_z
Si Si1 0.205386 0.056280 0.498590
Si Si2 0.271265 0.165335 0.620350
Si Si3 0.488468 0.600185 0.428998
Si Si4 0.867263 0.339082 0.285328
Si Si5 0.000000 0.495954 0.250000
O O1 0.235358 0.113656 0.563960
O O2 0.202227 0.180454 0.430870
O O3 0.084292 0.965184 0.699669
O O4 0.317870 0.958803 0.299085
O O5 0.393556 0.090296 0.458990
O O6 0.152910 0.128294 0.874180
O O7 0.500000 0.500000 0.500000
O O8 0.535396 0.734906 0.404980
O O9 0.750000 0.250000 0.500000
O O10 0.932269 0.403170 0.278473
#
# Coordination Sequence:
#
# PCOD9270982 Si02
#       5
#     8   8   8   8   4
#     4   8  16  32  54  79 105 146 186 230 295 340
#     4   9  17  32  53  77 113 143 181 240 285 345
#     4   9  17  32  56  82 110 148 195 242 290 352
#     4   9  18  35  60  83 112 154 194 241 293 352
#     4  10  20  36  56  82 118 150 192 244 298 348
#
# _framework density 24.240919999999999
#
# number of rings (size 3 to 8) (size 9 to 14) (size 15 to 20)
#    0.000    3.111    0.000    1.333    0.000    0.889 
#    4.000    4.444    9.778    0.000    0.000    0.000 
#    0.000    0.000    0.000    0.000    0.000    0.000 
#
# Total GULP energy -100485.048631 kJ/mol
# GULP energy per Si atom -5582.502702 kJ/mol
# Density = 2.418575 g / cm^3
# Si number density = 24.240920 Si / 1000 Ang^3
#
#
#
# Elastic Constant Matrix: (Units=GPa)
#
#
# Indices 1 2 3 4 5 6 
#
# 1 76.0651 41.7866 35.8272 0.0000 -11.3194 0.0000
# 2 41.7866 205.4586 77.6717 0.0000 -13.6157 0.0000
# 3 35.8272 77.6717 155.1312 0.0000 -27.4163 0.0000
# 4 0.0000 0.0000 0.0000 47.9597 0.0000 -6.8470
# 5 -11.3194 -13.6157 -27.4163 0.0000 29.6208 0.0000
# 6 0.0000 0.0000 0.0000 -6.8470 0.0000 13.8609
#
#
#
# Elastic Compliance Matrix: (Units=1/GPa)
#
#
# Indices 1 2 3 4 5 6 
#
# 1 0.015781 -0.002262 -0.001949 0.000000 0.003187 0.000000
# 2 -0.002262 0.006328 -0.002731 0.000000 -0.000484 0.000000
# 3 -0.001949 -0.002731 0.009457 0.000000 0.006753 0.000000
# 4 0.000000 0.000000 0.000000 0.022433 0.000000 0.011081
# 5 0.003187 -0.000484 0.006753 0.000000 0.041006 0.000000
# 6 0.000000 0.000000 0.000000 0.011081 0.000000 0.077619
#
#
# Mechanical properties :
#
#
# Convention : Reuss Voigt Hill
#
# Bulk Modulus (GPa) = 56.55361 83.02510 69.78936
# Shear Modulus (GPa) = 25.98715 37.04625 31.51670
#
# Velocity S-wave (km/s) = 3.27775 3.91353 3.60966
# Velocity P-wave (km/s) = 6.14047 7.39900 6.79892
#
# Compressibility (1/GPa) = 0.01768234
#
# Stress axis : x y z
#
# Youngs Moduli (GPa) = 63.36585 158.03711 105.73863
#
# Poissons Ratio (x) = 0.35742 0.20609
# Poissons Ratio (y) = 0.14331 0.28881
# Poissons Ratio (z) = 0.12350 0.43165
#
# Static dielectric constant tensor:
#      x y z
#    x 1.653630 0.000000 0.137280 
#    y 0.000000 1.917880 0.000000 
#    z 0.137280 0.000000 1.909420 
# 
# From -- ./inp_files/224851.got.cif
#   From: 2010.05.17/outbox.cif.g08.bks.cpg/sg15_113_cif.got.tgz:224851.got - 2010.06.03 18:47:42.
