data_PCOD9270654
_publ_section_title
;
Structure prediction by ZEFSAII (Michael W. Deem and Ramdas Pophale) SiO2 
 PCOD9270654
Probable space group: C 2/C
;
_chemical_formula_sum "Si O2"
_cell_formula_units_Z 48
_cell_length_a 21.157460
_cell_length_b 16.230422
_cell_length_c 9.032828
_cell_angle_alpha 90.000000
_cell_angle_beta 132.381108
_cell_angle_gamma 90.000000
_cell_volume 2291.247647
_symmetry_space_group_name_H-M "C 2/C"
_symmetry_group_IT_number 15
_symmetry_cell_setting 'monoclinic'
loop_
_space_group_symop_operation_xyz
x,y,z
-x,y,1/2-z
-x,-y,-z
x,-y,1/2+z
1/2+x,1/2+y,z
1/2-x,1/2+y,1/2-z
1/2-x,1/2-y,-z
1/2+x,1/2-y,1/2+z
loop_
_atom_site_type_symbol
_atom_site_label
_atom_site_fract_x
_atom_site_fract_y
_atom_site_fract_z
Si Si1 0.587489 0.391842 0.472169
Si Si2 0.597083 0.779040 0.125150
Si Si3 0.088943 0.043551 0.302944
Si Si4 0.233207 0.412170 0.388828
Si Si5 0.361611 0.029417 0.491111
Si Si6 0.500000 0.101081 0.250000
Si Si7 0.000000 0.670209 0.750000
O O1 0.500000 0.369709 0.250000
O O2 0.620794 0.304600 0.579600
O O3 0.626160 0.453683 0.411373
O O4 0.576326 0.442303 0.608425
O O5 0.683391 0.828168 0.288088
O O6 0.544567 0.773951 0.195479
O O7 0.536734 0.839401 0.933192
O O8 0.166872 0.099614 0.480597
O O9 0.000000 0.054332 0.250000
O O10 0.182800 0.480559 0.212330
O O11 0.215594 0.440236 0.528503
O O12 0.426199 0.107164 0.570408
O O13 0.422507 0.961158 0.667550
#
# Coordination Sequence:
#
# PCOD9270654 Si02
#       7
#     8   8   8   8   8   4   4
#     4  11  23  42  65  85 113 154 206 250 295 348
#     4  10  20  35  61  92 124 153 187 247 300 349
#     4  11  24  42  64  83 113 160 209 246 285 349
#     4  10  20  36  60  90 121 156 198 244 294 346
#     4   9  17  31  58  90 126 162 190 228 291 373
#     4   9  16  32  56  87 130 158 188 231 298 362
#     4   9  18  32  54  97 130 160 186 223 298 370
#
# _framework density 20.949283999999999
#
# number of rings (size 3 to 8) (size 9 to 14) (size 15 to 20)
#    0.000    2.000    0.833    4.000    1.167    4.667 
#    0.000    0.000    3.667    4.000    0.000    0.000 
#    0.000    0.000    0.000    0.000    0.000    0.000 
#
# Total GULP energy -133711.687935 kJ/mol
# GULP energy per Si atom -5571.320331 kJ/mol
# Density = 2.090160 g / cm^3
# Si number density = 20.949284 Si / 1000 Ang^3
#
#
#
# Elastic Constant Matrix: (Units=GPa)
#
#
# Indices 1 2 3 4 5 6 
#
# 1 65.8073 28.0484 38.4525 0.0000 17.3326 0.0000
# 2 28.0484 73.7465 18.7875 0.0000 -12.1348 0.0000
# 3 38.4525 18.7875 70.3934 0.0000 2.2899 0.0000
# 4 0.0000 0.0000 0.0000 14.9294 0.0000 -10.3488
# 5 17.3326 -12.1348 2.2899 0.0000 33.6827 0.0000
# 6 0.0000 0.0000 0.0000 -10.3488 0.0000 11.2613
#
#
#
# Elastic Compliance Matrix: (Units=1/GPa)
#
#
# Indices 1 2 3 4 5 6 
#
# 1 0.035487 -0.013265 -0.015128 0.000000 -0.022011 0.000000
# 2 -0.013265 0.020608 0.001285 0.000000 0.014163 0.000000
# 3 -0.015128 0.001285 0.021907 0.000000 0.006758 0.000000
# 4 0.000000 0.000000 0.000000 0.184532 0.000000 0.169580
# 5 -0.022011 0.014163 0.006758 0.000000 0.045659 0.000000
# 6 0.000000 0.000000 0.000000 0.169580 0.000000 0.244639
#
#
# Mechanical properties :
#
#
# Convention : Reuss Voigt Hill
#
# Bulk Modulus (GPa) = 42.04224 42.28046 42.16135
# Shear Modulus (GPa) = 8.13039 20.28525 14.20782
#
# Velocity S-wave (km/s) = 1.97216 3.11513 2.60705
# Velocity P-wave (km/s) = 5.02971 5.75889 5.40661
#
# Compressibility (1/GPa) = 0.02378560
#
# Stress axis : x y z
#
# Youngs Moduli (GPa) = 28.17938 48.52448 45.64753
#
# Poissons Ratio (x) = 0.64367 0.69058
# Poissons Ratio (y) = 0.37379 -0.05866
# Poissons Ratio (z) = 0.42631 -0.06235
#
# Static dielectric constant tensor:
#      x y z
#    x 1.772780 0.000000 0.008900 
#    y 0.000000 1.785170 0.000000 
#    z 0.008900 0.000000 1.764430 
# 
# From -- ./inp_files/56819.got.cif
#   From: 2010.05.17/outbox.cif.g08.bks.cpg/sg15_29_cif.got.tgz:56819.got - 2010.06.03 18:47:42.
