data_PCOD9270856
_publ_section_title
;
Structure prediction by ZEFSAII (Michael W. Deem and Ramdas Pophale) SiO2 
 PCOD9270856
Probable space group: C 2/C
;
_chemical_formula_sum "Si O2"
_cell_formula_units_Z 36
_cell_length_a 13.383018
_cell_length_b 15.529982
_cell_length_c 8.563603
_cell_angle_alpha 90.000000
_cell_angle_beta 69.645580
_cell_angle_gamma 90.000000
_cell_volume 1668.707209
_symmetry_space_group_name_H-M "C 2/C"
_symmetry_group_IT_number 15
_symmetry_cell_setting 'monoclinic'
loop_
_space_group_symop_operation_xyz
x,y,z
-x,y,1/2-z
-x,-y,-z
x,-y,1/2+z
1/2+x,1/2+y,z
1/2-x,1/2+y,1/2-z
1/2-x,1/2-y,-z
1/2+x,1/2-y,1/2+z
loop_
_atom_site_type_symbol
_atom_site_label
_atom_site_fract_x
_atom_site_fract_y
_atom_site_fract_z
Si Si1 0.000000 0.701719 0.750000
Si Si2 0.298912 0.906811 0.802367
Si Si3 0.102333 0.440192 0.416968
Si Si4 0.415481 0.259110 0.093961
Si Si5 0.351152 0.312595 0.432136
O O1 0.930866 0.637649 0.678210
O O2 0.076716 0.758171 0.597129
O O3 0.356613 0.830382 0.673071
O O4 0.311796 0.996424 0.707163
O O5 0.361738 0.912990 0.931618
O O6 0.180024 0.885010 0.926040
O O7 0.000000 0.500000 0.500000
O O8 0.361694 0.328914 0.239829
O O9 0.539507 0.267829 0.076210
O O10 0.250000 0.250000 0.500000
#
# Coordination Sequence:
#
# PCOD9270856 Si02
#       5
#     4   8   8   8   8
#     4  12  20  30  58  78 106 136 172 222 272 302
#     4  11  21  36  55  82 108 141 175 210 275 315
#     4  12  20  31  53  80 111 136 165 221 266 317
#     4  10  20  36  53  79 106 140 177 218 261 310
#     4   9  19  33  55  72 107 144 174 211 263 321
#
# _framework density 21.573588000000001
#
# number of rings (size 3 to 8) (size 9 to 14) (size 15 to 20)
#    0.000    1.333    4.444    4.000    3.111    0.000 
#    0.000   12.222    0.000    5.333    0.000    0.000 
#    0.000    0.000    0.000    0.000    0.000    0.000 
#
# Total GULP energy -100313.078341 kJ/mol
# GULP energy per Si atom -5572.948797 kJ/mol
# Density = 2.152449 g / cm^3
# Si number density = 21.573588 Si / 1000 Ang^3
#
#
#
# Elastic Constant Matrix: (Units=GPa)
#
#
# Indices 1 2 3 4 5 6 
#
# 1 30.0609 -4.6021 4.5527 0.0000 -16.0844 0.0000
# 2 -4.6021 36.6654 28.6344 0.0000 -15.9323 0.0000
# 3 4.5527 28.6344 179.5159 0.0000 -22.3431 0.0000
# 4 0.0000 0.0000 0.0000 30.5586 0.0000 3.9859
# 5 -16.0844 -15.9323 -22.3431 0.0000 37.7132 0.0000
# 6 0.0000 0.0000 0.0000 3.9859 0.0000 13.0925
#
#
#
# Elastic Compliance Matrix: (Units=1/GPa)
#
#
# Indices 1 2 3 4 5 6 
#
# 1 0.053117 0.020739 -0.000804 0.000000 0.030939 0.000000
# 2 0.020739 0.044174 -0.004479 0.000000 0.024853 0.000000
# 3 -0.000804 -0.004479 0.006507 0.000000 0.001620 0.000000
# 4 0.000000 0.000000 0.000000 0.034077 0.000000 -0.010374
# 5 0.030939 0.024853 0.001620 0.000000 0.051170 0.000000
# 6 0.000000 0.000000 0.000000 -0.010374 0.000000 0.079538
#
#
# Mechanical properties :
#
#
# Convention : Reuss Voigt Hill
#
# Bulk Modulus (GPa) = 7.42340 33.71246 20.56793
# Shear Modulus (GPa) = 17.69445 30.78333 24.23889
#
# Velocity S-wave (km/s) = 2.86700 3.78153 3.35557
# Velocity P-wave (km/s) = 3.79579 5.89299 4.95658
#
# Compressibility (1/GPa) = 0.13470916
#
# Stress axis : x y z
#
# Youngs Moduli (GPa) = 18.82651 22.63771 153.68170
#
# Poissons Ratio (x) = -0.46948 0.12362
# Poissons Ratio (y) = -0.39044 0.68831
# Poissons Ratio (z) = 0.01514 0.10139
#
# Static dielectric constant tensor:
#      x y z
#    x 1.855770 0.000000 -0.040500 
#    y 0.000000 1.984020 0.000000 
#    z -0.040500 0.000000 1.914250 
# 
# From -- ./inp_files/38560.got.cif
#   From: 2010.05.17/outbox.cif.g08.bks.cpg/sg15_20_cif.got.tgz:38560.got - 2010.06.03 18:47:42.
