data_PCOD9270926
_publ_section_title
;
Structure prediction by ZEFSAII (Michael W. Deem and Ramdas Pophale) SiO2 
 PCOD9270926
Probable space group: C 2/C
;
_chemical_formula_sum "Si O2"
_cell_formula_units_Z 64
_cell_length_a 14.833147
_cell_length_b 8.241863
_cell_length_c 29.854478
_cell_angle_alpha 90.000000
_cell_angle_beta 112.976587
_cell_angle_gamma 90.000000
_cell_volume 3360.234174
_symmetry_space_group_name_H-M "C 2/C"
_symmetry_group_IT_number 15
_symmetry_cell_setting 'monoclinic'
loop_
_space_group_symop_operation_xyz
x,y,z
-x,y,1/2-z
-x,-y,-z
x,-y,1/2+z
1/2+x,1/2+y,z
1/2-x,1/2+y,1/2-z
1/2-x,1/2-y,-z
1/2+x,1/2-y,1/2+z
loop_
_atom_site_type_symbol
_atom_site_label
_atom_site_fract_x
_atom_site_fract_y
_atom_site_fract_z
Si Si1 0.567460 0.263575 0.857169
Si Si2 0.469368 0.408190 0.193949
Si Si3 0.430077 0.627419 0.408450
Si Si4 0.716287 0.865144 0.591724
Si Si5 0.230112 0.772770 0.387072
Si Si6 0.924172 0.781857 0.372069
Si Si7 0.598309 0.039121 0.408862
Si Si8 0.059745 0.647372 0.989299
O O1 0.543819 0.395863 0.814310
O O2 0.480486 0.288936 0.875449
O O3 0.671664 0.324835 0.895802
O O4 0.585057 0.070013 0.861066
O O5 0.500000 0.368817 0.250000
O O6 0.365043 0.326425 0.160323
O O7 0.549209 0.343027 0.173023
O O8 0.314528 0.659675 0.383551
O O9 0.448848 0.437469 0.407136
O O10 0.484394 0.711618 0.460562
O O11 0.680493 0.787373 0.632003
O O12 0.643288 0.799988 0.539934
O O13 0.713861 0.060160 0.591255
O O14 0.183342 0.670162 0.418503
O O15 0.998597 0.637105 0.396420
O O16 0.609581 0.924453 0.453941
O O17 0.000000 0.500000 0.000000
#
# Coordination Sequence:
#
# PCOD9270926 Si02
#       8
#     8   8   8   8   8   8   8   8
#     4   9  20  37  59  82 114 150 185 235 292 336
#     4   9  20  40  63  87 108 136 182 235 290 357
#     4  10  20  36  55  82 116 156 194 235 282 336
#     4  11  20  36  56  84 118 158 193 238 285 333
#     4  10  20  36  59  82 115 152 187 236 293 334
#     4  10  20  36  59  82 116 150 187 236 293 337
#     4  10  20  36  55  82 117 157 193 236 282 334
#     4  11  20  36  55  81 119 158 206 239 273 336
#
# _framework density 19.046292000000001
#
# number of rings (size 3 to 8) (size 9 to 14) (size 15 to 20)
#    0.000    2.000    2.500    2.250    0.000    3.000 
#    0.000    7.500    0.000    0.000    0.000    0.000 
#    0.000    0.000    0.000    0.000    0.000    0.000 
#
# Total GULP energy -178153.149995 kJ/mol
# GULP energy per Si atom -5567.285937 kJ/mol
# Density = 1.900294 g / cm^3
# Si number density = 19.046292 Si / 1000 Ang^3
#
#
#
# Elastic Constant Matrix: (Units=GPa)
#
#
# Indices 1 2 3 4 5 6 
#
# 1 72.6502 -3.1196 31.7886 0.0000 -6.2157 0.0000
# 2 -3.1196 77.7373 19.6207 0.0000 -8.0598 0.0000
# 3 31.7886 19.6207 82.5495 0.0000 -9.6202 0.0000
# 4 0.0000 0.0000 0.0000 19.9287 0.0000 -6.6238
# 5 -6.2157 -8.0598 -9.6202 0.0000 15.5067 0.0000
# 6 0.0000 0.0000 0.0000 -6.6238 0.0000 39.2273
#
#
#
# Elastic Compliance Matrix: (Units=1/GPa)
#
#
# Indices 1 2 3 4 5 6 
#
# 1 0.017229 0.002845 -0.006827 0.000000 0.004149 0.000000
# 2 0.002845 0.014603 -0.003825 0.000000 0.006357 0.000000
# 3 -0.006827 -0.003825 0.016279 0.000000 0.005374 0.000000
# 4 0.000000 0.000000 0.000000 0.053163 0.000000 0.008977
# 5 0.004149 0.006357 0.005374 0.000000 0.072790 0.000000
# 6 0.000000 0.000000 0.000000 0.008977 0.000000 0.027008
#
#
# Mechanical properties :
#
#
# Convention : Reuss Voigt Hill
#
# Bulk Modulus (GPa) = 30.77463 36.61294 33.69379
# Shear Modulus (GPa) = 21.97626 27.24235 24.60930
#
# Velocity S-wave (km/s) = 3.40050 3.78606 3.59845
# Velocity P-wave (km/s) = 5.62234 6.19494 5.91557
#
# Compressibility (1/GPa) = 0.03249430
#
# Stress axis : x y z
#
# Youngs Moduli (GPa) = 58.04157 68.48091 61.43049
#
# Poissons Ratio (x) = -0.19481 0.41940
# Poissons Ratio (y) = -0.16511 0.23500
# Poissons Ratio (z) = 0.39626 0.26197
#
# Static dielectric constant tensor:
#      x y z
#    x 1.677630 0.000000 -0.034970 
#    y 0.000000 1.728970 0.000000 
#    z -0.034970 0.000000 1.651880 
# 
# From -- ./inp_files/295195.got.cif
#   From: 2010.05.17/outbox.cif.g08.bks.cpg/sg15_148_cif.got.tgz:295195.got - 2010.06.03 18:47:42.
