data_PCOD9270334
_publ_section_title
;
Structure prediction by ZEFSAII (Michael W. Deem and Ramdas Pophale) SiO2 
 PCOD9270334
Probable space group: C 2/C
;
_chemical_formula_sum "Si O2"
_cell_formula_units_Z 60
_cell_length_a 19.710636
_cell_length_b 17.783830
_cell_length_c 9.314951
_cell_angle_alpha 90.000000
_cell_angle_beta 77.209221
_cell_angle_gamma 90.000000
_cell_volume 3184.150025
_symmetry_space_group_name_H-M "C 2/C"
_symmetry_group_IT_number 15
_symmetry_cell_setting 'monoclinic'
loop_
_space_group_symop_operation_xyz
x,y,z
-x,y,1/2-z
-x,-y,-z
x,-y,1/2+z
1/2+x,1/2+y,z
1/2-x,1/2+y,1/2-z
1/2-x,1/2-y,-z
1/2+x,1/2-y,1/2+z
loop_
_atom_site_type_symbol
_atom_site_label
_atom_site_fract_x
_atom_site_fract_y
_atom_site_fract_z
Si Si1 0.213185 0.352106 0.769066
Si Si2 0.500000 0.008979 0.750000
Si Si3 0.595212 0.944390 0.952824
Si Si4 0.917213 0.101466 0.803564
Si Si5 0.806617 0.086013 0.451654
Si Si6 0.291147 0.677146 0.739350
Si Si7 0.417464 0.501553 0.541408
Si Si8 0.711847 0.059799 0.979085
O O1 0.148052 0.375012 0.902465
O O2 0.225399 0.264364 0.741903
O O3 0.196723 0.394558 0.629796
O O4 0.282378 0.386446 0.808896
O O5 0.549503 0.056961 0.619752
O O6 0.545951 0.958923 0.838436
O O7 0.645053 0.017632 0.945651
O O8 0.869250 0.166673 0.765339
O O9 0.000000 0.114454 0.750000
O O10 0.897622 0.030484 0.708206
O O11 0.898153 0.076754 0.974046
O O12 0.785840 0.148208 0.578843
O O13 0.885453 0.065975 0.454214
O O14 0.764234 0.008332 0.495042
O O15 0.245515 0.618530 0.852824
O O16 0.500000 0.500000 0.500000
#
# Coordination Sequence:
#
# PCOD9270334 Si02
#       8
#     8   4   8   8   8   8   8   8
#     4  11  23  37  55  89 123 156 191 247 307 367
#     4  10  20  40  66  92 112 154 206 260 302 356
#     4  10  21  39  64  92 116 151 209 252 303 361
#     4   9  18  33  51  80 105 145 187 234 283 345
#     4  10  20  35  58  81 111 155 198 245 292 355
#     4  11  22  36  55  86 122 158 193 246 310 353
#     4   9  17  30  53  79 104 135 189 237 277 328
#     4  11  21  37  60  88 117 151 203 249 292 362
#
# _framework density 18.843333999999999
#
# number of rings (size 3 to 8) (size 9 to 14) (size 15 to 20)
#    0.000    1.867    2.667    2.400    3.733    0.000 
#    1.200    0.000    0.000    0.000   27.733    0.000 
#    0.000    0.000    0.000    0.000    0.000    0.000 
#
# Total GULP energy -167155.652854 kJ/mol
# GULP energy per Si atom -5571.855095 kJ/mol
# Density = 1.880045 g / cm^3
# Si number density = 18.843334 Si / 1000 Ang^3
#
#
#
# Elastic Constant Matrix: (Units=GPa)
#
#
# Indices 1 2 3 4 5 6 
#
# 1 95.3149 19.7113 23.3594 0.0000 13.6024 0.0000
# 2 19.7113 95.8516 13.2415 0.0000 1.5598 0.0000
# 3 23.3594 13.2415 64.0071 0.0000 8.3778 0.0000
# 4 0.0000 0.0000 0.0000 15.0022 0.0000 6.0705
# 5 13.6024 1.5598 8.3778 0.0000 24.3833 0.0000
# 6 0.0000 0.0000 0.0000 6.0705 0.0000 13.3223
#
#
#
# Elastic Compliance Matrix: (Units=1/GPa)
#
#
# Indices 1 2 3 4 5 6 
#
# 1 0.012561 -0.002018 -0.003420 0.000000 -0.005703 0.000000
# 2 -0.002018 0.011064 -0.001683 0.000000 0.000996 0.000000
# 3 -0.003420 -0.001683 0.017754 0.000000 -0.004084 0.000000
# 4 0.000000 0.000000 0.000000 0.081725 0.000000 -0.037239
# 5 -0.005703 0.000996 -0.004084 0.000000 0.045533 0.000000
# 6 0.000000 0.000000 0.000000 -0.037239 0.000000 0.092030
#
#
# Mechanical properties :
#
#
# Convention : Reuss Voigt Hill
#
# Bulk Modulus (GPa) = 36.84951 40.86647 38.85799
# Shear Modulus (GPa) = 17.60844 23.79900 20.70372
#
# Velocity S-wave (km/s) = 3.06022 3.55772 3.31830
# Velocity P-wave (km/s) = 5.66434 6.21378 5.94541
#
# Compressibility (1/GPa) = 0.02713740
#
# Stress axis : x y z
#
# Youngs Moduli (GPa) = 79.61210 90.38317 56.32459
#
# Poissons Ratio (x) = 0.18237 0.19264
# Poissons Ratio (y) = 0.16064 0.09479
# Poissons Ratio (z) = 0.27229 0.15210
#
# Static dielectric constant tensor:
#      x y z
#    x 1.703860 0.000000 -0.013040 
#    y 0.000000 1.613500 0.000000 
#    z -0.013040 0.000000 1.703310 
# 
# From -- ./inp_files/56575.got.cif
#   From: 2010.05.17/outbox.cif.g08.bks.cpg/sg15_29_cif.got.tgz:56575.got - 2010.06.03 18:47:42.
