data_PCOD9270502
_publ_section_title
;
Structure prediction by ZEFSAII (Michael W. Deem and Ramdas Pophale) SiO2 
 PCOD9270502
Probable space group: C 2/C
;
_chemical_formula_sum "Si O2"
_cell_formula_units_Z 48
_cell_length_a 18.222172
_cell_length_b 14.538103
_cell_length_c 17.550498
_cell_angle_alpha 90.000000
_cell_angle_beta 150.564853
_cell_angle_gamma 90.000000
_cell_volume 2284.894447
_symmetry_space_group_name_H-M "C 2/C"
_symmetry_group_IT_number 15
_symmetry_cell_setting 'monoclinic'
loop_
_space_group_symop_operation_xyz
x,y,z
-x,y,1/2-z
-x,-y,-z
x,-y,1/2+z
1/2+x,1/2+y,z
1/2-x,1/2+y,1/2-z
1/2-x,1/2-y,-z
1/2+x,1/2-y,1/2+z
loop_
_atom_site_type_symbol
_atom_site_label
_atom_site_fract_x
_atom_site_fract_y
_atom_site_fract_z
Si Si1 0.000000 0.564685 0.750000
Si Si2 0.994239 0.293751 0.123373
Si Si3 0.363891 0.823475 0.568230
Si Si4 0.290081 0.525133 0.499701
Si Si5 0.778909 0.772528 0.297146
Si Si6 0.074995 0.824399 0.493967
Si Si7 0.500000 0.634834 0.250000
O O1 0.931750 0.631271 0.624871
O O2 0.870865 0.508347 0.674889
O O3 0.142817 0.325754 0.213799
O O4 0.036561 0.204588 0.213381
O O5 0.873987 0.270524 0.951358
O O6 0.500000 0.833221 0.750000
O O7 0.250000 0.750000 0.500000
O O8 0.264156 0.914903 0.475937
O O9 0.423643 0.774852 0.547438
O O10 0.372994 0.593801 0.515732
O O11 0.381345 0.436527 0.607229
O O12 0.696530 0.695375 0.170264
O O13 0.903831 0.833315 0.366639
#
# Coordination Sequence:
#
# PCOD9270502 Si02
#       7
#     4   8   8   8   8   8   4
#     4  11  22  42  67  88 120 156 213 284 294 357
#     4  10  22  44  67  86 114 172 222 250 314 349
#     4  10  20  35  59  89 127 164 201 243 301 373
#     4  11  23  36  62  98 128 150 207 268 317 351
#     4  10  21  40  66  86 123 173 203 238 301 411
#     4  10  22  37  63  91 129 167 194 240 321 387
#     4  11  24  40  67  94 120 158 219 280 294 353
#
# _framework density 21.007535000000001
#
# number of rings (size 3 to 8) (size 9 to 14) (size 15 to 20)
#    0.000    1.667    0.833    4.000    7.000    2.667 
#    0.000    8.333    3.667    0.000    0.000    0.000 
#    0.000    0.000    0.000    0.000    0.000    0.000 
#
# Total GULP energy -133709.153823 kJ/mol
# GULP energy per Si atom -5571.214743 kJ/mol
# Density = 2.095972 g / cm^3
# Si number density = 21.007535 Si / 1000 Ang^3
#
#
#
# Elastic Constant Matrix: (Units=GPa)
#
#
# Indices 1 2 3 4 5 6 
#
# 1 98.1817 34.8530 43.6651 0.0001 12.1739 0.0002
# 2 34.8530 86.8228 14.8315 0.0001 8.6180 0.0002
# 3 43.6651 14.8315 93.5371 0.0001 10.6776 0.0003
# 4 0.0001 0.0001 0.0001 28.4933 0.0001 1.8232
# 5 12.1739 8.6180 10.6776 0.0001 40.0982 0.0002
# 6 0.0002 0.0002 0.0003 1.8232 0.0002 20.1062
#
#
#
# Elastic Compliance Matrix: (Units=1/GPa)
#
#
# Indices 1 2 3 4 5 6 
#
# 1 0.014720 -0.004713 -0.005909 0.000000 -0.001883 0.000000
# 2 -0.004713 0.013523 0.000231 0.000000 -0.001537 0.000000
# 3 -0.005909 0.000231 0.013628 0.000000 -0.001885 0.000000
# 4 0.000000 0.000000 0.000000 0.035301 0.000000 -0.003201
# 5 -0.001883 -0.001537 -0.001885 0.000000 0.026342 0.000000
# 6 0.000000 0.000000 0.000000 -0.003201 0.000000 0.050026
#
#
# Mechanical properties :
#
#
# Convention : Reuss Voigt Hill
#
# Bulk Modulus (GPa) = 47.41835 51.69342 49.55589
# Shear Modulus (GPa) = 27.57096 30.08569 28.82832
#
# Velocity S-wave (km/s) = 3.62668 3.78847 3.70846
# Velocity P-wave (km/s) = 6.33705 6.61794 6.47902
#
# Compressibility (1/GPa) = 0.02108888
#
# Stress axis : x y z
#
# Youngs Moduli (GPa) = 67.93675 73.95071 73.37843
#
# Poissons Ratio (x) = 0.34849 0.43361
# Poissons Ratio (y) = 0.32015 -0.01697
# Poissons Ratio (z) = 0.40146 -0.01710
#
# Static dielectric constant tensor:
#      x y z
#    x 1.774790 0.000000 0.008180 
#    y 0.000000 1.814870 0.000000 
#    z 0.008180 0.000000 1.785620 
# 
# From -- ./inp_files/55462.got.cif
#   From: 2010.05.17/outbox.cif.g08.bks.cpg/sg15_28_cif.got.tgz:55462.got - 2010.06.03 18:47:42.
