data_PCOD9270951
_publ_section_title
;
Structure prediction by ZEFSAII (Michael W. Deem and Ramdas Pophale) SiO2 
 PCOD9270951
Probable space group: C 2/C
;
_chemical_formula_sum "Si O2"
_cell_formula_units_Z 48
_cell_length_a 17.550045
_cell_length_b 22.821263
_cell_length_c 8.650482
_cell_angle_alpha 90.000000
_cell_angle_beta 45.131959
_cell_angle_gamma 90.000000
_cell_volume 2455.506856
_symmetry_space_group_name_H-M "C 2/C"
_symmetry_group_IT_number 15
_symmetry_cell_setting 'monoclinic'
loop_
_space_group_symop_operation_xyz
x,y,z
-x,y,1/2-z
-x,-y,-z
x,-y,1/2+z
1/2+x,1/2+y,z
1/2-x,1/2+y,1/2-z
1/2-x,1/2-y,-z
1/2+x,1/2-y,1/2+z
loop_
_atom_site_type_symbol
_atom_site_label
_atom_site_fract_x
_atom_site_fract_y
_atom_site_fract_z
Si Si1 0.667193 0.443097 0.300941
Si Si2 0.885461 0.364410 0.476406
Si Si3 0.798896 0.066586 0.098493
Si Si4 0.419548 0.742101 0.512608
Si Si5 0.037332 0.137203 0.464387
Si Si6 0.776767 0.153956 0.555033
O O1 0.658712 0.507532 0.382575
O O2 0.552051 0.411141 0.448541
O O3 0.735659 0.401982 0.317072
O O4 0.715993 0.444373 0.060352
O O5 0.809028 0.412429 0.662136
O O6 0.899156 0.309923 0.574975
O O7 0.822408 0.338259 0.417450
O O8 0.000000 0.385586 0.250000
O O9 0.889447 0.116502 0.998147
O O10 0.500000 0.743524 0.250000
O O11 0.476722 0.699661 0.554430
O O12 0.311822 0.709099 0.608774
O O13 0.121466 0.140604 0.201816
#
# Coordination Sequence:
#
# PCOD9270951 Si02
#       6
#     8   8   8   8   8   8
#     4  11  21  36  55  83 114 141 176 225 281 334
#     4  10  20  36  56  78 104 145 192 228 261 312
#     4  11  22  35  55  83 112 146 180 223 277 327
#     4   8  15  30  56  83 107 138 179 220 265 323
#     4   9  18  33  56  86 115 140 170 216 275 335
#     4   9  18  34  56  83 111 142 178 222 271 325
#
# _framework density 19.547899000000001
#
# number of rings (size 3 to 8) (size 9 to 14) (size 15 to 20)
#    0.000    2.333    0.000    5.000    0.000    2.667 
#    0.000    7.500    0.000   12.000    0.000    0.000 
#    0.000    0.000    0.000    0.000    0.000    0.000 
#
# Total GULP energy -133915.331950 kJ/mol
# GULP energy per Si atom -5579.805498 kJ/mol
# Density = 1.950341 g / cm^3
# Si number density = 19.547899 Si / 1000 Ang^3
#
#
#
# Elastic Constant Matrix: (Units=GPa)
#
#
# Indices 1 2 3 4 5 6 
#
# 1 63.4412 18.9496 26.9661 0.0000 -2.8432 0.0000
# 2 18.9496 58.1674 6.9027 0.0000 -3.0706 0.0000
# 3 26.9661 6.9027 40.7677 0.0000 -11.2738 0.0000
# 4 0.0000 0.0000 0.0000 23.2943 0.0000 6.8148
# 5 -2.8432 -3.0706 -11.2738 0.0000 35.7449 0.0000
# 6 0.0000 0.0000 0.0000 6.8148 0.0000 15.5469
#
#
#
# Elastic Compliance Matrix: (Units=1/GPa)
#
#
# Indices 1 2 3 4 5 6 
#
# 1 0.024251 -0.006194 -0.016001 0.000000 -0.003650 0.000000
# 2 -0.006194 0.019139 0.001287 0.000000 0.001557 0.000000
# 3 -0.016001 0.001287 0.037878 0.000000 0.010784 0.000000
# 4 0.000000 0.000000 0.000000 0.049244 0.000000 -0.021586
# 5 -0.003650 0.001557 0.010784 0.000000 0.031221 0.000000
# 6 0.000000 0.000000 0.000000 -0.021586 0.000000 0.073783
#
#
# Mechanical properties :
#
#
# Convention : Reuss Voigt Hill
#
# Bulk Modulus (GPa) = 25.34786 29.77923 27.56355
# Shear Modulus (GPa) = 17.21275 22.22108 19.71692
#
# Velocity S-wave (km/s) = 2.97061 3.37523 3.17936
# Velocity P-wave (km/s) = 4.97607 5.51875 5.25442
#
# Compressibility (1/GPa) = 0.03945106
#
# Stress axis : x y z
#
# Youngs Moduli (GPa) = 41.23591 52.24904 26.40071
#
# Poissons Ratio (x) = 0.32364 0.42245
# Poissons Ratio (y) = 0.25542 -0.03398
# Poissons Ratio (z) = 0.65983 -0.06726
#
# Static dielectric constant tensor:
#      x y z
#    x 1.698760 0.000000 0.004630 
#    y 0.000000 1.720910 0.000000 
#    z 0.004630 0.000000 1.676890 
# 
# From -- ./inp_files/50038.got.cif
#   From: 2010.05.17/outbox.cif.g08.bks.cpg/sg15_26_cif.got.tgz:50038.got - 2010.06.03 18:47:42.
