data_PCOD9270775
_publ_section_title
;
Structure prediction by ZEFSAII (Michael W. Deem and Ramdas Pophale) SiO2 
 PCOD9270775
Probable space group: C 2/C
;
_chemical_formula_sum "Si O2"
_cell_formula_units_Z 52
_cell_length_a 7.653808
_cell_length_b 21.514239
_cell_length_c 16.213300
_cell_angle_alpha 90.000000
_cell_angle_beta 128.316053
_cell_angle_gamma 90.000000
_cell_volume 2094.714141
_symmetry_space_group_name_H-M "C 2/C"
_symmetry_group_IT_number 15
_symmetry_cell_setting 'monoclinic'
loop_
_space_group_symop_operation_xyz
x,y,z
-x,y,1/2-z
-x,-y,-z
x,-y,1/2+z
1/2+x,1/2+y,z
1/2-x,1/2+y,1/2-z
1/2-x,1/2-y,-z
1/2+x,1/2-y,1/2+z
loop_
_atom_site_type_symbol
_atom_site_label
_atom_site_fract_x
_atom_site_fract_y
_atom_site_fract_z
Si Si1 0.277884 0.089205 0.636684
Si Si2 0.961626 0.672935 0.336888
Si Si3 0.126462 0.197398 0.703729
Si Si4 0.949235 0.702045 0.578338
Si Si5 0.682604 0.529059 0.443136
Si Si6 0.500000 0.608877 0.250000
Si Si7 0.133061 0.401579 0.016515
O O1 0.500000 0.065607 0.750000
O O2 0.148719 0.132426 0.664293
O O3 0.340465 0.145023 0.593713
O O4 0.184256 0.040529 0.542596
O O5 0.987405 0.744417 0.374087
O O6 0.722873 0.649192 0.301383
O O7 0.133685 0.622941 0.423459
O O8 0.000000 0.674853 0.250000
O O9 0.365248 0.225634 0.803028
O O10 0.000000 0.183380 0.750000
O O11 0.750000 0.750000 0.500000
O O12 0.090853 0.664228 0.550724
O O13 0.508991 0.565863 0.334968
O O14 0.911530 0.560041 0.476343
O O15 0.686566 0.456200 0.421580
#
# Coordination Sequence:
#
# PCOD9270775 Si02
#       7
#     8   8   8   8   8   4   8
#     4   9  19  35  62  96 128 177 236 275 348 436
#     4  10  22  39  61  94 134 176 232 294 362 431
#     4  10  22  39  58  98 142 179 223 302 361 421
#     4  10  20  35  64  97 129 179 230 284 356 435
#     4   9  19  38  65  95 127 177 234 284 348 416
#     4  10  22  40  68  98 132 182 232 300 358 440
#     4   9  19  38  61  93 129 172 225 292 342 408
#
# _framework density 24.824390999999999
#
# number of rings (size 3 to 8) (size 9 to 14) (size 15 to 20)
#    0.000    2.462    0.000    0.923    9.692    0.615 
#    4.154    4.615    0.000    0.000    0.000    0.000 
#    0.000    0.000    0.000    0.000    0.000    0.000 
#
# Total GULP energy -144829.618223 kJ/mol
# GULP energy per Si atom -5570.369932 kJ/mol
# Density = 2.476789 g / cm^3
# Si number density = 24.824391 Si / 1000 Ang^3
#
#
#
# Elastic Constant Matrix: (Units=GPa)
#
#
# Indices 1 2 3 4 5 6 
#
# 1 69.2514 54.8540 30.5930 0.0000 -16.8718 0.0000
# 2 54.8540 121.1214 74.8977 0.0000 -4.8676 0.0000
# 3 30.5930 74.8977 95.2034 0.0000 -6.7055 0.0000
# 4 0.0000 0.0000 0.0000 18.5785 0.0000 -0.6815
# 5 -16.8718 -4.8676 -6.7055 0.0000 26.7845 0.0000
# 6 0.0000 0.0000 0.0000 -0.6815 0.0000 72.8184
#
#
#
# Elastic Compliance Matrix: (Units=1/GPa)
#
#
# Indices 1 2 3 4 5 6 
#
# 1 0.027993 -0.013960 0.003105 0.000000 0.015874 0.000000
# 2 -0.013960 0.023041 -0.014216 0.000000 -0.008165 0.000000
# 3 0.003105 -0.014216 0.021016 0.000000 0.004634 0.000000
# 4 0.000000 0.000000 0.000000 0.053844 0.000000 0.000504
# 5 0.015874 -0.008165 0.004634 0.000000 0.047010 0.000000
# 6 0.000000 0.000000 0.000000 0.000504 0.000000 0.013738
#
#
# Mechanical properties :
#
#
# Convention : Reuss Voigt Hill
#
# Bulk Modulus (GPa) = 45.64318 67.36286 56.50302
# Shear Modulus (GPa) = 20.48458 31.98505 26.23482
#
# Velocity S-wave (km/s) = 2.87571 3.59340 3.25440
# Velocity P-wave (km/s) = 5.42703 6.66418 6.07717
#
# Compressibility (1/GPa) = 0.02190908
#
# Stress axis : x y z
#
# Youngs Moduli (GPa) = 35.72275 43.40152 47.58274
#
# Poissons Ratio (x) = 0.60588 -0.14774
# Poissons Ratio (y) = 0.49868 0.67642
# Poissons Ratio (z) = -0.11091 0.61698
#
# Static dielectric constant tensor:
#      x y z
#    x 2.208270 0.000000 0.102620 
#    y 0.000000 1.968280 0.000000 
#    z 0.102620 0.000000 2.286130 
# 
# From -- ./inp_files/137536.got.cif
#   From: 2010.05.17/outbox.cif.g08.bks.cpg/sg15_69_cif.got.tgz:137536.got - 2010.06.03 18:47:42.
