data_PCOD9270200
_publ_section_title
;
Structure prediction by ZEFSAII (Michael W. Deem and Ramdas Pophale) SiO2 
 PCOD9270200
Probable space group: C 2/C
;
_chemical_formula_sum "Si O2"
_cell_formula_units_Z 36
_cell_length_a 23.087185
_cell_length_b 16.241380
_cell_length_c 5.179915
_cell_angle_alpha 90.000000
_cell_angle_beta 60.319985
_cell_angle_gamma 90.000000
_cell_volume 1687.479460
_symmetry_space_group_name_H-M "C 2/C"
_symmetry_group_IT_number 15
_symmetry_cell_setting 'monoclinic'
loop_
_space_group_symop_operation_xyz
x,y,z
-x,y,1/2-z
-x,-y,-z
x,-y,1/2+z
1/2+x,1/2+y,z
1/2-x,1/2+y,1/2-z
1/2-x,1/2-y,-z
1/2+x,1/2-y,1/2+z
loop_
_atom_site_type_symbol
_atom_site_label
_atom_site_fract_x
_atom_site_fract_y
_atom_site_fract_z
Si Si1 0.321727 0.776008 0.940988
Si Si2 0.075018 0.962849 0.823040
Si Si3 0.379688 0.052582 0.286803
Si Si4 0.500000 0.150958 0.250000
Si Si5 0.400659 0.728005 0.258286
O O1 0.327598 0.874400 0.954066
O O2 0.373949 0.750206 0.600506
O O3 0.250000 0.750000 0.000000
O O4 0.343202 0.736708 0.166434
O O5 0.073128 0.865303 0.801294
O O6 0.109066 0.006802 0.507689
O O7 0.000000 0.000000 0.000000
O O8 0.450903 0.094377 0.191336
O O9 0.373208 0.980522 0.511891
O O10 0.456616 0.209005 0.533212
#
# Coordination Sequence:
#
# PCOD9270200 Si02
#       5
#     8   8   8   4   8
#     4  11  25  46  66  87 122 171 217 255 297 363
#     4  10  20  35  56  87 128 162 194 250 309 363
#     4  11  23  40  63  95 127 159 199 257 314 367
#     4  10  22  38  64  98 130 162 198 250 322 390
#     4  11  23  40  65  94 124 167 210 252 313 378
#
# _framework density 21.333594999999999
#
# number of rings (size 3 to 8) (size 9 to 14) (size 15 to 20)
#    0.000    1.333    0.000    6.667    0.000   12.444 
#    0.000    6.667    0.000    0.000    0.000    0.000 
#    0.000    0.000    0.000    0.000    0.000    0.000 
#
# Total GULP energy -100682.200635 kJ/mol
# GULP energy per Si atom -5593.455591 kJ/mol
# Density = 2.128504 g / cm^3
# Si number density = 21.333595 Si / 1000 Ang^3
#
#
#
# Elastic Constant Matrix: (Units=GPa)
#
#
# Indices 1 2 3 4 5 6 
#
# 1 52.4909 0.6164 -13.6393 0.0000 -4.0259 0.0000
# 2 0.6164 105.1248 -1.2359 0.0000 -7.7354 0.0000
# 3 -13.6393 -1.2359 64.9510 0.0000 29.1024 0.0000
# 4 0.0000 0.0000 0.0000 26.4946 0.0000 12.3688
# 5 -4.0259 -7.7354 29.1024 0.0000 36.2627 0.0000
# 6 0.0000 0.0000 0.0000 12.3688 0.0000 28.8360
#
#
#
# Elastic Compliance Matrix: (Units=1/GPa)
#
#
# Indices 1 2 3 4 5 6 
#
# 1 0.020231 -0.000197 0.005086 0.000000 -0.001878 0.000000
# 2 -0.000197 0.009722 -0.001211 0.000000 0.003024 0.000000
# 3 0.005086 -0.001211 0.025459 0.000000 -0.020126 0.000000
# 4 0.000000 0.000000 0.000000 0.047194 0.000000 -0.020243
# 5 -0.001878 0.003024 -0.020126 0.000000 0.044165 0.000000
# 6 0.000000 0.000000 0.000000 -0.020243 0.000000 0.043362
#
#
# Mechanical properties :
#
#
# Convention : Reuss Voigt Hill
#
# Bulk Modulus (GPa) = 15.93207 21.56101 18.74654
# Shear Modulus (GPa) = 24.54604 34.10704 29.32654
#
# Velocity S-wave (km/s) = 3.39570 4.00277 3.71167
# Velocity P-wave (km/s) = 4.78107 5.61173 5.21297
#
# Compressibility (1/GPa) = 0.06276648
#
# Stress axis : x y z
#
# Youngs Moduli (GPa) = 49.42972 102.86013 39.27919
#
# Poissons Ratio (x) = 0.02026 -0.19977
# Poissons Ratio (y) = 0.00974 0.04758
# Poissons Ratio (z) = -0.25140 0.12461
#
# Static dielectric constant tensor:
#      x y z
#    x 1.748930 0.000000 -0.007100 
#    y 0.000000 1.748030 0.000000 
#    z -0.007100 0.000000 1.727040 
# 
# From -- ./inp_files/12600.got.cif
#   From: 2010.05.17/outbox.cif.g08.bks.cpg/sg15_7_cif.got.tgz:12600.got - 2010.06.03 18:47:42.
