data_PCOD9270138
_publ_section_title
;
Structure prediction by ZEFSAII (Michael W. Deem and Ramdas Pophale) SiO2 
 PCOD9270138
Probable space group: C 2/C
;
_chemical_formula_sum "Si O2"
_cell_formula_units_Z 64
_cell_length_a 9.702350
_cell_length_b 22.302499
_cell_length_c 14.383511
_cell_angle_alpha 90.000000
_cell_angle_beta 116.892234
_cell_angle_gamma 90.000000
_cell_volume 2775.821272
_symmetry_space_group_name_H-M "C 2/C"
_symmetry_group_IT_number 15
_symmetry_cell_setting 'monoclinic'
loop_
_space_group_symop_operation_xyz
x,y,z
-x,y,1/2-z
-x,-y,-z
x,-y,1/2+z
1/2+x,1/2+y,z
1/2-x,1/2+y,1/2-z
1/2-x,1/2-y,-z
1/2+x,1/2-y,1/2+z
loop_
_atom_site_type_symbol
_atom_site_label
_atom_site_fract_x
_atom_site_fract_y
_atom_site_fract_z
Si Si1 0.404410 0.424125 0.551759
Si Si2 0.684433 0.808587 0.244130
Si Si3 0.660798 0.077763 0.836263
Si Si4 0.019096 0.767946 0.399606
Si Si5 0.248612 0.368971 0.085085
Si Si6 0.116591 0.360769 0.858349
Si Si7 0.517113 0.548427 0.630920
Si Si8 0.063836 0.807464 0.619385
O O1 0.230693 0.434091 0.459836
O O2 0.465171 0.480358 0.626810
O O3 0.500957 0.429033 0.483118
O O4 0.441960 0.359732 0.606329
O O5 0.653539 0.849737 0.323822
O O6 0.868428 0.796123 0.305798
O O7 0.652676 0.851591 0.146025
O O8 0.603212 0.745490 0.202301
O O9 0.500000 0.053136 0.750000
O O10 0.798860 0.056034 0.809687
O O11 0.171210 0.805835 0.419870
O O12 0.036851 0.700944 0.369027
O O13 0.005405 0.776106 0.506119
O O14 0.156983 0.392984 0.967584
O O15 0.393442 0.411828 0.146624
O O16 0.274931 0.341347 0.855526
O O17 0.000000 0.390620 0.750000
#
# Coordination Sequence:
#
# PCOD9270138 Si02
#       8
#     8   8   8   8   8   8   8   8
#     4   9  18  36  53  75 103 149 185 225 269 328
#     4  12  20  29  55  83 112 149 175 236 296 328
#     4  10  20  35  56  81 103 137 199 236 259 328
#     4  11  16  27  42  76 116 138 163 217 284 351
#     4  11  18  29  48  81 113 133 182 227 280 343
#     4  11  17  24  40  74 118 146 161 210 295 346
#     4   9  18  34  57  75 103 144 186 229 272 326
#     4  11  18  29  47  76 118 142 177 222 272 345
#
# _framework density 23.056239000000001
#
# number of rings (size 3 to 8) (size 9 to 14) (size 15 to 20)
#    0.750    0.750    8.750    1.125    0.000    0.000 
#    0.000    3.125    0.000    0.750    3.250    3.500 
#    0.000    0.000    0.000    0.000    0.000    0.000 
#
# Total GULP energy -178531.611388 kJ/mol
# GULP energy per Si atom -5579.112856 kJ/mol
# Density = 2.300376 g / cm^3
# Si number density = 23.056239 Si / 1000 Ang^3
#
#
#
# Elastic Constant Matrix: (Units=GPa)
#
#
# Indices 1 2 3 4 5 6 
#
# 1 59.6612 14.8586 33.6362 0.0000 14.2762 0.0000
# 2 14.8586 79.2313 22.1944 0.0000 17.1934 0.0000
# 3 33.6362 22.1944 135.0127 0.0000 31.9692 0.0000
# 4 0.0000 0.0000 0.0000 4.6313 0.0000 1.7500
# 5 14.2762 17.1934 31.9692 0.0000 31.3034 0.0000
# 6 0.0000 0.0000 0.0000 1.7500 0.0000 1.6765
#
#
#
# Elastic Compliance Matrix: (Units=1/GPa)
#
#
# Indices 1 2 3 4 5 6 
#
# 1 0.020384 -0.001803 -0.003713 0.000000 -0.004514 0.000000
# 2 -0.001803 0.014532 -0.000322 0.000000 -0.006830 0.000000
# 3 -0.003713 -0.000322 0.010475 0.000000 -0.008827 0.000000
# 4 0.000000 0.000000 0.000000 0.356556 0.000000 -0.372187
# 5 -0.004514 -0.006830 -0.008827 0.000000 0.046770 0.000000
# 6 0.000000 0.000000 0.000000 -0.372187 0.000000 0.984983
#
#
# Mechanical properties :
#
#
# Convention : Reuss Voigt Hill
#
# Bulk Modulus (GPa) = 29.66161 46.14263 37.90212
# Shear Modulus (GPa) = 3.43262 21.06999 12.25130
#
# Velocity S-wave (km/s) = 1.22149 3.02628 2.30764
# Velocity P-wave (km/s) = 3.85775 5.68046 4.85540
#
# Compressibility (1/GPa) = 0.03371361
#
# Stress axis : x y z
#
# Youngs Moduli (GPa) = 49.05841 68.81433 95.46598
#
# Poissons Ratio (x) = 0.12408 0.35447
# Poissons Ratio (y) = 0.08846 0.03078
# Poissons Ratio (z) = 0.18216 0.02218
#
# Static dielectric constant tensor:
#      x y z
#    x 1.938370 0.000000 -0.021040 
#    y 0.000000 1.852390 0.000000 
#    z -0.021040 0.000000 1.966360 
# 
# From -- ./inp_files/200786.got.cif
#   From: 2010.05.17/outbox.cif.g08.bks.cpg/sg15_101_cif.got.tgz:200786.got - 2010.06.03 18:47:42.
