data_PCOD9270864
_publ_section_title
;
Structure prediction by ZEFSAII (Michael W. Deem and Ramdas Pophale) SiO2 
 PCOD9270864
Probable space group: C 2/C
;
_chemical_formula_sum "Si O2"
_cell_formula_units_Z 44
_cell_length_a 12.875272
_cell_length_b 27.902620
_cell_length_c 10.594429
_cell_angle_alpha 90.000000
_cell_angle_beta 34.721756
_cell_angle_gamma 90.000000
_cell_volume 2167.916621
_symmetry_space_group_name_H-M "C 2/C"
_symmetry_group_IT_number 15
_symmetry_cell_setting 'monoclinic'
loop_
_space_group_symop_operation_xyz
x,y,z
-x,y,1/2-z
-x,-y,-z
x,-y,1/2+z
1/2+x,1/2+y,z
1/2-x,1/2+y,1/2-z
1/2-x,1/2-y,-z
1/2+x,1/2-y,1/2+z
loop_
_atom_site_type_symbol
_atom_site_label
_atom_site_fract_x
_atom_site_fract_y
_atom_site_fract_z
Si Si1 0.303955 0.958414 0.017689
Si Si2 0.150663 0.938424 0.705829
Si Si3 0.500000 0.114969 0.750000
Si Si4 0.802348 0.113169 0.092397
Si Si5 0.612964 0.129451 0.901056
Si Si6 0.282623 0.805759 0.988615
O O1 0.500000 0.969140 0.750000
O O2 0.204855 0.926511 0.010267
O O3 0.322456 0.923524 0.120270
O O4 0.196647 0.005272 0.168828
O O5 0.341680 0.916688 0.468568
O O6 0.100417 0.910386 0.884679
O O7 0.000000 0.931219 0.750000
O O8 0.597876 0.141290 0.768783
O O9 0.596320 0.124478 0.344073
O O10 0.839421 0.163728 0.987845
O O11 0.729063 0.168485 0.862954
O O12 0.500000 0.812205 0.750000
O O13 0.250000 0.750000 0.000000
#
# Coordination Sequence:
#
# PCOD9270864 Si02
#       6
#     8   8   4   8   8   8
#     4   9  17  32  53  75 102 146 186 214 257 307
#     4  11  22  33  51  77 111 149 178 216 261 312
#     4  10  20  36  54  72 110 148 176 210 270 318
#     4   8  18  34  52  75 109 138 177 222 257 313
#     4   8  17  33  56  77 103 141 179 217 262 317
#     4   9  17  36  60  81 101 133 175 223 273 313
#
# _framework density 20.295984000000001
#
# number of rings (size 3 to 8) (size 9 to 14) (size 15 to 20)
#    0.000    2.909    0.909    2.182    2.545    2.909 
#    3.273    1.818    2.000    3.273    0.000    0.000 
#    0.000    0.000    0.000    0.000    0.000    0.000 
#
# Total GULP energy -122489.930266 kJ/mol
# GULP energy per Si atom -5567.724103 kJ/mol
# Density = 2.024979 g / cm^3
# Si number density = 20.295984 Si / 1000 Ang^3
#
#
#
# Elastic Constant Matrix: (Units=GPa)
#
#
# Indices 1 2 3 4 5 6 
#
# 1 173.0230 88.0437 21.2429 0.0000 27.7071 0.0000
# 2 88.0437 148.0451 14.4419 0.0000 25.1621 0.0000
# 3 21.2429 14.4419 49.9088 0.0000 0.5067 0.0000
# 4 0.0000 0.0000 0.0000 10.0148 0.0000 -7.8348
# 5 27.7071 25.1621 0.5067 0.0000 28.9182 0.0000
# 6 0.0000 0.0000 0.0000 -7.8348 0.0000 6.9143
#
#
#
# Elastic Compliance Matrix: (Units=1/GPa)
#
#
# Indices 1 2 3 4 5 6 
#
# 1 0.009073 -0.004314 -0.002564 0.000000 -0.004895 0.000000
# 2 -0.004314 0.010233 -0.001077 0.000000 -0.004752 0.000000
# 3 -0.002564 -0.001077 0.021409 0.000000 0.003018 0.000000
# 4 0.000000 0.000000 0.000000 0.879523 0.000000 0.996617
# 5 -0.004895 -0.004752 0.003018 0.000000 0.043352 0.000000
# 6 0.000000 0.000000 0.000000 0.996617 0.000000 1.273929
#
#
# Mechanical properties :
#
#
# Convention : Reuss Voigt Hill
#
# Bulk Modulus (GPa) = 40.31293 68.71489 54.51391
# Shear Modulus (GPa) = 2.21073 25.65268 13.93170
#
# Velocity S-wave (km/s) = 1.04480 3.55903 2.62282
# Velocity P-wave (km/s) = 4.62181 7.12874 6.00749
#
# Compressibility (1/GPa) = 0.02480594
#
# Stress axis : x y z
#
# Youngs Moduli (GPa) = 110.21238 97.72422 46.70988
#
# Poissons Ratio (x) = 0.42158 0.11976
# Poissons Ratio (y) = 0.47545 0.05029
# Poissons Ratio (z) = 0.28258 0.10521
#
# Static dielectric constant tensor:
#      x y z
#    x 1.834170 0.000000 -0.019680 
#    y 0.000000 1.731070 0.000000 
#    z -0.019680 0.000000 1.828110 
# 
# From -- ./inp_files/91495.got.cif
#   From: 2010.05.17/outbox.cif.g08.bks.cpg/sg15_46_cif.got.tgz:91495.got - 2010.06.03 18:47:42.
