data_PCOD9270388
_publ_section_title
;
Structure prediction by ZEFSAII (Michael W. Deem and Ramdas Pophale) SiO2 
 PCOD9270388
Probable space group: C 2/C
;
_chemical_formula_sum "Si O2"
_cell_formula_units_Z 56
_cell_length_a 18.011414
_cell_length_b 7.728083
_cell_length_c 17.754752
_cell_angle_alpha 90.000000
_cell_angle_beta 91.865460
_cell_angle_gamma 90.000000
_cell_volume 2470.039903
_symmetry_space_group_name_H-M "C 2/C"
_symmetry_group_IT_number 15
_symmetry_cell_setting 'monoclinic'
loop_
_space_group_symop_operation_xyz
x,y,z
-x,y,1/2-z
-x,-y,-z
x,-y,1/2+z
1/2+x,1/2+y,z
1/2-x,1/2+y,1/2-z
1/2-x,1/2-y,-z
1/2+x,1/2-y,1/2+z
loop_
_atom_site_type_symbol
_atom_site_label
_atom_site_fract_x
_atom_site_fract_y
_atom_site_fract_z
Si Si1 0.759872 0.108069 0.064974
Si Si2 0.731381 0.646918 0.137109
Si Si3 0.078949 0.619558 0.739652
Si Si4 0.269837 0.980091 0.786519
Si Si5 0.917712 0.814573 0.603776
Si Si6 0.577526 0.697845 0.075367
Si Si7 0.363572 0.953564 0.533027
O O1 0.739189 0.163746 0.149279
O O2 0.847233 0.069877 0.077355
O O3 0.750000 0.250000 0.000000
O O4 0.695686 0.978241 0.037110
O O5 0.717986 0.544061 0.213940
O O6 0.659186 0.611107 0.082879
O O7 0.806874 0.601791 0.096481
O O8 0.742887 0.840330 0.170434
O O9 0.147761 0.491638 0.743656
O O10 0.084515 0.762374 0.807214
O O11 0.078642 0.696057 0.655133
O O12 0.000000 0.530957 0.750000
O O13 0.903492 0.629750 0.560946
O O14 0.996954 0.890371 0.580964
O O15 0.579907 0.816787 0.000949
#
# Coordination Sequence:
#
# PCOD9270388 Si02
#       7
#     8   8   8   8   8   8   8
#     4  10  21  34  58  87 121 151 194 239 289 352
#     4  11  23  37  63  88 116 157 203 245 291 360
#     4   9  17  33  56  83 114 146 198 245 284 339
#     4  11  21  39  59  88 118 156 197 244 297 347
#     4  10  20  36  57  90 118 155 194 241 293 352
#     4  10  20  35  58  87 115 154 195 245 289 345
#     4  11  20  36  58  87 119 153 200 242 285 347
#
# _framework density 22.671697999999999
#
# number of rings (size 3 to 8) (size 9 to 14) (size 15 to 20)
#    0.000    1.714    4.286    2.571    2.000    0.000 
#    0.000    0.714    0.000    1.714    0.000    0.000 
#    0.000    0.000    0.000    0.000    0.000    0.000 
#
# Total GULP energy -156010.606661 kJ/mol
# GULP energy per Si atom -5571.807381 kJ/mol
# Density = 2.262010 g / cm^3
# Si number density = 22.671698 Si / 1000 Ang^3
#
#
#
# Elastic Constant Matrix: (Units=GPa)
#
#
# Indices 1 2 3 4 5 6 
#
# 1 102.1043 1.4539 3.0405 0.0000 -13.9356 0.0000
# 2 1.4539 24.4624 18.4740 0.0000 -0.8228 0.0000
# 3 3.0405 18.4740 119.6385 0.0000 -9.5309 0.0000
# 4 0.0000 0.0000 0.0000 29.7846 0.0000 -3.3027
# 5 -13.9356 -0.8228 -9.5309 0.0000 29.8604 0.0000
# 6 0.0000 0.0000 0.0000 -3.3027 0.0000 22.9400
#
#
#
# Elastic Compliance Matrix: (Units=1/GPa)
#
#
# Indices 1 2 3 4 5 6 
#
# 1 0.010470 -0.000625 0.000224 0.000000 0.004941 0.000000
# 2 -0.000625 0.046344 -0.007246 0.000000 -0.001328 0.000000
# 3 0.000224 -0.007246 0.009711 0.000000 0.003005 0.000000
# 4 0.000000 0.000000 0.000000 0.034119 0.000000 0.004912
# 5 0.004941 -0.001328 0.003005 0.000000 0.036717 0.000000
# 6 0.000000 0.000000 0.000000 0.004912 0.000000 0.044299
#
#
# Mechanical properties :
#
#
# Convention : Reuss Voigt Hill
#
# Bulk Modulus (GPa) = 19.51958 32.46023 25.98991
# Shear Modulus (GPa) = 23.36094 31.39945 27.38020
#
# Velocity S-wave (km/s) = 3.21347 3.72555 3.47894
# Velocity P-wave (km/s) = 4.73253 5.73191 5.25603
#
# Compressibility (1/GPa) = 0.05123061
#
# Stress axis : x y z
#
# Youngs Moduli (GPa) = 95.50660 21.57789 102.97517
#
# Poissons Ratio (x) = 0.01349 -0.02307
# Poissons Ratio (y) = 0.05972 0.74617
# Poissons Ratio (z) = -0.02140 0.15635
#
# Static dielectric constant tensor:
#      x y z
#    x 1.903010 0.000000 0.000010 
#    y 0.000000 1.967870 0.000000 
#    z 0.000010 0.000000 1.879300 
# 
# From -- ./inp_files/213413.got.cif
#   From: 2010.05.17/outbox.cif.g08.bks.cpg/sg15_107_cif.got.tgz:213413.got - 2010.06.03 18:47:42.
