data_PCOD9270009
_publ_section_title
;
Structure prediction by ZEFSAII (Michael W. Deem and Ramdas Pophale) SiO2 
 PCOD9270009
Probable space group: C 2/C
;
_chemical_formula_sum "Si O2"
_cell_formula_units_Z 64
_cell_length_a 8.585404
_cell_length_b 21.450102
_cell_length_c 22.873297
_cell_angle_alpha 90.000000
_cell_angle_beta 130.339689
_cell_angle_gamma 90.000000
_cell_volume 3210.696627
_symmetry_space_group_name_H-M "C 2/C"
_symmetry_group_IT_number 15
_symmetry_cell_setting 'monoclinic'
loop_
_space_group_symop_operation_xyz
x,y,z
-x,y,1/2-z
-x,-y,-z
x,-y,1/2+z
1/2+x,1/2+y,z
1/2-x,1/2+y,1/2-z
1/2-x,1/2-y,-z
1/2+x,1/2-y,1/2+z
loop_
_atom_site_type_symbol
_atom_site_label
_atom_site_fract_x
_atom_site_fract_y
_atom_site_fract_z
Si Si1 0.486350 0.110382 0.178349
Si Si2 0.744682 0.925260 0.431823
Si Si3 0.976080 0.186385 0.929348
Si Si4 0.032215 0.673853 0.442675
Si Si5 0.605311 0.464770 0.598022
Si Si6 0.565130 0.932889 0.043514
Si Si7 0.162096 0.013306 0.238493
Si Si8 0.015596 0.116609 0.687079
O O1 0.500000 0.129236 0.250000
O O2 0.540087 0.157661 0.140361
O O3 0.254810 0.088763 0.112049
O O4 0.628295 0.049928 0.202571
O O5 0.840035 0.859675 0.435627
O O6 0.538115 0.923216 0.418133
O O7 0.894746 0.960175 0.513901
O O8 0.772206 0.971144 0.383538
O O9 0.941152 0.258709 0.935248
O O10 0.938577 0.166531 0.852327
O O11 0.219848 0.177533 0.997922
O O12 0.987951 0.619590 0.478801
O O13 0.570833 0.457502 0.657623
O O14 0.806600 0.919009 0.114062
O O15 0.500000 0.000000 0.000000
O O16 0.000000 0.022792 0.250000
O O17 0.178520 0.939377 0.232686
O O18 0.000000 0.141910 0.750000
#
# Coordination Sequence:
#
# PCOD9270009 Si02
#       8
#     8   8   8   8   8   8   8   8
#     4  10  21  36  57  90 120 157 197 247 311 360
#     4  11  21  34  61  86 122 154 199 252 293 358
#     4  10  21  42  62  85 121 165 207 244 297 373
#     4  10  22  40  63  87 121 162 207 249 300 367
#     4  10  20  35  53  90 119 153 192 247 304 357
#     4  11  24  37  63  95 123 158 203 259 312 359
#     4  10  21  33  56  85 121 152 190 242 308 360
#     4  10  22  39  58  92 120 162 199 247 309 368
#
# _framework density 19.933368999999999
#
# number of rings (size 3 to 8) (size 9 to 14) (size 15 to 20)
#    0.000    1.750    2.500    1.500   12.250    1.000 
#    0.000    0.625    0.000    0.000    0.000    0.000 
#    0.000    0.000    0.000    0.000    0.000    0.000 
#
# Total GULP energy -178401.384089 kJ/mol
# GULP energy per Si atom -5575.043253 kJ/mol
# Density = 1.988800 g / cm^3
# Si number density = 19.933369 Si / 1000 Ang^3
#
#
#
# Elastic Constant Matrix: (Units=GPa)
#
#
# Indices 1 2 3 4 5 6 
#
# 1 66.5006 31.6933 20.4903 0.0000 -22.7455 0.0000
# 2 31.6933 116.2292 21.6855 0.0000 -21.3392 0.0000
# 3 20.4903 21.6855 51.1172 0.0000 -12.7157 0.0000
# 4 0.0000 0.0000 0.0000 18.2455 0.0000 -2.7595
# 5 -22.7455 -21.3392 -12.7157 0.0000 24.9346 0.0000
# 6 0.0000 0.0000 0.0000 -2.7595 0.0000 26.4428
#
#
#
# Elastic Compliance Matrix: (Units=1/GPa)
#
#
# Indices 1 2 3 4 5 6 
#
# 1 0.023301 -0.002462 -0.004046 0.000000 0.017085 0.000000
# 2 -0.002462 0.010748 -0.002111 0.000000 0.005875 0.000000
# 3 -0.004046 -0.002111 0.023722 0.000000 0.006600 0.000000
# 4 0.000000 0.000000 0.000000 0.055687 0.000000 0.005811
# 5 0.017085 0.005875 0.006600 0.000000 0.064084 0.000000
# 6 0.000000 0.000000 0.000000 0.005811 0.000000 0.038424
#
#
# Mechanical properties :
#
#
# Convention : Reuss Voigt Hill
#
# Bulk Modulus (GPa) = 24.67118 42.39833 33.53476
# Shear Modulus (GPa) = 20.26634 24.58978 22.42806
#
# Velocity S-wave (km/s) = 3.19204 3.51607 3.35797
# Velocity P-wave (km/s) = 5.09796 6.14816 5.64752
#
# Compressibility (1/GPa) = 0.04053313
#
# Stress axis : x y z
#
# Youngs Moduli (GPa) = 42.91631 93.04383 42.15496
#
# Poissons Ratio (x) = 0.22909 0.17055
# Poissons Ratio (y) = 0.10567 0.08899
# Poissons Ratio (z) = 0.17363 0.19641
#
# Static dielectric constant tensor:
#      x y z
#    x 1.724650 0.000000 -0.005420 
#    y 0.000000 1.710070 0.000000 
#    z -0.005420 0.000000 1.740400 
# 
# From -- ./inp_files/266146.got.cif
#   From: 2010.05.17/outbox.cif.g08.bks.cpg/sg15_134_cif.got.tgz:266146.got - 2010.06.03 18:47:42.
