data_PCOD9270302
_publ_section_title
;
Structure prediction by ZEFSAII (Michael W. Deem and Ramdas Pophale) SiO2 
 PCOD9270302
Probable space group: C 2/C
;
_chemical_formula_sum "Si O2"
_cell_formula_units_Z 64
_cell_length_a 12.937190
_cell_length_b 18.863725
_cell_length_c 33.116069
_cell_angle_alpha 90.000000
_cell_angle_beta 155.030182
_cell_angle_gamma 90.000000
_cell_volume 3411.642396
_symmetry_space_group_name_H-M "C 2/C"
_symmetry_group_IT_number 15
_symmetry_cell_setting 'monoclinic'
loop_
_space_group_symop_operation_xyz
x,y,z
-x,y,1/2-z
-x,-y,-z
x,-y,1/2+z
1/2+x,1/2+y,z
1/2-x,1/2+y,1/2-z
1/2-x,1/2-y,-z
1/2+x,1/2-y,1/2+z
loop_
_atom_site_type_symbol
_atom_site_label
_atom_site_fract_x
_atom_site_fract_y
_atom_site_fract_z
Si Si1 0.608884 0.703517 0.833351
Si Si2 0.038093 0.785756 0.950668
Si Si3 0.300497 0.572152 0.967757
Si Si4 0.319285 0.582729 0.222628
Si Si5 0.374521 0.546558 0.638350
Si Si6 0.681396 0.158087 0.253566
Si Si7 0.644854 0.979480 0.840037
Si Si8 0.057592 0.502115 0.954170
O O1 0.500000 0.693319 0.750000
O O2 0.573197 0.629567 0.842971
O O3 0.471069 0.769544 0.804859
O O4 0.884513 0.729063 0.921931
O O5 0.859303 0.825707 0.854770
O O6 0.250000 0.750000 0.000000
O O7 0.150478 0.845055 0.019587
O O8 0.154498 0.534205 0.880304
O O9 0.152984 0.559100 0.956440
O O10 0.569756 0.536892 0.067302
O O11 0.500000 0.604459 0.250000
O O12 0.413700 0.506260 0.272273
O O13 0.311684 0.634853 0.258141
O O14 0.056219 0.564870 0.110061
O O15 0.275835 0.521459 0.560416
O O16 0.156024 0.533309 0.593251
O O17 0.497674 0.093177 0.198849
O O18 0.500000 0.007757 0.750000
#
# Coordination Sequence:
#
# PCOD9270302 Si02
#       8
#     8   8   8   8   8   8   8   8
#     4  10  20  37  58  84 123 160 200 245 319 366
#     4  11  22  35  60  94 124 160 205 253 308 367
#     4  11  21  35  63  91 119 158 211 250 302 370
#     4  10  21  37  61  85 115 159 203 250 310 365
#     4  10  21  36  58  88 119 155 201 258 305 361
#     4  11  20  41  60  84 126 165 197 255 319 365
#     4  11  21  38  61  88 120 161 201 256 302 364
#     4  10  20  35  57  89 119 148 205 258 299 353
#
# _framework density 18.759293
#
# number of rings (size 3 to 8) (size 9 to 14) (size 15 to 20)
#    0.000    1.500    3.750    3.000    0.000    3.000 
#    0.000    0.625    0.000    3.750    0.000    0.000 
#    0.000    0.000    0.000    0.000    0.000    0.000 
#
# Total GULP energy -178668.361561 kJ/mol
# GULP energy per Si atom -5583.386299 kJ/mol
# Density = 1.871660 g / cm^3
# Si number density = 18.759293 Si / 1000 Ang^3
#
#
#
# Elastic Constant Matrix: (Units=GPa)
#
#
# Indices 1 2 3 4 5 6 
#
# 1 58.2639 18.5846 18.6803 -0.0001 -4.7953 -0.0002
# 2 18.5846 86.5795 24.8913 0.0004 -6.7260 -0.0005
# 3 18.6803 24.8913 72.7793 -0.0013 -16.4444 -0.0015
# 4 -0.0001 0.0004 -0.0013 13.8925 0.0000 6.4590
# 5 -4.7953 -6.7260 -16.4444 0.0000 25.5085 -0.0005
# 6 -0.0002 -0.0005 -0.0015 6.4590 -0.0005 21.9435
#
#
#
# Elastic Compliance Matrix: (Units=1/GPa)
#
#
# Indices 1 2 3 4 5 6 
#
# 1 0.019396 -0.003025 -0.003863 0.000000 0.000358 0.000000
# 2 -0.003025 0.013291 -0.003635 -0.000001 0.000592 0.000000
# 3 -0.003863 -0.003635 0.018253 0.000001 0.010082 0.000001
# 4 0.000000 -0.000001 0.000001 0.083394 0.000000 -0.024547
# 5 0.000358 0.000592 0.010082 0.000000 0.045926 0.000002
# 6 0.000000 0.000000 0.000001 -0.024547 0.000002 0.052797
#
#
# Mechanical properties :
#
#
# Convention : Reuss Voigt Hill
#
# Bulk Modulus (GPa) = 33.45215 37.99278 35.72247
# Shear Modulus (GPa) = 18.93456 22.63331 20.78393
#
# Velocity S-wave (km/s) = 3.18046 3.47726 3.33217
# Velocity P-wave (km/s) = 5.59983 6.03477 5.82137
#
# Compressibility (1/GPa) = 0.02989345
#
# Stress axis : x y z
#
# Youngs Moduli (GPa) = 51.55657 75.24138 54.78530
#
# Poissons Ratio (x) = 0.22761 0.21163
# Poissons Ratio (y) = 0.15596 0.19916
# Poissons Ratio (z) = 0.19916 0.27352
#
# Static dielectric constant tensor:
#      x y z
#    x 1.662640 0.000000 0.016990 
#    y 0.000000 1.639400 0.000000 
#    z 0.016990 0.000000 1.671120 
# 
# From -- ./inp_files/311642.got.cif
#   From: 2010.05.17/outbox.cif.g08.bks.cpg/sg15_156_cif.got.tgz:311642.got - 2010.06.03 18:47:42.
