data_PCOD9270650
_publ_section_title
;
Structure prediction by ZEFSAII (Michael W. Deem and Ramdas Pophale) SiO2 
 PCOD9270650
Probable space group: C 2/C
;
_chemical_formula_sum "Si O2"
_cell_formula_units_Z 64
_cell_length_a 17.705767
_cell_length_b 10.924035
_cell_length_c 32.312867
_cell_angle_alpha 90.000000
_cell_angle_beta 150.489916
_cell_angle_gamma 90.000000
_cell_volume 3078.557119
_symmetry_space_group_name_H-M "C 2/C"
_symmetry_group_IT_number 15
_symmetry_cell_setting 'monoclinic'
loop_
_space_group_symop_operation_xyz
x,y,z
-x,y,1/2-z
-x,-y,-z
x,-y,1/2+z
1/2+x,1/2+y,z
1/2-x,1/2+y,1/2-z
1/2-x,1/2-y,-z
1/2+x,1/2-y,1/2+z
loop_
_atom_site_type_symbol
_atom_site_label
_atom_site_fract_x
_atom_site_fract_y
_atom_site_fract_z
Si Si1 0.031097 0.063696 0.066833
Si Si2 0.063156 0.701109 0.024110
Si Si3 0.872684 0.409378 0.027957
Si Si4 0.389175 0.301187 0.010025
Si Si5 0.973454 0.169669 0.125398
Si Si6 0.135224 0.751976 0.781412
Si Si7 0.624215 0.039448 0.272820
Si Si8 0.556701 0.153394 0.387772
O O1 0.203915 0.076818 0.133162
O O2 0.034251 0.088026 0.117183
O O3 0.957914 0.930470 0.027674
O O4 0.929408 0.169960 0.997846
O O5 0.059587 0.602677 0.985874
O O6 0.211067 0.700981 0.123866
O O7 0.921975 0.708022 0.988311
O O8 0.691354 0.381134 0.938772
O O9 0.942336 0.303398 0.090646
O O10 0.902169 0.536257 0.064498
O O11 0.474437 0.258489 0.093049
O O12 0.211569 0.311895 0.936902
O O13 0.090175 0.178433 0.218479
O O14 0.138321 0.606908 0.772559
O O15 0.000000 0.767838 0.750000
O O16 0.500000 0.058255 0.250000
O O17 0.568201 0.112341 0.205449
#
# Coordination Sequence:
#
# PCOD9270650 Si02
#       8
#     8   8   8   8   8   8   8   8
#     4  11  23  39  65  91 122 163 204 262 313 367
#     4  11  23  38  64  95 124 156 209 264 314 369
#     4  10  20  38  62  90 121 162 200 257 320 361
#     4  11  24  40  62  88 126 169 209 247 311 388
#     4  10  20  35  61  91 123 151 203 258 311 368
#     4  11  21  33  58  97 121 151 195 264 317 353
#     4  11  24  37  63  92 123 156 208 264 312 363
#     4  11  24  43  62  86 130 173 206 250 309 392
#
# _framework density 20.788959999999999
#
# number of rings (size 3 to 8) (size 9 to 14) (size 15 to 20)
#    0.000    1.250    5.000    1.125    5.250    0.500 
#    0.000    0.000    0.000    2.250    0.000    0.000 
#    0.000    0.000    0.000    0.000    0.000    0.000 
#
# Total GULP energy -178870.789823 kJ/mol
# GULP energy per Si atom -5589.712182 kJ/mol
# Density = 2.074164 g / cm^3
# Si number density = 20.788960 Si / 1000 Ang^3
#
#
#
# Elastic Constant Matrix: (Units=GPa)
#
#
# Indices 1 2 3 4 5 6 
#
# 1 97.7507 9.9459 32.1696 0.0000 -4.0563 0.0000
# 2 9.9459 39.9058 13.6952 0.0000 -6.1930 0.0000
# 3 32.1696 13.6952 115.6619 0.0000 -25.6614 0.0000
# 4 0.0000 0.0000 0.0000 23.2347 0.0000 -12.4985
# 5 -4.0563 -6.1930 -25.6614 0.0000 33.6702 0.0000
# 6 0.0000 0.0000 0.0000 -12.4985 0.0000 16.6386
#
#
#
# Elastic Compliance Matrix: (Units=1/GPa)
#
#
# Indices 1 2 3 4 5 6 
#
# 1 0.011447 -0.001957 -0.003281 0.000000 -0.001481 0.000000
# 2 -0.001957 0.026700 -0.001901 0.000000 0.003226 0.000000
# 3 -0.003281 -0.001901 0.011576 0.000000 0.008077 0.000000
# 4 0.000000 0.000000 0.000000 0.072222 0.000000 0.054252
# 5 -0.001481 0.003226 0.008077 0.000000 0.036271 0.000000
# 6 0.000000 0.000000 0.000000 0.054252 0.000000 0.100853
#
#
# Mechanical properties :
#
#
# Convention : Reuss Voigt Hill
#
# Bulk Modulus (GPa) = 28.21317 40.54889 34.38103
# Shear Modulus (GPa) = 17.53382 27.87587 22.70484
#
# Velocity S-wave (km/s) = 2.90732 3.66580 3.30837
# Velocity P-wave (km/s) = 4.98705 6.12085 5.58281
#
# Compressibility (1/GPa) = 0.03544444
#
# Stress axis : x y z
#
# Youngs Moduli (GPa) = 87.35538 37.45320 86.38848
#
# Poissons Ratio (x) = 0.07330 0.28343
# Poissons Ratio (y) = 0.17096 0.16426
# Poissons Ratio (z) = 0.28660 0.07121
#
# Static dielectric constant tensor:
#      x y z
#    x 1.761170 0.000000 -0.004490 
#    y 0.000000 1.751940 0.000000 
#    z -0.004490 0.000000 1.724670 
# 
# From -- ./inp_files/316217.got.cif
#   From: 2010.05.17/outbox.cif.g08.bks.cpg/sg15_159_cif.got.tgz:316217.got - 2010.06.03 18:47:42.
