data_PCOD9270392
_publ_section_title
;
Structure prediction by ZEFSAII (Michael W. Deem and Ramdas Pophale) SiO2 
 PCOD9270392
Probable space group: C 2/C
;
_chemical_formula_sum "Si O2"
_cell_formula_units_Z 56
_cell_length_a 17.787392
_cell_length_b 12.053419
_cell_length_c 14.130020
_cell_angle_alpha 90.000000
_cell_angle_beta 123.601665
_cell_angle_gamma 90.000000
_cell_volume 2523.253350
_symmetry_space_group_name_H-M "C 2/C"
_symmetry_group_IT_number 15
_symmetry_cell_setting 'monoclinic'
loop_
_space_group_symop_operation_xyz
x,y,z
-x,y,1/2-z
-x,-y,-z
x,-y,1/2+z
1/2+x,1/2+y,z
1/2-x,1/2+y,1/2-z
1/2-x,1/2-y,-z
1/2+x,1/2-y,1/2+z
loop_
_atom_site_type_symbol
_atom_site_label
_atom_site_fract_x
_atom_site_fract_y
_atom_site_fract_z
Si Si1 0.820813 0.019936 0.327367
Si Si2 0.139686 0.192822 0.532446
Si Si3 0.228777 0.688944 0.387223
Si Si4 0.621254 0.038688 0.434525
Si Si5 0.679619 0.136589 0.660937
Si Si6 0.286337 0.620422 0.114564
Si Si7 0.491805 0.168097 0.849708
O O1 0.867753 0.912207 0.403835
O O2 0.720738 0.976245 0.230310
O O3 0.806847 0.109052 0.400344
O O4 0.845162 0.072011 0.242655
O O5 0.224849 0.275875 0.607041
O O6 0.156381 0.151866 0.436868
O O7 0.050491 0.265604 0.466480
O O8 0.250000 0.750000 0.500000
O O9 0.143254 0.612134 0.356580
O O10 0.236297 0.787884 0.315745
O O11 0.618763 0.115270 0.525731
O O12 0.712033 0.966062 0.519497
O O13 0.537903 0.954258 0.375583
O O14 0.611258 0.175107 0.692643
O O15 0.500000 0.213798 0.750000
#
# Coordination Sequence:
#
# PCOD9270392 Si02
#       7
#     8   8   8   8   8   8   8
#     4  11  20  36  63  87 119 164 207 253 313 374
#     4  10  21  37  59  87 123 158 205 260 299 374
#     4  10  20  35  58  87 117 152 205 255 302 367
#     4   9  18  38  59  85 119 156 200 261 310 366
#     4  10  22  36  60  95 120 157 206 259 320 374
#     4   9  19  34  60  87 114 151 214 253 297 363
#     4  11  23  36  58  89 128 163 206 255 321 373
#
# _framework density 22.193570999999999
#
# number of rings (size 3 to 8) (size 9 to 14) (size 15 to 20)
#    0.000    2.000    1.429    2.143    6.000    0.000 
#    0.000    2.143    0.000    0.000    0.000    0.000 
#    0.000    0.000    0.000    0.000    0.000    0.000 
#
# Total GULP energy -156043.019735 kJ/mol
# GULP energy per Si atom -5572.964991 kJ/mol
# Density = 2.214306 g / cm^3
# Si number density = 22.193571 Si / 1000 Ang^3
#
#
#
# Elastic Constant Matrix: (Units=GPa)
#
#
# Indices 1 2 3 4 5 6 
#
# 1 60.0533 10.2748 21.6674 0.0000 -16.7001 0.0000
# 2 10.2748 90.7545 32.3695 0.0000 -9.8859 0.0000
# 3 21.6674 32.3695 77.3786 0.0000 -19.1302 0.0000
# 4 0.0000 0.0000 0.0000 39.1096 0.0000 -9.3850
# 5 -16.7001 -9.8859 -19.1302 0.0000 30.0790 0.0000
# 6 0.0000 0.0000 0.0000 -9.3850 0.0000 30.4211
#
#
#
# Elastic Compliance Matrix: (Units=1/GPa)
#
#
# Indices 1 2 3 4 5 6 
#
# 1 0.020446 -0.000098 -0.003424 0.000000 0.009142 0.000000
# 2 -0.000098 0.012975 -0.005173 0.000000 0.000920 0.000000
# 3 -0.003424 -0.005173 0.017984 0.000000 0.007836 0.000000
# 4 0.000000 0.000000 0.000000 0.027613 0.000000 0.008519
# 5 0.009142 0.000920 0.007836 0.000000 0.043608 0.000000
# 6 0.000000 0.000000 0.000000 0.008519 0.000000 0.035500
#
#
# Mechanical properties :
#
#
# Convention : Reuss Voigt Hill
#
# Bulk Modulus (GPa) = 29.39866 39.64555 34.52210
# Shear Modulus (GPa) = 26.75880 30.84693 28.80286
#
# Velocity S-wave (km/s) = 3.47609 3.73219 3.60641
# Velocity P-wave (km/s) = 5.42090 6.03942 5.73850
#
# Compressibility (1/GPa) = 0.03401516
#
# Stress axis : x y z
#
# Youngs Moduli (GPa) = 48.90847 77.07080 55.60603
#
# Poissons Ratio (x) = 0.00752 0.19042
# Poissons Ratio (y) = 0.00477 0.28765
# Poissons Ratio (z) = 0.16748 0.39869
#
# Static dielectric constant tensor:
#      x y z
#    x 1.798280 0.000000 -0.028900 
#    y 0.000000 1.923140 0.000000 
#    z -0.028900 0.000000 1.838240 
# 
# From -- ./inp_files/160984.got.cif
#   From: 2010.05.17/outbox.cif.g08.bks.cpg/sg15_81_cif.got.tgz:160984.got - 2010.06.03 18:47:42.
