data_PCOD9270708
_publ_section_title
;
Structure prediction by ZEFSAII (Michael W. Deem and Ramdas Pophale) SiO2 
 PCOD9270708
Probable space group: C 2/C
;
_chemical_formula_sum "Si O2"
_cell_formula_units_Z 40
_cell_length_a 9.666912
_cell_length_b 10.962215
_cell_length_c 16.810480
_cell_angle_alpha 90.000000
_cell_angle_beta 81.607665
_cell_angle_gamma 90.000000
_cell_volume 1762.343795
_symmetry_space_group_name_H-M "C 2/C"
_symmetry_group_IT_number 15
_symmetry_cell_setting 'monoclinic'
loop_
_space_group_symop_operation_xyz
x,y,z
-x,y,1/2-z
-x,-y,-z
x,-y,1/2+z
1/2+x,1/2+y,z
1/2-x,1/2+y,1/2-z
1/2-x,1/2-y,-z
1/2+x,1/2-y,1/2+z
loop_
_atom_site_type_symbol
_atom_site_label
_atom_site_fract_x
_atom_site_fract_y
_atom_site_fract_z
Si Si1 0.351576 0.931465 0.493156
Si Si2 0.162545 0.093830 0.739694
Si Si3 0.177809 0.143595 0.557705
Si Si4 0.078241 0.715017 0.368651
Si Si5 0.896563 0.516464 0.821588
O O1 0.333725 0.839016 0.566610
O O2 0.500000 0.000000 0.500000
O O3 0.222185 0.023338 0.508051
O O4 0.369400 0.899349 0.399953
O O5 0.222270 0.119099 0.646301
O O6 0.156625 0.220288 0.789937
O O7 0.000000 0.054623 0.750000
O O8 0.255530 0.001077 0.782897
O O9 0.250000 0.250000 0.500000
O O10 0.018842 0.182735 0.582198
O O11 0.973263 0.608440 0.344273
O O12 0.000000 0.577124 0.750000
#
# Coordination Sequence:
#
# PCOD9270708 Si02
#       5
#     8   8   8   8   8
#     4  10  20  35  62  93 117 160 208 250 307 373
#     4  10  23  39  61  92 126 165 208 256 312 374
#     4  11  19  34  61  87 116 161 208 240 305 373
#     4  10  22  40  63  87 126 165 199 260 317 360
#     4  11  21  37  66  93 123 164 208 256 309 372
#
# _framework density 22.697047000000001
#
# number of rings (size 3 to 8) (size 9 to 14) (size 15 to 20)
#    0.000    1.600    4.000    4.200    0.000    0.800 
#    0.000    4.000    0.000   45.600    0.000    0.000 
#    0.000    0.000    0.000    0.000    0.000    0.000 
#
# Total GULP energy -111574.653237 kJ/mol
# GULP energy per Si atom -5578.732662 kJ/mol
# Density = 2.264539 g / cm^3
# Si number density = 22.697047 Si / 1000 Ang^3
#
#
#
# Elastic Constant Matrix: (Units=GPa)
#
#
# Indices 1 2 3 4 5 6 
#
# 1 48.5675 22.0208 34.9865 0.0000 11.6203 0.0000
# 2 22.0208 56.8828 23.7933 0.0000 -0.1973 0.0000
# 3 34.9865 23.7933 170.2580 0.0000 -12.5005 0.0000
# 4 0.0000 0.0000 0.0000 22.9333 0.0000 12.0409
# 5 11.6203 -0.1973 -12.5005 0.0000 37.3434 0.0000
# 6 0.0000 0.0000 0.0000 12.0409 0.0000 26.1091
#
#
#
# Elastic Compliance Matrix: (Units=1/GPa)
#
#
# Indices 1 2 3 4 5 6 
#
# 1 0.032526 -0.010050 -0.006178 0.000000 -0.012243 0.000000
# 2 -0.010050 0.021800 -0.000762 0.000000 0.002987 0.000000
# 3 -0.006178 -0.000762 0.007577 0.000000 0.004455 0.000000
# 4 0.000000 0.000000 0.000000 0.057537 0.000000 -0.026535
# 5 -0.012243 0.002987 0.004455 0.000000 0.032095 0.000000
# 6 0.000000 0.000000 0.000000 -0.026535 0.000000 0.050538
#
#
# Mechanical properties :
#
#
# Convention : Reuss Voigt Hill
#
# Bulk Modulus (GPa) = 35.81374 48.58994 42.20184
# Shear Modulus (GPa) = 20.37820 30.27099 25.32459
#
# Velocity S-wave (km/s) = 2.99964 3.65594 3.34393
# Velocity P-wave (km/s) = 5.27356 6.26704 5.79164
#
# Compressibility (1/GPa) = 0.02792225
#
# Stress axis : x y z
#
# Youngs Moduli (GPa) = 30.74420 45.87215 131.98589
#
# Poissons Ratio (x) = 0.46102 0.81545
# Poissons Ratio (y) = 0.30898 0.10057
# Poissons Ratio (z) = 0.18995 0.03495
#
# Static dielectric constant tensor:
#      x y z
#    x 1.895320 0.000000 0.025560 
#    y 0.000000 1.923800 0.000000 
#    z 0.025560 0.000000 1.894150 
# 
# From -- ./inp_files/187882.got.cif
#   From: 2010.05.17/outbox.cif.g08.bks.cpg/sg15_94_cif.got.tgz:187882.got - 2010.06.03 18:47:42.
