data_PCOD9270127
_publ_section_title
;
Structure prediction by ZEFSAII (Michael W. Deem and Ramdas Pophale) SiO2 
 PCOD9270127
Probable space group: C 2/C
;
_chemical_formula_sum "Si O2"
_cell_formula_units_Z 56
_cell_length_a 5.134289
_cell_length_b 20.538524
_cell_length_c 27.198976
_cell_angle_alpha 90.000000
_cell_angle_beta 112.505056
_cell_angle_gamma 90.000000
_cell_volume 2649.729641
_symmetry_space_group_name_H-M "C 2/C"
_symmetry_group_IT_number 15
_symmetry_cell_setting 'monoclinic'
loop_
_space_group_symop_operation_xyz
x,y,z
-x,y,1/2-z
-x,-y,-z
x,-y,1/2+z
1/2+x,1/2+y,z
1/2-x,1/2+y,1/2-z
1/2-x,1/2-y,-z
1/2+x,1/2-y,1/2+z
loop_
_atom_site_type_symbol
_atom_site_label
_atom_site_fract_x
_atom_site_fract_y
_atom_site_fract_z
Si Si1 0.565301 0.958887 0.808578
Si Si2 0.268638 0.743692 0.097733
Si Si3 0.191818 0.330480 0.985033
Si Si4 0.153262 0.036124 0.841871
Si Si5 0.309705 0.674220 0.607693
Si Si6 0.384574 0.370544 0.901735
Si Si7 0.867962 0.461760 0.946533
O O1 0.500000 0.931735 0.750000
O O2 0.626646 0.900557 0.852006
O O3 0.315244 0.008443 0.806092
O O4 0.852345 0.001173 0.825547
O O5 0.509117 0.795401 0.101238
O O6 0.428422 0.675802 0.120731
O O7 0.041991 0.726213 0.037780
O O8 0.066075 0.773595 0.125338
O O9 0.379959 0.323868 0.949623
O O10 0.046365 0.396728 0.955803
O O11 0.288659 0.343454 0.047533
O O12 0.130437 0.112350 0.853223
O O13 0.356050 0.007621 0.899107
O O14 0.556003 0.433928 0.931954
O O15 0.000000 0.500000 0.000000
#
# Coordination Sequence:
#
# PCOD9270127 Si02
#       7
#     8   8   8   8   8   8   8
#     4  11  24  45  70  94 117 153 207 278 333 376
#     4  11  24  39  55  90 130 171 218 238 283 362
#     4  11  21  36  58  88 130 173 207 250 289 366
#     4  11  23  41  62  97 123 161 205 250 325 379
#     4  12  24  36  61  88 134 174 203 241 296 374
#     4  10  23  38  63  89 128 163 212 263 311 361
#     4  10  20  35  55  90 129 166 200 251 303 372
#
# _framework density 21.134232000000001
#
# number of rings (size 3 to 8) (size 9 to 14) (size 15 to 20)
#    0.000    1.143    4.286    2.143    4.000    1.714 
#    0.000    0.000    0.000    3.429    3.714    0.000 
#    0.000    0.000    0.000    0.000    0.000    0.000 
#
# Total GULP energy -155952.783574 kJ/mol
# GULP energy per Si atom -5569.742270 kJ/mol
# Density = 2.108613 g / cm^3
# Si number density = 21.134232 Si / 1000 Ang^3
#
#
#
# Elastic Constant Matrix: (Units=GPa)
#
#
# Indices 1 2 3 4 5 6 
#
# 1 92.2892 10.2161 7.7770 0.0000 -14.1957 0.0000
# 2 10.2161 70.1602 15.8936 0.0000 -4.5524 0.0000
# 3 7.7770 15.8936 66.1656 0.0000 -6.7874 0.0000
# 4 0.0000 0.0000 0.0000 23.2193 0.0000 -3.6728
# 5 -14.1957 -4.5524 -6.7874 0.0000 18.8839 0.0000
# 6 0.0000 0.0000 0.0000 -3.6728 0.0000 29.6486
#
#
#
# Elastic Compliance Matrix: (Units=1/GPa)
#
#
# Indices 1 2 3 4 5 6 
#
# 1 0.012357 -0.001162 -0.000259 0.000000 0.008916 0.000000
# 2 -0.001162 0.015290 -0.003372 0.000000 0.001600 0.000000
# 3 -0.000259 -0.003372 0.016457 0.000000 0.004908 0.000000
# 4 0.000000 0.000000 0.000000 0.043928 0.000000 0.005442
# 5 0.008916 0.001600 0.004908 0.000000 0.061808 0.000000
# 6 0.000000 0.000000 0.000000 0.005442 0.000000 0.034403
#
#
# Mechanical properties :
#
#
# Convention : Reuss Voigt Hill
#
# Bulk Modulus (GPa) = 28.96939 32.93202 30.95071
# Shear Modulus (GPa) = 24.35033 27.33224 25.84128
#
# Velocity S-wave (km/s) = 3.39805 3.60011 3.50054
# Velocity P-wave (km/s) = 5.39748 5.73560 5.56911
#
# Compressibility (1/GPa) = 0.03451919
#
# Stress axis : x y z
#
# Youngs Moduli (GPa) = 80.92276 65.40200 60.76272
#
# Poissons Ratio (x) = 0.07601 0.01571
# Poissons Ratio (y) = 0.09405 0.20489
# Poissons Ratio (z) = 0.02093 0.22054
#
# Static dielectric constant tensor:
#      x y z
#    x 2.193380 0.000000 -0.166130 
#    y 0.000000 1.844680 0.000000 
#    z -0.166130 0.000000 1.821150 
# 
# From -- ./inp_files/261409.got.cif
#   From: 2010.05.17/outbox.cif.g08.bks.cpg/sg15_131_cif.got.tgz:261409.got - 2010.06.03 18:47:42.
