data_PCOD9270230
_publ_section_title
;
Structure prediction by ZEFSAII (Michael W. Deem and Ramdas Pophale) SiO2 
 PCOD9270230
Probable space group: C 2/C
;
_chemical_formula_sum "Si O2"
_cell_formula_units_Z 48
_cell_length_a 12.259489
_cell_length_b 8.505560
_cell_length_c 24.857969
_cell_angle_alpha 90.000000
_cell_angle_beta 135.967913
_cell_angle_gamma 90.000000
_cell_volume 1801.622976
_symmetry_space_group_name_H-M "C 2/C"
_symmetry_group_IT_number 15
_symmetry_cell_setting 'monoclinic'
loop_
_space_group_symop_operation_xyz
x,y,z
-x,y,1/2-z
-x,-y,-z
x,-y,1/2+z
1/2+x,1/2+y,z
1/2-x,1/2+y,1/2-z
1/2-x,1/2-y,-z
1/2+x,1/2-y,1/2+z
loop_
_atom_site_type_symbol
_atom_site_label
_atom_site_fract_x
_atom_site_fract_y
_atom_site_fract_z
Si Si1 0.244340 0.019008 0.060716
Si Si2 0.479368 0.676100 0.426427
Si Si3 0.297047 0.511802 0.782262
Si Si4 0.664155 0.772426 0.328123
Si Si5 0.568142 0.275012 0.330007
Si Si6 0.347794 0.987225 0.381074
O O1 0.346491 0.880890 0.123747
O O2 0.122501 0.097118 0.061153
O O3 0.363564 0.163489 0.098690
O O4 0.135662 0.930266 0.979258
O O5 0.374377 0.641448 0.336548
O O6 0.490548 0.864816 0.437383
O O7 0.211562 0.609612 0.797702
O O8 0.435523 0.617944 0.808046
O O9 0.185573 0.478973 0.693170
O O10 0.500000 0.695844 0.250000
O O11 0.811700 0.658393 0.391743
O O12 0.500000 0.196710 0.250000
O O13 0.707247 0.384597 0.357229
#
# Coordination Sequence:
#
# PCOD9270230 Si02
#       6
#     8   8   8   8   8   8
#     4   9  19  35  55  81 116 149 184 228 278 340
#     4   9  19  36  56  81 112 150 187 226 280 338
#     4  10  20  36  60  84 109 145 192 237 281 339
#     4  11  22  35  56  84 113 147 190 239 283 332
#     4   9  18  35  58  84 112 148 187 227 279 337
#     4  10  20  35  57  81 111 146 187 236 279 328
#
# _framework density 26.642641999999999
#
# number of rings (size 3 to 8) (size 9 to 14) (size 15 to 20)
#    0.000    2.333    0.000    3.000    0.000    5.333 
#    0.000    0.833    0.000   14.000    0.000    0.000 
#    0.000    0.000    0.000    0.000    0.000    0.000 
#
# Total GULP energy -134183.316733 kJ/mol
# GULP energy per Si atom -5590.971531 kJ/mol
# Density = 2.658200 g / cm^3
# Si number density = 26.642642 Si / 1000 Ang^3
#
#
#
# Elastic Constant Matrix: (Units=GPa)
#
#
# Indices 1 2 3 4 5 6 
#
# 1 67.7131 -4.9409 5.9166 0.0000 13.7275 0.0000
# 2 -4.9409 57.8208 -28.6088 0.0000 1.5572 0.0000
# 3 5.9166 -28.6088 50.2925 0.0000 -1.0932 0.0000
# 4 0.0000 0.0000 0.0000 9.9714 0.0000 9.7561
# 5 13.7275 1.5572 -1.0932 0.0000 19.5893 0.0000
# 6 0.0000 0.0000 0.0000 9.7561 0.0000 30.1122
#
#
#
# Elastic Compliance Matrix: (Units=1/GPa)
#
#
# Indices 1 2 3 4 5 6 
#
# 1 0.017518 0.000944 -0.001794 0.000000 -0.012451 0.000000
# 2 0.000944 0.024146 0.013585 0.000000 -0.001823 0.000000
# 3 -0.001794 0.013585 0.027860 0.000000 0.001732 0.000000
# 4 0.000000 0.000000 0.000000 0.146833 0.000000 -0.047573
# 5 -0.012451 -0.001823 0.001732 0.000000 0.060015 0.000000
# 6 0.000000 0.000000 0.000000 -0.047573 0.000000 0.048622
#
#
# Mechanical properties :
#
#
# Convention : Reuss Voigt Hill
#
# Bulk Modulus (GPa) = 10.52693 13.39558 11.96125
# Shear Modulus (GPa) = 15.09708 25.49855 20.29782
#
# Velocity S-wave (km/s) = 2.38303 3.09699 2.76317
# Velocity P-wave (km/s) = 3.39580 4.22223 3.83137
#
# Compressibility (1/GPa) = 0.09499445
#
# Stress axis : x y z
#
# Youngs Moduli (GPa) = 57.08371 41.41440 35.89360
#
# Poissons Ratio (x) = -0.03912 0.06440
# Poissons Ratio (y) = -0.05392 -0.48761
# Poissons Ratio (z) = 0.10242 -0.56261
#
# Static dielectric constant tensor:
#      x y z
#    x 2.122780 0.000000 0.036710 
#    y 0.000000 2.060770 0.000000 
#    z 0.036710 0.000000 2.128710 
# 
# From -- ./inp_files/295454.got.cif
#   From: 2010.05.17/outbox.cif.g08.bks.cpg/sg15_148_cif.got.tgz:295454.got - 2010.06.03 18:47:42.
