data_PCOD9270808
_publ_section_title
;
Structure prediction by ZEFSAII (Michael W. Deem and Ramdas Pophale) SiO2 
 PCOD9270808
Probable space group: C 2/C
;
_chemical_formula_sum "Si O2"
_cell_formula_units_Z 48
_cell_length_a 9.766867
_cell_length_b 16.151163
_cell_length_c 16.023256
_cell_angle_alpha 90.000000
_cell_angle_beta 118.614088
_cell_angle_gamma 90.000000
_cell_volume 2218.899855
_symmetry_space_group_name_H-M "C 2/C"
_symmetry_group_IT_number 15
_symmetry_cell_setting 'monoclinic'
loop_
_space_group_symop_operation_xyz
x,y,z
-x,y,1/2-z
-x,-y,-z
x,-y,1/2+z
1/2+x,1/2+y,z
1/2-x,1/2+y,1/2-z
1/2-x,1/2-y,-z
1/2+x,1/2-y,1/2+z
loop_
_atom_site_type_symbol
_atom_site_label
_atom_site_fract_x
_atom_site_fract_y
_atom_site_fract_z
Si Si1 0.500000 0.545800 0.750000
Si Si2 0.000000 0.471671 0.750000
Si Si3 0.805811 0.377985 0.264956
Si Si4 0.145424 0.346867 0.925678
Si Si5 0.141609 0.976064 0.452210
Si Si6 0.649877 0.373314 0.051987
Si Si7 0.432814 0.761098 0.443211
O O1 0.359417 0.602730 0.740316
O O2 0.433561 0.493287 0.654791
O O3 0.113922 0.534068 0.733448
O O4 0.079994 0.409957 0.839054
O O5 0.758137 0.343655 0.159257
O O6 0.905236 0.321085 0.356661
O O7 0.269051 0.287128 0.915027
O O8 0.235399 0.403006 0.020170
O O9 0.030181 0.298456 0.953309
O O10 0.999802 0.926031 0.455787
O O11 0.224980 0.052351 0.521601
O O12 0.572919 0.303613 0.972503
#
# Coordination Sequence:
#
# PCOD9270808 Si02
#       7
#     4   4   8   8   8   8   8
#     4  10  20  35  67  90 118 166 218 256 292 389
#     4  12  26  41  67  92 134 168 208 260 330 373
#     4  11  23  41  64  95 127 170 209 264 319 378
#     4  10  21  39  61  96 122 163 214 268 302 372
#     4   9  16  36  59  90 120 159 209 248 311 370
#     4   9  19  35  61  87 127 164 197 260 316 376
#     4  10  22  38  63  97 127 159 217 268 312 367
#
# _framework density 21.632342999999999
#
# number of rings (size 3 to 8) (size 9 to 14) (size 15 to 20)
#    0.000    2.000    3.333    0.000    7.000    0.667 
#    0.000    1.667    0.000    0.000    0.000    0.000 
#    0.000    0.000    0.000    0.000    0.000    0.000 
#
# Total GULP energy -133680.398233 kJ/mol
# GULP energy per Si atom -5570.016593 kJ/mol
# Density = 2.158311 g / cm^3
# Si number density = 21.632343 Si / 1000 Ang^3
#
#
#
# Elastic Constant Matrix: (Units=GPa)
#
#
# Indices 1 2 3 4 5 6 
#
# 1 36.4562 16.7926 -2.4758 0.0000 -3.9145 0.0000
# 2 16.7926 94.0640 62.7662 0.0000 2.0018 0.0000
# 3 -2.4758 62.7662 143.2252 0.0000 1.2156 0.0000
# 4 0.0000 0.0000 0.0000 68.3524 0.0000 -4.7152
# 5 -3.9145 2.0018 1.2156 0.0000 7.1922 0.0000
# 6 0.0000 0.0000 0.0000 -4.7152 0.0000 30.2935
#
#
#
# Elastic Compliance Matrix: (Units=1/GPa)
#
#
# Indices 1 2 3 4 5 6 
#
# 1 0.034436 -0.009705 0.004673 0.000000 0.020654 0.000000
# 2 -0.009705 0.017828 -0.007905 0.000000 -0.008908 0.000000
# 3 0.004673 -0.007905 0.010502 0.000000 0.002969 0.000000
# 4 0.000000 0.000000 0.000000 0.014789 0.000000 0.002302
# 5 0.020654 -0.008908 0.002969 0.000000 0.152259 0.000000
# 6 0.000000 0.000000 0.000000 0.002302 0.000000 0.033369
#
#
# Mechanical properties :
#
#
# Convention : Reuss Voigt Hill
#
# Bulk Modulus (GPa) = 27.10669 47.54568 37.32619
# Shear Modulus (GPa) = 16.59179 34.27844 25.43512
#
# Velocity S-wave (km/s) = 2.77246 3.98501 3.43270
# Velocity P-wave (km/s) = 4.77562 6.57271 5.74487
#
# Compressibility (1/GPa) = 0.03689126
#
# Stress axis : x y z
#
# Youngs Moduli (GPa) = 29.03957 56.09137 95.22134
#
# Poissons Ratio (x) = 0.54439 -0.44499
# Poissons Ratio (y) = 0.28184 0.75273
# Poissons Ratio (z) = -0.13571 0.44340
#
# Static dielectric constant tensor:
#      x y z
#    x 1.817840 0.000000 -0.036000 
#    y 0.000000 1.780180 0.000000 
#    z -0.036000 0.000000 1.826530 
# 
# From -- ./inp_files/144426.got.cif
#   From: 2010.05.17/outbox.cif.g08.bks.cpg/sg15_73_cif.got.tgz:144426.got - 2010.06.03 18:47:42.
