data_PCOD9270905
_publ_section_title
;
Structure prediction by ZEFSAII (Michael W. Deem and Ramdas Pophale) SiO2 
 PCOD9270905
Probable space group: C 2/C
;
_chemical_formula_sum "Si O2"
_cell_formula_units_Z 56
_cell_length_a 12.347601
_cell_length_b 7.644665
_cell_length_c 23.438760
_cell_angle_alpha 90.000000
_cell_angle_beta 83.705533
_cell_angle_gamma 90.000000
_cell_volume 2199.123559
_symmetry_space_group_name_H-M "C 2/C"
_symmetry_group_IT_number 15
_symmetry_cell_setting 'monoclinic'
loop_
_space_group_symop_operation_xyz
x,y,z
-x,y,1/2-z
-x,-y,-z
x,-y,1/2+z
1/2+x,1/2+y,z
1/2-x,1/2+y,1/2-z
1/2-x,1/2-y,-z
1/2+x,1/2-y,1/2+z
loop_
_atom_site_type_symbol
_atom_site_label
_atom_site_fract_x
_atom_site_fract_y
_atom_site_fract_z
Si Si1 0.437158 0.097930 0.452100
Si Si2 0.044506 0.282194 0.193134
Si Si3 0.182938 0.674256 0.833052
Si Si4 0.607248 0.332112 0.951989
Si Si5 0.356022 0.714350 0.600513
Si Si6 0.869162 0.226005 0.423898
Si Si7 0.734918 0.555587 0.782839
O O1 0.370832 0.252447 0.487003
O O2 0.530288 0.187937 0.409942
O O3 0.500000 0.000000 0.500000
O O4 0.374197 0.939969 0.425299
O O5 0.089343 0.165114 0.140255
O O6 0.139396 0.409259 0.207794
O O7 0.000000 0.179224 0.250000
O O8 0.940107 0.382597 0.174770
O O9 0.169794 0.708834 0.901564
O O10 0.265950 0.571909 0.786189
O O11 0.198964 0.867019 0.805635
O O12 0.635894 0.526964 0.931230
O O13 0.472787 0.329686 0.955578
O O14 0.259410 0.813424 0.570092
O O15 0.325108 0.685972 0.668888
#
# Coordination Sequence:
#
# PCOD9270905 Si02
#       7
#     8   8   8   8   8   8   8
#     4  10  21  35  54  80 104 136 180 214 254 311
#     4   8  15  30  51  72 101 133 165 208 257 304
#     4   9  17  31  52  76 103 134 169 212 258 304
#     4   9  19  35  53  76 106 137 172 214 257 309
#     4  10  20  36  55  77 105 137 174 213 260 311
#     4   9  19  35  54  76 103 136 174 216 259 304
#     4   9  18  31  55  79  99 137 174 206 261 312
#
# _framework density 25.464690000000001
#
# number of rings (size 3 to 8) (size 9 to 14) (size 15 to 20)
#    0.000    2.857    0.000    0.429    0.000    7.429 
#    0.000    2.857    0.000   48.857    0.000    0.000 
#    0.000    0.000    0.000    0.000    0.000    0.000 
#
# Total GULP energy -156008.331453 kJ/mol
# GULP energy per Si atom -5571.726123 kJ/mol
# Density = 2.540673 g / cm^3
# Si number density = 25.464690 Si / 1000 Ang^3
#
#
#
# Elastic Constant Matrix: (Units=GPa)
#
#
# Indices 1 2 3 4 5 6 
#
# 1 98.0943 24.9181 29.6118 0.0000 -23.1401 0.0000
# 2 24.9181 65.4403 28.3775 0.0000 -17.3006 0.0000
# 3 29.6118 28.3775 134.5619 0.0000 -31.4168 0.0000
# 4 0.0000 0.0000 0.0000 33.3288 0.0000 -3.9948
# 5 -23.1401 -17.3006 -31.4168 0.0000 26.2785 0.0000
# 6 0.0000 0.0000 0.0000 -3.9948 0.0000 26.4036
#
#
#
# Elastic Compliance Matrix: (Units=1/GPa)
#
#
# Indices 1 2 3 4 5 6 
#
# 1 0.013161 -0.002347 -0.000078 0.000000 0.009951 0.000000
# 2 -0.002347 0.019131 -0.001470 0.000000 0.008771 0.000000
# 3 -0.000078 -0.001470 0.010427 0.000000 0.011429 0.000000
# 4 0.000000 0.000000 0.000000 0.030558 0.000000 0.004623
# 5 0.009951 0.008771 0.011429 0.000000 0.066255 0.000000
# 6 0.000000 0.000000 0.000000 0.004623 0.000000 0.038573
#
#
# Mechanical properties :
#
#
# Convention : Reuss Voigt Hill
#
# Bulk Modulus (GPa) = 28.62929 51.54570 40.08749
# Shear Modulus (GPa) = 25.31132 31.54810 28.42971
#
# Velocity S-wave (km/s) = 3.15616 3.52361 3.34494
# Velocity P-wave (km/s) = 4.95469 6.06963 5.54028
#
# Compressibility (1/GPa) = 0.03492926
#
# Stress axis : x y z
#
# Youngs Moduli (GPa) = 75.97942 52.27109 95.90252
#
# Poissons Ratio (x) = 0.12267 0.00748
# Poissons Ratio (y) = 0.17831 0.14101
# Poissons Ratio (z) = 0.00593 0.07686
#
# Static dielectric constant tensor:
#      x y z
#    x 2.040130 0.000000 -0.014720 
#    y 0.000000 2.079870 0.000000 
#    z -0.014720 0.000000 2.123880 
# 
# From -- ./inp_files/291514.got.cif
#   From: 2010.05.17/outbox.cif.g08.bks.cpg/sg15_146_cif.got.tgz:291514.got - 2010.06.03 18:47:42.
