data_PCOD9270984
_publ_section_title
;
Structure prediction by ZEFSAII (Michael W. Deem and Ramdas Pophale) SiO2 
 PCOD9270984
Probable space group: C 2/C
;
_chemical_formula_sum "Si O2"
_cell_formula_units_Z 52
_cell_length_a 17.414965
_cell_length_b 26.403687
_cell_length_c 5.437171
_cell_angle_alpha 90.000000
_cell_angle_beta 108.544248
_cell_angle_gamma 90.000000
_cell_volume 2370.305871
_symmetry_space_group_name_H-M "C 2/C"
_symmetry_group_IT_number 15
_symmetry_cell_setting 'monoclinic'
loop_
_space_group_symop_operation_xyz
x,y,z
-x,y,1/2-z
-x,-y,-z
x,-y,1/2+z
1/2+x,1/2+y,z
1/2-x,1/2+y,1/2-z
1/2-x,1/2-y,-z
1/2+x,1/2-y,1/2+z
loop_
_atom_site_type_symbol
_atom_site_label
_atom_site_fract_x
_atom_site_fract_y
_atom_site_fract_z
Si Si1 0.611190 0.371005 0.980906
Si Si2 0.000000 0.922942 0.250000
Si Si3 0.165256 0.725527 0.334283
Si Si4 0.840205 0.046649 0.340914
Si Si5 0.264897 0.123027 0.948704
Si Si6 0.089866 0.763350 0.754800
Si Si7 0.312526 0.978117 0.332469
O O1 0.536530 0.385735 0.079802
O O2 0.689202 0.355073 0.220449
O O3 0.630971 0.423857 0.870824
O O4 0.598701 0.324258 0.785223
O O5 0.076572 0.956469 0.418110
O O6 0.250000 0.750000 0.500000
O O7 0.179132 0.665581 0.380168
O O8 0.106531 0.744965 0.494318
O O9 0.144185 0.739780 0.031718
O O10 0.778867 0.087797 0.395624
O O11 0.781483 0.998892 0.241200
O O12 0.311405 0.082279 0.827876
O O13 0.000000 0.750382 0.750000
O O14 0.348935 0.998559 0.623523
#
# Coordination Sequence:
#
# PCOD9270984 Si02
#       7
#     8   4   8   8   8   8   8
#     4  11  21  37  59  81 122 165 213 259 300 362
#     4  10  22  34  54  82 116 174 216 246 302 368
#     4  12  25  42  66  95 126 166 220 269 320 379
#     4  10  20  36  56  82 121 162 207 256 310 365
#     4  10  22  37  60  86 117 156 207 260 311 354
#     4  12  27  42  65  93 132 170 217 263 327 383
#     4  10  20  36  57  81 116 154 193 254 309 359
#
# _framework density 21.938099000000001
#
# number of rings (size 3 to 8) (size 9 to 14) (size 15 to 20)
#    0.000    1.231    3.077    3.231    6.462    0.000 
#    0.000    6.923    0.000    0.000    0.000    0.000 
#    0.000   49.231    0.000    0.000    0.000    0.000 
#
# Total GULP energy -145237.907470 kJ/mol
# GULP energy per Si atom -5586.073364 kJ/mol
# Density = 2.188817 g / cm^3
# Si number density = 21.938099 Si / 1000 Ang^3
#
#
#
# Elastic Constant Matrix: (Units=GPa)
#
#
# Indices 1 2 3 4 5 6 
#
# 1 25.7492 -3.2957 -9.0250 0.0000 -15.0564 0.0000
# 2 -3.2957 107.4841 13.6746 0.0000 3.9633 0.0000
# 3 -9.0250 13.6746 72.6296 0.0000 -10.7885 0.0000
# 4 0.0000 0.0000 0.0000 35.6066 0.0000 1.3898
# 5 -15.0564 3.9633 -10.7885 0.0000 32.9719 0.0000
# 6 0.0000 0.0000 0.0000 1.3898 0.0000 20.8468
#
#
#
# Elastic Compliance Matrix: (Units=1/GPa)
#
#
# Indices 1 2 3 4 5 6 
#
# 1 0.062367 -0.000924 0.012792 0.000000 0.032776 0.000000
# 2 -0.000924 0.009651 -0.002278 0.000000 -0.002327 0.000000
# 3 0.012792 -0.002278 0.017548 0.000000 0.011857 0.000000
# 4 0.000000 0.000000 0.000000 0.028158 0.000000 -0.001877
# 5 0.032776 -0.002327 0.011857 0.000000 0.049455 0.000000
# 6 0.000000 0.000000 0.000000 -0.001877 0.000000 0.048094
#
#
# Mechanical properties :
#
#
# Convention : Reuss Voigt Hill
#
# Bulk Modulus (GPa) = 9.19557 23.17452 16.18505
# Shear Modulus (GPa) = 21.52012 31.51899 26.51955
#
# Velocity S-wave (km/s) = 3.13541 3.79453 3.48060
# Velocity P-wave (km/s) = 4.16034 5.45751 4.85246
#
# Compressibility (1/GPa) = 0.10874801
#
# Stress axis : x y z
#
# Youngs Moduli (GPa) = 16.03413 103.61681 56.98612
#
# Poissons Ratio (x) = 0.09572 -0.72898
# Poissons Ratio (y) = 0.01481 0.12979
# Poissons Ratio (z) = -0.20511 0.23599
#
# Static dielectric constant tensor:
#      x y z
#    x 1.807280 0.000000 -0.031600 
#    y 0.000000 1.830100 0.000000 
#    z -0.031600 0.000000 1.958820 
# 
# From -- ./inp_files/11342.got.cif
#   From: 2010.05.17/outbox.cif.g08.bks.cpg/sg15_6_cif.got.tgz:11342.got - 2010.06.03 18:47:42.
