data_PCOD9270265
_publ_section_title
;
Structure prediction by ZEFSAII (Michael W. Deem and Ramdas Pophale) SiO2 
 PCOD9270265
Probable space group: C 2/C
;
_chemical_formula_sum "Si O2"
_cell_formula_units_Z 56
_cell_length_a 15.462772
_cell_length_b 28.035957
_cell_length_c 8.181741
_cell_angle_alpha 90.000000
_cell_angle_beta 132.629398
_cell_angle_gamma 90.000000
_cell_volume 2609.627697
_symmetry_space_group_name_H-M "C 2/C"
_symmetry_group_IT_number 15
_symmetry_cell_setting 'monoclinic'
loop_
_space_group_symop_operation_xyz
x,y,z
-x,y,1/2-z
-x,-y,-z
x,-y,1/2+z
1/2+x,1/2+y,z
1/2-x,1/2+y,1/2-z
1/2-x,1/2-y,-z
1/2+x,1/2-y,1/2+z
loop_
_atom_site_type_symbol
_atom_site_label
_atom_site_fract_x
_atom_site_fract_y
_atom_site_fract_z
Si Si1 0.174251 0.874818 0.255731
Si Si2 0.131696 0.558133 0.983431
Si Si3 0.639203 0.951223 0.881814
Si Si4 0.277406 0.156123 0.537161
Si Si5 0.466317 0.788748 0.463638
Si Si6 0.687357 0.800550 0.908237
Si Si7 0.962279 0.179979 0.391438
O O1 0.257385 0.920694 0.397490
O O2 0.214103 0.840029 0.451279
O O3 0.219491 0.854094 0.140830
O O4 0.033427 0.864916 0.059867
O O5 0.141919 0.556540 0.191428
O O6 0.195648 0.603968 0.995609
O O7 0.165948 0.506251 0.958315
O O8 0.000000 0.564275 0.750000
O O9 0.500000 0.940996 0.750000
O O10 0.387079 0.191005 0.715398
O O11 0.178125 0.177727 0.294133
O O12 0.596250 0.810381 0.646323
O O13 0.393113 0.802394 0.531617
O O14 0.490135 0.732090 0.498288
O O15 0.750000 0.750000 0.000000
O O16 0.000000 0.182300 0.250000
#
# Coordination Sequence:
#
# PCOD9270265 Si02
#       7
#     8   8   8   8   8   8   8
#     4  10  21  38  62  85 122 166 205 248 308 365
#     4  11  23  41  63  97 123 157 200 256 309 370
#     4  11  23  41  67  92 126 157 197 254 314 369
#     4  10  22  39  59  87 125 161 210 253 305 361
#     4  10  21  36  57  86 119 164 208 255 301 360
#     4  10  20  35  57  84 121 160 206 256 304 358
#     4  10  21  40  58  84 121 166 205 254 302 357
#
# _framework density 21.458998999999999
#
# number of rings (size 3 to 8) (size 9 to 14) (size 15 to 20)
#    0.000    1.714    1.429    3.857    6.000    1.714 
#    0.000    0.714    0.000    0.000    0.000    0.000 
#    0.000    0.000    0.000    0.000    0.000    0.000 
#
# Total GULP energy -156167.355165 kJ/mol
# GULP energy per Si atom -5577.405542 kJ/mol
# Density = 2.141016 g / cm^3
# Si number density = 21.458999 Si / 1000 Ang^3
#
#
#
# Elastic Constant Matrix: (Units=GPa)
#
#
# Indices 1 2 3 4 5 6 
#
# 1 36.8690 0.9119 37.1541 0.0000 5.6978 0.0000
# 2 0.9119 52.9519 24.7942 0.0000 17.2669 0.0000
# 3 37.1541 24.7942 122.8567 0.0000 14.2426 0.0000
# 4 0.0000 0.0000 0.0000 10.3001 0.0000 0.6958
# 5 5.6978 17.2669 14.2426 0.0000 32.0662 0.0000
# 6 0.0000 0.0000 0.0000 0.6958 0.0000 26.1301
#
#
#
# Elastic Compliance Matrix: (Units=1/GPa)
#
#
# Indices 1 2 3 4 5 6 
#
# 1 0.041163 0.007249 -0.013296 0.000000 -0.005312 0.000000
# 2 0.007249 0.025585 -0.005914 0.000000 -0.012438 0.000000
# 3 -0.013296 -0.005914 0.013401 0.000000 -0.000405 0.000000
# 4 0.000000 0.000000 0.000000 0.097261 0.000000 -0.002590
# 5 -0.005312 -0.012438 -0.000405 0.000000 0.039007 0.000000
# 6 0.000000 0.000000 0.000000 -0.002590 0.000000 0.038339
#
#
# Mechanical properties :
#
#
# Convention : Reuss Voigt Hill
#
# Bulk Modulus (GPa) = 17.78461 37.59978 27.69220
# Shear Modulus (GPa) = 16.81126 23.68713 20.24920
#
# Velocity S-wave (km/s) = 2.80199 3.32600 3.07518
# Velocity P-wave (km/s) = 4.33288 5.68414 5.05388
#
# Compressibility (1/GPa) = 0.05622838
#
# Stress axis : x y z
#
# Youngs Moduli (GPa) = 24.29366 39.08505 74.62237
#
# Poissons Ratio (x) = -0.28332 0.99214
# Poissons Ratio (y) = -0.17610 0.44129
# Poissons Ratio (z) = 0.32300 0.23114
#
# Static dielectric constant tensor:
#      x y z
#    x 1.800290 0.000000 -0.011900 
#    y 0.000000 1.837320 0.000000 
#    z -0.011900 0.000000 1.833080 
# 
# From -- ./inp_files/52366.got.cif
#   From: 2010.05.17/outbox.cif.g08.bks.cpg/sg15_27_cif.got.tgz:52366.got - 2010.06.03 18:47:42.
