data_PCOD9270135
_publ_section_title
;
Structure prediction by ZEFSAII (Michael W. Deem and Ramdas Pophale) SiO2 
 PCOD9270135
Probable space group: C 2/C
;
_chemical_formula_sum "Si O2"
_cell_formula_units_Z 48
_cell_length_a 18.985748
_cell_length_b 8.832992
_cell_length_c 18.148848
_cell_angle_alpha 90.000000
_cell_angle_beta 120.707381
_cell_angle_gamma 90.000000
_cell_volume 2616.828323
_symmetry_space_group_name_H-M "C 2/C"
_symmetry_group_IT_number 15
_symmetry_cell_setting 'monoclinic'
loop_
_space_group_symop_operation_xyz
x,y,z
-x,y,1/2-z
-x,-y,-z
x,-y,1/2+z
1/2+x,1/2+y,z
1/2-x,1/2+y,1/2-z
1/2-x,1/2-y,-z
1/2+x,1/2-y,1/2+z
loop_
_atom_site_type_symbol
_atom_site_label
_atom_site_fract_x
_atom_site_fract_y
_atom_site_fract_z
Si Si1 0.579991 0.566834 0.004643
Si Si2 0.169080 0.670256 0.365834
Si Si3 0.238696 0.907575 0.833879
Si Si4 0.736270 0.444714 0.175145
Si Si5 0.416031 0.529501 0.669157
Si Si6 0.162230 0.634441 0.529948
O O1 0.658418 0.487787 0.083630
O O2 0.593216 0.748562 0.020597
O O3 0.500000 0.500000 0.000000
O O4 0.579761 0.536965 0.916926
O O5 0.187489 0.540251 0.317203
O O6 0.102519 0.798574 0.312933
O O7 0.151375 0.604347 0.437452
O O8 0.253568 0.767310 0.417713
O O9 0.249703 0.733191 0.820805
O O10 0.221505 0.999682 0.750012
O O11 0.161575 0.931441 0.846651
O O12 0.318299 0.984087 0.914193
O O13 0.500000 0.475033 0.750000
#
# Coordination Sequence:
#
# PCOD9270135 Si02
#       6
#     8   8   8   8   8   8
#     4  10  20  35  56  80 109 145 183 222 269 322
#     4   8  16  32  52  74 101 136 176 215 262 316
#     4  11  21  34  55  81 109 142 184 227 268 321
#     4  11  21  34  55  80 107 141 183 227 270 322
#     4  10  20  35  56  80 109 144 178 218 270 325
#     4   8  16  32  52  75 104 138 175 216 261 314
#
# _framework density 18.342815000000002
#
# number of rings (size 3 to 8) (size 9 to 14) (size 15 to 20)
#    0.000    2.333    0.000    7.000    0.000    2.667 
#    0.000    1.667    0.000    6.000    0.000    0.000 
#    0.000    0.000    0.000    0.000    0.000    0.000 
#
# Total GULP energy -133838.777757 kJ/mol
# GULP energy per Si atom -5576.615740 kJ/mol
# Density = 1.830107 g / cm^3
# Si number density = 18.342815 Si / 1000 Ang^3
#
#
#
# Elastic Constant Matrix: (Units=GPa)
#
#
# Indices 1 2 3 4 5 6 
#
# 1 89.4245 34.3511 15.4337 0.0000 -12.0183 0.0000
# 2 34.3511 75.2983 -3.7943 0.0000 -21.9990 0.0000
# 3 15.4337 -3.7943 33.9118 0.0000 -13.6906 0.0000
# 4 0.0000 0.0000 0.0000 26.9108 0.0000 -7.8954
# 5 -12.0183 -21.9990 -13.6906 0.0000 23.8523 0.0000
# 6 0.0000 0.0000 0.0000 -7.8954 0.0000 17.1921
#
#
#
# Elastic Compliance Matrix: (Units=1/GPa)
#
#
# Indices 1 2 3 4 5 6 
#
# 1 0.016078 -0.010313 -0.011767 0.000000 -0.008165 0.000000
# 2 -0.010313 0.029008 0.021662 0.000000 0.033990 0.000000
# 3 -0.011767 0.021662 0.055890 0.000000 0.046129 0.000000
# 4 0.000000 0.000000 0.000000 0.042946 0.000000 0.019723
# 5 -0.008165 0.033990 0.046129 0.000000 0.095637 0.000000
# 6 0.000000 0.000000 0.000000 0.019723 0.000000 0.067224
#
#
# Mechanical properties :
#
#
# Convention : Reuss Voigt Hill
#
# Bulk Modulus (GPa) = 9.98626 32.29061 21.13843
# Shear Modulus (GPa) = 14.66274 23.76732 19.21503
#
# Velocity S-wave (km/s) = 2.83039 3.60353 3.24010
# Velocity P-wave (km/s) = 4.01715 5.91237 5.05438
#
# Compressibility (1/GPa) = 0.10013756
#
# Stress axis : x y z
#
# Youngs Moduli (GPa) = 62.19732 34.47383 17.89220
#
# Poissons Ratio (x) = 0.35553 0.21055
# Poissons Ratio (y) = 0.64145 -0.38757
# Poissons Ratio (z) = 0.73191 -0.74676
#
# Static dielectric constant tensor:
#      x y z
#    x 1.639970 0.000000 0.004010 
#    y 0.000000 1.641000 0.000000 
#    z 0.004010 0.000000 1.626200 
# 
# From -- ./inp_files/209316.got.cif
#   From: 2010.05.17/outbox.cif.g08.bks.cpg/sg15_105_cif.got.tgz:209316.got - 2010.06.03 18:47:42.
