data_PCOD9270180
_publ_section_title
;
Structure prediction by ZEFSAII (Michael W. Deem and Ramdas Pophale) SiO2 
 PCOD9270180
Probable space group: C 2/C
;
_chemical_formula_sum "Si O2"
_cell_formula_units_Z 40
_cell_length_a 10.366535
_cell_length_b 13.857277
_cell_length_c 17.897594
_cell_angle_alpha 90.000000
_cell_angle_beta 44.365744
_cell_angle_gamma 90.000000
_cell_volume 1797.752815
_symmetry_space_group_name_H-M "C 2/C"
_symmetry_group_IT_number 15
_symmetry_cell_setting 'monoclinic'
loop_
_space_group_symop_operation_xyz
x,y,z
-x,y,1/2-z
-x,-y,-z
x,-y,1/2+z
1/2+x,1/2+y,z
1/2-x,1/2+y,1/2-z
1/2-x,1/2-y,-z
1/2+x,1/2-y,1/2+z
loop_
_atom_site_type_symbol
_atom_site_label
_atom_site_fract_x
_atom_site_fract_y
_atom_site_fract_z
Si Si1 0.901560 0.318996 0.172656
Si Si2 0.102272 0.363967 0.939038
Si Si3 0.809825 0.396842 0.943498
Si Si4 0.512201 0.294816 0.362755
Si Si5 0.000000 0.843807 0.750000
Si Si6 0.500000 0.026269 0.750000
O O1 0.687764 0.308610 0.237752
O O2 0.972200 0.224705 0.188422
O O3 0.902096 0.405605 0.231249
O O4 0.033288 0.346574 0.050437
O O5 0.309958 0.400343 0.842234
O O6 0.953679 0.421498 0.950617
O O7 0.097184 0.257645 0.901463
O O8 0.872278 0.288447 0.893148
O O9 0.850758 0.463674 0.856757
O O10 0.607533 0.385580 0.061663
#
# Coordination Sequence:
#
# PCOD9270180 Si02
#       6
#     8   8   8   8   4   4
#     4  10  20  35  56  85 119 151 186 237 288 342
#     4   9  18  34  58  81 107 150 197 231 269 339
#     4   9  20  36  56  85 113 152 192 239 278 338
#     4   8  19  36  59  87 106 155 199 232 270 340
#     4   9  18  34  54  86 111 148 194 237 274 328
#     4  11  24  36  54  86 129 144 178 245 304 328
#
# _framework density 22.25
#
# number of rings (size 3 to 8) (size 9 to 14) (size 15 to 20)
#    1.200    1.600    0.000    0.600    2.800    2.400 
#    0.000    2.000    0.000    0.000    0.000    0.000 
#    0.000    0.000    0.000    0.000    0.000    0.000 
#
# Total GULP energy -111515.896664 kJ/mol
# GULP energy per Si atom -5575.794833 kJ/mol
# Density = 2.219936 g / cm^3
# Si number density = 22.250000 Si / 1000 Ang^3
#
#
#
# Elastic Constant Matrix: (Units=GPa)
#
#
# Indices 1 2 3 4 5 6 
#
# 1 57.4901 -5.1260 45.4089 0.0000 -8.7274 0.0000
# 2 -5.1260 24.3463 -2.0428 0.0000 8.3560 0.0000
# 3 45.4089 -2.0428 101.4663 -0.0001 -2.3677 0.0000
# 4 0.0000 0.0000 -0.0001 10.9960 0.0000 4.1963
# 5 -8.7274 8.3560 -2.3677 0.0000 45.5043 0.0000
# 6 0.0000 0.0000 0.0000 4.1963 0.0000 8.4410
#
#
#
# Elastic Compliance Matrix: (Units=1/GPa)
#
#
# Indices 1 2 3 4 5 6 
#
# 1 0.028147 0.003471 -0.012430 0.000000 0.004114 0.000000
# 2 0.003471 0.044314 -0.000837 0.000000 -0.007515 0.000000
# 3 -0.012430 -0.000837 0.015368 0.000000 -0.001431 0.000000
# 4 0.000000 0.000000 0.000000 0.112234 0.000000 -0.055795
# 5 0.004114 -0.007515 -0.001431 0.000000 0.024071 0.000000
# 6 0.000000 0.000000 0.000000 -0.055795 0.000000 0.146208
#
#
# Mechanical properties :
#
#
# Convention : Reuss Voigt Hill
#
# Bulk Modulus (GPa) = 14.65485 28.86478 21.75982
# Shear Modulus (GPa) = 12.11595 22.65910 17.38753
#
# Velocity S-wave (km/s) = 2.33606 3.19468 2.79850
# Velocity P-wave (km/s) = 3.72519 5.15840 4.49923
#
# Compressibility (1/GPa) = 0.06823680
#
# Stress axis : x y z
#
# Youngs Moduli (GPa) = 35.52824 22.56624 65.06928
#
# Poissons Ratio (x) = -0.07833 0.80884
# Poissons Ratio (y) = -0.12332 0.05444
# Poissons Ratio (z) = 0.44163 0.01888
#
# Static dielectric constant tensor:
#      x y z
#    x 1.894450 0.000000 -0.045760 
#    y 0.000000 1.849210 0.000000 
#    z -0.045760 0.000000 1.814970 
# 
# From -- ./inp_files/197611.got.cif
#   From: 2010.05.17/outbox.cif.g08.bks.cpg/sg15_99_cif.got.tgz:197611.got - 2010.06.03 18:47:42.
