data_PCOD9270042
_publ_section_title
;
Structure prediction by ZEFSAII (Michael W. Deem and Ramdas Pophale) SiO2 
 PCOD9270042
Probable space group: C 2/C
;
_chemical_formula_sum "Si O2"
_cell_formula_units_Z 56
_cell_length_a 10.098041
_cell_length_b 11.397909
_cell_length_c 19.664571
_cell_angle_alpha 90.000000
_cell_angle_beta 87.752077
_cell_angle_gamma 90.000000
_cell_volume 2261.582605
_symmetry_space_group_name_H-M "C 2/C"
_symmetry_group_IT_number 15
_symmetry_cell_setting 'monoclinic'
loop_
_space_group_symop_operation_xyz
x,y,z
-x,y,1/2-z
-x,-y,-z
x,-y,1/2+z
1/2+x,1/2+y,z
1/2-x,1/2+y,1/2-z
1/2-x,1/2-y,-z
1/2+x,1/2-y,1/2+z
loop_
_atom_site_type_symbol
_atom_site_label
_atom_site_fract_x
_atom_site_fract_y
_atom_site_fract_z
Si Si1 0.318137 0.166876 0.053761
Si Si2 0.425749 0.068035 0.581418
Si Si3 0.906004 0.603868 0.808104
Si Si4 0.432259 0.367108 0.845271
Si Si5 0.135503 0.166890 0.449360
Si Si6 0.698431 0.418270 0.204539
Si Si7 0.409158 0.273540 0.407487
O O1 0.377277 0.038004 0.035041
O O2 0.198204 0.146822 0.106828
O O3 0.443296 0.228342 0.086115
O O4 0.250000 0.250000 0.000000
O O5 0.563349 0.048770 0.619351
O O6 0.423518 0.198397 0.550373
O O7 0.318186 0.073146 0.645995
O O8 0.955925 0.737618 0.816349
O O9 0.762928 0.606696 0.776096
O O10 0.000000 0.543265 0.750000
O O11 0.551833 0.400104 0.893928
O O12 0.384967 0.462886 0.792778
O O13 0.286860 0.184295 0.423778
O O14 0.116275 0.133381 0.528921
O O15 0.609431 0.322661 0.167870
#
# Coordination Sequence:
#
# PCOD9270042 Si02
#       7
#     8   8   8   8   8   8   8
#     4  11  21  37  55  87 121 151 179 237 294 347
#     4   8  18  35  58  79 111 155 196 220 287 348
#     4   9  18  38  61  79 108 152 202 238 268 349
#     4  10  20  38  60  81 113 151 190 231 289 342
#     4   9  18  37  55  81 109 156 193 229 268 344
#     4   9  19  35  57  84 110 151 186 235 295 335
#     4  10  20  35  54  83 118 145 189 230 282 337
#
# _framework density 24.761420000000001
#
# number of rings (size 3 to 8) (size 9 to 14) (size 15 to 20)
#    0.000    2.571    1.429    0.857    0.000    2.286 
#    5.143    3.571    0.000    0.000    0.000    0.000 
#    0.000    0.000    0.000    0.000    0.000    0.000 
#
# Total GULP energy -156297.103872 kJ/mol
# GULP energy per Si atom -5582.039424 kJ/mol
# Density = 2.470506 g / cm^3
# Si number density = 24.761420 Si / 1000 Ang^3
#
#
#
# Elastic Constant Matrix: (Units=GPa)
#
#
# Indices 1 2 3 4 5 6 
#
# 1 113.4124 14.7973 53.9107 0.0000 54.4728 0.0000
# 2 14.7973 58.6454 30.1190 0.0000 13.5673 0.0000
# 3 53.9107 30.1190 113.7166 0.0000 37.5860 0.0000
# 4 0.0000 0.0000 0.0000 19.3192 0.0000 8.9900
# 5 54.4728 13.5673 37.5860 0.0000 49.1847 0.0000
# 6 0.0000 0.0000 0.0000 8.9900 0.0000 27.8565
#
#
#
# Elastic Compliance Matrix: (Units=1/GPa)
#
#
# Indices 1 2 3 4 5 6 
#
# 1 0.019562 0.001199 -0.003106 0.000000 -0.019623 0.000000
# 2 0.001199 0.019949 -0.004809 0.000000 -0.003156 0.000000
# 3 -0.003106 -0.004809 0.013332 0.000000 -0.005422 0.000000
# 4 0.000000 0.000000 0.000000 0.060909 0.000000 -0.019657
# 5 -0.019623 -0.003156 -0.005422 0.000000 0.047078 0.000000
# 6 0.000000 0.000000 0.000000 -0.019657 0.000000 0.042242
#
#
# Mechanical properties :
#
#
# Convention : Reuss Voigt Hill
#
# Bulk Modulus (GPa) = 25.37347 53.71426 39.54386
# Shear Modulus (GPa) = 21.77307 31.73524 26.75416
#
# Velocity S-wave (km/s) = 2.96854 3.58388 3.29063
# Velocity P-wave (km/s) = 4.69245 6.23422 5.51745
#
# Compressibility (1/GPa) = 0.03941124
#
# Stress axis : x y z
#
# Youngs Moduli (GPa) = 51.11857 50.12784 75.00805
#
# Poissons Ratio (x) = -0.06009 0.23296
# Poissons Ratio (y) = -0.06128 0.36072
# Poissons Ratio (z) = 0.15876 0.24107
#
# Static dielectric constant tensor:
#      x y z
#    x 2.263290 0.000000 0.141050 
#    y 0.000000 2.033380 0.000000 
#    z 0.141050 0.000000 2.135040 
# 
# From -- ./inp_files/237125.got.cif
#   From: 2010.05.17/outbox.cif.g08.bks.cpg/sg15_119_cif.got.tgz:237125.got - 2010.06.03 18:47:42.
