data_PCOD9270179
_publ_section_title
;
Structure prediction by ZEFSAII (Michael W. Deem and Ramdas Pophale) SiO2 
 PCOD9270179
Probable space group: C 2/C
;
_chemical_formula_sum "Si O2"
_cell_formula_units_Z 32
_cell_length_a 9.222818
_cell_length_b 16.515717
_cell_length_c 9.093235
_cell_angle_alpha 90.000000
_cell_angle_beta 84.096826
_cell_angle_gamma 90.000000
_cell_volume 1377.749769
_symmetry_space_group_name_H-M "C 2/C"
_symmetry_group_IT_number 15
_symmetry_cell_setting 'monoclinic'
loop_
_space_group_symop_operation_xyz
x,y,z
-x,y,1/2-z
-x,-y,-z
x,-y,1/2+z
1/2+x,1/2+y,z
1/2-x,1/2+y,1/2-z
1/2-x,1/2-y,-z
1/2+x,1/2-y,1/2+z
loop_
_atom_site_type_symbol
_atom_site_label
_atom_site_fract_x
_atom_site_fract_y
_atom_site_fract_z
Si Si1 0.583485 0.278081 0.881179
Si Si2 0.342182 0.346372 0.332080
Si Si3 0.533225 0.136204 0.415319
Si Si4 0.864616 0.520747 0.648523
O O1 0.500000 0.309930 0.750000
O O2 0.724270 0.225150 0.816979
O O3 0.635328 0.342604 0.994227
O O4 0.478363 0.214073 0.980108
O O5 0.500000 0.333812 0.250000
O O6 0.271769 0.428849 0.280745
O O7 0.500000 0.156910 0.250000
O O8 0.416905 0.074470 0.503376
O O9 0.666003 0.072350 0.390148
O O10 0.000000 0.524627 0.750000
#
# Coordination Sequence:
#
# PCOD9270179 Si02
#       4
#     8   8   8   8
#     4  10  21  37  58  84 115 155 199 235 284 356
#     4  10  20  35  56  85 119 148 187 247 299 336
#     4   9  16  30  57  83 105 145 199 236 269 338
#     4   9  18  34  57  84 114 150 193 235 286 352
#
# _framework density 23.226277
#
# number of rings (size 3 to 8) (size 9 to 14) (size 15 to 20)
#    0.000    2.500    0.000    3.750    0.000    2.000 
#    0.000    7.500    0.000   54.000    0.000    7.000 
#    0.000    0.000    0.000    0.000    0.000    0.000 
#
# Total GULP energy -89236.948743 kJ/mol
# GULP energy per Si atom -5577.309296 kJ/mol
# Density = 2.317341 g / cm^3
# Si number density = 23.226277 Si / 1000 Ang^3
#
#
#
# Elastic Constant Matrix: (Units=GPa)
#
#
# Indices 1 2 3 4 5 6 
#
# 1 102.6233 26.4273 43.1020 0.0000 5.7774 0.0000
# 2 26.4273 77.2882 5.5302 0.0000 6.1390 0.0000
# 3 43.1020 5.5302 83.7115 0.0000 15.9493 0.0000
# 4 0.0000 0.0000 0.0000 -8.1881 0.0000 4.3808
# 5 5.7774 6.1390 15.9493 0.0000 36.6103 0.0000
# 6 0.0000 0.0000 0.0000 4.3808 0.0000 20.1265
#
#
#
# Elastic Compliance Matrix: (Units=1/GPa)
#
#
# Indices 1 2 3 4 5 6 
#
# 1 0.013751 -0.004324 -0.007109 0.000000 0.001652 0.000000
# 2 -0.004324 0.014491 0.001747 0.000000 -0.002509 0.000000
# 3 -0.007109 0.001747 0.016721 0.000000 -0.006456 0.000000
# 4 0.000000 0.000000 0.000000 -0.109389 0.000000 0.023810
# 5 0.001652 -0.002509 -0.006456 0.000000 0.030287 0.000000
# 6 0.000000 0.000000 0.000000 0.023810 0.000000 0.044503
#
#
# Mechanical properties :
#
#
# Convention : Reuss Voigt Hill
#
# Bulk Modulus (GPa) = 39.07741 45.97133 42.52437
# Shear Modulus (GPa) = 130.66037 22.28062 76.47049
#
# Velocity S-wave (km/s) = 7.50850 3.10059 5.74418
# Velocity P-wave (km/s) = 9.59329 5.71437 7.89573
#
# Compressibility (1/GPa) = 0.02559023
#
# Stress axis : x y z
#
# Youngs Moduli (GPa) = 72.72255 69.00597 59.80570
#
# Poissons Ratio (x) = 0.29841 0.42518
# Poissons Ratio (y) = 0.31448 -0.10449
# Poissons Ratio (z) = 0.51701 -0.12057
#
# Static dielectric constant tensor:
#      x y z
#    x 1.949970 0.000000 -0.084420 
#    y 0.000000 1.965580 0.000000 
#    z -0.084420 0.000000 1.927830 
# 
# From -- ./inp_files/22265.got.cif
#   From: 2010.05.17/outbox.cif.g08.bks.cpg/sg15_12_cif.got.tgz:22265.got - 2010.06.03 18:47:42.
