data_PCOD9270978
_publ_section_title
;
Structure prediction by ZEFSAII (Michael W. Deem and Ramdas Pophale) SiO2 
 PCOD9270978
Probable space group: C 2/C
;
_chemical_formula_sum "Si O2"
_cell_formula_units_Z 64
_cell_length_a 28.670622
_cell_length_b 12.102879
_cell_length_c 9.619608
_cell_angle_alpha 90.000000
_cell_angle_beta 86.523619
_cell_angle_gamma 90.000000
_cell_volume 3331.833503
_symmetry_space_group_name_H-M "C 2/C"
_symmetry_group_IT_number 15
_symmetry_cell_setting 'monoclinic'
loop_
_space_group_symop_operation_xyz
x,y,z
-x,y,1/2-z
-x,-y,-z
x,-y,1/2+z
1/2+x,1/2+y,z
1/2-x,1/2+y,1/2-z
1/2-x,1/2-y,-z
1/2+x,1/2-y,1/2+z
loop_
_atom_site_type_symbol
_atom_site_label
_atom_site_fract_x
_atom_site_fract_y
_atom_site_fract_z
Si Si1 0.821400 0.195464 0.068719
Si Si2 0.237062 0.584263 0.915557
Si Si3 0.183823 0.803050 0.615958
Si Si4 0.035652 0.524952 0.115473
Si Si5 0.006405 0.113524 0.084144
Si Si6 0.748773 0.400632 0.397548
Si Si7 0.414752 0.791588 0.357789
Si Si8 0.420587 0.236675 0.524341
O O1 0.802499 0.321840 0.081150
O O2 0.824004 0.150268 0.226846
O O3 0.872775 0.200916 0.992959
O O4 0.782230 0.133175 0.987133
O O5 0.251972 0.552559 0.757329
O O6 0.221471 0.479467 0.007589
O O7 0.226458 0.717280 0.624346
O O8 0.200502 0.883798 0.490319
O O9 0.137349 0.736907 0.584840
O O10 0.066381 0.413862 0.117814
O O11 0.000000 0.542826 0.250000
O O12 0.067450 0.630023 0.070204
O O13 0.000000 0.500000 0.000000
O O14 0.051722 0.195615 0.083986
O O15 0.000000 0.088898 0.250000
O O16 0.966050 0.187744 0.022912
O O17 0.000000 0.000000 0.000000
O O18 0.413836 0.789796 0.189448
#
# Coordination Sequence:
#
# PCOD9270978 Si02
#       8
#     8   8   8   8   8   8   8   8
#     4   9  20  38  58  81 111 147 192 237 282 336
#     4  10  20  36  57  81 113 148 186 237 287 340
#     4   9  20  37  58  81 110 149 191 233 284 339
#     4  12  21  38  61  88 122 155 189 237 294 347
#     4  10  21  39  59  79 113 149 188 235 283 336
#     4  10  20  36  56  82 113 148 188 233 286 341
#     4  10  20  39  60  84 117 153 188 239 294 340
#     4  10  21  39  60  85 116 153 192 237 292 343
#
# _framework density 19.208642000000001
#
# number of rings (size 3 to 8) (size 9 to 14) (size 15 to 20)
#    0.000    2.000    2.500    1.125    1.750    2.500 
#    2.250    2.500    0.000    0.000    0.000    0.000 
#    0.000    0.000    0.000    0.000    0.000    0.000 
#
# Total GULP energy -178193.341821 kJ/mol
# GULP energy per Si atom -5568.541932 kJ/mol
# Density = 1.916492 g / cm^3
# Si number density = 19.208642 Si / 1000 Ang^3
#
#
#
# Elastic Constant Matrix: (Units=GPa)
#
#
# Indices 1 2 3 4 5 6 
#
# 1 71.1351 -10.4414 3.2427 0.0000 -3.2929 0.0000
# 2 -10.4414 51.8205 10.9396 0.0000 -7.5416 0.0000
# 3 3.2427 10.9396 84.8342 0.0000 -7.1443 0.0000
# 4 0.0000 0.0000 0.0000 32.0731 0.0000 0.6325
# 5 -3.2929 -7.5416 -7.1443 0.0000 21.8457 0.0000
# 6 0.0000 0.0000 0.0000 0.6325 0.0000 24.9695
#
#
#
# Elastic Compliance Matrix: (Units=1/GPa)
#
#
# Indices 1 2 3 4 5 6 
#
# 1 0.014771 0.003605 -0.000758 0.000000 0.003223 0.000000
# 2 0.003605 0.021564 -0.002309 0.000000 0.007233 0.000000
# 3 -0.000758 -0.002309 0.012379 0.000000 0.003137 0.000000
# 4 0.000000 0.000000 0.000000 0.031194 0.000000 -0.000790
# 5 0.003223 0.007233 0.003137 0.000000 0.049784 0.000000
# 6 0.000000 0.000000 0.000000 -0.000790 0.000000 0.040069
#
#
# Mechanical properties :
#
#
# Convention : Reuss Voigt Hill
#
# Bulk Modulus (GPa) = 20.08483 23.91907 22.00195
# Shear Modulus (GPa) = 26.98599 29.38092 28.18346
#
# Velocity S-wave (km/s) = 3.75225 3.91521 3.83460
# Velocity P-wave (km/s) = 5.40845 5.73740 5.57535
#
# Compressibility (1/GPa) = 0.04978882
#
# Stress axis : x y z
#
# Youngs Moduli (GPa) = 67.70155 46.37372 80.78426
#
# Poissons Ratio (x) = -0.16719 0.06124
# Poissons Ratio (y) = -0.24408 0.18657
# Poissons Ratio (z) = 0.05132 0.10710
#
# Static dielectric constant tensor:
#      x y z
#    x 1.670030 0.000000 -0.008380 
#    y 0.000000 1.706390 0.000000 
#    z -0.008380 0.000000 1.673190 
# 
# From -- ./inp_files/69390.got.cif
#   From: 2010.05.17/outbox.cif.g08.bks.cpg/sg15_35_cif.got.tgz:69390.got - 2010.06.03 18:47:42.
