data_PCOD9270619
_publ_section_title
;
Structure prediction by ZEFSAII (Michael W. Deem and Ramdas Pophale) SiO2 
 PCOD9270619
Probable space group: C 2/C
;
_chemical_formula_sum "Si O2"
_cell_formula_units_Z 52
_cell_length_a 15.383998
_cell_length_b 14.726584
_cell_length_c 12.265823
_cell_angle_alpha 90.000000
_cell_angle_beta 122.308605
_cell_angle_gamma 90.000000
_cell_volume 2348.648075
_symmetry_space_group_name_H-M "C 2/C"
_symmetry_group_IT_number 15
_symmetry_cell_setting 'monoclinic'
loop_
_space_group_symop_operation_xyz
x,y,z
-x,y,1/2-z
-x,-y,-z
x,-y,1/2+z
1/2+x,1/2+y,z
1/2-x,1/2+y,1/2-z
1/2-x,1/2-y,-z
1/2+x,1/2-y,1/2+z
loop_
_atom_site_type_symbol
_atom_site_label
_atom_site_fract_x
_atom_site_fract_y
_atom_site_fract_z
Si Si1 0.100483 0.942903 0.599282
Si Si2 0.737977 0.977725 0.454763
Si Si3 0.388223 0.312476 0.619560
Si Si4 0.187531 0.081409 0.815331
Si Si5 0.492536 0.754326 0.497391
Si Si6 0.658668 0.847260 0.250722
Si Si7 0.500000 0.707456 0.750000
O O1 0.072550 0.838387 0.567852
O O2 0.194376 0.963896 0.583156
O O3 0.132946 0.990903 0.732851
O O4 0.000000 0.000000 0.500000
O O5 0.812836 0.894910 0.541805
O O6 0.647377 0.931047 0.326732
O O7 0.723483 0.044269 0.546111
O O8 0.500000 0.337056 0.750000
O O9 0.411749 0.263245 0.519539
O O10 0.340725 0.241645 0.673097
O O11 0.237878 0.134811 0.748662
O O12 0.101290 0.142989 0.814935
O O13 0.429969 0.834385 0.397727
O O14 0.505291 0.759350 0.636704
#
# Coordination Sequence:
#
# PCOD9270619 Si02
#       7
#     8   8   8   8   8   8   4
#     4  11  18  32  56  91 124 157 196 245 308 366
#     4  11  20  34  58  88 124 161 201 253 304 367
#     4  10  20  35  61  86 118 163 208 252 296 363
#     4  11  21  35  58  91 128 157 203 253 308 366
#     4  11  21  38  61  91 127 163 200 250 308 371
#     4  10  24  38  56  89 127 164 205 247 312 371
#     4  12  22  34  60  94 124 162 194 242 316 366
#
# _framework density 22.140397
#
# number of rings (size 3 to 8) (size 9 to 14) (size 15 to 20)
#    0.000    1.231    4.615    3.231    1.077    0.615 
#    0.000    0.000    3.385    8.308    0.000    0.000 
#    0.000    0.000    0.000    0.000    0.000    0.000 
#
# Total GULP energy -145044.940891 kJ/mol
# GULP energy per Si atom -5578.651573 kJ/mol
# Density = 2.209000 g / cm^3
# Si number density = 22.140397 Si / 1000 Ang^3
#
#
#
# Elastic Constant Matrix: (Units=GPa)
#
#
# Indices 1 2 3 4 5 6 
#
# 1 61.9462 26.9399 29.7988 0.0000 -24.5587 0.0000
# 2 26.9399 41.6593 34.4555 0.0000 0.1927 0.0000
# 3 29.7988 34.4555 162.5689 0.0000 -25.3065 0.0000
# 4 0.0000 0.0000 0.0000 31.9123 0.0000 -1.7255
# 5 -24.5587 0.1927 -25.3065 0.0000 31.4257 0.0000
# 6 0.0000 0.0000 0.0000 -1.7255 0.0000 27.7726
#
#
#
# Elastic Compliance Matrix: (Units=1/GPa)
#
#
# Indices 1 2 3 4 5 6 
#
# 1 0.042083 -0.031215 0.004632 0.000000 0.036808 0.000000
# 2 -0.031215 0.053244 -0.010760 0.000000 -0.033385 0.000000
# 3 0.004632 -0.010760 0.009325 0.000000 0.011195 0.000000
# 4 0.000000 0.000000 0.000000 0.031441 0.000000 0.001953
# 5 0.036808 -0.033385 0.011195 0.000000 0.069806 0.000000
# 6 0.000000 0.000000 0.000000 0.001953 0.000000 0.036128
#
#
# Mechanical properties :
#
#
# Convention : Reuss Voigt Hill
#
# Bulk Modulus (GPa) = 33.37114 49.84031 41.60572
# Shear Modulus (GPa) = 15.30444 29.88747 22.59596
#
# Velocity S-wave (km/s) = 2.63201 3.67809 3.19811
# Velocity P-wave (km/s) = 4.93375 6.37163 5.69823
#
# Compressibility (1/GPa) = 0.02996601
#
# Stress axis : x y z
#
# Youngs Moduli (GPa) = 23.76270 18.78151 107.23336
#
# Poissons Ratio (x) = 0.58626 -0.49669
# Poissons Ratio (y) = 0.74175 1.15383
# Poissons Ratio (z) = -0.11007 0.20209
#
# Static dielectric constant tensor:
#      x y z
#    x 1.809700 0.000000 0.000380 
#    y 0.000000 1.785500 0.000000 
#    z 0.000380 0.000000 1.942550 
# 
# From -- ./inp_files/105469.got.cif
#   From: 2010.05.17/outbox.cif.g08.bks.cpg/sg15_53_cif.got.tgz:105469.got - 2010.06.03 18:47:42.
