data_PCOD9270815
_publ_section_title
;
Structure prediction by ZEFSAII (Michael W. Deem and Ramdas Pophale) SiO2 
 PCOD9270815
Probable space group: C 2/C
;
_chemical_formula_sum "Si O2"
_cell_formula_units_Z 40
_cell_length_a 16.423098
_cell_length_b 14.596890
_cell_length_c 13.013951
_cell_angle_alpha 90.000000
_cell_angle_beta 32.184628
_cell_angle_gamma 90.000000
_cell_volume 1661.750777
_symmetry_space_group_name_H-M "C 2/C"
_symmetry_group_IT_number 15
_symmetry_cell_setting 'monoclinic'
loop_
_space_group_symop_operation_xyz
x,y,z
-x,y,1/2-z
-x,-y,-z
x,-y,1/2+z
1/2+x,1/2+y,z
1/2-x,1/2+y,1/2-z
1/2-x,1/2-y,-z
1/2+x,1/2-y,1/2+z
loop_
_atom_site_type_symbol
_atom_site_label
_atom_site_fract_x
_atom_site_fract_y
_atom_site_fract_z
Si Si1 0.337172 0.989866 0.983994
Si Si2 0.717843 0.337485 0.964572
Si Si3 0.182699 0.852045 0.566423
Si Si4 0.530254 0.741447 0.919290
Si Si5 0.209657 0.377014 0.262800
O O1 0.500000 0.994946 0.750000
O O2 0.233475 0.922473 0.023711
O O3 0.345945 0.945670 0.088745
O O4 0.251187 0.086780 0.084708
O O5 0.564406 0.313259 0.067013
O O6 0.861667 0.324587 0.735062
O O7 0.750000 0.250000 0.000000
O O8 0.250000 0.750000 0.500000
O O9 0.000000 0.850769 0.750000
O O10 0.746839 0.905495 0.108189
O O11 0.408083 0.792841 0.119077
O O12 0.634692 0.668294 0.862859
#
# Coordination Sequence:
#
# PCOD9270815 Si02
#       5
#     8   8   8   8   8
#     4  12  25  44  72 109 147 179 240 298 354 425
#     4  11  18  34  62 107 153 178 215 295 356 411
#     4  12  30  55  73  96 142 196 245 296 353 427
#     4  10  20  35  69 102 150 181 227 278 358 423
#     4  11  24  44  73 108 138 194 236 285 361 424
#
# _framework density 24.070996999999998
#
# number of rings (size 3 to 8) (size 9 to 14) (size 15 to 20)
#    0.000    0.800    6.000    2.400    2.800    1.600 
#    7.200    0.000    0.000    0.000    0.000    0.000 
#    0.000    0.000    0.000    0.000    0.000    0.000 
#
# Total GULP energy -111828.012843 kJ/mol
# GULP energy per Si atom -5591.400642 kJ/mol
# Density = 2.401621 g / cm^3
# Si number density = 24.070997 Si / 1000 Ang^3
#
#
#
# Elastic Constant Matrix: (Units=GPa)
#
#
# Indices 1 2 3 4 5 6 
#
# 1 52.8087 16.4762 47.7566 -0.0001 -2.8648 0.0001
# 2 16.4762 125.2876 28.6878 -0.0001 -4.6734 0.0000
# 3 47.7566 28.6878 121.5688 -0.0001 -12.0420 0.0001
# 4 -0.0001 -0.0001 -0.0001 19.3356 0.0001 -3.5702
# 5 -2.8648 -4.6734 -12.0420 0.0001 41.1657 -0.0001
# 6 0.0001 0.0000 0.0001 -3.5702 -0.0001 35.0949
#
#
#
# Elastic Compliance Matrix: (Units=1/GPa)
#
#
# Indices 1 2 3 4 5 6 
#
# 1 0.029652 -0.001325 -0.011479 0.000000 -0.001445 0.000000
# 2 -0.001325 0.008503 -0.001441 0.000000 0.000451 0.000000
# 3 -0.011479 -0.001441 0.013367 0.000000 0.002948 0.000000
# 4 0.000000 0.000000 0.000000 0.052708 0.000000 0.005362
# 5 -0.001445 0.000451 0.002948 0.000000 0.025105 0.000000
# 6 0.000000 0.000000 0.000000 0.005362 0.000000 0.029040
#
#
# Mechanical properties :
#
#
# Convention : Reuss Voigt Hill
#
# Bulk Modulus (GPa) = 43.41820 53.94515 48.68167
# Shear Modulus (GPa) = 25.70138 32.90220 29.30179
#
# Velocity S-wave (km/s) = 3.27116 3.70115 3.49278
# Velocity P-wave (km/s) = 5.68718 6.38155 6.04434
#
# Compressibility (1/GPa) = 0.02303182
#
# Stress axis : x y z
#
# Youngs Moduli (GPa) = 33.72462 117.60931 74.81003
#
# Poissons Ratio (x) = 0.15583 0.85873
# Poissons Ratio (y) = 0.04468 0.10782
# Poissons Ratio (z) = 0.38712 0.16951
#
# Static dielectric constant tensor:
#      x y z
#    x 2.029030 0.000000 0.098170 
#    y 0.000000 1.851540 0.000000 
#    z 0.098170 0.000000 2.188270 
# 
# From -- ./inp_files/219553.got.cif
#   From: 2010.05.17/outbox.cif.g08.bks.cpg/sg15_110_cif.got.tgz:219553.got - 2010.06.03 18:47:42.
