data_PCOD9270672
_publ_section_title
;
Structure prediction by ZEFSAII (Michael W. Deem and Ramdas Pophale) SiO2 
 PCOD9270672
Probable space group: C 2/C
;
_chemical_formula_sum "Si O2"
_cell_formula_units_Z 52
_cell_length_a 27.456482
_cell_length_b 5.696715
_cell_length_c 22.390531
_cell_angle_alpha 90.000000
_cell_angle_beta 42.778318
_cell_angle_gamma 90.000000
_cell_volume 2378.527491
_symmetry_space_group_name_H-M "C 2/C"
_symmetry_group_IT_number 15
_symmetry_cell_setting 'monoclinic'
loop_
_space_group_symop_operation_xyz
x,y,z
-x,y,1/2-z
-x,-y,-z
x,-y,1/2+z
1/2+x,1/2+y,z
1/2-x,1/2+y,1/2-z
1/2-x,1/2-y,-z
1/2+x,1/2-y,1/2+z
loop_
_atom_site_type_symbol
_atom_site_label
_atom_site_fract_x
_atom_site_fract_y
_atom_site_fract_z
Si Si1 0.500000 0.801476 0.750000
Si Si2 0.814307 0.979004 0.461470
Si Si3 0.319508 0.674824 0.735511
Si Si4 0.390945 0.469091 0.777480
Si Si5 0.814835 0.613681 0.117703
Si Si6 0.383312 0.017535 0.937920
Si Si7 0.304319 0.919850 0.344796
O O1 0.452472 0.621718 0.751931
O O2 0.455171 0.959611 0.836618
O O3 0.857443 0.217484 0.441618
O O4 0.735027 0.011844 0.558614
O O5 0.823132 0.966806 0.382083
O O6 0.842458 0.733445 0.462691
O O7 0.374213 0.511388 0.723069
O O8 0.237196 0.584092 0.807073
O O9 0.342823 0.737554 0.648201
O O10 0.316683 0.887350 0.784261
O O11 0.382091 0.189181 0.789255
O O12 0.755806 0.755514 0.132126
O O13 0.875752 0.534540 0.016816
#
# Coordination Sequence:
#
# PCOD9270672 Si02
#       7
#     4   8   8   8   8   8   8
#     4  10  24  48  62  86 130 176 226 268 308 368
#     4  10  21  39  62  95 131 160 208 274 332 386
#     4  11  20  36  61  94 132 162 205 262 334 393
#     4  10  24  38  60  93 125 174 217 262 317 380
#     4  10  20  37  61  95 129 165 206 265 330 393
#     4  10  22  40  67  90 125 176 218 259 321 376
#     4  10  20  35  61  95 127 163 205 265 337 388
#
# _framework density 21.862266000000002
#
# number of rings (size 3 to 8) (size 9 to 14) (size 15 to 20)
#    0.000    1.846    3.077    0.462    4.308    3.077 
#    0.000    0.769    0.000    0.923    0.000    0.000 
#    0.000    0.000    0.000    0.000    0.000    0.000 
#
# Total GULP energy -144757.389303 kJ/mol
# GULP energy per Si atom -5567.591896 kJ/mol
# Density = 2.181251 g / cm^3
# Si number density = 21.862266 Si / 1000 Ang^3
#
#
#
# Elastic Constant Matrix: (Units=GPa)
#
#
# Indices 1 2 3 4 5 6 
#
# 1 89.2228 30.2490 52.7387 -0.0139 22.9934 -0.0142
# 2 30.2490 86.5809 38.5162 -0.0614 -10.5275 0.0378
# 3 52.7387 38.5162 132.6602 -0.0753 20.7428 0.0504
# 4 -0.0139 -0.0614 -0.0753 30.9739 -0.0023 -3.3544
# 5 22.9934 -10.5275 20.7428 -0.0023 42.8539 0.0101
# 6 -0.0142 0.0378 0.0504 -3.3544 0.0101 23.1507
#
#
#
# Elastic Compliance Matrix: (Units=1/GPa)
#
#
# Indices 1 2 3 4 5 6 
#
# 1 0.017773 -0.005475 -0.004083 -0.000010 -0.008905 0.000031
# 2 -0.005475 0.016289 -0.003935 0.000018 0.008844 -0.000023
# 3 -0.004083 -0.003935 0.010941 0.000015 -0.004071 -0.000016
# 4 -0.000010 0.000018 0.000015 0.032800 0.000003 0.004752
# 5 -0.008905 0.008844 -0.004071 0.000003 0.032256 -0.000025
# 6 0.000031 -0.000023 -0.000016 0.004752 -0.000025 0.043884
#
#
# Mechanical properties :
#
#
# Convention : Reuss Voigt Hill
#
# Bulk Modulus (GPa) = 55.51349 61.27462 58.39406
# Shear Modulus (GPa) = 26.74713 31.85969 29.30341
#
# Velocity S-wave (km/s) = 3.50156 3.82159 3.66507
# Velocity P-wave (km/s) = 6.46494 6.89646 6.68418
#
# Compressibility (1/GPa) = 0.01801364
#
# Stress axis : x y z
#
# Youngs Moduli (GPa) = 56.26613 61.39106 91.40225
#
# Poissons Ratio (x) = 0.33615 0.37324
# Poissons Ratio (y) = 0.30808 0.35971
# Poissons Ratio (z) = 0.22976 0.24160
#
# Static dielectric constant tensor:
#      x y z
#    x 1.853010 -0.000030 -0.008580 
#    y -0.000030 2.017220 0.000060 
#    z -0.008580 0.000060 1.811550 
# 
# From -- ./inp_files/256720.got.cif
#   From: 2010.05.17/outbox.cif.g08.bks.cpg/sg15_129_cif.got.tgz:256720.got - 2010.06.03 18:47:42.
