data_PCOD9270628
_publ_section_title
;
Structure prediction by ZEFSAII (Michael W. Deem and Ramdas Pophale) SiO2 
 PCOD9270628
Probable space group: C 2/C
;
_chemical_formula_sum "Si O2"
_cell_formula_units_Z 64
_cell_length_a 15.250006
_cell_length_b 12.791074
_cell_length_c 18.309457
_cell_angle_alpha 90.000000
_cell_angle_beta 63.822126
_cell_angle_gamma 90.000000
_cell_volume 3205.180510
_symmetry_space_group_name_H-M "C 2/C"
_symmetry_group_IT_number 15
_symmetry_cell_setting 'monoclinic'
loop_
_space_group_symop_operation_xyz
x,y,z
-x,y,1/2-z
-x,-y,-z
x,-y,1/2+z
1/2+x,1/2+y,z
1/2-x,1/2+y,1/2-z
1/2-x,1/2-y,-z
1/2+x,1/2-y,1/2+z
loop_
_atom_site_type_symbol
_atom_site_label
_atom_site_fract_x
_atom_site_fract_y
_atom_site_fract_z
Si Si1 0.269462 0.934886 0.319686
Si Si2 0.186192 0.154612 0.110435
Si Si3 0.457040 0.946023 0.183867
Si Si4 0.993700 0.101601 0.102353
Si Si5 0.060859 0.862479 0.416036
Si Si6 0.213575 0.155456 0.272592
Si Si7 0.567959 0.193025 0.295939
Si Si8 0.346963 0.887751 0.438184
O O1 0.351508 0.892389 0.233919
O O2 0.178021 0.863056 0.369517
O O3 0.313873 0.961817 0.383071
O O4 0.232504 0.039304 0.296251
O O5 0.208581 0.153380 0.187143
O O6 0.171809 0.272634 0.087104
O O7 0.081889 0.105209 0.127770
O O8 0.275990 0.102684 0.033017
O O9 0.500000 0.930727 0.250000
O O10 0.537047 0.904694 0.097826
O O11 0.441523 0.070334 0.179100
O O12 0.898613 0.168659 0.159721
O O13 0.971720 0.978162 0.098003
O O14 0.029945 0.146537 0.011310
O O15 0.030504 0.769813 0.373370
O O16 0.314976 0.212611 0.259709
O O17 0.500000 0.208361 0.250000
#
# Coordination Sequence:
#
# PCOD9270628 Si02
#       8
#     8   8   8   8   8   8   8   8
#     4   9  17  35  57  84 117 160 195 237 301 362
#     4  11  22  36  61  96 121 157 201 260 303 365
#     4   8  17  34  58  84 114 159 198 237 298 361
#     4  10  22  39  60  92 122 160 199 254 310 364
#     4  10  20  37  64  84 122 166 201 242 313 369
#     4  10  22  37  62  88 120 154 208 247 299 365
#     4  10  21  39  62  86 119 165 206 249 298 366
#     4  10  20  35  61  87 124 161 198 244 321 358
#
# _framework density 19.967673999999999
#
# number of rings (size 3 to 8) (size 9 to 14) (size 15 to 20)
#    0.000    2.250    1.250    1.875    1.750    6.000 
#    0.000    3.125    8.250    0.000    0.000    0.000 
#    0.000    0.000    0.000    0.000    0.000    0.000 
#
# Total GULP energy -178288.730556 kJ/mol
# GULP energy per Si atom -5571.522830 kJ/mol
# Density = 1.992223 g / cm^3
# Si number density = 19.967674 Si / 1000 Ang^3
#
#
#
# Elastic Constant Matrix: (Units=GPa)
#
#
# Indices 1 2 3 4 5 6 
#
# 1 113.0602 13.4934 75.5335 0.0000 -19.0366 0.0000
# 2 13.4934 24.9983 40.2590 0.0000 -6.9755 0.0000
# 3 75.5335 40.2590 134.7969 0.0000 -24.9801 0.0000
# 4 0.0000 0.0000 0.0000 21.6741 0.0000 5.2610
# 5 -19.0366 -6.9755 -24.9801 0.0000 36.3453 0.0000
# 6 0.0000 0.0000 0.0000 5.2610 0.0000 15.3149
#
#
#
# Elastic Compliance Matrix: (Units=1/GPa)
#
#
# Indices 1 2 3 4 5 6 
#
# 1 0.015698 0.010882 -0.011615 0.000000 0.002328 0.000000
# 2 0.010882 0.084662 -0.031302 0.000000 0.000434 0.000000
# 3 -0.011615 -0.031302 0.024105 0.000000 0.004477 0.000000
# 4 0.000000 0.000000 0.000000 0.050335 0.000000 -0.017291
# 5 0.002328 0.000434 0.004477 0.000000 0.031893 0.000000
# 6 0.000000 0.000000 0.000000 -0.017291 0.000000 0.071236
#
#
# Mechanical properties :
#
#
# Convention : Reuss Voigt Hill
#
# Bulk Modulus (GPa) = 16.55811 59.04745 37.80278
# Shear Modulus (GPa) = 13.80714 24.23817 19.02265
#
# Velocity S-wave (km/s) = 2.63244 3.48784 3.08989
# Velocity P-wave (km/s) = 4.18929 6.77169 5.63054
#
# Compressibility (1/GPa) = 0.06039335
#
# Stress axis : x y z
#
# Youngs Moduli (GPa) = 63.70357 11.81171 41.48446
#
# Poissons Ratio (x) = -0.12853 0.48183
# Poissons Ratio (y) = -0.69319 1.29857
# Poissons Ratio (z) = 0.73990 0.36974
#
# Static dielectric constant tensor:
#      x y z
#    x 1.778340 0.000000 -0.054140 
#    y 0.000000 1.727610 0.000000 
#    z -0.054140 0.000000 1.711530 
# 
# From -- ./inp_files/205413.got.cif
#   From: 2010.05.17/outbox.cif.g08.bks.cpg/sg15_103_cif.got.tgz:205413.got - 2010.06.03 18:47:42.
