data_PCOD9270027
_publ_section_title
;
Structure prediction by ZEFSAII (Michael W. Deem and Ramdas Pophale) SiO2 
 PCOD9270027
Probable space group: C 2/C
;
_chemical_formula_sum "Si O2"
_cell_formula_units_Z 48
_cell_length_a 26.137762
_cell_length_b 9.542352
_cell_length_c 9.467229
_cell_angle_alpha 90.000000
_cell_angle_beta 42.969044
_cell_angle_gamma 90.000000
_cell_volume 1609.452949
_symmetry_space_group_name_H-M "C 2/C"
_symmetry_group_IT_number 15
_symmetry_cell_setting 'monoclinic'
loop_
_space_group_symop_operation_xyz
x,y,z
-x,y,1/2-z
-x,-y,-z
x,-y,1/2+z
1/2+x,1/2+y,z
1/2-x,1/2+y,1/2-z
1/2-x,1/2-y,-z
1/2+x,1/2-y,1/2+z
loop_
_atom_site_type_symbol
_atom_site_label
_atom_site_fract_x
_atom_site_fract_y
_atom_site_fract_z
Si Si1 0.136634 0.261406 0.153439
Si Si2 0.091077 0.684537 0.193160
Si Si3 0.250000 0.250000 0.500000
Si Si4 0.585577 0.430374 0.009689
Si Si5 0.611692 0.018698 0.402275
Si Si6 0.500000 0.311183 0.750000
Si Si7 0.773237 0.006314 0.596320
O O1 0.097482 0.162203 0.349023
O O2 0.143357 0.407005 0.221115
O O3 0.071899 0.271743 0.164361
O O4 0.210071 0.171411 0.961741
O O5 0.180735 0.693331 0.037333
O O6 0.077700 0.573827 0.094457
O O7 0.061589 0.830843 0.193071
O O8 0.064693 0.624958 0.398908
O O9 0.211370 0.092804 0.569209
O O10 0.540098 0.571537 0.070491
O O11 0.666001 0.472266 0.909998
O O12 0.692990 0.070047 0.295500
#
# Coordination Sequence:
#
# PCOD9270027 Si02
#       7
#     8   8   4   8   8   4   8
#     4  10  20  35  54  81 111 145 191 237 283 333
#     4   9  19  36  54  81 115 151 186 229 280 342
#     4   8  16  32  50  74 112 152 178 216 268 340
#     4   9  19  35  57  78 108 145 192 238 279 335
#     4  10  20  35  56  84 119 150 183 234 287 351
#     4  10  20  38  56  78 104 148 196 240 282 326
#     4   9  18  31  51  80 110 146 180 224 283 341
#
# _framework density 29.823799999999999
#
# number of rings (size 3 to 8) (size 9 to 14) (size 15 to 20)
#    0.000    2.667    0.000    1.000    4.667    0.000 
#    6.000    5.833    0.000    4.000    0.000    0.000 
#    0.000    0.000    0.000    0.000    0.000    0.000 
#
# Total GULP energy -133742.266592 kJ/mol
# GULP energy per Si atom -5572.594441 kJ/mol
# Density = 2.975592 g / cm^3
# Si number density = 29.823800 Si / 1000 Ang^3
#
#
#
# Elastic Constant Matrix: (Units=GPa)
#
#
# Indices 1 2 3 4 5 6 
#
# 1 165.2544 37.7356 38.2703 0.0000 -15.1681 0.0000
# 2 37.7356 143.2410 -1.0387 0.0000 -5.4184 0.0000
# 3 38.2703 -1.0387 80.1226 0.0000 -9.9315 0.0000
# 4 0.0000 0.0000 0.0000 18.9847 0.0000 -9.6242
# 5 -15.1681 -5.4184 -9.9315 0.0000 40.0813 0.0000
# 6 0.0000 0.0000 0.0000 -9.6242 0.0000 41.6225
#
#
#
# Elastic Compliance Matrix: (Units=1/GPa)
#
#
# Indices 1 2 3 4 5 6 
#
# 1 0.007424 -0.001915 -0.003358 0.000000 0.001719 0.000000
# 2 -0.001915 0.007515 0.001081 0.000000 0.000559 0.000000
# 3 -0.003358 0.001081 0.014402 0.000000 0.002444 0.000000
# 4 0.000000 0.000000 0.000000 0.059668 0.000000 0.013797
# 5 0.001719 0.000559 0.002444 0.000000 0.026281 0.000000
# 6 0.000000 0.000000 0.000000 0.013797 0.000000 0.027216
#
#
# Mechanical properties :
#
#
# Convention : Reuss Voigt Hill
#
# Bulk Modulus (GPa) = 47.71574 59.83918 53.77746
# Shear Modulus (GPa) = 31.67083 41.04776 36.35930
#
# Velocity S-wave (km/s) = 3.26226 3.71393 3.49540
# Velocity P-wave (km/s) = 5.49762 6.20475 5.86185
#
# Compressibility (1/GPa) = 0.02095744
#
# Stress axis : x y z
#
# Youngs Moduli (GPa) = 134.69914 133.07158 69.43627
#
# Poissons Ratio (x) = 0.25485 0.23316
# Poissons Ratio (y) = 0.25796 -0.07509
# Poissons Ratio (z) = 0.45230 -0.14391
#
# Static dielectric constant tensor:
#      x y z
#    x 2.426380 0.000000 -0.241390 
#    y 0.000000 2.397290 0.000000 
#    z -0.241390 0.000000 3.956160 
# 
# From -- ./inp_files/117015.got.cif
#   From: 2010.05.17/outbox.cif.g08.bks.cpg/sg15_59_cif.got.tgz:117015.got - 2010.06.03 18:47:42.
