data_PCOD9270472
_publ_section_title
;
Structure prediction by ZEFSAII (Michael W. Deem and Ramdas Pophale) SiO2 
 PCOD9270472
Probable space group: C 2/C
;
_chemical_formula_sum "Si O2"
_cell_formula_units_Z 48
_cell_length_a 18.913195
_cell_length_b 8.486858
_cell_length_c 15.399767
_cell_angle_alpha 90.000000
_cell_angle_beta 120.303932
_cell_angle_gamma 90.000000
_cell_volume 2134.117734
_symmetry_space_group_name_H-M "C 2/C"
_symmetry_group_IT_number 15
_symmetry_cell_setting 'monoclinic'
loop_
_space_group_symop_operation_xyz
x,y,z
-x,y,1/2-z
-x,-y,-z
x,-y,1/2+z
1/2+x,1/2+y,z
1/2-x,1/2+y,1/2-z
1/2-x,1/2-y,-z
1/2+x,1/2-y,1/2+z
loop_
_atom_site_type_symbol
_atom_site_label
_atom_site_fract_x
_atom_site_fract_y
_atom_site_fract_z
Si Si1 0.485725 0.068720 0.394426
Si Si2 0.338369 0.573607 0.250179
Si Si3 0.347840 0.895194 0.557900
Si Si4 0.493470 0.444264 0.092885
Si Si5 0.821172 0.974523 0.056491
Si Si6 0.175619 0.595234 0.668824
O O1 0.562529 0.024867 0.378614
O O2 0.498050 0.256015 0.400848
O O3 0.500000 0.000000 0.500000
O O4 0.391737 0.015746 0.324842
O O5 0.429552 0.505807 0.306174
O O6 0.313573 0.585415 0.134851
O O7 0.267917 0.460388 0.244384
O O8 0.338568 0.732052 0.303865
O O9 0.266814 0.979619 0.544418
O O10 0.338343 0.714458 0.586029
O O11 0.335389 0.895308 0.443794
O O12 0.405995 0.513353 0.064798
O O13 0.500000 0.500000 0.000000
#
# Coordination Sequence:
#
# PCOD9270472 Si02
#       6
#     8   8   8   8   8   8
#     4   9  17  33  57  83 109 144 192 236 282 343
#     4  11  21  35  57  84 116 149 193 242 292 348
#     4   8  16  33  58  84 111 147 189 233 285 348
#     4  11  21  35  59  84 113 154 194 235 292 353
#     4   9  18  33  56  84 113 146 186 236 288 342
#     4  10  20  35  59  86 114 152 194 242 295 349
#
# _framework density 22.491731000000001
#
# number of rings (size 3 to 8) (size 9 to 14) (size 15 to 20)
#    0.000    2.333    0.000    4.500    0.000    0.000 
#    0.000    0.000    0.000   88.000    0.000    0.000 
#    0.000    0.000    0.000    0.000    0.000    0.000 
#
# Total GULP energy -133730.958550 kJ/mol
# GULP energy per Si atom -5572.123273 kJ/mol
# Density = 2.244054 g / cm^3
# Si number density = 22.491731 Si / 1000 Ang^3
#
#
#
# Elastic Constant Matrix: (Units=GPa)
#
#
# Indices 1 2 3 4 5 6 
#
# 1 156.0349 16.3245 14.5663 0.0000 37.4944 0.0000
# 2 16.3245 38.9400 -6.7186 0.0000 -3.1778 0.0000
# 3 14.5663 -6.7186 23.4180 0.0000 5.7192 0.0000
# 4 0.0000 0.0000 0.0000 24.4399 0.0000 5.4394
# 5 37.4944 -3.1778 5.7192 0.0000 27.7158 0.0000
# 6 0.0000 0.0000 0.0000 5.4394 0.0000 29.3058
#
#
#
# Elastic Compliance Matrix: (Units=1/GPa)
#
#
# Indices 1 2 3 4 5 6 
#
# 1 0.011171 -0.006803 -0.005285 0.000000 -0.014801 0.000000
# 2 -0.006803 0.031226 0.010603 0.000000 0.010595 0.000000
# 3 -0.005285 0.010603 0.049482 0.000000 -0.001845 0.000000
# 4 0.000000 0.000000 0.000000 0.042680 0.000000 -0.007922
# 5 -0.014801 0.010595 -0.001845 0.000000 0.057699 0.000000
# 6 0.000000 0.000000 0.000000 -0.007922 0.000000 0.035593
#
#
# Mechanical properties :
#
#
# Convention : Reuss Voigt Hill
#
# Bulk Modulus (GPa) = 11.24750 29.63746 20.44248
# Shear Modulus (GPa) = 19.19695 29.24035 24.21865
#
# Velocity S-wave (km/s) = 2.92466 3.60953 3.28499
# Velocity P-wave (km/s) = 4.05172 5.52967 4.84736
#
# Compressibility (1/GPa) = 0.08890865
#
# Stress axis : x y z
#
# Youngs Moduli (GPa) = 89.52138 32.02420 20.20928
#
# Poissons Ratio (x) = 0.21785 0.10681
# Poissons Ratio (y) = 0.60899 -0.21427
# Poissons Ratio (z) = 0.47313 -0.33954
#
# Static dielectric constant tensor:
#      x y z
#    x 1.994230 0.000000 0.126780 
#    y 0.000000 1.835050 0.000000 
#    z 0.126780 0.000000 1.964730 
# 
# From -- ./inp_files/209280.got.cif
#   From: 2010.05.17/outbox.cif.g08.bks.cpg/sg15_105_cif.got.tgz:209280.got - 2010.06.03 18:47:42.
