data_PCOD9270946
_publ_section_title
;
Structure prediction by ZEFSAII (Michael W. Deem and Ramdas Pophale) SiO2 
 PCOD9270946
Probable space group: C 2/C
;
_chemical_formula_sum "Si O2"
_cell_formula_units_Z 64
_cell_length_a 5.876179
_cell_length_b 24.688460
_cell_length_c 23.867964
_cell_angle_alpha 90.000000
_cell_angle_beta 65.127935
_cell_angle_gamma 90.000000
_cell_volume 3141.455981
_symmetry_space_group_name_H-M "C 2/C"
_symmetry_group_IT_number 15
_symmetry_cell_setting 'monoclinic'
loop_
_space_group_symop_operation_xyz
x,y,z
-x,y,1/2-z
-x,-y,-z
x,-y,1/2+z
1/2+x,1/2+y,z
1/2-x,1/2+y,1/2-z
1/2-x,1/2-y,-z
1/2+x,1/2-y,1/2+z
loop_
_atom_site_type_symbol
_atom_site_label
_atom_site_fract_x
_atom_site_fract_y
_atom_site_fract_z
Si Si1 0.849578 0.525689 0.932577
Si Si2 0.181138 0.222281 0.591280
Si Si3 0.087003 0.164089 0.397895
Si Si4 0.191445 0.092034 0.281036
Si Si5 0.387697 0.220192 0.036651
Si Si6 0.255856 0.474141 0.188716
Si Si7 0.150258 0.918777 0.988198
Si Si8 0.826570 0.895534 0.384529
O O1 0.787598 0.516902 0.873260
O O2 0.861279 0.465359 0.957957
O O3 0.079945 0.567234 0.905850
O O4 0.622347 0.552918 0.991072
O O5 0.294194 0.275756 0.609179
O O6 0.351735 0.206937 0.519628
O O7 0.184274 0.168295 0.627894
O O8 0.927351 0.242459 0.586998
O O9 0.142509 0.133909 0.335424
O O10 0.182409 0.128249 0.439797
O O11 0.786961 0.170020 0.432410
O O12 0.500000 0.090767 0.250000
O O13 0.000000 0.106735 0.250000
O O14 0.124116 0.029881 0.302156
O O15 0.250000 0.250000 0.000000
O O16 0.450962 0.424958 0.171724
O O17 0.000000 0.464221 0.250000
O O18 0.123510 0.898079 0.054019
#
# Coordination Sequence:
#
# PCOD9270946 Si02
#       8
#     8   8   8   8   8   8   8   8
#     4  10  21  38  59  92 136 166 217 272 341 406
#     4  10  21  37  58  99 131 171 221 264 330 414
#     4  11  22  39  70  92 133 177 221 280 354 408
#     4  11  27  48  73 101 132 172 235 297 344 404
#     4   9  18  34  60  93 130 171 214 262 326 402
#     4  10  24  43  64  91 123 171 228 278 340 397
#     4  10  20  36  56 101 134 168 212 266 347 413
#     4  11  22  37  64  91 138 174 215 277 329 415
#
# _framework density 20.372720000000001
#
# number of rings (size 3 to 8) (size 9 to 14) (size 15 to 20)
#    0.000    1.750    1.250    3.375    5.250    3.000 
#    2.250    0.000    5.500    0.000    0.000    0.000 
#    0.000    0.000    0.000    0.000    0.000    0.000 
#
# Total GULP energy -178303.750188 kJ/mol
# GULP energy per Si atom -5571.992193 kJ/mol
# Density = 2.032635 g / cm^3
# Si number density = 20.372720 Si / 1000 Ang^3
#
#
#
# Elastic Constant Matrix: (Units=GPa)
#
#
# Indices 1 2 3 4 5 6 
#
# 1 65.4945 37.3858 21.6107 0.0000 12.4178 0.0000
# 2 37.3858 151.4445 56.6767 0.0000 -6.6576 0.0000
# 3 21.6107 56.6767 75.8738 0.0000 6.1810 0.0000
# 4 0.0000 0.0000 0.0000 22.8483 0.0000 -8.1993
# 5 12.4178 -6.6576 6.1810 0.0000 15.3837 0.0000
# 6 0.0000 0.0000 0.0000 -8.1993 0.0000 15.0155
#
#
#
# Elastic Compliance Matrix: (Units=1/GPa)
#
#
# Indices 1 2 3 4 5 6 
#
# 1 0.023170 -0.006755 0.000215 0.000000 -0.021713 0.000000
# 2 -0.006755 0.011913 -0.008104 0.000000 0.013864 0.000000
# 3 0.000215 -0.008104 0.020131 0.000000 -0.011770 0.000000
# 4 0.000000 0.000000 0.000000 0.054433 0.000000 0.029724
# 5 -0.021713 0.013864 -0.011770 0.000000 0.093260 0.000000
# 6 0.000000 0.000000 0.000000 0.029724 0.000000 0.082829
#
#
# Mechanical properties :
#
#
# Convention : Reuss Voigt Hill
#
# Bulk Modulus (GPa) = 38.57102 58.23992 48.40547
# Shear Modulus (GPa) = 15.44799 22.45880 18.95340
#
# Velocity S-wave (km/s) = 2.75665 3.32384 3.05344
# Velocity P-wave (km/s) = 5.39500 6.58633 6.02021
#
# Compressibility (1/GPa) = 0.02592620
#
# Stress axis : x y z
#
# Youngs Moduli (GPa) = 43.15916 83.94130 49.67420
#
# Poissons Ratio (x) = 0.56701 -0.01069
# Poissons Ratio (y) = 0.29153 0.40258
# Poissons Ratio (z) = -0.00929 0.68030
#
# Static dielectric constant tensor:
#      x y z
#    x 1.849700 0.000000 -0.013050 
#    y 0.000000 1.775920 0.000000 
#    z -0.013050 0.000000 1.716830 
# 
# From -- ./inp_files/261809.got.cif
#   From: 2010.05.17/outbox.cif.g08.bks.cpg/sg15_131_cif.got.tgz:261809.got - 2010.06.03 18:47:42.
