data_PCOD9270417
_publ_section_title
;
Structure prediction by ZEFSAII (Michael W. Deem and Ramdas Pophale) SiO2 
 PCOD9270417
Probable space group: C 2/C
;
_chemical_formula_sum "Si O2"
_cell_formula_units_Z 48
_cell_length_a 13.755127
_cell_length_b 6.445061
_cell_length_c 27.522385
_cell_angle_alpha 90.000000
_cell_angle_beta 118.718561
_cell_angle_gamma 90.000000
_cell_volume 2139.797203
_symmetry_space_group_name_H-M "C 2/C"
_symmetry_group_IT_number 15
_symmetry_cell_setting 'monoclinic'
loop_
_space_group_symop_operation_xyz
x,y,z
-x,y,1/2-z
-x,-y,-z
x,-y,1/2+z
1/2+x,1/2+y,z
1/2-x,1/2+y,1/2-z
1/2-x,1/2-y,-z
1/2+x,1/2-y,1/2+z
loop_
_atom_site_type_symbol
_atom_site_label
_atom_site_fract_x
_atom_site_fract_y
_atom_site_fract_z
Si Si1 0.945802 0.605725 0.419362
Si Si2 0.306247 0.567114 0.544153
Si Si3 0.120579 0.880388 0.758703
Si Si4 0.099164 0.717489 0.986741
Si Si5 0.678588 0.432118 0.170956
Si Si6 0.228735 0.818288 0.360300
O O1 0.964077 0.703656 0.477242
O O2 0.913265 0.781964 0.373992
O O3 0.839515 0.454888 0.392972
O O4 0.047006 0.447848 0.436674
O O5 0.250000 0.750000 0.500000
O O6 0.218341 0.378304 0.529438
O O7 0.397528 0.444166 0.535283
O O8 0.333497 0.657767 0.603384
O O9 0.215708 0.706570 0.787663
O O10 0.000000 0.814329 0.750000
O O11 0.126236 0.947124 0.703914
O O12 0.157865 0.077762 0.800360
O O13 0.728546 0.591756 0.143664
#
# Coordination Sequence:
#
# PCOD9270417 Si02
#       6
#     8   8   8   8   8   8
#     4   9  20  37  64  89 126 177 212 272 343 395
#     4  10  20  35  58  89 129 167 216 275 324 408
#     4  11  25  44  68  94 126 172 222 282 343 400
#     4   9  19  37  57  91 130 166 217 269 332 406
#     4  11  22  45  66  92 133 170 223 288 334 410
#     4  10  22  40  61  92 127 167 219 276 336 406
#
# _framework density 22.432034000000002
#
# number of rings (size 3 to 8) (size 9 to 14) (size 15 to 20)
#    0.000    2.000    1.667    1.000    0.000    6.000 
#    0.000    5.000    0.000    0.000    0.000    0.000 
#    0.000    0.000    0.000    0.000    0.000    0.000 
#
# Total GULP energy -134044.162617 kJ/mol
# GULP energy per Si atom -5585.173442 kJ/mol
# Density = 2.238098 g / cm^3
# Si number density = 22.432034 Si / 1000 Ang^3
#
#
#
# Elastic Constant Matrix: (Units=GPa)
#
#
# Indices 1 2 3 4 5 6 
#
# 1 78.6109 46.5862 24.1838 0.0000 1.4121 0.0000
# 2 46.5862 128.7364 53.4491 0.0000 -26.3245 0.0000
# 3 24.1838 53.4491 89.8034 0.0000 -18.6509 0.0000
# 4 0.0000 0.0000 0.0000 30.1512 0.0000 0.8203
# 5 1.4121 -26.3245 -18.6509 0.0000 29.8853 0.0000
# 6 0.0000 0.0000 0.0000 0.8203 0.0000 41.1177
#
#
#
# Elastic Compliance Matrix: (Units=1/GPa)
#
#
# Indices 1 2 3 4 5 6 
#
# 1 0.017916 -0.007320 -0.002278 0.000000 -0.008716 0.000000
# 2 -0.007320 0.014352 -0.004450 0.000000 0.010211 0.000000
# 3 -0.002278 -0.004450 0.015632 0.000000 0.005943 0.000000
# 4 0.000000 0.000000 0.000000 0.033184 0.000000 -0.000662
# 5 -0.008716 0.010211 0.005943 0.000000 0.046576 0.000000
# 6 0.000000 0.000000 0.000000 -0.000662 0.000000 0.024334
#
#
# Mechanical properties :
#
#
# Convention : Reuss Voigt Hill
#
# Bulk Modulus (GPa) = 50.49609 60.62097 55.55853
# Shear Modulus (GPa) = 26.78196 31.75961 29.27078
#
# Velocity S-wave (km/s) = 3.45906 3.76681 3.61621
# Velocity P-wave (km/s) = 6.20588 6.78244 6.50056
#
# Compressibility (1/GPa) = 0.01980351
#
# Stress axis : x y z
#
# Youngs Moduli (GPa) = 55.81550 69.67562 63.97087
#
# Poissons Ratio (x) = 0.51000 0.14575
# Poissons Ratio (y) = 0.40855 0.28469
# Poissons Ratio (z) = 0.12717 0.31008
#
# Static dielectric constant tensor:
#      x y z
#    x 1.940000 0.000000 0.000420 
#    y 0.000000 1.814770 0.000000 
#    z 0.000420 0.000000 1.813470 
# 
# From -- ./inp_files/312440.got.cif
#   From: 2010.05.17/outbox.cif.g08.bks.cpg/sg15_157_cif.got.tgz:312440.got - 2010.06.03 18:47:42.
