data_PCOD9270929
_publ_section_title
;
Structure prediction by ZEFSAII (Michael W. Deem and Ramdas Pophale) SiO2 
 PCOD9270929
Probable space group: C 2/C
;
_chemical_formula_sum "Si O2"
_cell_formula_units_Z 52
_cell_length_a 18.105961
_cell_length_b 12.832646
_cell_length_c 14.498022
_cell_angle_alpha 90.000000
_cell_angle_beta 123.199954
_cell_angle_gamma 90.000000
_cell_volume 2818.706956
_symmetry_space_group_name_H-M "C 2/C"
_symmetry_group_IT_number 15
_symmetry_cell_setting 'monoclinic'
loop_
_space_group_symop_operation_xyz
x,y,z
-x,y,1/2-z
-x,-y,-z
x,-y,1/2+z
1/2+x,1/2+y,z
1/2-x,1/2+y,1/2-z
1/2-x,1/2-y,-z
1/2+x,1/2-y,1/2+z
loop_
_atom_site_type_symbol
_atom_site_label
_atom_site_fract_x
_atom_site_fract_y
_atom_site_fract_z
Si Si1 0.500000 0.504403 0.750000
Si Si2 0.120028 0.168977 0.742232
Si Si3 0.810674 0.741319 0.396238
Si Si4 0.101472 0.523508 0.091430
Si Si5 0.905853 0.398986 0.719665
Si Si6 0.829843 0.867466 0.594893
Si Si7 0.275229 0.075532 0.964767
O O1 0.544008 0.581373 0.703044
O O2 0.421128 0.427310 0.669737
O O3 0.169153 0.183598 0.677101
O O4 0.079385 0.282174 0.733052
O O5 0.192803 0.141824 0.870674
O O6 0.870462 0.638377 0.424426
O O7 0.833972 0.796791 0.507677
O O8 0.710716 0.697950 0.346325
O O9 0.122058 0.529019 0.214062
O O10 0.160070 0.440721 0.077323
O O11 0.000000 0.500000 0.000000
O O12 0.833034 0.389002 0.590591
O O13 0.000000 0.439719 0.750000
O O14 0.760980 0.961545 0.533383
#
# Coordination Sequence:
#
# PCOD9270929 Si02
#       7
#     4   8   8   8   8   8   8
#     4  10  20  38  60  86 118 154 202 242 292 356
#     4  10  21  37  59  84 115 154 192 241 294 354
#     4   9  20  39  58  81 119 155 190 243 299 345
#     4  10  20  36  55  84 111 145 193 234 281 351
#     4  11  20  35  56  81 113 147 187 240 288 338
#     4   9  20  40  58  82 118 154 193 243 296 350
#     4  10  21  36  58  82 112 149 191 234 291 356
#
# _framework density 18.448174999999999
#
# number of rings (size 3 to 8) (size 9 to 14) (size 15 to 20)
#    0.000    2.154    2.308    0.462    2.154    0.615 
#    2.769    0.000    0.000    0.000    0.000    0.000 
#    0.000    0.000    0.000    0.000    0.000    0.000 
#
# Total GULP energy -144747.690372 kJ/mol
# GULP energy per Si atom -5567.218860 kJ/mol
# Density = 1.840619 g / cm^3
# Si number density = 18.448175 Si / 1000 Ang^3
#
#
#
# Elastic Constant Matrix: (Units=GPa)
#
#
# Indices 1 2 3 4 5 6 
#
# 1 118.5661 33.8527 53.4488 0.0000 -6.6237 0.0000
# 2 33.8527 41.0299 23.0407 0.0000 -5.8106 0.0000
# 3 53.4488 23.0407 60.2397 0.0000 -9.5015 0.0000
# 4 0.0000 0.0000 0.0000 20.2381 0.0000 1.4591
# 5 -6.6237 -5.8106 -9.5015 0.0000 33.4837 0.0000
# 6 0.0000 0.0000 0.0000 1.4591 0.0000 18.7755
#
#
#
# Elastic Compliance Matrix: (Units=1/GPa)
#
#
# Indices 1 2 3 4 5 6 
#
# 1 0.015307 -0.006459 -0.011317 0.000000 -0.001304 0.000000
# 2 -0.006459 0.033908 -0.006817 0.000000 0.002672 0.000000
# 3 -0.011317 -0.006817 0.030054 0.000000 0.005107 0.000000
# 4 0.000000 0.000000 0.000000 0.049690 0.000000 -0.003861
# 5 -0.001304 0.002672 0.005107 0.000000 0.031520 0.000000
# 6 0.000000 0.000000 0.000000 -0.003861 0.000000 0.053561
#
#
# Mechanical properties :
#
#
# Convention : Reuss Voigt Hill
#
# Bulk Modulus (GPa) = 33.24022 48.94670 41.09346
# Shear Modulus (GPa) = 18.29803 21.79901 20.04852
#
# Velocity S-wave (km/s) = 3.15280 3.44122 3.30016
# Velocity P-wave (km/s) = 5.59561 6.50991 6.07000
#
# Compressibility (1/GPa) = 0.03008403
#
# Stress axis : x y z
#
# Youngs Moduli (GPa) = 65.33023 29.49137 33.27348
#
# Poissons Ratio (x) = 0.19049 0.37654
# Poissons Ratio (y) = 0.42197 0.22682
# Poissons Ratio (z) = 0.73931 0.20104
#
# Static dielectric constant tensor:
#      x y z
#    x 1.702200 0.000000 -0.003360 
#    y 0.000000 1.639290 0.000000 
#    z -0.003360 0.000000 1.620760 
# 
# From -- ./inp_files/154057.got.cif
#   From: 2010.05.17/outbox.cif.g08.bks.cpg/sg15_78_cif.got.tgz:154057.got - 2010.06.03 18:47:42.
