data_PCOD9270606
_publ_section_title
;
Structure prediction by ZEFSAII (Michael W. Deem and Ramdas Pophale) SiO2 
 PCOD9270606
Probable space group: C 2/C
;
_chemical_formula_sum "Si O2"
_cell_formula_units_Z 48
_cell_length_a 12.257106
_cell_length_b 20.214515
_cell_length_c 21.260095
_cell_angle_alpha 90.000000
_cell_angle_beta 24.879270
_cell_angle_gamma 90.000000
_cell_volume 2216.138189
_symmetry_space_group_name_H-M "C 2/C"
_symmetry_group_IT_number 15
_symmetry_cell_setting 'monoclinic'
loop_
_space_group_symop_operation_xyz
x,y,z
-x,y,1/2-z
-x,-y,-z
x,-y,1/2+z
1/2+x,1/2+y,z
1/2-x,1/2+y,1/2-z
1/2-x,1/2-y,-z
1/2+x,1/2-y,1/2+z
loop_
_atom_site_type_symbol
_atom_site_label
_atom_site_fract_x
_atom_site_fract_y
_atom_site_fract_z
Si Si1 0.552812 0.847577 0.105930
Si Si2 0.116523 0.390575 0.803954
Si Si3 0.370638 0.417996 0.038913
Si Si4 0.091709 0.058515 0.548485
Si Si5 0.415674 0.715125 0.222098
Si Si6 0.348840 0.026710 0.640471
O O1 0.655862 0.876016 0.117259
O O2 0.365053 0.785371 0.214992
O O3 0.475750 0.905492 0.098247
O O4 0.820311 0.816749 0.940897
O O5 0.345636 0.391973 0.632444
O O6 0.194588 0.337316 0.816586
O O7 0.118698 0.464716 0.830315
O O8 0.823323 0.389018 0.932286
O O9 0.375955 0.416901 0.111405
O O10 0.328739 0.491096 0.030090
O O11 0.960132 0.041885 0.685032
O O12 0.500000 0.725719 0.250000
O O13 0.500000 0.000000 0.500000
#
# Coordination Sequence:
#
# PCOD9270606 Si02
#       6
#     8   8   8   8   8   8
#     4  10  21  40  62  95 124 180 228 275 340 402
#     4  10  20  39  59  94 131 170 220 280 341 397
#     4   9  19  35  61  93 130 162 220 275 333 405
#     4  10  20  35  60  98 130 172 209 280 346 392
#     4  10  22  39  65  90 131 179 228 277 332 412
#     4  11  23  37  61  93 135 171 223 275 336 403
#
# _framework density 21.659300000000002
#
# number of rings (size 3 to 8) (size 9 to 14) (size 15 to 20)
#    0.000    2.000    1.667    1.500    2.333    0.667 
#    0.000    0.833    0.000    0.000    4.333    0.000 
#    0.000    0.500    0.000    0.000    0.000    0.000 
#
# Total GULP energy -133665.173852 kJ/mol
# GULP energy per Si atom -5569.382244 kJ/mol
# Density = 2.161000 g / cm^3
# Si number density = 21.659300 Si / 1000 Ang^3
#
#
#
# Elastic Constant Matrix: (Units=GPa)
#
#
# Indices 1 2 3 4 5 6 
#
# 1 82.4721 48.4372 50.6083 0.0087 1.5320 0.0096
# 2 48.4372 141.4902 20.8631 -1.1184 -9.7329 -0.3262
# 3 50.6083 20.8631 95.8929 -0.4086 6.1195 -0.1520
# 4 0.0087 -1.1184 -0.4086 33.9523 0.1789 -2.2421
# 5 1.5320 -9.7329 6.1195 0.1789 40.0360 0.0441
# 6 0.0096 -0.3262 -0.1520 -2.2421 0.0441 39.3123
#
#
#
# Elastic Compliance Matrix: (Units=1/GPa)
#
#
# Indices 1 2 3 4 5 6 
#
# 1 0.021987 -0.006072 -0.010236 -0.000332 -0.000751 -0.000113
# 2 -0.006072 0.009149 0.001069 0.000310 0.002292 0.000097
# 3 -0.010236 0.001069 0.015711 0.000242 -0.001751 0.000088
# 4 -0.000332 0.000310 0.000242 0.029578 -0.000083 0.001691
# 5 -0.000751 0.002292 -0.001751 -0.000083 0.025831 -0.000021
# 6 -0.000113 0.000097 0.000088 0.001691 -0.000021 0.025535
#
#
# Mechanical properties :
#
#
# Convention : Reuss Voigt Hill
#
# Bulk Modulus (GPa) = 61.09288 62.18583 61.63935
# Shear Modulus (GPa) = 30.53877 35.98990 33.26434
#
# Velocity S-wave (km/s) = 3.75902 4.08074 3.92318
# Velocity P-wave (km/s) = 6.86351 7.13978 7.00301
#
# Compressibility (1/GPa) = 0.01636852
#
# Stress axis : x y z
#
# Youngs Moduli (GPa) = 45.48125 109.30198 63.64995
#
# Poissons Ratio (x) = 0.66370 0.65155
# Poissons Ratio (y) = 0.27617 -0.06806
# Poissons Ratio (z) = 0.46557 -0.11688
#
# Static dielectric constant tensor:
#      x y z
#    x 1.861460 0.000220 0.049450 
#    y 0.000220 1.850120 0.000310 
#    z 0.049450 0.000310 2.002660 
# 
# From -- ./inp_files/240368.got.cif
#   From: 2010.05.17/outbox.cif.g08.bks.cpg/sg15_121_cif.got.tgz:240368.got - 2010.06.03 18:47:42.
