data_PCOD9270940
_publ_section_title
;
Structure prediction by ZEFSAII (Michael W. Deem and Ramdas Pophale) SiO2 
 PCOD9270940
Probable space group: C 2/C
;
_chemical_formula_sum "Si O2"
_cell_formula_units_Z 56
_cell_length_a 19.054713
_cell_length_b 21.724797
_cell_length_c 13.700119
_cell_angle_alpha 90.000000
_cell_angle_beta 155.740121
_cell_angle_gamma 90.000000
_cell_volume 2330.200596
_symmetry_space_group_name_H-M "C 2/C"
_symmetry_group_IT_number 15
_symmetry_cell_setting 'monoclinic'
loop_
_space_group_symop_operation_xyz
x,y,z
-x,y,1/2-z
-x,-y,-z
x,-y,1/2+z
1/2+x,1/2+y,z
1/2-x,1/2+y,1/2-z
1/2-x,1/2-y,-z
1/2+x,1/2-y,1/2+z
loop_
_atom_site_type_symbol
_atom_site_label
_atom_site_fract_x
_atom_site_fract_y
_atom_site_fract_z
Si Si1 0.269027 0.298476 0.291751
Si Si2 0.000000 0.088658 0.750000
Si Si3 0.500000 0.122739 0.750000
Si Si4 0.860230 0.821111 0.764272
Si Si5 0.967063 0.379786 0.908599
Si Si6 0.735243 0.180397 0.516347
Si Si7 0.456268 0.002225 0.590484
Si Si8 0.668018 0.429019 0.646185
O O1 0.183950 0.234442 0.217616
O O2 0.468377 0.300031 0.575413
O O3 0.260014 0.311364 0.163768
O O4 0.138624 0.349878 0.166645
O O5 0.120805 0.134394 0.842329
O O6 0.921396 0.048096 0.564597
O O7 0.323911 0.160627 0.516903
O O8 0.525729 0.071733 0.695186
O O9 0.923614 0.885125 0.893836
O O10 0.982287 0.452403 0.907625
O O11 0.921821 0.345986 0.748749
O O12 0.804425 0.379201 0.773121
O O13 0.750000 0.250000 0.500000
O O14 0.500000 0.972594 0.750000
O O15 0.259334 0.016300 0.319148
#
# Coordination Sequence:
#
# PCOD9270940 Si02
#       8
#     8   4   4   8   8   8   8   8
#     4  12  23  36  60  90 129 158 209 260 322 389
#     4  10  20  36  55  87 122 154 204 254 316 382
#     4   8  22  42  67  85 120 172 222 264 314 360
#     4  11  22  42  62  93 123 173 214 264 324 382
#     4  11  23  37  60  95 129 168 208 259 319 386
#     4  11  22  33  54  85 127 162 196 245 319 377
#     4   9  19  40  66  88 119 170 222 261 308 374
#     4  10  20  39  62  88 124 166 212 263 318 379
#
# _framework density 24.032266
#
# number of rings (size 3 to 8) (size 9 to 14) (size 15 to 20)
#    0.429    1.143    1.429    5.143    2.000    0.571 
#    0.000    5.714    0.000    0.857    0.000    0.000 
#    0.000    0.000    0.000    0.000    0.000    0.000 
#
# Total GULP energy -155915.722320 kJ/mol
# GULP energy per Si atom -5568.418654 kJ/mol
# Density = 2.397757 g / cm^3
# Si number density = 24.032266 Si / 1000 Ang^3
#
#
#
# Elastic Constant Matrix: (Units=GPa)
#
#
# Indices 1 2 3 4 5 6 
#
# 1 12.5863 21.2913 -2.4485 0.0000 -10.7231 0.0000
# 2 21.2913 87.7372 31.7306 0.0000 -6.2017 0.0000
# 3 -2.4485 31.7306 117.5645 0.0000 -7.8595 0.0000
# 4 0.0000 0.0000 0.0000 -46.1062 0.0000 1.4246
# 5 -10.7231 -6.2017 -7.8595 0.0000 38.9303 0.0000
# 6 0.0000 0.0000 0.0000 1.4246 0.0000 19.6910
#
#
#
# Elastic Compliance Matrix: (Units=1/GPa)
#
#
# Indices 1 2 3 4 5 6 
#
# 1 0.252720 -0.066745 0.027593 0.000000 0.064548 0.000000
# 2 -0.066745 0.030328 -0.010625 0.000000 -0.015698 0.000000
# 3 0.027593 -0.010625 0.012512 0.000000 0.008434 0.000000
# 4 0.000000 0.000000 0.000000 -0.021641 0.000000 0.001566
# 5 0.064548 -0.015698 0.008434 0.000000 0.042668 0.000000
# 6 0.000000 0.000000 0.000000 0.001566 0.000000 0.050671
#
#
# Mechanical properties :
#
#
# Convention : Reuss Voigt Hill
#
# Bulk Modulus (GPa) = 5.10186 35.44832 20.27509
# Shear Modulus (GPa) = 9.39588 13.65732 11.52660
#
# Velocity S-wave (km/s) = 1.97944 2.38647 2.19242
# Velocity P-wave (km/s) = 2.71142 4.73033 3.85537
#
# Compressibility (1/GPa) = 0.19600687
#
# Stress axis : x y z
#
# Youngs Moduli (GPa) = 3.95694 32.97322 79.92248
#
# Poissons Ratio (x) = 2.20078 -2.20529
# Poissons Ratio (y) = 0.26410 0.84917
# Poissons Ratio (z) = -0.10918 0.35034
#
# Static dielectric constant tensor:
#      x y z
#    x 2.045830 0.000000 -0.005620 
#    y 0.000000 1.813970 0.000000 
#    z -0.005620 0.000000 2.116830 
# 
# From -- ./inp_files/220386.got.cif
#   From: 2010.05.17/outbox.cif.g08.bks.cpg/sg15_111_cif.got.tgz:220386.got - 2010.06.03 18:47:42.
