data_PCOD9270778
_publ_section_title
;
Structure prediction by ZEFSAII (Michael W. Deem and Ramdas Pophale) SiO2 
 PCOD9270778
Probable space group: C 2/C
;
_chemical_formula_sum "Si O2"
_cell_formula_units_Z 36
_cell_length_a 8.401713
_cell_length_b 18.954610
_cell_length_c 11.383956
_cell_angle_alpha 90.000000
_cell_angle_beta 131.281090
_cell_angle_gamma 90.000000
_cell_volume 1362.368019
_symmetry_space_group_name_H-M "C 2/C"
_symmetry_group_IT_number 15
_symmetry_cell_setting 'monoclinic'
loop_
_space_group_symop_operation_xyz
x,y,z
-x,y,1/2-z
-x,-y,-z
x,-y,1/2+z
1/2+x,1/2+y,z
1/2-x,1/2+y,1/2-z
1/2-x,1/2-y,-z
1/2+x,1/2-y,1/2+z
loop_
_atom_site_type_symbol
_atom_site_label
_atom_site_fract_x
_atom_site_fract_y
_atom_site_fract_z
Si Si1 0.902818 0.986693 0.824561
Si Si2 0.190282 0.346967 0.980583
Si Si3 0.000000 0.708778 0.750000
Si Si4 0.500000 0.974118 0.750000
Si Si5 0.500000 0.729332 0.750000
Si Si6 0.461400 0.333927 0.547543
O O1 0.664576 0.010458 0.741430
O O2 0.000000 0.016263 0.750000
O O3 0.945484 0.902509 0.839723
O O4 0.000000 0.000000 0.000000
O O5 0.111477 0.422173 0.899958
O O6 0.016734 0.288467 0.861630
O O7 0.392654 0.334295 0.995910
O O8 0.296450 0.322028 0.152269
O O9 0.993071 0.764753 0.854302
O O10 0.786685 0.664942 0.611489
#
# Coordination Sequence:
#
# PCOD9270778 Si02
#       6
#     8   8   4   4   4   8
#     4  11  25  49  75 104 145 188 249 308 361 431
#     4   9  17  32  53  86 130 172 225 274 340 422
#     4  10  20  35  64  98 142 183 228 292 370 438
#     4   9  22  43  66  96 130 177 228 303 358 418
#     4   9  16  28  50  86 122 176 216 267 332 422
#     4  10  20  38  60  99 135 183 231 290 364 430
#
# _framework density 26.424575999999998
#
# number of rings (size 3 to 8) (size 9 to 14) (size 15 to 20)
#    0.000    2.222    1.111    1.333    0.000    3.556 
#   12.000    0.000    0.000    0.000    0.000    0.000 
#    0.000    0.000    0.000    0.000    0.000    0.000 
#
# Total GULP energy -100241.782187 kJ/mol
# GULP energy per Si atom -5568.987899 kJ/mol
# Density = 2.636443 g / cm^3
# Si number density = 26.424576 Si / 1000 Ang^3
#
#
#
# Elastic Constant Matrix: (Units=GPa)
#
#
# Indices 1 2 3 4 5 6 
#
# 1 182.5470 19.1119 41.1730 0.0000 -8.9014 0.0000
# 2 19.1119 48.6025 -22.1589 0.0000 -8.1072 0.0000
# 3 41.1730 -22.1589 96.8378 0.0000 0.8490 0.0000
# 4 0.0000 0.0000 0.0000 36.2508 0.0000 1.6074
# 5 -8.9014 -8.1072 0.8490 0.0000 46.5044 0.0000
# 6 0.0000 0.0000 0.0000 1.6074 0.0000 23.0523
#
#
#
# Elastic Compliance Matrix: (Units=1/GPa)
#
#
# Indices 1 2 3 4 5 6 
#
# 1 0.006851 -0.004378 -0.003920 0.000000 0.000620 0.000000
# 2 -0.004378 0.026502 0.007894 0.000000 0.003638 0.000000
# 3 -0.003920 0.007894 0.013796 0.000000 0.000374 0.000000
# 4 0.000000 0.000000 0.000000 0.027671 0.000000 -0.001929
# 5 0.000620 0.003638 0.000374 0.000000 0.022249 0.000000
# 6 0.000000 0.000000 0.000000 -0.001929 0.000000 0.043514
#
#
# Mechanical properties :
#
#
# Convention : Reuss Voigt Hill
#
# Bulk Modulus (GPa) = 21.57890 44.91547 33.24718
# Shear Modulus (GPa) = 31.87987 40.48557 36.18272
#
# Velocity S-wave (km/s) = 3.47716 3.91847 3.70440
# Velocity P-wave (km/s) = 4.92999 6.12430 5.55931
#
# Compressibility (1/GPa) = 0.04634158
#
# Stress axis : x y z
#
# Youngs Moduli (GPa) = 145.97032 37.73257 72.48372
#
# Poissons Ratio (x) = 0.16518 0.28413
# Poissons Ratio (y) = 0.63901 -0.57217
# Poissons Ratio (z) = 0.57219 -0.29785
#
# Static dielectric constant tensor:
#      x y z
#    x 2.224150 0.000000 -0.073610 
#    y 0.000000 2.154480 0.000000 
#    z -0.073610 0.000000 2.591650 
# 
# From -- ./inp_files/79616.got.cif
#   From: 2010.05.17/outbox.cif.g08.bks.cpg/sg15_40_cif.got.tgz:79616.got - 2010.06.03 18:47:42.
