data_PCOD9270076
_publ_section_title
;
Structure prediction by ZEFSAII (Michael W. Deem and Ramdas Pophale) SiO2 
 PCOD9270076
Probable space group: C 2/C
;
_chemical_formula_sum "Si O2"
_cell_formula_units_Z 48
_cell_length_a 27.632176
_cell_length_b 7.265290
_cell_length_c 20.572988
_cell_angle_alpha 90.000000
_cell_angle_beta 26.492496
_cell_angle_gamma 90.000000
_cell_volume 1842.378046
_symmetry_space_group_name_H-M "C 2/C"
_symmetry_group_IT_number 15
_symmetry_cell_setting 'monoclinic'
loop_
_space_group_symop_operation_xyz
x,y,z
-x,y,1/2-z
-x,-y,-z
x,-y,1/2+z
1/2+x,1/2+y,z
1/2-x,1/2+y,1/2-z
1/2-x,1/2-y,-z
1/2+x,1/2-y,1/2+z
loop_
_atom_site_type_symbol
_atom_site_label
_atom_site_fract_x
_atom_site_fract_y
_atom_site_fract_z
Si Si1 0.262266 0.474564 0.982085
Si Si2 0.523006 0.961001 0.294397
Si Si3 0.673947 0.551521 0.960731
Si Si4 0.888347 0.045773 0.099381
Si Si5 0.709507 0.003234 0.406792
Si Si6 0.405753 0.093521 0.653013
O O1 0.140846 0.552982 0.141831
O O2 0.343112 0.510342 0.944466
O O3 0.250000 0.250000 0.000000
O O4 0.281099 0.530145 0.885439
O O5 0.500000 0.874499 0.250000
O O6 0.413166 0.074135 0.441903
O O7 0.548253 0.849764 0.330935
O O8 0.602722 0.482542 0.987505
O O9 0.680697 0.775439 0.946571
O O10 0.796437 0.481741 0.798014
O O11 0.782751 0.947576 0.257874
O O12 0.869489 0.247439 0.148897
O O13 0.000000 0.000000 0.000000
O O14 0.500000 0.000000 0.500000
#
# Coordination Sequence:
#
# PCOD9270076 Si02
#       6
#     8   8   8   8   8   8
#     4   8  15  28  48  76 106 137 175 220 274 327
#     4   9  16  29  53  80 105 137 178 225 271 325
#     4   9  18  31  49  75 106 138 178 229 276 325
#     4  11  22  34  51  80 112 144 185 231 274 324
#     4   9  17  31  50  76 109 143 176 222 279 327
#     4  10  20  35  55  79 108 147 183 221 278 338
#
# _framework density 26.053284000000001
#
# number of rings (size 3 to 8) (size 9 to 14) (size 15 to 20)
#    0.000    2.667    0.000    3.000    0.000    1.333 
#    0.000    0.833    0.000    2.000    0.000   11.667 
#    0.000    0.000    0.000    0.000    0.000    0.000 
#
# Total GULP energy -133756.711916 kJ/mol
# GULP energy per Si atom -5573.196330 kJ/mol
# Density = 2.599399 g / cm^3
# Si number density = 26.053284 Si / 1000 Ang^3
#
#
#
# Elastic Constant Matrix: (Units=GPa)
#
#
# Indices 1 2 3 4 5 6 
#
# 1 281.8335 35.2266 11.9306 -0.0002 8.3747 0.0000
# 2 35.2266 46.6011 -2.1120 -0.0027 10.4442 0.0000
# 3 11.9306 -2.1120 75.5997 -0.0013 -7.5740 -0.0002
# 4 -0.0002 -0.0027 -0.0013 8.7046 0.0000 -1.1146
# 5 8.3747 10.4442 -7.5740 0.0000 39.0608 0.0000
# 6 0.0000 0.0000 -0.0002 -1.1146 0.0000 23.3085
#
#
#
# Elastic Compliance Matrix: (Units=1/GPa)
#
#
# Indices 1 2 3 4 5 6 
#
# 1 0.003957 -0.002981 -0.000727 -0.000001 -0.000192 0.000000
# 2 -0.002981 0.025073 0.000574 0.000008 -0.005953 0.000000
# 3 -0.000727 0.000574 0.013623 0.000002 0.002644 0.000000
# 4 -0.000001 0.000008 0.000002 0.115590 -0.000001 0.005527
# 5 -0.000192 -0.005953 0.002644 -0.000001 0.027747 0.000000
# 6 0.000000 0.000000 0.000000 0.005527 0.000000 0.043167
#
#
# Mechanical properties :
#
#
# Convention : Reuss Voigt Hill
#
# Bulk Modulus (GPa) = 27.48349 54.90275 41.19312
# Shear Modulus (GPa) = 20.19768 38.14738 29.17253
#
# Velocity S-wave (km/s) = 2.78734 3.83065 3.34986
# Velocity P-wave (km/s) = 4.57503 6.37841 5.55045
#
# Compressibility (1/GPa) = 0.03638548
#
# Stress axis : x y z
#
# Youngs Moduli (GPa) = 252.69650 39.88411 73.40400
#
# Poissons Ratio (x) = 0.11890 0.05337
# Poissons Ratio (y) = 0.75335 -0.04217
# Poissons Ratio (z) = 0.18373 -0.02291
#
# Static dielectric constant tensor:
#      x y z
#    x 1.833800 0.000010 -0.171620 
#    y 0.000010 2.113800 0.000020 
#    z -0.171620 0.000020 2.222660 
# 
# From -- ./inp_files/257145.got.cif
#   From: 2010.05.17/outbox.cif.g08.bks.cpg/sg15_129_cif.got.tgz:257145.got - 2010.06.03 18:47:42.
