data_PCOD9270111
_publ_section_title
;
Structure prediction by ZEFSAII (Michael W. Deem and Ramdas Pophale) SiO2 
 PCOD9270111
Probable space group: C 2/C
;
_chemical_formula_sum "Si O2"
_cell_formula_units_Z 52
_cell_length_a 11.545617
_cell_length_b 25.797644
_cell_length_c 14.320049
_cell_angle_alpha 90.000000
_cell_angle_beta 140.845241
_cell_angle_gamma 90.000000
_cell_volume 2693.134902
_symmetry_space_group_name_H-M "C 2/C"
_symmetry_group_IT_number 15
_symmetry_cell_setting 'monoclinic'
loop_
_space_group_symop_operation_xyz
x,y,z
-x,y,1/2-z
-x,-y,-z
x,-y,1/2+z
1/2+x,1/2+y,z
1/2-x,1/2+y,1/2-z
1/2-x,1/2-y,-z
1/2+x,1/2-y,1/2+z
loop_
_atom_site_type_symbol
_atom_site_label
_atom_site_fract_x
_atom_site_fract_y
_atom_site_fract_z
Si Si1 0.232026 0.815150 0.671247
Si Si2 0.500000 0.102239 0.250000
Si Si3 0.042853 0.226589 0.878724
Si Si4 0.347937 0.512472 0.788175
Si Si5 0.553370 0.605166 0.175549
Si Si6 0.305753 0.925149 0.132803
Si Si7 0.262248 0.024648 0.989600
O O1 0.345180 0.860516 0.692213
O O2 0.069950 0.801416 0.495660
O O3 0.379026 0.769026 0.780696
O O4 0.164182 0.843011 0.722841
O O5 0.593897 0.066057 0.385052
O O6 0.000000 0.199484 0.750000
O O7 0.250000 0.250000 0.000000
O O8 0.355531 0.449626 0.800421
O O9 0.247409 0.541921 0.808544
O O10 0.560508 0.530675 0.910714
O O11 0.257554 0.525573 0.633105
O O12 0.500000 0.598256 0.250000
O O13 0.366689 0.609304 0.000166
O O14 0.500000 0.897090 0.250000
O O15 0.322996 0.968311 0.062308
#
# Coordination Sequence:
#
# PCOD9270111 Si02
#       7
#     8   4   8   8   8   8   8
#     4  11  22  39  67  92 120 154 192 254 315 374
#     4  12  20  34  58 100 120 150 208 246 284 378
#     4   9  18  42  66  92 124 142 179 251 341 370
#     4  10  20  40  56  76 123 176 201 250 290 332
#     4  11  22  41  60  84 120 166 213 244 290 357
#     4  11  21  36  55  81 122 166 209 251 292 335
#     4  10  20  35  55  84 122 163 206 239 293 335
#
# _framework density 19.308354000000001
#
# number of rings (size 3 to 8) (size 9 to 14) (size 15 to 20)
#    0.000    1.538    6.154    3.692    0.000    1.846 
#    5.538    3.846    0.000    0.000    0.000    0.000 
#    0.000    0.000    0.000    0.000    0.000    0.000 
#
# Total GULP energy -144924.601611 kJ/mol
# GULP energy per Si atom -5574.023139 kJ/mol
# Density = 1.926441 g / cm^3
# Si number density = 19.308354 Si / 1000 Ang^3
#
#
#
# Elastic Constant Matrix: (Units=GPa)
#
#
# Indices 1 2 3 4 5 6 
#
# 1 65.8022 15.3575 33.6459 0.0000 -7.6739 0.0000
# 2 15.3575 54.6957 37.9874 0.0000 3.1323 0.0000
# 3 33.6459 37.9874 118.9108 0.0000 -0.1375 0.0000
# 4 0.0000 0.0000 0.0000 21.2465 0.0000 -5.0981
# 5 -7.6739 3.1323 -0.1375 0.0000 22.9130 0.0000
# 6 0.0000 0.0000 0.0000 -5.0981 0.0000 163.0726
#
#
#
# Elastic Compliance Matrix: (Units=1/GPa)
#
#
# Indices 1 2 3 4 5 6 
#
# 1 0.018877 -0.002540 -0.004522 0.000000 0.006642 0.000000
# 2 -0.002540 0.024084 -0.006980 0.000000 -0.004185 0.000000
# 3 -0.004522 -0.006980 0.011918 0.000000 -0.000489 0.000000
# 4 0.000000 0.000000 0.000000 0.047422 0.000000 0.001483
# 5 0.006642 -0.004185 -0.000489 0.000000 0.046437 0.000000
# 6 0.000000 0.000000 0.000000 0.001483 0.000000 0.006179
#
#
# Mechanical properties :
#
#
# Convention : Reuss Voigt Hill
#
# Bulk Modulus (GPa) = 37.32065 45.93225 41.62645
# Shear Modulus (GPa) = 26.05090 51.60762 38.82926
#
# Velocity S-wave (km/s) = 3.67714 5.17553 4.48929
# Velocity P-wave (km/s) = 6.11548 7.71721 6.96256
#
# Compressibility (1/GPa) = 0.02679482
#
# Stress axis : x y z
#
# Youngs Moduli (GPa) = 52.97539 41.52217 83.90354
#
# Poissons Ratio (x) = 0.10546 0.37942
# Poissons Ratio (y) = 0.13455 0.58564
# Poissons Ratio (z) = 0.23956 0.28982
#
# Static dielectric constant tensor:
#      x y z
#    x 1.749060 0.000000 0.038420 
#    y 0.000000 1.660100 0.000000 
#    z 0.038420 0.000000 1.750540 
# 
# From -- ./inp_files/148147.got.cif
#   From: 2010.05.17/outbox.cif.g08.bks.cpg/sg15_75_cif.got.tgz:148147.got - 2010.06.03 18:47:42.
