data_PCOD9270785
_publ_section_title
;
Structure prediction by ZEFSAII (Michael W. Deem and Ramdas Pophale) SiO2 
 PCOD9270785
Probable space group: C 2/C
;
_chemical_formula_sum "Si O2"
_cell_formula_units_Z 60
_cell_length_a 20.554551
_cell_length_b 12.030115
_cell_length_c 18.636766
_cell_angle_alpha 90.000000
_cell_angle_beta 37.299469
_cell_angle_gamma 90.000000
_cell_volume 2792.591123
_symmetry_space_group_name_H-M "C 2/C"
_symmetry_group_IT_number 15
_symmetry_cell_setting 'monoclinic'
loop_
_space_group_symop_operation_xyz
x,y,z
-x,y,1/2-z
-x,-y,-z
x,-y,1/2+z
1/2+x,1/2+y,z
1/2-x,1/2+y,1/2-z
1/2-x,1/2-y,-z
1/2+x,1/2-y,1/2+z
loop_
_atom_site_type_symbol
_atom_site_label
_atom_site_fract_x
_atom_site_fract_y
_atom_site_fract_z
Si Si1 0.160283 0.637897 0.511939
Si Si2 0.062780 0.348417 0.896014
Si Si3 0.856712 0.014526 0.106418
Si Si4 0.939888 0.114210 0.655645
Si Si5 0.278554 0.693927 0.282168
Si Si6 0.500000 0.515365 0.750000
Si Si7 0.070271 0.403759 0.353947
Si Si8 0.807635 0.901524 0.004936
O O1 0.258016 0.616153 0.369720
O O2 0.164849 0.771805 0.510101
O O3 0.199381 0.590497 0.553293
O O4 0.041903 0.601744 0.591974
O O5 0.039924 0.245850 0.864578
O O6 0.154920 0.296372 0.866090
O O7 0.101628 0.465587 0.829079
O O8 0.962676 0.376672 0.034572
O O9 0.829216 0.128637 0.170990
O O10 0.847228 0.927280 0.181696
O O11 0.966723 0.046276 0.967968
O O12 0.796996 0.963104 0.090063
O O13 0.940862 0.081244 0.737597
O O14 0.351065 0.801435 0.235639
O O15 0.407935 0.448282 0.872161
#
# Coordination Sequence:
#
# PCOD9270785 Si02
#       8
#     8   8   8   8   8   4   8   8
#     4  10  23  40  63  93 137 170 227 272 336 399
#     4  10  22  39  61  95 133 165 218 265 330 404
#     4  10  20  35  65  91 129 160 223 269 330 385
#     4  10  20  38  61  93 123 171 209 276 323 394
#     4  11  22  37  67  97 124 175 214 275 331 393
#     4  10  22  38  66  92 134 172 222 276 336 386
#     4  10  22  41  62  95 131 172 213 277 332 392
#     4  10  22  40  60  99 129 175 225 281 326 400
#
# _framework density 21.485423000000001
#
# number of rings (size 3 to 8) (size 9 to 14) (size 15 to 20)
#    0.000    1.867    1.333    2.400    9.333    0.000 
#    2.400    1.333    0.000    3.200    0.000    0.000 
#    0.000    0.000    0.000    0.000    0.000    0.000 
#
# Total GULP energy -167016.528825 kJ/mol
# GULP energy per Si atom -5567.217628 kJ/mol
# Density = 2.143652 g / cm^3
# Si number density = 21.485423 Si / 1000 Ang^3
#
#
#
# Elastic Constant Matrix: (Units=GPa)
#
#
# Indices 1 2 3 4 5 6 
#
# 1 133.1225 63.1235 38.7065 0.0000 23.5818 0.0000
# 2 63.1235 113.5910 32.3593 0.0000 8.3446 0.0000
# 3 38.7065 32.3593 64.7666 0.0000 19.9375 0.0000
# 4 0.0000 0.0000 0.0000 29.7724 0.0000 6.5238
# 5 23.5818 8.3446 19.9375 0.0000 32.9009 0.0000
# 6 0.0000 0.0000 0.0000 6.5238 0.0000 23.9500
#
#
#
# Elastic Compliance Matrix: (Units=1/GPa)
#
#
# Indices 1 2 3 4 5 6 
#
# 1 0.011825 -0.005405 -0.002679 0.000000 -0.005481 0.000000
# 2 -0.005405 0.012746 -0.004100 0.000000 0.003126 0.000000
# 3 -0.002679 -0.004100 0.022347 0.000000 -0.010582 0.000000
# 4 0.000000 0.000000 0.000000 0.035720 0.000000 -0.009730
# 5 -0.005481 0.003126 -0.010582 0.000000 0.039943 0.000000
# 6 0.000000 0.000000 0.000000 -0.009730 0.000000 0.044404
#
#
# Mechanical properties :
#
#
# Convention : Reuss Voigt Hill
#
# Bulk Modulus (GPa) = 44.34804 64.42874 54.38839
# Shear Modulus (GPa) = 25.14215 29.14405 27.14310
#
# Velocity S-wave (km/s) = 3.42452 3.68701 3.55819
# Velocity P-wave (km/s) = 6.02680 6.94101 6.50000
#
# Compressibility (1/GPa) = 0.02254891
#
# Stress axis : x y z
#
# Youngs Moduli (GPa) = 84.56780 78.45799 44.74859
#
# Poissons Ratio (x) = 0.42409 0.11988
# Poissons Ratio (y) = 0.45712 0.18347
# Poissons Ratio (z) = 0.22655 0.32168
#
# Static dielectric constant tensor:
#      x y z
#    x 1.979600 0.000000 -0.049310 
#    y 0.000000 1.793850 0.000000 
#    z -0.049310 0.000000 1.846370 
# 
# From -- ./inp_files/215165.got.cif
#   From: 2010.05.17/outbox.cif.g08.bks.cpg/sg15_108_cif.got.tgz:215165.got - 2010.06.03 18:47:42.
