data_PCOD9270293
_publ_section_title
;
Structure prediction by ZEFSAII (Michael W. Deem and Ramdas Pophale) SiO2 
 PCOD9270293
Probable space group: C 2/C
;
_chemical_formula_sum "Si O2"
_cell_formula_units_Z 56
_cell_length_a 16.366502
_cell_length_b 26.765094
_cell_length_c 12.063320
_cell_angle_alpha 90.000000
_cell_angle_beta 25.614446
_cell_angle_gamma 90.000000
_cell_volume 2284.493357
_symmetry_space_group_name_H-M "C 2/C"
_symmetry_group_IT_number 15
_symmetry_cell_setting 'monoclinic'
loop_
_space_group_symop_operation_xyz
x,y,z
-x,y,1/2-z
-x,-y,-z
x,-y,1/2+z
1/2+x,1/2+y,z
1/2-x,1/2+y,1/2-z
1/2-x,1/2-y,-z
1/2+x,1/2-y,1/2+z
loop_
_atom_site_type_symbol
_atom_site_label
_atom_site_fract_x
_atom_site_fract_y
_atom_site_fract_z
Si Si1 0.187519 0.817502 0.437061
Si Si2 0.139925 0.883539 0.272657
Si Si3 0.281998 0.549628 0.221038
Si Si4 0.619143 0.060808 0.883554
Si Si5 0.110343 0.717710 0.420515
Si Si6 0.508196 0.292059 0.357680
Si Si7 0.293054 0.107037 0.962079
O O1 0.121375 0.851093 0.412359
O O2 0.125474 0.759753 0.498561
O O3 0.171643 0.844120 0.577161
O O4 0.419549 0.813726 0.149251
O O5 0.334609 0.909092 0.062746
O O6 0.979721 0.925171 0.445621
O O7 0.132098 0.841442 0.190967
O O8 0.233863 0.490735 0.268920
O O9 0.267644 0.569844 0.365604
O O10 0.103246 0.566515 0.366291
O O11 0.698287 0.078011 0.665923
O O12 0.099709 0.753368 0.327657
O O13 0.310369 0.690734 0.157689
O O14 0.500000 0.266789 0.250000
O O15 0.500000 0.123724 0.750000
#
# Coordination Sequence:
#
# PCOD9270293 Si02
#       7
#     8   8   8   8   8   8   8
#     4   9  19  36  58  87 117 157 200 243 298 360
#     4  10  21  35  59  85 120 153 197 242 301 350
#     4  10  20  38  63  82 116 166 187 253 300 348
#     4   9  20  38  58  86 116 149 205 243 296 351
#     4   9  19  36  61  79 122 158 192 251 299 340
#     4  10  20  35  57  88 114 155 200 239 295 356
#     4   9  19  35  61  87 118 155 204 239 295 368
#
# _framework density 24.513095
#
# number of rings (size 3 to 8) (size 9 to 14) (size 15 to 20)
#    0.000    2.571    0.000    0.857    6.000    2.286 
#    2.571    0.714    0.000    0.000    0.000    0.000 
#    0.000    0.000    0.000    0.000    0.000    0.000 
#
# Total GULP energy -155911.732382 kJ/mol
# GULP energy per Si atom -5568.276157 kJ/mol
# Density = 2.445730 g / cm^3
# Si number density = 24.513095 Si / 1000 Ang^3
#
#
#
# Elastic Constant Matrix: (Units=GPa)
#
#
# Indices 1 2 3 4 5 6 
#
# 1 405.0386 -153.5598 251.0294 -0.0301 -261.3242 0.1122
# 2 -153.5598 228.3226 -165.0040 0.0263 162.2337 -0.0828
# 3 251.0294 -165.0040 208.4556 -0.0059 -204.5265 0.0761
# 4 -0.0301 0.0263 -0.0059 9.4035 0.0203 -15.5723
# 5 -261.3242 162.2337 -204.5265 0.0203 231.6053 -0.0922
# 6 0.1122 -0.0828 0.0761 -15.5723 -0.0922 45.5750
#
#
#
# Elastic Compliance Matrix: (Units=1/GPa)
#
#
# Indices 1 2 3 4 5 6 
#
# 1 0.013435 -0.006230 -0.014640 0.000060 0.006595 0.000014
# 2 -0.006230 0.013123 0.014780 -0.000063 -0.003170 -0.000013
# 3 -0.014640 0.014780 0.058109 -0.000182 0.024444 -0.000047
# 4 0.000060 -0.000063 -0.000182 0.244933 -0.000037 0.083690
# 5 0.006595 -0.003170 0.024444 -0.000037 0.035565 -0.000004
# 6 0.000014 -0.000013 -0.000047 0.083690 -0.000004 0.050537
#
#
# Mechanical properties :
#
#
# Convention : Reuss Voigt Hill
#
# Bulk Modulus (GPa) = 13.79562 78.52754 46.16158
# Shear Modulus (GPa) = 11.06079 117.94020 64.50050
#
# Velocity S-wave (km/s) = 2.12650 6.94389 5.13515
# Velocity P-wave (km/s) = 3.41605 9.81808 7.35065
#
# Compressibility (1/GPa) = 0.07248678
#
# Stress axis : x y z
#
# Youngs Moduli (GPa) = 74.43098 76.19967 17.20892
#
# Poissons Ratio (x) = 0.47473 0.25194
# Poissons Ratio (y) = 0.46371 -0.25434
# Poissons Ratio (z) = 1.08969 -1.12621
#
# Static dielectric constant tensor:
#      x y z
#    x 1.914800 0.000000 -0.013820 
#    y 0.000000 2.048020 0.000010 
#    z -0.013820 0.000010 2.082230 
# 
# From -- ./inp_files/101764.got.cif
#   From: 2010.05.17/outbox.cif.g08.bks.cpg/sg15_51_cif.got.tgz:101764.got - 2010.06.03 18:47:42.
