data_PCOD9270561
_publ_section_title
;
Structure prediction by ZEFSAII (Michael W. Deem and Ramdas Pophale) SiO2 
 PCOD9270561
Probable space group: C 2/C
;
_chemical_formula_sum "Si O2"
_cell_formula_units_Z 40
_cell_length_a 15.601085
_cell_length_b 7.360286
_cell_length_c 18.762968
_cell_angle_alpha 90.000000
_cell_angle_beta 114.444366
_cell_angle_gamma 90.000000
_cell_volume 1961.398647
_symmetry_space_group_name_H-M "C 2/C"
_symmetry_group_IT_number 15
_symmetry_cell_setting 'monoclinic'
loop_
_space_group_symop_operation_xyz
x,y,z
-x,y,1/2-z
-x,-y,-z
x,-y,1/2+z
1/2+x,1/2+y,z
1/2-x,1/2+y,1/2-z
1/2-x,1/2-y,-z
1/2+x,1/2-y,1/2+z
loop_
_atom_site_type_symbol
_atom_site_label
_atom_site_fract_x
_atom_site_fract_y
_atom_site_fract_z
Si Si1 0.986890 0.614567 0.320605
Si Si2 0.705778 0.213259 0.061635
Si Si3 0.334301 0.986547 0.179877
Si Si4 0.789081 0.282882 0.432987
Si Si5 0.000075 0.285350 0.518770
O O1 0.890092 0.505715 0.273568
O O2 0.990292 0.726475 0.392606
O O3 0.000000 0.721964 0.250000
O O4 0.078069 0.483221 0.346833
O O5 0.765327 0.321888 0.141061
O O6 0.598075 0.282560 0.021443
O O7 0.710486 0.998779 0.078536
O O8 0.750000 0.250000 0.000000
O O9 0.276907 0.168725 0.142018
O O10 0.750000 0.250000 0.500000
O O11 0.897178 0.216782 0.462742
O O12 0.000000 0.500000 0.500000
#
# Coordination Sequence:
#
# PCOD9270561 Si02
#       5
#     8   8   8   8   8
#     4   8  18  38  60  77 123 157 186 242 303 325
#     4  11  21  35  58  86 118 148 196 237 287 345
#     4   9  19  37  58  81 117 155 189 241 289 338
#     4  11  18  36  62  84 114 151 196 238 287 340
#     4  10  20  35  60  89 114 154 194 239 289 345
#
# _framework density 20.393611
#
# number of rings (size 3 to 8) (size 9 to 14) (size 15 to 20)
#    1.200    0.800    4.000    1.200    0.000    0.800 
#    7.200    4.000    0.000    0.000    0.000    0.000 
#    0.000    0.000    0.000    0.000    0.000    0.000 
#
# Total GULP energy -111347.439672 kJ/mol
# GULP energy per Si atom -5567.371984 kJ/mol
# Density = 2.034719 g / cm^3
# Si number density = 20.393611 Si / 1000 Ang^3
#
#
#
# Elastic Constant Matrix: (Units=GPa)
#
#
# Indices 1 2 3 4 5 6 
#
# 1 103.5197 8.9670 38.1664 0.0000 36.3901 0.0000
# 2 8.9670 99.2119 27.7552 0.0000 24.8995 0.0000
# 3 38.1664 27.7552 93.8820 0.0000 41.9053 0.0000
# 4 0.0000 0.0000 0.0000 16.5622 0.0000 5.5405
# 5 36.3901 24.8995 41.9053 0.0000 53.3143 0.0000
# 6 0.0000 0.0000 0.0000 5.5405 0.0000 16.4843
#
#
#
# Elastic Compliance Matrix: (Units=1/GPa)
#
#
# Indices 1 2 3 4 5 6 
#
# 1 0.013127 0.001414 -0.002250 0.000000 -0.007852 0.000000
# 2 0.001414 0.011715 -0.001795 0.000000 -0.005025 0.000000
# 3 -0.002250 -0.001795 0.017003 0.000000 -0.010990 0.000000
# 4 0.000000 0.000000 0.000000 0.068027 0.000000 -0.022865
# 5 -0.007852 -0.005025 -0.010990 0.000000 0.035101 0.000000
# 6 0.000000 0.000000 0.000000 -0.022865 0.000000 0.068349
#
#
# Mechanical properties :
#
#
# Convention : Reuss Voigt Hill
#
# Bulk Modulus (GPa) = 27.33564 49.59897 38.46731
# Shear Modulus (GPa) = 21.66577 32.05383 26.85980
#
# Velocity S-wave (km/s) = 3.26295 3.96884 3.63308
# Velocity P-wave (km/s) = 5.25632 6.73616 6.04172
#
# Compressibility (1/GPa) = 0.03658228
#
# Stress axis : x y z
#
# Youngs Moduli (GPa) = 76.17775 85.36031 58.81475
#
# Poissons Ratio (x) = -0.12066 0.13232
# Poissons Ratio (y) = -0.10768 0.10557
# Poissons Ratio (z) = 0.17138 0.15322
#
# Static dielectric constant tensor:
#      x y z
#    x 1.715880 0.000000 0.050290 
#    y 0.000000 1.727820 0.000000 
#    z 0.050290 0.000000 1.726820 
# 
# From -- ./inp_files/272420.got.cif
#   From: 2010.05.17/outbox.cif.g08.bks.cpg/sg15_137_cif.got.tgz:272420.got - 2010.06.03 18:47:42.
