data_PCOD9270582
_publ_section_title
;
Structure prediction by ZEFSAII (Michael W. Deem and Ramdas Pophale) SiO2 
 PCOD9270582
Probable space group: C 2/C
;
_chemical_formula_sum "Si O2"
_cell_formula_units_Z 48
_cell_length_a 12.313273
_cell_length_b 14.863338
_cell_length_c 11.468143
_cell_angle_alpha 90.000000
_cell_angle_beta 69.489964
_cell_angle_gamma 90.000000
_cell_volume 1965.812708
_symmetry_space_group_name_H-M "C 2/C"
_symmetry_group_IT_number 15
_symmetry_cell_setting 'monoclinic'
loop_
_space_group_symop_operation_xyz
x,y,z
-x,y,1/2-z
-x,-y,-z
x,-y,1/2+z
1/2+x,1/2+y,z
1/2-x,1/2+y,1/2-z
1/2-x,1/2-y,-z
1/2+x,1/2-y,1/2+z
loop_
_atom_site_type_symbol
_atom_site_label
_atom_site_fract_x
_atom_site_fract_y
_atom_site_fract_z
Si Si1 0.863083 0.686926 0.815060
Si Si2 0.628159 0.105731 0.233991
Si Si3 0.314332 0.344197 0.506238
Si Si4 0.338292 0.679050 0.750690
Si Si5 0.466021 0.400985 0.979582
Si Si6 0.747350 0.619730 0.084069
O O1 0.798142 0.658320 0.721047
O O2 0.792485 0.779018 0.866227
O O3 0.000000 0.697198 0.750000
O O4 0.831157 0.626846 0.940035
O O5 0.500000 0.073969 0.250000
O O6 0.717182 0.090556 0.094525
O O7 0.626288 0.215592 0.249461
O O8 0.686835 0.074924 0.332439
O O9 0.250000 0.250000 0.500000
O O10 0.369390 0.367661 0.361014
O O11 0.415280 0.342680 0.566200
O O12 0.395490 0.643256 0.611904
O O13 0.500000 0.500000 0.000000
O O14 0.379215 0.413645 0.905401
#
# Coordination Sequence:
#
# PCOD9270582 Si02
#       6
#     8   8   8   8   8   8
#     4   9  18  30  57  86 123 157 198 266 325 352
#     4  10  20  35  60  91 126 157 206 271 321 374
#     4  10  21  36  62  90 121 169 215 266 322 380
#     4   9  19  36  56  91 122 163 210 260 315 387
#     4  11  23  41  62  91 131 168 209 267 336 397
#     4   9  21  35  53  91 125 156 209 260 311 390
#
# _framework density 24.417380999999999
#
# number of rings (size 3 to 8) (size 9 to 14) (size 15 to 20)
#    0.000    2.333    0.000    3.500    9.333    0.000 
#    6.000    0.000    0.000    5.000    0.000    0.000 
#    0.000    0.000    0.000    0.000    0.000    0.000 
#
# Total GULP energy -133936.510702 kJ/mol
# GULP energy per Si atom -5580.687946 kJ/mol
# Density = 2.436181 g / cm^3
# Si number density = 24.417381 Si / 1000 Ang^3
#
#
#
# Elastic Constant Matrix: (Units=GPa)
#
#
# Indices 1 2 3 4 5 6 
#
# 1 231.9651 1.8727 29.9345 0.0000 12.3323 0.0000
# 2 1.8727 56.1284 -4.8399 0.0000 6.8618 0.0000
# 3 29.9345 -4.8399 45.3462 0.0000 2.0357 0.0000
# 4 0.0000 0.0000 0.0000 -6.6738 0.0000 5.7258
# 5 12.3323 6.8618 2.0357 0.0000 48.3487 0.0000
# 6 0.0000 0.0000 0.0000 5.7258 0.0000 11.3378
#
#
#
# Elastic Compliance Matrix: (Units=1/GPa)
#
#
# Indices 1 2 3 4 5 6 
#
# 1 0.004774 -0.000302 -0.003137 0.000000 -0.001043 0.000000
# 2 -0.000302 0.018343 0.002275 0.000000 -0.002622 0.000000
# 3 -0.003137 0.002275 0.024391 0.000000 -0.000550 0.000000
# 4 0.000000 0.000000 0.000000 -0.104542 0.000000 0.052796
# 5 -0.001043 -0.002622 -0.000550 0.000000 0.021344 0.000000
# 6 0.000000 0.000000 0.000000 0.052796 0.000000 0.061537
#
#
# Mechanical properties :
#
#
# Convention : Reuss Voigt Hill
#
# Bulk Modulus (GPa) = 22.13390 43.04160 32.58775
# Shear Modulus (GPa) = 115.64811 31.03401 73.34106
#
# Velocity S-wave (km/s) = 6.88955 3.56895 5.48649
# Velocity P-wave (km/s) = 8.50719 5.88633 7.31509
#
# Compressibility (1/GPa) = 0.04517956
#
# Stress axis : x y z
#
# Youngs Moduli (GPa) = 209.48331 54.51640 40.99925
#
# Poissons Ratio (x) = 0.01648 0.12860
# Poissons Ratio (y) = 0.06332 -0.09327
# Poissons Ratio (z) = 0.65709 -0.12403
#
# Static dielectric constant tensor:
#      x y z
#    x 3.543920 0.000000 -0.370370 
#    y 0.000000 2.031990 0.000000 
#    z -0.370370 0.000000 2.121570 
# 
# From -- ./inp_files/87759.got.cif
#   From: 2010.05.17/outbox.cif.g08.bks.cpg/sg15_44_cif.got.tgz:87759.got - 2010.06.03 18:47:42.
