data_PCOD9270927
_publ_section_title
;
Structure prediction by ZEFSAII (Michael W. Deem and Ramdas Pophale) SiO2 
 PCOD9270927
Probable space group: C 2/C
;
_chemical_formula_sum "Si O2"
_cell_formula_units_Z 36
_cell_length_a 25.984817
_cell_length_b 6.750163
_cell_length_c 19.593023
_cell_angle_alpha 90.000000
_cell_angle_beta 22.383489
_cell_angle_gamma 90.000000
_cell_volume 1308.690037
_symmetry_space_group_name_H-M "C 2/C"
_symmetry_group_IT_number 15
_symmetry_cell_setting 'monoclinic'
loop_
_space_group_symop_operation_xyz
x,y,z
-x,y,1/2-z
-x,-y,-z
x,-y,1/2+z
1/2+x,1/2+y,z
1/2-x,1/2+y,1/2-z
1/2-x,1/2-y,-z
1/2+x,1/2-y,1/2+z
loop_
_atom_site_type_symbol
_atom_site_label
_atom_site_fract_x
_atom_site_fract_y
_atom_site_fract_z
Si Si1 0.968613 0.179514 0.437586
Si Si2 0.000000 0.186816 0.250000
Si Si3 0.836351 0.625570 0.694532
Si Si4 0.015746 0.288617 0.619096
Si Si5 0.727077 0.633520 0.447516
O O1 0.998004 0.283014 0.327562
O O2 0.075759 0.232763 0.364077
O O3 0.810046 0.208113 0.647351
O O4 0.983203 0.943630 0.405452
O O5 0.865918 0.048116 0.413584
O O6 0.924454 0.594411 0.518958
O O7 0.798176 0.443375 0.790069
O O8 0.123592 0.298854 0.547674
O O9 0.859295 0.320763 0.828913
#
# Coordination Sequence:
#
# PCOD9270927 Si02
#       5
#     8   4   8   8   8
#     4  10  22  35  58  78 111 143 175 225 260 321
#     4   8  20  40  52  80 108 140 184 218 268 308
#     4  10  20  36  55  83 108 139 177 221 271 313
#     4  10  20  36  55  83 108 139 177 221 271 313
#     4  10  22  35  58  78 111 143 175 225 260 321
#
# _framework density 27.508423000000001
#
# number of rings (size 3 to 8) (size 9 to 14) (size 15 to 20)
#    0.000    2.667    0.000    2.667    0.000   12.444 
#    0.000    0.000    0.000   21.333    0.000    0.000 
#    0.000    0.000    0.000    0.000    0.000    0.000 
#
# Total GULP energy -100797.043761 kJ/mol
# GULP energy per Si atom -5599.835765 kJ/mol
# Density = 2.744581 g / cm^3
# Si number density = 27.508423 Si / 1000 Ang^3
#
#
#
# Elastic Constant Matrix: (Units=GPa)
#
#
# Indices 1 2 3 4 5 6 
#
# 1 149.0124 8.3262 87.7360 0.0020 -2.7558 -0.0009
# 2 8.3262 42.7037 25.0164 0.0018 -22.9759 -0.0009
# 3 87.7360 25.0164 276.2988 0.0033 -30.7414 -0.0008
# 4 0.0020 0.0018 0.0033 36.9502 0.0000 -11.0271
# 5 -2.7558 -22.9759 -30.7414 0.0000 70.0161 -0.0004
# 6 -0.0009 -0.0009 -0.0008 -11.0271 -0.0004 25.6378
#
#
#
# Elastic Compliance Matrix: (Units=1/GPa)
#
#
# Indices 1 2 3 4 5 6 
#
# 1 0.008317 -0.000608 -0.002704 0.000000 -0.001059 0.000000
# 2 -0.000608 0.029185 -0.001458 -0.000001 0.008913 0.000001
# 3 -0.002704 -0.001458 0.004778 0.000000 0.001513 0.000000
# 4 0.000000 -0.000001 0.000000 0.031049 0.000000 0.013355
# 5 -0.001059 0.008913 0.001513 0.000000 0.017830 0.000000
# 6 0.000000 0.000001 0.000000 0.013355 0.000000 0.044749
#
#
# Mechanical properties :
#
#
# Convention : Reuss Voigt Hill
#
# Bulk Modulus (GPa) = 30.54172 78.90800 54.72486
# Shear Modulus (GPa) = 31.97726 49.64989 40.81357
#
# Velocity S-wave (km/s) = 3.41318 4.25302 3.85603
# Velocity P-wave (km/s) = 5.16331 7.27082 6.30574
#
# Compressibility (1/GPa) = 0.03274210
#
# Stress axis : x y z
#
# Youngs Moduli (GPa) = 120.23254 34.26386 209.28343
#
# Poissons Ratio (x) = 0.02082 0.56588
# Poissons Ratio (y) = 0.07305 0.30510
# Poissons Ratio (z) = 0.32510 0.04995
#
# Static dielectric constant tensor:
#      x y z
#    x 2.177730 0.000000 0.023530 
#    y 0.000000 2.334850 0.000000 
#    z 0.023530 0.000000 2.087440 
# 
# From -- ./inp_files/109341.got.cif
#   From: 2010.05.17/outbox.cif.g08.bks.cpg/sg15_55_cif.got.tgz:109341.got - 2010.06.03 18:47:42.
