data_PCOD9270225
_publ_section_title
;
Structure prediction by ZEFSAII (Michael W. Deem and Ramdas Pophale) SiO2 
 PCOD9270225
Probable space group: C 2/C
;
_chemical_formula_sum "Si O2"
_cell_formula_units_Z 48
_cell_length_a 15.682376
_cell_length_b 8.675109
_cell_length_c 23.114472
_cell_angle_alpha 90.000000
_cell_angle_beta 129.255833
_cell_angle_gamma 90.000000
_cell_volume 2434.982651
_symmetry_space_group_name_H-M "C 2/C"
_symmetry_group_IT_number 15
_symmetry_cell_setting 'monoclinic'
loop_
_space_group_symop_operation_xyz
x,y,z
-x,y,1/2-z
-x,-y,-z
x,-y,1/2+z
1/2+x,1/2+y,z
1/2-x,1/2+y,1/2-z
1/2-x,1/2-y,-z
1/2+x,1/2-y,1/2+z
loop_
_atom_site_type_symbol
_atom_site_label
_atom_site_fract_x
_atom_site_fract_y
_atom_site_fract_z
Si Si1 0.378427 0.666772 0.175406
Si Si2 0.664091 0.391761 0.659770
Si Si3 0.535992 0.948537 0.579479
Si Si4 0.929650 0.727828 0.572638
Si Si5 0.778972 0.915656 0.203374
Si Si6 0.845751 0.823437 0.411595
O O1 0.500000 0.710002 0.250000
O O2 0.375811 0.701755 0.106401
O O3 0.352655 0.492050 0.184543
O O4 0.276900 0.764777 0.158202
O O5 0.550898 0.302391 0.621546
O O6 0.762566 0.267714 0.698369
O O7 0.680724 0.510948 0.719372
O O8 0.651326 0.495565 0.597498
O O9 0.561090 0.766565 0.586330
O O10 0.500000 0.000000 0.500000
O O11 0.450851 0.042055 0.583359
O O12 0.656411 0.018592 0.641373
O O13 0.868736 0.774318 0.487429
#
# Coordination Sequence:
#
# PCOD9270225 Si02
#       6
#     8   8   8   8   8   8
#     4  11  21  38  56  84 120 156 190 237 297 353
#     4  11  21  37  60  83 113 150 201 248 290 351
#     4   8  17  33  56  83 110 145 190 230 280 346
#     4  10  20  37  61  85 118 154 193 239 296 355
#     4  10  20  35  57  80 112 150 192 242 295 341
#     4  10  21  37  59  89 116 154 195 241 292 351
#
# _framework density 19.712665999999999
#
# number of rings (size 3 to 8) (size 9 to 14) (size 15 to 20)
#    0.000    2.000    1.667    3.000    2.333    0.000 
#    0.000    3.333    0.000    0.000    0.000    0.000 
#    0.000    0.000    0.000    0.000    0.000    0.000 
#
# Total GULP energy -133694.579690 kJ/mol
# GULP energy per Si atom -5570.607487 kJ/mol
# Density = 1.966780 g / cm^3
# Si number density = 19.712666 Si / 1000 Ang^3
#
#
#
# Elastic Constant Matrix: (Units=GPa)
#
#
# Indices 1 2 3 4 5 6 
#
# 1 70.1964 34.5980 10.9929 0.0000 -10.7385 0.0000
# 2 34.5980 95.4926 10.2793 0.0000 -17.7309 0.0000
# 3 10.9929 10.2793 75.7206 0.0000 4.0678 0.0000
# 4 0.0000 0.0000 0.0000 29.6229 0.0000 0.8201
# 5 -10.7385 -17.7309 4.0678 0.0000 24.9483 0.0000
# 6 0.0000 0.0000 0.0000 0.8201 0.0000 4.0873
#
#
#
# Elastic Compliance Matrix: (Units=1/GPa)
#
#
# Indices 1 2 3 4 5 6 
#
# 1 0.017914 -0.005498 -0.002077 0.000000 0.004142 0.000000
# 2 -0.005498 0.014097 -0.001540 0.000000 0.007904 0.000000
# 3 -0.002077 -0.001540 0.013946 0.000000 -0.004262 0.000000
# 4 0.000000 0.000000 0.000000 0.033946 0.000000 -0.006811
# 5 0.004142 0.007904 -0.004262 0.000000 0.048178 0.000000
# 6 0.000000 0.000000 0.000000 -0.006811 0.000000 0.246024
#
#
# Mechanical properties :
#
#
# Convention : Reuss Voigt Hill
#
# Bulk Modulus (GPa) = 36.06497 39.23890 37.65193
# Shear Modulus (GPa) = 12.45085 24.10099 18.27592
#
# Velocity S-wave (km/s) = 2.51593 3.50038 3.04816
# Velocity P-wave (km/s) = 5.17445 6.02375 5.61518
#
# Compressibility (1/GPa) = 0.02772774
#
# Stress axis : x y z
#
# Youngs Moduli (GPa) = 55.82091 70.93555 71.70499
#
# Poissons Ratio (x) = 0.39000 0.14893
# Poissons Ratio (y) = 0.30690 0.11044
# Poissons Ratio (z) = 0.11594 0.10925
#
# Static dielectric constant tensor:
#      x y z
#    x 1.709330 0.000000 -0.021370 
#    y 0.000000 1.757060 0.000000 
#    z -0.021370 0.000000 1.751510 
# 
# From -- ./inp_files/208542.got.cif
#   From: 2010.05.17/outbox.cif.g08.bks.cpg/sg15_105_cif.got.tgz:208542.got - 2010.06.03 18:47:42.
