data_PCOD9270393
_publ_section_title
;
Structure prediction by ZEFSAII (Michael W. Deem and Ramdas Pophale) SiO2 
 PCOD9270393
Probable space group: C 2/C
;
_chemical_formula_sum "Si O2"
_cell_formula_units_Z 40
_cell_length_a 15.764364
_cell_length_b 6.861720
_cell_length_c 19.398347
_cell_angle_alpha 90.000000
_cell_angle_beta 112.112526
_cell_angle_gamma 90.000000
_cell_volume 1943.991890
_symmetry_space_group_name_H-M "C 2/C"
_symmetry_group_IT_number 15
_symmetry_cell_setting 'monoclinic'
loop_
_space_group_symop_operation_xyz
x,y,z
-x,y,1/2-z
-x,-y,-z
x,-y,1/2+z
1/2+x,1/2+y,z
1/2-x,1/2+y,1/2-z
1/2-x,1/2-y,-z
1/2+x,1/2-y,1/2+z
loop_
_atom_site_type_symbol
_atom_site_label
_atom_site_fract_x
_atom_site_fract_y
_atom_site_fract_z
Si Si1 0.104661 0.388175 0.577116
Si Si2 0.508754 0.446307 0.421466
Si Si3 0.854596 0.255244 0.055986
Si Si4 0.848002 0.220526 0.335504
Si Si5 0.281014 0.879978 0.169654
O O1 0.021169 0.277932 0.589882
O O2 0.094506 0.362276 0.491616
O O3 0.123063 0.606961 0.604789
O O4 0.195127 0.263229 0.626328
O O5 0.500000 0.500000 0.500000
O O6 0.604833 0.536243 0.427491
O O7 0.432459 0.571032 0.357714
O O8 0.852691 0.357129 0.129347
O O9 0.750000 0.250000 0.000000
O O10 0.823140 0.313281 0.254715
O O11 0.762515 0.094309 0.336994
#
# Coordination Sequence:
#
# PCOD9270393 Si02
#       5
#     8   8   8   8   8
#     4   9  19  37  60  84 115 159 201 250 313 372
#     4   9  20  37  58  85 117 157 203 253 315 371
#     4   9  19  37  58  82 117 155 205 258 301 365
#     4  11  20  35  62  84 121 162 206 253 316 384
#     4  10  20  35  58  87 117 159 205 250 312 371
#
# _framework density 20.576218999999998
#
# number of rings (size 3 to 8) (size 9 to 14) (size 15 to 20)
#    0.000    2.400    2.000    1.200    0.000    4.800 
#    0.000    4.000    0.000    4.800    0.000    0.000 
#    0.000    0.000    0.000    0.000    0.000    0.000 
#
# Total GULP energy -111568.296815 kJ/mol
# GULP energy per Si atom -5578.414841 kJ/mol
# Density = 2.052939 g / cm^3
# Si number density = 20.576219 Si / 1000 Ang^3
#
#
#
# Elastic Constant Matrix: (Units=GPa)
#
#
# Indices 1 2 3 4 5 6 
#
# 1 84.7238 52.6085 34.7380 0.0000 -4.1008 0.0000
# 2 52.6085 131.0950 35.3334 0.0000 -7.7411 0.0000
# 3 34.7380 35.3334 74.9768 0.0000 -10.0354 0.0000
# 4 0.0000 0.0000 0.0000 37.7286 0.0000 15.7692
# 5 -4.1008 -7.7411 -10.0354 0.0000 29.7747 0.0000
# 6 0.0000 0.0000 0.0000 15.7692 0.0000 39.0712
#
#
#
# Elastic Compliance Matrix: (Units=1/GPa)
#
#
# Indices 1 2 3 4 5 6 
#
# 1 0.017521 -0.005572 -0.005616 0.000000 -0.000928 0.000000
# 2 -0.005572 0.010535 -0.002219 0.000000 0.001223 0.000000
# 3 -0.005616 -0.002219 0.017598 0.000000 0.004581 0.000000
# 4 0.000000 0.000000 0.000000 0.031884 0.000000 -0.012868
# 5 -0.000928 0.001223 0.004581 0.000000 0.035320 0.000000
# 6 0.000000 0.000000 0.000000 -0.012868 0.000000 0.030788
#
#
# Mechanical properties :
#
#
# Convention : Reuss Voigt Hill
#
# Bulk Modulus (GPa) = 53.08094 59.57282 56.32688
# Shear Modulus (GPa) = 28.29029 32.52261 30.40645
#
# Velocity S-wave (km/s) = 3.71199 3.97998 3.84832
# Velocity P-wave (km/s) = 6.65019 7.08064 6.86879
#
# Compressibility (1/GPa) = 0.01883915
#
# Stress axis : x y z
#
# Youngs Moduli (GPa) = 57.07501 94.92588 56.82369
#
# Poissons Ratio (x) = 0.52895 0.31912
# Poissons Ratio (y) = 0.31804 0.12609
# Poissons Ratio (z) = 0.32053 0.21064
#
# Static dielectric constant tensor:
#      x y z
#    x 1.777110 0.000000 0.010720 
#    y 0.000000 1.750670 0.000000 
#    z 0.010720 0.000000 1.740970 
# 
# From -- ./inp_files/246301.got.cif
#   From: 2010.05.17/outbox.cif.g08.bks.cpg/sg15_124_cif.got.tgz:246301.got - 2010.06.03 18:47:42.
