data_PCOD9270837
_publ_section_title
;
Structure prediction by ZEFSAII (Michael W. Deem and Ramdas Pophale) SiO2 
 PCOD9270837
Probable space group: C 2/C
;
_chemical_formula_sum "Si O2"
_cell_formula_units_Z 56
_cell_length_a 24.407598
_cell_length_b 22.161494
_cell_length_c 18.219672
_cell_angle_alpha 90.000000
_cell_angle_beta 17.839145
_cell_angle_gamma 90.000000
_cell_volume 3019.092867
_symmetry_space_group_name_H-M "C 2/C"
_symmetry_group_IT_number 15
_symmetry_cell_setting 'monoclinic'
loop_
_space_group_symop_operation_xyz
x,y,z
-x,y,1/2-z
-x,-y,-z
x,-y,1/2+z
1/2+x,1/2+y,z
1/2-x,1/2+y,1/2-z
1/2-x,1/2-y,-z
1/2+x,1/2-y,1/2+z
loop_
_atom_site_type_symbol
_atom_site_label
_atom_site_fract_x
_atom_site_fract_y
_atom_site_fract_z
Si Si1 0.500000 0.059425 0.750000
Si Si2 0.500000 0.460257 0.750000
Si Si3 0.916074 0.900172 0.106614
Si Si4 0.407662 0.935010 0.213332
Si Si5 0.716528 0.180274 0.120254
Si Si6 0.110453 0.014347 0.258857
Si Si7 0.473996 0.074458 0.460264
Si Si8 0.478946 0.699503 0.649161
O O1 0.507739 0.091865 0.819671
O O2 0.678623 0.019698 0.520744
O O3 0.692873 0.428112 0.497244
O O4 0.485568 0.497831 0.694971
O O5 0.712592 0.904024 0.337398
O O6 0.962504 0.842578 0.097768
O O7 0.937254 0.958052 0.131443
O O8 0.041684 0.921189 0.878449
O O9 0.478135 0.004880 0.119098
O O10 0.459545 0.913441 0.066210
O O11 0.632878 0.114761 0.228427
O O12 0.562055 0.231085 0.318283
O O13 0.825993 0.184890 0.904732
O O14 0.841874 0.191083 0.031426
#
# Coordination Sequence:
#
# PCOD9270837 Si02
#       8
#     4   4   8   8   8   8   8   8
#     4  10  20  36  52  78 112 148 188 218 270 334
#     4  10  20  36  52  74 116 148 188 218 270 334
#     4  11  22  35  53  81 116 145 185 229 269 329
#     4  10  22  34  53  82 114 150 184 221 277 322
#     4  10  23  39  58  81 108 145 187 226 271 326
#     4  10  22  34  53  82 114 150 184 221 277 322
#     4  11  22  35  53  81 116 145 185 229 269 329
#     4  10  23  39  58  81 108 145 187 226 271 326
#
# _framework density 18.548618000000001
#
# number of rings (size 3 to 8) (size 9 to 14) (size 15 to 20)
#    0.000    1.714    2.857    0.857    8.000    1.714 
#    0.000    0.000    0.000    0.000    0.000    6.000 
#    0.000    0.000    0.000    0.000    0.000    0.000 
#
# Total GULP energy -155955.712307 kJ/mol
# GULP energy per Si atom -5569.846868 kJ/mol
# Density = 1.850640 g / cm^3
# Si number density = 18.548618 Si / 1000 Ang^3
#
#
#
# Elastic Constant Matrix: (Units=GPa)
#
#
# Indices 1 2 3 4 5 6 
#
# 1 128.6908 10.4596 5.5817 -0.0133 0.2532 -0.0296
# 2 10.4596 33.0936 -5.1250 0.0083 -0.6470 0.0236
# 3 5.5817 -5.1250 42.9672 -0.1172 -4.3140 -0.2151
# 4 -0.0133 0.0083 -0.1172 17.0829 0.0547 3.8131
# 5 0.2532 -0.6470 -4.3140 0.0547 26.3702 0.1013
# 6 -0.0296 0.0236 -0.2151 3.8131 0.1013 24.5943
#
#
#
# Elastic Compliance Matrix: (Units=1/GPa)
#
#
# Indices 1 2 3 4 5 6 
#
# 1 0.008058 -0.002773 -0.001415 -0.000001 -0.000377 0.000002
# 2 -0.002773 0.031790 0.004304 0.000008 0.001511 -0.000004
# 3 -0.001415 0.004304 0.024384 0.000112 0.004107 0.000173
# 4 -0.000001 0.000008 0.000112 0.060637 -0.000071 -0.009400
# 5 -0.000377 0.001511 0.004107 -0.000071 0.038635 -0.000114
# 6 0.000002 -0.000004 0.000173 -0.009400 -0.000114 0.042119
#
#
# Mechanical properties :
#
#
# Convention : Reuss Voigt Hill
#
# Bulk Modulus (GPa) = 15.51297 25.17602 20.34450
# Shear Modulus (GPa) = 22.03797 26.53184 24.28491
#
# Velocity S-wave (km/s) = 3.45065 3.78616 3.62229
# Velocity P-wave (km/s) = 4.92520 5.71977 5.33729
#
# Compressibility (1/GPa) = 0.06446217
#
# Stress axis : x y z
#
# Youngs Moduli (GPa) = 124.09855 31.45652 41.00990
#
# Poissons Ratio (x) = 0.08724 0.05805
# Poissons Ratio (y) = 0.34418 -0.17650
# Poissons Ratio (z) = 0.17566 -0.13538
#
# Static dielectric constant tensor:
#      x y z
#    x 1.728270 -0.000010 0.001880 
#    y -0.000010 1.615910 0.000020 
#    z 0.001880 0.000020 1.723400 
# 
# From -- ./inp_files/220185.got.cif
#   From: 2010.05.17/outbox.cif.g08.bks.cpg/sg15_111_cif.got.tgz:220185.got - 2010.06.03 18:47:42.
