data_PCOD9270231
_publ_section_title
;
Structure prediction by ZEFSAII (Michael W. Deem and Ramdas Pophale) SiO2 
 PCOD9270231
Probable space group: C 2/C
;
_chemical_formula_sum "Si O2"
_cell_formula_units_Z 48
_cell_length_a 15.121408
_cell_length_b 12.670768
_cell_length_c 24.902319
_cell_angle_alpha 90.000000
_cell_angle_beta 148.523330
_cell_angle_gamma 90.000000
_cell_volume 2491.330579
_symmetry_space_group_name_H-M "C 2/C"
_symmetry_group_IT_number 15
_symmetry_cell_setting 'monoclinic'
loop_
_space_group_symop_operation_xyz
x,y,z
-x,y,1/2-z
-x,-y,-z
x,-y,1/2+z
1/2+x,1/2+y,z
1/2-x,1/2+y,1/2-z
1/2-x,1/2-y,-z
1/2+x,1/2-y,1/2+z
loop_
_atom_site_type_symbol
_atom_site_label
_atom_site_fract_x
_atom_site_fract_y
_atom_site_fract_z
Si Si1 0.217629 0.701030 0.594218
Si Si2 0.187594 0.308434 0.323900
Si Si3 0.901036 0.628952 0.378730
Si Si4 0.514791 0.387307 0.535225
Si Si5 0.974730 0.800848 0.326482
Si Si6 0.294764 0.477699 0.290273
O O1 0.119541 0.811049 0.550782
O O2 0.350099 0.702343 0.614406
O O3 0.326693 0.691457 0.704908
O O4 0.066117 0.620892 0.502064
O O5 0.257222 0.200020 0.333645
O O6 0.327417 0.339169 0.441612
O O7 0.204052 0.402862 0.287821
O O8 0.000000 0.300950 0.250000
O O9 0.955501 0.700637 0.355462
O O10 0.831189 0.518886 0.320643
O O11 0.500000 0.500000 0.500000
O O12 0.376922 0.584776 0.356574
O O13 0.945704 0.905517 0.346197
#
# Coordination Sequence:
#
# PCOD9270231 Si02
#       6
#     8   8   8   8   8   8
#     4  10  20  36  58  83 117 148 184 238 284 330
#     4   9  20  36  55  82 109 145 190 229 276 331
#     4  10  20  36  58  80 115 149 182 236 283 327
#     4   9  18  35  57  82 110 146 184 234 276 323
#     4  10  21  36  56  87 116 145 192 231 285 334
#     4  10  20  35  57  81 115 146 187 234 275 337
#
# _framework density 19.266812000000002
#
# number of rings (size 3 to 8) (size 9 to 14) (size 15 to 20)
#    0.000    2.333    1.667    1.500    0.000    4.667 
#    3.000    0.833    0.000    0.000    0.000    0.000 
#    0.000    0.000    0.000    0.000    0.000    0.000 
#
# Total GULP energy -133752.335243 kJ/mol
# GULP energy per Si atom -5573.013968 kJ/mol
# Density = 1.922296 g / cm^3
# Si number density = 19.266812 Si / 1000 Ang^3
#
#
#
# Elastic Constant Matrix: (Units=GPa)
#
#
# Indices 1 2 3 4 5 6 
#
# 1 85.9951 11.5145 37.5876 0.0000 29.2660 0.0000
# 2 11.5145 33.5814 10.3239 0.0000 16.4284 0.0000
# 3 37.5876 10.3239 113.2057 0.0001 19.5475 0.0000
# 4 0.0000 0.0000 0.0001 26.0301 0.0000 -10.6800
# 5 29.2660 16.4284 19.5475 0.0000 34.7536 0.0000
# 6 0.0000 0.0000 0.0000 -10.6800 0.0000 15.0388
#
#
#
# Elastic Compliance Matrix: (Units=1/GPa)
#
#
# Indices 1 2 3 4 5 6 
#
# 1 0.017627 0.001738 -0.003662 0.000000 -0.013605 0.000000
# 2 0.001738 0.038925 -0.000772 0.000000 -0.019429 0.000000
# 3 -0.003662 -0.000772 0.010549 0.000000 -0.002485 0.000000
# 4 0.000000 0.000000 0.000000 0.054213 0.000000 0.038500
# 5 -0.013605 -0.019429 -0.002485 0.000000 0.050813 0.000000
# 6 0.000000 0.000000 0.000000 0.038500 0.000000 0.093836
#
#
# Mechanical properties :
#
#
# Convention : Reuss Voigt Hill
#
# Bulk Modulus (GPa) = 16.20522 39.07046 27.63784
# Shear Modulus (GPa) = 17.12772 26.72159 21.92465
#
# Velocity S-wave (km/s) = 2.98480 3.72818 3.37701
# Velocity P-wave (km/s) = 4.50643 6.23339 5.43889
#
# Compressibility (1/GPa) = 0.06170851
#
# Stress axis : x y z
#
# Youngs Moduli (GPa) = 56.73261 25.69044 94.79813
#
# Poissons Ratio (x) = -0.04464 0.34713
# Poissons Ratio (y) = -0.09858 0.07317
# Poissons Ratio (z) = 0.20774 0.01983
#
# Static dielectric constant tensor:
#      x y z
#    x 1.665200 0.000000 -0.074120 
#    y 0.000000 1.698550 0.000000 
#    z -0.074120 0.000000 1.767870 
# 
# From -- ./inp_files/296443.got.cif
#   From: 2010.05.17/outbox.cif.g08.bks.cpg/sg15_149_cif.got.tgz:296443.got - 2010.06.03 18:47:42.
