data_PCOD9270520
_publ_section_title
;
Structure prediction by ZEFSAII (Michael W. Deem and Ramdas Pophale) SiO2 
 PCOD9270520
Probable space group: C 2/C
;
_chemical_formula_sum "Si O2"
_cell_formula_units_Z 64
_cell_length_a 18.921182
_cell_length_b 27.375516
_cell_length_c 5.681476
_cell_angle_alpha 90.000000
_cell_angle_beta 85.827997
_cell_angle_gamma 90.000000
_cell_volume 2935.076389
_symmetry_space_group_name_H-M "C 2/C"
_symmetry_group_IT_number 15
_symmetry_cell_setting 'monoclinic'
loop_
_space_group_symop_operation_xyz
x,y,z
-x,y,1/2-z
-x,-y,-z
x,-y,1/2+z
1/2+x,1/2+y,z
1/2-x,1/2+y,1/2-z
1/2-x,1/2-y,-z
1/2+x,1/2-y,1/2+z
loop_
_atom_site_type_symbol
_atom_site_label
_atom_site_fract_x
_atom_site_fract_y
_atom_site_fract_z
Si Si1 0.730383 0.078471 0.223150
Si Si2 0.725447 0.328818 0.500446
Si Si3 0.465878 0.250726 0.506687
Si Si4 0.421438 0.970394 0.749089
Si Si5 0.325538 0.609410 0.840994
Si Si6 0.356451 0.495690 0.180729
Si Si7 0.033770 0.131061 0.489150
Si Si8 0.311388 0.756331 0.173137
O O1 0.745140 0.119989 0.412336
O O2 0.650312 0.060806 0.240101
O O3 0.787310 0.032559 0.207554
O O4 0.749499 0.107137 0.979421
O O5 0.667962 0.343124 0.318265
O O6 0.685929 0.295801 0.698278
O O7 0.786619 0.296166 0.369506
O O8 0.500000 0.234941 0.250000
O O9 0.467913 0.310042 0.507745
O O10 0.385243 0.232896 0.535332
O O11 0.500000 0.235363 0.750000
O O12 0.500000 0.946468 0.750000
O O13 0.418461 0.998627 0.496111
O O14 0.332378 0.560275 0.693504
O O15 0.385986 0.611739 0.022132
O O16 0.394904 0.499822 0.422235
O O17 0.000000 0.114651 0.250000
O O18 0.000000 0.114847 0.750000
O O19 0.250000 0.750000 0.000000
#
# Coordination Sequence:
#
# PCOD9270520 Si02
#       8
#     8   8   8   8   8   8   8   8
#     4  11  22  38  66  99 132 175 230 282 338 403
#     4  11  24  39  71 101 139 176 233 285 356 405
#     4  10  23  41  69  97 128 177 228 277 337 409
#     4  10  22  40  66  99 136 180 229 282 339 408
#     4  11  23  39  65  99 133 173 230 283 335 402
#     4  10  20  35  59  93 127 165 217 272 323 378
#     4  10  23  38  62  94 131 172 223 275 333 401
#     4  11  25  44  69 101 138 180 228 291 350 420
#
# _framework density 21.805225
#
# number of rings (size 3 to 8) (size 9 to 14) (size 15 to 20)
#    0.000    1.500    1.250    3.750   12.250    0.000 
#    0.000    0.000    5.500    9.000    0.000    0.000 
#    0.000    0.000    0.000    0.000    0.000    0.000 
#
# Total GULP energy -178522.606786 kJ/mol
# GULP energy per Si atom -5578.831462 kJ/mol
# Density = 2.175560 g / cm^3
# Si number density = 21.805225 Si / 1000 Ang^3
#
#
#
# Elastic Constant Matrix: (Units=GPa)
#
#
# Indices 1 2 3 4 5 6 
#
# 1 74.5268 7.2991 29.3841 0.0000 -7.3416 0.0000
# 2 7.2991 54.1396 18.2284 0.0000 8.9697 0.0000
# 3 29.3841 18.2284 152.8011 0.0000 -1.1307 0.0000
# 4 0.0000 0.0000 0.0000 36.2551 0.0000 -1.0781
# 5 -7.3416 8.9697 -1.1307 0.0000 35.9437 0.0000
# 6 0.0000 0.0000 0.0000 -1.0781 0.0000 22.1091
#
#
#
# Elastic Compliance Matrix: (Units=1/GPa)
#
#
# Indices 1 2 3 4 5 6 
#
# 1 0.014963 -0.001687 -0.002651 0.000000 0.003394 0.000000
# 2 -0.001687 0.020328 -0.002141 0.000000 -0.005485 0.000000
# 3 -0.002651 -0.002141 0.007311 0.000000 0.000223 0.000000
# 4 0.000000 0.000000 0.000000 0.027622 0.000000 0.001347
# 5 0.003394 -0.005485 0.000223 0.000000 0.029890 0.000000
# 6 0.000000 0.000000 0.000000 0.001347 0.000000 0.045296
#
#
# Mechanical properties :
#
#
# Convention : Reuss Voigt Hill
#
# Bulk Modulus (GPa) = 33.73416 43.47675 38.60546
# Shear Modulus (GPa) = 29.71767 33.96530 31.84149
#
# Velocity S-wave (km/s) = 3.69571 3.95101 3.82549
# Velocity P-wave (km/s) = 5.80649 6.38717 6.10374
#
# Compressibility (1/GPa) = 0.02964354
#
# Stress axis : x y z
#
# Youngs Moduli (GPa) = 66.83253 49.19370 136.77397
#
# Poissons Ratio (x) = 0.08299 0.36259
# Poissons Ratio (y) = 0.11275 0.29286
# Poissons Ratio (z) = 0.17717 0.10533
#
# Static dielectric constant tensor:
#      x y z
#    x 1.770040 0.000000 0.006270 
#    y 0.000000 1.809850 0.000000 
#    z 0.006270 0.000000 1.919660 
# 
# From -- ./inp_files/12173.got.cif
#   From: 2010.05.17/outbox.cif.g08.bks.cpg/sg15_7_cif.got.tgz:12173.got - 2010.06.03 18:47:42.
