data_PCOD9270272
_publ_section_title
;
Structure prediction by ZEFSAII (Michael W. Deem and Ramdas Pophale) SiO2 
 PCOD9270272
Probable space group: C 2/C
;
_chemical_formula_sum "Si O2"
_cell_formula_units_Z 64
_cell_length_a 12.635091
_cell_length_b 27.140051
_cell_length_c 15.423376
_cell_angle_alpha 90.000000
_cell_angle_beta 143.018058
_cell_angle_gamma 90.000000
_cell_volume 3181.630951
_symmetry_space_group_name_H-M "C 2/C"
_symmetry_group_IT_number 15
_symmetry_cell_setting 'monoclinic'
loop_
_space_group_symop_operation_xyz
x,y,z
-x,y,1/2-z
-x,-y,-z
x,-y,1/2+z
1/2+x,1/2+y,z
1/2-x,1/2+y,1/2-z
1/2-x,1/2-y,-z
1/2+x,1/2-y,1/2+z
loop_
_atom_site_type_symbol
_atom_site_label
_atom_site_fract_x
_atom_site_fract_y
_atom_site_fract_z
Si Si1 0.148237 0.340904 0.605476
Si Si2 0.124308 0.267917 0.750441
Si Si3 0.313241 0.101739 0.075852
Si Si4 0.526788 0.638415 0.417876
Si Si5 0.856150 0.698955 0.579071
Si Si6 0.567222 0.686175 0.962166
Si Si7 0.117931 0.045833 0.097116
Si Si8 0.526762 0.050107 0.071299
O O1 0.101211 0.310275 0.661980
O O2 0.362781 0.341508 0.753294
O O3 0.076984 0.314418 0.473249
O O4 0.084198 0.397721 0.564578
O O5 0.000000 0.277398 0.750000
O O6 0.081064 0.214081 0.687085
O O7 0.316743 0.271760 0.916086
O O8 0.500000 0.109351 0.250000
O O9 0.178345 0.072189 0.048383
O O10 0.366882 0.069382 0.027714
O O11 0.202944 0.152661 0.995319
O O12 0.712851 0.656573 0.506063
O O13 0.508240 0.657929 0.504309
O O14 0.488498 0.581017 0.406528
O O15 0.750000 0.750000 0.500000
O O16 0.000000 0.701968 0.750000
O O17 0.305759 0.035334 0.261700
O O18 0.000000 0.000000 0.000000
O O19 0.500000 0.000000 0.000000
#
# Coordination Sequence:
#
# PCOD9270272 Si02
#       8
#     8   8   8   8   8   8   8   8
#     4  10  22  40  61  86 121 161 201 247 297 362
#     4  11  21  34  56  86 119 154 192 232 284 347
#     4   9  18  38  60  79 114 157 190 228 287 355
#     4   9  20  39  60  83 118 158 198 245 303 359
#     4  12  25  41  62  87 118 160 205 254 306 360
#     4  10  20  35  57  85 116 156 195 232 284 354
#     4   9  19  37  62  87 115 153 197 245 297 356
#     4  10  21  38  61  87 116 153 196 245 298 351
#
# _framework density 20.115470999999999
#
# number of rings (size 3 to 8) (size 9 to 14) (size 15 to 20)
#    0.000    2.000    0.000    5.625    0.000    5.000 
#    0.000    6.875    0.000    0.000    0.000    0.000 
#    0.000    0.000    0.000    0.000    0.000    0.000 
#
# Total GULP energy -178364.490201 kJ/mol
# GULP energy per Si atom -5573.890319 kJ/mol
# Density = 2.006969 g / cm^3
# Si number density = 20.115471 Si / 1000 Ang^3
#
#
#
# Elastic Constant Matrix: (Units=GPa)
#
#
# Indices 1 2 3 4 5 6 
#
# 1 67.8435 11.1142 26.2919 0.0000 -4.9535 0.0000
# 2 11.1142 74.4106 40.0369 0.0000 2.2829 0.0000
# 3 26.2919 40.0369 74.7514 0.0000 -12.6160 0.0000
# 4 0.0000 0.0000 0.0000 31.6359 0.0000 -1.2098
# 5 -4.9535 2.2829 -12.6160 0.0000 23.7670 0.0000
# 6 0.0000 0.0000 0.0000 -1.2098 0.0000 17.9824
#
#
#
# Elastic Compliance Matrix: (Units=1/GPa)
#
#
# Indices 1 2 3 4 5 6 
#
# 1 0.017115 0.000958 -0.006531 0.000000 0.000008 0.000000
# 2 0.000958 0.020383 -0.012687 0.000000 -0.008493 0.000000
# 3 -0.006531 -0.012687 0.024655 0.000000 0.012945 0.000000
# 4 0.000000 0.000000 0.000000 0.031691 0.000000 0.002132
# 5 0.000008 -0.008493 0.012945 0.000000 0.049764 0.000000
# 6 0.000000 0.000000 0.000000 0.002132 0.000000 0.055753
#
#
# Mechanical properties :
#
#
# Convention : Reuss Voigt Hill
#
# Bulk Modulus (GPa) = 39.01568 41.32126 40.16847
# Shear Modulus (GPa) = 20.45608 23.98122 22.21865
#
# Velocity S-wave (km/s) = 3.19240 3.45654 3.32709
# Velocity P-wave (km/s) = 5.74687 6.04292 5.89675
#
# Compressibility (1/GPa) = 0.02563072
#
# Stress axis : x y z
#
# Youngs Moduli (GPa) = 58.42970 49.06072 40.56001
#
# Poissons Ratio (x) = -0.04698 0.26490
# Poissons Ratio (y) = -0.05595 0.51460
# Poissons Ratio (z) = 0.38161 0.62245
#
# Static dielectric constant tensor:
#      x y z
#    x 1.773610 0.000000 -0.021130 
#    y 0.000000 1.747380 0.000000 
#    z -0.021130 0.000000 1.705110 
# 
# From -- ./inp_files/148776.got.cif
#   From: 2010.05.17/outbox.cif.g08.bks.cpg/sg15_75_cif.got.tgz:148776.got - 2010.06.03 18:47:42.
