data_PCOD9270584
_publ_section_title
;
Structure prediction by ZEFSAII (Michael W. Deem and Ramdas Pophale) SiO2 
 PCOD9270584
Probable space group: C 2/C
;
_chemical_formula_sum "Si O2"
_cell_formula_units_Z 52
_cell_length_a 7.407989
_cell_length_b 31.429727
_cell_length_c 15.934513
_cell_angle_alpha 90.000000
_cell_angle_beta 142.533999
_cell_angle_gamma 90.000000
_cell_volume 2256.788199
_symmetry_space_group_name_H-M "C 2/C"
_symmetry_group_IT_number 15
_symmetry_cell_setting 'monoclinic'
loop_
_space_group_symop_operation_xyz
x,y,z
-x,y,1/2-z
-x,-y,-z
x,-y,1/2+z
1/2+x,1/2+y,z
1/2-x,1/2+y,1/2-z
1/2-x,1/2-y,-z
1/2+x,1/2-y,1/2+z
loop_
_atom_site_type_symbol
_atom_site_label
_atom_site_fract_x
_atom_site_fract_y
_atom_site_fract_z
Si Si1 0.154727 0.449788 0.715348
Si Si2 0.869572 0.002423 0.547210
Si Si3 0.500000 0.204261 0.250000
Si Si4 0.642247 0.137228 0.441511
Si Si5 0.343453 0.154425 0.870928
Si Si6 0.483801 0.237325 0.841596
Si Si7 0.720474 0.584876 0.707270
O O1 0.499852 0.461437 0.856542
O O2 0.000000 0.453942 0.750000
O O3 0.970822 0.483175 0.589140
O O4 0.076868 0.401942 0.659934
O O5 0.044493 0.041500 0.653836
O O6 0.000000 0.000000 0.500000
O O7 0.651548 0.172450 0.372905
O O8 0.286570 0.235519 0.221717
O O9 0.537624 0.157126 0.491304
O O10 0.969524 0.116653 0.576545
O O11 0.470845 0.186562 0.850632
O O12 0.343399 0.106547 0.836638
O O13 0.000000 0.167152 0.750000
O O14 0.500000 0.246764 0.750000
O O15 0.750000 0.250000 0.000000
O O16 0.000000 0.578213 0.750000
#
# Coordination Sequence:
#
# PCOD9270584 Si02
#       7
#     8   8   4   8   8   8   8
#     4   9  16  32  54  89 121 166 221 265 334 398
#     4   9  17  30  55  86 123 161 216 275 327 394
#     4  12  26  46  68 100 142 174 226 286 352 396
#     4  10  22  39  63  90 129 176 214 272 343 406
#     4  10  22  41  63  90 129 171 216 270 337 404
#     4  12  28  46  73 104 134 178 227 283 344 420
#     4  10  20  35  60  92 122 167 220 270 327 399
#
# _framework density 23.041595000000001
#
# number of rings (size 3 to 8) (size 9 to 14) (size 15 to 20)
#    0.000    1.846    1.538    2.769    6.462    1.231 
#    0.000    0.769    0.000    3.692    0.000    0.000 
#    0.000    0.000    0.000    0.000    0.000    0.000 
#
# Total GULP energy -145273.739060 kJ/mol
# GULP energy per Si atom -5587.451502 kJ/mol
# Density = 2.298915 g / cm^3
# Si number density = 23.041595 Si / 1000 Ang^3
#
#
#
# Elastic Constant Matrix: (Units=GPa)
#
#
# Indices 1 2 3 4 5 6 
#
# 1 71.9393 19.1252 46.4535 0.0000 -14.2579 0.0000
# 2 19.1252 84.3919 46.4735 0.0000 -9.2266 0.0000
# 3 46.4535 46.4735 107.8070 0.0000 -24.5168 0.0000
# 4 0.0000 0.0000 0.0000 28.3464 0.0000 -7.4781
# 5 -14.2579 -9.2266 -24.5168 0.0000 33.7137 0.0000
# 6 0.0000 0.0000 0.0000 -7.4781 0.0000 14.2827
#
#
#
# Elastic Compliance Matrix: (Units=1/GPa)
#
#
# Indices 1 2 3 4 5 6 
#
# 1 0.019444 0.000219 -0.007895 0.000000 0.002542 0.000000
# 2 0.000219 0.015556 -0.006962 0.000000 -0.000713 0.000000
# 3 -0.007895 -0.006962 0.017357 0.000000 0.007378 0.000000
# 4 0.000000 0.000000 0.000000 0.040932 0.000000 0.021431
# 5 0.002542 -0.000713 0.007378 0.000000 0.035906 0.000000
# 6 0.000000 0.000000 0.000000 0.021431 0.000000 0.081236
#
#
# Mechanical properties :
#
#
# Convention : Reuss Voigt Hill
#
# Bulk Modulus (GPa) = 43.32657 54.24919 48.78788
# Shear Modulus (GPa) = 20.21018 25.40764 22.80891
#
# Velocity S-wave (km/s) = 2.96483 3.32427 3.14968
# Velocity P-wave (km/s) = 5.52854 6.19108 5.86917
#
# Compressibility (1/GPa) = 0.02308052
#
# Stress axis : x y z
#
# Youngs Moduli (GPa) = 51.42968 64.28388 57.61444
#
# Poissons Ratio (x) = -0.01407 0.45484
# Poissons Ratio (y) = -0.01126 0.40114
# Poissons Ratio (z) = 0.40602 0.44757
#
# Static dielectric constant tensor:
#      x y z
#    x 1.873470 0.000000 0.017190 
#    y 0.000000 1.930440 0.000000 
#    z 0.017190 0.000000 1.919290 
# 
# From -- ./inp_files/139877.got.cif
#   From: 2010.05.17/outbox.cif.g08.bks.cpg/sg15_70_cif.got.tgz:139877.got - 2010.06.03 18:47:42.
