data_PCOD9270171
_publ_section_title
;
Structure prediction by ZEFSAII (Michael W. Deem and Ramdas Pophale) SiO2 
 PCOD9270171
Probable space group: C 2/C
;
_chemical_formula_sum "Si O2"
_cell_formula_units_Z 60
_cell_length_a 26.177179
_cell_length_b 21.687896
_cell_length_c 13.884510
_cell_angle_alpha 90.000000
_cell_angle_beta 157.187863
_cell_angle_gamma 90.000000
_cell_volume 3056.178981
_symmetry_space_group_name_H-M "C 2/C"
_symmetry_group_IT_number 15
_symmetry_cell_setting 'monoclinic'
loop_
_space_group_symop_operation_xyz
x,y,z
-x,y,1/2-z
-x,-y,-z
x,-y,1/2+z
1/2+x,1/2+y,z
1/2-x,1/2+y,1/2-z
1/2-x,1/2-y,-z
1/2+x,1/2-y,1/2+z
loop_
_atom_site_type_symbol
_atom_site_label
_atom_site_fract_x
_atom_site_fract_y
_atom_site_fract_z
Si Si1 0.473356 0.862591 0.593893
Si Si2 0.360976 0.434420 0.046809
Si Si3 0.121441 0.744622 0.710066
Si Si4 0.000000 0.405807 0.250000
Si Si5 0.163439 0.750438 0.205833
Si Si6 0.739843 0.665928 0.283769
Si Si7 0.904636 0.497289 0.426433
Si Si8 0.736149 0.650498 0.969041
O O1 0.500000 0.840663 0.750000
O O2 0.395648 0.812553 0.394282
O O3 0.616130 0.873055 0.792423
O O4 0.408089 0.929692 0.479582
O O5 0.317713 0.383072 0.892129
O O6 0.245873 0.484386 0.855267
O O7 0.357366 0.398959 0.142920
O O8 0.500000 0.458335 0.250000
O O9 0.129358 0.808146 0.662922
O O10 0.990807 0.739958 0.546976
O O11 0.250000 0.750000 0.000000
O O12 0.127979 0.365413 0.444542
O O13 0.041539 0.450092 0.408856
O O14 0.209204 0.727189 0.182606
O O15 0.243985 0.705432 0.418544
O O16 0.191086 0.818949 0.291126
O O17 0.000000 0.500000 0.500000
#
# Coordination Sequence:
#
# PCOD9270171 Si02
#       8
#     8   8   8   4   8   8   8   8
#     4  11  22  39  63  89 119 162 215 260 310 370
#     4  10  20  35  60  87 119 155 199 260 315 369
#     4  11  23  35  57  89 126 161 196 250 322 383
#     4  10  22  38  64  88 116 154 220 254 306 372
#     4   9  18  32  53  84 120 156 195 244 301 373
#     4  10  20  35  56  84 120 156 197 252 304 368
#     4  11  22  39  65  89 114 161 217 270 304 366
#     4   9  17  32  56  86 115 153 204 249 301 364
#
# _framework density 19.632359000000001
#
# number of rings (size 3 to 8) (size 9 to 14) (size 15 to 20)
#    0.000    1.867    2.000    2.400    3.733    2.667 
#    0.000    0.000    7.333    4.000    0.000    0.000 
#    0.000    0.000    0.000    0.000    0.000    0.000 
#
# Total GULP energy -167284.651158 kJ/mol
# GULP energy per Si atom -5576.155039 kJ/mol
# Density = 1.958767 g / cm^3
# Si number density = 19.632359 Si / 1000 Ang^3
#
#
#
# Elastic Constant Matrix: (Units=GPa)
#
#
# Indices 1 2 3 4 5 6 
#
# 1 59.9666 17.2109 29.4327 0.0000 12.1591 0.0000
# 2 17.2109 60.1817 36.7514 0.0000 -2.0737 0.0000
# 3 29.4327 36.7514 86.2562 0.0000 3.4610 0.0000
# 4 0.0000 0.0000 0.0000 33.2948 0.0000 3.0294
# 5 12.1591 -2.0737 3.4610 0.0000 29.9213 0.0000
# 6 0.0000 0.0000 0.0000 3.0294 0.0000 21.5133
#
#
#
# Elastic Compliance Matrix: (Units=1/GPa)
#
#
# Indices 1 2 3 4 5 6 
#
# 1 0.022190 -0.003008 -0.005947 0.000000 -0.008538 0.000000
# 2 -0.003008 0.023083 -0.008964 0.000000 0.003859 0.000000
# 3 -0.005947 -0.008964 0.017451 0.000000 -0.000223 0.000000
# 4 0.000000 0.000000 0.000000 0.030425 0.000000 -0.004284
# 5 -0.008538 0.003859 -0.000223 0.000000 0.037184 0.000000
# 6 0.000000 0.000000 0.000000 -0.004284 0.000000 0.047086
#
#
# Mechanical properties :
#
#
# Convention : Reuss Voigt Hill
#
# Bulk Modulus (GPa) = 37.19454 41.46603 39.33028
# Shear Modulus (GPa) = 22.50040 25.14651 23.82345
#
# Velocity S-wave (km/s) = 3.38906 3.58281 3.48728
# Velocity P-wave (km/s) = 5.85671 6.18728 6.02426
#
# Compressibility (1/GPa) = 0.02688567
#
# Stress axis : x y z
#
# Youngs Moduli (GPa) = 45.06635 43.32113 57.30385
#
# Poissons Ratio (x) = 0.13031 0.34081
# Poissons Ratio (y) = 0.13556 0.51365
# Poissons Ratio (z) = 0.26803 0.38831
#
# Static dielectric constant tensor:
#      x y z
#    x 2.890670 0.000000 0.126120 
#    y 0.000000 1.700430 0.000000 
#    z 0.126120 0.000000 1.721380 
# 
# From -- ./inp_files/179284.got.cif
#   From: 2010.05.17/outbox.cif.g08.bks.cpg/sg15_90_cif.got.tgz:179284.got - 2010.06.03 18:47:42.
