data_PCOD9270396
_publ_section_title
;
Structure prediction by ZEFSAII (Michael W. Deem and Ramdas Pophale) SiO2 
 PCOD9270396
Probable space group: C 2/C
;
_chemical_formula_sum "Si O2"
_cell_formula_units_Z 44
_cell_length_a 27.030937
_cell_length_b 16.429978
_cell_length_c 15.057549
_cell_angle_alpha 90.000000
_cell_angle_beta 19.204046
_cell_angle_gamma 90.000000
_cell_volume 2199.683790
_symmetry_space_group_name_H-M "C 2/C"
_symmetry_group_IT_number 15
_symmetry_cell_setting 'monoclinic'
loop_
_space_group_symop_operation_xyz
x,y,z
-x,y,1/2-z
-x,-y,-z
x,-y,1/2+z
1/2+x,1/2+y,z
1/2-x,1/2+y,1/2-z
1/2-x,1/2-y,-z
1/2+x,1/2-y,1/2+z
loop_
_atom_site_type_symbol
_atom_site_label
_atom_site_fract_x
_atom_site_fract_y
_atom_site_fract_z
Si Si1 0.590643 0.849593 0.515896
Si Si2 0.828487 0.025983 0.653794
Si Si3 0.267553 0.277007 0.071953
Si Si4 0.662239 0.461930 0.563356
Si Si5 0.401816 0.985291 0.304600
Si Si6 0.000000 0.348335 0.250000
O O1 0.500000 0.809308 0.750000
O O2 0.751685 0.883600 0.278878
O O3 0.618213 0.796443 0.382190
O O4 0.497292 0.932002 0.650591
O O5 0.821581 0.999818 0.561931
O O6 0.004341 0.016716 0.376829
O O7 0.725118 0.983928 0.902417
O O8 0.250000 0.250000 0.000000
O O9 0.348097 0.364612 0.932021
O O10 0.360120 0.210431 0.969444
O O11 0.809803 0.479514 0.370345
O O12 0.502522 0.907734 0.159783
#
# Coordination Sequence:
#
# PCOD9270396 Si02
#       6
#     8   8   8   8   8   4
#     4   9  19  37  61  84 117 163 203 247 306 360
#     4   9  18  34  56  88 115 154 200 255 300 355
#     4  11  22  36  59  89 121 163 197 251 312 368
#     4  10  20  35  58  87 122 158 202 249 313 363
#     4  11  20  36  62  90 116 162 208 259 295 364
#     4  12  22  38  58  90 126 154 212 260 296 362
#
# _framework density 20.002875
#
# number of rings (size 3 to 8) (size 9 to 14) (size 15 to 20)
#    0.000    1.818    4.545    2.727    0.000    4.364 
#    0.000    0.000    4.000    9.818    0.000    0.000 
#    0.000    0.000    0.000    0.000    0.000    0.000 
#
# Total GULP energy -122550.750340 kJ/mol
# GULP energy per Si atom -5570.488652 kJ/mol
# Density = 1.995735 g / cm^3
# Si number density = 20.002875 Si / 1000 Ang^3
#
#
#
# Elastic Constant Matrix: (Units=GPa)
#
#
# Indices 1 2 3 4 5 6 
#
# 1 112.0050 33.8884 36.9724 -0.0021 -3.7175 0.0017
# 2 33.8884 68.7703 25.8895 -0.0024 2.5327 0.0024
# 3 36.9724 25.8895 110.3981 -0.0016 18.0391 0.0014
# 4 -0.0021 -0.0024 -0.0016 22.0304 0.0005 3.2328
# 5 -3.7175 2.5327 18.0391 0.0005 38.0294 -0.0003
# 6 0.0017 0.0024 0.0014 3.2328 -0.0003 21.4771
#
#
#
# Elastic Compliance Matrix: (Units=1/GPa)
#
#
# Indices 1 2 3 4 5 6 
#
# 1 0.011477 -0.004536 -0.003266 0.000000 0.002973 0.000000
# 2 -0.004536 0.017763 -0.002581 0.000002 -0.000402 -0.000002
# 3 -0.003266 -0.002581 0.011687 0.000000 -0.005691 0.000000
# 4 0.000000 0.000002 0.000000 0.046417 -0.000001 -0.006987
# 5 0.002973 -0.000402 -0.005691 -0.000001 0.029312 0.000001
# 6 0.000000 -0.000002 0.000000 -0.006987 0.000001 0.047613
#
#
# Mechanical properties :
#
#
# Convention : Reuss Voigt Hill
#
# Bulk Modulus (GPa) = 49.59798 53.85265 51.72531
# Shear Modulus (GPa) = 26.07497 29.26892 27.67195
#
# Velocity S-wave (km/s) = 3.61440 3.82938 3.72344
# Velocity P-wave (km/s) = 6.50137 6.82151 6.66336
#
# Compressibility (1/GPa) = 0.02016211
#
# Stress axis : x y z
#
# Youngs Moduli (GPa) = 87.12895 56.29796 85.56499
#
# Poissons Ratio (x) = 0.25535 0.27944
# Poissons Ratio (y) = 0.39519 0.22083
# Poissons Ratio (z) = 0.28455 0.14529
#
# Static dielectric constant tensor:
#      x y z
#    x 1.755160 0.000000 0.004220 
#    y 0.000000 1.714420 0.000000 
#    z 0.004220 0.000000 1.776900 
# 
# From -- ./inp_files/178763.got.cif
#   From: 2010.05.17/outbox.cif.g08.bks.cpg/sg15_90_cif.got.tgz:178763.got - 2010.06.03 18:47:42.
