data_PCOD9270466
_publ_section_title
;
Structure prediction by ZEFSAII (Michael W. Deem and Ramdas Pophale) SiO2 
 PCOD9270466
Probable space group: C 2/C
;
_chemical_formula_sum "Si O2"
_cell_formula_units_Z 48
_cell_length_a 17.398350
_cell_length_b 29.188166
_cell_length_c 9.775354
_cell_angle_alpha 90.000000
_cell_angle_beta 28.257704
_cell_angle_gamma 90.000000
_cell_volume 2350.231140
_symmetry_space_group_name_H-M "C 2/C"
_symmetry_group_IT_number 15
_symmetry_cell_setting 'monoclinic'
loop_
_space_group_symop_operation_xyz
x,y,z
-x,y,1/2-z
-x,-y,-z
x,-y,1/2+z
1/2+x,1/2+y,z
1/2-x,1/2+y,1/2-z
1/2-x,1/2-y,-z
1/2+x,1/2-y,1/2+z
loop_
_atom_site_type_symbol
_atom_site_label
_atom_site_fract_x
_atom_site_fract_y
_atom_site_fract_z
Si Si1 0.214768 0.881489 0.059766
Si Si2 0.688416 0.230811 0.453682
Si Si3 0.325029 0.368883 0.684273
Si Si4 0.702405 0.463746 0.276827
Si Si5 0.813660 0.284260 0.014052
Si Si6 0.807817 0.048451 0.394500
O O1 0.261409 0.923522 0.083695
O O2 0.293432 0.835517 0.993881
O O3 0.019656 0.874696 0.374274
O O4 0.246675 0.886550 0.847949
O O5 0.500000 0.218571 0.750000
O O6 0.750000 0.250000 0.500000
O O7 0.783423 0.184483 0.265445
O O8 0.715275 0.271407 0.303374
O O9 0.269220 0.401172 0.896537
O O10 0.745821 0.511113 0.133843
O O11 0.754208 0.459842 0.354033
O O12 0.504804 0.458235 0.590241
O O13 0.750000 0.250000 0.000000
O O14 0.000000 0.274134 0.750000
#
# Coordination Sequence:
#
# PCOD9270466 Si02
#       6
#     8   8   8   8   8   8
#     4  10  20  35  59  85 115 158 205 249 296 358
#     4  12  26  41  61  90 124 160 203 257 309 360
#     4  10  20  36  57  84 119 158 201 249 301 356
#     4   9  17  30  51  83 118 156 199 246 297 352
#     4  12  24  43  65  88 120 164 209 251 302 370
#     4   9  17  30  51  82 120 156 197 247 297 353
#
# _framework density 20.423524
#
# number of rings (size 3 to 8) (size 9 to 14) (size 15 to 20)
#    0.000    1.667    1.667    4.000    2.333    4.000 
#    0.000    0.000    0.000    1.000    0.000    4.667 
#    0.000    0.000    0.000    0.000    0.000    0.000 
#
# Total GULP energy -134065.386167 kJ/mol
# GULP energy per Si atom -5586.057757 kJ/mol
# Density = 2.037704 g / cm^3
# Si number density = 20.423524 Si / 1000 Ang^3
#
#
#
# Elastic Constant Matrix: (Units=GPa)
#
#
# Indices 1 2 3 4 5 6 
#
# 1 117.2679 32.6453 28.6634 0.0004 39.3201 0.0000
# 2 32.6453 68.4456 0.2658 -0.0001 5.0700 0.0000
# 3 28.6634 0.2658 21.0813 0.0029 21.4844 -0.0002
# 4 0.0004 -0.0001 0.0029 22.3123 -0.0015 11.5706
# 5 39.3201 5.0700 21.4844 -0.0015 32.6986 0.0002
# 6 0.0000 0.0000 -0.0002 11.5706 0.0002 45.7151
#
#
#
# Elastic Compliance Matrix: (Units=1/GPa)
#
#
# Indices 1 2 3 4 5 6 
#
# 1 0.017486 -0.007329 -0.010327 0.000000 -0.013106 0.000000
# 2 -0.007329 0.018153 0.010965 -0.000001 -0.001206 0.000000
# 3 -0.010327 0.010965 0.152592 -0.000030 -0.089542 0.000009
# 4 0.000000 -0.000001 -0.000030 0.051590 0.000022 -0.013057
# 5 -0.013106 -0.001206 -0.089542 0.000022 0.105362 -0.000007
# 6 0.000000 0.000000 0.000009 -0.013057 -0.000007 0.025179
#
#
# Mechanical properties :
#
#
# Convention : Reuss Voigt Hill
#
# Bulk Modulus (GPa) = 5.71919 36.66042 21.18980
# Shear Modulus (GPa) = 11.31154 29.82655 20.56905
#
# Velocity S-wave (km/s) = 2.35595 3.82567 3.17697
# Velocity P-wave (km/s) = 3.19485 6.12400 4.88418
#
# Compressibility (1/GPa) = 0.17484986
#
# Stress axis : x y z
#
# Youngs Moduli (GPa) = 57.18758 55.08863 6.55342
#
# Poissons Ratio (x) = 0.40376 0.06767
# Poissons Ratio (y) = 0.41914 -0.07186
# Poissons Ratio (z) = 0.59055 -0.60406
#
# Static dielectric constant tensor:
#      x y z
#    x 1.685870 0.000000 -0.008110 
#    y 0.000000 1.698130 0.000000 
#    z -0.008110 0.000000 1.752650 
# 
# From -- ./inp_files/52724.got.cif
#   From: 2010.05.17/outbox.cif.g08.bks.cpg/sg15_27_cif.got.tgz:52724.got - 2010.06.03 18:47:42.
