data_PCOD9270434
_publ_section_title
;
Structure prediction by ZEFSAII (Michael W. Deem and Ramdas Pophale) SiO2 
 PCOD9270434
Probable space group: C 2/C
;
_chemical_formula_sum "Si O2"
_cell_formula_units_Z 64
_cell_length_a 25.564464
_cell_length_b 16.728199
_cell_length_c 15.021331
_cell_angle_alpha 90.000000
_cell_angle_beta 28.062404
_cell_angle_gamma 90.000000
_cell_volume 3021.983076
_symmetry_space_group_name_H-M "C 2/C"
_symmetry_group_IT_number 15
_symmetry_cell_setting 'monoclinic'
loop_
_space_group_symop_operation_xyz
x,y,z
-x,y,1/2-z
-x,-y,-z
x,-y,1/2+z
1/2+x,1/2+y,z
1/2-x,1/2+y,1/2-z
1/2-x,1/2-y,-z
1/2+x,1/2-y,1/2+z
loop_
_atom_site_type_symbol
_atom_site_label
_atom_site_fract_x
_atom_site_fract_y
_atom_site_fract_z
Si Si1 0.957807 0.128517 0.560189
Si Si2 0.576061 0.084463 0.349442
Si Si3 0.589942 0.343551 0.037152
Si Si4 0.649986 0.063004 0.861302
Si Si5 0.383194 0.003670 0.900519
Si Si6 0.371254 0.517074 0.462257
Si Si7 0.150728 0.032649 0.203368
Si Si8 0.219860 0.259630 0.650861
O O1 0.858390 0.189817 0.694155
O O2 0.024935 0.164626 0.543277
O O3 0.057642 0.101767 0.344810
O O4 0.898553 0.044106 0.671960
O O5 0.447909 0.115154 0.535193
O O6 0.599544 0.043242 0.218114
O O7 0.651752 0.159140 0.252272
O O8 0.607942 0.021238 0.378991
O O9 0.500000 0.344385 0.250000
O O10 0.633643 0.435645 0.973163
O O11 0.677650 0.277747 0.936973
O O12 0.778354 0.075300 0.642642
O O13 0.638117 0.056424 0.985068
O O14 0.500000 0.045301 0.750000
O O15 0.271251 0.055381 0.060492
O O16 0.500000 0.539548 0.250000
O O17 0.329803 0.501004 0.425098
O O18 0.250000 0.250000 0.500000
#
# Coordination Sequence:
#
# PCOD9270434 Si02
#       8
#     8   8   8   8   8   8   8   8
#     4  11  24  38  57  90 123 175 199 260 314 371
#     4  10  21  38  59  90 126 162 206 261 316 383
#     4  11  19  37  57  84 122 166 206 238 328 380
#     4  10  20  36  58  87 125 162 207 258 318 360
#     4  10  20  35  58  94 125 155 209 264 313 371
#     4  11  19  35  61  88 117 164 204 258 309 360
#     4  11  21  38  60  88 130 152 225 259 295 383
#     4  12  22  39  60  85 130 166 198 252 328 388
#
# _framework density 21.178148
#
# number of rings (size 3 to 8) (size 9 to 14) (size 15 to 20)
#    0.000    1.250    6.250    1.500    1.750    0.000 
#   11.250    0.000    0.000    0.750    0.000    0.000 
#    0.000    0.000    0.000    0.000    0.000    0.000 
#
# Total GULP energy -178392.091245 kJ/mol
# GULP energy per Si atom -5574.752851 kJ/mol
# Density = 2.112995 g / cm^3
# Si number density = 21.178148 Si / 1000 Ang^3
#
#
#
# Elastic Constant Matrix: (Units=GPa)
#
#
# Indices 1 2 3 4 5 6 
#
# 1 80.7589 17.5572 29.1198 0.0000 -23.1077 0.0000
# 2 17.5572 40.6946 11.2271 0.0000 -1.7455 0.0000
# 3 29.1198 11.2271 112.5459 0.0000 -28.5597 0.0000
# 4 0.0000 0.0000 0.0000 73.8389 0.0000 23.7990
# 5 -23.1077 -1.7455 -28.5597 0.0000 37.2874 0.0000
# 6 0.0000 0.0000 0.0000 23.7990 0.0000 39.4411
#
#
#
# Elastic Compliance Matrix: (Units=1/GPa)
#
#
# Indices 1 2 3 4 5 6 
#
# 1 0.016911 -0.006515 -0.001419 0.000000 0.009088 0.000000
# 2 -0.006515 0.027804 -0.002212 0.000000 -0.004430 0.000000
# 3 -0.001419 -0.002212 0.011449 0.000000 0.007786 0.000000
# 4 0.000000 0.000000 0.000000 0.016813 0.000000 -0.010145
# 5 0.009088 -0.004430 0.007786 0.000000 0.038207 0.000000
# 6 0.000000 0.000000 0.000000 -0.010145 0.000000 0.031476
#
#
# Mechanical properties :
#
#
# Convention : Reuss Voigt Hill
#
# Bulk Modulus (GPa) = 27.87722 38.86749 33.37235
# Shear Modulus (GPa) = 28.58619 41.85317 35.21968
#
# Velocity S-wave (km/s) = 3.67794 4.45032 4.08244
# Velocity P-wave (km/s) = 5.58821 6.69325 6.16554
#
# Compressibility (1/GPa) = 0.03587158
#
# Stress axis : x y z
#
# Youngs Moduli (GPa) = 59.13306 35.96568 87.34401
#
# Poissons Ratio (x) = 0.23430 0.12398
# Poissons Ratio (y) = 0.38523 0.19322
# Poissons Ratio (z) = 0.08394 0.07956
#
# Static dielectric constant tensor:
#      x y z
#    x 1.838520 0.000000 -0.049800 
#    y 0.000000 1.778030 0.000000 
#    z -0.049800 0.000000 1.859980 
# 
# From -- ./inp_files/174234.got.cif
#   From: 2010.05.17/outbox.cif.g08.bks.cpg/sg15_88_cif.got.tgz:174234.got - 2010.06.03 18:47:42.
