data_PCOD9270369
_publ_section_title
;
Structure prediction by ZEFSAII (Michael W. Deem and Ramdas Pophale) SiO2 
 PCOD9270369
Probable space group: C 2/C
;
_chemical_formula_sum "Si O2"
_cell_formula_units_Z 56
_cell_length_a 21.474535
_cell_length_b 6.409398
_cell_length_c 27.985912
_cell_angle_alpha 90.000000
_cell_angle_beta 130.201421
_cell_angle_gamma 90.000000
_cell_volume 2942.041312
_symmetry_space_group_name_H-M "C 2/C"
_symmetry_group_IT_number 15
_symmetry_cell_setting 'monoclinic'
loop_
_space_group_symop_operation_xyz
x,y,z
-x,y,1/2-z
-x,-y,-z
x,-y,1/2+z
1/2+x,1/2+y,z
1/2-x,1/2+y,1/2-z
1/2-x,1/2-y,-z
1/2+x,1/2-y,1/2+z
loop_
_atom_site_type_symbol
_atom_site_label
_atom_site_fract_x
_atom_site_fract_y
_atom_site_fract_z
Si Si1 0.923772 0.172657 0.369134
Si Si2 0.708981 0.776011 0.553276
Si Si3 0.494183 0.296445 0.131551
Si Si4 0.042293 0.505338 0.970332
Si Si5 0.814346 0.938363 0.040432
Si Si6 0.848396 0.432049 0.786481
Si Si7 0.795190 0.104693 0.843423
O O1 0.863823 0.344017 0.317991
O O2 0.001641 0.295420 0.425543
O O3 0.874893 0.042975 0.384646
O O4 0.957015 0.011449 0.347001
O O5 0.637052 0.947424 0.519379
O O6 0.683147 0.579168 0.506914
O O7 0.722879 0.702730 0.614286
O O8 0.782843 0.896361 0.564269
O O9 0.401218 0.341949 0.099935
O O10 0.481037 0.195082 0.072375
O O11 0.562353 0.143322 0.188036
O O12 0.000000 0.500000 0.000000
O O13 0.750000 0.750000 0.000000
O O14 0.817626 0.275185 0.813202
O O15 0.780129 0.467293 0.712949
#
# Coordination Sequence:
#
# PCOD9270369 Si02
#       7
#     8   8   8   8   8   8   8
#     4  10  20  35  58  85 131 158 191 253 312 372
#     4  11  24  37  63  95 125 163 208 258 306 376
#     4  10  21  37  61  85 118 171 200 255 305 360
#     4  11  21  34  56  97 126 150 199 248 325 386
#     4  11  23  43  62  88 125 169 212 253 306 363
#     4  10  21  38  62  92 124 164 205 250 316 378
#     4  11  22  39  60  95 126 162 204 256 317 372
#
# _framework density 19.034403000000001
#
# number of rings (size 3 to 8) (size 9 to 14) (size 15 to 20)
#    0.000    1.429    4.286    2.571    2.000    2.286 
#    0.000    0.000    0.000    5.143    0.000    0.000 
#    0.000    0.000    0.000    0.000    0.000    0.000 
#
# Total GULP energy -156046.329337 kJ/mol
# GULP energy per Si atom -5573.083191 kJ/mol
# Density = 1.899108 g / cm^3
# Si number density = 19.034403 Si / 1000 Ang^3
#
#
#
# Elastic Constant Matrix: (Units=GPa)
#
#
# Indices 1 2 3 4 5 6 
#
# 1 84.6379 18.1262 39.5146 0.0000 21.0849 0.0001
# 2 18.1262 68.1891 8.8960 0.0000 10.3016 0.0001
# 3 39.5146 8.8960 62.7605 0.0000 13.0425 -0.0001
# 4 0.0000 0.0000 0.0000 24.7813 0.0000 8.8831
# 5 21.0849 10.3016 13.0425 0.0000 26.1134 0.0000
# 6 0.0001 0.0001 -0.0001 8.8831 0.0000 27.9837
#
#
#
# Elastic Compliance Matrix: (Units=1/GPa)
#
#
# Indices 1 2 3 4 5 6 
#
# 1 0.019340 -0.002385 -0.009807 0.000000 -0.009777 0.000000
# 2 -0.002385 0.015950 0.000165 0.000000 -0.004449 0.000000
# 3 -0.009807 0.000165 0.022821 0.000000 -0.003545 0.000000
# 4 0.000000 0.000000 0.000000 0.045534 0.000000 -0.014454
# 5 -0.009777 -0.004449 -0.003545 0.000000 0.049715 0.000000
# 6 0.000000 0.000000 0.000000 -0.014454 0.000000 0.040324
#
#
# Mechanical properties :
#
#
# Convention : Reuss Voigt Hill
#
# Bulk Modulus (GPa) = 29.36132 38.74012 34.05072
# Shear Modulus (GPa) = 21.82565 25.71237 23.76901
#
# Velocity S-wave (km/s) = 3.38988 3.67936 3.53758
# Velocity P-wave (km/s) = 5.54803 6.20057 5.88336
#
# Compressibility (1/GPa) = 0.03405842
#
# Stress axis : x y z
#
# Youngs Moduli (GPa) = 51.70696 62.69765 43.81871
#
# Poissons Ratio (x) = 0.14950 0.42972
# Poissons Ratio (y) = 0.12330 -0.00724
# Poissons Ratio (z) = 0.50707 -0.01035
#
# Static dielectric constant tensor:
#      x y z
#    x 1.673070 0.000000 0.024910 
#    y 0.000000 1.671340 0.000000 
#    z 0.024910 0.000000 1.659180 
# 
# From -- ./inp_files/315131.got.cif
#   From: 2010.05.17/outbox.cif.g08.bks.cpg/sg15_158_cif.got.tgz:315131.got - 2010.06.03 18:47:42.
