data_PCOD9270143
_publ_section_title
;
Structure prediction by ZEFSAII (Michael W. Deem and Ramdas Pophale) SiO2 
 PCOD9270143
Probable space group: C 2/C
;
_chemical_formula_sum "Si O2"
_cell_formula_units_Z 64
_cell_length_a 20.173140
_cell_length_b 17.071335
_cell_length_c 11.162364
_cell_angle_alpha 90.000000
_cell_angle_beta 125.132429
_cell_angle_gamma 90.000000
_cell_volume 3143.815800
_symmetry_space_group_name_H-M "C 2/C"
_symmetry_group_IT_number 15
_symmetry_cell_setting 'monoclinic'
loop_
_space_group_symop_operation_xyz
x,y,z
-x,y,1/2-z
-x,-y,-z
x,-y,1/2+z
1/2+x,1/2+y,z
1/2-x,1/2+y,1/2-z
1/2-x,1/2-y,-z
1/2+x,1/2-y,1/2+z
loop_
_atom_site_type_symbol
_atom_site_label
_atom_site_fract_x
_atom_site_fract_y
_atom_site_fract_z
Si Si1 0.610029 0.799817 0.128751
Si Si2 0.948746 0.746423 0.575251
Si Si3 0.666429 0.373798 0.745001
Si Si4 0.571688 0.494489 0.233460
Si Si5 0.783302 0.964348 0.938757
Si Si6 0.695829 0.829948 0.453290
Si Si7 0.849835 0.109285 0.868369
Si Si8 0.723922 0.832478 0.037333
O O1 0.513882 0.787533 0.048330
O O2 0.647026 0.714688 0.195506
O O3 0.651576 0.848632 0.281330
O O4 0.642364 0.823875 0.032261
O O5 0.878027 0.685288 0.533131
O O6 0.898934 0.824224 0.489473
O O7 0.000000 0.758919 0.750000
O O8 0.587441 0.416055 0.714926
O O9 0.691219 0.412993 0.647834
O O10 0.740279 0.385763 0.914562
O O11 0.500000 0.482651 0.250000
O O12 0.648368 0.468234 0.390152
O O13 0.580855 0.443705 0.123207
O O14 0.792414 0.051295 0.886677
O O15 0.718599 0.907525 0.941046
O O16 0.750000 0.750000 0.500000
O O17 0.792997 0.150256 0.710018
O O18 0.750000 0.750000 0.000000
#
# Coordination Sequence:
#
# PCOD9270143 Si02
#       8
#     8   8   8   8   8   8   8   8
#     4  10  21  34  61  88 118 160 216 265 319 362
#     4  10  22  36  60  96 126 162 210 269 326 382
#     4  10  20  35  56  81 116 164 209 256 309 378
#     4  10  24  34  51  84 131 173 207 249 318 393
#     4  10  23  37  56  87 123 174 216 253 314 381
#     4   9  19  34  57  86 114 157 206 260 314 372
#     4  10  23  38  58  87 132 174 213 259 325 396
#     4  11  22  42  64  87 130 176 227 265 306 392
#
# _framework density 20.357427000000001
#
# number of rings (size 3 to 8) (size 9 to 14) (size 15 to 20)
#    0.000    2.000    1.250    1.500   10.500    1.000 
#    0.000    0.000    0.000    0.000    0.000    9.625 
#    0.000    0.000    0.000    0.000    0.000    0.000 
#
# Total GULP energy -178225.972297 kJ/mol
# GULP energy per Si atom -5569.561634 kJ/mol
# Density = 2.031109 g / cm^3
# Si number density = 20.357427 Si / 1000 Ang^3
#
#
#
# Elastic Constant Matrix: (Units=GPa)
#
#
# Indices 1 2 3 4 5 6 
#
# 1 169.1663 61.0874 10.2354 0.0000 -8.7227 0.0000
# 2 61.0874 59.5497 22.7614 0.0000 -0.7361 0.0000
# 3 10.2354 22.7614 30.4305 0.0000 -0.3963 0.0000
# 4 0.0000 0.0000 0.0000 14.6512 0.0000 -21.6895
# 5 -8.7227 -0.7361 -0.3963 0.0000 28.6384 0.0000
# 6 0.0000 0.0000 0.0000 -21.6895 0.0000 34.9532
#
#
#
# Elastic Compliance Matrix: (Units=1/GPa)
#
#
# Indices 1 2 3 4 5 6 
#
# 1 0.010381 -0.013013 0.006280 0.000000 0.002914 0.000000
# 2 -0.013013 0.039833 -0.025460 0.000000 -0.003292 0.000000
# 3 0.006280 -0.025460 0.049818 0.000000 0.001948 0.000000
# 4 0.000000 0.000000 0.000000 0.838715 0.000000 0.520447
# 5 0.002914 -0.003292 0.001948 0.000000 0.035748 0.000000
# 6 0.000000 0.000000 0.000000 0.520447 0.000000 0.351562
#
#
# Mechanical properties :
#
#
# Convention : Reuss Voigt Hill
#
# Bulk Modulus (GPa) = 28.05402 49.70166 38.87784
# Shear Modulus (GPa) = 3.56551 26.65271 15.10911
#
# Velocity S-wave (km/s) = 1.32486 3.62226 2.72727
# Velocity P-wave (km/s) = 4.01883 6.47780 5.39040
#
# Compressibility (1/GPa) = 0.03564552
#
# Stress axis : x y z
#
# Youngs Moduli (GPa) = 96.33152 25.10503 20.07294
#
# Poissons Ratio (x) = 0.32670 -0.12606
# Poissons Ratio (y) = 1.25358 0.51105
# Poissons Ratio (z) = -0.60496 0.63917
#
# Static dielectric constant tensor:
#      x y z
#    x 1.832650 0.000000 -0.066010 
#    y 0.000000 1.802060 0.000000 
#    z -0.066010 0.000000 1.554350 
# 
# From -- ./inp_files/113681.got.cif
#   From: 2010.05.17/outbox.cif.g08.bks.cpg/sg15_57_cif.got.tgz:113681.got - 2010.06.03 18:47:42.
