data_PCOD9270044
_publ_section_title
;
Structure prediction by ZEFSAII (Michael W. Deem and Ramdas Pophale) SiO2 
 PCOD9270044
Probable space group: C 2/C
;
_chemical_formula_sum "Si O2"
_cell_formula_units_Z 64
_cell_length_a 13.020930
_cell_length_b 23.689581
_cell_length_c 26.986014
_cell_angle_alpha 90.000000
_cell_angle_beta 153.879521
_cell_angle_gamma 90.000000
_cell_volume 3664.776320
_symmetry_space_group_name_H-M "C 2/C"
_symmetry_group_IT_number 15
_symmetry_cell_setting 'monoclinic'
loop_
_space_group_symop_operation_xyz
x,y,z
-x,y,1/2-z
-x,-y,-z
x,-y,1/2+z
1/2+x,1/2+y,z
1/2-x,1/2+y,1/2-z
1/2-x,1/2-y,-z
1/2+x,1/2-y,1/2+z
loop_
_atom_site_type_symbol
_atom_site_label
_atom_site_fract_x
_atom_site_fract_y
_atom_site_fract_z
Si Si1 0.465414 0.165057 0.178024
Si Si2 0.138457 0.970149 0.261071
Si Si3 0.811403 0.260351 0.283677
Si Si4 0.395955 0.143744 0.903156
Si Si5 0.330332 0.085911 0.314663
Si Si6 0.422521 0.673164 0.159619
Si Si7 0.583314 0.298701 0.449025
Si Si8 0.235616 0.113364 0.935165
O O1 0.500000 0.153509 0.250000
O O2 0.637792 0.215575 0.235166
O O3 0.535816 0.111442 0.174817
O O4 0.199323 0.184390 0.051038
O O5 0.320333 0.919579 0.353216
O O6 0.000000 0.992035 0.250000
O O7 0.928252 0.940330 0.141247
O O8 0.260912 0.020783 0.285666
O O9 0.851995 0.311351 0.339937
O O10 0.677275 0.279921 0.175214
O O11 0.029258 0.225450 0.356813
O O12 0.242083 0.148916 0.886887
O O13 0.659672 0.152545 0.036414
O O14 0.504688 0.096864 0.436179
O O15 0.099978 0.123375 0.221362
O O16 0.500000 0.686703 0.250000
O O17 0.750000 0.250000 0.500000
O O18 0.627819 0.350014 0.431613
#
# Coordination Sequence:
#
# PCOD9270044 Si02
#       8
#     8   8   8   8   8   8   8   8
#     4   9  20  34  58  83 106 141 186 233 267 317
#     4  10  22  33  56  85 107 145 182 228 276 325
#     4  10  21  34  54  84 110 147 179 220 278 323
#     4  11  22  34  54  81 117 142 183 219 278 334
#     4  10  21  38  54  80 111 145 185 225 279 323
#     4  11  22  37  53  78 115 152 179 219 275 334
#     4   9  18  32  53  80 112 135 182 225 274 312
#     4  10  20  35  54  85 109 145 182 230 275 321
#
# _framework density 17.463549
#
# number of rings (size 3 to 8) (size 9 to 14) (size 15 to 20)
#    0.000    2.000    2.500    1.500    5.250    1.000 
#    0.000    0.000    0.000    3.750    0.000    0.000 
#    0.000    0.000    0.000    0.000    0.000    0.000 
#
# Total GULP energy -178216.070726 kJ/mol
# GULP energy per Si atom -5569.252210 kJ/mol
# Density = 1.742380 g / cm^3
# Si number density = 17.463549 Si / 1000 Ang^3
#
#
#
# Elastic Constant Matrix: (Units=GPa)
#
#
# Indices 1 2 3 4 5 6 
#
# 1 58.1229 32.8208 34.9563 0.0015 -16.5238 0.0019
# 2 32.8208 73.5982 31.4064 -0.0012 -5.8699 0.0013
# 3 34.9563 31.4064 111.7847 0.0086 -8.8998 0.0140
# 4 0.0015 -0.0012 0.0086 13.1827 0.0086 3.2765
# 5 -16.5238 -5.8699 -8.8998 0.0086 29.7747 0.0017
# 6 0.0019 0.0013 0.0140 3.2765 0.0017 15.7750
#
#
#
# Elastic Compliance Matrix: (Units=1/GPa)
#
#
# Indices 1 2 3 4 5 6 
#
# 1 0.029781 -0.009902 -0.005501 -0.000010 0.012931 0.000003
# 2 -0.009902 0.018824 -0.002391 0.000006 -0.002499 0.000001
# 3 -0.005501 -0.002391 0.011327 -0.000005 -0.000139 -0.000008
# 4 -0.000010 0.000006 -0.000005 0.079986 -0.000028 -0.016613
# 5 0.012931 -0.002499 -0.000139 -0.000028 0.040228 0.000000
# 6 0.000003 0.000001 -0.000008 -0.016613 0.000000 0.066842
#
#
# Mechanical properties :
#
#
# Convention : Reuss Voigt Hill
#
# Bulk Modulus (GPa) = 41.07941 49.09697 45.08819
# Shear Modulus (GPa) = 17.20041 21.36798 19.28419
#
# Velocity S-wave (km/s) = 3.14177 3.50176 3.32664
# Velocity P-wave (km/s) = 6.06094 6.67269 6.37416
#
# Compressibility (1/GPa) = 0.02434310
#
# Stress axis : x y z
#
# Youngs Moduli (GPa) = 33.57843 53.12355 88.28549
#
# Poissons Ratio (x) = 0.52602 0.48569
# Poissons Ratio (y) = 0.33249 0.21111
# Poissons Ratio (z) = 0.18473 0.12703
#
# Static dielectric constant tensor:
#      x y z
#    x 1.577940 0.000000 -0.005200 
#    y 0.000000 1.583590 0.000000 
#    z -0.005200 0.000000 1.644150 
# 
# From -- ./inp_files/271227.got.cif
#   From: 2010.05.17/outbox.cif.g08.bks.cpg/sg15_136_cif.got.tgz:271227.got - 2010.06.03 18:47:42.
