data_PCOD9270420
_publ_section_title
;
Structure prediction by ZEFSAII (Michael W. Deem and Ramdas Pophale) SiO2 
 PCOD9270420
Probable space group: C 2/C
;
_chemical_formula_sum "Si O2"
_cell_formula_units_Z 56
_cell_length_a 18.131751
_cell_length_b 11.709685
_cell_length_c 14.453352
_cell_angle_alpha 90.000000
_cell_angle_beta 69.881499
_cell_angle_gamma 90.000000
_cell_volume 2881.451913
_symmetry_space_group_name_H-M "C 2/C"
_symmetry_group_IT_number 15
_symmetry_cell_setting 'monoclinic'
loop_
_space_group_symop_operation_xyz
x,y,z
-x,y,1/2-z
-x,-y,-z
x,-y,1/2+z
1/2+x,1/2+y,z
1/2-x,1/2+y,1/2-z
1/2-x,1/2-y,-z
1/2+x,1/2-y,1/2+z
loop_
_atom_site_type_symbol
_atom_site_label
_atom_site_fract_x
_atom_site_fract_y
_atom_site_fract_z
Si Si1 0.951119 0.908434 0.185663
Si Si2 0.689768 0.715114 0.672395
Si Si3 0.755880 0.411035 0.727778
Si Si4 0.272193 0.379085 0.964083
Si Si5 0.367521 0.474912 0.564173
Si Si6 0.922621 0.744048 0.439092
Si Si7 0.665611 0.062024 0.939723
O O1 0.866780 0.882457 0.265011
O O2 0.000000 0.959757 0.250000
O O3 0.995386 0.790700 0.137010
O O4 0.937120 0.981877 0.100656
O O5 0.709859 0.793587 0.749700
O O6 0.637314 0.778833 0.619370
O O7 0.766202 0.658727 0.594584
O O8 0.707698 0.385717 0.654126
O O9 0.705237 0.455845 0.834870
O O10 0.823670 0.497050 0.662865
O O11 0.338966 0.433877 0.000024
O O12 0.250000 0.250000 0.000000
O O13 0.196553 0.465726 0.998384
O O14 0.389822 0.355935 0.506430
O O15 0.913692 0.630204 0.504124
#
# Coordination Sequence:
#
# PCOD9270420 Si02
#       7
#     8   8   8   8   8   8   8
#     4  10  23  36  59  87 124 163 199 249 307 367
#     4  11  18  39  58  85 120 158 202 247 301 359
#     4  10  22  33  62  90 116 159 199 261 298 358
#     4  10  22  34  56  92 122 155 201 255 316 352
#     4  12  20  38  61  86 126 158 200 259 304 366
#     4  11  21  36  58  90 116 160 206 243 305 371
#     4  10  20  35  58  90 117 153 206 247 301 360
#
# _framework density 19.434647999999999
#
# number of rings (size 3 to 8) (size 9 to 14) (size 15 to 20)
#    0.857    0.571    4.286    2.571    2.000    0.000 
#    0.000    0.714    0.000    0.000    0.000    0.000 
#    0.000    0.000    0.000    0.000    0.000    0.000 
#
# Total GULP energy -155942.469229 kJ/mol
# GULP energy per Si atom -5569.373901 kJ/mol
# Density = 1.939041 g / cm^3
# Si number density = 19.434648 Si / 1000 Ang^3
#
#
#
# Elastic Constant Matrix: (Units=GPa)
#
#
# Indices 1 2 3 4 5 6 
#
# 1 51.1003 21.9148 23.7554 0.0000 22.3407 0.0000
# 2 21.9148 67.1700 10.2554 0.0000 4.2938 0.0000
# 3 23.7554 10.2554 87.0498 0.0000 13.9207 0.0000
# 4 0.0000 0.0000 0.0000 37.8628 0.0000 1.8472
# 5 22.3407 4.2938 13.9207 0.0000 30.4903 0.0000
# 6 0.0000 0.0000 0.0000 1.8472 0.0000 5.3834
#
#
#
# Elastic Compliance Matrix: (Units=1/GPa)
#
#
# Indices 1 2 3 4 5 6 
#
# 1 0.035894 -0.009491 -0.005054 0.000000 -0.022656 0.000000
# 2 -0.009491 0.017727 -0.000228 0.000000 0.004562 0.000000
# 3 -0.005054 -0.000228 0.013265 0.000000 -0.002321 0.000000
# 4 0.000000 0.000000 0.000000 0.026861 0.000000 -0.009217
# 5 -0.022656 0.004562 -0.002321 0.000000 0.049815 0.000000
# 6 0.000000 0.000000 0.000000 -0.009217 0.000000 0.188920
#
#
# Mechanical properties :
#
#
# Convention : Reuss Voigt Hill
#
# Bulk Modulus (GPa) = 26.78057 35.24127 31.01092
# Shear Modulus (GPa) = 13.35205 24.70694 19.02949
#
# Velocity S-wave (km/s) = 2.62396 3.56937 3.13254
# Velocity P-wave (km/s) = 4.79478 5.92957 5.39211
#
# Compressibility (1/GPa) = 0.03734051
#
# Stress axis : x y z
#
# Youngs Moduli (GPa) = 27.85966 56.41029 75.38679
#
# Poissons Ratio (x) = 0.53538 0.38101
# Poissons Ratio (y) = 0.26441 0.01718
# Poissons Ratio (z) = 0.14081 0.01286
#
# Static dielectric constant tensor:
#      x y z
#    x 1.699380 0.000000 0.016370 
#    y 0.000000 1.717950 0.000000 
#    z 0.016370 0.000000 1.729580 
# 
# From -- ./inp_files/167205.got.cif
#   From: 2010.05.17/outbox.cif.g08.bks.cpg/sg15_84_cif.got.tgz:167205.got - 2010.06.03 18:47:42.
