data_PCOD9270862
_publ_section_title
;
Structure prediction by ZEFSAII (Michael W. Deem and Ramdas Pophale) SiO2 
 PCOD9270862
Probable space group: C 2/C
;
_chemical_formula_sum "Si O2"
_cell_formula_units_Z 60
_cell_length_a 20.334452
_cell_length_b 24.375379
_cell_length_c 12.836270
_cell_angle_alpha 90.000000
_cell_angle_beta 32.136357
_cell_angle_gamma 90.000000
_cell_volume 3384.403126
_symmetry_space_group_name_H-M "C 2/C"
_symmetry_group_IT_number 15
_symmetry_cell_setting 'monoclinic'
loop_
_space_group_symop_operation_xyz
x,y,z
-x,y,1/2-z
-x,-y,-z
x,-y,1/2+z
1/2+x,1/2+y,z
1/2-x,1/2+y,1/2-z
1/2-x,1/2-y,-z
1/2+x,1/2-y,1/2+z
loop_
_atom_site_type_symbol
_atom_site_label
_atom_site_fract_x
_atom_site_fract_y
_atom_site_fract_z
Si Si1 0.891720 0.096427 0.098607
Si Si2 0.684388 0.541173 0.092952
Si Si3 0.500000 0.543706 0.750000
Si Si4 0.061424 0.482418 0.765447
Si Si5 0.528451 0.188884 0.836584
Si Si6 0.607560 0.921280 0.912512
Si Si7 0.994317 0.807666 0.925294
Si Si8 0.806800 0.160827 0.513538
O O1 0.892113 0.057043 0.200438
O O2 0.746823 0.092901 0.261627
O O3 0.947645 0.154510 0.062413
O O4 0.968819 0.077102 0.895735
O O5 0.613436 0.496079 0.122426
O O6 0.696977 0.596853 0.010569
O O7 0.819814 0.517181 0.930386
O O8 0.101202 0.440202 0.801189
O O9 0.000000 0.452970 0.750000
O O10 0.960690 0.526872 0.941244
O O11 0.500000 0.192208 0.750000
O O12 0.476556 0.242932 0.963424
O O13 0.673494 0.185696 0.669016
O O14 0.469762 0.132826 0.957058
O O15 0.097912 0.812271 0.695625
O O16 0.867964 0.831277 0.044670
#
# Coordination Sequence:
#
# PCOD9270862 Si02
#       8
#     8   8   4   8   8   8   8   8
#     4  11  23  40  60  87 120 154 208 244 301 360
#     4  11  20  37  61  86 123 156 196 239 295 367
#     4  12  24  40  60  86 114 166 196 248 302 356
#     4  11  21  40  58  88 126 158 194 242 298 354
#     4  12  21  35  63  90 120 160 201 246 302 348
#     4  11  23  37  61  91 120 159 197 244 298 358
#     4  10  22  36  57  87 122 158 197 249 301 348
#     4  10  20  36  53  93 128 153 190 249 295 358
#
# _framework density 17.728383999999998
#
# number of rings (size 3 to 8) (size 9 to 14) (size 15 to 20)
#    0.000    1.067    5.333    4.400    1.867    0.000 
#    2.400    0.000    1.467    0.800    0.000    0.000 
#    0.000    0.000    0.000    0.000    0.000    0.000 
#
# Total GULP energy -167311.528526 kJ/mol
# GULP energy per Si atom -5577.050951 kJ/mol
# Density = 1.768803 g / cm^3
# Si number density = 17.728384 Si / 1000 Ang^3
#
#
#
# Elastic Constant Matrix: (Units=GPa)
#
#
# Indices 1 2 3 4 5 6 
#
# 1 123.6066 62.3633 27.4926 -0.0011 -9.7393 0.0000
# 2 62.3633 92.6519 10.6252 -0.0007 12.1761 0.0003
# 3 27.4926 10.6252 26.2330 -0.0002 0.4078 0.0003
# 4 -0.0011 -0.0007 -0.0002 11.0944 0.0004 9.0686
# 5 -9.7393 12.1761 0.4078 0.0004 33.6538 -0.0001
# 6 0.0000 0.0003 0.0003 9.0686 -0.0001 9.8146
#
#
#
# Elastic Compliance Matrix: (Units=1/GPa)
#
#
# Indices 1 2 3 4 5 6 
#
# 1 0.017882 -0.011669 -0.014163 -0.000001 0.009569 0.000002
# 2 -0.011669 0.019511 0.004490 0.000005 -0.010491 -0.000006
# 3 -0.014163 0.004490 0.051243 0.000006 -0.006344 -0.000008
# 4 -0.000001 0.000005 0.000006 0.368320 -0.000007 -0.340325
# 5 0.009569 -0.010491 -0.006344 -0.000007 0.036356 0.000008
# 6 0.000002 -0.000006 -0.000008 -0.340325 0.000008 0.416346
#
#
# Mechanical properties :
#
#
# Convention : Reuss Voigt Hill
#
# Bulk Modulus (GPa) = 21.76195 49.27265 35.51730
# Shear Modulus (GPa) = 5.16711 20.37991 12.77351
#
# Velocity S-wave (km/s) = 1.70907 3.39420 2.68715
# Velocity P-wave (km/s) = 4.02448 6.57375 5.45026
#
# Compressibility (1/GPa) = 0.04595177
#
# Stress axis : x y z
#
# Youngs Moduli (GPa) = 55.92304 51.25210 19.51502
#
# Poissons Ratio (x) = 0.59808 0.27638
# Poissons Ratio (y) = 0.65259 -0.08762
# Poissons Ratio (z) = 0.79202 -0.23012
#
# Static dielectric constant tensor:
#      x y z
#    x 1.637630 0.000000 -0.007820 
#    y 0.000000 1.606570 0.000000 
#    z -0.007820 0.000000 1.611990 
# 
# From -- ./inp_files/108102.got.cif
#   From: 2010.05.17/outbox.cif.g08.bks.cpg/sg15_55_cif.got.tgz:108102.got - 2010.06.03 18:47:42.
