data_PCOD9270858
_publ_section_title
;
Structure prediction by ZEFSAII (Michael W. Deem and Ramdas Pophale) SiO2 
 PCOD9270858
Probable space group: C 2/C
;
_chemical_formula_sum "Si O2"
_cell_formula_units_Z 60
_cell_length_a 17.679921
_cell_length_b 29.376408
_cell_length_c 11.528848
_cell_angle_alpha 90.000000
_cell_angle_beta 150.587022
_cell_angle_gamma 90.000000
_cell_volume 2940.599051
_symmetry_space_group_name_H-M "C 2/C"
_symmetry_group_IT_number 15
_symmetry_cell_setting 'monoclinic'
loop_
_space_group_symop_operation_xyz
x,y,z
-x,y,1/2-z
-x,-y,-z
x,-y,1/2+z
1/2+x,1/2+y,z
1/2-x,1/2+y,1/2-z
1/2-x,1/2-y,-z
1/2+x,1/2-y,1/2+z
loop_
_atom_site_type_symbol
_atom_site_label
_atom_site_fract_x
_atom_site_fract_y
_atom_site_fract_z
Si Si1 0.083768 0.069542 0.615518
Si Si2 0.640347 0.512132 0.027203
Si Si3 0.477977 0.837539 0.890177
Si Si4 0.196906 0.710943 0.164576
Si Si5 0.273850 0.203550 0.914233
Si Si6 0.634179 0.935386 0.836719
Si Si7 0.000000 0.771462 0.750000
Si Si8 0.472522 0.666446 0.436883
O O1 0.935036 0.047851 0.482274
O O2 0.026328 0.115907 0.482953
O O3 0.156418 0.033996 0.621915
O O4 0.216269 0.078435 0.887519
O O5 0.500000 0.504608 0.750000
O O6 0.790742 0.529933 0.157904
O O7 0.448846 0.813129 0.971739
O O8 0.372543 0.807763 0.659428
O O9 0.429260 0.889738 0.809976
O O10 0.651102 0.830052 0.080628
O O11 0.276791 0.746604 0.360720
O O12 0.311368 0.670835 0.285099
O O13 0.140080 0.740040 0.979900
O O14 0.097584 0.189637 0.689258
O O15 0.500000 0.950654 0.750000
O O16 0.035110 0.802841 0.687152
#
# Coordination Sequence:
#
# PCOD9270858 Si02
#       8
#     8   8   8   8   8   8   4   8
#     4  10  20  39  59  91 115 151 200 243 302 352
#     4   9  21  37  62  86 119 150 190 252 295 360
#     4  11  20  36  56  84 121 157 187 248 294 349
#     4  11  23  37  58  81 116 159 207 243 290 347
#     4  10  20  36  53  84 118 153 191 241 295 337
#     4  11  20  38  60  90 122 154 193 239 307 359
#     4  10  24  40  54  82 120 160 202 250 294 342
#     4  11  21  37  60  84 110 156 202 246 285 354
#
# _framework density 20.404005000000002
#
# number of rings (size 3 to 8) (size 9 to 14) (size 15 to 20)
#    0.000    1.600    2.667    3.200    0.933    3.200 
#    0.000    0.000    0.000    0.000    8.667    0.000 
#    0.000    0.000    0.000    0.000    0.000    0.000 
#
# Total GULP energy -167344.980809 kJ/mol
# GULP energy per Si atom -5578.166027 kJ/mol
# Density = 2.035756 g / cm^3
# Si number density = 20.404005 Si / 1000 Ang^3
#
#
#
# Elastic Constant Matrix: (Units=GPa)
#
#
# Indices 1 2 3 4 5 6 
#
# 1 71.7407 37.7291 8.2052 0.0000 15.3817 0.0000
# 2 37.7291 96.7946 7.8425 0.0000 6.7989 0.0000
# 3 8.2052 7.8425 11.3495 0.0000 4.6824 0.0000
# 4 0.0000 0.0000 0.0000 2.9579 0.0000 19.0061
# 5 15.3817 6.7989 4.6824 0.0000 24.8595 0.0000
# 6 0.0000 0.0000 0.0000 19.0061 0.0000 10.0649
#
#
#
# Elastic Compliance Matrix: (Units=1/GPa)
#
#
# Indices 1 2 3 4 5 6 
#
# 1 0.020205 -0.006717 -0.006035 0.000000 -0.009528 0.000000
# 2 -0.006717 0.013244 -0.004896 0.000000 0.001456 0.000000
# 3 -0.006035 -0.004896 0.101662 0.000000 -0.014075 0.000000
# 4 0.000000 0.000000 0.000000 -0.030365 0.000000 0.057340
# 5 -0.009528 0.001456 -0.014075 0.000000 0.048374 0.000000
# 6 0.000000 0.000000 0.000000 0.057340 0.000000 -0.008924
#
#
# Mechanical properties :
#
#
# Convention : Reuss Voigt Hill
#
# Bulk Modulus (GPa) = 10.01855 31.93760 20.97808
# Shear Modulus (GPa) = 23.50021 15.98365 19.74193
#
# Velocity S-wave (km/s) = 3.39742 2.80189 3.11392
# Velocity P-wave (km/s) = 4.50674 5.11410 4.82000
#
# Compressibility (1/GPa) = 0.09981487
#
# Stress axis : x y z
#
# Youngs Moduli (GPa) = 49.49299 75.50667 9.83649
#
# Poissons Ratio (x) = 0.50721 0.05936
# Poissons Ratio (y) = 0.33246 0.04816
# Poissons Ratio (z) = 0.29868 0.36968
#
# Static dielectric constant tensor:
#      x y z
#    x 1.761840 0.000000 0.002010 
#    y 0.000000 1.720190 0.000000 
#    z 0.002010 0.000000 1.706810 
# 
# From -- ./inp_files/108463.got.cif
#   From: 2010.05.17/outbox.cif.g08.bks.cpg/sg15_55_cif.got.tgz:108463.got - 2010.06.03 18:47:42.
