data_PCOD9270288
_publ_section_title
;
Structure prediction by ZEFSAII (Michael W. Deem and Ramdas Pophale) SiO2 
 PCOD9270288
Probable space group: C 2/C
;
_chemical_formula_sum "Si O2"
_cell_formula_units_Z 56
_cell_length_a 8.653674
_cell_length_b 18.786367
_cell_length_c 14.869745
_cell_angle_alpha 90.000000
_cell_angle_beta 84.597083
_cell_angle_gamma 90.000000
_cell_volume 2406.650686
_symmetry_space_group_name_H-M "C 2/C"
_symmetry_group_IT_number 15
_symmetry_cell_setting 'monoclinic'
loop_
_space_group_symop_operation_xyz
x,y,z
-x,y,1/2-z
-x,-y,-z
x,-y,1/2+z
1/2+x,1/2+y,z
1/2-x,1/2+y,1/2-z
1/2-x,1/2-y,-z
1/2+x,1/2-y,1/2+z
loop_
_atom_site_type_symbol
_atom_site_label
_atom_site_fract_x
_atom_site_fract_y
_atom_site_fract_z
Si Si1 0.454339 0.270532 0.648200
Si Si2 0.850300 0.584574 0.701706
Si Si3 0.982233 0.622462 0.964245
Si Si4 0.235813 0.367571 0.577057
Si Si5 0.664998 0.676050 0.991170
Si Si6 0.924488 0.130390 0.881641
Si Si7 0.115104 0.010376 0.317031
O O1 0.500000 0.267708 0.750000
O O2 0.480350 0.195681 0.594404
O O3 0.282917 0.300575 0.636025
O O4 0.559810 0.327104 0.585976
O O5 0.926681 0.565078 0.601305
O O6 0.700752 0.636398 0.691694
O O7 0.763556 0.522059 0.757543
O O8 0.000000 0.608704 0.750000
O O9 0.056761 0.627891 0.058312
O O10 0.797425 0.616417 0.976654
O O11 0.318297 0.361452 0.475499
O O12 0.310459 0.436635 0.616886
O O13 0.750000 0.750000 0.000000
O O14 0.567364 0.679226 0.904248
O O15 0.008426 0.053473 0.863879
O O16 0.000000 0.045582 0.250000
#
# Coordination Sequence:
#
# PCOD9270288 Si02
#       7
#     8   8   8   8   8   8   8
#     4  10  20  36  60  86 116 156 200 250 300 352
#     4  10  20  35  57  87 117 150 196 250 295 342
#     4  10  20  37  59  86 119 157 197 242 298 362
#     4  10  20  36  57  84 117 159 199 241 299 360
#     4   9  19  37  61  87 117 155 196 240 292 358
#     4   9  19  35  57  81 114 158 196 234 293 357
#     4  10  20  36  57  85 119 155 201 251 295 347
#
# _framework density 23.268851999999999
#
# number of rings (size 3 to 8) (size 9 to 14) (size 15 to 20)
#    0.000    2.286    0.000    2.571    0.000    2.286 
#    0.000   14.286    0.000    5.143    0.000    0.000 
#    0.000    0.000    0.000    0.000    0.000    0.000 
#
# Total GULP energy -155989.220831 kJ/mol
# GULP energy per Si atom -5571.043601 kJ/mol
# Density = 2.321589 g / cm^3
# Si number density = 23.268852 Si / 1000 Ang^3
#
#
#
# Elastic Constant Matrix: (Units=GPa)
#
#
# Indices 1 2 3 4 5 6 
#
# 1 149.7303 18.7971 41.7939 0.0000 48.0928 0.0000
# 2 18.7971 38.9072 17.5185 0.0000 10.3552 0.0000
# 3 41.7939 17.5185 90.7915 0.0000 42.8353 0.0000
# 4 0.0000 0.0000 0.0000 13.7384 0.0000 6.9352
# 5 48.0928 10.3552 42.8353 0.0000 57.4729 0.0000
# 6 0.0000 0.0000 0.0000 6.9352 0.0000 19.9409
#
#
#
# Elastic Compliance Matrix: (Units=1/GPa)
#
#
# Indices 1 2 3 4 5 6 
#
# 1 0.009387 -0.002423 -0.000545 0.000000 -0.007012 0.000000
# 2 -0.002423 0.028866 -0.004561 0.000000 0.000226 0.000000
# 3 -0.000545 -0.004561 0.017802 0.000000 -0.011990 0.000000
# 4 0.000000 0.000000 0.000000 0.088289 0.000000 -0.030706
# 5 -0.007012 0.000226 -0.011990 0.000000 0.032163 0.000000
# 6 0.000000 0.000000 0.000000 -0.030706 0.000000 0.060827
#
#
# Mechanical properties :
#
#
# Convention : Reuss Voigt Hill
#
# Bulk Modulus (GPa) = 24.39231 48.40532 36.39881
# Shear Modulus (GPa) = 18.79270 31.65174 25.22222
#
# Velocity S-wave (km/s) = 2.84497 3.69217 3.29591
# Velocity P-wave (km/s) = 4.61491 6.24692 5.49188
#
# Compressibility (1/GPa) = 0.04099653
#
# Stress axis : x y z
#
# Youngs Moduli (GPa) = 106.52540 34.64224 56.17251
#
# Poissons Ratio (x) = 0.08395 0.03063
# Poissons Ratio (y) = 0.25816 0.25621
# Poissons Ratio (z) = 0.05809 0.15801
#
# Static dielectric constant tensor:
#      x y z
#    x 2.027070 0.000000 -0.005540 
#    y 0.000000 1.986310 0.000000 
#    z -0.005540 0.000000 1.923700 
# 
# From -- ./inp_files/136445.got.cif
#   From: 2010.05.17/outbox.cif.g08.bks.cpg/sg15_69_cif.got.tgz:136445.got - 2010.06.03 18:47:42.
