data_PCOD9270631
_publ_section_title
;
Structure prediction by ZEFSAII (Michael W. Deem and Ramdas Pophale) SiO2 
 PCOD9270631
Probable space group: C 2/C
;
_chemical_formula_sum "Si O2"
_cell_formula_units_Z 56
_cell_length_a 22.169655
_cell_length_b 16.116579
_cell_length_c 16.875597
_cell_angle_alpha 90.000000
_cell_angle_beta 153.335671
_cell_angle_gamma 90.000000
_cell_volume 2705.874893
_symmetry_space_group_name_H-M "C 2/C"
_symmetry_group_IT_number 15
_symmetry_cell_setting 'monoclinic'
loop_
_space_group_symop_operation_xyz
x,y,z
-x,y,1/2-z
-x,-y,-z
x,-y,1/2+z
1/2+x,1/2+y,z
1/2-x,1/2+y,1/2-z
1/2-x,1/2-y,-z
1/2+x,1/2-y,1/2+z
loop_
_atom_site_type_symbol
_atom_site_label
_atom_site_fract_x
_atom_site_fract_y
_atom_site_fract_z
Si Si1 0.322568 0.453068 0.228020
Si Si2 0.910966 0.242410 0.075847
Si Si3 0.169754 0.497436 0.782301
Si Si4 0.887559 0.081532 0.438413
Si Si5 0.080876 0.607125 0.526289
Si Si6 0.347058 0.076854 0.576298
Si Si7 0.619766 0.253915 0.673836
O O1 0.365945 0.499201 0.359785
O O2 0.458178 0.414781 0.353684
O O3 0.206504 0.389316 0.115016
O O4 0.253938 0.523517 0.094537
O O5 0.863091 0.329585 0.061591
O O6 0.000000 0.198925 0.250000
O O7 0.018216 0.245694 0.129551
O O8 0.766282 0.216588 0.870379
O O9 0.288273 0.436143 0.894374
O O10 0.122815 0.550175 0.650999
O O11 0.197559 0.561088 0.886074
O O12 0.045275 0.438820 0.659215
O O13 0.858006 0.158350 0.344701
O O14 0.050740 0.695208 0.528174
O O15 0.500000 0.045364 0.750000
#
# Coordination Sequence:
#
# PCOD9270631 Si02
#       7
#     8   8   8   8   8   8   8
#     4  10  20  38  59  85 121 158 212 260 312 371
#     4  11  24  37  59  91 131 169 197 252 328 390
#     4  10  21  37  62  90 118 164 219 254 303 371
#     4  10  22  38  59  88 123 167 207 262 313 375
#     4  10  20  35  61  88 116 164 216 254 297 378
#     4  11  20  38  64  89 122 161 213 265 307 368
#     4  12  22  40  62  92 132 168 208 261 322 387
#
# _framework density 20.695709999999998
#
# number of rings (size 3 to 8) (size 9 to 14) (size 15 to 20)
#    0.000    1.429    2.857    3.857    2.000    0.571 
#    0.000    0.000    0.000    5.143    0.000    0.000 
#    0.000    0.000    0.000    0.000    0.000    0.000 
#
# Total GULP energy -156037.764418 kJ/mol
# GULP energy per Si atom -5572.777301 kJ/mol
# Density = 2.064861 g / cm^3
# Si number density = 20.695710 Si / 1000 Ang^3
#
#
#
# Elastic Constant Matrix: (Units=GPa)
#
#
# Indices 1 2 3 4 5 6 
#
# 1 102.0881 23.2141 13.7658 0.0000 21.9378 0.0000
# 2 23.2141 40.0678 -12.6030 0.0000 4.8944 0.0000
# 3 13.7658 -12.6030 59.9055 0.0000 22.9673 0.0000
# 4 0.0000 0.0000 0.0000 18.9632 0.0000 -1.4896
# 5 21.9378 4.8944 22.9673 0.0000 25.4049 0.0000
# 6 0.0000 0.0000 0.0000 -1.4896 0.0000 20.7919
#
#
#
# Elastic Compliance Matrix: (Units=1/GPa)
#
#
# Indices 1 2 3 4 5 6 
#
# 1 0.013554 -0.006986 -0.000938 0.000000 -0.009510 0.000000
# 2 -0.006986 0.035130 0.014199 0.000000 -0.013572 0.000000
# 3 -0.000938 0.014199 0.031580 0.000000 -0.030475 0.000000
# 4 0.000000 0.000000 0.000000 0.053032 0.000000 0.003799
# 5 -0.009510 -0.013572 -0.030475 0.000000 0.077740 0.000000
# 6 0.000000 0.000000 0.000000 0.003799 0.000000 0.048368
#
#
# Mechanical properties :
#
#
# Convention : Reuss Voigt Hill
#
# Bulk Modulus (GPa) = 10.77439 27.86836 19.32137
# Shear Modulus (GPa) = 17.99909 24.87765 21.43837
#
# Velocity S-wave (km/s) = 2.95227 3.47085 3.22201
# Velocity P-wave (km/s) = 4.10349 5.43667 4.81643
#
# Compressibility (1/GPa) = 0.09281270
#
# Stress axis : x y z
#
# Youngs Moduli (GPa) = 73.77729 28.46610 31.66593
#
# Poissons Ratio (x) = 0.19888 0.02971
# Poissons Ratio (y) = 0.51544 -0.44964
# Poissons Ratio (z) = 0.06923 -0.40420
#
# Static dielectric constant tensor:
#      x y z
#    x 1.815360 0.000000 0.022350 
#    y 0.000000 1.767740 0.000000 
#    z 0.022350 0.000000 1.766990 
# 
# From -- ./inp_files/169171.got.cif
#   From: 2010.05.17/outbox.cif.g08.bks.cpg/sg15_85_cif.got.tgz:169171.got - 2010.06.03 18:47:42.
