data_PCOD9270439
_publ_section_title
;
Structure prediction by ZEFSAII (Michael W. Deem and Ramdas Pophale) SiO2 
 PCOD9270439
Probable space group: C 2/C
;
_chemical_formula_sum "Si O2"
_cell_formula_units_Z 60
_cell_length_a 23.641436
_cell_length_b 9.540369
_cell_length_c 18.000196
_cell_angle_alpha 90.000000
_cell_angle_beta 52.545224
_cell_angle_gamma 90.000000
_cell_volume 3222.891851
_symmetry_space_group_name_H-M "C 2/C"
_symmetry_group_IT_number 15
_symmetry_cell_setting 'monoclinic'
loop_
_space_group_symop_operation_xyz
x,y,z
-x,y,1/2-z
-x,-y,-z
x,-y,1/2+z
1/2+x,1/2+y,z
1/2-x,1/2+y,1/2-z
1/2-x,1/2-y,-z
1/2+x,1/2-y,1/2+z
loop_
_atom_site_type_symbol
_atom_site_label
_atom_site_fract_x
_atom_site_fract_y
_atom_site_fract_z
Si Si1 0.482356 0.067201 0.684445
Si Si2 0.605551 0.760781 0.032309
Si Si3 0.611703 0.337435 0.685814
Si Si4 0.321684 0.630652 0.215206
Si Si5 0.312856 0.314928 0.182381
Si Si6 0.516951 0.346952 0.958120
Si Si7 0.548834 0.779222 0.848421
Si Si8 0.000000 0.087425 0.750000
O O1 0.500000 0.003513 0.750000
O O2 0.558006 0.099871 0.584033
O O3 0.436760 0.207242 0.742558
O O4 0.442922 0.944224 0.673239
O O5 0.638698 0.717359 0.084384
O O6 0.537771 0.662870 0.066420
O O7 0.656757 0.743661 0.920883
O O8 0.669551 0.373657 0.702166
O O9 0.565669 0.476962 0.705194
O O10 0.304462 0.481756 0.191822
O O11 0.261280 0.740222 0.242827
O O12 0.401111 0.669902 0.125923
O O13 0.373627 0.282883 0.194729
O O14 0.500000 0.500000 0.000000
O O15 0.494628 0.241023 0.040468
O O16 0.510352 0.689171 0.813860
#
# Coordination Sequence:
#
# PCOD9270439 Si02
#       8
#     8   8   8   8   8   8   8   4
#     4  10  20  35  58  98 122 149 199 271 317 355
#     4  10  20  38  65  91 117 158 216 263 309 373
#     4  11  20  37  68  89 119 168 217 259 309 370
#     4  12  24  42  60  91 128 171 210 256 316 388
#     4  11  27  40  60  89 131 167 209 253 326 388
#     4  11  19  38  66  95 116 157 224 267 301 371
#     4  11  23  37  64  97 127 158 210 269 320 361
#     4  12  18  36  68  98 122 162 216 272 300 362
#
# _framework density 18.616821999999999
#
# number of rings (size 3 to 8) (size 9 to 14) (size 15 to 20)
#    0.000    1.067    8.000    0.800    1.867    3.733 
#    0.000    0.000    0.000    1.600    0.000    0.000 
#    0.000    0.000    0.000    0.000    0.000    0.000 
#
# Total GULP energy -167018.548143 kJ/mol
# GULP energy per Si atom -5567.284938 kJ/mol
# Density = 1.857445 g / cm^3
# Si number density = 18.616822 Si / 1000 Ang^3
#
#
#
# Elastic Constant Matrix: (Units=GPa)
#
#
# Indices 1 2 3 4 5 6 
#
# 1 75.3431 21.7162 31.4736 0.0001 -3.0502 -0.0002
# 2 21.7162 56.3799 29.6513 0.0000 3.2046 -0.0003
# 3 31.4736 29.6513 63.2307 -0.0001 0.9552 -0.0001
# 4 0.0001 0.0000 -0.0001 14.8777 0.0001 -0.3138
# 5 -3.0502 3.2046 0.9552 0.0001 34.9344 0.0000
# 6 -0.0002 -0.0003 -0.0001 -0.3138 0.0000 33.5711
#
#
#
# Elastic Compliance Matrix: (Units=1/GPa)
#
#
# Indices 1 2 3 4 5 6 
#
# 1 0.017217 -0.002948 -0.007217 0.000000 0.001971 0.000000
# 2 -0.002948 0.024169 -0.009833 0.000000 -0.002206 0.000000
# 3 -0.007217 -0.009833 0.024025 0.000000 -0.000385 0.000000
# 4 0.000000 0.000000 0.000000 0.067228 0.000000 0.000628
# 5 0.001971 -0.002206 -0.000385 0.000000 0.029010 0.000000
# 6 0.000000 0.000000 0.000000 0.000628 0.000000 0.029793
#
#
# Mechanical properties :
#
#
# Convention : Reuss Voigt Hill
#
# Bulk Modulus (GPa) = 39.34850 40.07066 39.70958
# Shear Modulus (GPa) = 20.84117 24.15083 22.49600
#
# Velocity S-wave (km/s) = 3.34949 3.60566 3.47993
# Velocity P-wave (km/s) = 6.01171 6.23738 6.12559
#
# Compressibility (1/GPa) = 0.02541393
#
# Stress axis : x y z
#
# Youngs Moduli (GPa) = 58.08208 41.37519 41.62416
#
# Poissons Ratio (x) = 0.12197 0.30041
# Poissons Ratio (y) = 0.17122 0.40930
# Poissons Ratio (z) = 0.41920 0.40685
#
# Static dielectric constant tensor:
#      x y z
#    x 1.651610 0.000000 0.008520 
#    y 0.000000 1.654890 0.000000 
#    z 0.008520 0.000000 1.842160 
# 
# From -- ./inp_files/214286.got.cif
#   From: 2010.05.17/outbox.cif.g08.bks.cpg/sg15_108_cif.got.tgz:214286.got - 2010.06.03 18:47:42.
