data_PCOD9270973
_publ_section_title
;
Structure prediction by ZEFSAII (Michael W. Deem and Ramdas Pophale) SiO2 
 PCOD9270973
Probable space group: C 2/C
;
_chemical_formula_sum "Si O2"
_cell_formula_units_Z 64
_cell_length_a 14.698335
_cell_length_b 9.859990
_cell_length_c 29.596081
_cell_angle_alpha 90.000000
_cell_angle_beta 44.360658
_cell_angle_gamma 90.000000
_cell_volume 2998.908492
_symmetry_space_group_name_H-M "C 2/C"
_symmetry_group_IT_number 15
_symmetry_cell_setting 'monoclinic'
loop_
_space_group_symop_operation_xyz
x,y,z
-x,y,1/2-z
-x,-y,-z
x,-y,1/2+z
1/2+x,1/2+y,z
1/2-x,1/2+y,1/2-z
1/2-x,1/2-y,-z
1/2+x,1/2-y,1/2+z
loop_
_atom_site_type_symbol
_atom_site_label
_atom_site_fract_x
_atom_site_fract_y
_atom_site_fract_z
Si Si1 0.872017 0.589913 0.002025
Si Si2 0.368035 0.575169 0.947531
Si Si3 0.354472 0.933832 0.609625
Si Si4 0.366464 0.417492 0.549330
Si Si5 0.718502 0.690014 0.697981
Si Si6 0.099192 0.437286 0.680556
Si Si7 0.950248 0.279828 0.661577
Si Si8 0.479155 0.304013 0.592639
O O1 0.759768 0.489716 0.027046
O O2 0.837235 0.630961 0.065984
O O3 0.893562 0.714969 0.960270
O O4 0.008432 0.511493 0.946801
O O5 0.427789 0.693489 0.897584
O O6 0.476332 0.454671 0.911435
O O7 0.339528 0.625286 0.008221
O O8 0.373757 0.831382 0.644559
O O9 0.248547 0.047719 0.662324
O O10 0.500000 0.500000 0.500000
O O11 0.239530 0.492550 0.614683
O O12 0.407677 0.300040 0.568842
O O13 0.645029 0.798882 0.691115
O O14 0.633036 0.690519 0.773688
O O15 0.860662 0.746367 0.663556
O O16 0.011531 0.403411 0.668311
O O17 0.000000 0.511169 0.750000
#
# Coordination Sequence:
#
# PCOD9270973 Si02
#       8
#     8   8   8   8   8   8   8   8
#     4  10  20  36  56  81 113 146 189 237 287 338
#     4  11  21  32  55  87 112 146 190 239 285 336
#     4  10  21  36  56  82 111 149 187 237 287 342
#     4   9  18  33  54  82 113 145 190 237 288 344
#     4   9  20  37  56  77 112 148 188 228 288 350
#     4   9  18  35  55  81 111 148 189 239 291 344
#     4  11  22  33  56  85 113 149 189 242 283 344
#     4   9  19  36  56  78 109 155 185 232 287 347
#
# _framework density 21.341097999999999
#
# number of rings (size 3 to 8) (size 9 to 14) (size 15 to 20)
#    0.000    2.250    0.000    2.625    1.750    4.000 
#    0.000    0.000    0.000    0.000    0.000    0.000 
#    0.000    0.000    0.000    0.000    0.000    0.000 
#
# Total GULP energy -178344.456104 kJ/mol
# GULP energy per Si atom -5573.264253 kJ/mol
# Density = 2.129253 g / cm^3
# Si number density = 21.341098 Si / 1000 Ang^3
#
#
#
# Elastic Constant Matrix: (Units=GPa)
#
#
# Indices 1 2 3 4 5 6 
#
# 1 54.0156 -9.0087 28.7286 0.0000 -1.8176 0.0000
# 2 -9.0087 9.4904 1.7027 0.0000 -4.1909 0.0000
# 3 28.7286 1.7027 145.9734 0.0000 -11.5502 0.0000
# 4 0.0000 0.0000 0.0000 22.4602 0.0000 -7.6762
# 5 -1.8176 -4.1909 -11.5502 0.0000 33.6063 0.0000
# 6 0.0000 0.0000 0.0000 -7.6762 0.0000 22.2750
#
#
#
# Elastic Compliance Matrix: (Units=1/GPa)
#
#
# Indices 1 2 3 4 5 6 
#
# 1 0.025815 0.026737 -0.005159 0.000000 0.002958 0.000000
# 2 0.026737 0.139208 -0.005549 0.000000 0.016899 0.000000
# 3 -0.005159 -0.005549 0.008073 0.000000 0.001804 0.000000
# 4 0.000000 0.000000 0.000000 0.050467 0.000000 0.017392
# 5 0.002958 0.016899 0.001804 0.000000 0.032644 0.000000
# 6 0.000000 0.000000 0.000000 0.017392 0.000000 0.050887
#
#
# Mechanical properties :
#
#
# Convention : Reuss Voigt Hill
#
# Bulk Modulus (GPa) = 4.87433 28.03606 16.45519
# Shear Modulus (GPa) = 14.55941 28.20540 21.38241
#
# Velocity S-wave (km/s) = 2.61478 3.63939 3.16877
# Velocity P-wave (km/s) = 3.37713 5.55210 4.59515
#
# Compressibility (1/GPa) = 0.20515641
#
# Stress axis : x y z
#
# Youngs Moduli (GPa) = 38.73643 7.18348 123.86599
#
# Poissons Ratio (x) = -0.19206 0.63897
# Poissons Ratio (y) = -1.03569 0.68729
# Poissons Ratio (z) = 0.19982 0.03986
#
# Static dielectric constant tensor:
#      x y z
#    x 1.804410 0.000000 0.011710 
#    y 0.000000 1.830570 0.000000 
#    z 0.011710 0.000000 1.877320 
# 
# From -- ./inp_files/296100.got.cif
#   From: 2010.05.17/outbox.cif.g08.bks.cpg/sg15_149_cif.got.tgz:296100.got - 2010.06.03 18:47:42.
