data_PCOD9270931
_publ_section_title
;
Structure prediction by ZEFSAII (Michael W. Deem and Ramdas Pophale) SiO2 
 PCOD9270931
Probable space group: C 2/C
;
_chemical_formula_sum "Si O2"
_cell_formula_units_Z 48
_cell_length_a 13.371685
_cell_length_b 25.042576
_cell_length_c 8.163955
_cell_angle_alpha 90.000000
_cell_angle_beta 113.442105
_cell_angle_gamma 90.000000
_cell_volume 2508.153281
_symmetry_space_group_name_H-M "C 2/C"
_symmetry_group_IT_number 15
_symmetry_cell_setting 'monoclinic'
loop_
_space_group_symop_operation_xyz
x,y,z
-x,y,1/2-z
-x,-y,-z
x,-y,1/2+z
1/2+x,1/2+y,z
1/2-x,1/2+y,1/2-z
1/2-x,1/2-y,-z
1/2+x,1/2-y,1/2+z
loop_
_atom_site_type_symbol
_atom_site_label
_atom_site_fract_x
_atom_site_fract_y
_atom_site_fract_z
Si Si1 0.000000 0.022274 0.750000
Si Si2 0.544500 0.800540 0.948394
Si Si3 0.852812 0.809530 0.944411
Si Si4 0.500000 0.649845 0.250000
Si Si5 0.762308 0.855955 0.195519
Si Si6 0.823510 0.254708 0.887704
Si Si7 0.624739 0.564609 0.526410
O O1 0.041839 0.055415 0.623116
O O2 0.900329 0.986212 0.608858
O O3 0.500000 0.824606 0.750000
O O4 0.440103 0.782817 0.987488
O O5 0.602073 0.744093 0.941100
O O6 0.637756 0.836466 0.090589
O O7 0.743577 0.791674 0.781100
O O8 0.940273 0.821563 0.860528
O O9 0.821825 0.854958 0.055642
O O10 0.590754 0.612223 0.386823
O O11 0.824086 0.806077 0.322581
O O12 0.773003 0.910320 0.307098
O O13 0.750000 0.250000 0.000000
#
# Coordination Sequence:
#
# PCOD9270931 Si02
#       7
#     4   8   8   4   8   8   8
#     4   9  20  38  60  78 114 134 170 242 324 367
#     4  11  19  34  50  73 115 164 196 226 261 309
#     4  11  20  31  48  76 112 162 189 224 265 316
#     4  11  22  32  54  84 118 142 188 228 278 345
#     4  11  21  33  55  79 111 153 197 227 277 337
#     4  11  21  34  50  77 119 160 197 227 264 308
#     4  10  20  36  55  85 107 137 178 235 301 363
#
# _framework density 19.137587
#
# number of rings (size 3 to 8) (size 9 to 14) (size 15 to 20)
#    0.000    1.333    3.333    5.000    0.000    2.000 
#    0.000    0.000    0.000    0.000    0.000    1.167 
#    0.000    0.167    0.000    0.000    0.000    0.000 
#
# Total GULP energy -133639.152423 kJ/mol
# GULP energy per Si atom -5568.298018 kJ/mol
# Density = 1.909403 g / cm^3
# Si number density = 19.137587 Si / 1000 Ang^3
#
#
#
# Elastic Constant Matrix: (Units=GPa)
#
#
# Indices 1 2 3 4 5 6 
#
# 1 103.6547 4.8080 26.8026 0.0000 2.2949 0.0000
# 2 4.8080 25.1583 18.5561 0.0000 7.8834 0.0000
# 3 26.8026 18.5561 85.0978 0.0000 4.5370 0.0000
# 4 0.0000 0.0000 0.0000 10.3794 0.0000 -1.5513
# 5 2.2949 7.8834 4.5370 0.0000 45.4507 0.0000
# 6 0.0000 0.0000 0.0000 -1.5513 0.0000 12.8883
#
#
#
# Elastic Compliance Matrix: (Units=1/GPa)
#
#
# Indices 1 2 3 4 5 6 
#
# 1 0.010512 0.000612 -0.003429 0.000000 -0.000295 0.000000
# 2 0.000612 0.049884 -0.010664 0.000000 -0.007619 0.000000
# 3 -0.003429 -0.010664 0.015129 0.000000 0.000513 0.000000
# 4 0.000000 0.000000 0.000000 0.098109 0.000000 0.011809
# 5 -0.000295 -0.007619 0.000513 0.000000 0.023287 0.000000
# 6 0.000000 0.000000 0.000000 0.011809 0.000000 0.079011
#
#
# Mechanical properties :
#
#
# Convention : Reuss Voigt Hill
#
# Bulk Modulus (GPa) = 20.59123 34.91601 27.75362
# Shear Modulus (GPa) = 15.66994 24.65997 20.16496
#
# Velocity S-wave (km/s) = 2.86458 3.59355 3.24957
# Velocity P-wave (km/s) = 4.66090 5.95839 5.34914
#
# Compressibility (1/GPa) = 0.04856436
#
# Stress axis : x y z
#
# Youngs Moduli (GPa) = 95.12827 20.04634 66.09742
#
# Poissons Ratio (x) = -0.01227 0.22663
# Poissons Ratio (y) = -0.05825 0.70488
# Poissons Ratio (z) = 0.32617 0.21378
#
# Static dielectric constant tensor:
#      x y z
#    x 1.712850 0.000000 -0.011720 
#    y 0.000000 1.673380 0.000000 
#    z -0.011720 0.000000 1.771360 
# 
# From -- ./inp_files/34866.got.cif
#   From: 2010.05.17/outbox.cif.g08.bks.cpg/sg15_18_cif.got.tgz:34866.got - 2010.06.03 18:47:42.
