data_PCOD9270459
_publ_section_title
;
Structure prediction by ZEFSAII (Michael W. Deem and Ramdas Pophale) SiO2 
 PCOD9270459
Probable space group: C 2/C
;
_chemical_formula_sum "Si O2"
_cell_formula_units_Z 64
_cell_length_a 18.006254
_cell_length_b 10.382918
_cell_length_c 24.334985
_cell_angle_alpha 90.000000
_cell_angle_beta 141.895785
_cell_angle_gamma 90.000000
_cell_volume 2807.534084
_symmetry_space_group_name_H-M "C 2/C"
_symmetry_group_IT_number 15
_symmetry_cell_setting 'monoclinic'
loop_
_space_group_symop_operation_xyz
x,y,z
-x,y,1/2-z
-x,-y,-z
x,-y,1/2+z
1/2+x,1/2+y,z
1/2-x,1/2+y,1/2-z
1/2-x,1/2-y,-z
1/2+x,1/2-y,1/2+z
loop_
_atom_site_type_symbol
_atom_site_label
_atom_site_fract_x
_atom_site_fract_y
_atom_site_fract_z
Si Si1 0.999578 0.129372 0.056566
Si Si2 0.404896 0.839897 0.452837
Si Si3 0.880073 0.209220 0.098552
Si Si4 0.719476 0.301472 0.148474
Si Si5 0.654215 0.446286 0.207451
Si Si6 0.192516 0.973519 0.847365
Si Si7 0.029843 0.450948 0.213486
Si Si8 0.085624 0.552035 0.134428
O O1 0.965822 0.191594 0.095704
O O2 0.101720 0.201358 0.079749
O O3 0.880518 0.138931 0.950492
O O4 0.048729 0.994953 0.106765
O O5 0.516642 0.839835 0.559424
O O6 0.294556 0.916810 0.416531
O O7 0.436367 0.929020 0.418519
O O8 0.936520 0.332537 0.160726
O O9 0.869645 0.086850 0.134307
O O10 0.750000 0.250000 0.000000
O O11 0.695211 0.316307 0.200401
O O12 0.747659 0.158066 0.142308
O O13 0.839254 0.386763 0.211302
O O14 0.624415 0.461433 0.254893
O O15 0.772445 0.537620 0.271040
O O16 0.000000 0.531751 0.250000
O O17 0.017550 0.532008 0.151418
#
# Coordination Sequence:
#
# PCOD9270459 Si02
#       8
#     8   8   8   8   8   8   8   8
#     4  12  22  38  60  87 128 158 201 254 310 372
#     4  10  20  35  59  84 120 161 199 243 310 367
#     4  12  22  34  57  93 124 155 188 254 324 367
#     4  11  22  38  54  86 124 158 206 252 304 368
#     4  10  24  34  56  83 121 162 201 252 308 354
#     4  11  22  38  58  91 128 154 198 254 316 372
#     4  11  19  32  55  83 124 152 190 250 319 363
#     4   9  18  34  51  82 114 154 200 240 297 368
#
# _framework density 22.795805000000001
#
# number of rings (size 3 to 8) (size 9 to 14) (size 15 to 20)
#    0.000    1.250    3.750    4.125    3.500    0.000 
#    0.000    0.000    0.000    0.000    0.000   26.250 
#    0.000    0.000    0.000    0.000    0.000    0.000 
#
# Total GULP energy -178258.967008 kJ/mol
# GULP energy per Si atom -5570.592719 kJ/mol
# Density = 2.274392 g / cm^3
# Si number density = 22.795805 Si / 1000 Ang^3
#
#
#
# Elastic Constant Matrix: (Units=GPa)
#
#
# Indices 1 2 3 4 5 6 
#
# 1 101.0302 5.0715 11.7206 0.0000 -25.6229 0.0000
# 2 5.0715 23.4434 15.6386 0.0000 1.2351 0.0000
# 3 11.7206 15.6386 106.6825 0.0000 -13.1086 0.0000
# 4 0.0000 0.0000 0.0000 32.3639 0.0000 -8.0822
# 5 -25.6229 1.2351 -13.1086 0.0000 25.7289 0.0000
# 6 0.0000 0.0000 0.0000 -8.0822 0.0000 37.1146
#
#
#
# Elastic Compliance Matrix: (Units=1/GPa)
#
#
# Indices 1 2 3 4 5 6 
#
# 1 0.013615 -0.004280 0.000878 0.000000 0.014212 0.000000
# 2 -0.004280 0.049566 -0.008120 0.000000 -0.010778 0.000000
# 3 0.000878 -0.008120 0.011332 0.000000 0.007038 0.000000
# 4 0.000000 0.000000 0.000000 0.032676 0.000000 0.007116
# 5 0.014212 -0.010778 0.007038 0.000000 0.057123 0.000000
# 6 0.000000 0.000000 0.000000 0.007116 0.000000 0.028493
#
#
# Mechanical properties :
#
#
# Convention : Reuss Voigt Hill
#
# Bulk Modulus (GPa) = 19.42881 32.89083 26.15982
# Shear Modulus (GPa) = 21.45861 32.28983 26.87422
#
# Velocity S-wave (km/s) = 3.07146 3.76770 3.43725
# Velocity P-wave (km/s) = 4.59564 5.77817 5.22049
#
# Compressibility (1/GPa) = 0.05146995
#
# Stress axis : x y z
#
# Youngs Moduli (GPa) = 73.44623 20.17496 88.24372
#
# Poissons Ratio (x) = 0.08634 -0.07746
# Poissons Ratio (y) = 0.31433 0.71655
# Poissons Ratio (z) = -0.06447 0.16382
#
# Static dielectric constant tensor:
#      x y z
#    x 1.979300 0.000000 0.005970 
#    y 0.000000 1.904990 0.000000 
#    z 0.005970 0.000000 1.877290 
# 
# From -- ./inp_files/300859.got.cif
#   From: 2010.05.17/outbox.cif.g08.bks.cpg/sg15_151_cif.got.tgz:300859.got - 2010.06.03 18:47:42.
