data_PCOD9270222
_publ_section_title
;
Structure prediction by ZEFSAII (Michael W. Deem and Ramdas Pophale) SiO2 
 PCOD9270222
Probable space group: C 2/C
;
_chemical_formula_sum "Si O2"
_cell_formula_units_Z 48
_cell_length_a 5.636802
_cell_length_b 27.454003
_cell_length_c 16.238877
_cell_angle_alpha 90.000000
_cell_angle_beta 121.145522
_cell_angle_gamma 90.000000
_cell_volume 2150.776903
_symmetry_space_group_name_H-M "C 2/C"
_symmetry_group_IT_number 15
_symmetry_cell_setting 'monoclinic'
loop_
_space_group_symop_operation_xyz
x,y,z
-x,y,1/2-z
-x,-y,-z
x,-y,1/2+z
1/2+x,1/2+y,z
1/2-x,1/2+y,1/2-z
1/2-x,1/2-y,-z
1/2+x,1/2-y,1/2+z
loop_
_atom_site_type_symbol
_atom_site_label
_atom_site_fract_x
_atom_site_fract_y
_atom_site_fract_z
Si Si1 0.697014 0.545965 0.530039
Si Si2 0.946210 0.811614 0.591326
Si Si3 0.332086 0.221735 0.930969
Si Si4 0.115960 0.868820 0.459876
Si Si5 0.679956 0.997328 0.700357
Si Si6 0.216511 0.597640 0.116153
O O1 0.500000 0.500000 0.500000
O O2 0.613783 0.588865 0.579378
O O3 0.637522 0.566741 0.429019
O O4 0.004090 0.525715 0.599585
O O5 0.643382 0.796721 0.503191
O O6 0.872562 0.850685 0.648306
O O7 0.131092 0.762630 0.633868
O O8 0.080954 0.840857 0.540321
O O9 0.137552 0.173673 0.894396
O O10 0.250000 0.250000 0.000000
O O11 0.415166 0.893047 0.522688
O O12 0.500000 0.006708 0.750000
O O13 0.683636 0.938762 0.685935
O O14 0.000000 0.013008 0.750000
#
# Coordination Sequence:
#
# PCOD9270222 Si02
#       6
#     8   8   8   8   8   8
#     4  11  21  37  59  80 112 165 211 247 298 367
#     4   8  15  26  47  77 114 145 176 235 308 351
#     4   8  13  25  43  78 116 143 166 242 307 343
#     4   9  17  28  53  78 110 148 196 239 296 351
#     4  12  27  40  56  83 124 164 208 262 310 358
#     4  10  20  35  57  79 110 162 202 242 302 372
#
# _framework density 22.317518
#
# number of rings (size 3 to 8) (size 9 to 14) (size 15 to 20)
#    0.000    2.333    1.667    1.500    4.667    0.000 
#    0.000    0.000    0.000    0.000    0.000    0.000 
#    0.000  173.333    0.000    0.000    0.000    0.000 
#
# Total GULP energy -133654.397396 kJ/mol
# GULP energy per Si atom -5568.933225 kJ/mol
# Density = 2.226672 g / cm^3
# Si number density = 22.317518 Si / 1000 Ang^3
#
#
#
# Elastic Constant Matrix: (Units=GPa)
#
#
# Indices 1 2 3 4 5 6 
#
# 1 77.8942 40.7171 15.6278 0.0000 6.9102 0.0000
# 2 40.7171 126.0992 25.3268 0.0000 12.9287 0.0000
# 3 15.6278 25.3268 43.9401 0.0000 4.1922 0.0000
# 4 0.0000 0.0000 0.0000 2.8169 0.0000 -4.3963
# 5 6.9102 12.9287 4.1922 0.0000 22.1479 0.0000
# 6 0.0000 0.0000 0.0000 -4.3963 0.0000 64.3582
#
#
#
# Elastic Compliance Matrix: (Units=1/GPa)
#
#
# Indices 1 2 3 4 5 6 
#
# 1 0.015864 -0.004337 -0.002966 0.000000 -0.001857 0.000000
# 2 -0.004337 0.010582 -0.004172 0.000000 -0.004035 0.000000
# 3 -0.002966 -0.004172 0.026373 0.000000 -0.001631 0.000000
# 4 0.000000 0.000000 0.000000 0.397359 0.000000 0.027144
# 5 -0.001857 -0.004035 -0.001631 0.000000 0.048394 0.000000
# 6 0.000000 0.000000 0.000000 0.027144 0.000000 0.017392
#
#
# Mechanical properties :
#
#
# Convention : Reuss Voigt Hill
#
# Bulk Modulus (GPa) = 33.47697 45.69745 39.58721
# Shear Modulus (GPa) = 9.10960 28.94871 19.02915
#
# Velocity S-wave (km/s) = 2.02254 3.60548 2.92319
# Velocity P-wave (km/s) = 4.52627 6.15249 5.40094
#
# Compressibility (1/GPa) = 0.02987128
#
# Stress axis : x y z
#
# Youngs Moduli (GPa) = 63.03390 94.49856 37.91688
#
# Poissons Ratio (x) = 0.40980 0.11245
# Poissons Ratio (y) = 0.27335 0.15820
# Poissons Ratio (z) = 0.18694 0.39427
#
# Static dielectric constant tensor:
#      x y z
#    x 1.665420 0.000000 -0.099230 
#    y 0.000000 1.690960 0.000000 
#    z -0.099230 0.000000 1.849290 
# 
# From -- ./inp_files/130363.got.cif
#   From: 2010.05.17/outbox.cif.g08.bks.cpg/sg15_66_cif.got.tgz:130363.got - 2010.06.03 18:47:42.
