data_PCOD9270917
_publ_section_title
;
Structure prediction by ZEFSAII (Michael W. Deem and Ramdas Pophale) SiO2 
 PCOD9270917
Probable space group: C 2/C
;
_chemical_formula_sum "Si O2"
_cell_formula_units_Z 40
_cell_length_a 9.930939
_cell_length_b 26.320727
_cell_length_c 8.557991
_cell_angle_alpha 90.000000
_cell_angle_beta 90.000162
_cell_angle_gamma 90.000000
_cell_volume 2236.969282
_symmetry_space_group_name_H-M "C 2/C"
_symmetry_group_IT_number 15
_symmetry_cell_setting 'monoclinic'
loop_
_space_group_symop_operation_xyz
x,y,z
-x,y,1/2-z
-x,-y,-z
x,-y,1/2+z
1/2+x,1/2+y,z
1/2-x,1/2+y,1/2-z
1/2-x,1/2-y,-z
1/2+x,1/2-y,1/2+z
loop_
_atom_site_type_symbol
_atom_site_label
_atom_site_fract_x
_atom_site_fract_y
_atom_site_fract_z
Si Si1 0.785655 0.864527 0.062224
Si Si2 0.214345 0.135474 0.562223
Si Si3 0.000001 0.781195 0.439432
Si Si4 0.500001 0.835398 0.937676
Si Si5 1.000000 0.943027 0.563491
O O1 0.785601 0.866301 0.250001
O O2 0.869559 0.813994 0.012613
O O3 0.635400 0.861353 0.998853
O O4 0.870847 0.911843 0.998491
O O5 0.364600 0.138648 0.498853
O O6 0.129153 0.088158 0.498487
O O7 0.130441 0.186008 0.512613
O O8 0.000000 0.779982 0.250000
O O9 0.000003 0.723432 0.494633
O O10 0.500000 0.835528 0.750000
O O11 0.000000 0.943011 0.750000
O O12 0.000000 0.000000 0.500000
#
# Coordination Sequence:
#
# PCOD9270917 Si02
#       5
#     8   8   8   8   8
#     4  10  20  36  55  80 111 146 184 225 268 318
#     4  10  20  36  55  80 111 146 184 225 268 318
#     4   8  17  32  52  77 110 149 189 223 261 313
#     4  11  20  32  51  81 116 150 184 224 268 315
#     4  11  22  40  63  84 104 135 176 223 273 328
#
# _framework density 17.881338
#
# number of rings (size 3 to 8) (size 9 to 14) (size 15 to 20)
#    0.000    2.000    0.000    6.000    0.000    0.000 
#    0.000   11.000    0.000    0.000    0.000    0.000 
#    0.000    0.000    0.000    0.000    0.000    0.000 
#
# Total GULP energy -111706.761077 kJ/mol
# GULP energy per Si atom -5585.338054 kJ/mol
# Density = 1.784064 g / cm^3
# Si number density = 17.881338 Si / 1000 Ang^3
#
#
#
# Elastic Constant Matrix: (Units=GPa)
#
#
# Indices 1 2 3 4 5 6 
#
# 1 197.1392 88.7539 61.2308 0.0000 8.0899 0.0000
# 2 88.7539 145.1474 49.0021 0.0000 3.7702 0.0000
# 3 61.2308 49.0021 100.0132 0.0000 1.1227 0.0000
# 4 0.0000 0.0000 0.0000 24.3675 0.0000 -2.0847
# 5 8.0899 3.7702 1.1227 0.0000 25.9728 0.0000
# 6 0.0000 0.0000 0.0000 -2.0847 0.0000 2.3891
#
#
#
# Elastic Compliance Matrix: (Units=1/GPa)
#
#
# Indices 1 2 3 4 5 6 
#
# 1 0.007702 -0.003689 -0.002888 0.000000 -0.001739 0.000000
# 2 -0.003689 0.010050 -0.002663 0.000000 -0.000195 0.000000
# 3 -0.002888 -0.002663 0.013064 0.000000 0.000721 0.000000
# 4 0.000000 0.000000 0.000000 0.044349 0.000000 0.038699
# 5 -0.001739 -0.000195 0.000721 0.000000 0.039040 0.000000
# 6 0.000000 0.000000 0.000000 0.038699 0.000000 0.452338
#
#
# Mechanical properties :
#
#
# Convention : Reuss Voigt Hill
#
# Bulk Modulus (GPa) = 81.07624 93.36370 87.21997
# Shear Modulus (GPa) = 8.48702 26.76675 17.62689
#
# Velocity S-wave (km/s) = 2.18096 3.87319 3.14310
# Velocity P-wave (km/s) = 7.19596 8.50461 7.87751
#
# Compressibility (1/GPa) = 0.01233407
#
# Stress axis : x y z
#
# Youngs Moduli (GPa) = 129.83754 99.50709 76.54880
#
# Poissons Ratio (x) = 0.36711 0.22109
# Poissons Ratio (y) = 0.47901 0.20385
# Poissons Ratio (z) = 0.37500 0.26498
#
# Static dielectric constant tensor:
#      x y z
#    x 1.589680 0.000000 -0.000520 
#    y 0.000000 1.593960 0.000000 
#    z -0.000520 0.000000 1.595210 
# 
# From -- ./inp_files/23391.got.cif
#   From: 2010.05.17/outbox.cif.g08.bks.cpg/sg15_12_cif.got.tgz:23391.got - 2010.06.03 18:47:42.
