data_PCOD9270853
_publ_section_title
;
Structure prediction by ZEFSAII (Michael W. Deem and Ramdas Pophale) SiO2 
 PCOD9270853
Probable space group: C 2/C
;
_chemical_formula_sum "Si O2"
_cell_formula_units_Z 56
_cell_length_a 18.254981
_cell_length_b 6.557195
_cell_length_c 20.908263
_cell_angle_alpha 90.000000
_cell_angle_beta 86.687563
_cell_angle_gamma 90.000000
_cell_volume 2498.568470
_symmetry_space_group_name_H-M "C 2/C"
_symmetry_group_IT_number 15
_symmetry_cell_setting 'monoclinic'
loop_
_space_group_symop_operation_xyz
x,y,z
-x,y,1/2-z
-x,-y,-z
x,-y,1/2+z
1/2+x,1/2+y,z
1/2-x,1/2+y,1/2-z
1/2-x,1/2-y,-z
1/2+x,1/2-y,1/2+z
loop_
_atom_site_type_symbol
_atom_site_label
_atom_site_fract_x
_atom_site_fract_y
_atom_site_fract_z
Si Si1 0.509669 0.564309 0.093000
Si Si2 0.800124 0.673078 0.711307
Si Si3 0.269754 0.205689 0.150121
Si Si4 0.082835 0.604681 0.223912
Si Si5 0.134634 0.591800 0.591127
Si Si6 0.891959 0.063116 0.686176
Si Si7 0.058771 0.681316 0.005893
O O1 0.578981 0.715435 0.090088
O O2 0.472322 0.504872 0.161138
O O3 0.531307 0.354607 0.056867
O O4 0.444974 0.688750 0.059021
O O5 0.752084 0.724337 0.776172
O O6 0.763400 0.538270 0.657654
O O7 0.866481 0.540412 0.735855
O O8 0.835598 0.879091 0.686054
O O9 0.213727 0.316699 0.105669
O O10 0.354478 0.274178 0.139120
O O11 0.102957 0.544568 0.151223
O O12 0.102315 0.833055 0.244829
O O13 0.000000 0.567272 0.250000
O O14 0.128215 0.442969 0.530096
O O15 0.000000 0.500000 0.000000
#
# Coordination Sequence:
#
# PCOD9270853 Si02
#       7
#     8   8   8   8   8   8   8
#     4  10  21  39  64  91 115 158 203 258 306 360
#     4  10  20  36  53  75 117 163 195 231 295 364
#     4  10  21  35  54  81 118 163 198 237 298 373
#     4  10  21  33  52  87 119 148 193 247 299 367
#     4  10  21  37  60  87 116 157 205 252 310 363
#     4  11  22  36  57  85 124 163 199 241 301 365
#     4   9  20  40  65  87 118 151 204 259 317 358
#
# _framework density 22.412835999999999
#
# number of rings (size 3 to 8) (size 9 to 14) (size 15 to 20)
#    0.000    2.000    1.429    1.714    0.000    9.714 
#    0.000    0.714    0.000    8.571    0.000    0.000 
#    0.000    0.000    0.000    0.000    0.000    0.000 
#
# Total GULP energy -156193.721432 kJ/mol
# GULP energy per Si atom -5578.347194 kJ/mol
# Density = 2.236182 g / cm^3
# Si number density = 22.412836 Si / 1000 Ang^3
#
#
#
# Elastic Constant Matrix: (Units=GPa)
#
#
# Indices 1 2 3 4 5 6 
#
# 1 63.1566 8.0233 -2.5191 0.0000 14.4115 0.0000
# 2 8.0233 128.1200 27.7331 0.0000 6.6852 0.0000
# 3 -2.5191 27.7331 34.3190 0.0000 20.1601 0.0000
# 4 0.0000 0.0000 0.0000 11.9783 0.0000 20.5193
# 5 14.4115 6.6852 20.1601 0.0000 21.1747 0.0000
# 6 0.0000 0.0000 0.0000 20.5193 0.0000 -29.0164
#
#
#
# Elastic Compliance Matrix: (Units=1/GPa)
#
#
# Indices 1 2 3 4 5 6 
#
# 1 0.034931 -0.009630 0.051112 0.000000 -0.069396 0.000000
# 2 -0.009630 0.013091 -0.028835 0.000000 0.029874 0.000000
# 3 0.051112 -0.028835 0.161733 0.000000 -0.179666 0.000000
# 4 0.000000 0.000000 0.000000 0.037752 0.000000 0.026697
# 5 -0.069396 0.029874 -0.179666 0.000000 0.256082 0.000000
# 6 0.000000 0.000000 0.000000 0.026697 0.000000 -0.015584
#
#
# Mechanical properties :
#
#
# Convention : Reuss Voigt Hill
#
# Bulk Modulus (GPa) = 4.25445 32.45224 18.35335
# Shear Modulus (GPa) = 9.24110 13.65120 11.44615
#
# Velocity S-wave (km/s) = 2.03275 2.47063 2.26231
# Velocity P-wave (km/s) = 2.72246 4.75914 3.87693
#
# Compressibility (1/GPa) = 0.23504786
#
# Stress axis : x y z
#
# Youngs Moduli (GPa) = 28.62789 76.38782 6.18303
#
# Poissons Ratio (x) = 0.73563 -0.31602
# Poissons Ratio (y) = 0.27569 0.17829
# Poissons Ratio (z) = -1.46321 2.20264
#
# Static dielectric constant tensor:
#      x y z
#    x 1.919110 0.000000 -0.000750 
#    y 0.000000 1.889130 0.000000 
#    z -0.000750 0.000000 1.875220 
# 
# From -- ./inp_files/278680.got.cif
#   From: 2010.05.17/outbox.cif.g08.bks.cpg/sg15_140_cif.got.tgz:278680.got - 2010.06.03 18:47:42.
