data_PCOD9270809
_publ_section_title
;
Structure prediction by ZEFSAII (Michael W. Deem and Ramdas Pophale) SiO2 
 PCOD9270809
Probable space group: C 2/C
;
_chemical_formula_sum "Si O2"
_cell_formula_units_Z 44
_cell_length_a 26.561699
_cell_length_b 16.764750
_cell_length_c 14.421583
_cell_angle_alpha 90.000000
_cell_angle_beta 18.641497
_cell_angle_gamma 90.000000
_cell_volume 2052.743438
_symmetry_space_group_name_H-M "C 2/C"
_symmetry_group_IT_number 15
_symmetry_cell_setting 'monoclinic'
loop_
_space_group_symop_operation_xyz
x,y,z
-x,y,1/2-z
-x,-y,-z
x,-y,1/2+z
1/2+x,1/2+y,z
1/2-x,1/2+y,1/2-z
1/2-x,1/2-y,-z
1/2+x,1/2-y,1/2+z
loop_
_atom_site_type_symbol
_atom_site_label
_atom_site_fract_x
_atom_site_fract_y
_atom_site_fract_z
Si Si1 0.410607 0.602679 0.211200
Si Si2 0.378756 0.211900 0.343810
Si Si3 0.276707 0.567256 0.947532
Si Si4 0.000000 0.839197 0.750000
Si Si5 0.677446 0.640542 0.441483
Si Si6 0.215777 0.221055 0.199056
O O1 0.294535 0.527159 0.413314
O O2 0.498852 0.610217 0.156521
O O3 0.309238 0.678670 0.356251
O O4 0.549557 0.594497 0.891946
O O5 0.250000 0.250000 0.500000
O O6 0.343740 0.117939 0.405695
O O7 0.339500 0.265421 0.501501
O O8 0.550127 0.234448 0.008032
O O9 0.242464 0.595563 0.112954
O O10 0.146606 0.781575 0.515845
O O11 0.739689 0.646450 0.229404
O O12 0.500000 0.607506 0.750000
#
# Coordination Sequence:
#
# PCOD9270809 Si02
#       6
#     8   8   8   4   8   8
#     4  11  23  40  60  93 129 167 198 262 324 380
#     4   9  16  34  63  95 113 153 214 261 296 367
#     4  10  20  35  67  92 127 150 209 266 324 359
#     4  12  28  40  60  86 130 172 212 250 326 392
#     4   9  16  32  62  93 112 155 213 256 295 367
#     4  11  22  40  66  88 124 170 218 260 308 381
#
# _framework density 21.434729000000001
#
# number of rings (size 3 to 8) (size 9 to 14) (size 15 to 20)
#    0.000    1.818    5.455    1.636    3.818    0.000 
#    0.000    0.909   14.000    0.000    0.000    0.000 
#    0.000    0.000    0.000    0.000    0.000    0.000 
#
# Total GULP energy -122475.618531 kJ/mol
# GULP energy per Si atom -5567.073570 kJ/mol
# Density = 2.138594 g / cm^3
# Si number density = 21.434729 Si / 1000 Ang^3
#
#
#
# Elastic Constant Matrix: (Units=GPa)
#
#
# Indices 1 2 3 4 5 6 
#
# 1 108.0220 33.1698 16.6037 -0.0003 -4.1955 0.0003
# 2 33.1698 121.6601 35.1421 -0.0015 -7.1242 0.0011
# 3 16.6037 35.1421 51.9348 -0.0008 -18.2458 0.0009
# 4 -0.0003 -0.0015 -0.0008 27.6021 0.0007 -5.2557
# 5 -4.1955 -7.1242 -18.2458 0.0007 23.3833 -0.0007
# 6 0.0003 0.0011 0.0009 -5.2557 -0.0007 19.4454
#
#
#
# Elastic Compliance Matrix: (Units=1/GPa)
#
#
# Indices 1 2 3 4 5 6 
#
# 1 0.010227 -0.002276 -0.001830 0.000000 -0.000286 0.000000
# 2 -0.002276 0.010894 -0.007744 0.000000 -0.003132 0.000000
# 3 -0.001830 -0.007744 0.033251 0.000000 0.023258 0.000000
# 4 0.000000 0.000000 0.000000 0.038195 -0.000001 0.010323
# 5 -0.000286 -0.003132 0.023258 -0.000001 0.059908 0.000001
# 6 0.000000 0.000000 0.000000 0.010323 0.000001 0.054216
#
#
# Mechanical properties :
#
#
# Convention : Reuss Voigt Hill
#
# Bulk Modulus (GPa) = 32.60416 50.16092 41.38254
# Shear Modulus (GPa) = 20.78025 27.19958 23.98992
#
# Velocity S-wave (km/s) = 3.11700 3.56610 3.34909
# Velocity P-wave (km/s) = 5.31020 6.35677 5.85691
#
# Compressibility (1/GPa) = 0.03067094
#
# Stress axis : x y z
#
# Youngs Moduli (GPa) = 97.78516 91.79590 30.07462
#
# Poissons Ratio (x) = 0.20897 0.05503
# Poissons Ratio (y) = 0.22260 0.23289
# Poissons Ratio (z) = 0.17891 0.71085
#
# Static dielectric constant tensor:
#      x y z
#    x 1.884630 0.000000 0.032590 
#    y 0.000000 1.842040 0.000000 
#    z 0.032590 0.000000 1.775620 
# 
# From -- ./inp_files/178777.got.cif
#   From: 2010.05.17/outbox.cif.g08.bks.cpg/sg15_90_cif.got.tgz:178777.got - 2010.06.03 18:47:42.
