data_PCOD9270234
_publ_section_title
;
Structure prediction by ZEFSAII (Michael W. Deem and Ramdas Pophale) SiO2 
 PCOD9270234
Probable space group: C 2/C
;
_chemical_formula_sum "Si O2"
_cell_formula_units_Z 52
_cell_length_a 19.301140
_cell_length_b 8.756305
_cell_length_c 29.441920
_cell_angle_alpha 90.000000
_cell_angle_beta 147.398668
_cell_angle_gamma 90.000000
_cell_volume 2680.956668
_symmetry_space_group_name_H-M "C 2/C"
_symmetry_group_IT_number 15
_symmetry_cell_setting 'monoclinic'
loop_
_space_group_symop_operation_xyz
x,y,z
-x,y,1/2-z
-x,-y,-z
x,-y,1/2+z
1/2+x,1/2+y,z
1/2-x,1/2+y,1/2-z
1/2-x,1/2-y,-z
1/2+x,1/2-y,1/2+z
loop_
_atom_site_type_symbol
_atom_site_label
_atom_site_fract_x
_atom_site_fract_y
_atom_site_fract_z
Si Si1 0.000000 0.425446 0.250000
Si Si2 0.281828 0.164447 0.689695
Si Si3 0.045544 0.647122 0.628619
Si Si4 0.571931 0.553648 0.086260
Si Si5 0.906676 0.831144 0.046396
Si Si6 0.874354 0.553825 0.092713
Si Si7 0.045109 0.614351 0.063239
O O1 0.118769 0.328944 0.296545
O O2 0.048789 0.523667 0.319065
O O3 0.358656 0.197367 0.778451
O O4 0.162481 0.276159 0.615865
O O5 0.219282 0.994675 0.659277
O O6 0.041093 0.777448 0.587475
O O7 0.092566 0.492052 0.630721
O O8 0.914440 0.585676 0.580952
O O9 0.521376 0.447355 0.099789
O O10 0.500000 0.500000 0.000000
O O11 0.914762 0.715368 0.092825
O O12 0.923570 0.715195 0.013105
O O13 0.775865 0.925987 0.978846
O O14 0.000000 0.500000 0.000000
#
# Coordination Sequence:
#
# PCOD9270234 Si02
#       7
#     4   8   8   8   8   8   8
#     4  10  20  36  58  82 110 150 188 230 284 334
#     4  10  21  37  56  81 115 144 184 233 282 340
#     4  10  20  35  57  82 110 147 181 227 285 330
#     4  11  21  35  59  85 109 143 188 231 274 334
#     4   9  19  36  54  81 112 145 186 228 276 330
#     4   9  19  36  56  77 112 149 184 227 277 335
#     4  10  20  36  58  83 113 147 188 237 282 332
#
# _framework density 19.396061
#
# number of rings (size 3 to 8) (size 9 to 14) (size 15 to 20)
#    0.000    2.154    0.000    3.692    0.000    1.846 
#    0.000    9.231    0.000    1.846    0.000    0.000 
#    0.000    0.000    0.000    0.000    0.000    0.000 
#
# Total GULP energy -144801.022656 kJ/mol
# GULP energy per Si atom -5569.270102 kJ/mol
# Density = 1.935192 g / cm^3
# Si number density = 19.396061 Si / 1000 Ang^3
#
#
#
# Elastic Constant Matrix: (Units=GPa)
#
#
# Indices 1 2 3 4 5 6 
#
# 1 133.8418 47.3262 44.6278 0.0000 18.4851 0.0000
# 2 47.3262 85.6709 25.5854 0.0000 10.0942 0.0000
# 3 44.6278 25.5854 68.2728 0.0000 0.8805 0.0000
# 4 0.0000 0.0000 0.0000 27.5682 0.0000 2.4986
# 5 18.4851 10.0942 0.8805 0.0000 24.0719 0.0000
# 6 0.0000 0.0000 0.0000 2.4986 0.0000 24.8582
#
#
#
# Elastic Compliance Matrix: (Units=1/GPa)
#
#
# Indices 1 2 3 4 5 6 
#
# 1 0.011935 -0.003861 -0.006260 0.000000 -0.007317 0.000000
# 2 -0.003861 0.015115 -0.003098 0.000000 -0.003260 0.000000
# 3 -0.006260 -0.003098 0.019831 0.000000 0.005381 0.000000
# 4 0.000000 0.000000 0.000000 0.036607 0.000000 -0.003679
# 5 -0.007317 -0.003260 0.005381 0.000000 0.048331 0.000000
# 6 0.000000 0.000000 0.000000 -0.003679 0.000000 0.040598
#
#
# Mechanical properties :
#
#
# Convention : Reuss Voigt Hill
#
# Bulk Modulus (GPa) = 48.92056 58.09604 53.50830
# Shear Modulus (GPa) = 24.31086 26.64939 25.48013
#
# Velocity S-wave (km/s) = 3.54417 3.71072 3.62840
# Velocity P-wave (km/s) = 6.48266 6.95534 6.72315
#
# Compressibility (1/GPa) = 0.02044130
#
# Stress axis : x y z
#
# Youngs Moduli (GPa) = 83.78945 66.15929 50.42677
#
# Poissons Ratio (x) = 0.25546 0.31567
# Poissons Ratio (y) = 0.32354 0.15624
# Poissons Ratio (z) = 0.52452 0.20498
#
# Static dielectric constant tensor:
#      x y z
#    x 1.735900 0.000000 -0.004960 
#    y 0.000000 1.715420 0.000000 
#    z -0.004960 0.000000 1.680720 
# 
# From -- ./inp_files/298426.got.cif
#   From: 2010.05.17/outbox.cif.g08.bks.cpg/sg15_150_cif.got.tgz:298426.got - 2010.06.03 18:47:42.
