data_PCOD9270987
_publ_section_title
;
Structure prediction by ZEFSAII (Michael W. Deem and Ramdas Pophale) SiO2 
 PCOD9270987
Probable space group: C 2/C
;
_chemical_formula_sum "Si O2"
_cell_formula_units_Z 36
_cell_length_a 27.403148
_cell_length_b 7.101040
_cell_length_c 10.446370
_cell_angle_alpha 90.000000
_cell_angle_beta 50.854114
_cell_angle_gamma 90.000000
_cell_volume 1576.495092
_symmetry_space_group_name_H-M "C 2/C"
_symmetry_group_IT_number 15
_symmetry_cell_setting 'monoclinic'
loop_
_space_group_symop_operation_xyz
x,y,z
-x,y,1/2-z
-x,-y,-z
x,-y,1/2+z
1/2+x,1/2+y,z
1/2-x,1/2+y,1/2-z
1/2-x,1/2-y,-z
1/2+x,1/2-y,1/2+z
loop_
_atom_site_type_symbol
_atom_site_label
_atom_site_fract_x
_atom_site_fract_y
_atom_site_fract_z
Si Si1 0.465052 0.557983 0.931500
Si Si2 0.831691 0.909473 0.571091
Si Si3 0.000000 0.433182 0.750000
Si Si4 0.708166 0.092551 0.692602
Si Si5 0.863629 0.491250 0.941031
O O1 0.500000 0.478439 0.750000
O O2 0.474080 0.785645 0.900651
O O3 0.500000 0.500000 0.000000
O O4 0.392786 0.499896 0.033783
O O5 0.796789 0.802532 0.744532
O O6 0.857805 0.738361 0.439617
O O7 0.779894 0.026026 0.582216
O O8 0.937265 0.541192 0.813118
O O9 0.675571 0.073282 0.610671
O O10 0.667547 0.976648 0.867606
#
# Coordination Sequence:
#
# PCOD9270987 Si02
#       5
#     8   8   4   8   8
#     4   9  18  36  57  80 110 145 182 226 271 331
#     4   9  21  36  58  81 112 147 185 221 283 324
#     4   8  18  38  56  74 114 146 180 220 288 330
#     4  10  20  36  56  83 112 144 185 223 277 328
#     4   9  20  36  57  79 109 150 181 227 280 320
#
# _framework density 22.835464999999999
#
# number of rings (size 3 to 8) (size 9 to 14) (size 15 to 20)
#    2.000    0.889    0.000    0.667    0.000    5.333 
#    0.000    2.222    0.000    0.000    0.000    0.000 
#    0.000    0.000    0.000    0.000    0.000    0.000 
#
# Total GULP energy -100344.631780 kJ/mol
# GULP energy per Si atom -5574.701766 kJ/mol
# Density = 2.278349 g / cm^3
# Si number density = 22.835465 Si / 1000 Ang^3
#
#
#
# Elastic Constant Matrix: (Units=GPa)
#
#
# Indices 1 2 3 4 5 6 
#
# 1 193.4624 39.6956 66.4240 0.0000 -23.5918 0.0000
# 2 39.6956 34.2877 14.2618 0.0000 -3.5800 0.0000
# 3 66.4240 14.2618 73.2128 0.0000 -7.2862 0.0000
# 4 0.0000 0.0000 0.0000 46.5491 0.0000 4.5957
# 5 -23.5918 -3.5800 -7.2862 0.0000 55.9422 0.0000
# 6 0.0000 0.0000 0.0000 4.5957 0.0000 15.4116
#
#
#
# Elastic Compliance Matrix: (Units=1/GPa)
#
#
# Indices 1 2 3 4 5 6 
#
# 1 0.009406 -0.007810 -0.006755 0.000000 0.002587 0.000000
# 2 -0.007810 0.038306 -0.000466 0.000000 -0.000903 0.000000
# 3 -0.006755 -0.000466 0.019849 0.000000 -0.000293 0.000000
# 4 0.000000 0.000000 0.000000 0.022134 0.000000 -0.006600
# 5 0.002587 -0.000903 -0.000293 0.000000 0.018871 0.000000
# 6 0.000000 0.000000 0.000000 -0.006600 0.000000 0.066854
#
#
# Mechanical properties :
#
#
# Convention : Reuss Voigt Hill
#
# Bulk Modulus (GPa) = 26.66719 60.19174 43.42947
# Shear Modulus (GPa) = 22.93748 35.61936 29.27842
#
# Velocity S-wave (km/s) = 3.17277 3.95375 3.58459
# Velocity P-wave (km/s) = 5.01251 6.87451 6.01599
#
# Compressibility (1/GPa) = 0.03749926
#
# Stress axis : x y z
#
# Youngs Moduli (GPa) = 106.31166 26.10530 50.37975
#
# Poissons Ratio (x) = 0.20388 0.34033
# Poissons Ratio (y) = 0.83029 0.02348
# Poissons Ratio (z) = 0.71816 0.01217
#
# Static dielectric constant tensor:
#      x y z
#    x 1.801700 0.000000 -0.046990 
#    y 0.000000 1.913770 0.000000 
#    z -0.046990 0.000000 1.891040 
# 
# From -- ./inp_files/115886.got.cif
#   From: 2010.05.17/outbox.cif.g08.bks.cpg/sg15_58_cif.got.tgz:115886.got - 2010.06.03 18:47:42.
