data_PCOD9270089
_publ_section_title
;
Structure prediction by ZEFSAII (Michael W. Deem and Ramdas Pophale) SiO2 
 PCOD9270089
Probable space group: C 2/C
;
_chemical_formula_sum "Si O2"
_cell_formula_units_Z 64
_cell_length_a 25.992638
_cell_length_b 9.044306
_cell_length_c 14.741970
_cell_angle_alpha 90.000000
_cell_angle_beta 111.764629
_cell_angle_gamma 90.000000
_cell_volume 3218.574359
_symmetry_space_group_name_H-M "C 2/C"
_symmetry_group_IT_number 15
_symmetry_cell_setting 'monoclinic'
loop_
_space_group_symop_operation_xyz
x,y,z
-x,y,1/2-z
-x,-y,-z
x,-y,1/2+z
1/2+x,1/2+y,z
1/2-x,1/2+y,1/2-z
1/2-x,1/2-y,-z
1/2+x,1/2-y,1/2+z
loop_
_atom_site_type_symbol
_atom_site_label
_atom_site_fract_x
_atom_site_fract_y
_atom_site_fract_z
Si Si1 0.960183 0.317503 0.507575
Si Si2 0.194643 0.920098 0.816418
Si Si3 0.723406 0.409714 0.490651
Si Si4 0.678689 0.102923 0.879817
Si Si5 0.072953 0.609541 0.121484
Si Si6 0.147837 0.829549 0.602503
Si Si7 0.314053 0.000553 0.322847
Si Si8 0.940312 0.520573 0.186171
O O1 0.946758 0.444086 0.423539
O O2 0.916170 0.188960 0.464665
O O3 0.948847 0.387542 0.599712
O O4 0.025729 0.286299 0.549323
O O5 0.189649 0.775110 0.874786
O O6 0.154455 0.900708 0.705396
O O7 0.255841 0.935434 0.814448
O O8 0.187621 0.057890 0.877910
O O9 0.750000 0.250000 0.500000
O O10 0.774984 0.523271 0.529656
O O11 0.684542 0.414443 0.553045
O O12 0.614867 0.075511 0.864793
O O13 0.686190 0.032228 0.784570
O O14 0.135484 0.613574 0.126819
O O15 0.072024 0.614521 0.230203
O O16 0.172167 0.660097 0.624268
O O17 0.000000 0.447103 0.250000
#
# Coordination Sequence:
#
# PCOD9270089 Si02
#       8
#     8   8   8   8   8   8   8   8
#     4   9  16  31  53  80 114 147 183 241 296 336
#     4  11  22  36  55  80 119 156 181 238 287 339
#     4  12  22  35  55  81 113 154 200 227 286 349
#     4  10  21  35  52  83 119 144 192 234 282 349
#     4   8  16  28  50  82 115 139 188 239 293 329
#     4  10  20  35  55  81 116 148 191 233 289 346
#     4   9  17  34  54  81 118 149 181 236 284 339
#     4   9  17  31  53  82 116 146 187 245 293 325
#
# _framework density 19.88458
#
# number of rings (size 3 to 8) (size 9 to 14) (size 15 to 20)
#    0.000    2.250    2.500    1.875    1.750    0.000 
#    0.000    0.000    0.000    0.000    0.000   13.125 
#    0.000    0.000    0.000    0.000    0.000    0.000 
#
# Total GULP energy -178423.623998 kJ/mol
# GULP energy per Si atom -5575.738250 kJ/mol
# Density = 1.983932 g / cm^3
# Si number density = 19.884580 Si / 1000 Ang^3
#
#
#
# Elastic Constant Matrix: (Units=GPa)
#
#
# Indices 1 2 3 4 5 6 
#
# 1 64.8526 10.9364 27.0139 0.0000 16.4134 0.0000
# 2 10.9364 31.1477 27.6432 0.0000 3.5754 0.0000
# 3 27.0139 27.6432 98.7567 0.0000 0.5533 0.0000
# 4 0.0000 0.0000 0.0000 25.0463 0.0000 -0.1672
# 5 16.4134 3.5754 0.5533 0.0000 29.2020 0.0000
# 6 0.0000 0.0000 0.0000 -0.1672 0.0000 9.4921
#
#
#
# Elastic Compliance Matrix: (Units=1/GPa)
#
#
# Indices 1 2 3 4 5 6 
#
# 1 0.020699 -0.001322 -0.005228 0.000000 -0.011373 0.000000
# 2 -0.001322 0.043545 -0.011803 0.000000 -0.004365 0.000000
# 3 -0.005228 -0.011803 0.014837 0.000000 0.004102 0.000000
# 4 0.000000 0.000000 0.000000 0.039931 0.000000 0.000703
# 5 -0.011373 -0.004365 0.004102 0.000000 0.041093 0.000000
# 6 0.000000 0.000000 0.000000 0.000703 0.000000 0.105363
#
#
# Mechanical properties :
#
#
# Convention : Reuss Voigt Hill
#
# Bulk Modulus (GPa) = 23.59913 36.21601 29.90757
# Shear Modulus (GPa) = 15.80786 21.35897 18.58342
#
# Velocity S-wave (km/s) = 2.82260 3.28097 3.06038
# Velocity P-wave (km/s) = 4.74516 5.71014 5.24987
#
# Compressibility (1/GPa) = 0.04237445
#
# Stress axis : x y z
#
# Youngs Moduli (GPa) = 48.31230 22.96472 67.40045
#
# Poissons Ratio (x) = 0.03037 0.35237
# Poissons Ratio (y) = 0.06388 0.79550
# Poissons Ratio (z) = 0.25258 0.27104
#
# Static dielectric constant tensor:
#      x y z
#    x 1.733390 0.000000 0.016200 
#    y 0.000000 1.681600 0.000000 
#    z 0.016200 0.000000 1.781830 
# 
# From -- ./inp_files/176654.got.cif
#   From: 2010.05.17/outbox.cif.g08.bks.cpg/sg15_89_cif.got.tgz:176654.got - 2010.06.03 18:47:42.
