data_PCOD9270698
_publ_section_title
;
Structure prediction by ZEFSAII (Michael W. Deem and Ramdas Pophale) SiO2 
 PCOD9270698
Probable space group: C 2/C
;
_chemical_formula_sum "Si O2"
_cell_formula_units_Z 52
_cell_length_a 8.448602
_cell_length_b 18.680430
_cell_length_c 17.346009
_cell_angle_alpha 90.000000
_cell_angle_beta 81.036939
_cell_angle_gamma 90.000000
_cell_volume 2704.179207
_symmetry_space_group_name_H-M "C 2/C"
_symmetry_group_IT_number 15
_symmetry_cell_setting 'monoclinic'
loop_
_space_group_symop_operation_xyz
x,y,z
-x,y,1/2-z
-x,-y,-z
x,-y,1/2+z
1/2+x,1/2+y,z
1/2-x,1/2+y,1/2-z
1/2-x,1/2-y,-z
1/2+x,1/2-y,1/2+z
loop_
_atom_site_type_symbol
_atom_site_label
_atom_site_fract_x
_atom_site_fract_y
_atom_site_fract_z
Si Si1 0.414915 0.605365 0.547779
Si Si2 0.032711 0.973458 0.620827
Si Si3 0.500000 0.879317 0.750000
Si Si4 0.607888 0.030173 0.380664
Si Si5 0.552429 0.893769 0.049521
Si Si6 0.912178 0.237453 0.034274
Si Si7 0.141527 0.155144 0.300600
O O1 0.494989 0.556175 0.606976
O O2 0.445457 0.563695 0.464655
O O3 0.226079 0.607089 0.575049
O O4 0.482479 0.683996 0.526455
O O5 0.203059 0.964001 0.649125
O O6 0.897409 0.927447 0.673347
O O7 0.494275 0.929994 0.675830
O O8 0.671705 0.838212 0.738322
O O9 0.573123 0.070611 0.463642
O O10 0.561759 0.947565 0.395601
O O11 0.491313 0.813941 0.043275
O O12 0.882605 0.199925 0.118974
O O13 0.750000 0.250000 0.000000
O O14 0.000000 0.174837 0.250000
#
# Coordination Sequence:
#
# PCOD9270698 Si02
#       7
#     8   8   4   8   8   8   8
#     4   9  18  32  59  88 117 153 193 249 302 351
#     4   9  17  35  58  87 120 151 195 249 297 350
#     4  12  22  38  64  90 118 160 208 248 308 374
#     4  10  20  35  62  90 119 154 204 251 299 362
#     4  10  20  37  58  90 120 155 202 253 300 360
#     4  11  22  38  60  89 123 161 205 257 310 364
#     4  11  23  41  62  88 124 165 203 251 311 376
#
# _framework density 19.229495
#
# number of rings (size 3 to 8) (size 9 to 14) (size 15 to 20)
#    0.000    1.846    1.538    3.231    0.000    4.923 
#    4.154    0.000    0.000    0.000    2.000    0.000 
#    0.000    0.000    0.000    0.000    0.000    0.000 
#
# Total GULP energy -145047.404074 kJ/mol
# GULP energy per Si atom -5578.746311 kJ/mol
# Density = 1.918573 g / cm^3
# Si number density = 19.229495 Si / 1000 Ang^3
#
#
#
# Elastic Constant Matrix: (Units=GPa)
#
#
# Indices 1 2 3 4 5 6 
#
# 1 118.3070 29.4244 28.1072 0.0000 6.5978 0.0000
# 2 29.4244 111.4884 13.1680 0.0000 -5.5036 0.0000
# 3 28.1072 13.1680 52.5915 0.0000 13.4335 0.0000
# 4 0.0000 0.0000 0.0000 15.9035 0.0000 0.2424
# 5 6.5978 -5.5036 13.4335 0.0000 32.6195 0.0000
# 6 0.0000 0.0000 0.0000 0.2424 0.0000 24.5411
#
#
#
# Elastic Compliance Matrix: (Units=1/GPa)
#
#
# Indices 1 2 3 4 5 6 
#
# 1 0.010142 -0.002135 -0.004772 0.000000 -0.000447 0.000000
# 2 -0.002135 0.009928 -0.002104 0.000000 0.002974 0.000000
# 3 -0.004772 -0.002104 0.024514 0.000000 -0.009486 0.000000
# 4 0.000000 0.000000 0.000000 0.062889 0.000000 -0.000621
# 5 -0.000447 0.002974 -0.009486 0.000000 0.035155 0.000000
# 6 0.000000 0.000000 0.000000 -0.000621 0.000000 0.040754
#
#
# Mechanical properties :
#
#
# Convention : Reuss Voigt Hill
#
# Bulk Modulus (GPa) = 37.64697 47.08734 42.36715
# Shear Modulus (GPa) = 23.78011 28.72530 26.25270
#
# Velocity S-wave (km/s) = 3.52041 3.86918 3.69891
# Velocity P-wave (km/s) = 6.01204 6.67090 6.35002
#
# Compressibility (1/GPa) = 0.02656256
#
# Stress axis : x y z
#
# Youngs Moduli (GPa) = 98.59785 100.72101 40.79221
#
# Poissons Ratio (x) = 0.21506 0.19465
# Poissons Ratio (y) = 0.21053 0.08584
# Poissons Ratio (z) = 0.47048 0.21195
#
# Static dielectric constant tensor:
#      x y z
#    x 1.753740 0.000000 0.027140 
#    y 0.000000 1.702320 0.000000 
#    z 0.027140 0.000000 1.698770 
# 
# From -- ./inp_files/190444.got.cif
#   From: 2010.05.17/outbox.cif.g08.bks.cpg/sg15_96_cif.got.tgz:190444.got - 2010.06.03 18:47:42.
