data_PCOD9270064
_publ_section_title
;
Structure prediction by ZEFSAII (Michael W. Deem and Ramdas Pophale) SiO2 
 PCOD9270064
Probable space group: C 2/C
;
_chemical_formula_sum "Si O2"
_cell_formula_units_Z 48
_cell_length_a 15.363037
_cell_length_b 17.735312
_cell_length_c 30.906270
_cell_angle_alpha 90.000000
_cell_angle_beta 161.671900
_cell_angle_gamma 90.000000
_cell_volume 2648.044162
_symmetry_space_group_name_H-M "C 2/C"
_symmetry_group_IT_number 15
_symmetry_cell_setting 'monoclinic'
loop_
_space_group_symop_operation_xyz
x,y,z
-x,y,1/2-z
-x,-y,-z
x,-y,1/2+z
1/2+x,1/2+y,z
1/2-x,1/2+y,1/2-z
1/2-x,1/2-y,-z
1/2+x,1/2-y,1/2+z
loop_
_atom_site_type_symbol
_atom_site_label
_atom_site_fract_x
_atom_site_fract_y
_atom_site_fract_z
Si Si1 0.157360 0.786388 0.370818
Si Si2 0.852755 0.642423 0.227645
Si Si3 0.504353 0.001655 0.855009
Si Si4 0.742285 0.139776 0.913487
Si Si5 0.530013 0.409998 0.378705
Si Si6 0.836483 0.189939 0.867279
O O1 0.113725 0.861709 0.376876
O O2 0.477700 0.758171 0.526065
O O3 0.000000 0.792877 0.250000
O O4 0.000829 0.714675 0.318241
O O5 0.890127 0.567297 0.272578
O O6 0.000000 0.631766 0.250000
O O7 0.531628 0.661985 0.071017
O O8 0.640297 0.063243 0.887342
O O9 0.732110 0.966935 0.994054
O O10 0.253283 0.043695 0.760207
O O11 0.815369 0.131074 0.897300
O O12 0.489739 0.199854 0.797668
O O13 0.474834 0.350833 0.391901
#
# Coordination Sequence:
#
# PCOD9270064 Si02
#       6
#     8   8   8   8   8   8
#     4  11  22  41  61  83 111 164 200 239 286 342
#     4  11  20  33  58  87 123 155 186 226 294 354
#     4  11  22  35  59  89 124 154 186 238 288 356
#     4  10  20  35  54  92 124 149 184 226 294 364
#     4  11  23  38  59  88 120 152 197 241 292 339
#     4  10  20  35  59  87 126 148 181 237 290 355
#
# _framework density 18.126584999999999
#
# number of rings (size 3 to 8) (size 9 to 14) (size 15 to 20)
#    0.000    1.333    6.667    0.500    4.667    1.333 
#    0.000    5.833    0.000    0.000    0.000    0.000 
#    0.000    0.000    0.000    0.000    0.000    0.000 
#
# Total GULP energy -133732.923151 kJ/mol
# GULP energy per Si atom -5572.205131 kJ/mol
# Density = 1.808533 g / cm^3
# Si number density = 18.126585 Si / 1000 Ang^3
#
#
#
# Elastic Constant Matrix: (Units=GPa)
#
#
# Indices 1 2 3 4 5 6 
#
# 1 58.2942 46.9457 40.5581 0.0054 2.1153 -0.0071
# 2 46.9457 65.0749 27.0589 0.0130 8.2063 -0.0039
# 3 40.5581 27.0589 133.5322 0.0122 21.8700 -0.0330
# 4 0.0054 0.0130 0.0122 0.2870 -0.0185 -7.3247
# 5 2.1153 8.2063 21.8700 -0.0185 12.3452 0.0044
# 6 -0.0071 -0.0039 -0.0330 -7.3247 0.0044 23.6334
#
#
#
# Elastic Compliance Matrix: (Units=1/GPa)
#
#
# Indices 1 2 3 4 5 6 
#
# 1 0.066260 -0.046497 -0.019590 -0.000656 0.054258 -0.000228
# 2 -0.046497 0.049880 0.011468 0.000625 -0.045505 0.000212
# 3 -0.019590 0.011468 0.016642 0.000344 -0.033748 0.000132
# 4 -0.000656 0.000625 0.000344 -0.504242 -0.001610 -0.156279
# 5 0.054258 -0.045505 -0.033748 -0.001610 0.161739 -0.000567
# 6 -0.000228 0.000212 0.000132 -0.156279 -0.000567 -0.006123
#
#
# Mechanical properties :
#
#
# Convention : Reuss Voigt Hill
#
# Bulk Modulus (GPa) = 42.47201 54.00296 48.23749
# Shear Modulus (GPa) = -50.63005 16.74237 -16.94384
#
# Velocity S-wave (km/s) = -5.29075 3.04244 -3.06069
# Velocity P-wave (km/s) = 3.72035 6.49605 3.76548
#
# Compressibility (1/GPa) = 0.02354492
#
# Stress axis : x y z
#
# Youngs Moduli (GPa) = 15.09199 20.04795 60.08775
#
# Poissons Ratio (x) = 0.93218 1.17709
# Poissons Ratio (y) = 0.70174 -0.68908
# Poissons Ratio (z) = 0.29565 -0.22991
#
# Static dielectric constant tensor:
#      x y z
#    x 1.629860 0.000000 -0.005650 
#    y 0.000000 1.593400 -0.000010 
#    z -0.005650 -0.000010 1.705330 
# 
# From -- ./inp_files/314157.got.cif
#   From: 2010.05.17/outbox.cif.g08.bks.cpg/sg15_158_cif.got.tgz:314157.got - 2010.06.03 18:47:42.
