data_PCOD9270144
_publ_section_title
;
Structure prediction by ZEFSAII (Michael W. Deem and Ramdas Pophale) SiO2 
 PCOD9270144
Probable space group: C 2/C
;
_chemical_formula_sum "Si O2"
_cell_formula_units_Z 56
_cell_length_a 13.970824
_cell_length_b 28.111966
_cell_length_c 14.701331
_cell_angle_alpha 90.000000
_cell_angle_beta 155.970620
_cell_angle_gamma 90.000000
_cell_volume 2351.164610
_symmetry_space_group_name_H-M "C 2/C"
_symmetry_group_IT_number 15
_symmetry_cell_setting 'monoclinic'
loop_
_space_group_symop_operation_xyz
x,y,z
-x,y,1/2-z
-x,-y,-z
x,-y,1/2+z
1/2+x,1/2+y,z
1/2-x,1/2+y,1/2-z
1/2-x,1/2-y,-z
1/2+x,1/2-y,1/2+z
loop_
_atom_site_type_symbol
_atom_site_label
_atom_site_fract_x
_atom_site_fract_y
_atom_site_fract_z
Si Si1 0.500000 0.009358 0.250000
Si Si2 0.536941 0.356840 0.418550
Si Si3 0.114515 0.288648 0.048309
Si Si4 0.968033 0.958557 0.116128
Si Si5 0.737554 0.640233 0.293056
Si Si6 0.500000 0.184825 0.250000
Si Si7 0.673920 0.968754 0.587898
Si Si8 0.986541 0.231492 0.364936
O O1 0.606927 0.978151 0.424254
O O2 0.689889 0.041883 0.362610
O O3 0.367576 0.312662 0.259324
O O4 0.415107 0.407757 0.297895
O O5 0.624751 0.362810 0.596434
O O6 0.766208 0.347077 0.556069
O O7 0.099792 0.244889 0.106274
O O8 0.970160 0.328430 0.980005
O O9 0.020569 0.285913 0.862576
O O10 0.000000 0.965227 0.250000
O O11 0.080389 0.005650 0.173216
O O12 0.801084 0.587469 0.378674
O O13 0.559419 0.675486 0.191866
O O14 0.500000 0.000000 0.500000
O O15 0.270365 0.244001 0.616746
#
# Coordination Sequence:
#
# PCOD9270144 Si02
#       8
#     4   8   8   8   8   4   8   8
#     4  10  23  42  58  88 134 170 212 274 333 394
#     4  11  19  34  53  81 114 161 211 261 317 385
#     4  10  20  35  56  81 118 160 211 266 328 389
#     4  10  21  36  58  85 126 167 211 264 324 392
#     4  10  22  36  57  85 115 154 209 264 322 391
#     4  10  21  32  52  80 116 164 218 262 317 392
#     4  11  23  40  63  97 128 169 222 270 336 403
#     4  10  20  40  60  85 121 162 210 277 330 395
#
# _framework density 23.817983000000002
#
# number of rings (size 3 to 8) (size 9 to 14) (size 15 to 20)
#    0.000    1.714    1.429    3.429    0.000    8.000 
#    0.000    6.429    0.000    0.000    0.000    4.000 
#    0.000    0.000    0.000    0.000    0.000    0.000 
#
# Total GULP energy -156101.451600 kJ/mol
# GULP energy per Si atom -5575.051843 kJ/mol
# Density = 2.376377 g / cm^3
# Si number density = 23.817983 Si / 1000 Ang^3
#
#
#
# Elastic Constant Matrix: (Units=GPa)
#
#
# Indices 1 2 3 4 5 6 
#
# 1 33.3321 20.6572 18.6825 -0.0003 -25.3446 -0.0001
# 2 20.6572 182.3147 32.2630 -0.0001 -5.3971 0.0000
# 3 18.6825 32.2630 88.0108 -0.0004 -1.2593 -0.0007
# 4 -0.0003 -0.0001 -0.0004 26.4872 -0.0002 -6.3769
# 5 -25.3446 -5.3971 -1.2593 -0.0002 46.8426 0.0000
# 6 -0.0001 0.0000 -0.0007 -6.3769 0.0000 19.4216
#
#
#
# Elastic Compliance Matrix: (Units=1/GPa)
#
#
# Indices 1 2 3 4 5 6 
#
# 1 0.065779 -0.004321 -0.011882 0.000001 0.034773 0.000000
# 2 -0.004321 0.006167 -0.001367 0.000000 -0.001664 0.000000
# 3 -0.011882 -0.001367 0.014297 0.000000 -0.006202 0.000001
# 4 0.000001 0.000000 0.000000 0.040995 0.000001 0.013460
# 5 0.034773 -0.001664 -0.006202 0.000001 0.039804 0.000000
# 6 0.000000 0.000000 0.000001 0.013460 0.000000 0.055909
#
#
# Mechanical properties :
#
#
# Convention : Reuss Voigt Hill
#
# Bulk Modulus (GPa) = 19.56844 49.65146 34.60995
# Shear Modulus (GPa) = 18.17362 34.02060 26.09711
#
# Velocity S-wave (km/s) = 2.76528 3.78346 3.31371
# Velocity P-wave (km/s) = 4.29294 6.32278 5.40402
#
# Compressibility (1/GPa) = 0.05110271
#
# Stress axis : x y z
#
# Youngs Moduli (GPa) = 15.20253 162.14460 69.94510
#
# Poissons Ratio (x) = 0.70064 0.83106
# Poissons Ratio (y) = 0.06569 0.09564
# Poissons Ratio (z) = 0.18063 0.22171
#
# Static dielectric constant tensor:
#      x y z
#    x 1.981240 0.000000 0.086870 
#    y 0.000000 2.144570 0.000000 
#    z 0.086870 0.000000 2.093930 
# 
# From -- ./inp_files/212315.got.cif
#   From: 2010.05.17/outbox.cif.g08.bks.cpg/sg15_107_cif.got.tgz:212315.got - 2010.06.03 18:47:42.
