data_PCOD9270108
_publ_section_title
;
Structure prediction by ZEFSAII (Michael W. Deem and Ramdas Pophale) SiO2 
 PCOD9270108
Probable space group: C 2/C
;
_chemical_formula_sum "Si O2"
_cell_formula_units_Z 40
_cell_length_a 5.213453
_cell_length_b 17.732766
_cell_length_c 22.645703
_cell_angle_alpha 90.000000
_cell_angle_beta 61.686191
_cell_angle_gamma 90.000000
_cell_volume 1843.102837
_symmetry_space_group_name_H-M "C 2/C"
_symmetry_group_IT_number 15
_symmetry_cell_setting 'monoclinic'
loop_
_space_group_symop_operation_xyz
x,y,z
-x,y,1/2-z
-x,-y,-z
x,-y,1/2+z
1/2+x,1/2+y,z
1/2-x,1/2+y,1/2-z
1/2-x,1/2-y,-z
1/2+x,1/2-y,1/2+z
loop_
_atom_site_type_symbol
_atom_site_label
_atom_site_fract_x
_atom_site_fract_y
_atom_site_fract_z
Si Si1 0.660840 0.721896 0.412900
Si Si2 0.744218 0.915980 0.116158
Si Si3 0.075799 0.375466 0.470154
Si Si4 0.657745 0.761659 0.173684
Si Si5 0.735387 0.555021 0.442518
O O1 0.560411 0.784629 0.472052
O O2 0.494392 0.733648 0.369653
O O3 0.614193 0.637008 0.439557
O O4 0.004459 0.737081 0.364638
O O5 0.593674 0.896815 0.069991
O O6 0.629076 0.853095 0.173364
O O7 0.087376 0.897665 0.077794
O O8 0.685276 0.005708 0.123842
O O9 0.014883 0.422014 0.536885
O O10 0.500000 0.734318 0.250000
O O11 0.500000 0.500000 0.500000
#
# Coordination Sequence:
#
# PCOD9270108 Si02
#       5
#     8   8   8   8   8
#     4  10  21  35  58  84 107 143 189 219 266 335
#     4   9  19  33  54  79 106 140 180 215 266 322
#     4   9  18  33  52  80 112 145 173 209 261 325
#     4  10  21  40  58  75 103 143 189 237 269 305
#     4  10  20  35  55  84 120 145 169 220 277 333
#
# _framework density 21.702532999999999
#
# number of rings (size 3 to 8) (size 9 to 14) (size 15 to 20)
#    0.000    2.400    0.000    1.800    0.000    6.400 
#    0.000   14.000    0.000    0.000    0.000    0.000 
#    0.000    0.000    0.000    0.000    0.000    0.000 
#
# Total GULP energy -111489.027005 kJ/mol
# GULP energy per Si atom -5574.451350 kJ/mol
# Density = 2.165314 g / cm^3
# Si number density = 21.702533 Si / 1000 Ang^3
#
#
#
# Elastic Constant Matrix: (Units=GPa)
#
#
# Indices 1 2 3 4 5 6 
#
# 1 147.0980 20.5181 31.8743 0.0000 12.9624 0.0000
# 2 20.5181 170.8729 23.4848 0.0000 4.5280 0.0000
# 3 31.8743 23.4848 63.9637 0.0000 4.7749 0.0000
# 4 0.0000 0.0000 0.0000 20.2817 0.0000 -0.0016
# 5 12.9624 4.5280 4.7749 0.0000 15.7027 0.0000
# 6 0.0000 0.0000 0.0000 -0.0016 0.0000 25.9881
#
#
#
# Elastic Compliance Matrix: (Units=1/GPa)
#
#
# Indices 1 2 3 4 5 6 
#
# 1 0.008089 -0.000345 -0.003492 0.000000 -0.005516 0.000000
# 2 -0.000345 0.006197 -0.002037 0.000000 -0.000883 0.000000
# 3 -0.003492 -0.002037 0.018278 0.000000 -0.002088 0.000000
# 4 0.000000 0.000000 0.000000 0.049306 0.000000 0.000003
# 5 -0.005516 -0.000883 -0.002088 0.000000 0.069126 0.000000
# 6 0.000000 0.000000 0.000000 0.000003 0.000000 0.038479
#
#
# Mechanical properties :
#
#
# Convention : Reuss Voigt Hill
#
# Bulk Modulus (GPa) = 48.04394 59.29877 53.67135
# Shear Modulus (GPa) = 24.01959 32.79833 28.40896
#
# Velocity S-wave (km/s) = 3.33042 3.89172 3.62196
# Velocity P-wave (km/s) = 6.08066 6.89759 6.50197
#
# Compressibility (1/GPa) = 0.02081428
#
# Stress axis : x y z
#
# Youngs Moduli (GPa) = 123.62182 161.36407 54.71015
#
# Poissons Ratio (x) = 0.05570 0.19107
# Poissons Ratio (y) = 0.04267 0.11147
# Poissons Ratio (z) = 0.43175 0.32877
#
# Static dielectric constant tensor:
#      x y z
#    x 1.845620 0.000000 -0.022670 
#    y 0.000000 1.947720 0.000000 
#    z -0.022670 0.000000 1.841790 
# 
# From -- ./inp_files/226760.got.cif
#   From: 2010.05.17/outbox.cif.g08.bks.cpg/sg15_114_cif.got.tgz:226760.got - 2010.06.03 18:47:42.
