data_PCOD9270317
_publ_section_title
;
Structure prediction by ZEFSAII (Michael W. Deem and Ramdas Pophale) SiO2 
 PCOD9270317
Probable space group: C 2/C
;
_chemical_formula_sum "Si O2"
_cell_formula_units_Z 52
_cell_length_a 10.124676
_cell_length_b 10.064345
_cell_length_c 28.537270
_cell_angle_alpha 90.000000
_cell_angle_beta 56.941734
_cell_angle_gamma 90.000000
_cell_volume 2437.156103
_symmetry_space_group_name_H-M "C 2/C"
_symmetry_group_IT_number 15
_symmetry_cell_setting 'monoclinic'
loop_
_space_group_symop_operation_xyz
x,y,z
-x,y,1/2-z
-x,-y,-z
x,-y,1/2+z
1/2+x,1/2+y,z
1/2-x,1/2+y,1/2-z
1/2-x,1/2-y,-z
1/2+x,1/2-y,1/2+z
loop_
_atom_site_type_symbol
_atom_site_label
_atom_site_fract_x
_atom_site_fract_y
_atom_site_fract_z
Si Si1 0.270398 0.043797 0.498989
Si Si2 0.500000 0.706418 0.250000
Si Si3 0.196356 0.005780 0.657417
Si Si4 0.024044 0.008074 0.377957
Si Si5 0.089995 0.653780 0.459656
Si Si6 0.247906 0.568608 0.592133
Si Si7 0.919725 0.306740 0.166738
O O1 0.365665 0.911561 0.498922
O O2 0.229064 0.040648 0.452443
O O3 0.108996 0.033563 0.558735
O O4 0.402587 0.152485 0.486553
O O5 0.365391 0.612733 0.298129
O O6 0.421889 0.784942 0.222142
O O7 0.270059 0.124610 0.672481
O O8 0.321001 0.940275 0.596258
O O9 0.043889 0.050979 0.656922
O O10 0.037993 0.165334 0.365238
O O11 0.186028 0.963778 0.369551
O O12 0.163714 0.798133 0.441408
O O13 0.064284 0.595991 0.629121
#
# Coordination Sequence:
#
# PCOD9270317 Si02
#       7
#     8   4   8   8   8   8   8
#     4  10  20  35  57  94 126 165 206 235 293 356
#     4  10  22  42  64  92 108 150 208 252 316 360
#     4  10  21  44  62  87 123 154 196 256 310 358
#     4  10  24  38  59  96 125 163 204 237 296 365
#     4  10  20  35  62  89 123 168 200 243 300 352
#     4  12  21  37  63  88 127 161 203 247 288 357
#     4  11  23  43  66  86 120 158 195 259 306 361
#
# _framework density 21.336344
#
# number of rings (size 3 to 8) (size 9 to 14) (size 15 to 20)
#    0.000    1.538    6.154    0.923    0.000    4.308 
#    0.000    0.000    0.000    0.000    0.000    0.000 
#    0.000    0.000    0.000    0.000    0.000    0.000 
#
# Total GULP energy -145179.496458 kJ/mol
# GULP energy per Si atom -5583.826787 kJ/mol
# Density = 2.128778 g / cm^3
# Si number density = 21.336344 Si / 1000 Ang^3
#
#
#
# Elastic Constant Matrix: (Units=GPa)
#
#
# Indices 1 2 3 4 5 6 
#
# 1 113.1828 32.5564 13.1798 0.0000 27.7657 0.0000
# 2 32.5564 31.0154 11.4930 0.0000 11.0074 0.0000
# 3 13.1798 11.4930 63.2017 0.0000 22.0627 0.0000
# 4 0.0000 0.0000 0.0000 13.2593 0.0000 8.6289
# 5 27.7657 11.0074 22.0627 0.0000 23.0541 0.0000
# 6 0.0000 0.0000 0.0000 8.6289 0.0000 33.7276
#
#
#
# Elastic Compliance Matrix: (Units=1/GPa)
#
#
# Indices 1 2 3 4 5 6 
#
# 1 0.016516 -0.012580 0.005542 0.000000 -0.019188 0.000000
# 2 -0.012580 0.048435 -0.005106 0.000000 -0.003088 0.000000
# 3 0.005542 -0.005106 0.025640 0.000000 -0.028773 0.000000
# 4 0.000000 0.000000 0.000000 0.090484 0.000000 -0.023149
# 5 -0.019188 -0.003088 -0.028773 0.000000 0.095496 0.000000
# 6 0.000000 0.000000 0.000000 -0.023149 0.000000 0.035572
#
#
# Mechanical properties :
#
#
# Convention : Reuss Voigt Hill
#
# Bulk Modulus (GPa) = 15.08261 35.76203 25.42232
# Shear Modulus (GPa) = 13.94576 24.01957 18.98267
#
# Velocity S-wave (km/s) = 2.55936 3.35887 2.98600
# Velocity P-wave (km/s) = 3.97720 5.64271 4.88151
#
# Compressibility (1/GPa) = 0.06630152
#
# Stress axis : x y z
#
# Youngs Moduli (GPa) = 60.54877 20.64615 39.00225
#
# Poissons Ratio (x) = 0.25973 -0.21614
# Poissons Ratio (y) = 0.76169 0.19916
# Poissons Ratio (z) = -0.33554 0.10543
#
# Static dielectric constant tensor:
#      x y z
#    x 1.790470 0.000000 0.011190 
#    y 0.000000 1.775000 0.000000 
#    z 0.011190 0.000000 1.799720 
# 
# From -- ./inp_files/287741.got.cif
#   From: 2010.05.17/outbox.cif.g08.bks.cpg/sg15_144_cif.got.tgz:287741.got - 2010.06.03 18:47:42.
