data_PCOD9270749
_publ_section_title
;
Structure prediction by ZEFSAII (Michael W. Deem and Ramdas Pophale) SiO2 
 PCOD9270749
Probable space group: C 2/C
;
_chemical_formula_sum "Si O2"
_cell_formula_units_Z 64
_cell_length_a 22.324122
_cell_length_b 10.552819
_cell_length_c 23.271063
_cell_angle_alpha 90.000000
_cell_angle_beta 35.257898
_cell_angle_gamma 90.000000
_cell_volume 3164.673240
_symmetry_space_group_name_H-M "C 2/C"
_symmetry_group_IT_number 15
_symmetry_cell_setting 'monoclinic'
loop_
_space_group_symop_operation_xyz
x,y,z
-x,y,1/2-z
-x,-y,-z
x,-y,1/2+z
1/2+x,1/2+y,z
1/2-x,1/2+y,1/2-z
1/2-x,1/2-y,-z
1/2+x,1/2-y,1/2+z
loop_
_atom_site_type_symbol
_atom_site_label
_atom_site_fract_x
_atom_site_fract_y
_atom_site_fract_z
Si Si1 0.209430 0.561243 0.661706
Si Si2 0.681781 0.448225 0.721125
Si Si3 0.038280 0.910151 0.416801
Si Si4 0.125334 0.724120 0.430364
Si Si5 0.756761 0.923259 0.441023
Si Si6 0.154790 0.347022 0.080336
Si Si7 0.536572 0.798240 0.341267
Si Si8 0.835375 0.851422 0.504808
O O1 0.302576 0.658151 0.603858
O O2 0.158077 0.607430 0.642564
O O3 0.256193 0.425501 0.609458
O O4 0.115560 0.582947 0.779116
O O5 0.637968 0.529478 0.807931
O O6 0.798033 0.394051 0.636777
O O7 0.678566 0.525349 0.663852
O O8 0.608157 0.325120 0.778829
O O9 0.946977 0.889599 0.442253
O O10 0.071861 0.775175 0.415245
O O11 0.000000 0.000000 0.500000
O O12 0.034457 0.703531 0.547046
O O13 0.820083 0.897953 0.450720
O O14 0.695385 0.795930 0.472324
O O15 0.678699 0.034957 0.520084
O O16 0.046287 0.293056 0.145214
O O17 0.250000 0.250000 0.000000
#
# Coordination Sequence:
#
# PCOD9270749 Si02
#       8
#     8   8   8   8   8   8   8   8
#     4  10  20  35  63  94 131 175 213 281 338 393
#     4  11  24  43  69 102 131 176 234 284 337 407
#     4  12  24  44  70  95 134 184 227 272 344 419
#     4  11  22  44  64  98 132 170 230 283 333 402
#     4  10  23  44  68  97 139 175 225 285 344 397
#     4  11  19  36  64  97 135 169 220 287 339 389
#     4  11  20  37  64  99 133 171 221 285 343 399
#     4  10  23  46  67  96 141 183 223 283 339 416
#
# _framework density 20.223257
#
# number of rings (size 3 to 8) (size 9 to 14) (size 15 to 20)
#    0.000    1.250    5.000    1.125    1.750    1.500 
#    4.500    1.875    0.000    0.000    0.000    0.000 
#    0.000    0.000    0.000    0.000    0.000    0.000 
#
# Total GULP energy -178677.627294 kJ/mol
# GULP energy per Si atom -5583.675853 kJ/mol
# Density = 2.017723 g / cm^3
# Si number density = 20.223257 Si / 1000 Ang^3
#
#
#
# Elastic Constant Matrix: (Units=GPa)
#
#
# Indices 1 2 3 4 5 6 
#
# 1 41.8964 16.4683 28.3813 0.0000 8.0801 0.0000
# 2 16.4683 83.3506 47.1284 0.0000 -1.6647 0.0000
# 3 28.3813 47.1284 138.6988 0.0000 -1.9138 0.0000
# 4 0.0000 0.0000 0.0000 20.6122 0.0000 2.6072
# 5 8.0801 -1.6647 -1.9138 0.0000 18.1076 0.0000
# 6 0.0000 0.0000 0.0000 2.6072 0.0000 26.5000
#
#
#
# Elastic Compliance Matrix: (Units=1/GPa)
#
#
# Indices 1 2 3 4 5 6 
#
# 1 0.031921 -0.003463 -0.005564 0.000000 -0.015150 0.000000
# 2 -0.003463 0.015239 -0.004435 0.000000 0.002478 0.000000
# 3 -0.005564 -0.004435 0.009899 0.000000 0.003121 0.000000
# 4 0.000000 0.000000 0.000000 0.049126 0.000000 -0.004833
# 5 -0.015150 0.002478 0.003121 0.000000 0.062544 0.000000
# 6 0.000000 0.000000 0.000000 -0.004833 0.000000 0.038211
#
#
# Mechanical properties :
#
#
# Convention : Reuss Voigt Hill
#
# Bulk Modulus (GPa) = 33.18609 49.76686 41.47647
# Shear Modulus (GPa) = 20.49942 24.50849 22.50396
#
# Velocity S-wave (km/s) = 3.18725 3.48501 3.33945
# Velocity P-wave (km/s) = 5.47633 6.39186 5.95173
#
# Compressibility (1/GPa) = 0.03013311
#
# Stress axis : x y z
#
# Youngs Moduli (GPa) = 31.32752 65.62088 101.02533
#
# Poissons Ratio (x) = 0.22727 0.56211
# Poissons Ratio (y) = 0.10850 0.44807
# Poissons Ratio (z) = 0.17431 0.29104
#
# Static dielectric constant tensor:
#      x y z
#    x 1.734550 0.000000 0.019280 
#    y 0.000000 1.614110 0.000000 
#    z 0.019280 0.000000 1.745490 
# 
# From -- ./inp_files/281932.got.cif
#   From: 2010.05.17/outbox.cif.g08.bks.cpg/sg15_141_cif.got.tgz:281932.got - 2010.06.03 18:47:42.
