data_PCOD9270159
_publ_section_title
;
Structure prediction by ZEFSAII (Michael W. Deem and Ramdas Pophale) SiO2 
 PCOD9270159
Probable space group: C 2/C
;
_chemical_formula_sum "Si O2"
_cell_formula_units_Z 32
_cell_length_a 15.424977
_cell_length_b 9.404037
_cell_length_c 16.755758
_cell_angle_alpha 90.000000
_cell_angle_beta 147.627389
_cell_angle_gamma 90.000000
_cell_volume 1301.367795
_symmetry_space_group_name_H-M "C 2/C"
_symmetry_group_IT_number 15
_symmetry_cell_setting 'monoclinic'
loop_
_space_group_symop_operation_xyz
x,y,z
-x,y,1/2-z
-x,-y,-z
x,-y,1/2+z
1/2+x,1/2+y,z
1/2-x,1/2+y,1/2-z
1/2-x,1/2-y,-z
1/2+x,1/2-y,1/2+z
loop_
_atom_site_type_symbol
_atom_site_label
_atom_site_fract_x
_atom_site_fract_y
_atom_site_fract_z
Si Si1 0.397538 0.375895 0.806084
Si Si2 0.995589 0.250709 0.860744
Si Si3 0.823520 0.878742 0.368530
Si Si4 0.217656 0.088009 0.913176
O O1 0.336212 0.215113 0.756030
O O2 0.313923 0.474688 0.810920
O O3 0.339624 0.449651 0.678647
O O4 0.586222 0.386764 0.976681
O O5 0.114818 0.137294 0.909405
O O6 0.952970 0.213380 0.917175
O O7 0.830232 0.217926 0.685183
O O8 0.091069 0.397188 0.924921
#
# Coordination Sequence:
#
# PCOD9270159 Si02
#       4
#     8   8   8   8
#     4  10  21  35  55  85 116 146 189 235 281 331
#     4   9  17  32  54  78 109 144 181 223 276 333
#     4  10  20  35  56  83 115 150 186 234 282 333
#     4   9  18  32  53  81 110 141 184 234 275 325
#
# _framework density 24.589513
#
# number of rings (size 3 to 8) (size 9 to 14) (size 15 to 20)
#    0.000    2.500    0.000    3.000    0.000    4.000 
#    0.000    0.000    0.000   37.500    0.000   28.000 
#    0.000    0.000    0.000    0.000    0.000    0.000 
#
# Total GULP energy -89168.671539 kJ/mol
# GULP energy per Si atom -5573.041971 kJ/mol
# Density = 2.453355 g / cm^3
# Si number density = 24.589513 Si / 1000 Ang^3
#
#
#
# Elastic Constant Matrix: (Units=GPa)
#
#
# Indices 1 2 3 4 5 6 
#
# 1 31.0382 -14.5943 -7.4033 0.0000 -11.4473 0.0000
# 2 -14.5943 70.8583 36.6930 0.0000 -2.4842 0.0000
# 3 -7.4033 36.6930 66.2964 0.0001 -15.3239 0.0000
# 4 0.0000 0.0000 0.0001 41.6461 0.0000 -2.8206
# 5 -11.4473 -2.4842 -15.3239 0.0000 22.3865 0.0000
# 6 0.0000 0.0000 0.0000 -2.8206 0.0000 26.0608
#
#
#
# Elastic Compliance Matrix: (Units=1/GPa)
#
#
# Indices 1 2 3 4 5 6 
#
# 1 0.049493 0.006420 0.009490 0.000000 0.032516 0.000000
# 2 0.006420 0.021391 -0.011660 0.000000 -0.002325 0.000000
# 3 0.009490 -0.011660 0.027821 0.000000 0.022603 0.000000
# 4 0.000000 0.000000 0.000000 0.024189 0.000000 0.002618
# 5 0.032516 -0.002325 0.022603 0.000000 0.076511 0.000000
# 6 0.000000 0.000000 0.000000 0.002618 0.000000 0.038655
#
#
# Mechanical properties :
#
#
# Convention : Reuss Voigt Hill
#
# Bulk Modulus (GPa) = 9.32801 21.95375 15.64088
# Shear Modulus (GPa) = 18.84682 28.25186 23.54934
#
# Velocity S-wave (km/s) = 2.77150 3.39328 3.09803
# Velocity P-wave (km/s) = 3.74745 4.92950 4.37854
#
# Compressibility (1/GPa) = 0.10720402
#
# Stress axis : x y z
#
# Youngs Moduli (GPa) = 20.20501 46.74798 35.94347
#
# Poissons Ratio (x) = -0.30010 -0.34109
# Poissons Ratio (y) = -0.12971 0.41910
# Poissons Ratio (z) = -0.19174 0.54508
#
# Static dielectric constant tensor:
#      x y z
#    x 1.964050 0.000000 -0.016120 
#    y 0.000000 1.979410 0.000000 
#    z -0.016120 0.000000 2.069480 
# 
# From -- ./inp_files/109177.got.cif
#   From: 2010.05.17/outbox.cif.g08.bks.cpg/sg15_55_cif.got.tgz:109177.got - 2010.06.03 18:47:42.
