data_PCOD9270394
_publ_section_title
;
Structure prediction by ZEFSAII (Michael W. Deem and Ramdas Pophale) SiO2 
 PCOD9270394
Probable space group: C 2/C
;
_chemical_formula_sum "Si O2"
_cell_formula_units_Z 40
_cell_length_a 8.507736
_cell_length_b 11.651121
_cell_length_c 19.108888
_cell_angle_alpha 90.000000
_cell_angle_beta 116.466960
_cell_angle_gamma 90.000000
_cell_volume 1695.637802
_symmetry_space_group_name_H-M "C 2/C"
_symmetry_group_IT_number 15
_symmetry_cell_setting 'monoclinic'
loop_
_space_group_symop_operation_xyz
x,y,z
-x,y,1/2-z
-x,-y,-z
x,-y,1/2+z
1/2+x,1/2+y,z
1/2-x,1/2+y,1/2-z
1/2-x,1/2-y,-z
1/2+x,1/2-y,1/2+z
loop_
_atom_site_type_symbol
_atom_site_label
_atom_site_fract_x
_atom_site_fract_y
_atom_site_fract_z
Si Si1 0.832760 0.989403 0.068204
Si Si2 0.427182 0.826123 0.533181
Si Si3 0.045067 0.751302 0.906292
Si Si4 0.332200 0.654517 0.865419
Si Si5 0.301272 0.347030 0.205403
O O1 0.662165 0.950925 0.989483
O O2 0.798708 0.936969 0.139974
O O3 0.011806 0.927977 0.077402
O O4 0.876938 0.121923 0.079632
O O5 0.250000 0.750000 0.500000
O O6 0.524536 0.794626 0.480566
O O7 0.563649 0.778480 0.617380
O O8 0.168883 0.672192 0.883437
O O9 0.846921 0.746428 0.838297
O O10 0.270849 0.608763 0.778015
O O11 0.500000 0.303576 0.250000
#
# Coordination Sequence:
#
# PCOD9270394 Si02
#       5
#     8   8   8   8   8
#     4   9  21  40  61  83 118 158 195 241 296 350
#     4   9  20  39  58  87 125 156 194 246 294 350
#     4  11  21  38  64  86 114 160 203 240 292 353
#     4  10  20  35  58  87 118 150 197 245 287 348
#     4   9  20  39  56  82 120 152 192 248 294 345
#
# _framework density 23.589945
#
# number of rings (size 3 to 8) (size 9 to 14) (size 15 to 20)
#    0.000    2.400    0.000    2.400    0.000    8.800 
#    0.000   20.000    0.000    0.000    0.000    0.000 
#    0.000    0.000    0.000    0.000    0.000    0.000 
#
# Total GULP energy -111656.098446 kJ/mol
# GULP energy per Si atom -5582.804922 kJ/mol
# Density = 2.353625 g / cm^3
# Si number density = 23.589945 Si / 1000 Ang^3
#
#
#
# Elastic Constant Matrix: (Units=GPa)
#
#
# Indices 1 2 3 4 5 6 
#
# 1 138.5586 64.8718 14.1365 0.0000 -12.5198 0.0000
# 2 64.8718 111.9423 18.0791 0.0000 -1.5727 0.0000
# 3 14.1365 18.0791 42.0870 0.0000 2.2817 0.0000
# 4 0.0000 0.0000 0.0000 8.6651 0.0000 0.1745
# 5 -12.5198 -1.5727 2.2817 0.0000 50.3945 0.0000
# 6 0.0000 0.0000 0.0000 0.1745 0.0000 39.7135
#
#
#
# Elastic Compliance Matrix: (Units=1/GPa)
#
#
# Indices 1 2 3 4 5 6 
#
# 1 0.010222 -0.005710 -0.001111 0.000000 0.002412 0.000000
# 2 -0.005710 0.012801 -0.003534 0.000000 -0.000859 0.000000
# 3 -0.001111 -0.003534 0.025736 0.000000 -0.001552 0.000000
# 4 0.000000 0.000000 0.000000 0.115415 0.000000 -0.000507
# 5 0.002412 -0.000859 -0.001552 0.000000 0.020486 0.000000
# 6 0.000000 0.000000 0.000000 -0.000507 0.000000 0.025183
#
#
# Mechanical properties :
#
#
# Convention : Reuss Voigt Hill
#
# Bulk Modulus (GPa) = 35.65412 54.08473 44.86943
# Shear Modulus (GPa) = 20.84171 32.78800 26.81485
#
# Velocity S-wave (km/s) = 2.97560 3.73220 3.37517
# Velocity P-wave (km/s) = 5.19158 6.44587 5.85242
#
# Compressibility (1/GPa) = 0.02804725
#
# Stress axis : x y z
#
# Youngs Moduli (GPa) = 97.82818 78.11791 38.85623
#
# Poissons Ratio (x) = 0.44609 0.04318
# Poissons Ratio (y) = 0.55864 0.13733
# Poissons Ratio (z) = 0.10871 0.27609
#
# Static dielectric constant tensor:
#      x y z
#    x 1.926930 0.000000 -0.007020 
#    y 0.000000 1.958200 0.000000 
#    z -0.007020 0.000000 1.974580 
# 
# From -- ./inp_files/229866.got.cif
#   From: 2010.05.17/outbox.cif.g08.bks.cpg/sg15_115_cif.got.tgz:229866.got - 2010.06.03 18:47:42.
