data_PCOD9270376
_publ_section_title
;
Structure prediction by ZEFSAII (Michael W. Deem and Ramdas Pophale) SiO2 
 PCOD9270376
Probable space group: C 2/C
;
_chemical_formula_sum "Si O2"
_cell_formula_units_Z 56
_cell_length_a 14.759856
_cell_length_b 17.869885
_cell_length_c 12.193627
_cell_angle_alpha 90.000000
_cell_angle_beta 64.755677
_cell_angle_gamma 90.000000
_cell_volume 2909.002603
_symmetry_space_group_name_H-M "C 2/C"
_symmetry_group_IT_number 15
_symmetry_cell_setting 'monoclinic'
loop_
_space_group_symop_operation_xyz
x,y,z
-x,y,1/2-z
-x,-y,-z
x,-y,1/2+z
1/2+x,1/2+y,z
1/2-x,1/2+y,1/2-z
1/2-x,1/2-y,-z
1/2+x,1/2-y,1/2+z
loop_
_atom_site_type_symbol
_atom_site_label
_atom_site_fract_x
_atom_site_fract_y
_atom_site_fract_z
Si Si1 0.116178 0.574724 0.212207
Si Si2 0.804254 0.074771 0.840674
Si Si3 0.947608 0.825111 0.391978
Si Si4 0.419456 0.433246 0.059715
Si Si5 0.051418 0.583921 0.481116
Si Si6 0.638026 0.824930 0.487380
Si Si7 0.276676 0.047893 0.964563
O O1 0.115765 0.598901 0.337630
O O2 0.184108 0.503102 0.155536
O O3 0.000000 0.554776 0.250000
O O4 0.144100 0.634872 0.104344
O O5 0.885557 0.102177 0.887022
O O6 0.860829 0.051256 0.703203
O O7 0.732439 0.147230 0.868480
O O8 0.740219 0.008625 0.925019
O O9 0.878024 0.761531 0.478653
O O10 0.000000 0.798526 0.250000
O O11 0.024895 0.855362 0.441795
O O12 0.332707 0.423417 0.013202
O O13 0.500000 0.500000 0.000000
O O14 0.126808 0.593664 0.543982
O O15 0.000000 0.500000 0.500000
O O16 0.959620 0.641239 0.521375
#
# Coordination Sequence:
#
# PCOD9270376 Si02
#       7
#     8   8   8   8   8   8   8
#     4   9  17  30  51  81 114 140 184 235 295 331
#     4  10  20  36  59  86 111 144 197 244 287 332
#     4  10  20  37  58  83 117 153 194 242 285 340
#     4  11  23  37  57  84 117 155 194 237 287 345
#     4  11  18  31  51  84 116 146 188 238 291 348
#     4  10  20  35  58  86 116 146 188 243 295 336
#     4  11  20  32  54  83 112 149 186 239 285 344
#
# _framework density 19.250582999999999
#
# number of rings (size 3 to 8) (size 9 to 14) (size 15 to 20)
#    0.000    1.714    5.714    2.571    0.000    0.000 
#    0.000    0.714    0.000    0.000    3.714    0.000 
#    0.000    0.000    0.000    0.000    0.000    0.000 
#
# Total GULP energy -156013.385043 kJ/mol
# GULP energy per Si atom -5571.906609 kJ/mol
# Density = 1.920677 g / cm^3
# Si number density = 19.250583 Si / 1000 Ang^3
#
#
#
# Elastic Constant Matrix: (Units=GPa)
#
#
# Indices 1 2 3 4 5 6 
#
# 1 104.7587 14.7021 17.5218 0.0000 18.3903 0.0000
# 2 14.7021 34.0024 17.3188 0.0000 5.3920 0.0000
# 3 17.5218 17.3188 59.6965 0.0000 -19.5652 0.0000
# 4 0.0000 0.0000 0.0000 16.7767 0.0000 -7.1947
# 5 18.3903 5.3920 -19.5652 0.0000 30.5366 0.0000
# 6 0.0000 0.0000 0.0000 -7.1947 0.0000 27.7894
#
#
#
# Elastic Compliance Matrix: (Units=1/GPa)
#
#
# Indices 1 2 3 4 5 6 
#
# 1 0.013265 0.000807 -0.008598 0.000000 -0.013640 0.000000
# 2 0.000807 0.041890 -0.018953 0.000000 -0.020026 0.000000
# 3 -0.008598 -0.018953 0.034895 0.000000 0.030883 0.000000
# 4 0.000000 0.000000 0.000000 0.067051 0.000000 0.017359
# 5 -0.013640 -0.020026 0.030883 0.000000 0.064286 0.000000
# 6 0.000000 0.000000 0.000000 0.017359 0.000000 0.040479
#
#
# Mechanical properties :
#
#
# Convention : Reuss Voigt Hill
#
# Bulk Modulus (GPa) = 27.35113 33.06033 30.20573
# Shear Modulus (GPa) = 15.26516 24.94819 20.10668
#
# Velocity S-wave (km/s) = 2.81903 3.60386 3.23533
# Velocity P-wave (km/s) = 4.98344 5.87606 5.44806
#
# Compressibility (1/GPa) = 0.03656155
#
# Stress axis : x y z
#
# Youngs Moduli (GPa) = 75.38553 23.87188 28.65705
#
# Poissons Ratio (x) = -0.01926 0.24640
# Poissons Ratio (y) = -0.06082 0.54315
# Poissons Ratio (z) = 0.64817 0.45245
#
# Static dielectric constant tensor:
#      x y z
#    x 1.748090 0.000000 0.005730 
#    y 0.000000 1.669530 0.000000 
#    z 0.005730 0.000000 1.701280 
# 
# From -- ./inp_files/98235.got.cif
#   From: 2010.05.17/outbox.cif.g08.bks.cpg/sg15_50_cif.got.tgz:98235.got - 2010.06.03 18:47:42.
