data_PCOD9270304
_publ_section_title
;
Structure prediction by ZEFSAII (Michael W. Deem and Ramdas Pophale) SiO2 
 PCOD9270304
Probable space group: C 2/C
;
_chemical_formula_sum "Si O2"
_cell_formula_units_Z 64
_cell_length_a 25.855356
_cell_length_b 8.326829
_cell_length_c 15.616998
_cell_angle_alpha 90.000000
_cell_angle_beta 73.763694
_cell_angle_gamma 90.000000
_cell_volume 3228.135456
_symmetry_space_group_name_H-M "C 2/C"
_symmetry_group_IT_number 15
_symmetry_cell_setting 'monoclinic'
loop_
_space_group_symop_operation_xyz
x,y,z
-x,y,1/2-z
-x,-y,-z
x,-y,1/2+z
1/2+x,1/2+y,z
1/2-x,1/2+y,1/2-z
1/2-x,1/2-y,-z
1/2+x,1/2-y,1/2+z
loop_
_atom_site_type_symbol
_atom_site_label
_atom_site_fract_x
_atom_site_fract_y
_atom_site_fract_z
Si Si1 0.377198 0.950121 0.652999
Si Si2 0.119451 0.568345 0.021657
Si Si3 0.845651 0.094724 0.636724
Si Si4 0.719975 0.884856 0.211954
Si Si5 0.865041 0.879494 0.780916
Si Si6 0.163025 0.078904 0.542718
Si Si7 0.771954 0.433337 0.483307
Si Si8 0.436441 0.070186 0.787302
O O1 0.372826 0.767003 0.627208
O O2 0.402106 0.056439 0.564868
O O3 0.318289 0.024230 0.703760
O O4 0.411847 0.961156 0.723185
O O5 0.141106 0.743955 0.036355
O O6 0.172497 0.454888 0.994214
O O7 0.081077 0.500060 0.112810
O O8 0.783620 0.118485 0.698455
O O9 0.874633 0.975563 0.689377
O O10 0.844374 0.021690 0.541966
O O11 0.692257 0.711748 0.208898
O O12 0.714808 0.969139 0.121874
O O13 0.906943 0.739676 0.783606
O O14 0.863456 0.996330 0.862812
O O15 0.226657 0.058578 0.532514
O O16 0.750000 0.250000 0.500000
O O17 0.500000 0.083456 0.750000
#
# Coordination Sequence:
#
# PCOD9270304 Si02
#       8
#     8   8   8   8   8   8   8   8
#     4  11  23  40  64  91 127 169 211 261 315 377
#     4  12  23  41  64  92 130 166 213 261 312 380
#     4  11  23  36  59  94 134 166 206 253 309 380
#     4  10  20  35  57  89 131 174 206 242 302 374
#     4  11  21  40  62  88 127 165 214 260 310 375
#     4  11  23  36  60  96 134 172 202 249 309 382
#     4  11  19  36  58  90 131 175 204 243 299 370
#     4  11  25  48  69  88 117 163 219 273 324 374
#
# _framework density 19.825686000000001
#
# number of rings (size 3 to 8) (size 9 to 14) (size 15 to 20)
#    0.000    1.000    3.750    5.625    1.750    1.500 
#    0.000    2.500    0.000    3.000    0.000    0.000 
#    0.000    0.000    0.000    0.000    0.000    0.000 
#
# Total GULP energy -178795.050062 kJ/mol
# GULP energy per Si atom -5587.345314 kJ/mol
# Density = 1.978056 g / cm^3
# Si number density = 19.825686 Si / 1000 Ang^3
#
#
#
# Elastic Constant Matrix: (Units=GPa)
#
#
# Indices 1 2 3 4 5 6 
#
# 1 42.0308 7.1497 17.4438 0.0000 -10.3038 0.0000
# 2 7.1497 69.7577 3.3078 0.0000 -2.8921 0.0000
# 3 17.4438 3.3078 96.3123 0.0000 7.7216 0.0000
# 4 0.0000 0.0000 0.0000 29.8427 0.0000 8.6051
# 5 -10.3038 -2.8921 7.7216 0.0000 12.6072 0.0000
# 6 0.0000 0.0000 0.0000 8.6051 0.0000 6.7758
#
#
#
# Elastic Compliance Matrix: (Units=1/GPa)
#
#
# Indices 1 2 3 4 5 6 
#
# 1 0.036666 -0.001848 -0.009408 0.000000 0.035305 0.000000
# 2 -0.001848 0.014625 -0.000332 0.000000 0.002048 0.000000
# 3 -0.009408 -0.000332 0.013378 0.000000 -0.015958 0.000000
# 4 0.000000 0.000000 0.000000 0.052870 0.000000 -0.067143
# 5 0.035305 0.002048 -0.015958 0.000000 0.118417 0.000000
# 6 0.000000 0.000000 0.000000 -0.067143 0.000000 0.232853
#
#
# Mechanical properties :
#
#
# Convention : Reuss Voigt Hill
#
# Bulk Modulus (GPa) = 24.10023 29.32259 26.71141
# Shear Modulus (GPa) = 9.88503 21.85845 15.87174
#
# Velocity S-wave (km/s) = 2.23535 3.32404 2.83249
# Velocity P-wave (km/s) = 4.34107 5.43642 4.91932
#
# Compressibility (1/GPa) = 0.04149337
#
# Stress axis : x y z
#
# Youngs Moduli (GPa) = 27.27343 68.37423 74.75165
#
# Poissons Ratio (x) = 0.12637 0.70325
# Poissons Ratio (y) = 0.05041 0.02480
# Poissons Ratio (z) = 0.25658 0.02268
#
# Static dielectric constant tensor:
#      x y z
#    x 1.716120 0.000000 0.019620 
#    y 0.000000 1.708950 0.000000 
#    z 0.019620 0.000000 1.720530 
# 
# From -- ./inp_files/176571.got.cif
#   From: 2010.05.17/outbox.cif.g08.bks.cpg/sg15_89_cif.got.tgz:176571.got - 2010.06.03 18:47:42.
