data_PCOD9270711
_publ_section_title
;
Structure prediction by ZEFSAII (Michael W. Deem and Ramdas Pophale) SiO2 
 PCOD9270711
Probable space group: C 2/C
;
_chemical_formula_sum "Si O2"
_cell_formula_units_Z 64
_cell_length_a 11.224770
_cell_length_b 27.078923
_cell_length_c 10.329396
_cell_angle_alpha 90.000000
_cell_angle_beta 81.750567
_cell_angle_gamma 90.000000
_cell_volume 3107.181527
_symmetry_space_group_name_H-M "C 2/C"
_symmetry_group_IT_number 15
_symmetry_cell_setting 'monoclinic'
loop_
_space_group_symop_operation_xyz
x,y,z
-x,y,1/2-z
-x,-y,-z
x,-y,1/2+z
1/2+x,1/2+y,z
1/2-x,1/2+y,1/2-z
1/2-x,1/2-y,-z
1/2+x,1/2-y,1/2+z
loop_
_atom_site_type_symbol
_atom_site_label
_atom_site_fract_x
_atom_site_fract_y
_atom_site_fract_z
Si Si1 0.499407 0.633796 0.988522
Si Si2 0.251790 0.375083 0.409295
Si Si3 0.427512 0.260277 0.944101
Si Si4 0.142750 0.604533 0.210466
Si Si5 0.618455 0.451974 0.821725
Si Si6 0.371572 0.438758 0.197731
Si Si7 0.162224 0.277212 0.320500
Si Si8 0.133038 0.284817 0.782043
O O1 0.385977 0.648131 0.915258
O O2 0.610577 0.607130 0.900965
O O3 0.549481 0.680823 0.057255
O O4 0.431844 0.589845 0.075018
O O5 0.178011 0.385470 0.553079
O O6 0.275456 0.424576 0.322421
O O7 0.187436 0.334582 0.331371
O O8 0.379870 0.239970 0.815579
O O9 0.558518 0.236328 0.935368
O O10 0.357612 0.240803 0.079479
O O11 0.250262 0.568364 0.243474
O O12 0.159137 0.657012 0.279663
O O13 0.000000 0.590465 0.250000
O O14 0.500000 0.456477 0.750000
O O15 0.643267 0.507900 0.865688
O O16 0.500000 0.440328 0.250000
O O17 0.276409 0.243003 0.326277
O O18 0.000000 0.278505 0.750000
#
# Coordination Sequence:
#
# PCOD9270711 Si02
#       8
#     8   8   8   8   8   8   8   8
#     4  10  20  35  62  93 126 161 207 264 318 379
#     4  10  20  38  62  86 121 170 214 254 309 379
#     4  11  24  36  57  88 129 162 205 253 311 372
#     4  10  22  39  63  85 123 164 216 257 308 384
#     4  10  21  37  64  95 124 158 208 273 330 370
#     4   9  19  37  61  92 121 153 208 268 326 374
#     4  11  22  37  57  83 127 163 203 252 305 370
#     4  11  22  37  57  84 117 161 211 246 299 374
#
# _framework density 20.597445
#
# number of rings (size 3 to 8) (size 9 to 14) (size 15 to 20)
#    0.000    1.750    0.000    5.250    3.500    3.500 
#    0.000    0.625    2.750    0.000    0.000    0.000 
#    0.000    0.000    0.000    0.000    0.000    0.000 
#
# Total GULP energy -178301.243416 kJ/mol
# GULP energy per Si atom -5571.913857 kJ/mol
# Density = 2.055056 g / cm^3
# Si number density = 20.597445 Si / 1000 Ang^3
#
#
#
# Elastic Constant Matrix: (Units=GPa)
#
#
# Indices 1 2 3 4 5 6 
#
# 1 93.8775 40.7952 38.5530 0.0000 -25.0133 0.0000
# 2 40.7952 106.6951 33.1114 0.0000 3.7953 0.0000
# 3 38.5530 33.1114 62.2195 0.0000 -9.1512 0.0000
# 4 0.0000 0.0000 0.0000 33.6049 0.0000 8.4145
# 5 -25.0133 3.7953 -9.1512 0.0000 36.2944 0.0000
# 6 0.0000 0.0000 0.0000 8.4145 0.0000 18.9323
#
#
#
# Elastic Compliance Matrix: (Units=1/GPa)
#
#
# Indices 1 2 3 4 5 6 
#
# 1 0.019212 -0.005542 -0.007189 0.000000 0.012007 0.000000
# 2 -0.005542 0.013103 -0.004468 0.000000 -0.006316 0.000000
# 3 -0.007189 -0.004468 0.023101 0.000000 0.001337 0.000000
# 4 0.000000 0.000000 0.000000 0.033484 0.000000 -0.014882
# 5 0.012007 -0.006316 0.001337 0.000000 0.036825 0.000000
# 6 0.000000 0.000000 0.000000 -0.014882 0.000000 0.059434
#
#
# Mechanical properties :
#
#
# Convention : Reuss Voigt Hill
#
# Bulk Modulus (GPa) = 47.57806 54.19014 50.88410
# Shear Modulus (GPa) = 22.06888 27.78848 24.92868
#
# Velocity S-wave (km/s) = 3.27683 3.67703 3.48268
# Velocity P-wave (km/s) = 6.12095 6.66285 6.39764
#
# Compressibility (1/GPa) = 0.02101809
#
# Stress axis : x y z
#
# Youngs Moduli (GPa) = 52.05024 76.32021 43.28802
#
# Poissons Ratio (x) = 0.42296 0.31120
# Poissons Ratio (y) = 0.28846 0.19341
# Poissons Ratio (z) = 0.37420 0.34099
#
# Static dielectric constant tensor:
#      x y z
#    x 1.811470 0.000000 0.025860 
#    y 0.000000 1.764980 0.000000 
#    z 0.025860 0.000000 1.777880 
# 
# From -- ./inp_files/90789.got.cif
#   From: 2010.05.17/outbox.cif.g08.bks.cpg/sg15_46_cif.got.tgz:90789.got - 2010.06.03 18:47:42.
