data_PCOD9270258
_publ_section_title
;
Structure prediction by ZEFSAII (Michael W. Deem and Ramdas Pophale) SiO2 
 PCOD9270258
Probable space group: C 2/C
;
_chemical_formula_sum "Si O2"
_cell_formula_units_Z 56
_cell_length_a 30.209017
_cell_length_b 8.249563
_cell_length_c 12.859757
_cell_angle_alpha 90.000000
_cell_angle_beta 119.899301
_cell_angle_gamma 90.000000
_cell_volume 2778.246143
_symmetry_space_group_name_H-M "C 2/C"
_symmetry_group_IT_number 15
_symmetry_cell_setting 'monoclinic'
loop_
_space_group_symop_operation_xyz
x,y,z
-x,y,1/2-z
-x,-y,-z
x,-y,1/2+z
1/2+x,1/2+y,z
1/2-x,1/2+y,1/2-z
1/2-x,1/2-y,-z
1/2+x,1/2-y,1/2+z
loop_
_atom_site_type_symbol
_atom_site_label
_atom_site_fract_x
_atom_site_fract_y
_atom_site_fract_z
Si Si1 0.245214 0.121953 0.086994
Si Si2 0.658255 0.706920 0.143830
Si Si3 0.923100 0.547984 0.905739
Si Si4 0.509227 0.188588 0.882433
Si Si5 0.603517 0.605037 0.496627
Si Si6 0.336322 0.450019 0.628791
Si Si7 0.855111 0.708638 0.263132
O O1 0.208999 0.194331 0.134316
O O2 0.302884 0.107421 0.193215
O O3 0.250000 0.250000 0.000000
O O4 0.214731 0.971921 0.000801
O O5 0.627266 0.872728 0.105159
O O6 0.619346 0.573317 0.051331
O O7 0.670376 0.655080 0.276036
O O8 0.903062 0.409674 0.802660
O O9 0.956764 0.680201 0.884915
O O10 0.957609 0.460387 0.032250
O O11 0.500000 0.169971 0.750000
O O12 0.544852 0.345304 0.941489
O O13 0.621041 0.620538 0.398117
O O14 0.636280 0.721346 0.610856
O O15 0.351935 0.632327 0.685853
#
# Coordination Sequence:
#
# PCOD9270258 Si02
#       7
#     8   8   8   8   8   8   8
#     4   9  19  35  56  82 114 150 186 226 275 330
#     4  10  20  35  57  84 112 146 190 232 276 336
#     4  10  22  37  56  83 113 145 181 229 286 333
#     4  10  21  38  56  77 109 144 182 232 283 332
#     4   9  19  36  56  77 106 147 189 233 279 328
#     4   9  18  35  57  81 111 149 192 229 270 331
#     4   9  19  36  56  79 116 150 181 230 283 334
#
# _framework density 20.156600000000001
#
# number of rings (size 3 to 8) (size 9 to 14) (size 15 to 20)
#    0.000    2.571    0.000    0.857    0.000    8.571 
#    0.000    7.857    0.000    0.000    0.000    0.000 
#    0.000    0.000    0.000    0.000    0.000    0.000 
#
# Total GULP energy -156116.583857 kJ/mol
# GULP energy per Si atom -5575.592281 kJ/mol
# Density = 2.011072 g / cm^3
# Si number density = 20.156600 Si / 1000 Ang^3
#
#
#
# Elastic Constant Matrix: (Units=GPa)
#
#
# Indices 1 2 3 4 5 6 
#
# 1 76.0234 11.3754 37.1859 0.0000 0.6927 0.0000
# 2 11.3754 27.9188 6.3112 0.0000 6.3308 0.0000
# 3 37.1859 6.3112 89.7310 0.0000 4.7393 0.0000
# 4 0.0000 0.0000 0.0000 6.1930 0.0000 3.2127
# 5 0.6927 6.3308 4.7393 0.0000 34.9854 0.0000
# 6 0.0000 0.0000 0.0000 3.2127 0.0000 29.7346
#
#
#
# Elastic Compliance Matrix: (Units=1/GPa)
#
#
# Indices 1 2 3 4 5 6 
#
# 1 0.017386 -0.005905 -0.006877 0.000000 0.001656 0.000000
# 2 -0.005905 0.039828 0.000020 0.000000 -0.007093 0.000000
# 3 -0.006877 0.000020 0.014087 0.000000 -0.001776 0.000000
# 4 0.000000 0.000000 0.000000 0.171062 0.000000 -0.018483
# 5 0.001656 -0.007093 -0.001776 0.000000 0.030075 0.000000
# 6 0.000000 0.000000 0.000000 -0.018483 0.000000 0.035628
#
#
# Mechanical properties :
#
#
# Convention : Reuss Voigt Hill
#
# Bulk Modulus (GPa) = 21.84477 33.71312 27.77895
# Shear Modulus (GPa) = 14.33290 23.43597 18.88443
#
# Velocity S-wave (km/s) = 2.66950 3.41353 3.06418
# Velocity P-wave (km/s) = 4.51250 5.68315 5.13132
#
# Compressibility (1/GPa) = 0.04577754
#
# Stress axis : x y z
#
# Youngs Moduli (GPa) = 57.51683 25.10810 70.98828
#
# Poissons Ratio (x) = 0.14826 0.48821
# Poissons Ratio (y) = 0.33962 -0.00145
# Poissons Ratio (z) = 0.39556 -0.00051
#
# Static dielectric constant tensor:
#      x y z
#    x 1.721990 0.000000 0.028630 
#    y 0.000000 1.750950 0.000000 
#    z 0.028630 0.000000 1.720790 
# 
# From -- ./inp_files/122002.got.cif
#   From: 2010.05.17/outbox.cif.g08.bks.cpg/sg15_62_cif.got.tgz:122002.got - 2010.06.03 18:47:42.
