data_PCOD9270939
_publ_section_title
;
Structure prediction by ZEFSAII (Michael W. Deem and Ramdas Pophale) SiO2 
 PCOD9270939
Probable space group: C 2/C
;
_chemical_formula_sum "Si O2"
_cell_formula_units_Z 56
_cell_length_a 21.502729
_cell_length_b 16.769283
_cell_length_c 25.083251
_cell_angle_alpha 90.000000
_cell_angle_beta 18.512630
_cell_angle_gamma 90.000000
_cell_volume 2871.801104
_symmetry_space_group_name_H-M "C 2/C"
_symmetry_group_IT_number 15
_symmetry_cell_setting 'monoclinic'
loop_
_space_group_symop_operation_xyz
x,y,z
-x,y,1/2-z
-x,-y,-z
x,-y,1/2+z
1/2+x,1/2+y,z
1/2-x,1/2+y,1/2-z
1/2-x,1/2-y,-z
1/2+x,1/2-y,1/2+z
loop_
_atom_site_type_symbol
_atom_site_label
_atom_site_fract_x
_atom_site_fract_y
_atom_site_fract_z
Si Si1 0.730247 0.660557 0.806539
Si Si2 0.935854 0.187065 0.670528
Si Si3 0.291343 0.158971 0.448397
Si Si4 0.396031 0.140173 0.475148
Si Si5 0.627794 0.632926 0.198373
Si Si6 0.475865 0.021025 0.957328
Si Si7 0.926170 0.781184 0.957590
O O1 0.589237 0.666111 0.870650
O O2 0.860049 0.583039 0.693156
O O3 0.876823 0.735982 0.684397
O O4 0.640788 0.667226 0.937650
O O5 0.119855 0.141456 0.546614
O O6 0.973247 0.282214 0.642978
O O7 0.752048 0.164859 0.857136
O O8 0.500000 0.152375 0.250000
O O9 0.250000 0.250000 0.500000
O O10 0.287728 0.116394 0.508206
O O11 0.507342 0.062480 0.402792
O O12 0.500000 0.611596 0.250000
O O13 0.478623 0.664404 0.364802
O O14 0.769914 0.563512 0.106934
O O15 0.769351 0.710518 0.072428
O O16 0.500000 0.000000 0.000000
#
# Coordination Sequence:
#
# PCOD9270939 Si02
#       7
#     8   8   8   8   8   8   8
#     4  10  20  38  62  95 124 160 200 254 309 369
#     4  11  20  35  62  86 111 161 210 243 303 358
#     4  10  20  36  55  87 115 149 201 254 292 349
#     4  11  22  38  62  82 121 158 205 259 304 362
#     4  10  21  40  66  94 125 164 207 254 318 371
#     4  11  24  43  57  91 131 164 198 258 317 373
#     4   9  20  37  66  96 124 155 211 256 299 372
#
# _framework density 19.499956999999998
#
# number of rings (size 3 to 8) (size 9 to 14) (size 15 to 20)
#    0.000    1.714    1.429    5.143    4.000    1.143 
#    0.000    5.000    0.000    0.000    0.000    0.000 
#    0.000    0.000    0.000    0.000    0.000    0.000 
#
# Total GULP energy -156223.522379 kJ/mol
# GULP energy per Si atom -5579.411514 kJ/mol
# Density = 1.945557 g / cm^3
# Si number density = 19.499957 Si / 1000 Ang^3
#
#
#
# Elastic Constant Matrix: (Units=GPa)
#
#
# Indices 1 2 3 4 5 6 
#
# 1 143.5283 37.8745 19.6763 0.0111 -9.8594 -0.0146
# 2 37.8745 68.3570 11.1476 0.0337 6.6127 -0.0036
# 3 19.6763 11.1476 44.8926 0.0761 14.0462 -0.0103
# 4 0.0111 0.0337 0.0761 12.9761 -0.0108 2.4339
# 5 -9.8594 6.6127 14.0462 -0.0108 27.3282 -0.0089
# 6 -0.0146 -0.0036 -0.0103 2.4339 -0.0089 15.4113
#
#
#
# Elastic Compliance Matrix: (Units=1/GPa)
#
#
# Indices 1 2 3 4 5 6 
#
# 1 0.009548 -0.005153 -0.005211 0.000041 0.007370 0.000002
# 2 -0.005153 0.018128 -0.000344 -0.000046 -0.006069 0.000003
# 3 -0.005211 -0.000344 0.030038 -0.000192 -0.017236 0.000035
# 4 0.000041 -0.000046 -0.000192 0.079419 0.000152 -0.012543
# 5 0.007370 -0.006069 -0.017236 0.000152 0.049579 -0.000001
# 6 0.000002 0.000003 0.000035 -0.012543 -0.000001 0.066869
#
#
# Mechanical properties :
#
#
# Convention : Reuss Voigt Hill
#
# Bulk Modulus (GPa) = 27.55056 43.79718 35.67387
# Shear Modulus (GPa) = 17.41586 23.68175 20.54880
#
# Velocity S-wave (km/s) = 2.99176 3.48868 3.24973
# Velocity P-wave (km/s) = 5.10817 6.22388 5.69342
#
# Compressibility (1/GPa) = 0.03629690
#
# Stress axis : x y z
#
# Youngs Moduli (GPa) = 104.73634 55.16476 33.29117
#
# Poissons Ratio (x) = 0.28428 0.17349
# Poissons Ratio (y) = 0.53974 0.01144
# Poissons Ratio (z) = 0.54580 0.01896
#
# Static dielectric constant tensor:
#      x y z
#    x 2.191520 0.000260 -0.017020 
#    y 0.000260 1.638770 0.000020 
#    z -0.017020 0.000020 1.689900 
# 
# From -- ./inp_files/280407.got.cif
#   From: 2010.05.17/outbox.cif.g08.bks.cpg/sg15_141_cif.got.tgz:280407.got - 2010.06.03 18:47:42.
