data_PCOD9270049
_publ_section_title
;
Structure prediction by ZEFSAII (Michael W. Deem and Ramdas Pophale) SiO2 
 PCOD9270049
Probable space group: C 2/C
;
_chemical_formula_sum "Si O2"
_cell_formula_units_Z 48
_cell_length_a 13.766226
_cell_length_b 11.473801
_cell_length_c 26.013909
_cell_angle_alpha 90.000000
_cell_angle_beta 29.676676
_cell_angle_gamma 90.000000
_cell_volume 2034.347589
_symmetry_space_group_name_H-M "C 2/C"
_symmetry_group_IT_number 15
_symmetry_cell_setting 'monoclinic'
loop_
_space_group_symop_operation_xyz
x,y,z
-x,y,1/2-z
-x,-y,-z
x,-y,1/2+z
1/2+x,1/2+y,z
1/2-x,1/2+y,1/2-z
1/2-x,1/2-y,-z
1/2+x,1/2-y,1/2+z
loop_
_atom_site_type_symbol
_atom_site_label
_atom_site_fract_x
_atom_site_fract_y
_atom_site_fract_z
Si Si1 0.510343 0.305271 0.585705
Si Si2 0.924721 0.750377 0.086658
Si Si3 0.699010 0.338383 0.604396
Si Si4 0.432972 0.192817 0.204302
Si Si5 0.291981 0.401687 0.406594
Si Si6 0.702845 0.457859 0.974189
O O1 0.537423 0.310677 0.635136
O O2 0.604931 0.187558 0.520334
O O3 0.285177 0.324432 0.675127
O O4 0.642436 0.408278 0.500674
O O5 0.732399 0.735133 0.140698
O O6 0.909452 0.718123 0.153786
O O7 0.086327 0.659975 0.990158
O O8 0.027893 0.875934 0.034091
O O9 0.683843 0.472123 0.628544
O O10 0.536120 0.308182 0.178987
O O11 0.586782 0.087530 0.142560
O O12 0.290054 0.427071 0.468562
#
# Coordination Sequence:
#
# PCOD9270049 Si02
#       6
#     8   8   8   8   8   8
#     4  10  21  37  55  87 118 158 197 240 292 351
#     4   9  17  34  61  81 113 153 189 244 297 348
#     4  10  20  35  54  85 122 145 190 252 296 334
#     4   9  18  37  64  79 114 163 200 226 293 374
#     4   8  16  35  57  81 111 152 188 231 300 353
#     4   8  17  36  57  84 111 156 195 234 289 352
#
# _framework density 23.594788999999999
#
# number of rings (size 3 to 8) (size 9 to 14) (size 15 to 20)
#    0.000    3.000    0.000    2.500    0.000    1.333 
#   36.000    3.333   11.000    0.000    0.000    0.000 
#    0.000    0.000    0.000    0.000    0.000    0.000 
#
# Total GULP energy -134013.016148 kJ/mol
# GULP energy per Si atom -5583.875673 kJ/mol
# Density = 2.354109 g / cm^3
# Si number density = 23.594789 Si / 1000 Ang^3
#
#
#
# Elastic Constant Matrix: (Units=GPa)
#
#
# Indices 1 2 3 4 5 6 
#
# 1 111.4687 40.1164 31.6245 0.0002 -4.5635 0.0001
# 2 40.1164 102.8803 49.3225 -0.0005 -17.0195 -0.0001
# 3 31.6245 49.3225 105.3130 -0.0009 -30.0878 -0.0001
# 4 0.0002 -0.0005 -0.0009 -1.1613 -0.0003 0.6685
# 5 -4.5635 -17.0195 -30.0878 -0.0003 43.5733 -0.0001
# 6 0.0001 -0.0001 -0.0001 0.6685 -0.0001 13.5809
#
#
#
# Elastic Compliance Matrix: (Units=1/GPa)
#
#
# Indices 1 2 3 4 5 6 
#
# 1 0.010740 -0.003468 -0.002076 0.000005 -0.001663 0.000000
# 2 -0.003468 0.013693 -0.004917 -0.000003 0.001590 0.000000
# 3 -0.002076 -0.004917 0.014714 -0.000011 0.008022 0.000001
# 4 0.000005 -0.000003 -0.000011 -0.837351 -0.000014 0.041220
# 5 -0.001663 0.001590 0.008022 -0.000014 0.028936 0.000001
# 6 0.000000 0.000000 0.000001 0.041220 0.000001 0.071604
#
#
# Mechanical properties :
#
#
# Convention : Reuss Voigt Hill
#
# Bulk Modulus (GPa) = 54.87305 62.42096 58.64701
# Shear Modulus (GPa) = -7.45526 24.43848 8.49161
#
# Velocity S-wave (km/s) = -1.77948 3.22181 1.89914
# Velocity P-wave (km/s) = 4.36862 6.35239 5.45150
#
# Compressibility (1/GPa) = 0.01822388
#
# Stress axis : x y z
#
# Youngs Moduli (GPa) = 93.10928 73.03203 67.96307
#
# Poissons Ratio (x) = 0.25325 0.14111
# Poissons Ratio (y) = 0.32287 0.33420
# Poissons Ratio (z) = 0.19332 0.35913
#
# Static dielectric constant tensor:
#      x y z
#    x 1.960630 0.000000 0.058680 
#    y 0.000000 1.907460 0.000000 
#    z 0.058680 0.000000 1.910880 
# 
# From -- ./inp_files/296059.got.cif
#   From: 2010.05.17/outbox.cif.g08.bks.cpg/sg15_149_cif.got.tgz:296059.got - 2010.06.03 18:47:42.
