data_PCOD9270674
_publ_section_title
;
Structure prediction by ZEFSAII (Michael W. Deem and Ramdas Pophale) SiO2 
 PCOD9270674
Probable space group: C 2/C
;
_chemical_formula_sum "Si O2"
_cell_formula_units_Z 60
_cell_length_a 23.844716
_cell_length_b 18.787215
_cell_length_c 5.408323
_cell_angle_alpha 90.000000
_cell_angle_beta 100.931782
_cell_angle_gamma 90.000000
_cell_volume 2378.832967
_symmetry_space_group_name_H-M "C 2/C"
_symmetry_group_IT_number 15
_symmetry_cell_setting 'monoclinic'
loop_
_space_group_symop_operation_xyz
x,y,z
-x,y,1/2-z
-x,-y,-z
x,-y,1/2+z
1/2+x,1/2+y,z
1/2-x,1/2+y,1/2-z
1/2-x,1/2-y,-z
1/2+x,1/2-y,1/2+z
loop_
_atom_site_type_symbol
_atom_site_label
_atom_site_fract_x
_atom_site_fract_y
_atom_site_fract_z
Si Si1 0.216959 0.963847 0.911535
Si Si2 0.611546 0.806972 0.440741
Si Si3 0.232187 0.321052 0.346867
Si Si4 0.334061 0.312000 0.134673
Si Si5 0.431642 0.037262 0.640255
Si Si6 0.425753 0.679431 0.332137
Si Si7 0.396538 0.439052 0.445657
Si Si8 0.000000 0.916788 0.250000
O O1 0.146986 0.969419 0.878580
O O2 0.236255 0.989887 0.661818
O O3 0.240966 0.886493 0.982490
O O4 0.664676 0.825881 0.304905
O O5 0.637314 0.753637 0.680393
O O6 0.584798 0.883787 0.471034
O O7 0.565182 0.758075 0.261608
O O8 0.250000 0.250000 0.500000
O O9 0.266282 0.316329 0.117366
O O10 0.353806 0.389280 0.250983
O O11 0.361521 0.313051 0.888223
O O12 0.500000 0.033982 0.750000
O O13 0.410532 0.985454 0.398816
O O14 0.429127 0.624695 0.114244
O O15 0.462686 0.640009 0.565045
O O16 0.450399 0.466788 0.329509
#
# Coordination Sequence:
#
# PCOD9270674 Si02
#       8
#     8   8   8   8   8   8   8   4
#     4  11  26  46  70 101 141 187 233 283 347 419
#     4  10  21  37  62  93 125 165 221 275 334 410
#     4   9  20  44  65 102 135 176 228 280 346 403
#     4   8  18  35  59  91 127 161 207 266 338 395
#     4  10  24  44  63  85 122 172 217 271 334 399
#     4  10  20  35  61  96 126 170 213 284 340 405
#     4   9  20  38  61  89 130 172 220 270 335 396
#     4  10  20  36  62  94 130 170 222 284 348 392
#
# _framework density 25.222449999999998
#
# number of rings (size 3 to 8) (size 9 to 14) (size 15 to 20)
#    0.000    2.400    0.000    1.200    7.467    4.800 
#    6.000    0.667    0.000    0.000    0.000    0.000 
#    0.000    0.000    0.000    0.000    0.000    0.000 
#
# Total GULP energy -167334.077346 kJ/mol
# GULP energy per Si atom -5577.802578 kJ/mol
# Density = 2.516504 g / cm^3
# Si number density = 25.222450 Si / 1000 Ang^3
#
#
#
# Elastic Constant Matrix: (Units=GPa)
#
#
# Indices 1 2 3 4 5 6 
#
# 1 81.6470 8.7190 17.4977 0.0000 -8.0930 0.0000
# 2 8.7190 137.1069 12.2913 0.0000 19.6909 0.0000
# 3 17.4977 12.2913 61.5758 0.0000 -4.9050 0.0000
# 4 0.0000 0.0000 0.0000 -9.9855 0.0000 -8.4438
# 5 -8.0930 19.6909 -4.9050 0.0000 26.7750 0.0000
# 6 0.0000 0.0000 0.0000 -8.4438 0.0000 24.4363
#
#
#
# Elastic Compliance Matrix: (Units=1/GPa)
#
#
# Indices 1 2 3 4 5 6 
#
# 1 0.013505 -0.001194 -0.003252 0.000000 0.004364 0.000000
# 2 -0.001194 0.008547 -0.001924 0.000000 -0.006999 0.000000
# 3 -0.003252 -0.001924 0.017843 0.000000 0.003701 0.000000
# 4 0.000000 0.000000 0.000000 -0.077500 0.000000 -0.026780
# 5 0.004364 -0.006999 0.003701 0.000000 0.044493 0.000000
# 6 0.000000 0.000000 0.000000 -0.026780 0.000000 0.031669
#
#
# Mechanical properties :
#
#
# Convention : Reuss Voigt Hill
#
# Bulk Modulus (GPa) = 36.82556 39.70506 38.26531
# Shear Modulus (GPa) = 82.85159 24.36663 53.60911
#
# Velocity S-wave (km/s) = 5.73757 3.11154 4.61526
# Velocity P-wave (km/s) = 7.65016 5.35584 6.60340
#
# Compressibility (1/GPa) = 0.02715505
#
# Stress axis : x y z
#
# Youngs Moduli (GPa) = 74.04767 116.99675 56.04417
#
# Poissons Ratio (x) = 0.13971 0.18223
# Poissons Ratio (y) = 0.08842 0.10785
# Poissons Ratio (z) = 0.24077 0.22514
#
# Static dielectric constant tensor:
#      x y z
#    x 2.055420 0.000000 -0.019610 
#    y 0.000000 1.992000 0.000000 
#    z -0.019610 0.000000 2.188410 
# 
# From -- ./inp_files/17192.got.cif
#   From: 2010.05.17/outbox.cif.g08.bks.cpg/sg15_9_cif.got.tgz:17192.got - 2010.06.03 18:47:42.
