data_PCOD9270163
_publ_section_title
;
Structure prediction by ZEFSAII (Michael W. Deem and Ramdas Pophale) SiO2 
 PCOD9270163
Probable space group: C 2/C
;
_chemical_formula_sum "Si O2"
_cell_formula_units_Z 64
_cell_length_a 12.066251
_cell_length_b 20.862608
_cell_length_c 17.311500
_cell_angle_alpha 90.000000
_cell_angle_beta 122.818717
_cell_angle_gamma 90.000000
_cell_volume 3662.320272
_symmetry_space_group_name_H-M "C 2/C"
_symmetry_group_IT_number 15
_symmetry_cell_setting 'monoclinic'
loop_
_space_group_symop_operation_xyz
x,y,z
-x,y,1/2-z
-x,-y,-z
x,-y,1/2+z
1/2+x,1/2+y,z
1/2-x,1/2+y,1/2-z
1/2-x,1/2-y,-z
1/2+x,1/2-y,1/2+z
loop_
_atom_site_type_symbol
_atom_site_label
_atom_site_fract_x
_atom_site_fract_y
_atom_site_fract_z
Si Si1 0.214045 0.264668 0.337227
Si Si2 0.722977 0.411656 0.180223
Si Si3 0.162658 0.388952 0.995844
Si Si4 0.510122 0.243138 0.451898
Si Si5 0.540261 0.364143 0.354033
Si Si6 0.118157 0.490965 0.855599
Si Si7 0.005424 0.263168 0.123483
Si Si8 0.952730 0.412532 0.391383
O O1 0.242365 0.341810 0.344438
O O2 0.353474 0.228959 0.387458
O O3 0.127650 0.247470 0.379824
O O4 0.124861 0.250972 0.228136
O O5 0.572142 0.408297 0.149703
O O6 0.764206 0.470244 0.141172
O O7 0.818576 0.417838 0.290627
O O8 0.312158 0.389196 0.082126
O O9 0.076215 0.422332 0.029972
O O10 0.155256 0.426107 0.912776
O O11 0.103444 0.317242 0.970620
O O12 0.537281 0.298007 0.400337
O O13 0.527362 0.266632 0.547343
O O14 0.500000 0.354074 0.250000
O O15 0.000000 0.480208 0.750000
O O16 0.057623 0.539630 0.895443
O O17 0.002148 0.339342 0.105261
#
# Coordination Sequence:
#
# PCOD9270163 Si02
#       8
#     8   8   8   8   8   8   8   8
#     4   9  16  31  55  83 111 145 178 231 274 315
#     4   9  17  33  58  83 102 138 181 235 271 314
#     4  11  22  36  52  84 111 149 177 219 280 338
#     4  10  22  33  52  82 113 145 186 225 271 332
#     4  11  22  39  58  77 107 148 193 232 269 323
#     4  10  20  35  56  84 109 137 177 231 280 327
#     4   9  16  30  55  85 108 139 185 228 273 319
#     4   9  16  32  57  81 109 129 180 228 271 322
#
# _framework density 17.475261
#
# number of rings (size 3 to 8) (size 9 to 14) (size 15 to 20)
#    0.000    2.250    2.500    1.125    1.750    1.000 
#    2.250    0.000    0.000    0.000    0.000    0.000 
#    0.000    0.000    0.000    0.000    0.000    0.000 
#
# Total GULP energy -178381.646644 kJ/mol
# GULP energy per Si atom -5574.426458 kJ/mol
# Density = 1.743549 g / cm^3
# Si number density = 17.475261 Si / 1000 Ang^3
#
#
#
# Elastic Constant Matrix: (Units=GPa)
#
#
# Indices 1 2 3 4 5 6 
#
# 1 84.2823 20.3389 41.4634 0.0000 -12.0273 0.0000
# 2 20.3389 28.4887 31.8428 0.0000 -12.2528 0.0000
# 3 41.4634 31.8428 90.4786 0.0000 -17.9760 0.0000
# 4 0.0000 0.0000 0.0000 22.2325 0.0000 -7.0946
# 5 -12.0273 -12.2528 -17.9760 0.0000 25.0166 0.0000
# 6 0.0000 0.0000 0.0000 -7.0946 0.0000 9.2544
#
#
#
# Elastic Compliance Matrix: (Units=1/GPa)
#
#
# Indices 1 2 3 4 5 6 
#
# 1 0.015823 -0.004753 -0.005284 0.000000 0.001483 0.000000
# 2 -0.004753 0.065349 -0.017400 0.000000 0.017219 0.000000
# 3 -0.005284 -0.017400 0.020297 0.000000 0.003522 0.000000
# 4 0.000000 0.000000 0.000000 0.059547 0.000000 0.045650
# 5 0.001483 0.017219 0.003522 0.000000 0.051651 0.000000
# 6 0.000000 0.000000 0.000000 0.045650 0.000000 0.143053
#
#
# Mechanical properties :
#
#
# Convention : Reuss Voigt Hill
#
# Bulk Modulus (GPa) = 21.46089 43.39332 32.42711
# Shear Modulus (GPa) = 11.73366 18.60766 15.17066
#
# Velocity S-wave (km/s) = 2.59403 3.26667 2.94959
# Velocity P-wave (km/s) = 4.61296 6.25407 5.49512
#
# Compressibility (1/GPa) = 0.04659639
#
# Stress axis : x y z
#
# Youngs Moduli (GPa) = 63.19988 15.30248 49.26803
#
# Poissons Ratio (x) = 0.07273 0.26033
# Poissons Ratio (y) = 0.30037 0.85725
# Poissons Ratio (z) = 0.33394 0.26626
#
# Static dielectric constant tensor:
#      x y z
#    x 1.607700 0.000000 -0.008190 
#    y 0.000000 1.569990 0.000000 
#    z -0.008190 0.000000 1.604040 
# 
# From -- ./inp_files/147172.got.cif
#   From: 2010.05.17/outbox.cif.g08.bks.cpg/sg15_74_cif.got.tgz:147172.got - 2010.06.03 18:47:42.
