data_PCOD9270999
_publ_section_title
;
Structure prediction by ZEFSAII (Michael W. Deem and Ramdas Pophale) SiO2 
 PCOD9270999
Probable space group: C 2/C
;
_chemical_formula_sum "Si O2"
_cell_formula_units_Z 48
_cell_length_a 19.631480
_cell_length_b 7.771435
_cell_length_c 14.244941
_cell_angle_alpha 90.000000
_cell_angle_beta 55.513203
_cell_angle_gamma 90.000000
_cell_volume 1791.337406
_symmetry_space_group_name_H-M "C 2/C"
_symmetry_group_IT_number 15
_symmetry_cell_setting 'monoclinic'
loop_
_space_group_symop_operation_xyz
x,y,z
-x,y,1/2-z
-x,-y,-z
x,-y,1/2+z
1/2+x,1/2+y,z
1/2-x,1/2+y,1/2-z
1/2-x,1/2-y,-z
1/2+x,1/2-y,1/2+z
loop_
_atom_site_type_symbol
_atom_site_label
_atom_site_fract_x
_atom_site_fract_y
_atom_site_fract_z
Si Si1 0.854620 0.445452 0.274866
Si Si2 0.966543 0.203163 0.089362
Si Si3 0.828470 0.078563 0.396864
Si Si4 0.819819 0.954728 0.597902
Si Si5 0.500000 0.000000 0.000000
Si Si6 0.000000 0.018406 0.250000
Si Si7 0.847662 0.587495 0.479272
O O1 0.928116 0.399695 0.144015
O O2 0.844625 0.255847 0.329561
O O3 0.771142 0.509854 0.289789
O O4 0.869702 0.566877 0.351537
O O5 0.895442 0.076445 0.108958
O O6 0.020341 0.280947 0.965461
O O7 0.006443 0.131457 0.150522
O O8 0.906615 0.952722 0.314748
O O9 0.826121 0.096706 0.511623
O O10 0.739247 0.010056 0.440425
O O11 0.824999 0.777084 0.534867
O O12 0.577467 0.010185 0.021150
#
# Coordination Sequence:
#
# PCOD9270999 Si02
#       7
#     8   8   8   8   4   4   8
#     4  10  20  38  64  88 116 160 200 244 307 366
#     4  10  22  36  56  86 123 158 201 251 297 362
#     4  10  20  38  63  86 117 158 195 242 308 366
#     4  10  21  38  60  91 121 153 201 255 299 356
#     4  10  20  36  56  84 120 158 194 242 296 348
#     4  10  22  40  58  84 118 154 198 244 294 360
#     4  10  20  37  61  88 122 157 200 250 300 358
#
# _framework density 26.795621000000001
#
# number of rings (size 3 to 8) (size 9 to 14) (size 15 to 20)
#    0.000    2.000    0.000    6.000    0.000    6.000 
#    0.000    8.333    0.000    1.000    0.000    0.000 
#    0.000    0.000    0.000    0.000    0.000    0.000 
#
# Total GULP energy -133731.842635 kJ/mol
# GULP energy per Si atom -5572.160110 kJ/mol
# Density = 2.673463 g / cm^3
# Si number density = 26.795621 Si / 1000 Ang^3
#
#
#
# Elastic Constant Matrix: (Units=GPa)
#
#
# Indices 1 2 3 4 5 6 
#
# 1 185.9024 65.1136 40.4201 0.0000 5.1104 0.0000
# 2 65.1136 115.2602 41.2269 0.0000 -11.6943 0.0000
# 3 40.4201 41.2269 102.9085 0.0000 -9.5622 0.0000
# 4 0.0000 0.0000 0.0000 42.6460 0.0000 -4.6311
# 5 5.1104 -11.6943 -9.5622 0.0000 54.8322 0.0000
# 6 0.0000 0.0000 0.0000 -4.6311 0.0000 34.6641
#
#
#
# Elastic Compliance Matrix: (Units=1/GPa)
#
#
# Indices 1 2 3 4 5 6 
#
# 1 0.007006 -0.003605 -0.001464 0.000000 -0.001677 0.000000
# 2 -0.003605 0.012101 -0.003213 0.000000 0.002356 0.000000
# 3 -0.001464 -0.003213 0.011718 0.000000 0.001495 0.000000
# 4 0.000000 0.000000 0.000000 0.023794 0.000000 0.003179
# 5 -0.001677 0.002356 0.001495 0.000000 0.019157 0.000000
# 6 0.000000 0.000000 0.000000 0.003179 0.000000 0.029273
#
#
# Mechanical properties :
#
#
# Convention : Reuss Voigt Hill
#
# Bulk Modulus (GPa) = 70.11276 77.51025 73.81150
# Shear Modulus (GPa) = 40.20412 43.58251 41.89331
#
# Velocity S-wave (km/s) = 3.87770 4.03734 3.95832
# Velocity P-wave (km/s) = 6.80230 7.12199 6.96398
#
# Compressibility (1/GPa) = 0.01426274
#
# Stress axis : x y z
#
# Youngs Moduli (GPa) = 142.73485 82.64032 85.33662
#
# Poissons Ratio (x) = 0.29788 0.12490
# Poissons Ratio (y) = 0.51449 0.27419
# Poissons Ratio (z) = 0.20890 0.26552
#
# Static dielectric constant tensor:
#      x y z
#    x 2.102620 0.000000 -0.119510 
#    y 0.000000 2.233600 0.000000 
#    z -0.119510 0.000000 2.308970 
# 
# From -- ./inp_files/213298.got.cif
#   From: 2010.05.17/outbox.cif.g08.bks.cpg/sg15_107_cif.got.tgz:213298.got - 2010.06.03 18:47:42.
