data_PCOD9270328
_publ_section_title
;
Structure prediction by ZEFSAII (Michael W. Deem and Ramdas Pophale) SiO2 
 PCOD9270328
Probable space group: C 2/C
;
_chemical_formula_sum "Si O2"
_cell_formula_units_Z 44
_cell_length_a 24.680094
_cell_length_b 10.339978
_cell_length_c 23.433796
_cell_angle_alpha 90.000000
_cell_angle_beta 158.474042
_cell_angle_gamma 90.000000
_cell_volume 2194.237687
_symmetry_space_group_name_H-M "C 2/C"
_symmetry_group_IT_number 15
_symmetry_cell_setting 'monoclinic'
loop_
_space_group_symop_operation_xyz
x,y,z
-x,y,1/2-z
-x,-y,-z
x,-y,1/2+z
1/2+x,1/2+y,z
1/2-x,1/2+y,1/2-z
1/2-x,1/2-y,-z
1/2+x,1/2-y,1/2+z
loop_
_atom_site_type_symbol
_atom_site_label
_atom_site_fract_x
_atom_site_fract_y
_atom_site_fract_z
Si Si1 0.716386 0.573128 0.183020
Si Si2 0.387449 0.665003 0.723010
Si Si3 0.250103 0.924708 0.971774
Si Si4 0.887732 0.178384 0.859368
Si Si5 0.777010 0.081265 0.446295
Si Si6 0.500000 0.233020 0.750000
O O1 0.838097 0.675308 0.324223
O O2 0.707647 0.433579 0.203869
O O3 0.731314 0.554084 0.129316
O O4 0.558441 0.644364 0.038692
O O5 0.284702 0.554409 0.595927
O O6 0.366432 0.665332 0.770485
O O7 0.337964 0.804735 0.652765
O O8 0.557872 0.632511 0.878451
O O9 0.116370 0.825167 0.832210
O O10 0.404886 0.854952 0.114007
O O11 0.249694 0.961856 0.038444
#
# Coordination Sequence:
#
# PCOD9270328 Si02
#       6
#     8   8   8   8   8   4
#     4   9  19  37  55  80 110 142 180 224 267 316
#     4  10  20  35  58  80 107 138 181 227 264 314
#     4  11  21  40  53  80 108 144 176 217 269 319
#     4   9  19  37  55  80 110 142 180 224 267 316
#     4  10  20  35  58  80 107 138 181 227 264 314
#     4  10  24  38  54  72 120 142 174 216 260 330
#
# _framework density 20.052522
#
# number of rings (size 3 to 8) (size 9 to 14) (size 15 to 20)
#    0.000    2.182    1.818    0.545    2.545    0.727 
#    6.545    0.000    0.000    0.000    0.000    0.000 
#    0.000    0.000    0.000    0.000    0.000    0.000 
#
# Total GULP energy -122819.580692 kJ/mol
# GULP energy per Si atom -5582.708213 kJ/mol
# Density = 2.000688 g / cm^3
# Si number density = 20.052522 Si / 1000 Ang^3
#
#
#
# Elastic Constant Matrix: (Units=GPa)
#
#
# Indices 1 2 3 4 5 6 
#
# 1 25.3862 20.4669 9.2253 0.0001 5.7346 0.0000
# 2 20.4669 67.0029 17.3706 -0.0005 2.6820 -0.0002
# 3 9.2253 17.3706 53.7260 -0.0005 1.5443 -0.0002
# 4 0.0001 -0.0005 -0.0005 40.7157 -0.0003 -3.5152
# 5 5.7346 2.6820 1.5443 -0.0003 11.4374 -0.0001
# 6 0.0000 -0.0002 -0.0002 -3.5152 -0.0001 23.5965
#
#
#
# Elastic Compliance Matrix: (Units=1/GPa)
#
#
# Indices 1 2 3 4 5 6 
#
# 1 0.059718 -0.016099 -0.004314 -0.000001 -0.025584 0.000000
# 2 -0.016099 0.020742 -0.004050 0.000000 0.003755 0.000000
# 3 -0.004314 -0.004050 0.020654 0.000000 0.000324 0.000000
# 4 -0.000001 0.000000 0.000000 0.024881 0.000001 0.003706
# 5 -0.025584 0.003755 0.000324 0.000001 0.099335 0.000001
# 6 0.000000 0.000000 0.000000 0.003706 0.000001 0.042931
#
#
# Mechanical properties :
#
#
# Convention : Reuss Voigt Hill
#
# Bulk Modulus (GPa) = 19.16140 26.69342 22.92741
# Shear Modulus (GPa) = 14.94402 21.75342 18.34872
#
# Velocity S-wave (km/s) = 2.73288 3.29724 3.02823
# Velocity P-wave (km/s) = 4.41979 5.27602 4.86677
#
# Compressibility (1/GPa) = 0.05218825
#
# Stress axis : x y z
#
# Youngs Moduli (GPa) = 16.74547 48.21131 48.41737
#
# Poissons Ratio (x) = 0.77616 0.20886
# Poissons Ratio (y) = 0.26959 0.19608
# Poissons Ratio (z) = 0.07223 0.19525
#
# Static dielectric constant tensor:
#      x y z
#    x 1.693190 0.000000 0.018860 
#    y 0.000000 1.691030 0.000000 
#    z 0.018860 0.000000 1.732300 
# 
# From -- ./inp_files/60479.got.cif
#   From: 2010.05.17/outbox.cif.g08.bks.cpg/sg15_31_cif.got.tgz:60479.got - 2010.06.03 18:47:42.
