data_PCOD9270306
_publ_section_title
;
Structure prediction by ZEFSAII (Michael W. Deem and Ramdas Pophale) SiO2 
 PCOD9270306
Probable space group: C 2/C
;
_chemical_formula_sum "Si O2"
_cell_formula_units_Z 48
_cell_length_a 19.912319
_cell_length_b 12.139181
_cell_length_c 19.271616
_cell_angle_alpha 90.000000
_cell_angle_beta 147.271735
_cell_angle_gamma 90.000000
_cell_volume 2518.546049
_symmetry_space_group_name_H-M "C 2/C"
_symmetry_group_IT_number 15
_symmetry_cell_setting 'monoclinic'
loop_
_space_group_symop_operation_xyz
x,y,z
-x,y,1/2-z
-x,-y,-z
x,-y,1/2+z
1/2+x,1/2+y,z
1/2-x,1/2+y,1/2-z
1/2-x,1/2-y,-z
1/2+x,1/2-y,1/2+z
loop_
_atom_site_type_symbol
_atom_site_label
_atom_site_fract_x
_atom_site_fract_y
_atom_site_fract_z
Si Si1 0.903708 0.414291 0.883014
Si Si2 0.007282 0.500357 0.179752
Si Si3 0.070213 0.162511 0.551881
Si Si4 0.732285 0.411635 0.928782
Si Si5 0.767674 0.653868 0.608298
Si Si6 0.129687 0.969704 0.701367
O O1 0.925605 0.426827 0.819754
O O2 0.931741 0.290201 0.930933
O O3 0.766850 0.447176 0.789777
O O4 0.000000 0.500000 0.000000
O O5 0.093318 0.391905 0.263321
O O6 0.000000 0.552471 0.250000
O O7 0.869010 0.464335 0.038332
O O8 0.191927 0.136175 0.612221
O O9 0.075899 0.082845 0.623384
O O10 0.956316 0.126905 0.404062
O O11 0.735537 0.283224 0.910371
O O12 0.641044 0.467470 0.794349
O O13 0.707986 0.409454 0.990191
#
# Coordination Sequence:
#
# PCOD9270306 Si02
#       6
#     8   8   8   8   8   8
#     4  12  23  38  67  88 117 167 205 247 303 367
#     4  10  21  38  59  87 117 156 207 246 291 363
#     4  11  25  39  60  90 126 156 202 256 303 357
#     4  10  21  34  59  88 118 155 195 241 309 361
#     4  10  20  35  57  90 122 150 189 254 304 355
#     4  11  24  39  58  92 121 157 201 251 305 364
#
# _framework density 19.058616000000001
#
# number of rings (size 3 to 8) (size 9 to 14) (size 15 to 20)
#    0.000    1.333    5.000    0.000    7.000    0.667 
#    0.000    0.000    7.333    3.000    0.000    0.000 
#    0.000    0.000    0.000    0.000    0.000    0.000 
#
# Total GULP energy -134005.448472 kJ/mol
# GULP energy per Si atom -5583.560353 kJ/mol
# Density = 1.901524 g / cm^3
# Si number density = 19.058616 Si / 1000 Ang^3
#
#
#
# Elastic Constant Matrix: (Units=GPa)
#
#
# Indices 1 2 3 4 5 6 
#
# 1 61.4701 12.1633 -7.4190 0.0000 -21.4221 0.0000
# 2 12.1633 74.7060 26.0133 0.0000 -10.9024 0.0000
# 3 -7.4190 26.0133 79.3184 0.0000 -17.3750 0.0000
# 4 0.0000 0.0000 0.0000 17.2758 0.0000 -5.0516
# 5 -21.4221 -10.9024 -17.3750 0.0000 35.2852 0.0000
# 6 0.0000 0.0000 0.0000 -5.0516 0.0000 23.8613
#
#
#
# Elastic Compliance Matrix: (Units=1/GPa)
#
#
# Indices 1 2 3 4 5 6 
#
# 1 0.023741 -0.003921 0.007172 0.000000 0.016734 0.000000
# 2 -0.003921 0.015958 -0.005651 0.000000 -0.000232 0.000000
# 3 0.007172 -0.005651 0.017602 0.000000 0.011275 0.000000
# 4 0.000000 0.000000 0.000000 0.061704 0.000000 0.013063
# 5 0.016734 -0.000232 0.011275 0.000000 0.043980 0.000000
# 6 0.000000 0.000000 0.000000 0.013063 0.000000 0.044675
#
#
# Mechanical properties :
#
#
# Convention : Reuss Voigt Hill
#
# Bulk Modulus (GPa) = 19.04728 30.77885 24.91306
# Shear Modulus (GPa) = 21.74292 27.60025 24.67159
#
# Velocity S-wave (km/s) = 3.38130 3.80962 3.60183
# Velocity P-wave (km/s) = 5.02594 5.96117 5.51342
#
# Compressibility (1/GPa) = 0.05250094
#
# Stress axis : x y z
#
# Youngs Moduli (GPa) = 42.12100 62.66426 56.81317
#
# Poissons Ratio (x) = 0.24569 -0.40747
# Poissons Ratio (y) = 0.16514 0.32106
# Poissons Ratio (z) = -0.30209 0.35413
#
# Static dielectric constant tensor:
#      x y z
#    x 1.700950 0.000000 -0.032160 
#    y 0.000000 1.624560 0.000000 
#    z -0.032160 0.000000 1.684570 
# 
# From -- ./inp_files/252628.got.cif
#   From: 2010.05.17/outbox.cif.g08.bks.cpg/sg15_127_cif.got.tgz:252628.got - 2010.06.03 18:47:42.
