data_PCOD9270941
_publ_section_title
;
Structure prediction by ZEFSAII (Michael W. Deem and Ramdas Pophale) SiO2 
 PCOD9270941
Probable space group: C 2/C
;
_chemical_formula_sum "Si O2"
_cell_formula_units_Z 48
_cell_length_a 6.221418
_cell_length_b 16.252435
_cell_length_c 24.601383
_cell_angle_alpha 90.000000
_cell_angle_beta 73.816038
_cell_angle_gamma 90.000000
_cell_volume 2388.948098
_symmetry_space_group_name_H-M "C 2/C"
_symmetry_group_IT_number 15
_symmetry_cell_setting 'monoclinic'
loop_
_space_group_symop_operation_xyz
x,y,z
-x,y,1/2-z
-x,-y,-z
x,-y,1/2+z
1/2+x,1/2+y,z
1/2-x,1/2+y,1/2-z
1/2-x,1/2-y,-z
1/2+x,1/2-y,1/2+z
loop_
_atom_site_type_symbol
_atom_site_label
_atom_site_fract_x
_atom_site_fract_y
_atom_site_fract_z
Si Si1 0.285216 0.971317 0.050570
Si Si2 0.131308 0.763737 0.686914
Si Si3 0.997488 0.868813 0.591411
Si Si4 0.395164 0.222788 0.384439
Si Si5 0.539145 0.326294 0.469582
Si Si6 0.482329 0.142368 0.617654
O O1 0.373174 0.940629 0.103145
O O2 0.144147 0.897257 0.031921
O O3 0.113301 0.045220 0.072090
O O4 0.500000 0.000000 0.000000
O O5 0.398791 0.765454 0.670513
O O6 0.000000 0.786799 0.750000
O O7 0.081440 0.826793 0.640766
O O8 0.051895 0.672836 0.672708
O O9 0.727630 0.864327 0.611841
O O10 0.050856 0.816704 0.533070
O O11 0.473192 0.245318 0.439933
O O12 0.207334 0.290410 0.383858
O O13 0.782672 0.351818 0.430879
#
# Coordination Sequence:
#
# PCOD9270941 Si02
#       6
#     8   8   8   8   8   8
#     4  11  22  35  57  88 128 159 186 233 299 371
#     4  10  23  42  63  84 111 154 208 258 293 338
#     4  11  22  33  59  89 121 154 189 243 300 349
#     4   9  21  36  59  87 116 149 198 246 298 353
#     4  10  20  36  55  87 123 156 189 234 296 371
#     4   9  20  38  59  86 117 157 198 233 295 361
#
# _framework density 20.092524000000001
#
# number of rings (size 3 to 8) (size 9 to 14) (size 15 to 20)
#    0.000    2.000    1.667    1.000    2.333    8.667 
#    0.000    0.000   11.000    0.000    0.000    0.000 
#    0.000    0.000    0.000    0.000    0.000    0.000 
#
# Total GULP energy -133786.015974 kJ/mol
# GULP energy per Si atom -5574.417332 kJ/mol
# Density = 2.004679 g / cm^3
# Si number density = 20.092524 Si / 1000 Ang^3
#
#
#
# Elastic Constant Matrix: (Units=GPa)
#
#
# Indices 1 2 3 4 5 6 
#
# 1 126.5745 46.2590 47.9059 0.0000 -25.2716 0.0000
# 2 46.2590 80.5038 29.0637 0.0000 -14.7285 0.0000
# 3 47.9059 29.0637 113.3723 0.0000 -24.0705 0.0000
# 4 0.0000 0.0000 0.0000 17.8733 0.0000 4.5106
# 5 -25.2716 -14.7285 -24.0705 0.0000 16.7041 0.0000
# 6 0.0000 0.0000 0.0000 4.5106 0.0000 47.6134
#
#
#
# Elastic Compliance Matrix: (Units=1/GPa)
#
#
# Indices 1 2 3 4 5 6 
#
# 1 0.012682 -0.004339 -0.001419 0.000000 0.013315 0.000000
# 2 -0.004339 0.016469 -0.001007 0.000000 0.006505 0.000000
# 3 -0.001419 -0.001007 0.013016 0.000000 0.015721 0.000000
# 4 0.000000 0.000000 0.000000 0.057320 0.000000 -0.005430
# 5 0.013315 0.006505 0.015721 0.000000 0.108399 0.000000
# 6 0.000000 0.000000 0.000000 -0.005430 0.000000 0.021517
#
#
# Mechanical properties :
#
#
# Convention : Reuss Voigt Hill
#
# Bulk Modulus (GPa) = 34.92131 62.98975 48.95553
# Shear Modulus (GPa) = 19.80360 29.58630 24.69495
#
# Velocity S-wave (km/s) = 3.14287 3.84148 3.50960
# Velocity P-wave (km/s) = 5.53065 7.14800 6.39070
#
# Compressibility (1/GPa) = 0.02863581
#
# Stress axis : x y z
#
# Youngs Moduli (GPa) = 78.85254 60.72112 76.82706
#
# Poissons Ratio (x) = 0.26345 0.10906
# Poissons Ratio (y) = 0.34212 0.07739
# Poissons Ratio (z) = 0.11193 0.06117
#
# Static dielectric constant tensor:
#      x y z
#    x 1.812210 0.000000 0.013640 
#    y 0.000000 1.772070 0.000000 
#    z 0.013640 0.000000 1.694650 
# 
# From -- ./inp_files/260661.got.cif
#   From: 2010.05.17/outbox.cif.g08.bks.cpg/sg15_131_cif.got.tgz:260661.got - 2010.06.03 18:47:42.
