data_PCOD9270718
_publ_section_title
;
Structure prediction by ZEFSAII (Michael W. Deem and Ramdas Pophale) SiO2 
 PCOD9270718
Probable space group: C 2/C
;
_chemical_formula_sum "Si O2"
_cell_formula_units_Z 60
_cell_length_a 11.978734
_cell_length_b 26.770119
_cell_length_c 17.376399
_cell_angle_alpha 90.000000
_cell_angle_beta 149.879335
_cell_angle_gamma 90.000000
_cell_volume 2796.220022
_symmetry_space_group_name_H-M "C 2/C"
_symmetry_group_IT_number 15
_symmetry_cell_setting 'monoclinic'
loop_
_space_group_symop_operation_xyz
x,y,z
-x,y,1/2-z
-x,-y,-z
x,-y,1/2+z
1/2+x,1/2+y,z
1/2-x,1/2+y,1/2-z
1/2-x,1/2-y,-z
1/2+x,1/2-y,1/2+z
loop_
_atom_site_type_symbol
_atom_site_label
_atom_site_fract_x
_atom_site_fract_y
_atom_site_fract_z
Si Si1 0.061687 0.787023 0.419140
Si Si2 0.371351 0.934702 0.784730
Si Si3 0.318992 0.598034 0.496910
Si Si4 0.680443 0.464394 0.148554
Si Si5 0.125763 0.756743 0.625539
Si Si6 0.500000 0.892866 0.250000
Si Si7 0.313687 0.652626 0.238008
Si Si8 0.330126 0.824467 0.011303
O O1 0.250000 0.750000 0.500000
O O2 0.142800 0.843618 0.469675
O O3 0.011645 0.771911 0.478032
O O4 0.832598 0.780345 0.236588
O O5 0.279782 0.915558 0.646850
O O6 0.629108 0.919776 0.941772
O O7 0.221698 0.903239 0.753990
O O8 0.351249 0.994135 0.780683
O O9 0.551581 0.568310 0.634772
O O10 0.798259 0.428247 0.157270
O O11 0.500000 0.500000 0.000000
O O12 0.238803 0.806704 0.727656
O O13 0.951648 0.729300 0.578433
O O14 0.447284 0.858051 0.145491
O O15 0.568897 0.667535 0.373052
O O16 0.160696 0.658942 0.072233
#
# Coordination Sequence:
#
# PCOD9270718 Si02
#       8
#     8   8   8   8   8   4   8   8
#     4  12  25  40  64  97 137 182 225 272 334 405
#     4  10  20  37  68  92 129 170 220 273 335 400
#     4  10  20  35  62  96 129 170 221 273 330 390
#     4  10  20  38  64 100 126 168 223 279 337 401
#     4  12  24  42  63  95 135 180 225 274 332 405
#     4  12  24  42  68  96 134 172 226 288 334 406
#     4  11  23  44  61  96 134 178 223 274 345 404
#     4  11  26  40  66  94 131 178 221 278 338 408
#
# _framework density 21.457539000000001
#
# number of rings (size 3 to 8) (size 9 to 14) (size 15 to 20)
#    0.000    1.067    2.667    5.600    3.733    1.067 
#    0.000    0.667    0.000    1.600    0.000    0.000 
#    0.000    0.000    0.000    0.000    0.000    0.000 
#
# Total GULP energy -167465.437078 kJ/mol
# GULP energy per Si atom -5582.181236 kJ/mol
# Density = 2.140870 g / cm^3
# Si number density = 21.457539 Si / 1000 Ang^3
#
#
#
# Elastic Constant Matrix: (Units=GPa)
#
#
# Indices 1 2 3 4 5 6 
#
# 1 48.8041 43.3950 13.4268 0.0000 17.7164 -0.0001
# 2 43.3950 140.6046 18.3809 0.0000 11.4187 0.0001
# 3 13.4268 18.3809 54.7855 0.0006 5.5763 -0.0004
# 4 0.0000 0.0000 0.0006 13.6732 0.0001 11.7506
# 5 17.7164 11.4187 5.5763 0.0001 44.2712 -0.0002
# 6 -0.0001 0.0001 -0.0004 11.7506 -0.0002 41.7585
#
#
#
# Elastic Compliance Matrix: (Units=1/GPa)
#
#
# Indices 1 2 3 4 5 6 
#
# 1 0.033364 -0.008903 -0.004117 0.000000 -0.010537 0.000000
# 2 -0.008903 0.009931 -0.001268 0.000000 0.001161 0.000000
# 3 -0.004117 -0.001268 0.019740 -0.000001 -0.000512 0.000001
# 4 0.000000 0.000000 -0.000001 0.096464 0.000000 -0.027144
# 5 -0.010537 0.001161 -0.000512 0.000000 0.026570 0.000000
# 6 0.000000 0.000000 0.000001 -0.027144 0.000000 0.031585
#
#
# Mechanical properties :
#
#
# Convention : Reuss Voigt Hill
#
# Bulk Modulus (GPa) = 29.02110 43.84438 36.43274
# Shear Modulus (GPa) = 19.40107 31.20669 25.30388
#
# Velocity S-wave (km/s) = 3.01019 3.81773 3.43775
# Velocity P-wave (km/s) = 5.06319 6.31750 5.72480
#
# Compressibility (1/GPa) = 0.03445769
#
# Stress axis : x y z
#
# Youngs Moduli (GPa) = 29.97218 100.68982 50.65946
#
# Poissons Ratio (x) = 0.89647 0.20858
# Poissons Ratio (y) = 0.26685 0.06425
# Poissons Ratio (z) = 0.12340 0.12770
#
# Static dielectric constant tensor:
#      x y z
#    x 1.819690 0.000000 0.039060 
#    y 0.000000 1.773830 0.000000 
#    z 0.039060 0.000000 1.839480 
# 
# From -- ./inp_files/201265.got.cif
#   From: 2010.05.17/outbox.cif.g08.bks.cpg/sg15_101_cif.got.tgz:201265.got - 2010.06.03 18:47:42.
