data_PCOD9270707
_publ_section_title
;
Structure prediction by ZEFSAII (Michael W. Deem and Ramdas Pophale) SiO2 
 PCOD9270707
Probable space group: C 2/C
;
_chemical_formula_sum "Si O2"
_cell_formula_units_Z 40
_cell_length_a 6.995803
_cell_length_b 20.814919
_cell_length_c 11.107860
_cell_angle_alpha 90.000000
_cell_angle_beta 71.872924
_cell_angle_gamma 90.000000
_cell_volume 1537.215904
_symmetry_space_group_name_H-M "C 2/C"
_symmetry_group_IT_number 15
_symmetry_cell_setting 'monoclinic'
loop_
_space_group_symop_operation_xyz
x,y,z
-x,y,1/2-z
-x,-y,-z
x,-y,1/2+z
1/2+x,1/2+y,z
1/2-x,1/2+y,1/2-z
1/2-x,1/2-y,-z
1/2+x,1/2-y,1/2+z
loop_
_atom_site_type_symbol
_atom_site_label
_atom_site_fract_x
_atom_site_fract_y
_atom_site_fract_z
Si Si1 0.966379 0.824369 0.398028
Si Si2 0.532641 0.781002 0.439952
Si Si3 0.000000 0.618830 0.750000
Si Si4 0.892303 0.074333 0.437663
Si Si5 0.295321 0.001346 0.832128
Si Si6 0.000000 0.177452 0.250000
O O1 0.728766 0.812928 0.457889
O O2 0.071982 0.760352 0.434908
O O3 0.000000 0.828303 0.250000
O O4 0.024437 0.885583 0.464470
O O5 0.442750 0.836369 0.372585
O O6 0.588041 0.724184 0.334203
O O7 0.173186 0.567776 0.749238
O O8 0.722801 0.027637 0.526005
O O9 0.846839 0.129146 0.348383
O O10 0.085854 0.033862 0.355467
O O11 0.500000 0.965429 0.750000
#
# Coordination Sequence:
#
# PCOD9270707 Si02
#       6
#     8   8   4   8   8   4
#     4  10  20  35  62  92 127 166 206 261 322 379
#     4   9  19  37  60  95 125 159 208 260 322 378
#     4   9  18  38  62  92 128 157 212 262 316 383
#     4  10  20  42  62  92 127 168 217 261 313 382
#     4   9  21  40  61  89 127 166 218 257 314 378
#     4   9  20  38  66  90 128 161 214 262 316 379
#
# _framework density 26.021069000000001
#
# number of rings (size 3 to 8) (size 9 to 14) (size 15 to 20)
#    0.600    2.000    0.000    1.200    0.000    1.600 
#   14.400   19.000    0.000    0.000    0.000    0.000 
#    0.000    0.000    0.000    0.000    0.000    0.000 
#
# Total GULP energy -111533.838927 kJ/mol
# GULP energy per Si atom -5576.691946 kJ/mol
# Density = 2.596184 g / cm^3
# Si number density = 26.021069 Si / 1000 Ang^3
#
#
#
# Elastic Constant Matrix: (Units=GPa)
#
#
# Indices 1 2 3 4 5 6 
#
# 1 75.4304 41.4989 41.8662 0.0000 -20.1547 0.0000
# 2 41.4989 113.9736 46.2318 0.0000 1.2930 0.0000
# 3 41.8662 46.2318 132.9642 0.0000 0.4999 0.0000
# 4 0.0000 0.0000 0.0000 47.5978 0.0000 -6.9505
# 5 -20.1547 1.2930 0.4999 0.0000 52.1220 0.0000
# 6 0.0000 0.0000 0.0000 -6.9505 0.0000 31.7237
#
#
#
# Elastic Compliance Matrix: (Units=1/GPa)
#
#
# Indices 1 2 3 4 5 6 
#
# 1 0.021425 -0.005993 -0.004694 0.000000 0.008479 0.000000
# 2 -0.005993 0.011894 -0.002239 0.000000 -0.002591 0.000000
# 3 -0.004694 -0.002239 0.009784 0.000000 -0.001853 0.000000
# 4 0.000000 0.000000 0.000000 0.021704 0.000000 0.004755
# 5 0.008479 -0.002591 -0.001853 0.000000 0.022546 0.000000
# 6 0.000000 0.000000 0.000000 0.004755 0.000000 0.032564
#
#
# Mechanical properties :
#
#
# Convention : Reuss Voigt Hill
#
# Bulk Modulus (GPa) = 57.96726 64.61801 61.29264
# Shear Modulus (GPa) = 32.99904 39.14013 36.06958
#
# Velocity S-wave (km/s) = 3.56500 3.88257 3.72717
# Velocity P-wave (km/s) = 6.26666 6.70716 6.49065
#
# Compressibility (1/GPa) = 0.01725112
#
# Stress axis : x y z
#
# Youngs Moduli (GPa) = 46.67371 84.07876 102.20555
#
# Poissons Ratio (x) = 0.50390 0.47977
# Poissons Ratio (y) = 0.27973 0.22880
# Poissons Ratio (z) = 0.21909 0.18822
#
# Static dielectric constant tensor:
#      x y z
#    x 2.140410 0.000000 -0.069130 
#    y 0.000000 2.087790 0.000000 
#    z -0.069130 0.000000 2.140390 
# 
# From -- ./inp_files/78652.got.cif
#   From: 2010.05.17/outbox.cif.g08.bks.cpg/sg15_40_cif.got.tgz:78652.got - 2010.06.03 18:47:42.
