data_PCOD9270958
_publ_section_title
;
Structure prediction by ZEFSAII (Michael W. Deem and Ramdas Pophale) SiO2 
 PCOD9270958
Probable space group: C 2/C
;
_chemical_formula_sum "Si O2"
_cell_formula_units_Z 56
_cell_length_a 24.256910
_cell_length_b 16.478299
_cell_length_c 22.902730
_cell_angle_alpha 90.000000
_cell_angle_beta 160.658422
_cell_angle_gamma 90.000000
_cell_volume 3031.966395
_symmetry_space_group_name_H-M "C 2/C"
_symmetry_group_IT_number 15
_symmetry_cell_setting 'monoclinic'
loop_
_space_group_symop_operation_xyz
x,y,z
-x,y,1/2-z
-x,-y,-z
x,-y,1/2+z
1/2+x,1/2+y,z
1/2-x,1/2+y,1/2-z
1/2-x,1/2-y,-z
1/2+x,1/2-y,1/2+z
loop_
_atom_site_type_symbol
_atom_site_label
_atom_site_fract_x
_atom_site_fract_y
_atom_site_fract_z
Si Si1 0.134978 0.289603 0.595190
Si Si2 0.148511 0.815692 0.861776
Si Si3 0.871058 0.688499 0.746237
Si Si4 0.542391 0.368884 0.546880
Si Si5 0.682510 0.017988 0.860196
Si Si6 0.497495 0.492839 0.096742
Si Si7 0.200682 0.519587 0.015039
O O1 0.236096 0.236316 0.649224
O O2 0.262175 0.347495 0.755250
O O3 0.001596 0.340637 0.425186
O O4 0.045379 0.218936 0.542159
O O5 0.059279 0.760656 0.724210
O O6 0.270549 0.882813 0.957727
O O7 0.000000 0.856431 0.750000
O O8 0.250000 0.750000 0.000000
O O9 0.812615 0.614880 0.647810
O O10 0.494046 0.423751 0.443921
O O11 0.501512 0.421733 0.564487
O O12 0.487500 0.996996 0.654666
O O13 0.718204 0.998147 0.963714
O O14 0.826025 0.984642 0.961583
O O15 0.653907 0.489022 0.297163
#
# Coordination Sequence:
#
# PCOD9270958 Si02
#       7
#     8   8   8   8   8   8   8
#     4  10  20  36  56  79 111 152 194 252 278 332
#     4  12  21  29  45  77 115 162 202 225 265 330
#     4  11  19  30  48  76 114 150 193 232 274 331
#     4  10  22  40  60  83 116 148 206 243 296 342
#     4  11  21  36  53  82 115 154 189 232 286 351
#     4  11  22  41  58  86 117 164 191 242 292 352
#     4  11  23  35  52  81 119 155 199 234 278 347
#
# _framework density 18.469861000000002
#
# number of rings (size 3 to 8) (size 9 to 14) (size 15 to 20)
#    0.000    1.143    2.857    6.429    0.000    0.000 
#    5.143    2.143    0.000    0.000    0.000    4.000 
#    0.000    0.000    0.000    0.000    0.000    0.000 
#
# Total GULP energy -156217.346183 kJ/mol
# GULP energy per Si atom -5579.190935 kJ/mol
# Density = 1.842782 g / cm^3
# Si number density = 18.469861 Si / 1000 Ang^3
#
#
#
# Elastic Constant Matrix: (Units=GPa)
#
#
# Indices 1 2 3 4 5 6 
#
# 1 80.0201 13.1879 51.8419 0.0016 -0.9406 -0.0010
# 2 13.1879 30.6414 24.3310 0.0150 -12.2985 0.0117
# 3 51.8419 24.3310 137.2347 0.0082 -10.3783 0.0018
# 4 0.0016 0.0150 0.0082 25.0884 0.0053 -6.0365
# 5 -0.9406 -12.2985 -10.3783 0.0053 26.7371 0.0003
# 6 -0.0010 0.0117 0.0018 -6.0365 0.0003 13.9893
#
#
#
# Elastic Compliance Matrix: (Units=1/GPa)
#
#
# Indices 1 2 3 4 5 6 
#
# 1 0.016986 -0.003992 -0.005978 0.000006 -0.003559 0.000008
# 2 -0.003992 0.046161 -0.005234 -0.000043 0.019061 -0.000057
# 3 -0.005978 -0.005234 0.010586 0.000000 0.001491 0.000003
# 4 0.000006 -0.000043 0.000000 0.044477 -0.000029 0.019192
# 5 -0.003559 0.019061 0.001491 -0.000029 0.046622 -0.000030
# 6 0.000008 -0.000057 0.000003 0.019192 -0.000030 0.079765
#
#
# Mechanical properties :
#
#
# Convention : Reuss Voigt Hill
#
# Bulk Modulus (GPa) = 23.08244 47.40198 35.24221
# Shear Modulus (GPa) = 17.27431 23.73198 20.50315
#
# Velocity S-wave (km/s) = 3.06154 3.58844 3.33541
# Velocity P-wave (km/s) = 5.00218 6.54900 5.82715
#
# Compressibility (1/GPa) = 0.04332298
#
# Stress axis : x y z
#
# Youngs Moduli (GPa) = 58.87252 21.66338 94.46612
#
# Poissons Ratio (x) = 0.08649 0.56471
# Poissons Ratio (y) = 0.23504 0.49448
# Poissons Ratio (z) = 0.35194 0.11340
#
# Static dielectric constant tensor:
#      x y z
#    x 1.683320 0.000000 0.020810 
#    y 0.000000 1.610530 0.000000 
#    z 0.020810 0.000000 1.693940 
# 
# From -- ./inp_files/255932.got.cif
#   From: 2010.05.17/outbox.cif.g08.bks.cpg/sg15_128_cif.got.tgz:255932.got - 2010.06.03 18:47:42.
