data_PCOD9270204
_publ_section_title
;
Structure prediction by ZEFSAII (Michael W. Deem and Ramdas Pophale) SiO2 
 PCOD9270204
Probable space group: C 2/C
;
_chemical_formula_sum "Si O2"
_cell_formula_units_Z 60
_cell_length_a 18.303327
_cell_length_b 24.574666
_cell_length_c 13.963703
_cell_angle_alpha 90.000000
_cell_angle_beta 150.231199
_cell_angle_gamma 90.000000
_cell_volume 3118.449492
_symmetry_space_group_name_H-M "C 2/C"
_symmetry_group_IT_number 15
_symmetry_cell_setting 'monoclinic'
loop_
_space_group_symop_operation_xyz
x,y,z
-x,y,1/2-z
-x,-y,-z
x,-y,1/2+z
1/2+x,1/2+y,z
1/2-x,1/2+y,1/2-z
1/2-x,1/2-y,-z
1/2+x,1/2-y,1/2+z
loop_
_atom_site_type_symbol
_atom_site_label
_atom_site_fract_x
_atom_site_fract_y
_atom_site_fract_z
Si Si1 0.272929 0.353985 0.223331
Si Si2 0.709774 0.700946 0.562243
Si Si3 0.466264 0.285489 0.322620
Si Si4 0.042746 0.310823 0.393798
Si Si5 0.274045 0.642208 0.305865
Si Si6 0.500000 0.610516 0.250000
Si Si7 0.005622 0.938550 0.542983
Si Si8 0.455623 0.156664 0.309838
O O1 0.327433 0.316118 0.371965
O O2 0.322703 0.320187 0.187159
O O3 0.360923 0.409130 0.336198
O O4 0.100317 0.362539 0.030763
O O5 0.632797 0.758397 0.458185
O O6 0.638467 0.652686 0.417124
O O7 0.885270 0.704887 0.757917
O O8 0.500000 0.292685 0.250000
O O9 0.603750 0.310796 0.537067
O O10 0.442205 0.221709 0.311638
O O11 0.148239 0.338443 0.589963
O O12 0.000000 0.344587 0.250000
O O13 0.359450 0.592461 0.354893
O O14 0.190552 0.630910 0.311155
O O15 0.490779 0.575259 0.338047
O O16 0.000000 0.000000 0.500000
O O17 0.500000 0.147062 0.250000
#
# Coordination Sequence:
#
# PCOD9270204 Si02
#       8
#     8   8   8   8   8   4   8   8
#     4  10  21  36  58  83 120 158 203 246 305 357
#     4  11  22  35  57  91 133 170 195 241 296 381
#     4  10  20  35  56  88 128 172 210 242 293 369
#     4  12  23  33  56  92 133 172 201 232 299 381
#     4  11  23  37  61  92 127 167 216 257 303 376
#     4  10  22  44  68  90 126 158 210 260 324 366
#     4  10  24  47  67  86 110 155 211 272 315 367
#     4  11  20  35  56  90 134 164 193 245 306 364
#
# _framework density 19.240331000000001
#
# number of rings (size 3 to 8) (size 9 to 14) (size 15 to 20)
#    0.000    1.333    2.000    4.400    5.600    2.133 
#    7.200    0.667    0.000    0.800    0.000    0.000 
#    0.000    0.000    0.000    0.000    0.000    0.000 
#
# Total GULP energy -167501.256024 kJ/mol
# GULP energy per Si atom -5583.375201 kJ/mol
# Density = 1.919654 g / cm^3
# Si number density = 19.240331 Si / 1000 Ang^3
#
#
#
# Elastic Constant Matrix: (Units=GPa)
#
#
# Indices 1 2 3 4 5 6 
#
# 1 107.7137 53.2580 26.7332 0.0000 8.3689 0.0000
# 2 53.2580 90.6358 32.7749 0.0000 -2.4977 0.0000
# 3 26.7332 32.7749 94.3684 0.0000 12.4113 0.0000
# 4 0.0000 0.0000 0.0000 7.8002 0.0000 -3.7593
# 5 8.3689 -2.4977 12.4113 0.0000 37.6659 0.0000
# 6 0.0000 0.0000 0.0000 -3.7593 0.0000 18.8810
#
#
#
# Elastic Compliance Matrix: (Units=1/GPa)
#
#
# Indices 1 2 3 4 5 6 
#
# 1 0.013579 -0.007819 -0.000697 0.000000 -0.003306 0.000000
# 2 -0.007819 0.017328 -0.004372 0.000000 0.004327 0.000000
# 3 -0.000697 -0.004372 0.012889 0.000000 -0.004382 0.000000
# 4 0.000000 0.000000 0.000000 0.141810 0.000000 0.028235
# 5 -0.003306 0.004327 -0.004382 0.000000 0.029015 0.000000
# 6 0.000000 0.000000 0.000000 0.028235 0.000000 0.058585
#
#
# Mechanical properties :
#
#
# Convention : Reuss Voigt Hill
#
# Bulk Modulus (GPa) = 55.48985 57.58335 56.53660
# Shear Modulus (GPa) = 16.39409 24.86618 20.63014
#
# Velocity S-wave (km/s) = 2.92219 3.59890 3.27805
# Velocity P-wave (km/s) = 6.34733 6.87480 6.61632
#
# Compressibility (1/GPa) = 0.01802131
#
# Stress axis : x y z
#
# Youngs Moduli (GPa) = 73.64079 57.71119 77.58576
#
# Poissons Ratio (x) = 0.45122 0.05405
# Poissons Ratio (y) = 0.57576 0.33922
# Poissons Ratio (z) = 0.05130 0.25233
#
# Static dielectric constant tensor:
#      x y z
#    x 1.771600 0.000000 -0.025490 
#    y 0.000000 1.636530 0.000000 
#    z -0.025490 0.000000 1.692860 
# 
# From -- ./inp_files/164126.got.cif
#   From: 2010.05.17/outbox.cif.g08.bks.cpg/sg15_83_cif.got.tgz:164126.got - 2010.06.03 18:47:42.
