data_PCOD9270710
_publ_section_title
;
Structure prediction by ZEFSAII (Michael W. Deem and Ramdas Pophale) SiO2 
 PCOD9270710
Probable space group: C 2/C
;
_chemical_formula_sum "Si O2"
_cell_formula_units_Z 32
_cell_length_a 22.707004
_cell_length_b 5.887942
_cell_length_c 14.066852
_cell_angle_alpha 90.000000
_cell_angle_beta 141.891554
_cell_angle_gamma 90.000000
_cell_volume 1160.679537
_symmetry_space_group_name_H-M "C 2/C"
_symmetry_group_IT_number 15
_symmetry_cell_setting 'monoclinic'
loop_
_space_group_symop_operation_xyz
x,y,z
-x,y,1/2-z
-x,-y,-z
x,-y,1/2+z
1/2+x,1/2+y,z
1/2-x,1/2+y,1/2-z
1/2-x,1/2-y,-z
1/2+x,1/2-y,1/2+z
loop_
_atom_site_type_symbol
_atom_site_label
_atom_site_fract_x
_atom_site_fract_y
_atom_site_fract_z
Si Si1 0.966467 0.200092 0.520912
Si Si2 0.158809 0.854807 0.466718
Si Si3 0.614343 0.152648 0.908387
Si Si4 0.851403 0.573486 0.322885
O O1 0.935383 0.143185 0.586385
O O2 0.871283 0.306719 0.355455
O O3 0.059029 0.355616 0.628732
O O4 0.000000 0.000000 0.500000
O O5 0.158142 0.591141 0.429485
O O6 0.253214 0.862949 0.651539
O O7 0.151191 0.107858 0.410387
O O8 0.500000 0.141393 0.750000
O O9 0.635279 0.157505 0.050409
#
# Coordination Sequence:
#
# PCOD9270710 Si02
#       4
#     8   8   8   8
#     4  10  20  35  62  93 120 147 204 261 292 336
#     4  11  23  40  66  89 118 161 206 244 295 355
#     4  11  22  38  61  91 124 161 196 242 306 360
#     4  10  22  38  63  93 116 158 205 250 293 353
#
# _framework density 27.570056000000001
#
# number of rings (size 3 to 8) (size 9 to 14) (size 15 to 20)
#    0.000    1.500    2.500    3.750    3.500    0.000 
#    0.000    0.000    0.000   52.500    0.000    0.000 
#    0.000    0.000    0.000    0.000    0.000    0.000 
#
# Total GULP energy -89423.981655 kJ/mol
# GULP energy per Si atom -5588.998853 kJ/mol
# Density = 2.750730 g / cm^3
# Si number density = 27.570056 Si / 1000 Ang^3
#
#
#
# Elastic Constant Matrix: (Units=GPa)
#
#
# Indices 1 2 3 4 5 6 
#
# 1 109.2842 30.5176 33.4096 0.0001 1.3952 0.0000
# 2 30.5176 232.0734 64.3412 0.0005 17.8229 0.0005
# 3 33.4096 64.3412 219.3211 0.0000 13.8209 0.0001
# 4 0.0001 0.0005 0.0000 36.0544 0.0001 28.3243
# 5 1.3952 17.8229 13.8209 0.0001 34.1913 0.0001
# 6 0.0000 0.0005 0.0001 28.3243 0.0001 34.3628
#
#
#
# Elastic Compliance Matrix: (Units=1/GPa)
#
#
# Indices 1 2 3 4 5 6 
#
# 1 0.009799 -0.000992 -0.001241 0.000000 0.000619 0.000000
# 2 -0.000992 0.004920 -0.001163 0.000000 -0.002054 0.000000
# 3 -0.001241 -0.001163 0.005180 0.000000 -0.001437 0.000000
# 4 0.000000 0.000000 0.000000 0.078693 0.000000 -0.064864
# 5 0.000619 -0.002054 -0.001437 0.000000 0.030874 0.000000
# 6 0.000000 0.000000 0.000000 -0.064864 0.000000 0.082567
#
#
# Mechanical properties :
#
#
# Convention : Reuss Voigt Hill
#
# Bulk Modulus (GPa) = 76.29057 90.80172 83.54615
# Shear Modulus (GPa) = 22.40220 49.74907 36.07563
#
# Velocity S-wave (km/s) = 2.85363 4.25250 3.62125
# Velocity P-wave (km/s) = 6.21202 7.55765 6.91763
#
# Compressibility (1/GPa) = 0.01310778
#
# Stress axis : x y z
#
# Youngs Moduli (GPa) = 102.05252 203.27172 193.04406
#
# Poissons Ratio (x) = 0.20167 0.23950
# Poissons Ratio (y) = 0.10125 0.22444
# Poissons Ratio (z) = 0.12661 0.23633
#
# Static dielectric constant tensor:
#      x y z
#    x 1.922010 -0.000210 0.025110 
#    y -0.000210 -38.554540 0.000110 
#    z 0.025110 0.000110 2.084680 
# 
# From -- ./inp_files/158221.got.cif
#   From: 2010.05.17/outbox.cif.g08.bks.cpg/sg15_80_cif.got.tgz:158221.got - 2010.06.03 18:47:42.
