data_PCOD9270515
_publ_section_title
;
Structure prediction by ZEFSAII (Michael W. Deem and Ramdas Pophale) SiO2 
 PCOD9270515
Probable space group: C 2/C
;
_chemical_formula_sum "Si O2"
_cell_formula_units_Z 40
_cell_length_a 8.180546
_cell_length_b 16.308724
_cell_length_c 14.977950
_cell_angle_alpha 90.000000
_cell_angle_beta 65.439297
_cell_angle_gamma 90.000000
_cell_volume 1817.471359
_symmetry_space_group_name_H-M "C 2/C"
_symmetry_group_IT_number 15
_symmetry_cell_setting 'monoclinic'
loop_
_space_group_symop_operation_xyz
x,y,z
-x,y,1/2-z
-x,-y,-z
x,-y,1/2+z
1/2+x,1/2+y,z
1/2-x,1/2+y,1/2-z
1/2-x,1/2-y,-z
1/2+x,1/2-y,1/2+z
loop_
_atom_site_type_symbol
_atom_site_label
_atom_site_fract_x
_atom_site_fract_y
_atom_site_fract_z
Si Si1 0.331437 0.231516 0.837846
Si Si2 0.619915 0.874507 0.809256
Si Si3 0.084187 0.136718 0.026518
Si Si4 0.205375 0.497846 0.416787
Si Si5 0.267524 0.153415 0.493069
O O1 0.500000 0.190956 0.750000
O O2 0.244161 0.294758 0.786453
O O3 0.395718 0.291620 0.903845
O O4 0.191719 0.169317 0.914897
O O5 0.500000 0.883068 0.750000
O O6 0.715690 0.958121 0.818448
O O7 0.473105 0.858002 0.919181
O O8 0.176379 0.055993 0.045712
O O9 0.877465 0.123707 0.047055
O O10 0.264358 0.403522 0.413415
O O11 0.000000 0.500000 0.500000
O O12 0.250000 0.250000 0.500000
#
# Coordination Sequence:
#
# PCOD9270515 Si02
#       5
#     8   8   8   8   8
#     4  10  20  35  59  92 122 158 205 248 308 365
#     4  10  20  38  61  87 124 162 201 252 305 364
#     4  10  20  37  62  89 121 162 201 255 307 367
#     4   9  21  38  61  87 121 161 207 244 311 371
#     4  11  20  37  66  91 118 159 207 253 307 373
#
# _framework density 22.008600000000001
#
# number of rings (size 3 to 8) (size 9 to 14) (size 15 to 20)
#    0.000    2.000    2.000    1.800    2.800    0.000 
#    0.000    4.000    0.000   12.000    0.000    0.000 
#    0.000    0.000    0.000    0.000    0.000    0.000 
#
# Total GULP energy -111565.660630 kJ/mol
# GULP energy per Si atom -5578.283031 kJ/mol
# Density = 2.195851 g / cm^3
# Si number density = 22.008600 Si / 1000 Ang^3
#
#
#
# Elastic Constant Matrix: (Units=GPa)
#
#
# Indices 1 2 3 4 5 6 
#
# 1 74.8500 -0.7837 -5.7137 0.0000 4.4329 0.0000
# 2 -0.7837 87.2221 25.4351 0.0000 11.8951 0.0000
# 3 -5.7137 25.4351 36.2270 0.0000 1.9880 0.0000
# 4 0.0000 0.0000 0.0000 6.6478 0.0000 -0.7751
# 5 4.4329 11.8951 1.9880 0.0000 43.5059 0.0000
# 6 0.0000 0.0000 0.0000 -0.7751 0.0000 27.6502
#
#
#
# Elastic Compliance Matrix: (Units=1/GPa)
#
#
# Indices 1 2 3 4 5 6 
#
# 1 0.013630 -0.000424 0.002524 0.000000 -0.001388 0.000000
# 2 -0.000424 0.014978 -0.010387 0.000000 -0.003577 0.000000
# 3 0.002524 -0.010387 0.035241 0.000000 0.000972 0.000000
# 4 0.000000 0.000000 0.000000 0.150919 0.000000 0.004231
# 5 -0.001388 -0.003577 0.000972 0.000000 0.024060 0.000000
# 6 0.000000 0.000000 0.000000 0.004231 0.000000 0.036285
#
#
# Mechanical properties :
#
#
# Convention : Reuss Voigt Hill
#
# Bulk Modulus (GPa) = 21.15271 26.24160 23.69715
# Shear Modulus (GPa) = 16.26301 27.51821 21.89061
#
# Velocity S-wave (km/s) = 2.72129 3.53985 3.15721
# Velocity P-wave (km/s) = 4.41655 5.35319 4.90726
#
# Compressibility (1/GPa) = 0.04727528
#
# Stress axis : x y z
#
# Youngs Moduli (GPa) = 73.36502 66.76504 28.37613
#
# Poissons Ratio (x) = 0.02832 -0.07162
# Poissons Ratio (y) = 0.03112 0.29473
# Poissons Ratio (z) = -0.18516 0.69346
#
# Static dielectric constant tensor:
#      x y z
#    x 2.963950 0.000000 0.595350 
#    y 0.000000 1.890650 0.000000 
#    z 0.595350 0.000000 2.151080 
# 
# From -- ./inp_files/133080.got.cif
#   From: 2010.05.17/outbox.cif.g08.bks.cpg/sg15_67_cif.got.tgz:133080.got - 2010.06.03 18:47:42.
