data_PCOD9270730
_publ_section_title
;
Structure prediction by ZEFSAII (Michael W. Deem and Ramdas Pophale) SiO2 
 PCOD9270730
Probable space group: C 2/C
;
_chemical_formula_sum "Si O2"
_cell_formula_units_Z 40
_cell_length_a 22.695900
_cell_length_b 7.222769
_cell_length_c 18.783764
_cell_angle_alpha 90.000000
_cell_angle_beta 44.867669
_cell_angle_gamma 90.000000
_cell_volume 2172.267917
_symmetry_space_group_name_H-M "C 2/C"
_symmetry_group_IT_number 15
_symmetry_cell_setting 'monoclinic'
loop_
_space_group_symop_operation_xyz
x,y,z
-x,y,1/2-z
-x,-y,-z
x,-y,1/2+z
1/2+x,1/2+y,z
1/2-x,1/2+y,1/2-z
1/2-x,1/2-y,-z
1/2+x,1/2-y,1/2+z
loop_
_atom_site_type_symbol
_atom_site_label
_atom_site_fract_x
_atom_site_fract_y
_atom_site_fract_z
Si Si1 0.861958 0.107032 0.455423
Si Si2 0.965206 0.800131 0.006367
Si Si3 0.571187 0.800300 0.628899
Si Si4 0.164799 0.402113 0.134247
Si Si5 0.561463 0.022069 0.359578
O O1 0.913669 0.183722 0.477725
O O2 0.874712 0.222614 0.371294
O O3 0.763573 0.121445 0.555834
O O4 0.890736 0.896434 0.422494
O O5 0.912586 0.694736 0.112898
O O6 0.039893 0.656555 0.925370
O O7 0.000000 0.000000 0.000000
O O8 0.500000 0.775544 0.750000
O O9 0.522601 0.901975 0.606801
O O10 0.642273 0.931934 0.599725
O O11 0.123267 0.456806 0.244510
#
# Coordination Sequence:
#
# PCOD9270730 Si02
#       5
#     8   8   8   8   8
#     4  11  22  38  62  90 117 156 196 246 299 356
#     4  11  22  39  61  85 118 158 200 238 293 361
#     4  10  20  35  63  88 113 153 198 242 287 351
#     4  10  23  40  59  89 123 149 195 253 299 346
#     4  10  22  40  59  85 120 156 197 246 292 350
#
# _framework density 18.413934999999999
#
# number of rings (size 3 to 8) (size 9 to 14) (size 15 to 20)
#    0.000    1.600    4.000    0.600    2.800    0.000 
#    3.600    0.000    0.000    0.000    0.000    0.000 
#    0.000    0.000    0.000    0.000    0.000    0.000 
#
# Total GULP energy -111572.307833 kJ/mol
# GULP energy per Si atom -5578.615392 kJ/mol
# Density = 1.837202 g / cm^3
# Si number density = 18.413935 Si / 1000 Ang^3
#
#
#
# Elastic Constant Matrix: (Units=GPa)
#
#
# Indices 1 2 3 4 5 6 
#
# 1 25.5418 10.2162 0.4213 -0.0069 -2.2405 -0.0009
# 2 10.2162 128.5731 32.7637 0.0252 7.0890 0.0119
# 3 0.4213 32.7637 44.4457 -0.0093 15.8104 -0.0092
# 4 -0.0069 0.0252 -0.0093 16.0750 -0.0236 -16.8266
# 5 -2.2405 7.0890 15.8104 -0.0236 22.3148 -0.0065
# 6 -0.0009 0.0119 -0.0092 -16.8266 -0.0065 -1.8287
#
#
#
# Elastic Compliance Matrix: (Units=1/GPa)
#
#
# Indices 1 2 3 4 5 6 
#
# 1 0.041041 -0.003680 0.000591 -0.000003 0.004871 -0.000033
# 2 -0.003680 0.010023 -0.008141 0.000008 0.002215 0.000026
# 3 0.000591 -0.008141 0.036839 -0.000015 -0.023455 -0.000014
# 4 -0.000003 0.000008 -0.000015 0.005851 -0.000002 -0.053840
# 5 0.004871 0.002215 -0.023455 -0.000002 0.061217 -0.000073
# 6 -0.000033 0.000026 -0.000014 -0.053840 -0.000073 -0.051435
#
#
# Mechanical properties :
#
#
# Convention : Reuss Voigt Hill
#
# Bulk Modulus (GPa) = 15.28071 31.70698 23.49385
# Shear Modulus (GPa) = 33.82700 17.65618 25.74159
#
# Velocity S-wave (km/s) = 4.29071 3.09989 3.74296
# Velocity P-wave (km/s) = 5.73266 5.48350 5.60947
#
# Compressibility (1/GPa) = 0.06544197
#
# Stress axis : x y z
#
# Youngs Moduli (GPa) = 24.36580 99.77467 27.14525
#
# Poissons Ratio (x) = 0.36720 -0.01605
# Poissons Ratio (y) = 0.08967 0.22100
# Poissons Ratio (z) = -0.01440 0.81229
#
# Static dielectric constant tensor:
#      x y z
#    x 1.636840 0.000000 0.029800 
#    y 0.000000 1.641430 0.000000 
#    z 0.029800 0.000000 1.638360 
# 
# From -- ./inp_files/217409.got.cif
#   From: 2010.05.17/outbox.cif.g08.bks.cpg/sg15_109_cif.got.tgz:217409.got - 2010.06.03 18:47:42.
