data_PCOD9270974
_publ_section_title
;
Structure prediction by ZEFSAII (Michael W. Deem and Ramdas Pophale) SiO2 
 PCOD9270974
Probable space group: C 2/C
;
_chemical_formula_sum "Si O2"
_cell_formula_units_Z 40
_cell_length_a 8.246968
_cell_length_b 18.857002
_cell_length_c 13.725046
_cell_angle_alpha 90.000000
_cell_angle_beta 76.732860
_cell_angle_gamma 90.000000
_cell_volume 2077.457943
_symmetry_space_group_name_H-M "C 2/C"
_symmetry_group_IT_number 15
_symmetry_cell_setting 'monoclinic'
loop_
_space_group_symop_operation_xyz
x,y,z
-x,y,1/2-z
-x,-y,-z
x,-y,1/2+z
1/2+x,1/2+y,z
1/2-x,1/2+y,1/2-z
1/2-x,1/2-y,-z
1/2+x,1/2-y,1/2+z
loop_
_atom_site_type_symbol
_atom_site_label
_atom_site_fract_x
_atom_site_fract_y
_atom_site_fract_z
Si Si1 0.806574 0.928009 0.299144
Si Si2 0.406665 0.936456 0.662909
Si Si3 0.568274 0.223327 0.345956
Si Si4 0.591264 0.137087 0.982223
Si Si5 0.854422 0.669116 0.837090
O O1 0.754707 0.877487 0.396806
O O2 0.711275 0.896705 0.218010
O O3 0.000000 0.929413 0.250000
O O4 0.732531 0.005083 0.333811
O O5 0.500000 0.953406 0.750000
O O6 0.346369 0.854516 0.680070
O O7 0.541536 0.929093 0.557790
O O8 0.500000 0.246365 0.250000
O O9 0.421929 0.203397 0.442195
O O10 0.699977 0.278286 0.369249
O O11 0.442165 0.146816 0.924667
O O12 0.000000 0.703186 0.750000
#
# Coordination Sequence:
#
# PCOD9270974 Si02
#       5
#     8   8   8   8   8
#     4  11  22  36  55  83 114 146 184 227 272 326
#     4   9  19  37  61  78 112 146 184 222 278 324
#     4   9  19  36  61  81 111 143 186 224 275 324
#     4   9  19  37  60  80 107 150 184 221 277 324
#     4  10  20  36  56  81 114 148 180 224 275 325
#
# _framework density 19.254301999999999
#
# number of rings (size 3 to 8) (size 9 to 14) (size 15 to 20)
#    1.200    1.200    0.000    3.600    0.000    0.800 
#    0.000   15.000    0.000    0.000    0.000    0.000 
#    0.000    0.000    0.000    0.000    0.000    0.000 
#
# Total GULP energy -111372.150098 kJ/mol
# GULP energy per Si atom -5568.607505 kJ/mol
# Density = 1.921048 g / cm^3
# Si number density = 19.254302 Si / 1000 Ang^3
#
#
#
# Elastic Constant Matrix: (Units=GPa)
#
#
# Indices 1 2 3 4 5 6 
#
# 1 65.6660 14.7715 46.3159 0.0000 -24.4315 0.0000
# 2 14.7715 55.3840 8.4186 0.0000 -16.8033 0.0000
# 3 46.3159 8.4186 131.2884 0.0000 -6.8970 0.0000
# 4 0.0000 0.0000 0.0000 9.2614 0.0000 -15.0163
# 5 -24.4315 -16.8033 -6.8970 0.0000 26.9339 0.0000
# 6 0.0000 0.0000 0.0000 -15.0163 0.0000 5.2807
#
#
#
# Elastic Compliance Matrix: (Units=1/GPa)
#
#
# Indices 1 2 3 4 5 6 
#
# 1 0.032210 0.001254 -0.010002 0.000000 0.027438 0.000000
# 2 0.001254 0.022385 -0.001099 0.000000 0.014822 0.000000
# 3 -0.010002 -0.001099 0.010849 0.000000 -0.006980 0.000000
# 4 0.000000 0.000000 0.000000 -0.029905 0.000000 -0.085039
# 5 0.027438 0.014822 -0.006980 0.000000 0.069476 0.000000
# 6 0.000000 0.000000 0.000000 -0.085039 0.000000 -0.052448
#
#
# Mechanical properties :
#
#
# Convention : Reuss Voigt Hill
#
# Bulk Modulus (GPa) = 21.85781 43.48338 32.67060
# Shear Modulus (GPa) = 57.13584 20.48402 38.80993
#
# Velocity S-wave (km/s) = 5.45332 3.26524 4.49447
# Velocity P-wave (km/s) = 7.14342 6.07029 6.62861
#
# Compressibility (1/GPa) = 0.04575023
#
# Stress axis : x y z
#
# Youngs Moduli (GPa) = 31.04661 44.67246 92.17370
#
# Poissons Ratio (x) = -0.05604 0.92191
# Poissons Ratio (y) = -0.03894 0.10133
# Poissons Ratio (z) = 0.31053 0.04911
#
# Static dielectric constant tensor:
#      x y z
#    x 1.634320 0.000000 -0.010210 
#    y 0.000000 1.700650 0.000000 
#    z -0.010210 0.000000 1.700110 
# 
# From -- ./inp_files/135119.got.cif
#   From: 2010.05.17/outbox.cif.g08.bks.cpg/sg15_68_cif.got.tgz:135119.got - 2010.06.03 18:47:42.
