data_PCOD9270314
_publ_section_title
;
Structure prediction by ZEFSAII (Michael W. Deem and Ramdas Pophale) SiO2 
 PCOD9270314
Probable space group: C 2/C
;
_chemical_formula_sum "Si O2"
_cell_formula_units_Z 56
_cell_length_a 25.272308
_cell_length_b 5.717316
_cell_length_c 24.944218
_cell_angle_alpha 90.000000
_cell_angle_beta 126.489177
_cell_angle_gamma 90.000000
_cell_volume 2897.653227
_symmetry_space_group_name_H-M "C 2/C"
_symmetry_group_IT_number 15
_symmetry_cell_setting 'monoclinic'
loop_
_space_group_symop_operation_xyz
x,y,z
-x,y,1/2-z
-x,-y,-z
x,-y,1/2+z
1/2+x,1/2+y,z
1/2-x,1/2+y,1/2-z
1/2-x,1/2-y,-z
1/2+x,1/2-y,1/2+z
loop_
_atom_site_type_symbol
_atom_site_label
_atom_site_fract_x
_atom_site_fract_y
_atom_site_fract_z
Si Si1 0.081067 0.838910 0.149324
Si Si2 0.185653 0.444271 0.198520
Si Si3 0.681585 0.585426 0.278036
Si Si4 0.035645 0.555428 0.436897
Si Si5 0.931334 0.219623 0.433531
Si Si6 0.336388 0.994542 0.053917
Si Si7 0.197379 0.006686 0.912486
O O1 0.141651 0.673497 0.171707
O O2 0.016632 0.703459 0.129075
O O3 0.110960 0.007008 0.212169
O O4 0.059810 0.955597 0.080224
O O5 0.257259 0.469138 0.216896
O O6 0.188533 0.351575 0.261272
O O7 0.140651 0.276031 0.134679
O O8 0.688872 0.522950 0.343873
O O9 0.066222 0.707900 0.503740
O O10 0.095668 0.473693 0.437333
O O11 0.988395 0.363033 0.436528
O O12 0.328006 0.743807 0.079005
O O13 0.333497 0.243692 0.085332
O O14 0.273941 0.015812 0.976283
#
# Coordination Sequence:
#
# PCOD9270314 Si02
#       7
#     8   8   8   8   8   8   8
#     4  10  21  36  57  92 125 157 203 254 310 393
#     4  10  20  35  57  92 121 159 202 252 318 378
#     4  11  21  37  62  88 127 164 203 264 316 379
#     4  10  20  38  64  87 128 160 205 258 318 373
#     4   9  20  36  59  95 122 158 202 254 320 377
#     4  10  23  45  65  95 121 167 216 268 311 372
#     4  10  24  43  67  92 126 163 219 264 314 370
#
# _framework density 19.325983999999998
#
# number of rings (size 3 to 8) (size 9 to 14) (size 15 to 20)
#    0.000    2.000    1.429    1.286    4.000    0.000 
#    7.714    0.714    0.000    0.000    0.000    0.000 
#    0.000    0.000    0.000    0.000    0.000    0.000 
#
# Total GULP energy -155899.993379 kJ/mol
# GULP energy per Si atom -5567.856906 kJ/mol
# Density = 1.928200 g / cm^3
# Si number density = 19.325984 Si / 1000 Ang^3
#
#
#
# Elastic Constant Matrix: (Units=GPa)
#
#
# Indices 1 2 3 4 5 6 
#
# 1 102.0355 35.3698 39.0817 0.0004 8.2713 0.0001
# 2 35.3698 83.0873 41.0089 0.0019 -1.6577 -0.0018
# 3 39.0817 41.0089 98.6084 0.0002 -14.7665 0.0000
# 4 0.0004 0.0019 0.0002 34.0311 -0.0001 6.4708
# 5 8.2713 -1.6577 -14.7665 -0.0001 23.2753 0.0003
# 6 0.0001 -0.0018 0.0000 6.4708 0.0003 14.3523
#
#
#
# Elastic Compliance Matrix: (Units=1/GPa)
#
#
# Indices 1 2 3 4 5 6 
#
# 1 0.013682 -0.003387 -0.005280 0.000000 -0.008453 0.000000
# 2 -0.003387 0.016205 -0.005573 -0.000001 -0.001178 0.000003
# 3 -0.005280 -0.005573 0.016324 0.000001 0.011836 -0.000001
# 4 0.000000 -0.000001 0.000001 0.032140 0.000001 -0.014491
# 5 -0.008453 -0.001178 0.011836 0.000001 0.053393 -0.000001
# 6 0.000000 0.000003 -0.000001 -0.014491 -0.000001 0.076209
#
#
# Mechanical properties :
#
#
# Convention : Reuss Voigt Hill
#
# Bulk Modulus (GPa) = 56.40039 57.18353 56.79196
# Shear Modulus (GPa) = 20.63193 25.54979 23.09086
#
# Velocity S-wave (km/s) = 3.27092 3.63994 3.46035
# Velocity P-wave (km/s) = 6.59639 6.87886 6.73910
#
# Compressibility (1/GPa) = 0.01773037
#
# Stress axis : x y z
#
# Youngs Moduli (GPa) = 73.08774 61.71104 61.26016
#
# Poissons Ratio (x) = 0.20902 0.32345
# Poissons Ratio (y) = 0.24755 0.34141
# Poissons Ratio (z) = 0.38590 0.34392
#
# Static dielectric constant tensor:
#      x y z
#    x 1.629980 0.000000 0.016520 
#    y 0.000000 1.849710 0.000000 
#    z 0.016520 0.000000 1.669440 
# 
# From -- ./inp_files/281024.got.cif
#   From: 2010.05.17/outbox.cif.g08.bks.cpg/sg15_141_cif.got.tgz:281024.got - 2010.06.03 18:47:42.
