data_PCOD9270327
_publ_section_title
;
Structure prediction by ZEFSAII (Michael W. Deem and Ramdas Pophale) SiO2 
 PCOD9270327
Probable space group: C 2/C
;
_chemical_formula_sum "Si O2"
_cell_formula_units_Z 52
_cell_length_a 10.513503
_cell_length_b 30.639812
_cell_length_c 7.572965
_cell_angle_alpha 90.000000
_cell_angle_beta 75.174780
_cell_angle_gamma 90.000000
_cell_volume 2358.283889
_symmetry_space_group_name_H-M "C 2/C"
_symmetry_group_IT_number 15
_symmetry_cell_setting 'monoclinic'
loop_
_space_group_symop_operation_xyz
x,y,z
-x,y,1/2-z
-x,-y,-z
x,-y,1/2+z
1/2+x,1/2+y,z
1/2-x,1/2+y,1/2-z
1/2-x,1/2-y,-z
1/2+x,1/2-y,1/2+z
loop_
_atom_site_type_symbol
_atom_site_label
_atom_site_fract_x
_atom_site_fract_y
_atom_site_fract_z
Si Si1 0.886336 0.224558 0.969791
Si Si2 0.513908 0.805783 0.035915
Si Si3 0.264381 0.365667 0.878565
Si Si4 0.351551 0.954060 0.596096
Si Si5 0.248378 0.858190 0.039112
Si Si6 0.153741 0.449192 0.478722
Si Si7 0.500000 0.680919 0.250000
O O1 0.003866 0.260538 0.928315
O O2 0.858254 0.179485 0.872557
O O3 0.904888 0.209204 0.164531
O O4 0.750000 0.250000 0.000000
O O5 0.500000 0.797903 0.250000
O O6 0.646920 0.832552 0.962215
O O7 0.391272 0.835697 0.016958
O O8 0.230464 0.414117 0.951658
O O9 0.274344 0.366295 0.661403
O O10 0.402812 0.348419 0.900644
O O11 0.500927 0.949114 0.471303
O O12 0.355501 0.947577 0.805468
O O13 0.297263 0.002422 0.583717
O O14 0.264789 0.906821 0.112362
#
# Coordination Sequence:
#
# PCOD9270327 Si02
#       7
#     8   8   8   8   8   8   4
#     4   9  19  35  54  78 110 146 190 231 283 332
#     4  11  20  32  54  85 116 140 182 240 288 329
#     4  10  20  35  58  79 113 152 191 229 278 343
#     4   9  17  29  49  81 108 141 180 228 283 334
#     4   9  18  35  55  76 113 156 185 223 278 352
#     4   9  16  29  50  78 111 139 183 225 284 338
#     4  10  20  38  58  78 108 152 204 230 264 346
#
# _framework density 22.049931000000001
#
# number of rings (size 3 to 8) (size 9 to 14) (size 15 to 20)
#    0.000    2.462    2.308    0.462    0.000    1.846 
#    0.000    0.000    6.769   11.077    0.000    0.000 
#    0.000    0.000    0.000    0.000    0.000    0.000 
#
# Total GULP energy -144802.033573 kJ/mol
# GULP energy per Si atom -5569.308984 kJ/mol
# Density = 2.199974 g / cm^3
# Si number density = 22.049931 Si / 1000 Ang^3
#
#
#
# Elastic Constant Matrix: (Units=GPa)
#
#
# Indices 1 2 3 4 5 6 
#
# 1 82.5311 53.4285 2.0810 0.0000 -3.0060 0.0000
# 2 53.4285 213.4311 4.2052 0.0000 -9.7566 0.0000
# 3 2.0810 4.2052 39.1448 0.0000 11.1399 0.0000
# 4 0.0000 0.0000 0.0000 7.1321 0.0000 5.5878
# 5 -3.0060 -9.7566 11.1399 0.0000 21.1819 0.0000
# 6 0.0000 0.0000 0.0000 5.5878 0.0000 -0.3291
#
#
#
# Elastic Compliance Matrix: (Units=1/GPa)
#
#
# Indices 1 2 3 4 5 6 
#
# 1 0.014475 -0.003579 -0.000588 0.000000 0.000715 0.000000
# 2 -0.003579 0.005732 -0.001214 0.000000 0.002771 0.000000
# 3 -0.000588 -0.001214 0.030448 0.000000 -0.016656 0.000000
# 4 0.000000 0.000000 0.000000 0.009804 0.000000 0.166448
# 5 0.000715 0.002771 -0.016656 0.000000 0.057347 0.000000
# 6 0.000000 0.000000 0.000000 0.166448 0.000000 -0.212452
#
#
# Mechanical properties :
#
#
# Convention : Reuss Voigt Hill
#
# Bulk Modulus (GPa) = 25.06830 50.50405 37.78618
# Shear Modulus (GPa) = -70.83588 23.95646 -23.43971
#
# Velocity S-wave (km/s) = -5.67406 3.29973 -3.26395
# Velocity P-wave (km/s) = 5.61543 6.12142 1.72318
#
# Compressibility (1/GPa) = 0.03989102
#
# Stress axis : x y z
#
# Youngs Moduli (GPa) = 69.08663 174.46200 32.84316
#
# Poissons Ratio (x) = 0.62443 0.01933
# Poissons Ratio (y) = 0.24727 0.03987
# Poissons Ratio (z) = 0.04065 0.21179
#
# Static dielectric constant tensor:
#      x y z
#    x 1.789940 0.000000 0.026780 
#    y 0.000000 1.894710 0.000000 
#    z 0.026780 0.000000 1.856850 
# 
# From -- ./inp_files/34799.got.cif
#   From: 2010.05.17/outbox.cif.g08.bks.cpg/sg15_18_cif.got.tgz:34799.got - 2010.06.03 18:47:42.
