data_PCOD9270244
_publ_section_title
;
Structure prediction by ZEFSAII (Michael W. Deem and Ramdas Pophale) SiO2 
 PCOD9270244
Probable space group: C 2/C
;
_chemical_formula_sum "Si O2"
_cell_formula_units_Z 40
_cell_length_a 18.689753
_cell_length_b 13.798085
_cell_length_c 8.813356
_cell_angle_alpha 90.000000
_cell_angle_beta 90.000015
_cell_angle_gamma 90.000000
_cell_volume 2272.812927
_symmetry_space_group_name_H-M "C 2/C"
_symmetry_group_IT_number 15
_symmetry_cell_setting 'monoclinic'
loop_
_space_group_symop_operation_xyz
x,y,z
-x,y,1/2-z
-x,-y,-z
x,-y,1/2+z
1/2+x,1/2+y,z
1/2-x,1/2+y,1/2-z
1/2-x,1/2-y,-z
1/2+x,1/2-y,1/2+z
loop_
_atom_site_type_symbol
_atom_site_label
_atom_site_fract_x
_atom_site_fract_y
_atom_site_fract_z
Si Si1 0.139309 0.707282 0.930994
Si Si2 0.500000 0.892406 0.931114
Si Si3 0.790600 0.894341 0.431116
Si Si4 0.139309 0.292718 0.069006
Si Si5 0.790600 0.105659 0.568884
O O1 0.209057 0.640563 0.961975
O O2 0.128826 0.710861 0.750000
O O3 0.159018 0.813209 0.994177
O O4 0.070283 0.663005 0.010652
O O5 0.500000 0.897950 0.750000
O O6 0.570283 0.836995 0.989348
O O7 0.500000 0.000000 0.000000
O O8 0.800610 0.895239 0.250000
O O9 0.802336 0.000000 0.500000
O O10 0.209057 0.359437 0.038025
O O11 0.159019 0.186791 0.005823
#
# Coordination Sequence:
#
# PCOD9270244 Si02
#       5
#     8   8   8   8   8
#     4  10  21  37  57  82 112 145 184 227 272 324
#     4  12  24  38  57  82 113 146 182 224 274 326
#     4  10  20  35  57  83 111 145 184 226 272 323
#     4  10  21  37  57  82 112 145 184 227 272 324
#     4  10  20  35  57  83 111 145 184 226 272 323
#
# _framework density 17.599336000000001
#
# number of rings (size 3 to 8) (size 9 to 14) (size 15 to 20)
#    0.000    1.600    0.000    5.400    0.000    8.000 
#    0.000    1.000    0.000    0.000    0.000    0.000 
#    0.000    0.000    0.000    0.000    0.000    0.000 
#
# Total GULP energy -111800.527810 kJ/mol
# GULP energy per Si atom -5590.026390 kJ/mol
# Density = 1.755928 g / cm^3
# Si number density = 17.599336 Si / 1000 Ang^3
#
#
#
# Elastic Constant Matrix: (Units=GPa)
#
#
# Indices 1 2 3 4 5 6 
#
# 1 134.6261 94.4824 91.9320 0.0000 -0.0001 0.0000
# 2 94.4824 189.7558 91.3393 0.0000 -0.0001 0.0000
# 3 91.9320 91.3393 123.4266 0.0000 -0.0002 0.0000
# 4 0.0000 0.0000 0.0000 36.9058 0.0000 0.0000
# 5 -0.0001 -0.0001 -0.0002 0.0000 30.3531 0.0000
# 6 0.0000 0.0000 0.0000 0.0000 0.0000 13.4821
#
#
#
# Elastic Compliance Matrix: (Units=1/GPa)
#
#
# Indices 1 2 3 4 5 6 
#
# 1 0.016549 -0.003583 -0.009675 0.000000 0.000000 0.000000
# 2 -0.003583 0.008962 -0.003963 0.000000 0.000000 0.000000
# 3 -0.009675 -0.003963 0.018241 0.000000 0.000000 0.000000
# 4 0.000000 0.000000 0.000000 0.027096 0.000000 0.000000
# 5 0.000000 0.000000 0.000000 0.000000 0.032946 0.000000
# 6 0.000000 0.000000 0.000000 0.000000 0.000000 0.074172
#
#
# Mechanical properties :
#
#
# Convention : Reuss Voigt Hill
#
# Bulk Modulus (GPa) = 107.41364 111.47954 109.44659
# Shear Modulus (GPa) = 23.20066 27.48518 25.34292
#
# Velocity S-wave (km/s) = 3.63474 3.95614 3.79884
# Velocity P-wave (km/s) = 8.87583 9.18415 9.03131
#
# Compressibility (1/GPa) = 0.00930980
#
# Stress axis : x y z
#
# Youngs Moduli (GPa) = 60.42548 111.58638 54.82213
#
# Poissons Ratio (x) = 0.39983 0.53039
# Poissons Ratio (y) = 0.21652 0.21726
# Poissons Ratio (z) = 0.58460 0.44222
#
# Static dielectric constant tensor:
#      x y z
#    x 1.574850 0.000000 0.000000 
#    y 0.000000 1.566150 0.000000 
#    z 0.000000 0.000000 1.580010 
# 
# From -- ./inp_files/37983.got.cif
#   From: 2010.05.17/outbox.cif.g08.bks.cpg/sg15_19_cif.got.tgz:37983.got - 2010.06.03 18:47:42.
