data_PCOD9270870
_publ_section_title
;
Structure prediction by ZEFSAII (Michael W. Deem and Ramdas Pophale) SiO2 
 PCOD9270870
Probable space group: C 2/C
;
_chemical_formula_sum "Si O2"
_cell_formula_units_Z 60
_cell_length_a 16.237888
_cell_length_b 20.296901
_cell_length_c 33.533164
_cell_angle_alpha 90.000000
_cell_angle_beta 162.178956
_cell_angle_gamma 90.000000
_cell_volume 3382.354171
_symmetry_space_group_name_H-M "C 2/C"
_symmetry_group_IT_number 15
_symmetry_cell_setting 'monoclinic'
loop_
_space_group_symop_operation_xyz
x,y,z
-x,y,1/2-z
-x,-y,-z
x,-y,1/2+z
1/2+x,1/2+y,z
1/2-x,1/2+y,1/2-z
1/2-x,1/2-y,-z
1/2+x,1/2-y,1/2+z
loop_
_atom_site_type_symbol
_atom_site_label
_atom_site_fract_x
_atom_site_fract_y
_atom_site_fract_z
Si Si1 0.544646 0.717025 0.683087
Si Si2 0.841945 0.122715 0.882958
Si Si3 0.844135 0.649351 0.060422
Si Si4 0.000000 0.243825 0.750000
Si Si5 0.494958 0.860583 0.142625
Si Si6 0.993882 0.839563 0.961407
Si Si7 0.801494 0.018621 0.351140
Si Si8 0.389207 0.992645 0.591354
O O1 0.329667 0.680620 0.555315
O O2 0.539680 0.793932 0.667153
O O3 0.453615 0.707534 0.686713
O O4 0.834518 0.685969 0.807380
O O5 0.654746 0.136286 0.758650
O O6 0.794249 0.047101 0.874044
O O7 0.826952 0.164608 0.915900
O O8 0.139599 0.134807 0.002646
O O9 0.948530 0.576591 0.096901
O O10 0.740576 0.287258 0.641975
O O11 0.492615 0.935745 0.125243
O O12 0.195556 0.837530 0.016787
O O13 0.851738 0.911438 0.894235
O O14 0.537538 0.018366 0.202177
O O15 0.068552 0.003480 0.447691
#
# Coordination Sequence:
#
# PCOD9270870 Si02
#       8
#     8   8   8   4   8   8   8   8
#     4  10  20  36  54  78 103 146 177 230 258 325
#     4   9  16  31  48  76 106 146 173 209 244 323
#     4   9  17  33  57  76 108 141 190 206 266 319
#     4  12  24  34  52  74 108 138 192 222 274 306
#     4   9  20  34  53  75 108 137 179 219 276 307
#     4  11  20  31  46  75 108 146 171 216 251 322
#     4   9  18  27  47  73 116 141 175 197 255 309
#     4   9  17  33  51  81 103 144 177 221 256 326
#
# _framework density 17.739122999999999
#
# number of rings (size 3 to 8) (size 9 to 14) (size 15 to 20)
#    0.000    2.400    1.333    2.400    1.867    0.533 
#    2.400    0.000    0.000    0.800    0.000    0.000 
#    0.000    0.000    0.000    0.000    0.000    0.000 
#
# Total GULP energy -167076.234199 kJ/mol
# GULP energy per Si atom -5569.207807 kJ/mol
# Density = 1.769875 g / cm^3
# Si number density = 17.739123 Si / 1000 Ang^3
#
#
#
# Elastic Constant Matrix: (Units=GPa)
#
#
# Indices 1 2 3 4 5 6 
#
# 1 78.4657 42.5433 24.7950 0.0038 4.0287 -0.0051
# 2 42.5433 92.2339 26.5009 -0.0002 13.9839 0.0002
# 3 24.7950 26.5009 50.9453 0.0260 11.5668 0.0025
# 4 0.0038 -0.0002 0.0260 18.4172 -0.0015 -1.1496
# 5 4.0287 13.9839 11.5668 -0.0015 24.0177 0.0053
# 6 -0.0051 0.0002 0.0025 -1.1496 0.0053 19.1097
#
#
#
# Elastic Compliance Matrix: (Units=1/GPa)
#
#
# Indices 1 2 3 4 5 6 
#
# 1 0.018463 -0.007397 -0.006077 0.000005 0.004137 0.000005
# 2 -0.007397 0.016212 -0.003336 0.000006 -0.006592 0.000001
# 3 -0.006077 -0.003336 0.026553 -0.000037 -0.009826 -0.000005
# 4 0.000005 0.000006 -0.000037 0.054502 0.000016 0.003279
# 5 0.004137 -0.006592 -0.009826 0.000016 0.049512 -0.000010
# 6 0.000005 0.000001 -0.000005 0.003279 -0.000010 0.052527
#
#
# Mechanical properties :
#
#
# Convention : Reuss Voigt Hill
#
# Bulk Modulus (GPa) = 36.22341 45.48037 40.85189
# Shear Modulus (GPa) = 19.18700 20.82929 20.00815
#
# Velocity S-wave (km/s) = 3.29237 3.43038 3.36208
# Velocity P-wave (km/s) = 5.90909 6.43305 6.17663
#
# Compressibility (1/GPa) = 0.02760646
#
# Stress axis : x y z
#
# Youngs Moduli (GPa) = 54.16194 61.68267 37.66023
#
# Poissons Ratio (x) = 0.45628 0.22887
# Poissons Ratio (y) = 0.40065 0.12565
# Poissons Ratio (z) = 0.32916 0.20580
#
# Static dielectric constant tensor:
#      x y z
#    x 1.603870 0.000000 0.001260 
#    y 0.000000 1.654210 -0.000010 
#    z 0.001260 -0.000010 1.678440 
# 
# From -- ./inp_files/99429.got.cif
#   From: 2010.05.17/outbox.cif.g08.bks.cpg/sg15_50_cif.got.tgz:99429.got - 2010.06.03 18:47:42.
