data_PCOD9270136
_publ_section_title
;
Structure prediction by ZEFSAII (Michael W. Deem and Ramdas Pophale) SiO2 
 PCOD9270136
Probable space group: C 2/C
;
_chemical_formula_sum "Si O2"
_cell_formula_units_Z 56
_cell_length_a 11.297596
_cell_length_b 15.822884
_cell_length_c 17.281895
_cell_angle_alpha 90.000000
_cell_angle_beta 107.433729
_cell_angle_gamma 90.000000
_cell_volume 2947.410400
_symmetry_space_group_name_H-M "C 2/C"
_symmetry_group_IT_number 15
_symmetry_cell_setting 'monoclinic'
loop_
_space_group_symop_operation_xyz
x,y,z
-x,y,1/2-z
-x,-y,-z
x,-y,1/2+z
1/2+x,1/2+y,z
1/2-x,1/2+y,1/2-z
1/2-x,1/2-y,-z
1/2+x,1/2-y,1/2+z
loop_
_atom_site_type_symbol
_atom_site_label
_atom_site_fract_x
_atom_site_fract_y
_atom_site_fract_z
Si Si1 0.593982 0.255425 0.335946
Si Si2 0.437565 0.894253 0.884210
Si Si3 0.387846 0.408075 0.043463
Si Si4 0.735039 0.152392 0.014040
Si Si5 0.170699 0.503079 0.416315
Si Si6 0.995765 0.915569 0.601888
Si Si7 0.747481 0.384209 0.709904
O O1 0.500000 0.284738 0.250000
O O2 0.522673 0.181797 0.368857
O O3 0.623630 0.330284 0.400732
O O4 0.707290 0.205499 0.317310
O O5 0.381121 0.869680 0.954875
O O6 0.526779 0.975653 0.901325
O O7 0.323717 0.900824 0.802287
O O8 0.472114 0.483697 0.094158
O O9 0.253426 0.446855 0.996227
O O10 0.449459 0.388059 0.971926
O O11 0.861084 0.124673 0.081504
O O12 0.750000 0.250000 0.000000
O O13 0.714097 0.093099 0.935061
O O14 0.209795 0.543585 0.342568
O O15 0.099593 0.890034 0.683616
#
# Coordination Sequence:
#
# PCOD9270136 Si02
#       7
#     8   8   8   8   8   8   8
#     4   9  18  33  54  82 108 135 181 228 279 312
#     4  10  20  35  56  80 111 145 179 229 273 326
#     4   9  17  33  55  80 104 134 180 232 262 327
#     4  11  22  35  56  78 113 150 184 228 271 334
#     4   9  19  36  58  81 103 140 194 225 276 319
#     4   9  19  34  53  76 107 145 179 213 281 330
#     4   9  19  36  58  78 109 144 177 233 276 325
#
# _framework density 18.99973
#
# number of rings (size 3 to 8) (size 9 to 14) (size 15 to 20)
#    0.000    2.571    0.000    3.429    0.000    6.857 
#    5.143    0.000    9.429    0.000    0.000    0.000 
#    0.000    0.000    0.000    0.000    0.000    0.000 
#
# Total GULP energy -156152.936041 kJ/mol
# GULP energy per Si atom -5576.890573 kJ/mol
# Density = 1.895649 g / cm^3
# Si number density = 18.999730 Si / 1000 Ang^3
#
#
#
# Elastic Constant Matrix: (Units=GPa)
#
#
# Indices 1 2 3 4 5 6 
#
# 1 64.0683 0.6856 -0.7853 0.0000 13.7004 0.0000
# 2 0.6856 90.0381 36.8313 0.0000 7.3407 0.0000
# 3 -0.7853 36.8313 47.2155 0.0000 10.0834 0.0000
# 4 0.0000 0.0000 0.0000 9.6332 0.0000 7.0923
# 5 13.7004 7.3407 10.0834 0.0000 24.2666 0.0000
# 6 0.0000 0.0000 0.0000 7.0923 0.0000 9.6474
#
#
#
# Elastic Compliance Matrix: (Units=1/GPa)
#
#
# Indices 1 2 3 4 5 6 
#
# 1 0.018078 -0.000480 0.003099 0.000000 -0.011349 0.000000
# 2 -0.000480 0.016327 -0.012892 0.000000 0.000689 0.000000
# 3 0.003099 -0.012892 0.033830 0.000000 -0.011907 0.000000
# 4 0.000000 0.000000 0.000000 0.226281 0.000000 -0.166351
# 5 -0.011349 0.000689 -0.011907 0.000000 0.052356 0.000000
# 6 0.000000 0.000000 0.000000 -0.166351 0.000000 0.225949
#
#
# Mechanical properties :
#
#
# Convention : Reuss Voigt Hill
#
# Bulk Modulus (GPa) = 20.96854 30.53170 25.75012
# Shear Modulus (GPa) = 8.20663 19.68212 13.94437
#
# Velocity S-wave (km/s) = 2.08056 3.22206 2.71204
# Velocity P-wave (km/s) = 4.10266 5.47235 4.83624
#
# Compressibility (1/GPa) = 0.04769050
#
# Stress axis : x y z
#
# Youngs Moduli (GPa) = 55.31471 61.24684 29.55940
#
# Poissons Ratio (x) = 0.02940 -0.09160
# Poissons Ratio (y) = 0.02655 0.38107
# Poissons Ratio (z) = -0.17141 0.78957
#
# Static dielectric constant tensor:
#      x y z
#    x 1.692140 0.000000 -0.007890 
#    y 0.000000 1.652820 0.000000 
#    z -0.007890 0.000000 1.679410 
# 
# From -- ./inp_files/197766.got.cif
#   From: 2010.05.17/outbox.cif.g08.bks.cpg/sg15_99_cif.got.tgz:197766.got - 2010.06.03 18:47:42.
