data_PCOD9270050
_publ_section_title
;
Structure prediction by ZEFSAII (Michael W. Deem and Ramdas Pophale) SiO2 
 PCOD9270050
Probable space group: C 2/C
;
_chemical_formula_sum "Si O2"
_cell_formula_units_Z 64
_cell_length_a 12.013056
_cell_length_b 20.702374
_cell_length_c 26.312972
_cell_angle_alpha 90.000000
_cell_angle_beta 151.746531
_cell_angle_gamma 90.000000
_cell_volume 3097.754801
_symmetry_space_group_name_H-M "C 2/C"
_symmetry_group_IT_number 15
_symmetry_cell_setting 'monoclinic'
loop_
_space_group_symop_operation_xyz
x,y,z
-x,y,1/2-z
-x,-y,-z
x,-y,1/2+z
1/2+x,1/2+y,z
1/2-x,1/2+y,1/2-z
1/2-x,1/2-y,-z
1/2+x,1/2-y,1/2+z
loop_
_atom_site_type_symbol
_atom_site_label
_atom_site_fract_x
_atom_site_fract_y
_atom_site_fract_z
Si Si1 0.434016 0.665898 0.610082
Si Si2 0.512696 0.089417 0.060477
Si Si3 0.192591 0.930710 0.286567
Si Si4 0.921677 0.461076 0.810100
Si Si5 0.852585 0.890328 0.968467
Si Si6 0.678882 0.943854 0.527200
Si Si7 0.431451 0.389632 0.890667
Si Si8 0.557609 0.213555 0.217981
O O1 0.161833 0.649603 0.513738
O O2 0.580180 0.626505 0.710244
O O3 0.462935 0.636506 0.564930
O O4 0.513346 0.738554 0.653261
O O5 0.616042 0.089668 0.158504
O O6 0.356568 0.021879 0.992662
O O7 0.708833 0.078199 0.097129
O O8 0.423856 0.914540 0.411405
O O9 0.000000 0.955341 0.250000
O O10 0.296247 0.978075 0.285042
O O11 0.781834 0.440378 0.704187
O O12 0.203823 0.456755 0.916894
O O13 0.006593 0.891254 0.979667
O O14 0.642002 0.841264 0.868313
O O15 0.868136 0.914495 0.566036
O O16 0.310099 0.321718 0.825415
O O17 0.500000 0.245327 0.250000
#
# Coordination Sequence:
#
# PCOD9270050 Si02
#       8
#     8   8   8   8   8   8   8   8
#     4  11  19  35  60  86 107 151 197 238 281 346
#     4   9  19  32  54  89 118 145 186 239 288 350
#     4  11  21  34  54  86 119 148 186 244 298 341
#     4   9  19  33  56  83 116 146 189 233 287 341
#     4   9  20  39  56  83 114 152 197 232 281 343
#     4  10  20  35  54  85 126 149 183 232 306 344
#     4  10  20  37  58  81 118 157 185 241 284 346
#     4   9  19  35  60  85 108 145 200 246 286 335
#
# _framework density 20.660124
#
# number of rings (size 3 to 8) (size 9 to 14) (size 15 to 20)
#    0.000    2.250    1.250    2.625    3.500    0.000 
#    0.000   13.750    0.000    0.000    6.500    0.000 
#    0.000    0.000    0.000    0.000    0.000    0.000 
#
# Total GULP energy -178207.977133 kJ/mol
# GULP energy per Si atom -5568.999285 kJ/mol
# Density = 2.061310 g / cm^3
# Si number density = 20.660124 Si / 1000 Ang^3
#
#
#
# Elastic Constant Matrix: (Units=GPa)
#
#
# Indices 1 2 3 4 5 6 
#
# 1 146.8944 31.4749 20.1699 -0.0009 -3.6970 -0.0004
# 2 31.4749 50.7736 4.4825 0.0010 7.3273 0.0002
# 3 20.1699 4.4825 45.3104 0.0044 -2.3482 0.0000
# 4 -0.0009 0.0010 0.0044 22.0747 -0.0004 -4.4620
# 5 -3.6970 7.3273 -2.3482 -0.0004 34.2538 -0.0001
# 6 -0.0004 0.0002 0.0000 -4.4620 -0.0001 17.8313
#
#
#
# Elastic Compliance Matrix: (Units=1/GPa)
#
#
# Indices 1 2 3 4 5 6 
#
# 1 0.008394 -0.005187 -0.003130 0.000001 0.001801 0.000001
# 2 -0.005187 0.023758 -0.000335 -0.000002 -0.005665 -0.000001
# 3 -0.003130 -0.000335 0.023566 -0.000005 0.001349 -0.000001
# 4 0.000001 -0.000002 -0.000005 0.047714 0.000001 0.011940
# 5 0.001801 -0.005665 0.001349 0.000001 0.030692 0.000000
# 6 0.000001 -0.000001 -0.000001 0.011940 0.000000 0.059069
#
#
# Mechanical properties :
#
#
# Convention : Reuss Voigt Hill
#
# Bulk Modulus (GPa) = 26.03208 39.47033 32.75120
# Shear Modulus (GPa) = 22.39110 27.28872 24.83991
#
# Velocity S-wave (km/s) = 3.29566 3.63828 3.47120
# Velocity P-wave (km/s) = 5.20666 6.06593 5.65265
#
# Compressibility (1/GPa) = 0.03841414
#
# Stress axis : x y z
#
# Youngs Moduli (GPa) = 119.13004 42.09128 42.43324
#
# Poissons Ratio (x) = 0.21833 0.13282
# Poissons Ratio (y) = 0.61795 0.01421
# Poissons Ratio (z) = 0.37290 0.01409
#
# Static dielectric constant tensor:
#      x y z
#    x 1.811350 0.000000 -0.020650 
#    y 0.000000 1.797190 0.000000 
#    z -0.020650 0.000000 1.768380 
# 
# From -- ./inp_files/293772.got.cif
#   From: 2010.05.17/outbox.cif.g08.bks.cpg/sg15_147_cif.got.tgz:293772.got - 2010.06.03 18:47:42.
