data_PCOD9270658
_publ_section_title
;
Structure prediction by ZEFSAII (Michael W. Deem and Ramdas Pophale) SiO2 
 PCOD9270658
Probable space group: C 2/C
;
_chemical_formula_sum "Si O2"
_cell_formula_units_Z 48
_cell_length_a 27.345242
_cell_length_b 8.653273
_cell_length_c 9.490303
_cell_angle_alpha 90.000000
_cell_angle_beta 91.747997
_cell_angle_gamma 90.000000
_cell_volume 2244.605964
_symmetry_space_group_name_H-M "C 2/C"
_symmetry_group_IT_number 15
_symmetry_cell_setting 'monoclinic'
loop_
_space_group_symop_operation_xyz
x,y,z
-x,y,1/2-z
-x,-y,-z
x,-y,1/2+z
1/2+x,1/2+y,z
1/2-x,1/2+y,1/2-z
1/2-x,1/2-y,-z
1/2+x,1/2-y,1/2+z
loop_
_atom_site_type_symbol
_atom_site_label
_atom_site_fract_x
_atom_site_fract_y
_atom_site_fract_z
Si Si1 0.653824 0.193830 0.141713
Si Si2 0.046474 0.687075 0.830450
Si Si3 0.453468 0.140228 0.332114
Si Si4 0.651936 0.671212 0.350057
Si Si5 0.311246 0.134350 0.887107
Si Si6 0.198391 0.143934 0.877612
O O1 0.599163 0.219204 0.195058
O O2 0.694334 0.219413 0.263235
O O3 0.657231 0.018406 0.086181
O O4 0.663321 0.307501 0.014928
O O5 0.052971 0.530410 0.738202
O O6 0.094949 0.789790 0.825070
O O7 0.000000 0.764097 0.750000
O O8 0.038569 0.645256 0.996447
O O9 0.500000 0.206089 0.250000
O O10 0.680903 0.802596 0.268292
O O11 0.669153 0.500611 0.314465
O O12 0.254353 0.099815 0.909964
O O13 0.324891 0.278956 0.986707
#
# Coordination Sequence:
#
# PCOD9270658 Si02
#       6
#     8   8   8   8   8   8
#     4  11  23  40  63  91 122 162 209 252 305 366
#     4  10  20  36  61  90 122 160 201 252 308 360
#     4  10  20  35  61  93 119 154 206 257 300 356
#     4  11  23  40  61  92 126 161 203 256 311 367
#     4  11  23  41  64  89 121 166 209 253 300 368
#     4  11  25  40  62  91 125 163 203 256 314 360
#
# _framework density 21.384599000000001
#
# number of rings (size 3 to 8) (size 9 to 14) (size 15 to 20)
#    0.000    1.333    1.667    5.000    2.333    6.667 
#    0.000    0.833    0.000    5.000    0.000    0.000 
#    0.000    0.000    0.000    0.000    0.000    0.000 
#
# Total GULP energy -133952.120014 kJ/mol
# GULP energy per Si atom -5581.338334 kJ/mol
# Density = 2.133593 g / cm^3
# Si number density = 21.384599 Si / 1000 Ang^3
#
#
#
# Elastic Constant Matrix: (Units=GPa)
#
#
# Indices 1 2 3 4 5 6 
#
# 1 49.2058 7.4522 24.5538 0.0000 -3.7713 0.0000
# 2 7.4522 54.1403 10.1394 0.0000 -7.6884 0.0000
# 3 24.5538 10.1394 75.1398 0.0000 3.1273 0.0000
# 4 0.0000 0.0000 0.0000 23.0429 0.0000 -3.0956
# 5 -3.7713 -7.6884 3.1273 0.0000 29.2721 0.0000
# 6 0.0000 0.0000 0.0000 -3.0956 0.0000 19.6645
#
#
#
# Elastic Compliance Matrix: (Units=1/GPa)
#
#
# Indices 1 2 3 4 5 6 
#
# 1 0.024852 -0.001380 -0.008089 0.000000 0.003704 0.000000
# 2 -0.001380 0.019873 -0.002451 0.000000 0.005304 0.000000
# 3 -0.008089 -0.002451 0.016426 0.000000 -0.003441 0.000000
# 4 0.000000 0.000000 0.000000 0.044335 0.000000 0.006979
# 5 0.003704 0.005304 -0.003441 0.000000 0.036400 0.000000
# 6 0.000000 0.000000 0.000000 0.006979 0.000000 0.051952
#
#
# Mechanical properties :
#
#
# Convention : Reuss Voigt Hill
#
# Bulk Modulus (GPa) = 26.80253 29.19741 27.99997
# Shear Modulus (GPa) = 21.72832 23.48528 22.60680
#
# Velocity S-wave (km/s) = 3.19105 3.31756 3.25492
# Velocity P-wave (km/s) = 5.11252 5.32522 5.21995
#
# Compressibility (1/GPa) = 0.03730991
#
# Stress axis : x y z
#
# Youngs Moduli (GPa) = 40.23815 50.32011 60.87991
#
# Poissons Ratio (x) = 0.06944 0.49245
# Poissons Ratio (y) = 0.05553 0.14924
# Poissons Ratio (z) = 0.32548 0.12336
#
# Static dielectric constant tensor:
#      x y z
#    x 1.791110 0.000000 -0.007200 
#    y 0.000000 1.728150 0.000000 
#    z -0.007200 0.000000 1.777680 
# 
# From -- ./inp_files/68566.got.cif
#   From: 2010.05.17/outbox.cif.g08.bks.cpg/sg15_35_cif.got.tgz:68566.got - 2010.06.03 18:47:42.
