data_PCOD9270529
_publ_section_title
;
Structure prediction by ZEFSAII (Michael W. Deem and Ramdas Pophale) SiO2 
 PCOD9270529
Probable space group: C 2/C
;
_chemical_formula_sum "Si O2"
_cell_formula_units_Z 44
_cell_length_a 7.837756
_cell_length_b 29.986164
_cell_length_c 9.365715
_cell_angle_alpha 90.000000
_cell_angle_beta 68.185446
_cell_angle_gamma 90.000000
_cell_volume 2043.547457
_symmetry_space_group_name_H-M "C 2/C"
_symmetry_group_IT_number 15
_symmetry_cell_setting 'monoclinic'
loop_
_space_group_symop_operation_xyz
x,y,z
-x,y,1/2-z
-x,-y,-z
x,-y,1/2+z
1/2+x,1/2+y,z
1/2-x,1/2+y,1/2-z
1/2-x,1/2-y,-z
1/2+x,1/2-y,1/2+z
loop_
_atom_site_type_symbol
_atom_site_label
_atom_site_fract_x
_atom_site_fract_y
_atom_site_fract_z
Si Si1 0.204992 0.788848 0.624008
Si Si2 0.602404 0.052517 0.082338
Si Si3 0.500000 0.188493 0.250000
Si Si4 0.832670 0.455081 0.409385
Si Si5 0.246823 0.859728 0.061010
Si Si6 0.667004 0.638184 0.903842
O O1 0.250000 0.750000 0.500000
O O2 0.344698 0.785285 0.712126
O O3 0.227181 0.834294 0.524268
O O4 0.000000 0.787023 0.750000
O O5 0.500000 0.072631 0.250000
O O6 0.710026 0.007637 0.095626
O O7 0.428989 0.044691 0.033057
O O8 0.732116 0.087152 0.964191
O O9 0.392622 0.162181 0.409032
O O10 0.692711 0.414600 0.429820
O O11 0.000000 0.445673 0.250000
O O12 0.270355 0.850160 0.222377
O O13 0.043035 0.849218 0.067967
#
# Coordination Sequence:
#
# PCOD9270529 Si02
#       6
#     8   8   4   8   8   8
#     4  12  30  52  77 111 142 179 227 286 354 425
#     4  10  20  35  59  96 132 187 240 283 344 403
#     4  12  26  48  78 106 146 188 228 278 352 418
#     4  10  20  36  61  91 137 186 237 288 345 408
#     4  11  23  42  71 100 141 190 233 288 346 414
#     4  11  25  44  67 102 141 179 240 289 352 418
#
# _framework density 21.531186000000002
#
# number of rings (size 3 to 8) (size 9 to 14) (size 15 to 20)
#    0.000    1.091    4.545    1.091    2.545    2.909 
#    0.000    0.000    4.000    0.000    0.000    0.000 
#    0.000    0.000    0.000    0.000    0.000    0.000 
#
# Total GULP energy -122740.954448 kJ/mol
# GULP energy per Si atom -5579.134293 kJ/mol
# Density = 2.148218 g / cm^3
# Si number density = 21.531186 Si / 1000 Ang^3
#
#
#
# Elastic Constant Matrix: (Units=GPa)
#
#
# Indices 1 2 3 4 5 6 
#
# 1 95.2125 24.8579 49.8329 0.0000 14.4998 0.0000
# 2 24.8579 55.3342 27.3517 0.0000 -8.3358 0.0000
# 3 49.8329 27.3517 136.2943 0.0000 -1.3344 0.0000
# 4 0.0000 0.0000 0.0000 31.5129 0.0000 -0.5280
# 5 14.4998 -8.3358 -1.3344 0.0000 35.3008 0.0000
# 6 0.0000 0.0000 0.0000 -0.5280 0.0000 7.1834
#
#
#
# Elastic Compliance Matrix: (Units=1/GPa)
#
#
# Indices 1 2 3 4 5 6 
#
# 1 0.015708 -0.005983 -0.004621 0.000000 -0.008040 0.000000
# 2 -0.005983 0.023112 -0.002374 0.000000 0.007826 0.000000
# 3 -0.004621 -0.002374 0.009520 0.000000 0.001697 0.000000
# 4 0.000000 0.000000 0.000000 0.031772 0.000000 0.002335
# 5 -0.008040 0.007826 0.001697 0.000000 0.033542 0.000000
# 6 0.000000 0.000000 0.000000 0.002335 0.000000 0.139381
#
#
# Mechanical properties :
#
#
# Convention : Reuss Voigt Hill
#
# Bulk Modulus (GPa) = 44.67687 54.54734 49.61211
# Shear Modulus (GPa) = 17.45484 27.11933 22.28709
#
# Velocity S-wave (km/s) = 2.85033 3.55285 3.22080
# Velocity P-wave (km/s) = 5.62382 6.49765 6.07646
#
# Compressibility (1/GPa) = 0.02238295
#
# Stress axis : x y z
#
# Youngs Moduli (GPa) = 63.66197 43.26718 105.04502
#
# Poissons Ratio (x) = 0.25888 0.48544
# Poissons Ratio (y) = 0.38091 0.24937
# Poissons Ratio (z) = 0.29420 0.10271
#
# Static dielectric constant tensor:
#      x y z
#    x 1.784350 0.000000 0.019950 
#    y 0.000000 1.832210 0.000000 
#    z 0.019950 0.000000 1.794950 
# 
# From -- ./inp_files/25465.got.cif
#   From: 2010.05.17/outbox.cif.g08.bks.cpg/sg15_13_cif.got.tgz:25465.got - 2010.06.03 18:47:42.
