data_PCOD9270378
_publ_section_title
;
Structure prediction by ZEFSAII (Michael W. Deem and Ramdas Pophale) SiO2 
 PCOD9270378
Probable space group: C 2/C
;
_chemical_formula_sum "Si O2"
_cell_formula_units_Z 52
_cell_length_a 15.734079
_cell_length_b 7.501395
_cell_length_c 19.508310
_cell_angle_alpha 90.000000
_cell_angle_beta 123.302295
_cell_angle_gamma 90.000000
_cell_volume 1924.410748
_symmetry_space_group_name_H-M "C 2/C"
_symmetry_group_IT_number 15
_symmetry_cell_setting 'monoclinic'
loop_
_space_group_symop_operation_xyz
x,y,z
-x,y,1/2-z
-x,-y,-z
x,-y,1/2+z
1/2+x,1/2+y,z
1/2-x,1/2+y,1/2-z
1/2-x,1/2-y,-z
1/2+x,1/2-y,1/2+z
loop_
_atom_site_type_symbol
_atom_site_label
_atom_site_fract_x
_atom_site_fract_y
_atom_site_fract_z
Si Si1 0.280088 0.916743 0.638760
Si Si2 0.135907 0.358950 0.553928
Si Si3 0.000000 0.658556 0.250000
Si Si4 0.003688 0.506159 0.899614
Si Si5 0.154249 0.833028 0.829523
Si Si6 0.088660 0.895959 0.652998
Si Si7 0.876394 0.999461 0.533147
O O1 0.334479 0.115889 0.661210
O O2 0.206970 0.874147 0.540409
O O3 0.378273 0.782777 0.688782
O O4 0.199079 0.918337 0.666619
O O5 0.046140 0.383262 0.566280
O O6 0.234444 0.403854 0.639863
O O7 0.140915 0.162918 0.526985
O O8 0.118104 0.471939 0.477191
O O9 0.991187 0.562866 0.318923
O O10 0.950995 0.698574 0.883639
O O11 0.087472 0.889851 0.735444
O O12 0.139231 0.916241 0.898056
O O13 0.998711 0.029306 0.588657
#
# Coordination Sequence:
#
# PCOD9270378 Si02
#       7
#     8   8   4   8   8   8   8
#     4  11  22  36  58  89 117 155 192 249 296 343
#     4   9  19  34  57  87 115 154 191 243 284 350
#     4  12  20  36  60  86 114 152 204 244 276 350
#     4  10  20  35  58  86 116 152 199 235 292 344
#     4  11  20  35  61  88 115 150 202 243 287 342
#     4  11  22  35  59  90 120 150 190 250 297 345
#     4  10  21  39  62  88 116 153 203 241 288 349
#
# _framework density 27.021256999999999
#
# number of rings (size 3 to 8) (size 9 to 14) (size 15 to 20)
#    0.000    1.538    1.538    6.462    0.000    0.000 
#    0.000    0.000    0.000   28.615    0.000    0.000 
#    0.000    0.000    0.000    0.000    0.000    0.000 
#
# Total GULP energy -145017.403216 kJ/mol
# GULP energy per Si atom -5577.592431 kJ/mol
# Density = 2.695976 g / cm^3
# Si number density = 27.021257 Si / 1000 Ang^3
#
#
#
# Elastic Constant Matrix: (Units=GPa)
#
#
# Indices 1 2 3 4 5 6 
#
# 1 127.0884 20.9641 47.4752 0.0000 -1.2932 0.0000
# 2 20.9641 57.9822 48.2366 0.0000 -7.2724 0.0000
# 3 47.4752 48.2366 216.0031 0.0000 2.7867 0.0000
# 4 0.0000 0.0000 0.0000 14.1878 0.0000 -2.3673
# 5 -1.2932 -7.2724 2.7867 0.0000 64.0470 0.0000
# 6 0.0000 0.0000 0.0000 -2.3673 0.0000 21.4159
#
#
#
# Elastic Compliance Matrix: (Units=1/GPa)
#
#
# Indices 1 2 3 4 5 6 
#
# 1 0.008743 -0.001915 -0.001494 0.000000 0.000024 0.000000
# 2 -0.001915 0.022047 -0.004537 0.000000 0.002662 0.000000
# 3 -0.001494 -0.004537 0.005982 0.000000 -0.000806 0.000000
# 4 0.000000 0.000000 0.000000 0.071807 0.000000 0.007938
# 5 0.000024 0.002662 -0.000806 0.000000 0.015951 0.000000
# 6 0.000000 0.000000 0.000000 0.007938 0.000000 0.047572
#
#
# Mechanical properties :
#
#
# Convention : Reuss Voigt Hill
#
# Bulk Modulus (GPa) = 47.89401 70.49172 59.19287
# Shear Modulus (GPa) = 25.64702 38.89000 32.26851
#
# Velocity S-wave (km/s) = 3.08416 3.79784 3.45945
# Velocity P-wave (km/s) = 5.51777 6.73614 6.15717
#
# Compressibility (1/GPa) = 0.02087944
#
# Stress axis : x y z
#
# Youngs Moduli (GPa) = 114.37898 45.35694 167.18084
#
# Poissons Ratio (x) = 0.08686 0.24981
# Poissons Ratio (y) = 0.21903 0.75849
# Poissons Ratio (z) = 0.17091 0.20578
#
# Static dielectric constant tensor:
#      x y z
#    x 2.168490 0.000000 0.106110 
#    y 0.000000 2.222660 0.000000 
#    z 0.106110 0.000000 2.134940 
# 
# From -- ./inp_files/204191.got.cif
#   From: 2010.05.17/outbox.cif.g08.bks.cpg/sg15_103_cif.got.tgz:204191.got - 2010.06.03 18:47:42.
