data_PCOD9270521
_publ_section_title
;
Structure prediction by ZEFSAII (Michael W. Deem and Ramdas Pophale) SiO2 
 PCOD9270521
Probable space group: C 2/C
;
_chemical_formula_sum "Si O2"
_cell_formula_units_Z 60
_cell_length_a 20.380786
_cell_length_b 10.906732
_cell_length_c 13.084481
_cell_angle_alpha 90.000000
_cell_angle_beta 64.220731
_cell_angle_gamma 90.000000
_cell_volume 2619.053110
_symmetry_space_group_name_H-M "C 2/C"
_symmetry_group_IT_number 15
_symmetry_cell_setting 'monoclinic'
loop_
_space_group_symop_operation_xyz
x,y,z
-x,y,1/2-z
-x,-y,-z
x,-y,1/2+z
1/2+x,1/2+y,z
1/2-x,1/2+y,1/2-z
1/2-x,1/2-y,-z
1/2+x,1/2-y,1/2+z
loop_
_atom_site_type_symbol
_atom_site_label
_atom_site_fract_x
_atom_site_fract_y
_atom_site_fract_z
Si Si1 0.388453 0.596505 0.759699
Si Si2 0.273592 0.291447 0.095986
Si Si3 0.818235 0.347189 0.750637
Si Si4 0.000000 0.599711 0.750000
Si Si5 0.371760 0.112710 0.701682
Si Si6 0.947791 0.427512 0.955705
Si Si7 0.334299 0.457425 0.626622
Si Si8 0.961463 0.853187 0.420118
O O1 0.349682 0.727783 0.782804
O O2 0.335933 0.496411 0.745264
O O3 0.456787 0.597351 0.635073
O O4 0.421796 0.587024 0.848755
O O5 0.315078 0.187582 0.132535
O O6 0.200411 0.322640 0.209448
O O7 0.321635 0.415677 0.072412
O O8 0.250000 0.250000 0.000000
O O9 0.864755 0.468848 0.734924
O O10 0.737363 0.377760 0.843609
O O11 0.943050 0.665513 0.711959
O O12 0.949264 0.517482 0.858829
O O13 0.379332 0.106129 0.574025
O O14 0.972325 0.293109 0.902490
O O15 0.000000 0.500000 0.000000
O O16 0.406962 0.385742 0.547700
#
# Coordination Sequence:
#
# PCOD9270521 Si02
#       8
#     8   8   8   4   8   8   8   8
#     4  10  22  40  63  93 123 168 215 266 331 390
#     4  10  23  40  60  86 126 173 215 264 329 387
#     4  10  21  40  61  85 127 161 210 266 317 389
#     4  10  20  36  62  92 130 158 206 258 330 394
#     4  10  21  38  60  93 122 162 206 263 327 389
#     4  10  20  35  59  93 128 162 203 262 327 393
#     4  10  23  40  62  94 124 170 221 269 322 399
#     4  11  21  39  66  91 126 167 212 270 329 400
#
# _framework density 22.909044000000002
#
# number of rings (size 3 to 8) (size 9 to 14) (size 15 to 20)
#    0.000    1.867    0.000    4.400    3.733    0.533 
#    2.400    0.000    0.000    0.000    0.000    0.000 
#    0.000    0.000    0.000    0.000    0.000    0.000 
#
# Total GULP energy -167465.007757 kJ/mol
# GULP energy per Si atom -5582.166925 kJ/mol
# Density = 2.285690 g / cm^3
# Si number density = 22.909044 Si / 1000 Ang^3
#
#
#
# Elastic Constant Matrix: (Units=GPa)
#
#
# Indices 1 2 3 4 5 6 
#
# 1 81.7580 25.5565 5.7450 0.0000 7.5120 0.0000
# 2 25.5565 53.6857 2.7975 0.0000 -2.5547 0.0000
# 3 5.7450 2.7975 76.9468 0.0000 -0.8836 0.0000
# 4 0.0000 0.0000 0.0000 14.5270 0.0000 -1.4129
# 5 7.5120 -2.5547 -0.8836 0.0000 36.2057 0.0000
# 6 0.0000 0.0000 0.0000 -1.4129 0.0000 21.1032
#
#
#
# Elastic Compliance Matrix: (Units=1/GPa)
#
#
# Indices 1 2 3 4 5 6 
#
# 1 0.014880 -0.007209 -0.000890 0.000000 -0.003618 0.000000
# 2 -0.007209 0.022216 -0.000234 0.000000 0.003058 0.000000
# 3 -0.000890 -0.000234 0.013077 0.000000 0.000487 0.000000
# 4 0.000000 0.000000 0.000000 0.069288 0.000000 0.004639
# 5 -0.003618 0.003058 0.000487 0.000000 0.028598 0.000000
# 6 0.000000 0.000000 0.000000 0.004639 0.000000 0.047697
#
#
# Mechanical properties :
#
#
# Convention : Reuss Voigt Hill
#
# Bulk Modulus (GPa) = 29.84624 31.17652 30.51138
# Shear Modulus (GPa) = 22.36219 26.25330 24.30774
#
# Velocity S-wave (km/s) = 3.12770 3.38890 3.26092
# Velocity P-wave (km/s) = 5.10879 5.38064 5.24648
#
# Compressibility (1/GPa) = 0.03350506
#
# Stress axis : x y z
#
# Youngs Moduli (GPa) = 67.20596 45.01172 76.47253
#
# Poissons Ratio (x) = 0.32449 0.06809
# Poissons Ratio (y) = 0.48449 0.01792
# Poissons Ratio (z) = 0.05984 0.01055
#
# Static dielectric constant tensor:
#      x y z
#    x 1.875330 0.000000 -0.009970 
#    y 0.000000 1.866480 0.000000 
#    z -0.009970 0.000000 1.886890 
# 
# From -- ./inp_files/167591.got.cif
#   From: 2010.05.17/outbox.cif.g08.bks.cpg/sg15_84_cif.got.tgz:167591.got - 2010.06.03 18:47:42.
