data_PCOD9270726
_publ_section_title
;
Structure prediction by ZEFSAII (Michael W. Deem and Ramdas Pophale) SiO2 
 PCOD9270726
Probable space group: C 2/C
;
_chemical_formula_sum "Si O2"
_cell_formula_units_Z 28
_cell_length_a 14.495711
_cell_length_b 14.301266
_cell_length_c 8.389822
_cell_angle_alpha 90.000000
_cell_angle_beta 44.031009
_cell_angle_gamma 90.000000
_cell_volume 1208.874704
_symmetry_space_group_name_H-M "C 2/C"
_symmetry_group_IT_number 15
_symmetry_cell_setting 'monoclinic'
loop_
_space_group_symop_operation_xyz
x,y,z
-x,y,1/2-z
-x,-y,-z
x,-y,1/2+z
1/2+x,1/2+y,z
1/2-x,1/2+y,1/2-z
1/2-x,1/2-y,-z
1/2+x,1/2-y,1/2+z
loop_
_atom_site_type_symbol
_atom_site_label
_atom_site_fract_x
_atom_site_fract_y
_atom_site_fract_z
Si Si1 0.955656 0.287671 0.134355
Si Si2 0.500000 0.607250 0.250000
Si Si3 0.876127 0.406727 0.787750
Si Si4 0.247548 0.429644 0.245088
O O1 0.937110 0.179003 0.197405
O O2 0.000000 0.328591 0.250000
O O3 0.823439 0.338497 0.241844
O O4 0.071968 0.313331 0.864667
O O5 0.388149 0.555480 0.487418
O O6 0.841940 0.482618 0.696984
O O7 0.000000 0.431141 0.750000
O O8 0.755644 0.409297 0.063101
#
# Coordination Sequence:
#
# PCOD9270726 Si02
#       4
#     8   4   8   8
#     4   9  19  37  57  83 105 146 186 228 267 322
#     4  10  24  34  58  82 122 142 172 230 294 320
#     4  10  20  35  63  82 105 144 197 227 260 322
#     4  11  20  37  57  85 111 146 185 227 272 330
#
# _framework density 23.162037999999999
#
# number of rings (size 3 to 8) (size 9 to 14) (size 15 to 20)
#    0.857    1.143    0.000    6.857    0.000    2.286 
#    0.000    0.000    0.000    0.000    0.000    0.000 
#    0.000    0.000    0.000    0.000    0.000    0.000 
#
# Total GULP energy -78058.232333 kJ/mol
# GULP energy per Si atom -5575.588024 kJ/mol
# Density = 2.310932 g / cm^3
# Si number density = 23.162038 Si / 1000 Ang^3
#
#
#
# Elastic Constant Matrix: (Units=GPa)
#
#
# Indices 1 2 3 4 5 6 
#
# 1 33.8158 -0.5784 17.2834 0.0000 22.9460 -0.0001
# 2 -0.5784 18.1473 2.7457 0.0000 2.5303 0.0000
# 3 17.2834 2.7457 197.5636 0.0000 25.9899 0.0000
# 4 0.0000 0.0000 0.0000 243.1974 0.0000 -415.8064
# 5 22.9460 2.5303 25.9899 0.0000 34.6778 0.0000
# 6 -0.0001 0.0000 0.0000 -415.8064 0.0000 831.3850
#
#
#
# Elastic Compliance Matrix: (Units=1/GPa)
#
#
# Indices 1 2 3 4 5 6 
#
# 1 0.054496 0.006837 -0.000059 0.000000 -0.036514 0.000000
# 2 0.006837 0.056541 -0.000273 0.000000 -0.008445 0.000000
# 3 -0.000059 -0.000273 0.005617 0.000000 -0.004151 0.000000
# 4 0.000000 0.000000 0.000000 0.028379 0.000000 0.014193
# 5 -0.036514 -0.008445 -0.004151 0.000000 0.056725 0.000000
# 6 0.000000 0.000000 0.000000 0.014193 0.000000 0.008301
#
#
# Mechanical properties :
#
#
# Convention : Reuss Voigt Hill
#
# Bulk Modulus (GPa) = 7.71220 32.04755 19.87987
# Shear Modulus (GPa) = 20.80984 237.19044 129.00014
#
# Velocity S-wave (km/s) = 3.00066 10.13051 7.47098
# Velocity P-wave (km/s) = 3.91691 12.27609 9.11166
#
# Compressibility (1/GPa) = 0.12966476
#
# Stress axis : x y z
#
# Youngs Moduli (GPa) = 18.34990 17.68614 178.04280
#
# Poissons Ratio (x) = -0.12092 0.01050
# Poissons Ratio (y) = -0.12546 0.04860
# Poissons Ratio (z) = 0.00108 0.00483
#
# Static dielectric constant tensor:
#      x y z
#    x 1.927620 0.000000 -0.000030 
#    y 0.000000 1.867980 0.000000 
#    z -0.000030 0.000000 1.971110 
# 
# From -- ./inp_files/21519.got.cif
#   From: 2010.05.17/outbox.cif.g08.bks.cpg/sg15_11_cif.got.tgz:21519.got - 2010.06.03 18:47:42.
