data_PCOD9270353
_publ_section_title
;
Structure prediction by ZEFSAII (Michael W. Deem and Ramdas Pophale) SiO2 
 PCOD9270353
Probable space group: C 2/C
;
_chemical_formula_sum "Si O2"
_cell_formula_units_Z 40
_cell_length_a 17.177010
_cell_length_b 17.945379
_cell_length_c 9.132873
_cell_angle_alpha 90.000000
_cell_angle_beta 44.339698
_cell_angle_gamma 90.000000
_cell_volume 1967.566834
_symmetry_space_group_name_H-M "C 2/C"
_symmetry_group_IT_number 15
_symmetry_cell_setting 'monoclinic'
loop_
_space_group_symop_operation_xyz
x,y,z
-x,y,1/2-z
-x,-y,-z
x,-y,1/2+z
1/2+x,1/2+y,z
1/2-x,1/2+y,1/2-z
1/2-x,1/2-y,-z
1/2+x,1/2-y,1/2+z
loop_
_atom_site_type_symbol
_atom_site_label
_atom_site_fract_x
_atom_site_fract_y
_atom_site_fract_z
Si Si1 0.083872 0.105649 0.428806
Si Si2 0.679745 0.348175 0.525753
Si Si3 0.338013 0.555681 0.729258
Si Si4 0.752894 0.332721 0.925343
Si Si5 0.124010 0.685976 0.522391
O O1 0.083362 0.150441 0.277821
O O2 0.143236 0.154341 0.471723
O O3 0.960538 0.077336 0.626123
O O4 0.159190 0.033124 0.288951
O O5 0.672020 0.414315 0.421897
O O6 0.792981 0.348303 0.467580
O O7 0.666040 0.271427 0.458263
O O8 0.253162 0.601770 0.945051
O O9 0.852533 0.342797 0.673490
O O10 0.750000 0.250000 0.000000
O O11 0.000000 0.679804 0.750000
#
# Coordination Sequence:
#
# PCOD9270353 Si02
#       5
#     8   8   8   8   8
#     4  10  22  36  62  90 130 167 196 256 327 382
#     4  10  20  35  58  83 116 161 201 246 308 373
#     4  11  20  38  60  95 127 158 206 260 323 374
#     4  11  22  37  57  94 128 161 207 261 305 372
#     4  10  21  39  58  82 120 162 202 249 311 364
#
# _framework density 20.329678000000001
#
# number of rings (size 3 to 8) (size 9 to 14) (size 15 to 20)
#    0.000    1.600    2.000    3.600    0.000    3.200 
#    3.600    1.000    0.000   19.200    0.000    2.800 
#    0.000    0.000    0.000    0.000    0.000    0.000 
#
# Total GULP energy -111606.363096 kJ/mol
# GULP energy per Si atom -5580.318155 kJ/mol
# Density = 2.028341 g / cm^3
# Si number density = 20.329678 Si / 1000 Ang^3
#
#
#
# Elastic Constant Matrix: (Units=GPa)
#
#
# Indices 1 2 3 4 5 6 
#
# 1 73.0778 35.9435 29.2784 0.0000 4.0371 0.0000
# 2 35.9435 85.7577 23.6311 0.0000 1.4476 0.0000
# 3 29.2784 23.6311 114.4095 0.0000 -2.1597 0.0000
# 4 0.0000 0.0000 0.0000 19.5530 0.0000 1.3720
# 5 4.0371 1.4476 -2.1597 0.0000 36.4714 0.0000
# 6 0.0000 0.0000 0.0000 1.3720 0.0000 33.3978
#
#
#
# Elastic Compliance Matrix: (Units=1/GPa)
#
#
# Indices 1 2 3 4 5 6 
#
# 1 0.018478 -0.006784 -0.003365 0.000000 -0.001975 0.000000
# 2 -0.006784 0.014870 -0.001334 0.000000 0.000082 0.000000
# 3 -0.003365 -0.001334 0.009896 0.000000 0.001011 0.000000
# 4 0.000000 0.000000 0.000000 0.051291 0.000000 -0.002107
# 5 -0.001975 0.000082 0.001011 0.000000 0.027694 0.000000
# 6 0.000000 0.000000 0.000000 -0.002107 0.000000 0.030029
#
#
# Mechanical properties :
#
#
# Convention : Reuss Voigt Hill
#
# Bulk Modulus (GPa) = 49.31150 50.10567 49.70859
# Shear Modulus (GPa) = 27.47505 30.17723 28.82614
#
# Velocity S-wave (km/s) = 3.68023 3.85696 3.76963
# Velocity P-wave (km/s) = 6.50902 6.67345 6.59175
#
# Compressibility (1/GPa) = 0.02027924
#
# Stress axis : x y z
#
# Youngs Moduli (GPa) = 54.11833 67.24799 101.04912
#
# Poissons Ratio (x) = 0.45622 0.34000
# Poissons Ratio (y) = 0.36715 0.13478
# Poissons Ratio (z) = 0.18209 0.08969
#
# Static dielectric constant tensor:
#      x y z
#    x 1.716600 0.000000 0.009530 
#    y 0.000000 1.754140 0.000000 
#    z 0.009530 0.000000 1.783430 
# 
# From -- ./inp_files/48293.got.cif
#   From: 2010.05.17/outbox.cif.g08.bks.cpg/sg15_25_cif.got.tgz:48293.got - 2010.06.03 18:47:42.
