data_PCOD9270160
_publ_section_title
;
Structure prediction by ZEFSAII (Michael W. Deem and Ramdas Pophale) SiO2 
 PCOD9270160
Probable space group: C 2/C
;
_chemical_formula_sum "Si O2"
_cell_formula_units_Z 52
_cell_length_a 29.433107
_cell_length_b 16.618529
_cell_length_c 7.851790
_cell_angle_alpha 90.000000
_cell_angle_beta 130.923420
_cell_angle_gamma 90.000000
_cell_volume 2901.891286
_symmetry_space_group_name_H-M "C 2/C"
_symmetry_group_IT_number 15
_symmetry_cell_setting 'monoclinic'
loop_
_space_group_symop_operation_xyz
x,y,z
-x,y,1/2-z
-x,-y,-z
x,-y,1/2+z
1/2+x,1/2+y,z
1/2-x,1/2+y,1/2-z
1/2-x,1/2-y,-z
1/2+x,1/2-y,1/2+z
loop_
_atom_site_type_symbol
_atom_site_label
_atom_site_fract_x
_atom_site_fract_y
_atom_site_fract_z
Si Si1 0.724321 0.660298 0.915374
Si Si2 0.602580 0.014487 0.991068
Si Si3 0.269643 0.360765 0.690137
Si Si4 0.834476 0.776722 0.549114
Si Si5 0.000000 0.383081 0.750000
Si Si6 0.307443 0.014899 0.033730
Si Si7 0.955569 0.319363 0.289681
O O1 0.677249 0.669433 0.647141
O O2 0.750000 0.750000 0.000000
O O3 0.704894 0.632213 0.055628
O O4 0.776325 0.600082 0.981591
O O5 0.557331 0.940945 0.872021
O O6 0.673451 0.003180 0.117430
O O7 0.572867 0.096597 0.852372
O O8 0.621336 0.018828 0.238432
O O9 0.214320 0.296611 0.566003
O O10 0.318358 0.327134 0.677813
O O11 0.239417 0.442892 0.551186
O O12 0.899800 0.737984 0.695806
O O13 0.990581 0.335323 0.551721
O O14 0.000000 0.289972 0.250000
#
# Coordination Sequence:
#
# PCOD9270160 Si02
#       7
#     8   8   8   8   4   8   8
#     4  10  21  36  54  83 117 153 195 240 294 356
#     4  12  20  34  53  82 121 159 200 231 272 349
#     4  10  20  35  56  83 116 150 196 237 296 357
#     4  10  21  38  55  80 117 154 193 248 291 345
#     4  12  24  36  54  82 120 164 208 240 272 338
#     4  12  20  34  59  85 119 160 195 234 296 357
#     4  12  24  39  56  81 117 162 204 240 288 346
#
# _framework density 17.919346999999998
#
# number of rings (size 3 to 8) (size 9 to 14) (size 15 to 20)
#    0.000    0.923    5.385    3.231    0.000    3.692 
#    0.000    0.000    0.000    0.000    0.000    1.077 
#    0.000    0.000    0.000    0.000    0.000    0.000 
#
# Total GULP energy -144845.610213 kJ/mol
# GULP energy per Si atom -5570.985008 kJ/mol
# Density = 1.787856 g / cm^3
# Si number density = 17.919347 Si / 1000 Ang^3
#
#
#
# Elastic Constant Matrix: (Units=GPa)
#
#
# Indices 1 2 3 4 5 6 
#
# 1 111.0325 31.0698 30.3590 0.0000 10.6529 0.0000
# 2 31.0698 53.3250 29.2704 0.0000 9.0800 0.0000
# 3 30.3590 29.2704 102.8071 0.0000 -1.9515 0.0000
# 4 0.0000 0.0000 0.0000 24.1867 0.0000 -3.1653
# 5 10.6529 9.0800 -1.9515 0.0000 11.1363 0.0000
# 6 0.0000 0.0000 0.0000 -3.1653 0.0000 18.2996
#
#
#
# Elastic Compliance Matrix: (Units=1/GPa)
#
#
# Indices 1 2 3 4 5 6 
#
# 1 0.011585 -0.004010 -0.002436 0.000000 -0.008239 0.000000
# 2 -0.004010 0.028691 -0.007380 0.000000 -0.020850 0.000000
# 3 -0.002436 -0.007380 0.012748 0.000000 0.010581 0.000000
# 4 0.000000 0.000000 0.000000 0.042303 0.000000 0.007317
# 5 -0.008239 -0.020850 0.010581 0.000000 0.116533 0.000000
# 6 0.000000 0.000000 0.000000 0.007317 0.000000 0.055912
#
#
# Mechanical properties :
#
#
# Convention : Reuss Voigt Hill
#
# Bulk Modulus (GPa) = 39.41341 49.84033 44.62687
# Shear Modulus (GPa) = 16.45381 22.48885 19.47133
#
# Velocity S-wave (km/s) = 3.03349 3.54645 3.29995
# Velocity P-wave (km/s) = 5.85765 6.68160 6.28315
#
# Compressibility (1/GPa) = 0.02537207
#
# Stress axis : x y z
#
# Youngs Moduli (GPa) = 86.31846 34.85446 78.44172
#
# Poissons Ratio (x) = 0.13977 0.19106
# Poissons Ratio (y) = 0.34614 0.57892
# Poissons Ratio (z) = 0.21025 0.25723
#
# Static dielectric constant tensor:
#      x y z
#    x 1.759560 0.000000 -0.154500 
#    y 0.000000 1.631420 0.000000 
#    z -0.154500 0.000000 1.706630 
# 
# From -- ./inp_files/48614.got.cif
#   From: 2010.05.17/outbox.cif.g08.bks.cpg/sg15_25_cif.got.tgz:48614.got - 2010.06.03 18:47:42.
