data_PCOD9270235
_publ_section_title
;
Structure prediction by ZEFSAII (Michael W. Deem and Ramdas Pophale) SiO2 
 PCOD9270235
Probable space group: C 2/C
;
_chemical_formula_sum "Si O2"
_cell_formula_units_Z 48
_cell_length_a 9.626908
_cell_length_b 16.389542
_cell_length_c 20.706098
_cell_angle_alpha 90.000000
_cell_angle_beta 38.065037
_cell_angle_gamma 90.000000
_cell_volume 2014.299851
_symmetry_space_group_name_H-M "C 2/C"
_symmetry_group_IT_number 15
_symmetry_cell_setting 'monoclinic'
loop_
_space_group_symop_operation_xyz
x,y,z
-x,y,1/2-z
-x,-y,-z
x,-y,1/2+z
1/2+x,1/2+y,z
1/2-x,1/2+y,1/2-z
1/2-x,1/2-y,-z
1/2+x,1/2-y,1/2+z
loop_
_atom_site_type_symbol
_atom_site_label
_atom_site_fract_x
_atom_site_fract_y
_atom_site_fract_z
Si Si1 0.280421 0.612310 0.117645
Si Si2 0.062463 0.977460 0.060270
Si Si3 0.401691 0.120749 0.948091
Si Si4 0.777911 0.148400 0.909274
Si Si5 0.501826 0.716278 0.144506
Si Si6 0.536617 0.807310 0.854464
O O1 0.342834 0.533272 0.136514
O O2 0.382304 0.689554 0.119058
O O3 0.041366 0.627368 0.171249
O O4 0.432585 0.590004 0.998271
O O5 0.283403 0.036288 0.971737
O O6 0.087474 0.930592 0.117146
O O7 0.640078 0.122834 0.896689
O O8 0.219211 0.159688 0.064705
O O9 0.424898 0.189886 0.884642
O O10 0.595996 0.171752 0.032027
O O11 0.947647 0.224233 0.853286
O O12 0.301856 0.698298 0.266634
#
# Coordination Sequence:
#
# PCOD9270235 Si02
#       6
#     8   8   8   8   8   8
#     4   9  17  34  58  79 107 144 187 230 270 339
#     4   9  19  34  56  86 115 143 182 234 290 337
#     4  10  20  35  57  83 115 150 186 236 286 338
#     4  10  20  35  57  83 115 150 186 236 286 338
#     4  10  20  35  57  82 110 151 195 233 279 337
#     4  10  20  35  57  82 110 151 195 233 279 337
#
# _framework density 23.829619999999998
#
# number of rings (size 3 to 8) (size 9 to 14) (size 15 to 20)
#    0.000    2.333    1.667    1.000    0.000    0.667 
#    0.000    8.333    0.000    8.000    0.000    0.000 
#    0.000    0.000    0.000    0.000    0.000    0.000 
#
# Total GULP energy -133885.067808 kJ/mol
# GULP energy per Si atom -5578.544492 kJ/mol
# Density = 2.377538 g / cm^3
# Si number density = 23.829620 Si / 1000 Ang^3
#
#
#
# Elastic Constant Matrix: (Units=GPa)
#
#
# Indices 1 2 3 4 5 6 
#
# 1 62.3851 11.8457 -5.5186 -0.0002 -20.9401 -0.0008
# 2 11.8457 67.8886 8.9537 0.0024 -5.2937 -0.0009
# 3 -5.5186 8.9537 75.3274 0.0034 -14.1250 -0.0025
# 4 -0.0002 0.0024 0.0034 21.1854 -0.0018 -8.0693
# 5 -20.9401 -5.2937 -14.1250 -0.0018 29.0599 -0.0008
# 6 -0.0008 -0.0009 -0.0025 -8.0693 -0.0008 22.2737
#
#
#
# Elastic Compliance Matrix: (Units=1/GPa)
#
#
# Indices 1 2 3 4 5 6 
#
# 1 0.023619 -0.003381 0.005731 0.000003 0.019189 0.000003
# 2 -0.003381 0.015560 -0.002225 -0.000002 -0.000683 0.000000
# 3 0.005731 -0.002225 0.016128 0.000000 0.011563 0.000002
# 4 0.000003 -0.000002 0.000000 0.054758 0.000005 0.019838
# 5 0.019189 -0.000683 0.011563 0.000005 0.053735 0.000006
# 6 0.000003 0.000000 0.000002 0.019838 0.000006 0.052083
#
#
# Mechanical properties :
#
#
# Convention : Reuss Voigt Hill
#
# Bulk Modulus (GPa) = 17.99974 26.24030 22.12002
# Shear Modulus (GPa) = 21.35349 27.19183 24.27266
#
# Velocity S-wave (km/s) = 2.99672 3.38167 3.19500
# Velocity P-wave (km/s) = 4.42083 5.12671 4.78680
#
# Compressibility (1/GPa) = 0.05555635
#
# Stress axis : x y z
#
# Youngs Moduli (GPa) = 42.33813 64.26684 62.00397
#
# Poissons Ratio (x) = 0.21727 -0.35532
# Poissons Ratio (y) = 0.14313 0.13798
# Poissons Ratio (z) = -0.24262 0.14302
#
# Static dielectric constant tensor:
#      x y z
#    x 1.960960 0.000000 0.035450 
#    y 0.000000 1.900390 0.000000 
#    z 0.035450 0.000000 1.976290 
# 
# From -- ./inp_files/144687.got.cif
#   From: 2010.05.17/outbox.cif.g08.bks.cpg/sg15_73_cif.got.tgz:144687.got - 2010.06.03 18:47:42.
