data_PCOD9270242
_publ_section_title
;
Structure prediction by ZEFSAII (Michael W. Deem and Ramdas Pophale) SiO2 
 PCOD9270242
Probable space group: C 2/C
;
_chemical_formula_sum "Si O2"
_cell_formula_units_Z 56
_cell_length_a 10.574658
_cell_length_b 27.642533
_cell_length_c 8.205939
_cell_angle_alpha 90.000000
_cell_angle_beta 86.562839
_cell_angle_gamma 90.000000
_cell_volume 2394.365900
_symmetry_space_group_name_H-M "C 2/C"
_symmetry_group_IT_number 15
_symmetry_cell_setting 'monoclinic'
loop_
_space_group_symop_operation_xyz
x,y,z
-x,y,1/2-z
-x,-y,-z
x,-y,1/2+z
1/2+x,1/2+y,z
1/2-x,1/2+y,1/2-z
1/2-x,1/2-y,-z
1/2+x,1/2-y,1/2+z
loop_
_atom_site_type_symbol
_atom_site_label
_atom_site_fract_x
_atom_site_fract_y
_atom_site_fract_z
Si Si1 0.481912 0.574287 0.443345
Si Si2 0.126997 0.631779 0.631075
Si Si3 0.977988 0.716255 0.058551
Si Si4 0.279076 0.962410 0.549254
Si Si5 0.504930 0.322083 0.444955
Si Si6 0.720627 0.836208 0.444884
Si Si7 0.269062 0.937557 0.931219
O O1 0.500000 0.567188 0.250000
O O2 0.366598 0.540563 0.506779
O O3 0.440734 0.629620 0.478813
O O4 0.622302 0.567369 0.503917
O O5 0.111633 0.673814 0.499040
O O6 0.149612 0.579846 0.551128
O O7 0.230910 0.647924 0.755543
O O8 0.000000 0.630542 0.750000
O O9 0.000000 0.714430 0.250000
O O10 0.935876 0.770410 0.016327
O O11 0.115136 0.704574 0.970042
O O12 0.275722 0.949348 0.739735
O O13 0.327574 0.016557 0.518152
O O14 0.500000 0.326680 0.250000
O O15 0.355712 0.321248 0.504919
O O16 0.673569 0.885015 0.539359
#
# Coordination Sequence:
#
# PCOD9270242 Si02
#       7
#     8   8   8   8   8   8   8
#     4   9  20  35  55  84 115 143 179 223 272 328
#     4  10  22  38  57  80 110 147 188 228 268 322
#     4  10  21  38  56  80 111 145 183 227 272 320
#     4  11  20  37  56  81 113 147 180 226 275 323
#     4  10  20  35  57  83 110 143 181 224 274 328
#     4  10  20  38  57  80 109 144 183 227 272 321
#     4  10  21  35  58  84 110 143 182 223 275 330
#
# _framework density 23.388237
#
# number of rings (size 3 to 8) (size 9 to 14) (size 15 to 20)
#    0.000    2.000    0.000    3.429    0.000    2.857 
#    0.000   15.714    0.000    0.000    0.000    0.000 
#    0.000    0.000    0.000    0.000    0.000    0.000 
#
# Total GULP energy -156526.753503 kJ/mol
# GULP energy per Si atom -5590.241197 kJ/mol
# Density = 2.333500 g / cm^3
# Si number density = 23.388237 Si / 1000 Ang^3
#
#
#
# Elastic Constant Matrix: (Units=GPa)
#
#
# Indices 1 2 3 4 5 6 
#
# 1 26.1899 2.3854 -2.6010 0.0000 -0.6291 0.0000
# 2 2.3854 145.8540 18.9386 0.0000 -1.9985 0.0000
# 3 -2.6010 18.9386 54.1328 0.0000 -1.5910 0.0000
# 4 0.0000 0.0000 0.0000 23.4155 0.0000 5.4283
# 5 -0.6291 -1.9985 -1.5910 0.0000 22.5711 0.0000
# 6 0.0000 0.0000 0.0000 5.4283 0.0000 29.8604
#
#
#
# Elastic Compliance Matrix: (Units=1/GPa)
#
#
# Indices 1 2 3 4 5 6 
#
# 1 0.038510 -0.000900 0.002199 0.000000 0.001149 0.000000
# 2 -0.000900 0.007208 -0.002552 0.000000 0.000433 0.000000
# 3 0.002199 -0.002552 0.019507 0.000000 0.001210 0.000000
# 4 0.000000 0.000000 0.000000 0.044586 0.000000 -0.008105
# 5 0.001149 0.000433 0.001210 0.000000 0.044460 0.000000
# 6 0.000000 0.000000 0.000000 -0.008105 0.000000 0.034963
#
#
# Mechanical properties :
#
#
# Convention : Reuss Voigt Hill
#
# Bulk Modulus (GPa) = 15.94392 29.29141 22.61766
# Shear Modulus (GPa) = 23.51312 28.99965 26.25638
#
# Velocity S-wave (km/s) = 3.17415 3.52508 3.35421
# Velocity P-wave (km/s) = 4.50172 5.39624 4.96915
#
# Compressibility (1/GPa) = 0.06271984
#
# Stress axis : x y z
#
# Youngs Moduli (GPa) = 25.96695 138.73040 51.26303
#
# Poissons Ratio (x) = 0.12480 -0.11272
# Poissons Ratio (y) = 0.02336 0.13084
# Poissons Ratio (z) = -0.05710 0.35408
#
# Static dielectric constant tensor:
#      x y z
#    x 1.965920 0.000000 -0.006260 
#    y 0.000000 1.857210 0.000000 
#    z -0.006260 0.000000 1.843320 
# 
# From -- ./inp_files/34196.got.cif
#   From: 2010.05.17/outbox.cif.g08.bks.cpg/sg15_18_cif.got.tgz:34196.got - 2010.06.03 18:47:42.
