data_PCOD9270592
_publ_section_title
;
Structure prediction by ZEFSAII (Michael W. Deem and Ramdas Pophale) SiO2 
 PCOD9270592
Probable space group: C 2/C
;
_chemical_formula_sum "Si O2"
_cell_formula_units_Z 44
_cell_length_a 14.363092
_cell_length_b 17.734134
_cell_length_c 8.857527
_cell_angle_alpha 90.000000
_cell_angle_beta 50.021239
_cell_angle_gamma 90.000000
_cell_volume 1728.858359
_symmetry_space_group_name_H-M "C 2/C"
_symmetry_group_IT_number 15
_symmetry_cell_setting 'monoclinic'
loop_
_space_group_symop_operation_xyz
x,y,z
-x,y,1/2-z
-x,-y,-z
x,-y,1/2+z
1/2+x,1/2+y,z
1/2-x,1/2+y,1/2-z
1/2-x,1/2-y,-z
1/2+x,1/2-y,1/2+z
loop_
_atom_site_type_symbol
_atom_site_label
_atom_site_fract_x
_atom_site_fract_y
_atom_site_fract_z
Si Si1 0.803046 0.109296 0.687619
Si Si2 0.639489 0.035220 0.608542
Si Si3 0.000000 0.066354 0.750000
Si Si4 0.135614 0.353018 0.595902
Si Si5 0.697859 0.389729 0.821572
Si Si6 0.879099 0.788470 0.845879
O O1 0.707265 0.057316 0.692963
O O2 0.895918 0.084610 0.724385
O O3 0.878203 0.147160 0.475250
O O4 0.711532 0.166837 0.869015
O O5 0.500000 0.062123 0.750000
O O6 0.719513 0.069862 0.390201
O O7 0.631667 0.945059 0.597664
O O8 0.107952 0.055944 0.510515
O O9 0.215209 0.341664 0.660413
O O10 0.000000 0.322250 0.750000
O O11 0.618387 0.328974 0.816488
O O12 0.000000 0.740699 0.750000
O O13 0.750000 0.750000 0.000000
#
# Coordination Sequence:
#
# PCOD9270592 Si02
#       6
#     8   8   4   8   8   8
#     4  10  21  38  63  87 126 165 201 254 313 365
#     4  10  20  35  60  94 129 169 215 259 295 354
#     4  10  20  40  62  80 124 174 190 246 316 354
#     4  10  20  36  60  92 130 166 206 257 306 360
#     4  10  21  38  63  87 126 165 201 254 313 365
#     4  11  24  44  70  90 120 155 211 268 322 388
#
# _framework density 25.450322
#
# number of rings (size 3 to 8) (size 9 to 14) (size 15 to 20)
#    0.000    1.818    1.818    2.182    0.000    7.273 
#    0.000   18.182    8.000    0.000    0.000    0.000 
#    0.000    0.000    0.000    0.000    0.000    0.000 
#
# Total GULP energy -122510.451656 kJ/mol
# GULP energy per Si atom -5568.656893 kJ/mol
# Density = 2.539240 g / cm^3
# Si number density = 25.450322 Si / 1000 Ang^3
#
#
#
# Elastic Constant Matrix: (Units=GPa)
#
#
# Indices 1 2 3 4 5 6 
#
# 1 185.4337 20.1337 88.6359 0.0000 -27.7837 0.0000
# 2 20.1337 47.4290 1.0432 0.0000 2.4326 0.0000
# 3 88.6359 1.0432 140.9027 0.0000 -4.8635 0.0000
# 4 0.0000 0.0000 0.0000 -7.2324 0.0000 -19.1376
# 5 -27.7837 2.4326 -4.8635 0.0000 70.7839 0.0000
# 6 0.0000 0.0000 0.0000 -19.1376 0.0000 2.4797
#
#
#
# Elastic Compliance Matrix: (Units=1/GPa)
#
#
# Indices 1 2 3 4 5 6 
#
# 1 0.008906 -0.003827 -0.005462 0.000000 0.003252 0.000000
# 2 -0.003827 0.022771 0.002165 0.000000 -0.002136 0.000000
# 3 -0.005462 0.002165 0.010465 0.000000 -0.001499 0.000000
# 4 0.000000 0.000000 0.000000 -0.006455 0.000000 -0.049814
# 5 0.003252 -0.002136 -0.001499 0.000000 0.015374 0.000000
# 6 0.000000 0.000000 0.000000 -0.049814 0.000000 0.018825
#
#
# Mechanical properties :
#
#
# Convention : Reuss Voigt Hill
#
# Bulk Modulus (GPa) = 35.84969 65.93232 50.89100
# Shear Modulus (GPa) = 53.51367 30.80311 42.15839
#
# Velocity S-wave (km/s) = 4.59046 3.48274 4.07442
# Velocity P-wave (km/s) = 6.49717 6.49116 6.49417
#
# Compressibility (1/GPa) = 0.02789425
#
# Stress axis : x y z
#
# Youngs Moduli (GPa) = 112.27843 43.91580 95.55424
#
# Poissons Ratio (x) = 0.16809 0.52192
# Poissons Ratio (y) = 0.42974 -0.20691
# Poissons Ratio (z) = 0.61327 -0.09509
#
# Static dielectric constant tensor:
#      x y z
#    x 2.101550 0.000000 -0.051730 
#    y 0.000000 2.109910 0.000000 
#    z -0.051730 0.000000 2.024420 
# 
# From -- ./inp_files/42025.got.cif
#   From: 2010.05.17/outbox.cif.g08.bks.cpg/sg15_22_cif.got.tgz:42025.got - 2010.06.03 18:47:42.
