data_PCOD9270237
_publ_section_title
;
Structure prediction by ZEFSAII (Michael W. Deem and Ramdas Pophale) SiO2 
 PCOD9270237
Probable space group: C 2/C
;
_chemical_formula_sum "Si O2"
_cell_formula_units_Z 40
_cell_length_a 14.111245
_cell_length_b 8.677196
_cell_length_c 16.754413
_cell_angle_alpha 90.000000
_cell_angle_beta 100.722297
_cell_angle_gamma 90.000000
_cell_volume 2015.693073
_symmetry_space_group_name_H-M "C 2/C"
_symmetry_group_IT_number 15
_symmetry_cell_setting 'monoclinic'
loop_
_space_group_symop_operation_xyz
x,y,z
-x,y,1/2-z
-x,-y,-z
x,-y,1/2+z
1/2+x,1/2+y,z
1/2-x,1/2+y,1/2-z
1/2-x,1/2-y,-z
1/2+x,1/2-y,1/2+z
loop_
_atom_site_type_symbol
_atom_site_label
_atom_site_fract_x
_atom_site_fract_y
_atom_site_fract_z
Si Si1 0.793225 0.883066 0.062266
Si Si2 0.458791 0.120457 0.658736
Si Si3 0.113565 0.321225 0.788964
Si Si4 0.130526 0.409958 0.621381
Si Si5 0.140631 0.815144 0.988032
O O1 0.850183 0.805078 0.144137
O O2 0.710105 0.987278 0.089730
O O3 0.854650 0.001374 0.017760
O O4 0.750000 0.750000 0.000000
O O5 0.500000 0.176506 0.750000
O O6 0.416121 0.250677 0.596948
O O7 0.380519 0.988548 0.667602
O O8 0.542661 0.025004 0.627207
O O9 0.000000 0.298646 0.750000
O O10 0.835293 0.338593 0.788722
O O11 0.099393 0.268874 0.559782
O O12 0.250000 0.750000 0.000000
#
# Coordination Sequence:
#
# PCOD9270237 Si02
#       5
#     8   8   8   8   8
#     4  11  23  37  56  85 117 145 185 239 282 332
#     4   9  19  38  60  82 112 150 189 229 278 338
#     4   9  20  39  58  80 111 146 184 232 279 329
#     4   9  20  37  60  81 110 152 189 229 283 340
#     4  10  20  35  57  82 111 149 186 225 277 337
#
# _framework density 19.844290000000001
#
# number of rings (size 3 to 8) (size 9 to 14) (size 15 to 20)
#    0.000    2.800    0.000    3.000    0.000   10.400 
#    0.000    9.000    0.000    0.000    0.000    0.000 
#    0.000    0.000    0.000    0.000    0.000    0.000 
#
# Total GULP energy -111542.468103 kJ/mol
# GULP energy per Si atom -5577.123405 kJ/mol
# Density = 1.979912 g / cm^3
# Si number density = 19.844290 Si / 1000 Ang^3
#
#
#
# Elastic Constant Matrix: (Units=GPa)
#
#
# Indices 1 2 3 4 5 6 
#
# 1 27.9628 15.6129 30.0377 0.0000 -5.8904 0.0000
# 2 15.6129 121.5238 70.7102 0.0000 14.6838 0.0000
# 3 30.0377 70.7102 93.5793 0.0000 3.3975 0.0000
# 4 0.0000 0.0000 0.0000 47.6217 0.0000 10.2293
# 5 -5.8904 14.6838 3.3975 0.0000 20.5353 0.0000
# 6 0.0000 0.0000 0.0000 10.2293 0.0000 5.3480
#
#
#
# Elastic Compliance Matrix: (Units=1/GPa)
#
#
# Indices 1 2 3 4 5 6 
#
# 1 0.063324 0.003057 -0.023357 0.000000 0.019842 0.000000
# 2 0.003057 0.016568 -0.013181 0.000000 -0.008789 0.000000
# 3 -0.023357 -0.013181 0.028214 0.000000 -0.001942 0.000000
# 4 0.000000 0.000000 0.000000 0.035643 0.000000 -0.068176
# 5 0.019842 -0.008789 -0.001942 0.000000 0.060994 0.000000
# 6 0.000000 0.000000 0.000000 -0.068176 0.000000 0.317389
#
#
# Mechanical properties :
#
#
# Convention : Reuss Voigt Hill
#
# Bulk Modulus (GPa) = 24.30458 52.86527 38.58493
# Shear Modulus (GPa) = 8.29452 23.14800 15.72126
#
# Velocity S-wave (km/s) = 2.04667 3.41908 2.81771
# Velocity P-wave (km/s) = 4.22604 6.50267 5.48380
#
# Compressibility (1/GPa) = 0.04114450
#
# Stress axis : x y z
#
# Youngs Moduli (GPa) = 15.79171 60.35886 35.44388
#
# Poissons Ratio (x) = -0.18453 0.82785
# Poissons Ratio (y) = -0.04828 0.46718
# Poissons Ratio (z) = 0.36884 0.79559
#
# Static dielectric constant tensor:
#      x y z
#    x 1.746330 0.000000 -0.032850 
#    y 0.000000 1.699700 0.000000 
#    z -0.032850 0.000000 1.716170 
# 
# From -- ./inp_files/241802.got.cif
#   From: 2010.05.17/outbox.cif.g08.bks.cpg/sg15_121_cif.got.tgz:241802.got - 2010.06.03 18:47:42.
