data_PCOD9270511
_publ_section_title
;
Structure prediction by ZEFSAII (Michael W. Deem and Ramdas Pophale) SiO2 
 PCOD9270511
Probable space group: C 2/C
;
_chemical_formula_sum "Si O2"
_cell_formula_units_Z 40
_cell_length_a 21.014298
_cell_length_b 18.839043
_cell_length_c 8.074073
_cell_angle_alpha 90.000000
_cell_angle_beta 28.782039
_cell_angle_gamma 90.000000
_cell_volume 1539.017995
_symmetry_space_group_name_H-M "C 2/C"
_symmetry_group_IT_number 15
_symmetry_cell_setting 'monoclinic'
loop_
_space_group_symop_operation_xyz
x,y,z
-x,y,1/2-z
-x,-y,-z
x,-y,1/2+z
1/2+x,1/2+y,z
1/2-x,1/2+y,1/2-z
1/2-x,1/2-y,-z
1/2+x,1/2-y,1/2+z
loop_
_atom_site_type_symbol
_atom_site_label
_atom_site_fract_x
_atom_site_fract_y
_atom_site_fract_z
Si Si1 0.577055 0.804597 0.894604
Si Si2 0.500000 0.744262 0.750000
Si Si3 0.101504 0.877284 0.785318
Si Si4 0.144296 0.589035 0.611558
Si Si5 0.000000 0.525529 0.250000
Si Si6 0.340497 0.643384 0.725774
O O1 0.586960 0.790657 0.672989
O O2 0.610964 0.726073 0.884072
O O3 0.700423 0.857403 0.636145
O O4 0.431451 0.836867 0.264684
O O5 0.582101 0.696223 0.433458
O O6 0.205960 0.913730 0.667893
O O7 0.160179 0.876746 0.465386
O O8 0.949807 0.897815 0.087093
O O9 0.113747 0.526700 0.554918
O O10 0.055449 0.570113 0.973846
#
# Coordination Sequence:
#
# PCOD9270511 Si02
#       6
#     8   4   8   8   4   8
#     4  10  20  35  59  90 129 159 189 240 302 370
#     4  10  21  32  54  96 130 160 199 228 292 396
#     4  10  21  36  58  85 126 162 192 238 297 357
#     4  11  23  43  66  85 114 160 208 264 304 339
#     4  10  25  42  64  90 108 148 229 274 300 342
#     4   9  20  35  56  93 130 159 188 224 299 399
#
# _framework density 25.990597999999999
#
# number of rings (size 3 to 8) (size 9 to 14) (size 15 to 20)
#    0.000    2.000    0.000    3.000    0.000   16.800 
#    0.000    2.000    0.000   30.000    0.000    0.000 
#    0.000    0.000    0.000    0.000    0.000    0.000 
#
# Total GULP energy -111711.969194 kJ/mol
# GULP energy per Si atom -5585.598460 kJ/mol
# Density = 2.593144 g / cm^3
# Si number density = 25.990598 Si / 1000 Ang^3
#
#
#
# Elastic Constant Matrix: (Units=GPa)
#
#
# Indices 1 2 3 4 5 6 
#
# 1 116.2097 18.2496 38.5592 0.0000 -39.1911 0.0000
# 2 18.2496 32.9664 -4.5351 0.0000 -1.9606 0.0000
# 3 38.5592 -4.5351 113.0409 0.0000 -9.8424 0.0000
# 4 0.0000 0.0000 0.0000 24.7779 0.0000 -2.6187
# 5 -39.1911 -1.9606 -9.8424 0.0000 49.4893 0.0000
# 6 0.0000 0.0000 0.0000 -2.6187 0.0000 17.6867
#
#
#
# Elastic Compliance Matrix: (Units=1/GPa)
#
#
# Indices 1 2 3 4 5 6 
#
# 1 0.014999 -0.008292 -0.004522 0.000000 0.010650 0.000000
# 2 -0.008292 0.035193 0.003857 0.000000 -0.004405 0.000000
# 3 -0.004522 0.003857 0.010426 0.000000 -0.001355 0.000000
# 4 0.000000 0.000000 0.000000 0.041000 0.000000 0.006071
# 5 0.010650 -0.004405 -0.001355 0.000000 0.028197 0.000000
# 6 0.000000 0.000000 0.000000 0.006071 0.000000 0.057439
#
#
# Mechanical properties :
#
#
# Convention : Reuss Voigt Hill
#
# Bulk Modulus (GPa) = 23.41714 40.75161 32.08438
# Shear Modulus (GPa) = 22.78923 32.38700 27.58812
#
# Velocity S-wave (km/s) = 2.96434 3.53385 3.26155
# Velocity P-wave (km/s) = 4.55476 5.68895 5.15315
#
# Compressibility (1/GPa) = 0.04270376
#
# Stress axis : x y z
#
# Youngs Moduli (GPa) = 66.66890 28.41493 95.91810
#
# Poissons Ratio (x) = 0.23562 0.43372
# Poissons Ratio (y) = 0.55282 -0.36994
# Poissons Ratio (z) = 0.30146 -0.10959
#
# Static dielectric constant tensor:
#      x y z
#    x 2.112890 0.000000 -0.049900 
#    y 0.000000 2.022410 0.000000 
#    z -0.049900 0.000000 2.087850 
# 
# From -- ./inp_files/58562.got.cif
#   From: 2010.05.17/outbox.cif.g08.bks.cpg/sg15_30_cif.got.tgz:58562.got - 2010.06.03 18:47:42.
