data_PCOD9270812
_publ_section_title
;
Structure prediction by ZEFSAII (Michael W. Deem and Ramdas Pophale) SiO2 
 PCOD9270812
Probable space group: C 2/C
;
_chemical_formula_sum "Si O2"
_cell_formula_units_Z 44
_cell_length_a 18.905559
_cell_length_b 15.069170
_cell_length_c 9.733776
_cell_angle_alpha 90.000000
_cell_angle_beta 51.730555
_cell_angle_gamma 90.000000
_cell_volume 2177.152898
_symmetry_space_group_name_H-M "C 2/C"
_symmetry_group_IT_number 15
_symmetry_cell_setting 'monoclinic'
loop_
_space_group_symop_operation_xyz
x,y,z
-x,y,1/2-z
-x,-y,-z
x,-y,1/2+z
1/2+x,1/2+y,z
1/2-x,1/2+y,1/2-z
1/2-x,1/2-y,-z
1/2+x,1/2-y,1/2+z
loop_
_atom_site_type_symbol
_atom_site_label
_atom_site_fract_x
_atom_site_fract_y
_atom_site_fract_z
Si Si1 0.311611 0.676421 0.350050
Si Si2 0.399133 0.951889 0.021459
Si Si3 0.551590 0.855883 0.959737
Si Si4 0.254879 0.321478 0.617320
Si Si5 0.222601 0.497479 0.072243
Si Si6 0.500000 0.715998 0.250000
O O1 0.250000 0.750000 0.500000
O O2 0.309104 0.701968 0.191517
O O3 0.264940 0.581420 0.432863
O O4 0.409847 0.669422 0.301977
O O5 0.329655 0.955535 0.234111
O O6 0.445995 0.048548 0.967844
O O7 0.471131 0.873948 0.950277
O O8 0.346881 0.951924 0.943096
O O9 0.651316 0.835701 0.788428
O O10 0.527935 0.779175 0.091988
O O11 0.250000 0.250000 0.500000
O O12 0.287044 0.421154 0.537536
#
# Coordination Sequence:
#
# PCOD9270812 Si02
#       6
#     8   8   8   8   8   4
#     4  12  24  46  69  99 136 184 229 277 341 408
#     4  10  20  35  67  96 138 164 216 282 350 403
#     4  10  20  38  61 104 128 169 222 275 347 395
#     4  11  26  43  66  99 139 181 223 282 349 400
#     4  11  22  42  65  99 135 180 219 278 343 400
#     4  12  24  40  72  96 134 178 240 270 332 414
#
# _framework density 20.209880999999999
#
# number of rings (size 3 to 8) (size 9 to 14) (size 15 to 20)
#    0.000    1.091    5.455    2.182    5.091    5.818 
#    0.000    0.909    0.000    0.000    0.000    0.000 
#    0.000    0.000    0.000    0.000    0.000    0.000 
#
# Total GULP energy -122778.888803 kJ/mol
# GULP energy per Si atom -5580.858582 kJ/mol
# Density = 2.016388 g / cm^3
# Si number density = 20.209881 Si / 1000 Ang^3
#
#
#
# Elastic Constant Matrix: (Units=GPa)
#
#
# Indices 1 2 3 4 5 6 
#
# 1 124.5691 25.7754 18.3705 0.0000 9.2910 0.0000
# 2 25.7754 62.1818 18.7213 0.0000 2.3505 0.0000
# 3 18.3705 18.7213 52.3454 0.0000 8.7537 0.0000
# 4 0.0000 0.0000 0.0000 30.4986 0.0000 2.1491
# 5 9.2910 2.3505 8.7537 0.0000 31.0154 0.0000
# 6 0.0000 0.0000 0.0000 2.1491 0.0000 32.9729
#
#
#
# Elastic Compliance Matrix: (Units=1/GPa)
#
#
# Indices 1 2 3 4 5 6 
#
# 1 0.009087 -0.003173 -0.001720 0.000000 -0.001996 0.000000
# 2 -0.003173 0.019137 -0.005927 0.000000 0.001173 0.000000
# 3 -0.001720 -0.005927 0.022739 0.000000 -0.005453 0.000000
# 4 0.000000 0.000000 0.000000 0.032940 0.000000 -0.002147
# 5 -0.001996 0.001173 -0.005453 0.000000 0.034290 0.000000
# 6 0.000000 0.000000 0.000000 -0.002147 0.000000 0.030468
#
#
# Mechanical properties :
#
#
# Convention : Reuss Voigt Hill
#
# Bulk Modulus (GPa) = 34.10352 40.53673 37.32013
# Shear Modulus (GPa) = 27.76597 30.64600 29.20598
#
# Velocity S-wave (km/s) = 3.71061 3.89831 3.80562
# Velocity P-wave (km/s) = 5.93881 6.35325 6.14952
#
# Compressibility (1/GPa) = 0.02932249
#
# Stress axis : x y z
#
# Youngs Moduli (GPa) = 110.04924 52.25384 43.97658
#
# Poissons Ratio (x) = 0.16581 0.07565
# Poissons Ratio (y) = 0.34921 0.26065
# Poissons Ratio (z) = 0.18932 0.30971
#
# Static dielectric constant tensor:
#      x y z
#    x 1.776150 0.000000 -0.009330 
#    y 0.000000 1.753820 0.000000 
#    z -0.009330 0.000000 1.747720 
# 
# From -- ./inp_files/39749.got.cif
#   From: 2010.05.17/outbox.cif.g08.bks.cpg/sg15_20_cif.got.tgz:39749.got - 2010.06.03 18:47:42.
