data_PCOD9270277
_publ_section_title
;
Structure prediction by ZEFSAII (Michael W. Deem and Ramdas Pophale) SiO2 
 PCOD9270277
Probable space group: C 2/C
;
_chemical_formula_sum "Si O2"
_cell_formula_units_Z 44
_cell_length_a 7.380393
_cell_length_b 17.940553
_cell_length_c 13.979313
_cell_angle_alpha 90.000000
_cell_angle_beta 81.063717
_cell_angle_gamma 90.000000
_cell_volume 1828.509786
_symmetry_space_group_name_H-M "C 2/C"
_symmetry_group_IT_number 15
_symmetry_cell_setting 'monoclinic'
loop_
_space_group_symop_operation_xyz
x,y,z
-x,y,1/2-z
-x,-y,-z
x,-y,1/2+z
1/2+x,1/2+y,z
1/2-x,1/2+y,1/2-z
1/2-x,1/2-y,-z
1/2+x,1/2-y,1/2+z
loop_
_atom_site_type_symbol
_atom_site_label
_atom_site_fract_x
_atom_site_fract_y
_atom_site_fract_z
Si Si1 0.479520 0.469860 0.893518
Si Si2 0.315224 0.761876 0.606753
Si Si3 0.000000 0.158036 0.250000
Si Si4 0.545090 0.073686 0.873032
Si Si5 0.685326 0.614502 0.810586
Si Si6 0.550494 0.080190 0.411266
O O1 0.570719 0.399137 0.828766
O O2 0.562520 0.542458 0.835642
O O3 0.266238 0.443856 0.904902
O O4 0.500000 0.500000 0.000000
O O5 0.250000 0.750000 0.500000
O O6 0.143672 0.788176 0.685809
O O7 0.408713 0.690407 0.648649
O O8 0.447686 0.833078 0.608740
O O9 0.359040 0.116995 0.868377
O O10 0.709654 0.106529 0.798674
O O11 0.489832 0.988466 0.851198
O O12 0.571443 0.073857 0.983465
#
# Coordination Sequence:
#
# PCOD9270277 Si02
#       6
#     8   8   4   8   8   8
#     4  11  20  38  58  91 113 159 196 249 284 366
#     4  11  20  35  55  89 115 155 190 253 289 355
#     4  10  22  36  60  86 122 152 202 240 302 348
#     4  10  20  35  57  86 111 155 187 246 280 357
#     4  11  20  34  60  85 115 142 201 236 296 335
#     4  10  21  38  59  82 118 148 198 232 301 338
#
# _framework density 24.063310000000001
#
# number of rings (size 3 to 8) (size 9 to 14) (size 15 to 20)
#    0.000    1.455    3.636    4.364    0.000    0.000 
#    0.000    0.000    0.000   21.818    0.000    0.000 
#    0.000    0.000    0.000    0.000    0.000    0.000 
#
# Total GULP energy -122514.094344 kJ/mol
# GULP energy per Si atom -5568.822470 kJ/mol
# Density = 2.400854 g / cm^3
# Si number density = 24.063310 Si / 1000 Ang^3
#
#
#
# Elastic Constant Matrix: (Units=GPa)
#
#
# Indices 1 2 3 4 5 6 
#
# 1 28.8380 11.6555 6.5008 0.0000 -4.7023 0.0000
# 2 11.6555 161.1333 36.1111 0.0000 -21.3763 0.0000
# 3 6.5008 36.1111 164.9386 0.0000 -25.3246 0.0000
# 4 0.0000 0.0000 0.0000 46.7231 0.0000 -14.1803
# 5 -4.7023 -21.3763 -25.3246 0.0000 25.4184 0.0000
# 6 0.0000 0.0000 0.0000 -14.1803 0.0000 24.1395
#
#
#
# Elastic Compliance Matrix: (Units=1/GPa)
#
#
# Indices 1 2 3 4 5 6 
#
# 1 0.036303 -0.001925 -0.000268 0.000000 0.004830 0.000000
# 2 -0.001925 0.007165 -0.000735 0.000000 0.004937 0.000000
# 3 -0.000268 -0.000735 0.007239 0.000000 0.006545 0.000000
# 4 0.000000 0.000000 0.000000 0.026046 0.000000 0.015300
# 5 0.004830 0.004937 0.006545 0.000000 0.050908 0.000000
# 6 0.000000 0.000000 0.000000 0.015300 0.000000 0.050414
#
#
# Mechanical properties :
#
#
# Convention : Reuss Voigt Hill
#
# Bulk Modulus (GPa) = 22.29576 51.49386 36.89481
# Shear Modulus (GPa) = 25.14070 39.29903 32.21987
#
# Velocity S-wave (km/s) = 3.23580 4.04561 3.66315
# Velocity P-wave (km/s) = 4.82142 6.57787 5.76691
#
# Compressibility (1/GPa) = 0.04485158
#
# Stress axis : x y z
#
# Youngs Moduli (GPa) = 27.54629 139.56810 138.13680
#
# Poissons Ratio (x) = 0.26869 0.03698
# Poissons Ratio (y) = 0.05303 0.10149
# Poissons Ratio (z) = 0.00737 0.10254
#
# Static dielectric constant tensor:
#      x y z
#    x 2.003680 0.000000 0.057020 
#    y 0.000000 2.024650 0.000000 
#    z 0.057020 0.000000 2.188890 
# 
# From -- ./inp_files/134380.got.cif
#   From: 2010.05.17/outbox.cif.g08.bks.cpg/sg15_68_cif.got.tgz:134380.got - 2010.06.03 18:47:42.
