data_PCOD9270678
_publ_section_title
;
Structure prediction by ZEFSAII (Michael W. Deem and Ramdas Pophale) SiO2 
 PCOD9270678
Probable space group: C 2/C
;
_chemical_formula_sum "Si O2"
_cell_formula_units_Z 64
_cell_length_a 7.712779
_cell_length_b 13.469051
_cell_length_c 24.027445
_cell_angle_alpha 90.000000
_cell_angle_beta 78.227752
_cell_angle_gamma 90.000000
_cell_volume 2443.561249
_symmetry_space_group_name_H-M "C 2/C"
_symmetry_group_IT_number 15
_symmetry_cell_setting 'monoclinic'
loop_
_space_group_symop_operation_xyz
x,y,z
-x,y,1/2-z
-x,-y,-z
x,-y,1/2+z
1/2+x,1/2+y,z
1/2-x,1/2+y,1/2-z
1/2-x,1/2-y,-z
1/2+x,1/2-y,1/2+z
loop_
_atom_site_type_symbol
_atom_site_label
_atom_site_fract_x
_atom_site_fract_y
_atom_site_fract_z
Si Si1 0.756524 0.728420 0.222799
Si Si2 0.521502 0.826242 0.488004
Si Si3 0.929690 0.145703 0.093614
Si Si4 0.072233 0.953333 0.798821
Si Si5 0.067994 0.835798 0.066989
Si Si6 0.892413 0.586009 0.813773
Si Si7 0.720407 0.959489 0.063276
Si Si8 0.372500 0.731065 0.826786
O O1 0.664897 0.635645 0.256873
O O2 0.648485 0.795788 0.187427
O O3 0.797880 0.800328 0.272593
O O4 0.952399 0.701874 0.190303
O O5 0.479129 0.729859 0.450628
O O6 0.727746 0.854935 0.463355
O O7 0.524430 0.776578 0.548982
O O8 0.385905 0.914694 0.482762
O O9 0.028422 0.092063 0.139878
O O10 0.815807 0.066713 0.064572
O O11 0.780768 0.208022 0.134866
O O12 0.221056 0.019041 0.816594
O O13 0.000000 0.011588 0.750000
O O14 0.071807 0.850844 0.133121
O O15 0.899754 0.895181 0.056719
O O16 0.922948 0.560862 0.876939
O O17 0.000000 0.563813 0.750000
#
# Coordination Sequence:
#
# PCOD9270678 Si02
#       8
#     8   8   8   8   8   8   8   8
#     4  10  20  35  62  82 120 166 198 245 313 379
#     4  10  23  43  68  89 128 168 211 273 327 369
#     4   9  22  40  59  93 127 161 214 265 312 398
#     4  10  23  37  55  87 127 154 205 254 304 381
#     4  10  21  42  65  96 122 163 221 266 317 390
#     4  11  25  37  58  91 122 161 209 248 307 386
#     4  11  23  42  65  91 131 165 211 266 321 379
#     4   9  19  36  60  85 122 158 198 254 315 363
#
# _framework density 26.191279999999999
#
# number of rings (size 3 to 8) (size 9 to 14) (size 15 to 20)
#    0.000    2.000    1.250    0.750   14.000    0.500 
#    0.000    8.125    0.000    0.000    0.000    0.000 
#    0.000    0.000    0.000    0.000    0.000    0.000 
#
# Total GULP energy -178364.939340 kJ/mol
# GULP energy per Si atom -5573.904354 kJ/mol
# Density = 2.613167 g / cm^3
# Si number density = 26.191280 Si / 1000 Ang^3
#
#
#
# Elastic Constant Matrix: (Units=GPa)
#
#
# Indices 1 2 3 4 5 6 
#
# 1 58.4099 7.3166 -5.7516 0.0000 15.7258 0.0000
# 2 7.3166 84.7083 -6.6612 0.0000 8.5196 0.0000
# 3 -5.7516 -6.6612 66.3228 0.0000 9.7885 0.0000
# 4 0.0000 0.0000 0.0000 19.5484 0.0000 7.8170
# 5 15.7258 8.5196 9.7885 0.0000 38.8830 0.0000
# 6 0.0000 0.0000 0.0000 7.8170 0.0000 32.3909
#
#
#
# Elastic Compliance Matrix: (Units=1/GPa)
#
#
# Indices 1 2 3 4 5 6 
#
# 1 0.019804 -0.000614 0.002927 0.000000 -0.008612 0.000000
# 2 -0.000614 0.012270 0.001599 0.000000 -0.002842 0.000000
# 3 0.002927 0.001599 0.016325 0.000000 -0.005644 0.000000
# 4 0.000000 0.000000 0.000000 0.056619 0.000000 -0.013664
# 5 -0.008612 -0.002842 -0.005644 0.000000 0.031245 0.000000
# 6 0.000000 0.000000 0.000000 -0.013664 0.000000 0.034170
#
#
# Mechanical properties :
#
#
# Convention : Reuss Voigt Hill
#
# Bulk Modulus (GPa) = 17.78693 22.13874 19.96284
# Shear Modulus (GPa) = 27.57078 32.46696 30.01887
#
# Velocity S-wave (km/s) = 3.24801 3.52463 3.38914
# Velocity P-wave (km/s) = 4.56859 5.00351 4.79098
#
# Compressibility (1/GPa) = 0.05622105
#
# Stress axis : x y z
#
# Youngs Moduli (GPa) = 50.49468 81.50056 61.25548
#
# Poissons Ratio (x) = 0.05006 -0.17928
# Poissons Ratio (y) = 0.03102 -0.09792
# Poissons Ratio (z) = -0.14778 -0.13028
#
# Static dielectric constant tensor:
#      x y z
#    x 2.140450 0.000000 0.063990 
#    y 0.000000 2.123860 0.000000 
#    z 0.063990 0.000000 2.278850 
# 
# From -- ./inp_files/264693.got.cif
#   From: 2010.05.17/outbox.cif.g08.bks.cpg/sg15_133_cif.got.tgz:264693.got - 2010.06.03 18:47:42.
