data_PCOD9270250
_publ_section_title
;
Structure prediction by ZEFSAII (Michael W. Deem and Ramdas Pophale) SiO2 
 PCOD9270250
Probable space group: C 2/C
;
_chemical_formula_sum "Si O2"
_cell_formula_units_Z 48
_cell_length_a 16.395620
_cell_length_b 7.771003
_cell_length_c 30.099060
_cell_angle_alpha 90.000000
_cell_angle_beta 31.064151
_cell_angle_gamma 90.000000
_cell_volume 1978.816080
_symmetry_space_group_name_H-M "C 2/C"
_symmetry_group_IT_number 15
_symmetry_cell_setting 'monoclinic'
loop_
_space_group_symop_operation_xyz
x,y,z
-x,y,1/2-z
-x,-y,-z
x,-y,1/2+z
1/2+x,1/2+y,z
1/2-x,1/2+y,1/2-z
1/2-x,1/2-y,-z
1/2+x,1/2-y,1/2+z
loop_
_atom_site_type_symbol
_atom_site_label
_atom_site_fract_x
_atom_site_fract_y
_atom_site_fract_z
Si Si1 0.181271 0.439778 0.977407
Si Si2 0.312524 0.456842 0.580520
Si Si3 0.095244 0.950503 0.550641
Si Si4 0.263254 0.680412 0.192884
Si Si5 0.317606 0.683030 0.328334
Si Si6 0.873822 0.561217 0.161336
O O1 0.339327 0.478572 0.931056
O O2 0.211677 0.431686 0.911080
O O3 0.135118 0.244963 0.015129
O O4 0.041296 0.562177 0.058572
O O5 0.500000 0.500000 0.500000
O O6 0.312088 0.431030 0.528005
O O7 0.255313 0.318947 0.643234
O O8 0.211533 0.623766 0.640939
O O9 0.906426 0.953883 0.636473
O O10 0.120228 0.620044 0.290474
O O11 0.315108 0.865619 0.185576
O O12 0.500000 0.638233 0.250000
O O13 0.253113 0.665360 0.308760
#
# Coordination Sequence:
#
# PCOD9270250 Si02
#       6
#     8   8   8   8   8   8
#     4   9  18  33  56  84 112 149 194 240 288 346
#     4   9  19  36  60  87 115 151 196 247 300 359
#     4   8  16  33  55  80 109 143 190 238 287 349
#     4  10  20  35  57  83 115 154 196 246 298 353
#     4  11  22  38  62  87 117 160 204 245 296 359
#     4  11  22  37  58  86 121 159 201 249 301 353
#
# _framework density 24.256929
#
# number of rings (size 3 to 8) (size 9 to 14) (size 15 to 20)
#    0.000    2.333    0.000    3.500    0.000    5.333 
#    0.000    2.500    0.000   13.000    0.000    0.000 
#    0.000    0.000    0.000    0.000    0.000    0.000 
#
# Total GULP energy -134104.806832 kJ/mol
# GULP energy per Si atom -5587.700285 kJ/mol
# Density = 2.420172 g / cm^3
# Si number density = 24.256929 Si / 1000 Ang^3
#
#
#
# Elastic Constant Matrix: (Units=GPa)
#
#
# Indices 1 2 3 4 5 6 
#
# 1 44.7807 2.2903 -2.8399 -0.0005 9.1106 0.0062
# 2 2.2903 58.9931 28.0489 -0.0030 13.6832 0.0045
# 3 -2.8399 28.0489 93.0202 -0.0002 4.2665 0.0014
# 4 -0.0005 -0.0030 -0.0002 26.7403 -0.0008 3.1537
# 5 9.1106 13.6832 4.2665 -0.0008 40.4488 -0.0004
# 6 0.0062 0.0045 0.0014 3.1537 -0.0004 17.7725
#
#
#
# Elastic Compliance Matrix: (Units=1/GPa)
#
#
# Indices 1 2 3 4 5 6 
#
# 1 0.023490 -0.000151 0.001008 0.000001 -0.005346 -0.000009
# 2 -0.000151 0.021406 -0.006159 0.000003 -0.006558 -0.000006
# 3 0.001008 -0.006159 0.012614 -0.000001 0.000526 0.000000
# 4 0.000001 0.000003 -0.000001 0.038196 -0.000001 -0.006778
# 5 -0.005346 -0.006558 0.000526 -0.000001 0.028090 0.000004
# 6 -0.000009 -0.000006 0.000000 -0.006778 0.000004 0.057469
#
#
# Mechanical properties :
#
#
# Convention : Reuss Voigt Hill
#
# Bulk Modulus (GPa) = 21.31882 27.97696 24.64789
# Shear Modulus (GPa) = 24.09581 28.27864 26.18722
#
# Velocity S-wave (km/s) = 3.15518 3.41808 3.28926
# Velocity P-wave (km/s) = 4.69908 5.20925 4.96073
#
# Compressibility (1/GPa) = 0.04690692
#
# Stress axis : x y z
#
# Youngs Moduli (GPa) = 42.57065 46.71543 79.27681
#
# Poissons Ratio (x) = 0.00706 -0.07991
# Poissons Ratio (y) = 0.00644 0.48823
# Poissons Ratio (z) = -0.04291 0.28770
#
# Static dielectric constant tensor:
#      x y z
#    x 1.918610 0.000000 0.000790 
#    y 0.000000 1.976950 0.000000 
#    z 0.000790 0.000000 1.929150 
# 
# From -- ./inp_files/315634.got.cif
#   From: 2010.05.17/outbox.cif.g08.bks.cpg/sg15_158_cif.got.tgz:315634.got - 2010.06.03 18:47:42.
