data_PCOD9270612
_publ_section_title
;
Structure prediction by ZEFSAII (Michael W. Deem and Ramdas Pophale) SiO2 
 PCOD9270612
Probable space group: C 2/C
;
_chemical_formula_sum "Si O2"
_cell_formula_units_Z 60
_cell_length_a 26.421730
_cell_length_b 8.674294
_cell_length_c 16.187462
_cell_angle_alpha 90.000000
_cell_angle_beta 113.901166
_cell_angle_gamma 90.000000
_cell_volume 3391.853461
_symmetry_space_group_name_H-M "C 2/C"
_symmetry_group_IT_number 15
_symmetry_cell_setting 'monoclinic'
loop_
_space_group_symop_operation_xyz
x,y,z
-x,y,1/2-z
-x,-y,-z
x,-y,1/2+z
1/2+x,1/2+y,z
1/2-x,1/2+y,1/2-z
1/2-x,1/2-y,-z
1/2+x,1/2-y,1/2+z
loop_
_atom_site_type_symbol
_atom_site_label
_atom_site_fract_x
_atom_site_fract_y
_atom_site_fract_z
Si Si1 0.000000 0.505697 0.250000
Si Si2 0.211014 0.600968 0.476025
Si Si3 0.792672 0.596771 0.694752
Si Si4 0.582387 0.850262 0.184364
Si Si5 0.584592 0.847966 0.917505
Si Si6 0.210402 0.387374 0.640177
Si Si7 0.915338 0.614844 0.451480
Si Si8 0.976872 0.830417 0.985832
O O1 0.034009 0.392252 0.214225
O O2 0.046255 0.620622 0.315147
O O3 0.250000 0.750000 0.500000
O O4 0.217064 0.500825 0.395862
O O5 0.148508 0.666500 0.438862
O O6 0.219136 0.495406 0.564214
O O7 0.856496 0.655541 0.737408
O O8 0.785418 0.491483 0.773156
O O9 0.752610 0.744905 0.670933
O O10 0.563515 0.705407 0.117625
O O11 0.582524 0.994509 0.121919
O O12 0.558803 0.715919 0.957593
O O13 0.579499 0.007863 0.964977
O O14 0.147266 0.321628 0.591979
O O15 0.968464 0.722868 0.481686
O O16 0.000000 0.000000 0.000000
#
# Coordination Sequence:
#
# PCOD9270612 Si02
#       8
#     4   8   8   8   8   8   8   8
#     4  12  16  34  64  80 106 144 204 234 266 352
#     4  11  23  40  61  90 120 160 207 254 308 362
#     4  11  22  40  61  90 118 162 203 252 306 358
#     4  10  20  35  61  83 108 154 200 233 281 365
#     4  10  20  36  61  82 109 157 198 235 284 366
#     4  10  23  38  61  86 120 157 204 248 300 369
#     4   9  18  37  57  79 107 153 200 223 275 361
#     4  11  21  36  57  87 119 146 189 252 308 338
#
# _framework density 17.689444000000002
#
# number of rings (size 3 to 8) (size 9 to 14) (size 15 to 20)
#    0.000    1.600    4.000    2.800    0.000    2.133 
#    0.000    3.333    0.000    0.000    0.000    0.000 
#    0.000    0.000    0.000    0.000    0.000    0.000 
#
# Total GULP energy -167238.531080 kJ/mol
# GULP energy per Si atom -5574.617703 kJ/mol
# Density = 1.764918 g / cm^3
# Si number density = 17.689444 Si / 1000 Ang^3
#
#
#
# Elastic Constant Matrix: (Units=GPa)
#
#
# Indices 1 2 3 4 5 6 
#
# 1 130.1439 60.9582 42.7006 0.0000 18.4334 0.0000
# 2 60.9582 86.6919 41.3580 0.0000 13.4451 0.0000
# 3 42.7006 41.3580 96.8152 0.0000 5.5168 0.0000
# 4 0.0000 0.0000 0.0000 44.9641 0.0000 1.2260
# 5 18.4334 13.4451 5.5168 0.0000 34.3689 0.0000
# 6 0.0000 0.0000 0.0000 1.2260 0.0000 30.1257
#
#
#
# Elastic Compliance Matrix: (Units=1/GPa)
#
#
# Indices 1 2 3 4 5 6 
#
# 1 0.012153 -0.006968 -0.002187 0.000000 -0.003441 0.000000
# 2 -0.006968 0.019283 -0.004993 0.000000 -0.003005 0.000000
# 3 -0.002187 -0.004993 0.013371 0.000000 0.000980 0.000000
# 4 0.000000 0.000000 0.000000 0.022265 0.000000 -0.000906
# 5 -0.003441 -0.003005 0.000980 0.000000 0.031960 0.000000
# 6 0.000000 0.000000 0.000000 -0.000906 0.000000 0.033231
#
#
# Mechanical properties :
#
#
# Convention : Reuss Voigt Hill
#
# Bulk Modulus (GPa) = 60.57018 67.07607 63.82312
# Shear Modulus (GPa) = 30.10948 33.13402 31.62175
#
# Velocity S-wave (km/s) = 4.13015 4.33262 4.23260
# Velocity P-wave (km/s) = 7.55376 7.93913 7.74884
#
# Compressibility (1/GPa) = 0.01650977
#
# Stress axis : x y z
#
# Youngs Moduli (GPa) = 82.28711 51.86005 74.79086
#
# Poissons Ratio (x) = 0.36137 0.16358
# Poissons Ratio (y) = 0.57338 0.37341
# Poissons Ratio (z) = 0.17998 0.25892
#
# Static dielectric constant tensor:
#      x y z
#    x 1.606570 0.000000 0.010440 
#    y 0.000000 1.563790 0.000000 
#    z 0.010440 0.000000 1.629250 
# 
# From -- ./inp_files/171870.got.cif
#   From: 2010.05.17/outbox.cif.g08.bks.cpg/sg15_86_cif.got.tgz:171870.got - 2010.06.03 18:47:42.
