data_PCOD9270844
_publ_section_title
;
Structure prediction by ZEFSAII (Michael W. Deem and Ramdas Pophale) SiO2 
 PCOD9270844
Probable space group: C 2/C
;
_chemical_formula_sum "Si O2"
_cell_formula_units_Z 60
_cell_length_a 17.774389
_cell_length_b 24.336136
_cell_length_c 13.471668
_cell_angle_alpha 90.000000
_cell_angle_beta 33.931871
_cell_angle_gamma 90.000000
_cell_volume 3252.840259
_symmetry_space_group_name_H-M "C 2/C"
_symmetry_group_IT_number 15
_symmetry_cell_setting 'monoclinic'
loop_
_space_group_symop_operation_xyz
x,y,z
-x,y,1/2-z
-x,-y,-z
x,-y,1/2+z
1/2+x,1/2+y,z
1/2-x,1/2+y,1/2-z
1/2-x,1/2-y,-z
1/2+x,1/2-y,1/2+z
loop_
_atom_site_type_symbol
_atom_site_label
_atom_site_fract_x
_atom_site_fract_y
_atom_site_fract_z
Si Si1 0.116350 0.556858 0.542697
Si Si2 0.952194 0.438476 0.915611
Si Si3 0.591231 0.480249 0.742526
Si Si4 0.280683 0.737348 0.083520
Si Si5 0.000000 0.820859 0.250000
Si Si6 0.797867 0.856182 0.312316
Si Si7 0.181700 0.625766 0.283033
Si Si8 0.472544 0.580432 0.983848
O O1 0.072615 0.502165 0.528331
O O2 0.252583 0.534178 0.446712
O O3 0.149928 0.607696 0.432321
O O4 0.000000 0.569649 0.750000
O O5 0.000000 0.441162 0.750000
O O6 0.067310 0.406138 0.848013
O O7 0.816802 0.402136 0.067682
O O8 0.500000 0.463887 0.750000
O O9 0.548178 0.541784 0.821392
O O10 0.556111 0.449499 0.882508
O O11 0.262723 0.797218 0.148873
O O12 0.195275 0.689152 0.230865
O O13 0.250000 0.750000 0.000000
O O14 0.434287 0.716320 0.907988
O O15 0.875374 0.851997 0.334683
O O16 0.922445 0.871863 0.106913
O O17 0.329904 0.600736 0.099725
#
# Coordination Sequence:
#
# PCOD9270844 Si02
#       8
#     8   8   8   8   4   8   8   8
#     4  10  23  40  58  87 114 164 207 248 307 350
#     4  11  23  34  53  90 119 160 202 245 298 367
#     4  10  22  37  61  83 118 150 199 244 291 354
#     4  10  22  34  57  84 116 158 194 233 304 359
#     4  10  20  36  52  82 118 164 184 244 286 360
#     4  11  22  34  57  81 120 149 205 235 291 353
#     4  11  23  40  58  79 130 160 198 253 299 361
#     4  10  22  38  57  89 110 159 194 236 304 354
#
# _framework density 18.445418
#
# number of rings (size 3 to 8) (size 9 to 14) (size 15 to 20)
#    0.000    1.600    2.667    2.000    9.333    1.067 
#    0.000    0.000    0.000    0.800    0.000    4.667 
#    0.000    0.000    0.000    0.000    0.000    0.000 
#
# Total GULP energy -167050.678188 kJ/mol
# GULP energy per Si atom -5568.355940 kJ/mol
# Density = 1.840344 g / cm^3
# Si number density = 18.445418 Si / 1000 Ang^3
#
#
#
# Elastic Constant Matrix: (Units=GPa)
#
#
# Indices 1 2 3 4 5 6 
#
# 1 60.8650 11.5894 26.0149 -0.0010 -13.4676 0.0006
# 2 11.5894 95.0306 40.5095 0.0040 5.4884 -0.0011
# 3 26.0149 40.5095 119.6717 0.0011 -15.1584 0.0018
# 4 -0.0010 0.0040 0.0011 24.2227 0.0028 3.5407
# 5 -13.4676 5.4884 -15.1584 0.0028 13.7130 -0.0004
# 6 0.0006 -0.0011 0.0018 3.5407 -0.0004 19.5249
#
#
#
# Elastic Compliance Matrix: (Units=1/GPa)
#
#
# Indices 1 2 3 4 5 6 
#
# 1 0.022499 -0.003745 -0.000738 -0.000001 0.022779 0.000000
# 2 -0.003745 0.014560 -0.006184 -0.000001 -0.016341 0.000001
# 3 -0.000738 -0.006184 0.012595 -0.000001 0.015673 -0.000001
# 4 -0.000001 -0.000001 -0.000001 0.042408 -0.000011 -0.007690
# 5 0.022779 -0.016341 0.015673 -0.000011 0.119161 0.000002
# 6 0.000000 0.000001 -0.000001 -0.007690 0.000002 0.052611
#
#
# Mechanical properties :
#
#
# Convention : Reuss Voigt Hill
#
# Bulk Modulus (GPa) = 35.31135 47.97721 41.64428
# Shear Modulus (GPa) = 16.97176 24.65570 20.81373
#
# Velocity S-wave (km/s) = 3.03662 3.66004 3.36280
# Velocity P-wave (km/s) = 5.61070 6.62782 6.14036
#
# Compressibility (1/GPa) = 0.02831951
#
# Stress axis : x y z
#
# Youngs Moduli (GPa) = 44.44719 68.68305 79.39448
#
# Poissons Ratio (x) = 0.25721 0.05858
# Poissons Ratio (y) = 0.16645 0.49100
# Poissons Ratio (z) = 0.03280 0.42476
#
# Static dielectric constant tensor:
#      x y z
#    x 1.663730 -0.000010 -0.011620 
#    y -0.000010 1.736420 0.000000 
#    z -0.011620 0.000000 1.700780 
# 
# From -- ./inp_files/164084.got.cif
#   From: 2010.05.17/outbox.cif.g08.bks.cpg/sg15_83_cif.got.tgz:164084.got - 2010.06.03 18:47:42.
