data_PCOD9270900
_publ_section_title
;
Structure prediction by ZEFSAII (Michael W. Deem and Ramdas Pophale) SiO2 
 PCOD9270900
Probable space group: C 2/C
;
_chemical_formula_sum "Si O2"
_cell_formula_units_Z 64
_cell_length_a 16.140101
_cell_length_b 8.325026
_cell_length_c 28.114602
_cell_angle_alpha 90.000000
_cell_angle_beta 123.391572
_cell_angle_gamma 90.000000
_cell_volume 3154.083909
_symmetry_space_group_name_H-M "C 2/C"
_symmetry_group_IT_number 15
_symmetry_cell_setting 'monoclinic'
loop_
_space_group_symop_operation_xyz
x,y,z
-x,y,1/2-z
-x,-y,-z
x,-y,1/2+z
1/2+x,1/2+y,z
1/2-x,1/2+y,1/2-z
1/2-x,1/2-y,-z
1/2+x,1/2-y,1/2+z
loop_
_atom_site_type_symbol
_atom_site_label
_atom_site_fract_x
_atom_site_fract_y
_atom_site_fract_z
Si Si1 0.212219 0.056853 0.606104
Si Si2 0.141901 0.727808 0.912417
Si Si3 0.071447 0.348696 0.029419
Si Si4 0.076433 0.081566 0.474839
Si Si5 0.437778 0.360218 0.364737
Si Si6 0.598427 0.135002 0.429195
Si Si7 0.967592 0.031039 0.187409
Si Si8 0.787141 0.212916 0.618695
O O1 0.271020 0.196497 0.597517
O O2 0.131227 0.015583 0.538979
O O3 0.163332 0.121745 0.638635
O O4 0.274147 0.894167 0.635722
O O5 0.154648 0.841928 0.962280
O O6 0.114858 0.551616 0.923296
O O7 0.060334 0.818127 0.854566
O O8 0.106658 0.321547 0.986604
O O9 0.177530 0.363371 0.088928
O O10 0.000000 0.500000 0.000000
O O11 0.999425 0.219390 0.031490
O O12 0.013408 0.959099 0.423225
O O13 0.486917 0.185245 0.378817
O O14 0.448310 0.436477 0.316137
O O15 0.674635 0.240415 0.422279
O O16 0.000000 0.078335 0.250000
O O17 0.872839 0.909724 0.162034
#
# Coordination Sequence:
#
# PCOD9270900 Si02
#       8
#     8   8   8   8   8   8   8   8
#     4  11  20  36  59  93 130 157 195 240 295 377
#     4  10  23  37  57  87 122 162 205 247 298 367
#     4  12  21  31  56  94 133 165 195 233 290 368
#     4  11  20  34  54  91 136 173 188 227 297 374
#     4  10  20  37  63  87 120 162 202 248 299 370
#     4  10  20  36  54  89 126 161 196 239 294 372
#     4  10  24  47  65  78 110 158 210 269 321 353
#     4  10  23  38  59  86 118 159 207 242 297 362
#
# _framework density 20.291153000000001
#
# number of rings (size 3 to 8) (size 9 to 14) (size 15 to 20)
#    0.000    1.500    3.750    1.875    1.750    5.000 
#    0.000    6.875    0.000    0.000    0.000    0.000 
#    0.000    0.000    0.000    0.000    0.000    0.000 
#
# Total GULP energy -178408.938629 kJ/mol
# GULP energy per Si atom -5575.279332 kJ/mol
# Density = 2.024497 g / cm^3
# Si number density = 20.291153 Si / 1000 Ang^3
#
#
#
# Elastic Constant Matrix: (Units=GPa)
#
#
# Indices 1 2 3 4 5 6 
#
# 1 114.4214 14.7588 2.2527 0.0000 -4.9673 0.0000
# 2 14.7588 57.5009 3.8738 0.0000 4.6667 0.0000
# 3 2.2527 3.8738 44.9184 0.0000 -16.6526 0.0000
# 4 0.0000 0.0000 0.0000 13.2127 0.0000 0.6306
# 5 -4.9673 4.6667 -16.6526 0.0000 20.5682 0.0000
# 6 0.0000 0.0000 0.0000 0.6306 0.0000 33.6457
#
#
#
# Elastic Compliance Matrix: (Units=1/GPa)
#
#
# Indices 1 2 3 4 5 6 
#
# 1 0.009238 -0.002762 0.001192 0.000000 0.003823 0.000000
# 2 -0.002762 0.019148 -0.004816 0.000000 -0.008911 0.000000
# 3 0.001192 -0.004816 0.033050 0.000000 0.028139 0.000000
# 4 0.000000 0.000000 0.000000 0.075753 0.000000 -0.001420
# 5 0.003823 -0.008911 0.028139 0.000000 0.074346 0.000000
# 6 0.000000 0.000000 0.000000 -0.001420 0.000000 0.029748
#
#
# Mechanical properties :
#
#
# Convention : Reuss Voigt Hill
#
# Bulk Modulus (GPa) = 20.54901 28.73460 24.64181
# Shear Modulus (GPa) = 18.49958 26.54900 22.52429
#
# Velocity S-wave (km/s) = 3.02272 3.62111 3.33536
# Velocity P-wave (km/s) = 4.72563 5.62807 5.19647
#
# Compressibility (1/GPa) = 0.04866414
#
# Stress axis : x y z
#
# Youngs Moduli (GPa) = 108.24444 52.22596 30.25700
#
# Poissons Ratio (x) = 0.14424 -0.03607
# Poissons Ratio (y) = 0.29895 0.14573
# Poissons Ratio (z) = -0.12904 0.25154
#
# Static dielectric constant tensor:
#      x y z
#    x 1.809670 0.000000 0.038350 
#    y 0.000000 1.788760 0.000000 
#    z 0.038350 0.000000 1.709960 
# 
# From -- ./inp_files/312907.got.cif
#   From: 2010.05.17/outbox.cif.g08.bks.cpg/sg15_157_cif.got.tgz:312907.got - 2010.06.03 18:47:42.
