data_PCOD9270289
_publ_section_title
;
Structure prediction by ZEFSAII (Michael W. Deem and Ramdas Pophale) SiO2 
 PCOD9270289
Probable space group: C 2/C
;
_chemical_formula_sum "Si O2"
_cell_formula_units_Z 40
_cell_length_a 10.569161
_cell_length_b 10.066917
_cell_length_c 19.054104
_cell_angle_alpha 90.000000
_cell_angle_beta 102.655312
_cell_angle_gamma 90.000000
_cell_volume 1978.082416
_symmetry_space_group_name_H-M "C 2/C"
_symmetry_group_IT_number 15
_symmetry_cell_setting 'monoclinic'
loop_
_space_group_symop_operation_xyz
x,y,z
-x,y,1/2-z
-x,-y,-z
x,-y,1/2+z
1/2+x,1/2+y,z
1/2-x,1/2+y,1/2-z
1/2-x,1/2-y,-z
1/2+x,1/2-y,1/2+z
loop_
_atom_site_type_symbol
_atom_site_label
_atom_site_fract_x
_atom_site_fract_y
_atom_site_fract_z
Si Si1 0.121830 0.912062 0.533107
Si Si2 0.135001 0.788347 0.228843
Si Si3 0.027847 0.575742 0.117420
Si Si4 0.297857 0.980711 0.683024
Si Si5 0.651950 0.123078 0.540297
O O1 0.203093 0.881849 0.472047
O O2 0.099223 0.764307 0.559381
O O3 0.207492 0.980921 0.603064
O O4 0.000000 0.000000 0.500000
O O5 0.236346 0.905515 0.224620
O O6 0.197430 0.665753 0.280663
O O7 0.000000 0.833282 0.250000
O O8 0.084974 0.713360 0.152399
O O9 0.943311 0.507894 0.168775
O O10 0.137741 0.481571 0.100247
O O11 0.933684 0.593344 0.039304
#
# Coordination Sequence:
#
# PCOD9270289 Si02
#       5
#     8   8   8   8   8
#     4  10  20  35  57  87 120 147 191 239 292 352
#     4  10  22  41  58  83 122 157 196 248 291 345
#     4   9  19  38  61  81 115 151 191 241 294 346
#     4  10  22  39  60  84 115 156 198 237 297 349
#     4   9  19  35  59  87 113 151 186 237 299 346
#
# _framework density 20.221603999999999
#
# number of rings (size 3 to 8) (size 9 to 14) (size 15 to 20)
#    0.000    2.400    0.000    1.200    2.800    3.200 
#    3.600    6.000    0.000    0.000    0.000    0.000 
#    0.000    0.000    0.000    0.000    0.000    0.000 
#
# Total GULP energy -111460.415815 kJ/mol
# GULP energy per Si atom -5573.020791 kJ/mol
# Density = 2.017558 g / cm^3
# Si number density = 20.221604 Si / 1000 Ang^3
#
#
#
# Elastic Constant Matrix: (Units=GPa)
#
#
# Indices 1 2 3 4 5 6 
#
# 1 66.7037 44.7232 18.7177 0.0000 -7.2213 0.0000
# 2 44.7232 80.2533 12.3207 0.0000 -22.8713 0.0000
# 3 18.7177 12.3207 65.3738 0.0000 -0.7210 0.0000
# 4 0.0000 0.0000 0.0000 26.9806 0.0000 -6.6865
# 5 -7.2213 -22.8713 -0.7210 0.0000 24.3309 0.0000
# 6 0.0000 0.0000 0.0000 -6.6865 0.0000 37.0980
#
#
#
# Elastic Compliance Matrix: (Units=1/GPa)
#
#
# Indices 1 2 3 4 5 6 
#
# 1 0.026210 -0.016018 -0.004567 0.000000 -0.007413 0.000000
# 2 -0.016018 0.027432 -0.000352 0.000000 0.021022 0.000000
# 3 -0.004567 -0.000352 0.016658 0.000000 -0.001193 0.000000
# 4 0.000000 0.000000 0.000000 0.038797 0.000000 0.006993
# 5 -0.007413 0.021022 -0.001193 0.000000 0.058625 0.000000
# 6 0.000000 0.000000 0.000000 0.006993 0.000000 0.028216
#
#
# Mechanical properties :
#
#
# Convention : Reuss Voigt Hill
#
# Bulk Modulus (GPa) = 35.17979 40.42823 37.80401
# Shear Modulus (GPa) = 20.21940 26.78651 23.50295
#
# Velocity S-wave (km/s) = 3.16554 3.64352 3.41291
# Velocity P-wave (km/s) = 5.54939 6.14299 5.85372
#
# Compressibility (1/GPa) = 0.02842541
#
# Stress axis : x y z
#
# Youngs Moduli (GPa) = 38.15287 36.45388 60.03286
#
# Poissons Ratio (x) = 0.58391 0.27420
# Poissons Ratio (y) = 0.61113 0.02113
# Poissons Ratio (z) = 0.17426 0.01283
#
# Static dielectric constant tensor:
#      x y z
#    x 1.737740 0.000000 0.005240 
#    y 0.000000 1.726650 0.000000 
#    z 0.005240 0.000000 1.763560 
# 
# From -- ./inp_files/235692.got.cif
#   From: 2010.05.17/outbox.cif.g08.bks.cpg/sg15_118_cif.got.tgz:235692.got - 2010.06.03 18:47:42.
