data_PCOD9270704
_publ_section_title
;
Structure prediction by ZEFSAII (Michael W. Deem and Ramdas Pophale) SiO2 
 PCOD9270704
Probable space group: C 2/C
;
_chemical_formula_sum "Si O2"
_cell_formula_units_Z 52
_cell_length_a 13.456042
_cell_length_b 11.314123
_cell_length_c 18.003387
_cell_angle_alpha 90.000000
_cell_angle_beta 50.010643
_cell_angle_gamma 90.000000
_cell_volume 2099.974848
_symmetry_space_group_name_H-M "C 2/C"
_symmetry_group_IT_number 15
_symmetry_cell_setting 'monoclinic'
loop_
_space_group_symop_operation_xyz
x,y,z
-x,y,1/2-z
-x,-y,-z
x,-y,1/2+z
1/2+x,1/2+y,z
1/2-x,1/2+y,1/2-z
1/2-x,1/2-y,-z
1/2+x,1/2-y,1/2+z
loop_
_atom_site_type_symbol
_atom_site_label
_atom_site_fract_x
_atom_site_fract_y
_atom_site_fract_z
Si Si1 0.528818 0.303876 0.099326
Si Si2 0.093188 0.294682 0.137865
Si Si3 0.872261 0.246194 0.541959
Si Si4 0.266603 0.972191 0.684422
Si Si5 0.132176 0.360127 0.724484
Si Si6 0.000000 0.066226 0.250000
Si Si7 0.768341 0.668359 0.573761
O O1 0.464792 0.331883 0.050693
O O2 0.417579 0.256541 0.206754
O O3 0.636783 0.375777 0.094917
O O4 0.614344 0.186794 0.038491
O O5 0.242830 0.325585 0.080989
O O6 0.078767 0.153735 0.157725
O O7 0.000000 0.339193 0.250000
O O8 0.067992 0.303703 0.061914
O O9 0.821132 0.354693 0.617680
O O10 0.307845 0.955007 0.749047
O O11 0.111577 0.985965 0.748394
O O12 0.235641 0.298937 0.620951
O O13 0.000000 0.402592 0.750000
O O14 0.315568 0.916262 0.115611
#
# Coordination Sequence:
#
# PCOD9270704 Si02
#       7
#     8   8   8   8   8   4   8
#     4   9  20  35  59  86 114 161 206 245 308 357
#     4   8  16  31  53  84 116 165 203 244 309 361
#     4   9  17  31  55  85 121 155 206 255 294 368
#     4  10  20  35  62  91 120 160 211 251 310 361
#     4   9  20  38  61  89 123 161 208 256 303 368
#     4   8  18  30  56  88 110 152 208 244 302 364
#     4  10  21  37  61  89 121 160 200 257 305 361
#
# _framework density 24.762201000000001
#
# number of rings (size 3 to 8) (size 9 to 14) (size 15 to 20)
#    0.462    2.462    0.000    0.000    5.385    2.462 
#    0.000    0.000    1.692   57.231    0.000    0.000 
#    0.000    0.000    0.000    0.000    0.000    0.000 
#
# Total GULP energy -144846.033740 kJ/mol
# GULP energy per Si atom -5571.001298 kJ/mol
# Density = 2.470584 g / cm^3
# Si number density = 24.762201 Si / 1000 Ang^3
#
#
#
# Elastic Constant Matrix: (Units=GPa)
#
#
# Indices 1 2 3 4 5 6 
#
# 1 182.4894 25.3725 30.0540 0.0000 27.3004 0.0000
# 2 25.3725 51.9707 -7.9083 0.0000 11.5445 0.0000
# 3 30.0540 -7.9083 81.4079 0.0000 7.6015 0.0000
# 4 0.0000 0.0000 0.0000 10.8765 0.0000 8.9621
# 5 27.3004 11.5445 7.6015 0.0000 41.1677 0.0000
# 6 0.0000 0.0000 0.0000 8.9621 0.0000 26.7852
#
#
#
# Elastic Compliance Matrix: (Units=1/GPa)
#
#
# Indices 1 2 3 4 5 6 
#
# 1 0.006784 -0.002980 -0.002495 0.000000 -0.003202 0.000000
# 2 -0.002980 0.022374 0.003740 0.000000 -0.004988 0.000000
# 3 -0.002495 0.003740 0.013749 0.000000 -0.001933 0.000000
# 4 0.000000 0.000000 0.000000 0.126939 0.000000 -0.042473
# 5 -0.003202 -0.004988 -0.001933 0.000000 0.028170 0.000000
# 6 0.000000 0.000000 0.000000 -0.042473 0.000000 0.051545
#
#
# Mechanical properties :
#
#
# Convention : Reuss Voigt Hill
#
# Bulk Modulus (GPa) = 25.35828 45.65604 35.50716
# Shear Modulus (GPa) = 18.78447 33.65588 26.22017
#
# Velocity S-wave (km/s) = 2.75725 3.69068 3.25757
# Velocity P-wave (km/s) = 4.51658 6.05304 5.34036
#
# Compressibility (1/GPa) = 0.03943486
#
# Stress axis : x y z
#
# Youngs Moduli (GPa) = 147.40274 44.69524 72.73422
#
# Poissons Ratio (x) = 0.13321 0.18148
# Poissons Ratio (y) = 0.43931 -0.27199
# Poissons Ratio (z) = 0.36778 -0.16714
#
# Static dielectric constant tensor:
#      x y z
#    x 2.107850 0.000000 0.052940 
#    y 0.000000 1.962300 0.000000 
#    z 0.052940 0.000000 1.972490 
# 
# From -- ./inp_files/204995.got.cif
#   From: 2010.05.17/outbox.cif.g08.bks.cpg/sg15_103_cif.got.tgz:204995.got - 2010.06.03 18:47:42.
