data_PCOD9270950
_publ_section_title
;
Structure prediction by ZEFSAII (Michael W. Deem and Ramdas Pophale) SiO2 
 PCOD9270950
Probable space group: C 2/C
;
_chemical_formula_sum "Si O2"
_cell_formula_units_Z 48
_cell_length_a 20.501989
_cell_length_b 9.509114
_cell_length_c 16.049823
_cell_angle_alpha 90.000000
_cell_angle_beta 130.313371
_cell_angle_gamma 90.000000
_cell_volume 2385.920881
_symmetry_space_group_name_H-M "C 2/C"
_symmetry_group_IT_number 15
_symmetry_cell_setting 'monoclinic'
loop_
_space_group_symop_operation_xyz
x,y,z
-x,y,1/2-z
-x,-y,-z
x,-y,1/2+z
1/2+x,1/2+y,z
1/2-x,1/2+y,1/2-z
1/2-x,1/2-y,-z
1/2+x,1/2-y,1/2+z
loop_
_atom_site_type_symbol
_atom_site_label
_atom_site_fract_x
_atom_site_fract_y
_atom_site_fract_z
Si Si1 0.180527 0.295932 0.011696
Si Si2 0.885943 0.090157 0.816692
Si Si3 0.795531 0.105490 0.923891
Si Si4 0.946123 0.062274 0.622073
Si Si5 0.697650 0.135978 0.278959
Si Si6 0.733075 0.921954 0.619546
O O1 0.216924 0.227734 0.128162
O O2 0.181990 0.461971 0.025042
O O3 0.250000 0.250000 0.000000
O O4 0.093972 0.217839 0.917608
O O5 0.843079 0.096521 0.872519
O O6 0.875468 0.247634 0.769231
O O7 0.983579 0.045356 0.892207
O O8 0.827114 0.986235 0.713168
O O9 0.770365 0.265530 0.918721
O O10 0.713577 0.002494 0.847123
O O11 0.865030 0.040461 0.044021
O O12 0.000000 0.041693 0.750000
O O13 0.694651 0.089424 0.181015
#
# Coordination Sequence:
#
# PCOD9270950 Si02
#       6
#     8   8   8   8   8   8
#     4  10  20  36  56  77 105 145 182 216 270 341
#     4   9  17  33  55  78 104 138 177 220 266 321
#     4   9  18  33  54  79 106 136 175 221 271 318
#     4  11  21  34  51  75 107 143 180 221 268 322
#     4   8  16  32  55  79 103 137 181 217 261 326
#     4   9  17  34  57  78 102 137 179 223 270 324
#
# _framework density 20.118020000000001
#
# number of rings (size 3 to 8) (size 9 to 14) (size 15 to 20)
#    0.000    2.667    0.000    3.500    0.000    0.000 
#    0.000   13.333    0.000    0.000    0.000    0.000 
#    0.000    0.000    0.000    0.000    0.000    0.000 
#
# Total GULP energy -133792.743745 kJ/mol
# GULP energy per Si atom -5574.697656 kJ/mol
# Density = 2.007223 g / cm^3
# Si number density = 20.118020 Si / 1000 Ang^3
#
#
#
# Elastic Constant Matrix: (Units=GPa)
#
#
# Indices 1 2 3 4 5 6 
#
# 1 54.5102 7.3992 17.1963 0.0000 -3.7037 0.0000
# 2 7.3992 175.3817 46.5341 0.0000 3.0503 0.0000
# 3 17.1963 46.5341 97.6672 0.0000 -8.4956 0.0000
# 4 0.0000 0.0000 0.0000 34.3693 0.0000 2.1492
# 5 -3.7037 3.0503 -8.4956 0.0000 30.1085 0.0000
# 6 0.0000 0.0000 0.0000 2.1492 0.0000 7.4518
#
#
#
# Elastic Compliance Matrix: (Units=1/GPa)
#
#
# Indices 1 2 3 4 5 6 
#
# 1 0.019487 0.000034 -0.003320 0.000000 0.001457 0.000000
# 2 0.000034 0.006601 -0.003290 0.000000 -0.001593 0.000000
# 3 -0.003320 -0.003290 0.012696 0.000000 0.003507 0.000000
# 4 0.000000 0.000000 0.000000 0.029630 0.000000 -0.008546
# 5 0.001457 -0.001593 0.003507 0.000000 0.034543 0.000000
# 6 0.000000 0.000000 0.000000 -0.008546 0.000000 0.136660
#
#
# Mechanical properties :
#
#
# Convention : Reuss Voigt Hill
#
# Bulk Modulus (GPa) = 39.01497 52.20203 45.60850
# Shear Modulus (GPa) = 19.13405 31.48122 25.30763
#
# Velocity S-wave (km/s) = 3.08732 3.96008 3.55062
# Velocity P-wave (km/s) = 5.66956 6.84937 6.28720
#
# Compressibility (1/GPa) = 0.02563119
#
# Stress axis : x y z
#
# Youngs Moduli (GPa) = 51.31605 151.49343 78.76591
#
# Poissons Ratio (x) = -0.00508 0.26153
# Poissons Ratio (y) = -0.00172 0.25910
# Poissons Ratio (z) = 0.17039 0.49834
#
# Static dielectric constant tensor:
#      x y z
#    x 1.751390 0.000000 -0.071100 
#    y 0.000000 1.742000 0.000000 
#    z -0.071100 0.000000 1.741940 
# 
# From -- ./inp_files/213747.got.cif
#   From: 2010.05.17/outbox.cif.g08.bks.cpg/sg15_107_cif.got.tgz:213747.got - 2010.06.03 18:47:42.
