data_PCOD9270322
_publ_section_title
;
Structure prediction by ZEFSAII (Michael W. Deem and Ramdas Pophale) SiO2 
 PCOD9270322
Probable space group: C 2/C
;
_chemical_formula_sum "Si O2"
_cell_formula_units_Z 56
_cell_length_a 21.727367
_cell_length_b 7.700940
_cell_length_c 17.943893
_cell_angle_alpha 90.000000
_cell_angle_beta 138.028858
_cell_angle_gamma 90.000000
_cell_volume 2007.868875
_symmetry_space_group_name_H-M "C 2/C"
_symmetry_group_IT_number 15
_symmetry_cell_setting 'monoclinic'
loop_
_space_group_symop_operation_xyz
x,y,z
-x,y,1/2-z
-x,-y,-z
x,-y,1/2+z
1/2+x,1/2+y,z
1/2-x,1/2+y,1/2-z
1/2-x,1/2-y,-z
1/2+x,1/2-y,1/2+z
loop_
_atom_site_type_symbol
_atom_site_label
_atom_site_fract_x
_atom_site_fract_y
_atom_site_fract_z
Si Si1 0.544577 0.216808 0.690720
Si Si2 0.319332 0.953230 0.275549
Si Si3 0.600126 0.939565 0.933273
Si Si4 0.664515 0.330272 0.244280
Si Si5 0.148155 0.207473 0.441145
Si Si6 0.531514 0.423248 0.364775
Si Si7 0.757540 0.406989 0.570845
O O1 0.603233 0.192721 0.668171
O O2 0.501244 0.025695 0.665488
O O3 0.594923 0.260246 0.812792
O O4 0.460421 0.359189 0.612734
O O5 0.237409 0.926944 0.258509
O O6 0.274083 0.959253 0.152860
O O7 0.359073 0.147310 0.317812
O O8 0.647084 0.122156 0.999713
O O9 0.661118 0.901900 0.915051
O O10 0.422414 0.749842 0.554687
O O11 0.571925 0.419608 0.186761
O O12 0.726870 0.273446 0.371820
O O13 0.250000 0.250000 0.500000
O O14 0.159813 0.984948 0.455591
O O15 0.500000 0.384759 0.250000
#
# Coordination Sequence:
#
# PCOD9270322 Si02
#       7
#     8   8   8   8   8   8   8
#     4   8  19  34  60  81 121 149 186 232 299 340
#     4  10  20  36  56  80 114 155 196 239 285 329
#     4   9  17  37  60  86 121 148 182 239 299 347
#     4  10  20  35  58  77 116 155 195 243 281 329
#     4   8  20  36  59  89 117 154 184 237 297 351
#     4   9  18  36  58  84 121 150 185 234 298 344
#     4  10  21  35  63  84 119 154 194 242 291 337
#
# _framework density 27.890269
#
# number of rings (size 3 to 8) (size 9 to 14) (size 15 to 20)
#    2.571    0.000    1.429    1.286    0.000    2.857 
#    0.000   14.286    0.000    2.571    0.000    0.000 
#    0.000    0.000    0.000    0.000    0.000    0.000 
#
# Total GULP energy -155911.627330 kJ/mol
# GULP energy per Si atom -5568.272405 kJ/mol
# Density = 2.782679 g / cm^3
# Si number density = 27.890269 Si / 1000 Ang^3
#
#
#
# Elastic Constant Matrix: (Units=GPa)
#
#
# Indices 1 2 3 4 5 6 
#
# 1 231.3379 81.9369 24.6648 0.0000 16.6003 0.0000
# 2 81.9369 206.2091 14.3247 0.0000 19.2123 0.0000
# 3 24.6648 14.3247 53.4597 0.0000 19.1405 0.0000
# 4 0.0000 0.0000 0.0000 25.1474 0.0000 20.0187
# 5 16.6003 19.2123 19.1405 0.0000 41.1735 0.0000
# 6 0.0000 0.0000 0.0000 20.0187 0.0000 64.7861
#
#
#
# Elastic Compliance Matrix: (Units=1/GPa)
#
#
# Indices 1 2 3 4 5 6 
#
# 1 0.005216 -0.001914 -0.001752 0.000000 -0.000395 0.000000
# 2 -0.001914 0.005789 0.000027 0.000000 -0.001942 0.000000
# 3 -0.001752 0.000027 0.023104 0.000000 -0.010047 0.000000
# 4 0.000000 0.000000 0.000000 0.052738 0.000000 -0.016296
# 5 -0.000395 -0.001942 -0.010047 0.000000 0.030024 0.000000
# 6 0.000000 0.000000 0.000000 -0.016296 0.000000 0.020471
#
#
# Mechanical properties :
#
#
# Convention : Reuss Voigt Hill
#
# Bulk Modulus (GPa) = 37.27010 81.42882 59.34946
# Shear Modulus (GPa) = 32.56017 50.89343 41.72680
#
# Velocity S-wave (km/s) = 3.42049 4.27637 3.87215
# Velocity P-wave (km/s) = 5.38440 7.32411 6.42785
#
# Compressibility (1/GPa) = 0.02683116
#
# Stress axis : x y z
#
# Youngs Moduli (GPa) = 191.72769 172.74118 43.28298
#
# Poissons Ratio (x) = 0.33061 0.07583
# Poissons Ratio (y) = 0.36695 -0.00118
# Poissons Ratio (z) = 0.33591 -0.00471
#
# Static dielectric constant tensor:
#      x y z
#    x 2.303130 0.000000 0.176150 
#    y 0.000000 2.451160 0.000000 
#    z 0.176150 0.000000 2.288340 
# 
# From -- ./inp_files/281323.got.cif
#   From: 2010.05.17/outbox.cif.g08.bks.cpg/sg15_141_cif.got.tgz:281323.got - 2010.06.03 18:47:42.
