data_PCOD9270841
_publ_section_title
;
Structure prediction by ZEFSAII (Michael W. Deem and Ramdas Pophale) SiO2 
 PCOD9270841
Probable space group: C 2/C
;
_chemical_formula_sum "Si O2"
_cell_formula_units_Z 52
_cell_length_a 11.766600
_cell_length_b 8.387762
_cell_length_c 25.092816
_cell_angle_alpha 90.000000
_cell_angle_beta 116.920005
_cell_angle_gamma 90.000000
_cell_volume 2208.186721
_symmetry_space_group_name_H-M "C 2/C"
_symmetry_group_IT_number 15
_symmetry_cell_setting 'monoclinic'
loop_
_space_group_symop_operation_xyz
x,y,z
-x,y,1/2-z
-x,-y,-z
x,-y,1/2+z
1/2+x,1/2+y,z
1/2-x,1/2+y,1/2-z
1/2-x,1/2-y,-z
1/2+x,1/2-y,1/2+z
loop_
_atom_site_type_symbol
_atom_site_label
_atom_site_fract_x
_atom_site_fract_y
_atom_site_fract_z
Si Si1 0.379930 0.730016 0.185035
Si Si2 0.000000 0.173438 0.750000
Si Si3 0.116014 0.310199 0.104404
Si Si4 0.738556 0.006213 0.221355
Si Si5 0.751165 0.582044 0.431814
Si Si6 0.402557 0.370190 0.502984
Si Si7 0.668584 0.075740 0.328558
O O1 0.500000 0.728069 0.250000
O O2 0.259687 0.674842 0.195795
O O3 0.367979 0.603910 0.134465
O O4 0.370261 0.905095 0.158621
O O5 0.879169 0.074384 0.745632
O O6 0.941282 0.291723 0.693242
O O7 0.144487 0.392051 0.167741
O O8 0.163860 0.440592 0.072556
O O9 0.207444 0.156114 0.121072
O O10 0.979202 0.249146 0.058769
O O11 0.696752 0.038617 0.272140
O O12 0.701392 0.550257 0.480438
O O13 0.831244 0.747403 0.448497
O O14 0.500000 0.500000 0.500000
#
# Coordination Sequence:
#
# PCOD9270841 Si02
#       7
#     8   4   8   8   8   8   8
#     4  11  21  38  62  91 134 172 211 267 331 389
#     4  10  20  36  52  80 126 164 214 262 302 366
#     4  10  23  41  66  97 133 171 222 273 331 391
#     4  10  22  38  59  91 129 177 214 259 320 394
#     4  10  25  45  66 100 132 171 220 276 334 389
#     4  11  24  46  74  96 126 173 228 283 329 388
#     4  11  22  36  61  96 127 175 220 252 320 402
#
# _framework density 23.548732999999999
#
# number of rings (size 3 to 8) (size 9 to 14) (size 15 to 20)
#    0.000    1.538    1.538    3.231    4.308    0.615 
#    0.000    9.231    0.000    0.000    0.000    0.000 
#    0.000    0.000    0.000    0.000    0.000    0.000 
#
# Total GULP energy -145354.709851 kJ/mol
# GULP energy per Si atom -5590.565764 kJ/mol
# Density = 2.349513 g / cm^3
# Si number density = 23.548733 Si / 1000 Ang^3
#
#
#
# Elastic Constant Matrix: (Units=GPa)
#
#
# Indices 1 2 3 4 5 6 
#
# 1 84.2087 30.6469 23.8705 0.0000 -9.9117 0.0000
# 2 30.6469 93.7523 7.3355 0.0000 -2.6052 0.0000
# 3 23.8705 7.3355 78.5176 0.0000 21.2771 0.0000
# 4 0.0000 0.0000 0.0000 30.4304 0.0000 7.6046
# 5 -9.9117 -2.6052 21.2771 0.0000 36.1545 0.0000
# 6 0.0000 0.0000 0.0000 7.6046 0.0000 33.0115
#
#
#
# Elastic Compliance Matrix: (Units=1/GPa)
#
#
# Indices 1 2 3 4 5 6 
#
# 1 0.016437 -0.004616 -0.006778 0.000000 0.008162 0.000000
# 2 -0.004616 0.012122 0.000449 0.000000 -0.000656 0.000000
# 3 -0.006778 0.000449 0.018143 0.000000 -0.012503 0.000000
# 4 0.000000 0.000000 0.000000 0.034869 0.000000 -0.008033
# 5 0.008162 -0.000656 -0.012503 0.000000 0.037208 0.000000
# 6 0.000000 0.000000 0.000000 -0.008033 0.000000 0.032143
#
#
# Mechanical properties :
#
#
# Convention : Reuss Voigt Hill
#
# Bulk Modulus (GPa) = 40.30388 42.24274 41.27331
# Shear Modulus (GPa) = 27.61168 32.89430 30.25299
#
# Velocity S-wave (km/s) = 3.42794 3.74151 3.58816
# Velocity P-wave (km/s) = 5.72887 6.05331 5.89333
#
# Compressibility (1/GPa) = 0.02481151
#
# Stress axis : x y z
#
# Youngs Moduli (GPa) = 60.83728 82.49440 55.11849
#
# Poissons Ratio (x) = 0.38080 0.37358
# Poissons Ratio (y) = 0.28083 -0.02473
# Poissons Ratio (z) = 0.41234 -0.03701
#
# Static dielectric constant tensor:
#      x y z
#    x 1.906270 0.000000 -0.011020 
#    y 0.000000 1.932500 0.000000 
#    z -0.011020 0.000000 1.936270 
# 
# From -- ./inp_files/291676.got.cif
#   From: 2010.05.17/outbox.cif.g08.bks.cpg/sg15_146_cif.got.tgz:291676.got - 2010.06.03 18:47:42.
