data_PCOD9270298
_publ_section_title
;
Structure prediction by ZEFSAII (Michael W. Deem and Ramdas Pophale) SiO2 
 PCOD9270298
Probable space group: C 2/C
;
_chemical_formula_sum "Si O2"
_cell_formula_units_Z 48
_cell_length_a 8.973367
_cell_length_b 19.875699
_cell_length_c 21.516155
_cell_angle_alpha 90.000000
_cell_angle_beta 36.980722
_cell_angle_gamma 90.000000
_cell_volume 2308.402567
_symmetry_space_group_name_H-M "C 2/C"
_symmetry_group_IT_number 15
_symmetry_cell_setting 'monoclinic'
loop_
_space_group_symop_operation_xyz
x,y,z
-x,y,1/2-z
-x,-y,-z
x,-y,1/2+z
1/2+x,1/2+y,z
1/2-x,1/2+y,1/2-z
1/2-x,1/2-y,-z
1/2+x,1/2-y,1/2+z
loop_
_atom_site_type_symbol
_atom_site_label
_atom_site_fract_x
_atom_site_fract_y
_atom_site_fract_z
Si Si1 0.500000 0.621451 0.250000
Si Si2 0.470753 0.188237 0.595272
Si Si3 0.528610 0.392226 0.548163
Si Si4 0.269922 0.807209 0.759422
Si Si5 0.315384 0.283127 0.543822
Si Si6 0.000000 0.091378 0.750000
Si Si7 0.795261 0.987016 0.913101
O O1 0.290798 0.665708 0.288075
O O2 0.632107 0.576260 0.154185
O O3 0.722012 0.149464 0.522557
O O4 0.406971 0.244888 0.666824
O O5 0.475468 0.229399 0.529267
O O6 0.243642 0.136589 0.673306
O O7 0.312167 0.366506 0.666463
O O8 0.432111 0.358641 0.514562
O O9 0.612954 0.465852 0.547425
O O10 0.552172 0.785572 0.666859
O O11 0.250000 0.250000 0.500000
O O12 0.048489 0.046318 0.672198
O O13 0.500000 0.000000 0.000000
#
# Coordination Sequence:
#
# PCOD9270298 Si02
#       7
#     4   8   8   8   8   4   8
#     4   9  22  34  58  96 112 159 210 260 306 385
#     4  11  20  38  58  88 124 156 205 262 315 381
#     4  10  21  38  59  87 122 161 210 258 305 378
#     4  10  20  35  57  88 126 155 197 255 329 374
#     4  11  23  34  58  96 125 162 195 256 332 380
#     4  11  20  36  60  94 114 165 216 256 310 371
#     4  10  20  36  61  87 119 164 218 256 295 366
#
# _framework density 20.793600000000001
#
# number of rings (size 3 to 8) (size 9 to 14) (size 15 to 20)
#    0.000    1.667    3.333    3.500    7.000    0.000 
#    0.000    0.000    0.000    4.000   34.667    0.000 
#    0.000    0.000    0.000    0.000    0.000    0.000 
#
# Total GULP energy -133612.803787 kJ/mol
# GULP energy per Si atom -5567.200158 kJ/mol
# Density = 2.074627 g / cm^3
# Si number density = 20.793600 Si / 1000 Ang^3
#
#
#
# Elastic Constant Matrix: (Units=GPa)
#
#
# Indices 1 2 3 4 5 6 
#
# 1 69.4579 25.2577 24.6657 0.0066 4.0336 0.0060
# 2 25.2577 77.6183 12.8311 -0.0031 6.3312 0.0012
# 3 24.6657 12.8311 70.6484 -0.0144 -14.5702 0.0057
# 4 0.0066 -0.0031 -0.0144 20.7034 0.0002 -10.8574
# 5 4.0336 6.3312 -14.5702 0.0002 25.4717 -0.0003
# 6 0.0060 0.0012 0.0057 -10.8574 -0.0003 35.8498
#
#
#
# Elastic Compliance Matrix: (Units=1/GPa)
#
#
# Indices 1 2 3 4 5 6 
#
# 1 0.018850 -0.004504 -0.006970 -0.000015 -0.005853 -0.000006
# 2 -0.004504 0.015023 -0.002017 0.000003 -0.004174 0.000001
# 3 -0.006970 -0.002017 0.019597 0.000017 0.012815 0.000003
# 4 -0.000015 0.000003 0.000017 0.057421 0.000011 0.017390
# 5 -0.005853 -0.004174 0.012815 0.000011 0.048554 0.000003
# 6 -0.000006 0.000001 0.000003 0.017390 0.000003 0.033161
#
#
# Mechanical properties :
#
#
# Convention : Reuss Voigt Hill
#
# Bulk Modulus (GPa) = 37.75284 38.13709 37.94496
# Shear Modulus (GPa) = 21.88956 26.73631 24.31293
#
# Velocity S-wave (km/s) = 3.24806 3.58969 3.42314
# Velocity P-wave (km/s) = 5.67996 5.96337 5.82339
#
# Compressibility (1/GPa) = 0.02648807
#
# Stress axis : x y z
#
# Youngs Moduli (GPa) = 53.04953 66.56349 51.02734
#
# Poissons Ratio (x) = 0.29983 0.35567
# Poissons Ratio (y) = 0.23896 0.10291
# Poissons Ratio (z) = 0.36977 0.13424
#
# Static dielectric constant tensor:
#      x y z
#    x 3.469800 0.000370 -0.598250 
#    y 0.000370 1.807060 -0.000140 
#    z -0.598250 -0.000140 1.985940 
# 
# From -- ./inp_files/191782.got.cif
#   From: 2010.05.17/outbox.cif.g08.bks.cpg/sg15_96_cif.got.tgz:191782.got - 2010.06.03 18:47:42.
