data_PCOD9270938
_publ_section_title
;
Structure prediction by ZEFSAII (Michael W. Deem and Ramdas Pophale) SiO2 
 PCOD9270938
Probable space group: C 2/C
;
_chemical_formula_sum "Si O2"
_cell_formula_units_Z 64
_cell_length_a 12.247250
_cell_length_b 27.570893
_cell_length_c 15.141169
_cell_angle_alpha 90.000000
_cell_angle_beta 38.433907
_cell_angle_gamma 90.000000
_cell_volume 3178.101988
_symmetry_space_group_name_H-M "C 2/C"
_symmetry_group_IT_number 15
_symmetry_cell_setting 'monoclinic'
loop_
_space_group_symop_operation_xyz
x,y,z
-x,y,1/2-z
-x,-y,-z
x,-y,1/2+z
1/2+x,1/2+y,z
1/2-x,1/2+y,1/2-z
1/2-x,1/2-y,-z
1/2+x,1/2-y,1/2+z
loop_
_atom_site_type_symbol
_atom_site_label
_atom_site_fract_x
_atom_site_fract_y
_atom_site_fract_z
Si Si1 0.862355 0.075365 0.266242
Si Si2 0.855341 0.570477 0.770354
Si Si3 0.980141 0.296918 0.905841
Si Si4 0.568227 0.523959 0.619311
Si Si5 0.513704 0.892938 0.492896
Si Si6 0.530824 0.401541 0.986247
Si Si7 0.804002 0.197022 0.067660
Si Si8 0.456621 0.015529 0.426640
O O1 0.672941 0.087576 0.424280
O O2 0.000000 0.094806 0.250000
O O3 0.928843 0.020355 0.204049
O O4 0.854509 0.097851 0.174508
O O5 0.662994 0.583955 0.924697
O O6 0.000000 0.586817 0.750000
O O7 0.862527 0.595396 0.668610
O O8 0.901823 0.513757 0.720781
O O9 0.825080 0.309884 0.934508
O O10 0.985684 0.337874 0.977363
O O11 0.165672 0.296369 0.736123
O O12 0.922040 0.244717 0.979432
O O13 0.500000 0.552162 0.750000
O O14 0.572478 0.557246 0.531563
O O15 0.762535 0.503336 0.514731
O O16 0.546991 0.926459 0.558676
O O17 0.569377 0.349209 0.002495
O O18 0.500000 0.000000 0.500000
#
# Coordination Sequence:
#
# PCOD9270938 Si02
#       8
#     8   8   8   8   8   8   8   8
#     4  11  22  39  60  84 124 170 214 259 307 366
#     4  11  23  39  58  90 129 172 213 256 308 364
#     4  10  22  44  66  96 124 156 194 254 326 379
#     4  11  21  36  58  92 131 168 212 260 307 368
#     4  11  21  39  64  86 122 169 207 252 310 372
#     4  12  23  39  62  97 123 165 218 261 309 377
#     4  10  23  42  67  96 125 153 197 254 320 388
#     4  10  20  36  55  86 128 172 206 248 304 366
#
# _framework density 20.137803999999999
#
# number of rings (size 3 to 8) (size 9 to 14) (size 15 to 20)
#    0.000    1.250    1.250    7.875    1.750    1.000 
#    4.500    0.000    0.000    4.500    0.000    0.000 
#    0.000    0.000    0.000    0.000    0.000    0.000 
#
# Total GULP energy -178570.292902 kJ/mol
# GULP energy per Si atom -5580.321653 kJ/mol
# Density = 2.009197 g / cm^3
# Si number density = 20.137804 Si / 1000 Ang^3
#
#
#
# Elastic Constant Matrix: (Units=GPa)
#
#
# Indices 1 2 3 4 5 6 
#
# 1 78.8192 41.3234 9.2457 0.0000 -4.7324 0.0000
# 2 41.3234 100.1265 9.1272 0.0000 -2.6882 0.0000
# 3 9.2457 9.1272 53.7249 0.0000 -4.6475 0.0000
# 4 0.0000 0.0000 0.0000 22.3293 0.0000 -3.7261
# 5 -4.7324 -2.6882 -4.6475 0.0000 38.5911 0.0000
# 6 0.0000 0.0000 0.0000 -3.7261 0.0000 15.5525
#
#
#
# Elastic Compliance Matrix: (Units=1/GPa)
#
#
# Indices 1 2 3 4 5 6 
#
# 1 0.016411 -0.006592 -0.001587 0.000000 0.001362 0.000000
# 2 -0.006592 0.012802 -0.001044 0.000000 -0.000042 0.000000
# 3 -0.001587 -0.001044 0.019241 0.000000 0.002050 0.000000
# 4 0.000000 0.000000 0.000000 0.046649 0.000000 0.011176
# 5 0.001362 -0.000042 0.002050 0.000000 0.026324 0.000000
# 6 0.000000 0.000000 0.000000 0.011176 0.000000 0.066976
#
#
# Mechanical properties :
#
#
# Convention : Reuss Voigt Hill
#
# Bulk Modulus (GPa) = 33.32325 39.11813 36.22069
# Shear Modulus (GPa) = 23.05727 26.82618 24.94172
#
# Velocity S-wave (km/s) = 3.38742 3.65380 3.52313
# Velocity P-wave (km/s) = 5.64650 6.10473 5.88008
#
# Compressibility (1/GPa) = 0.03000908
#
# Stress axis : x y z
#
# Youngs Moduli (GPa) = 60.93413 78.11303 51.97216
#
# Poissons Ratio (x) = 0.51491 0.08246
# Poissons Ratio (y) = 0.40167 0.05427
# Poissons Ratio (z) = 0.09667 0.08156
#
# Static dielectric constant tensor:
#      x y z
#    x 1.732250 0.000000 0.005170 
#    y 0.000000 1.714860 0.000000 
#    z 0.005170 0.000000 1.746050 
# 
# From -- ./inp_files/148754.got.cif
#   From: 2010.05.17/outbox.cif.g08.bks.cpg/sg15_75_cif.got.tgz:148754.got - 2010.06.03 18:47:42.
