data_PCOD9270489
_publ_section_title
;
Structure prediction by ZEFSAII (Michael W. Deem and Ramdas Pophale) SiO2 
 PCOD9270489
Probable space group: C 2/C
;
_chemical_formula_sum "Si O2"
_cell_formula_units_Z 36
_cell_length_a 10.207821
_cell_length_b 13.490625
_cell_length_c 20.221552
_cell_angle_alpha 90.000000
_cell_angle_beta 31.541012
_cell_angle_gamma 90.000000
_cell_volume 1456.704902
_symmetry_space_group_name_H-M "C 2/C"
_symmetry_group_IT_number 15
_symmetry_cell_setting 'monoclinic'
loop_
_space_group_symop_operation_xyz
x,y,z
-x,y,1/2-z
-x,-y,-z
x,-y,1/2+z
1/2+x,1/2+y,z
1/2-x,1/2+y,1/2-z
1/2-x,1/2-y,-z
1/2+x,1/2-y,1/2+z
loop_
_atom_site_type_symbol
_atom_site_label
_atom_site_fract_x
_atom_site_fract_y
_atom_site_fract_z
Si Si1 0.988642 0.394994 0.854659
Si Si2 0.430952 0.392400 0.564462
Si Si3 0.513284 0.865716 0.135928
Si Si4 0.000000 0.772830 0.750000
Si Si5 0.520487 0.881852 0.989252
O O1 0.766306 0.353206 0.904831
O O2 0.987306 0.515833 0.856070
O O3 0.260586 0.384350 0.703713
O O4 0.941851 0.356898 0.948694
O O5 0.500000 0.500000 0.500000
O O6 0.694988 0.344378 0.470993
O O7 0.373472 0.801948 0.251475
O O8 0.412999 0.844982 0.105431
O O9 0.805745 0.845484 0.868169
O O10 0.500000 0.000000 0.000000
#
# Coordination Sequence:
#
# PCOD9270489 Si02
#       5
#     8   8   8   4   8
#     4   9  18  34  56  84 120 162 200 239 291 353
#     4   9  16  30  54  84 118 158 200 239 288 353
#     4  10  20  35  59  88 116 154 203 247 291 348
#     4  12  22  38  64  90 118 156 202 254 300 356
#     4  10  22  38  58  87 120 156 198 245 300 360
#
# _framework density 24.713311000000001
#
# number of rings (size 3 to 8) (size 9 to 14) (size 15 to 20)
#    0.000    2.222    0.000    4.667    0.000    0.000 
#    0.000    1.111    0.000    5.333    0.000    0.000 
#    0.000    0.000    0.000    0.000    0.000    0.000 
#
# Total GULP energy -100293.620820 kJ/mol
# GULP energy per Si atom -5571.867823 kJ/mol
# Density = 2.465706 g / cm^3
# Si number density = 24.713311 Si / 1000 Ang^3
#
#
#
# Elastic Constant Matrix: (Units=GPa)
#
#
# Indices 1 2 3 4 5 6 
#
# 1 153.9852 19.2614 48.4546 0.0013 39.5371 0.0009
# 2 19.2614 113.1160 27.3605 0.0000 11.1265 -0.0002
# 3 48.4546 27.3605 79.4051 0.0025 25.4390 -0.0010
# 4 0.0013 0.0000 0.0025 34.2689 -0.0026 2.8636
# 5 39.5371 11.1265 25.4390 -0.0026 50.6891 -0.0001
# 6 0.0009 -0.0002 -0.0010 2.8636 -0.0001 18.2121
#
#
#
# Elastic Compliance Matrix: (Units=1/GPa)
#
#
# Indices 1 2 3 4 5 6 
#
# 1 0.009021 -0.000107 -0.003838 0.000000 -0.005087 -0.000001
# 2 -0.000107 0.009658 -0.003110 0.000000 -0.000475 0.000000
# 3 -0.003838 -0.003110 0.017671 -0.000002 -0.005192 0.000001
# 4 0.000000 0.000000 -0.000002 0.029569 0.000003 -0.004649
# 5 -0.005087 -0.000475 -0.005192 0.000003 0.026406 0.000000
# 6 -0.000001 0.000000 0.000001 -0.004649 0.000000 0.055640
#
#
# Mechanical properties :
#
#
# Convention : Reuss Voigt Hill
#
# Bulk Modulus (GPa) = 44.96702 59.62880 52.29791
# Shear Modulus (GPa) = 29.50044 37.39601 33.44823
#
# Velocity S-wave (km/s) = 3.45875 3.89420 3.68292
# Velocity P-wave (km/s) = 5.84685 6.66336 6.26841
#
# Compressibility (1/GPa) = 0.02223852
#
# Stress axis : x y z
#
# Youngs Moduli (GPa) = 110.84663 103.54372 56.59055
#
# Poissons Ratio (x) = 0.01112 0.21722
# Poissons Ratio (y) = 0.01190 0.17599
# Poissons Ratio (z) = 0.42548 0.32201
#
# Static dielectric constant tensor:
#      x y z
#    x 1.998740 0.000000 0.025870 
#    y 0.000000 2.005820 0.000000 
#    z 0.025870 0.000000 2.004470 
# 
# From -- ./inp_files/85855.got.cif
#   From: 2010.05.17/outbox.cif.g08.bks.cpg/sg15_43_cif.got.tgz:85855.got - 2010.06.03 18:47:42.
