data_PCOD9270652
_publ_section_title
;
Structure prediction by ZEFSAII (Michael W. Deem and Ramdas Pophale) SiO2 
 PCOD9270652
Probable space group: C 2/C
;
_chemical_formula_sum "Si O2"
_cell_formula_units_Z 64
_cell_length_a 16.455585
_cell_length_b 8.017764
_cell_length_c 24.152688
_cell_angle_alpha 90.000000
_cell_angle_beta 108.170705
_cell_angle_gamma 90.000000
_cell_volume 3027.720900
_symmetry_space_group_name_H-M "C 2/C"
_symmetry_group_IT_number 15
_symmetry_cell_setting 'monoclinic'
loop_
_space_group_symop_operation_xyz
x,y,z
-x,y,1/2-z
-x,-y,-z
x,-y,1/2+z
1/2+x,1/2+y,z
1/2-x,1/2+y,1/2-z
1/2-x,1/2-y,-z
1/2+x,1/2-y,1/2+z
loop_
_atom_site_type_symbol
_atom_site_label
_atom_site_fract_x
_atom_site_fract_y
_atom_site_fract_z
Si Si1 0.006084 0.594268 0.378998
Si Si2 0.211055 0.164300 0.079372
Si Si3 0.828477 0.590000 0.551228
Si Si4 0.226061 0.948486 0.188043
Si Si5 0.127330 0.496419 0.560471
Si Si6 0.387366 0.665417 0.653631
Si Si7 0.869012 0.673247 0.266353
Si Si8 0.797846 0.159254 0.134122
O O1 0.957614 0.556420 0.425616
O O2 0.937688 0.568499 0.315582
O O3 0.091985 0.485189 0.396606
O O4 0.040938 0.781139 0.374957
O O5 0.140363 0.305008 0.052766
O O6 0.296660 0.269845 0.110954
O O7 0.246187 0.032754 0.041443
O O8 0.189319 0.057390 0.129458
O O9 0.860370 0.590855 0.495681
O O10 0.808461 0.765223 0.574982
O O11 0.157109 0.840114 0.205942
O O12 0.290286 0.815423 0.173239
O O13 0.282436 0.068139 0.238382
O O14 0.205661 0.431560 0.615475
O O15 0.401340 0.766877 0.713253
O O16 0.372256 0.471709 0.661753
#
# Coordination Sequence:
#
# PCOD9270652 Si02
#       8
#     8   8   8   8   8   8   8   8
#     4  11  23  39  56  87 123 155 193 245 303 358
#     4   8  19  36  61  87 117 151 202 242 289 360
#     4  10  21  39  61  88 123 158 200 248 303 357
#     4  10  20  35  61  92 112 146 203 253 291 360
#     4  11  20  38  64  87 118 163 202 248 298 348
#     4   9  20  38  57  80 121 157 185 240 306 354
#     4  11  21  37  62  83 120 155 192 243 309 356
#     4  10  20  40  59  90 114 153 205 250 286 363
#
# _framework density 21.138012
#
# number of rings (size 3 to 8) (size 9 to 14) (size 15 to 20)
#    0.000    2.000    1.250    3.000    3.500    0.000 
#    2.250    1.875    0.000    0.000    0.000    0.000 
#    0.000    0.000    0.000    0.000    0.000    0.000 
#
# Total GULP energy -178563.927128 kJ/mol
# GULP energy per Si atom -5580.122723 kJ/mol
# Density = 2.108990 g / cm^3
# Si number density = 21.138012 Si / 1000 Ang^3
#
#
#
# Elastic Constant Matrix: (Units=GPa)
#
#
# Indices 1 2 3 4 5 6 
#
# 1 80.6788 26.5986 17.9151 0.0000 -16.4663 0.0000
# 2 26.5986 52.5595 13.6862 0.0000 -8.3555 0.0000
# 3 17.9151 13.6862 56.2809 0.0000 -16.5087 0.0000
# 4 0.0000 0.0000 0.0000 21.0483 0.0000 -0.6487
# 5 -16.4663 -8.3555 -16.5087 0.0000 27.7449 0.0000
# 6 0.0000 0.0000 0.0000 -0.6487 0.0000 25.0272
#
#
#
# Elastic Compliance Matrix: (Units=1/GPa)
#
#
# Indices 1 2 3 4 5 6 
#
# 1 0.016359 -0.006798 -0.001583 0.000000 0.006720 0.000000
# 2 -0.006798 0.023483 -0.003217 0.000000 0.001123 0.000000
# 3 -0.001583 -0.003217 0.022405 0.000000 0.011423 0.000000
# 4 0.000000 0.000000 0.000000 0.047548 0.000000 0.001232
# 5 0.006720 0.001123 0.011423 0.000000 0.047166 0.000000
# 6 0.000000 0.000000 0.000000 0.001232 0.000000 0.039988
#
#
# Mechanical properties :
#
#
# Convention : Reuss Voigt Hill
#
# Bulk Modulus (GPa) = 25.60833 33.99098 29.79965
# Shear Modulus (GPa) = 21.44431 23.51872 22.48152
#
# Velocity S-wave (km/s) = 3.18856 3.33923 3.26476
# Velocity P-wave (km/s) = 5.06922 5.56621 5.32352
#
# Compressibility (1/GPa) = 0.03904979
#
# Stress axis : x y z
#
# Youngs Moduli (GPa) = 61.12795 42.58459 44.63310
#
# Poissons Ratio (x) = 0.28950 0.07066
# Poissons Ratio (y) = 0.41557 0.14359
# Poissons Ratio (z) = 0.09677 0.13700
#
# Static dielectric constant tensor:
#      x y z
#    x 1.765980 0.000000 0.012070 
#    y 0.000000 1.787630 0.000000 
#    z 0.012070 0.000000 1.807850 
# 
# From -- ./inp_files/276299.got.cif
#   From: 2010.05.17/outbox.cif.g08.bks.cpg/sg15_139_cif.got.tgz:276299.got - 2010.06.03 18:47:42.
