data_PCOD9270141
_publ_section_title
;
Structure prediction by ZEFSAII (Michael W. Deem and Ramdas Pophale) SiO2 
 PCOD9270141
Probable space group: C 2/C
;
_chemical_formula_sum "Si O2"
_cell_formula_units_Z 48
_cell_length_a 17.208014
_cell_length_b 8.719553
_cell_length_c 28.456133
_cell_angle_alpha 90.000000
_cell_angle_beta 34.080461
_cell_angle_gamma 90.000000
_cell_volume 2392.573720
_symmetry_space_group_name_H-M "C 2/C"
_symmetry_group_IT_number 15
_symmetry_cell_setting 'monoclinic'
loop_
_space_group_symop_operation_xyz
x,y,z
-x,y,1/2-z
-x,-y,-z
x,-y,1/2+z
1/2+x,1/2+y,z
1/2-x,1/2+y,1/2-z
1/2-x,1/2-y,-z
1/2+x,1/2-y,1/2+z
loop_
_atom_site_type_symbol
_atom_site_label
_atom_site_fract_x
_atom_site_fract_y
_atom_site_fract_z
Si Si1 0.764926 0.912525 0.368422
Si Si2 0.500000 0.829822 0.750000
Si Si3 0.196890 0.325234 0.301803
Si Si4 0.000000 0.157451 0.250000
Si Si5 0.191350 0.506865 0.504721
Si Si6 0.941887 0.614619 0.178064
Si Si7 0.948836 0.191923 0.381609
O O1 0.871998 0.778372 0.329207
O O2 0.681679 0.854881 0.365027
O O3 0.867780 0.051528 0.303016
O O4 0.678755 0.966763 0.456283
O O5 0.548384 0.918651 0.771412
O O6 0.144493 0.478104 0.302636
O O7 0.354974 0.270649 0.215644
O O8 0.099151 0.191064 0.329961
O O9 0.959578 0.231864 0.320408
O O10 0.124583 0.669663 0.553268
O O11 0.354283 0.539624 0.432347
O O12 0.097428 0.386501 0.579827
#
# Coordination Sequence:
#
# PCOD9270141 Si02
#       7
#     8   4   8   4   8   8   8
#     4   9  18  34  54  76 108 149 184 218 274 339
#     4   9  20  37  54  76 110 148 180 218 280 342
#     4  10  20  35  56  81 110 144 184 228 272 323
#     4   9  16  31  54  76 106 150 188 218 268 338
#     4   9  19  34  54  81 111 144 183 226 272 324
#     4  10  21  37  57  81 110 144 184 228 273 325
#     4   9  18  32  53  82 111 141 183 230 271 317
#
# _framework density 20.062078
#
# number of rings (size 3 to 8) (size 9 to 14) (size 15 to 20)
#    0.000    2.667    0.000    1.000    0.000    7.333 
#    0.000    5.000    0.000    4.000    0.000    0.000 
#    0.000    0.000    0.000    0.000    0.000    0.000 
#
# Total GULP energy -133636.086420 kJ/mol
# GULP energy per Si atom -5568.170268 kJ/mol
# Density = 2.001642 g / cm^3
# Si number density = 20.062078 Si / 1000 Ang^3
#
#
#
# Elastic Constant Matrix: (Units=GPa)
#
#
# Indices 1 2 3 4 5 6 
#
# 1 140.8386 30.6878 49.5121 -0.0002 14.8240 -0.0003
# 2 30.6878 39.7304 29.6375 -0.0003 12.9509 -0.0005
# 3 49.5121 29.6375 110.6412 0.0000 23.0593 0.0000
# 4 -0.0002 -0.0003 0.0000 -1.8784 0.0000 -37.9447
# 5 14.8240 12.9509 23.0593 0.0000 24.8080 0.0001
# 6 -0.0003 -0.0005 0.0000 -37.9447 0.0001 -27.6954
#
#
#
# Elastic Compliance Matrix: (Units=1/GPa)
#
#
# Indices 1 2 3 4 5 6 
#
# 1 0.009166 -0.004941 -0.002697 0.000000 -0.000391 0.000000
# 2 -0.004941 0.036565 -0.005235 0.000000 -0.011270 0.000000
# 3 -0.002697 -0.005235 0.013323 0.000000 -0.008039 0.000000
# 4 0.000000 0.000000 0.000000 0.019957 0.000000 -0.027342
# 5 -0.000391 -0.011270 -0.008039 0.000000 0.053900 0.000000
# 6 0.000000 0.000000 0.000000 -0.027342 0.000000 0.001354
#
#
# Mechanical properties :
#
#
# Convention : Reuss Voigt Hill
#
# Bulk Modulus (GPa) = 30.02183 56.76499 43.39341
# Shear Modulus (GPa) = 29.22082 11.13836 20.17959
#
# Velocity S-wave (km/s) = 3.82058 2.35881 3.17497
# Velocity P-wave (km/s) = 5.87021 5.98120 5.92597
#
# Compressibility (1/GPa) = 0.03330910
#
# Stress axis : x y z
#
# Youngs Moduli (GPa) = 109.09736 27.34892 75.05913
#
# Poissons Ratio (x) = 0.13512 0.20242
# Poissons Ratio (y) = 0.53901 0.39291
# Poissons Ratio (z) = 0.29422 0.14316
#
# Static dielectric constant tensor:
#      x y z
#    x 1.705720 0.000000 -0.034390 
#    y 0.000000 1.739330 0.000000 
#    z -0.034390 0.000000 1.765050 
# 
# From -- ./inp_files/208581.got.cif
#   From: 2010.05.17/outbox.cif.g08.bks.cpg/sg15_105_cif.got.tgz:208581.got - 2010.06.03 18:47:42.
