data_PCOD9270088
_publ_section_title
;
Structure prediction by ZEFSAII (Michael W. Deem and Ramdas Pophale) SiO2 
 PCOD9270088
Probable space group: C 2/C
;
_chemical_formula_sum "Si O2"
_cell_formula_units_Z 44
_cell_length_a 15.802214
_cell_length_b 8.589417
_cell_length_c 18.344754
_cell_angle_alpha 90.000000
_cell_angle_beta 114.241250
_cell_angle_gamma 90.000000
_cell_volume 2270.413173
_symmetry_space_group_name_H-M "C 2/C"
_symmetry_group_IT_number 15
_symmetry_cell_setting 'monoclinic'
loop_
_space_group_symop_operation_xyz
x,y,z
-x,y,1/2-z
-x,-y,-z
x,-y,1/2+z
1/2+x,1/2+y,z
1/2-x,1/2+y,1/2-z
1/2-x,1/2-y,-z
1/2+x,1/2-y,1/2+z
loop_
_atom_site_type_symbol
_atom_site_label
_atom_site_fract_x
_atom_site_fract_y
_atom_site_fract_z
Si Si1 0.500000 0.890992 0.750000
Si Si2 0.671673 0.239324 0.532165
Si Si3 0.649163 0.099138 0.744414
Si Si4 0.478006 0.317398 0.387128
Si Si5 0.338679 0.416132 0.818728
Si Si6 0.904529 0.463773 0.926037
O O1 0.508507 0.777346 0.683453
O O2 0.589541 0.006320 0.783749
O O3 0.750000 0.250000 0.500000
O O4 0.575113 0.303493 0.463981
O O5 0.683992 0.330557 0.612626
O O6 0.668533 0.055865 0.551799
O O7 0.653726 0.285380 0.741699
O O8 0.752248 0.030082 0.774154
O O9 0.596066 0.050421 0.651573
O O10 0.433182 0.485046 0.358558
O O11 0.402952 0.217857 0.407963
O O12 0.000000 0.500000 0.000000
#
# Coordination Sequence:
#
# PCOD9270088 Si02
#       6
#     4   8   8   8   8   8
#     4  10  20  36  58  84 112 146 190 244 288 342
#     4  10  20  36  59  85 113 148 193 241 285 341
#     4  10  20  35  55  81 112 148 191 235 286 341
#     4  10  20  37  58  83 117 154 189 231 289 350
#     4  11  22  37  57  82 115 157 193 235 291 348
#     4   8  17  34  55  76 107 147 179 222 284 338
#
# _framework density 19.379732000000001
#
# number of rings (size 3 to 8) (size 9 to 14) (size 15 to 20)
#    0.000    2.182    0.000    3.818    0.000    2.182 
#    0.000    2.727    0.000    0.000    0.000    0.000 
#    0.000    0.000    0.000    0.000    0.000    0.000 
#
# Total GULP energy -122520.289310 kJ/mol
# GULP energy per Si atom -5569.104060 kJ/mol
# Density = 1.933562 g / cm^3
# Si number density = 19.379732 Si / 1000 Ang^3
#
#
#
# Elastic Constant Matrix: (Units=GPa)
#
#
# Indices 1 2 3 4 5 6 
#
# 1 79.9489 33.7897 9.6955 0.0000 -12.1061 0.0000
# 2 33.7897 93.2711 19.4375 0.0000 3.5427 0.0000
# 3 9.6955 19.4375 66.7063 0.0000 2.0251 0.0000
# 4 0.0000 0.0000 0.0000 27.2978 0.0000 6.0358
# 5 -12.1061 3.5427 2.0251 0.0000 26.3052 0.0000
# 6 0.0000 0.0000 0.0000 6.0358 0.0000 24.0538
#
#
#
# Elastic Compliance Matrix: (Units=1/GPa)
#
#
# Indices 1 2 3 4 5 6 
#
# 1 0.016479 -0.006110 -0.000872 0.000000 0.008474 0.000000
# 2 -0.006110 0.013724 -0.002976 0.000000 -0.004431 0.000000
# 3 -0.000872 -0.002976 0.016023 0.000000 -0.001234 0.000000
# 4 0.000000 0.000000 0.000000 0.038785 0.000000 -0.009732
# 5 0.008474 -0.004431 -0.001234 0.000000 0.042607 0.000000
# 6 0.000000 0.000000 0.000000 -0.009732 0.000000 0.044016
#
#
# Mechanical properties :
#
#
# Convention : Reuss Voigt Hill
#
# Bulk Modulus (GPa) = 38.01056 40.64128 39.32592
# Shear Modulus (GPa) = 24.96014 27.33160 26.14587
#
# Velocity S-wave (km/s) = 3.59270 3.75950 3.67704
# Velocity P-wave (km/s) = 6.07175 6.31361 6.19386
#
# Compressibility (1/GPa) = 0.02630848
#
# Stress axis : x y z
#
# Youngs Moduli (GPa) = 60.68206 72.86749 62.41204
#
# Poissons Ratio (x) = 0.44523 0.05442
# Poissons Ratio (y) = 0.37078 0.18576
# Poissons Ratio (z) = 0.05292 0.21687
#
# Static dielectric constant tensor:
#      x y z
#    x 1.680860 0.000000 0.001040 
#    y 0.000000 1.719430 0.000000 
#    z 0.001040 0.000000 1.693370 
# 
# From -- ./inp_files/159218.got.cif
#   From: 2010.05.17/outbox.cif.g08.bks.cpg/sg15_80_cif.got.tgz:159218.got - 2010.06.03 18:47:42.
