data_PCOD9270257
_publ_section_title
;
Structure prediction by ZEFSAII (Michael W. Deem and Ramdas Pophale) SiO2 
 PCOD9270257
Probable space group: C 2/C
;
_chemical_formula_sum "Si O2"
_cell_formula_units_Z 56
_cell_length_a 26.180743
_cell_length_b 21.547249
_cell_length_c 18.202770
_cell_angle_alpha 90.000000
_cell_angle_beta 17.008630
_cell_angle_gamma 90.000000
_cell_volume 3003.727442
_symmetry_space_group_name_H-M "C 2/C"
_symmetry_group_IT_number 15
_symmetry_cell_setting 'monoclinic'
loop_
_space_group_symop_operation_xyz
x,y,z
-x,y,1/2-z
-x,-y,-z
x,-y,1/2+z
1/2+x,1/2+y,z
1/2-x,1/2+y,1/2-z
1/2-x,1/2-y,-z
1/2+x,1/2-y,1/2+z
loop_
_atom_site_type_symbol
_atom_site_label
_atom_site_fract_x
_atom_site_fract_y
_atom_site_fract_z
Si Si1 0.953594 0.692986 0.179139
Si Si2 0.932998 0.242122 0.114743
Si Si3 0.557490 0.798576 0.085966
Si Si4 0.114814 0.428701 0.517600
Si Si5 0.618173 0.936713 0.014162
Si Si6 0.449262 0.673443 0.739456
Si Si7 0.499131 0.393134 0.480620
O O1 0.760630 0.678241 0.474544
O O2 0.015780 0.755861 0.134921
O O3 0.066702 0.631888 0.037017
O O4 0.952522 0.713964 0.095571
O O5 0.744942 0.235311 0.333968
O O6 0.935381 0.266254 0.194266
O O7 0.005612 0.172364 0.014421
O O8 0.500000 0.798652 0.250000
O O9 0.574411 0.870508 0.038111
O O10 0.082565 0.496576 0.526525
O O11 0.318378 0.426425 0.258151
O O12 0.000000 0.424148 0.750000
O O13 0.825765 0.929381 0.743105
O O14 0.500000 0.938107 0.250000
O O15 0.500000 0.651601 0.750000
O O16 0.514202 0.628571 0.585969
#
# Coordination Sequence:
#
# PCOD9270257 Si02
#       7
#     8   8   8   8   8   8   8
#     4  10  21  32  53  85 118 146 181 226 284 352
#     4  10  21  33  57  83 111 141 180 234 293 337
#     4  10  20  38  56  81 106 143 189 239 282 331
#     4  11  19  35  54  82 112 153 193 226 275 342
#     4   9  21  36  56  78 109 150 196 237 273 329
#     4  10  21  32  53  84 119 149 176 230 287 346
#     4  10  20  35  57  84 111 148 188 236 283 336
#
# _framework density 18.643502999999999
#
# number of rings (size 3 to 8) (size 9 to 14) (size 15 to 20)
#    0.000    2.000    1.429    2.143   10.000    0.000 
#    0.000    0.714    0.000    0.000    0.000    0.000 
#    0.000    0.000    0.000    0.000    0.000    0.000 
#
# Total GULP energy -156025.516614 kJ/mol
# GULP energy per Si atom -5572.339879 kJ/mol
# Density = 1.860107 g / cm^3
# Si number density = 18.643503 Si / 1000 Ang^3
#
#
#
# Elastic Constant Matrix: (Units=GPa)
#
#
# Indices 1 2 3 4 5 6 
#
# 1 54.0355 41.3721 5.4624 -0.0164 3.4069 -0.0034
# 2 41.3721 113.0740 24.7046 0.1917 -1.2557 0.0296
# 3 5.4624 24.7046 102.8806 0.2952 0.8526 0.0500
# 4 -0.0164 0.1917 0.2952-1080.5420 -0.0212 -184.8530
# 5 3.4069 -1.2557 0.8526 -0.0212 17.4653 -0.0066
# 6 -0.0034 0.0296 0.0500 -184.8530 -0.0066 -21.8168
#
#
#
# Elastic Compliance Matrix: (Units=1/GPa)
#
#
# Indices 1 2 3 4 5 6 
#
# 1 0.026391 -0.009948 0.001037 -0.000001 -0.005914 -0.000003
# 2 -0.009948 0.013094 -0.002641 0.000001 0.003011 0.000004
# 3 0.001037 -0.002641 0.010307 0.000002 -0.000895 0.000000
# 4 -0.000001 0.000001 0.000002 0.002059 -0.000004 -0.017444
# 5 -0.005914 0.003011 -0.000895 -0.000004 0.058670 0.000018
# 6 -0.000003 0.000004 0.000000 -0.017444 0.000018 0.101970
#
#
# Mechanical properties :
#
#
# Convention : Reuss Voigt Hill
#
# Bulk Modulus (GPa) = 37.47198 45.89649 41.68423
# Shear Modulus (GPa) = 20.45056 -203.74864 -91.64904
#
# Velocity S-wave (km/s) = 3.31558 -10.46537 -7.01893
# Velocity P-wave (km/s) = 5.89918 11.01637 6.57876
#
# Compressibility (1/GPa) = 0.02668661
#
# Stress axis : x y z
#
# Youngs Moduli (GPa) = 37.89120 76.36973 97.02552
#
# Poissons Ratio (x) = 0.75975 -0.10058
# Poissons Ratio (y) = 0.37696 0.25625
# Poissons Ratio (z) = -0.03928 0.20170
#
# Static dielectric constant tensor:
#      x y z
#    x 1.623950 0.000000 0.004090 
#    y 0.000000 1.652320 0.000010 
#    z 0.004090 0.000010 1.704840 
# 
# From -- ./inp_files/223086.got.cif
#   From: 2010.05.17/outbox.cif.g08.bks.cpg/sg15_112_cif.got.tgz:223086.got - 2010.06.03 18:47:42.
