data_PCOD9270896
_publ_section_title
;
Structure prediction by ZEFSAII (Michael W. Deem and Ramdas Pophale) SiO2 
 PCOD9270896
Probable space group: C 2/C
;
_chemical_formula_sum "Si O2"
_cell_formula_units_Z 40
_cell_length_a 24.806295
_cell_length_b 9.408585
_cell_length_c 29.702757
_cell_angle_alpha 90.000000
_cell_angle_beta 18.765255
_cell_angle_gamma 90.000000
_cell_volume 2230.091410
_symmetry_space_group_name_H-M "C 2/C"
_symmetry_group_IT_number 15
_symmetry_cell_setting 'monoclinic'
loop_
_space_group_symop_operation_xyz
x,y,z
-x,y,1/2-z
-x,-y,-z
x,-y,1/2+z
1/2+x,1/2+y,z
1/2-x,1/2+y,1/2-z
1/2-x,1/2-y,-z
1/2+x,1/2-y,1/2+z
loop_
_atom_site_type_symbol
_atom_site_label
_atom_site_fract_x
_atom_site_fract_y
_atom_site_fract_z
Si Si1 0.047385 0.510465 0.910406
Si Si2 0.670311 0.164477 0.981947
Si Si3 0.379401 0.669512 0.134533
Si Si4 0.459992 0.861735 0.732314
Si Si5 0.884382 0.079782 0.029456
O O1 0.200179 0.403178 0.782019
O O2 0.106958 0.672771 0.857008
O O3 0.898023 0.461217 0.995507
O O4 0.000000 0.500000 0.000000
O O5 0.619509 0.143595 0.073761
O O6 0.570525 0.307615 0.044970
O O7 0.860775 0.212393 0.820727
O O8 0.412611 0.660047 0.054520
O O9 0.512293 0.563487 0.052117
O O10 0.500000 0.920601 0.750000
O O11 0.313769 0.945945 0.821323
#
# Coordination Sequence:
#
# PCOD9270896 Si02
#       5
#     8   8   8   8   8
#     4  12  22  33  56  82 117 153 182 226 289 345
#     4  10  20  36  54  87 109 145 193 233 279 338
#     4  11  22  36  52  84 119 148 181 229 284 350
#     4  10  20  36  60  81 107 145 197 244 276 321
#     4   9  21  35  55  78 115 144 185 227 285 331
#
# _framework density 17.936485000000001
#
# number of rings (size 3 to 8) (size 9 to 14) (size 15 to 20)
#    1.200    0.400    4.000    1.800    5.600    0.000 
#    0.000    0.000    0.000    2.400    0.000    0.000 
#    0.000    0.000    0.000    0.000    0.000    0.000 
#
# Total GULP energy -111359.801377 kJ/mol
# GULP energy per Si atom -5567.990069 kJ/mol
# Density = 1.789566 g / cm^3
# Si number density = 17.936485 Si / 1000 Ang^3
#
#
#
# Elastic Constant Matrix: (Units=GPa)
#
#
# Indices 1 2 3 4 5 6 
#
# 1 69.1010 6.8330 -7.0514 -0.0006 10.3012 0.0000
# 2 6.8330 73.9393 5.0993 -0.0007 -6.9639 0.0005
# 3 -7.0514 5.0993 25.2555 0.0035 8.0368 0.0101
# 4 -0.0006 -0.0007 0.0035 25.8204 0.0025 -3.4052
# 5 10.3012 -6.9639 8.0368 0.0025 36.9471 0.0010
# 6 0.0000 0.0005 0.0101 -3.4052 0.0010 14.7052
#
#
#
# Elastic Compliance Matrix: (Units=1/GPa)
#
#
# Indices 1 2 3 4 5 6 
#
# 1 0.016468 -0.002650 0.007255 -0.000001 -0.006669 -0.000005
# 2 -0.002650 0.014558 -0.005144 0.000001 0.004602 0.000003
# 3 0.007255 -0.005144 0.046855 -0.000009 -0.013184 -0.000033
# 4 -0.000001 0.000001 -0.000009 0.039949 0.000000 0.009251
# 5 -0.006669 0.004602 -0.013184 0.000000 0.032660 0.000006
# 6 -0.000005 0.000003 -0.000033 0.009251 0.000006 0.070146
#
#
# Mechanical properties :
#
#
# Convention : Reuss Voigt Hill
#
# Bulk Modulus (GPa) = 13.02018 19.78416 16.40217
# Shear Modulus (GPa) = 20.21714 26.38885 23.30299
#
# Velocity S-wave (km/s) = 3.36095 3.83983 3.60835
# Velocity P-wave (km/s) = 4.72611 5.54195 5.15021
#
# Compressibility (1/GPa) = 0.07680387
#
# Stress axis : x y z
#
# Youngs Moduli (GPa) = 60.72289 68.69221 21.34234
#
# Poissons Ratio (x) = 0.18206 -0.15485
# Poissons Ratio (y) = 0.16094 0.10978
# Poissons Ratio (z) = -0.44057 0.35333
#
# Static dielectric constant tensor:
#      x y z
#    x 1.650250 0.000000 0.010790 
#    y 0.000000 1.617220 0.000000 
#    z 0.010790 0.000000 1.698750 
# 
# From -- ./inp_files/125247.got.cif
#   From: 2010.05.17/outbox.cif.g08.bks.cpg/sg15_63_cif.got.tgz:125247.got - 2010.06.03 18:47:42.
