data_PCOD9270493
_publ_section_title
;
Structure prediction by ZEFSAII (Michael W. Deem and Ramdas Pophale) SiO2 
 PCOD9270493
Probable space group: C 2/C
;
_chemical_formula_sum "Si O2"
_cell_formula_units_Z 64
_cell_length_a 15.958861
_cell_length_b 22.945593
_cell_length_c 14.010803
_cell_angle_alpha 90.000000
_cell_angle_beta 152.339938
_cell_angle_gamma 90.000000
_cell_volume 2381.729929
_symmetry_space_group_name_H-M "C 2/C"
_symmetry_group_IT_number 15
_symmetry_cell_setting 'monoclinic'
loop_
_space_group_symop_operation_xyz
x,y,z
-x,y,1/2-z
-x,-y,-z
x,-y,1/2+z
1/2+x,1/2+y,z
1/2-x,1/2+y,1/2-z
1/2-x,1/2-y,-z
1/2+x,1/2-y,1/2+z
loop_
_atom_site_type_symbol
_atom_site_label
_atom_site_fract_x
_atom_site_fract_y
_atom_site_fract_z
Si Si1 0.583934 0.668679 0.729349
Si Si2 0.083013 0.396621 0.730912
Si Si3 0.940219 0.921598 0.577410
Si Si4 0.049458 0.288761 0.962307
Si Si5 0.967583 0.954439 0.103829
Si Si6 0.554839 0.936791 0.094358
Si Si7 0.137018 0.798695 0.975653
Si Si8 0.513239 0.176851 0.894167
O O1 0.500000 0.665233 0.750000
O O2 0.787720 0.691379 0.940132
O O3 0.489629 0.721150 0.579469
O O4 0.564853 0.604021 0.667183
O O5 0.000000 0.409239 0.750000
O O6 0.116252 0.328081 0.744332
O O7 0.936971 0.408696 0.502074
O O8 0.258059 0.435085 0.885825
O O9 0.732178 0.937075 0.339208
O O10 0.949641 0.853912 0.555208
O O11 0.000000 0.919050 0.750000
O O12 0.030200 0.981781 0.629596
O O13 0.091547 0.305881 0.113172
O O14 0.000000 0.958950 0.250000
O O15 0.426890 0.889997 0.024632
O O16 0.500000 0.000000 0.000000
O O17 0.000000 0.792968 0.750000
O O18 0.145009 0.732145 0.020938
O O19 0.338567 0.820353 0.147878
#
# Coordination Sequence:
#
# PCOD9270493 Si02
#       8
#     8   8   8   8   8   8   8   8
#     4  11  21  35  57  88 126 169 224 272 325 395
#     4  11  21  36  62  92 130 171 219 273 331 395
#     4   9  19  38  67  93 127 173 220 276 342 396
#     4  11  22  37  58  88 128 169 221 276 335 393
#     4  10  20  35  59  88 124 171 219 264 335 395
#     4  10  20  39  64  93 127 173 218 266 332 404
#     4  10  20  39  67  93 125 164 218 276 339 400
#     4  10  22  38  64  90 127 165 211 272 338 388
#
# _framework density 26.871224000000002
#
# number of rings (size 3 to 8) (size 9 to 14) (size 15 to 20)
#    0.000    1.750    1.250    4.125    0.000    1.000 
#    0.000    0.625   13.750   13.500    0.000    0.000 
#    0.000    0.000    0.000    0.000    0.000    0.000 
#
# Total GULP energy -178321.801413 kJ/mol
# GULP energy per Si atom -5572.556294 kJ/mol
# Density = 2.681006 g / cm^3
# Si number density = 26.871224 Si / 1000 Ang^3
#
#
#
# Elastic Constant Matrix: (Units=GPa)
#
#
# Indices 1 2 3 4 5 6 
#
# 1 20.5653 12.5813 7.9938 0.0000 -4.3973 0.0000
# 2 12.5813 281.9967 30.1762 0.0000 6.7797 0.0000
# 3 7.9938 30.1762 111.4156 0.0000 -4.5300 0.0000
# 4 0.0000 0.0000 0.0000 -10.2517 0.0000 -9.0153
# 5 -4.3973 6.7797 -4.5300 0.0000 26.6076 0.0000
# 6 0.0000 0.0000 0.0000 -9.0153 0.0000 22.5574
#
#
#
# Elastic Compliance Matrix: (Units=1/GPa)
#
#
# Indices 1 2 3 4 5 6 
#
# 1 0.053011 -0.002276 -0.002827 0.000000 0.008859 0.000000
# 2 -0.002276 0.003782 -0.000922 0.000000 -0.001497 0.000000
# 3 -0.002827 -0.000922 0.009484 0.000000 0.001382 0.000000
# 4 0.000000 0.000000 0.000000 -0.072177 0.000000 -0.028847
# 5 0.008859 -0.001497 0.001382 0.000000 0.039664 0.000000
# 6 0.000000 0.000000 0.000000 -0.028847 0.000000 0.032802
#
#
# Mechanical properties :
#
#
# Convention : Reuss Voigt Hill
#
# Bulk Modulus (GPa) = 18.44052 57.27559 37.85806
# Shear Modulus (GPa) = 51.71088 31.99776 41.85432
#
# Velocity S-wave (km/s) = 4.39155 3.45451 3.95091
# Velocity P-wave (km/s) = 5.70892 6.10514 5.91035
#
# Compressibility (1/GPa) = 0.05422840
#
# Stress axis : x y z
#
# Youngs Moduli (GPa) = 18.86407 264.38839 105.43912
#
# Poissons Ratio (x) = 0.60164 0.29806
# Poissons Ratio (y) = 0.04293 0.09722
# Poissons Ratio (z) = 0.05333 0.24377
#
# Static dielectric constant tensor:
#      x y z
#    x 2.183260 0.000000 -0.015550 
#    y 0.000000 2.334760 0.000000 
#    z -0.015550 0.000000 2.263140 
# 
# From -- ./inp_files/216974.got.cif
#   From: 2010.05.17/outbox.cif.g08.bks.cpg/sg15_109_cif.got.tgz:216974.got - 2010.06.03 18:47:42.
