data_PCOD9270843
_publ_section_title
;
Structure prediction by ZEFSAII (Michael W. Deem and Ramdas Pophale) SiO2 
 PCOD9270843
Probable space group: C 2/C
;
_chemical_formula_sum "Si O2"
_cell_formula_units_Z 52
_cell_length_a 26.278493
_cell_length_b 14.798841
_cell_length_c 20.017677
_cell_angle_alpha 90.000000
_cell_angle_beta 158.053418
_cell_angle_gamma 90.000000
_cell_volume 2909.469047
_symmetry_space_group_name_H-M "C 2/C"
_symmetry_group_IT_number 15
_symmetry_cell_setting 'monoclinic'
loop_
_space_group_symop_operation_xyz
x,y,z
-x,y,1/2-z
-x,-y,-z
x,-y,1/2+z
1/2+x,1/2+y,z
1/2-x,1/2+y,1/2-z
1/2-x,1/2-y,-z
1/2+x,1/2-y,1/2+z
loop_
_atom_site_type_symbol
_atom_site_label
_atom_site_fract_x
_atom_site_fract_y
_atom_site_fract_z
Si Si1 0.397271 0.480922 0.570208
Si Si2 0.765148 0.226823 0.704544
Si Si3 0.500000 0.660645 0.750000
Si Si4 0.118881 0.039717 0.600090
Si Si5 0.437907 0.787043 0.785851
Si Si6 0.366646 0.904819 0.884798
Si Si7 0.093303 0.518525 0.213980
O O1 0.500000 0.441859 0.750000
O O2 0.421880 0.590027 0.606528
O O3 0.426326 0.446713 0.531665
O O4 0.239620 0.471469 0.396211
O O5 0.816409 0.129300 0.790200
O O6 0.600222 0.227161 0.499588
O O7 0.821800 0.301361 0.825685
O O8 0.839470 0.252228 0.725153
O O9 0.412138 0.725855 0.689420
O O10 0.234635 0.964344 0.736620
O O11 0.000000 0.000000 0.500000
O O12 0.419364 0.895055 0.752960
O O13 0.416118 0.931948 0.870171
O O14 0.479018 0.941423 0.073068
#
# Coordination Sequence:
#
# PCOD9270843 Si02
#       7
#     8   8   4   8   8   8   8
#     4   9  21  36  54  79 111 156 185 229 292 355
#     4  11  22  34  60  89 116 152 196 249 297 335
#     4  10  20  36  52  82 118 150 184 226 290 376
#     4  11  20  37  57  86 119 146 198 251 288 344
#     4  11  21  35  54  89 116 153 192 234 300 355
#     4   9  18  33  54  83 110 146 190 241 290 337
#     4   9  17  34  54  75 113 147 189 232 281 354
#
# _framework density 17.872676999999999
#
# number of rings (size 3 to 8) (size 9 to 14) (size 15 to 20)
#    0.462    1.538    1.538    4.615    2.154    2.462 
#    0.000    0.000    0.000    0.923    2.000    0.000 
#    0.000    0.000    0.000    0.000    0.000    0.000 
#
# Total GULP energy -144863.711548 kJ/mol
# GULP energy per Si atom -5571.681213 kJ/mol
# Density = 1.783200 g / cm^3
# Si number density = 17.872677 Si / 1000 Ang^3
#
#
#
# Elastic Constant Matrix: (Units=GPa)
#
#
# Indices 1 2 3 4 5 6 
#
# 1 57.0778 9.8584 16.0367 0.0000 4.1472 0.0000
# 2 9.8584 56.9668 -14.5203 0.0000 4.4572 0.0000
# 3 16.0367 -14.5203 50.3083 0.0000 -2.4329 0.0000
# 4 0.0000 0.0000 0.0000 18.5722 0.0000 4.1257
# 5 4.1472 4.4572 -2.4329 0.0000 19.4682 0.0000
# 6 0.0000 0.0000 0.0000 4.1257 0.0000 16.9930
#
#
#
# Elastic Compliance Matrix: (Units=1/GPa)
#
#
# Indices 1 2 3 4 5 6 
#
# 1 0.021189 -0.005509 -0.008553 0.000000 -0.004321 0.000000
# 2 -0.005509 0.020646 0.007589 0.000000 -0.002605 0.000000
# 3 -0.008553 0.007589 0.024949 0.000000 0.003202 0.000000
# 4 0.000000 0.000000 0.000000 0.056913 0.000000 -0.013818
# 5 -0.004321 -0.002605 0.003202 0.000000 0.053283 0.000000
# 6 0.000000 0.000000 0.000000 -0.013818 0.000000 0.062203
#
#
# Mechanical properties :
#
#
# Convention : Reuss Voigt Hill
#
# Bulk Modulus (GPa) = 18.57453 20.78914 19.68183
# Shear Modulus (GPa) = 18.51344 21.20522 19.85933
#
# Velocity S-wave (km/s) = 3.22196 3.44824 3.33702
# Velocity P-wave (km/s) = 4.92510 5.24508 5.08761
#
# Compressibility (1/GPa) = 0.05383717
#
# Stress axis : x y z
#
# Youngs Moduli (GPa) = 47.19532 48.43647 40.08148
#
# Poissons Ratio (x) = 0.26683 0.34282
# Poissons Ratio (y) = 0.25999 -0.30418
# Poissons Ratio (z) = 0.40367 -0.36758
#
# Static dielectric constant tensor:
#      x y z
#    x 1.642030 0.000000 -0.025150 
#    y 0.000000 1.615710 0.000000 
#    z -0.025150 0.000000 1.656550 
# 
# From -- ./inp_files/257810.got.cif
#   From: 2010.05.17/outbox.cif.g08.bks.cpg/sg15_129_cif.got.tgz:257810.got - 2010.06.03 18:47:42.
