data_PCOD9270813
_publ_section_title
;
Structure prediction by ZEFSAII (Michael W. Deem and Ramdas Pophale) SiO2 
 PCOD9270813
Probable space group: C 2/C
;
_chemical_formula_sum "Si O2"
_cell_formula_units_Z 40
_cell_length_a 7.628843
_cell_length_b 15.040503
_cell_length_c 14.835687
_cell_angle_alpha 90.000000
_cell_angle_beta 93.713458
_cell_angle_gamma 90.000000
_cell_volume 1698.696966
_symmetry_space_group_name_H-M "C 2/C"
_symmetry_group_IT_number 15
_symmetry_cell_setting 'monoclinic'
loop_
_space_group_symop_operation_xyz
x,y,z
-x,y,1/2-z
-x,-y,-z
x,-y,1/2+z
1/2+x,1/2+y,z
1/2-x,1/2+y,1/2-z
1/2-x,1/2-y,-z
1/2+x,1/2-y,1/2+z
loop_
_atom_site_type_symbol
_atom_site_label
_atom_site_fract_x
_atom_site_fract_y
_atom_site_fract_z
Si Si1 0.721458 0.829949 0.931023
Si Si2 0.294898 0.984327 0.027993
Si Si3 0.300955 0.221233 0.761183
Si Si4 0.710069 0.969451 0.259632
Si Si5 0.187477 0.632609 0.128664
O O1 0.798989 0.791829 0.841533
O O2 0.522916 0.856436 0.893477
O O3 0.790548 0.918391 0.982916
O O4 0.750000 0.750000 0.000000
O O5 0.260476 0.966328 0.132080
O O6 0.237074 0.902828 0.963415
O O7 0.500000 0.000000 0.000000
O O8 0.500000 0.198605 0.750000
O O9 0.218991 0.124097 0.777474
O O10 0.234970 0.272394 0.670991
O O11 0.500000 0.976120 0.250000
O O12 0.754259 0.056295 0.201456
#
# Coordination Sequence:
#
# PCOD9270813 Si02
#       5
#     8   8   8   8   8
#     4  11  22  40  66  96 125 168 223 260 315 383
#     4  10  20  35  68  91 118 173 220 255 306 392
#     4  11  25  39  64  97 132 165 213 271 325 383
#     4  11  19  38  63  91 124 171 217 248 316 385
#     4  11  22  44  68  92 128 171 218 270 314 377
#
# _framework density 23.547460999999998
#
# number of rings (size 3 to 8) (size 9 to 14) (size 15 to 20)
#    0.000    1.200    6.000    1.800    8.400    0.800 
#    0.000    5.000    0.000    0.000    0.000    0.000 
#    0.000    0.000    0.000    0.000    0.000    0.000 
#
# Total GULP energy -111366.424550 kJ/mol
# GULP energy per Si atom -5568.321227 kJ/mol
# Density = 2.349387 g / cm^3
# Si number density = 23.547461 Si / 1000 Ang^3
#
#
#
# Elastic Constant Matrix: (Units=GPa)
#
#
# Indices 1 2 3 4 5 6 
#
# 1 17.3873 -10.0044 -4.2137 0.0000 -4.8277 0.0000
# 2 -10.0044 118.3096 21.2488 0.0000 8.0381 0.0000
# 3 -4.2137 21.2488 120.8868 0.0000 3.5226 0.0000
# 4 0.0000 0.0000 0.0000 12.3525 0.0000 -21.6680
# 5 -4.8277 8.0381 3.5226 0.0000 12.7255 0.0000
# 6 0.0000 0.0000 0.0000 -21.6680 0.0000 -5.2350
#
#
#
# Elastic Compliance Matrix: (Units=1/GPa)
#
#
# Indices 1 2 3 4 5 6 
#
# 1 0.066209 0.003904 0.000969 0.000000 0.022384 0.000000
# 2 0.003904 0.009303 -0.001382 0.000000 -0.004013 0.000000
# 3 0.000969 -0.001382 0.008582 0.000000 -0.001135 0.000000
# 4 0.000000 0.000000 0.000000 0.009800 0.000000 -0.040564
# 5 0.022384 -0.004013 -0.001135 0.000000 0.089923 0.000000
# 6 0.000000 0.000000 0.000000 -0.040564 0.000000 -0.023125
#
#
# Mechanical properties :
#
#
# Convention : Reuss Voigt Hill
#
# Bulk Modulus (GPa) = 10.97977 30.07168 20.52573
# Shear Modulus (GPa) = 27.16359 20.60548 23.88453
#
# Velocity S-wave (km/s) = 3.40011 2.96135 3.18829
# Velocity P-wave (km/s) = 4.48188 4.94886 4.72115
#
# Compressibility (1/GPa) = 0.09107658
#
# Stress axis : x y z
#
# Youngs Moduli (GPa) = 15.10364 107.48734 116.52261
#
# Poissons Ratio (x) = -0.41962 -0.11295
# Poissons Ratio (y) = -0.05896 0.16107
# Poissons Ratio (z) = -0.01464 0.14858
#
# Static dielectric constant tensor:
#      x y z
#    x 2.016120 0.000000 0.069130 
#    y 0.000000 2.013150 0.000000 
#    z 0.069130 0.000000 1.994580 
# 
# From -- ./inp_files/133186.got.cif
#   From: 2010.05.17/outbox.cif.g08.bks.cpg/sg15_67_cif.got.tgz:133186.got - 2010.06.03 18:47:42.
