data_PCOD9270854
_publ_section_title
;
Structure prediction by ZEFSAII (Michael W. Deem and Ramdas Pophale) SiO2 
 PCOD9270854
Probable space group: C 2/C
;
_chemical_formula_sum "Si O2"
_cell_formula_units_Z 44
_cell_length_a 5.520434
_cell_length_b 27.062762
_cell_length_c 14.190892
_cell_angle_alpha 90.000000
_cell_angle_beta 65.854152
_cell_angle_gamma 90.000000
_cell_volume 1934.600547
_symmetry_space_group_name_H-M "C 2/C"
_symmetry_group_IT_number 15
_symmetry_cell_setting 'monoclinic'
loop_
_space_group_symop_operation_xyz
x,y,z
-x,y,1/2-z
-x,-y,-z
x,-y,1/2+z
1/2+x,1/2+y,z
1/2-x,1/2+y,1/2-z
1/2-x,1/2-y,-z
1/2+x,1/2-y,1/2+z
loop_
_atom_site_type_symbol
_atom_site_label
_atom_site_fract_x
_atom_site_fract_y
_atom_site_fract_z
Si Si1 0.500000 0.740752 0.750000
Si Si2 0.500000 0.765657 0.250000
Si Si3 0.232247 0.692564 0.528515
Si Si4 0.000000 0.991009 0.750000
Si Si5 0.395350 0.919725 0.169016
Si Si6 0.276231 0.470328 0.977637
Si Si7 0.198399 0.839212 0.066223
O O1 0.241512 0.766575 0.750816
O O2 0.398902 0.705853 0.851269
O O3 0.404860 0.801898 0.347434
O O4 0.250000 0.750000 0.500000
O O5 0.509694 0.665557 0.505521
O O6 0.010244 0.669244 0.496399
O O7 0.753835 0.029472 0.778586
O O8 0.919004 0.960224 0.855219
O O9 0.500000 0.897938 0.250000
O O10 0.200218 0.887682 0.132769
O O11 0.657622 0.928610 0.064078
O O12 0.500000 0.500000 0.000000
O O13 0.000000 0.500000 0.000000
#
# Coordination Sequence:
#
# PCOD9270854 Si02
#       7
#     4   4   8   4   8   8   8
#     4   8  15  28  42  70 106 128 161 224 281 338
#     4   8  16  28  48  73  94 130 177 214 265 345
#     4  10  20  36  53  77 113 147 181 238 296 370
#     4  10  21  38  60  83 128 166 214 258 308 377
#     4  11  22  33  58  88 129 160 203 270 318 363
#     4  10  21  37  55  85 118 166 211 246 313 381
#     4  10  21  30  52  81 113 144 191 234 312 355
#
# _framework density 22.743713
#
# number of rings (size 3 to 8) (size 9 to 14) (size 15 to 20)
#    0.000    2.182    1.818    1.091   10.182    0.000 
#    0.000    0.000    0.000    1.091    0.000    2.545 
#    0.000    0.000    0.000    0.000    0.000    0.000 
#
# Total GULP energy -122519.754958 kJ/mol
# GULP energy per Si atom -5569.079771 kJ/mol
# Density = 2.269195 g / cm^3
# Si number density = 22.743713 Si / 1000 Ang^3
#
#
#
# Elastic Constant Matrix: (Units=GPa)
#
#
# Indices 1 2 3 4 5 6 
#
# 1 238.9068 26.4857 20.6995 0.0000 -6.8706 0.0000
# 2 26.4857 48.3033 27.8386 0.0000 0.1179 0.0000
# 3 20.6995 27.8386 131.7096 0.0000 -1.3769 0.0000
# 4 0.0000 0.0000 0.0000 23.0702 0.0000 -4.0248
# 5 -6.8706 0.1179 -1.3769 0.0000 21.8838 0.0000
# 6 0.0000 0.0000 0.0000 -4.0248 0.0000 13.3663
#
#
#
# Elastic Compliance Matrix: (Units=1/GPa)
#
#
# Indices 1 2 3 4 5 6 
#
# 1 0.004505 -0.002362 -0.000194 0.000000 0.001415 0.000000
# 2 -0.002362 0.024817 -0.004887 0.000000 -0.001183 0.000000
# 3 -0.000194 -0.004887 0.008661 0.000000 0.000510 0.000000
# 4 0.000000 0.000000 0.000000 0.045749 0.000000 0.013776
# 5 0.001415 -0.001183 0.000510 0.000000 0.046179 0.000000
# 6 0.000000 0.000000 0.000000 0.013776 0.000000 0.078963
#
#
# Mechanical properties :
#
#
# Convention : Reuss Voigt Hill
#
# Bulk Modulus (GPa) = 43.29358 63.21857 53.25607
# Shear Modulus (GPa) = 21.60217 34.59046 28.09631
#
# Velocity S-wave (km/s) = 3.08524 3.90408 3.51856
# Velocity P-wave (km/s) = 5.63634 6.94110 6.32247
#
# Compressibility (1/GPa) = 0.02309812
#
# Stress axis : x y z
#
# Youngs Moduli (GPa) = 221.97201 40.29546 115.45852
#
# Poissons Ratio (x) = 0.09517 0.02240
# Poissons Ratio (y) = 0.52427 0.56419
# Poissons Ratio (z) = 0.04307 0.19690
#
# Static dielectric constant tensor:
#      x y z
#    x 1.998580 0.000000 -0.012070 
#    y 0.000000 1.789690 0.000000 
#    z -0.012070 0.000000 1.880010 
# 
# From -- ./inp_files/129798.got.cif
#   From: 2010.05.17/outbox.cif.g08.bks.cpg/sg15_65_cif.got.tgz:129798.got - 2010.06.03 18:47:42.
