data_PCOD9270461
_publ_section_title
;
Structure prediction by ZEFSAII (Michael W. Deem and Ramdas Pophale) SiO2 
 PCOD9270461
Probable space group: C 2/C
;
_chemical_formula_sum "Si O2"
_cell_formula_units_Z 64
_cell_length_a 18.176101
_cell_length_b 21.707731
_cell_length_c 11.333386
_cell_angle_alpha 90.000000
_cell_angle_beta 51.676449
_cell_angle_gamma 90.000000
_cell_volume 3508.162614
_symmetry_space_group_name_H-M "C 2/C"
_symmetry_group_IT_number 15
_symmetry_cell_setting 'monoclinic'
loop_
_space_group_symop_operation_xyz
x,y,z
-x,y,1/2-z
-x,-y,-z
x,-y,1/2+z
1/2+x,1/2+y,z
1/2-x,1/2+y,1/2-z
1/2-x,1/2-y,-z
1/2+x,1/2-y,1/2+z
loop_
_atom_site_type_symbol
_atom_site_label
_atom_site_fract_x
_atom_site_fract_y
_atom_site_fract_z
Si Si1 0.094990 0.845274 0.611342
Si Si2 0.900720 0.649216 0.816241
Si Si3 0.254179 0.644421 0.335478
Si Si4 0.750053 0.597191 0.642199
Si Si5 0.406493 0.032297 0.642464
Si Si6 0.909559 0.035873 0.540682
Si Si7 0.745465 0.444922 0.885635
Si Si8 0.251019 0.214063 0.800500
O O1 0.161397 0.862298 0.655138
O O2 0.067181 0.905914 0.564695
O O3 0.157015 0.802116 0.466296
O O4 0.000000 0.815939 0.750000
O O5 0.922576 0.588273 0.717415
O O6 0.835933 0.693093 0.801127
O O7 0.000000 0.676829 0.750000
O O8 0.839315 0.634568 0.993261
O O9 0.262014 0.597082 0.222114
O O10 0.255315 0.713255 0.280904
O O11 0.840479 0.561182 0.605114
O O12 0.747131 0.591956 0.505414
O O13 0.752956 0.667063 0.688726
O O14 0.659111 0.563181 0.789214
O O15 0.500000 0.000000 0.500000
O O16 0.340482 0.983899 0.776026
O O17 0.842952 0.990862 0.531202
O O18 0.000000 0.000000 0.500000
#
# Coordination Sequence:
#
# PCOD9270461 Si02
#       8
#     8   8   8   8   8   8   8   8
#     4  10  20  35  59  85 110 144 185 236 288 332
#     4  10  20  35  59  85 110 144 185 236 288 332
#     4  11  22  36  56  85 111 147 197 232 280 324
#     4   9  22  40  54  80 114 150 191 226 286 332
#     4  10  22  36  57  82 117 150 180 233 286 346
#     4  10  22  36  57  82 117 150 180 233 286 346
#     4  11  23  34  57  82 114 151 186 234 271 347
#     4   9  21  40  55  79 116 147 189 241 273 331
#
# _framework density 18.243169000000002
#
# number of rings (size 3 to 8) (size 9 to 14) (size 15 to 20)
#    0.000    2.000    0.000    5.250   10.500    2.500 
#    0.000    0.000    0.000    0.000    0.000    7.000 
#    0.000    0.000    0.000    0.000    0.000    0.000 
#
# Total GULP energy -178708.303647 kJ/mol
# GULP energy per Si atom -5584.634489 kJ/mol
# Density = 1.820165 g / cm^3
# Si number density = 18.243169 Si / 1000 Ang^3
#
#
#
# Elastic Constant Matrix: (Units=GPa)
#
#
# Indices 1 2 3 4 5 6 
#
# 1 32.7528 -8.3019 12.7874 0.0000 -11.7353 0.0000
# 2 -8.3019 71.4020 -2.1228 0.0000 -6.1126 0.0000
# 3 12.7874 -2.1228 49.1020 0.0000 -7.8215 0.0000
# 4 0.0000 0.0000 0.0000 7.9980 0.0000 7.3151
# 5 -11.7353 -6.1126 -7.8215 0.0000 41.7183 0.0000
# 6 0.0000 0.0000 0.0000 7.3151 0.0000 3.2537
#
#
#
# Elastic Compliance Matrix: (Units=1/GPa)
#
#
# Indices 1 2 3 4 5 6 
#
# 1 0.038656 0.005112 -0.008241 0.000000 0.010078 0.000000
# 2 0.005112 0.014904 -0.000113 0.000000 0.003601 0.000000
# 3 -0.008241 -0.000113 0.022816 0.000000 0.001943 0.000000
# 4 0.000000 0.000000 0.000000 -0.118369 0.000000 0.266122
# 5 0.010078 0.003601 0.001943 0.000000 0.027697 0.000000
# 6 0.000000 0.000000 0.000000 0.266122 0.000000 -0.290966
#
#
# Mechanical properties :
#
#
# Convention : Reuss Voigt Hill
#
# Bulk Modulus (GPa) = 14.30759 17.55358 15.93058
# Shear Modulus (GPa) = -18.15016 20.65361 1.25173
#
# Velocity S-wave (km/s) = -3.15763 3.36836 0.82923
# Velocity P-wave (km/s) = 2.33118 4.97702 3.10936
#
# Compressibility (1/GPa) = 0.06989300
#
# Stress axis : x y z
#
# Youngs Moduli (GPa) = 25.86935 67.09392 43.82801
#
# Poissons Ratio (x) = -0.34300 0.36117
# Poissons Ratio (y) = -0.13225 0.00497
# Poissons Ratio (z) = 0.21318 0.00761
#
# Static dielectric constant tensor:
#      x y z
#    x 1.549600 0.000000 0.050370 
#    y 0.000000 1.622370 0.000000 
#    z 0.050370 0.000000 1.552710 
# 
# From -- ./inp_files/107491.got.cif
#   From: 2010.05.17/outbox.cif.g08.bks.cpg/sg15_54_cif.got.tgz:107491.got - 2010.06.03 18:47:42.
