data_PCOD9270977
_publ_section_title
;
Structure prediction by ZEFSAII (Michael W. Deem and Ramdas Pophale) SiO2 
 PCOD9270977
Probable space group: C 2/C
;
_chemical_formula_sum "Si O2"
_cell_formula_units_Z 48
_cell_length_a 25.391978
_cell_length_b 9.123680
_cell_length_c 8.790447
_cell_angle_alpha 90.000000
_cell_angle_beta 117.520801
_cell_angle_gamma 90.000000
_cell_volume 1806.027454
_symmetry_space_group_name_H-M "C 2/C"
_symmetry_group_IT_number 15
_symmetry_cell_setting 'monoclinic'
loop_
_space_group_symop_operation_xyz
x,y,z
-x,y,1/2-z
-x,-y,-z
x,-y,1/2+z
1/2+x,1/2+y,z
1/2-x,1/2+y,1/2-z
1/2-x,1/2-y,-z
1/2+x,1/2-y,1/2+z
loop_
_atom_site_type_symbol
_atom_site_label
_atom_site_fract_x
_atom_site_fract_y
_atom_site_fract_z
Si Si1 0.561393 0.833414 0.539693
Si Si2 0.500000 0.588450 0.250000
Si Si3 0.720597 0.082082 0.788788
Si Si4 0.885354 0.975008 0.747782
Si Si5 0.000000 0.424286 0.750000
Si Si6 0.818952 0.146880 0.431953
Si Si7 0.668910 0.792988 0.498011
O O1 0.530443 0.695079 0.416053
O O2 0.543301 0.841277 0.691256
O O3 0.631090 0.835603 0.593701
O O4 0.537344 0.973149 0.413685
O O5 0.548544 0.496269 0.221321
O O6 0.685411 0.182701 0.619179
O O7 0.685015 0.080200 0.900020
O O8 0.755928 0.932054 0.805859
O O9 0.775722 0.189789 0.897396
O O10 0.868928 0.938511 0.898692
O O11 0.872029 0.817140 0.654626
O O12 0.838820 0.096960 0.625839
#
# Coordination Sequence:
#
# PCOD9270977 Si02
#       7
#     8   4   8   8   4   8   8
#     4   9  17  32  52  77 110 149 191 235 284 338
#     4   9  18  36  56  71 106 158 188 220 292 350
#     4   9  18  33  55  81 111 148 186 232 280 335
#     4   9  19  35  55  79 108 145 188 238 287 338
#     4   9  18  30  50  81 112 142 190 246 280 328
#     4  10  20  36  56  82 113 144 188 235 286 345
#     4   8  16  33  53  73 107 154 188 214 279 354
#
# _framework density 26.577669
#
# number of rings (size 3 to 8) (size 9 to 14) (size 15 to 20)
#    0.000    3.000    0.000    1.000    0.000    2.667 
#    0.000    6.667    0.000    0.000    0.000    0.000 
#    0.000    1.333    0.000    0.000    0.000    0.000 
#
# Total GULP energy -134173.730074 kJ/mol
# GULP energy per Si atom -5590.572086 kJ/mol
# Density = 2.651718 g / cm^3
# Si number density = 26.577669 Si / 1000 Ang^3
#
#
#
# Elastic Constant Matrix: (Units=GPa)
#
#
# Indices 1 2 3 4 5 6 
#
# 1 163.9115 43.0072 45.3656 0.0000 -26.2492 0.0000
# 2 43.0072 111.5741 40.3564 0.0000 -21.5570 0.0000
# 3 45.3656 40.3564 64.3880 0.0000 -31.6658 0.0000
# 4 0.0000 0.0000 0.0000 23.6482 0.0000 -3.8571
# 5 -26.2492 -21.5570 -31.6658 0.0000 39.9268 0.0000
# 6 0.0000 0.0000 0.0000 -3.8571 0.0000 24.3981
#
#
#
# Elastic Compliance Matrix: (Units=1/GPa)
#
#
# Indices 1 2 3 4 5 6 
#
# 1 0.007756 -0.001287 -0.004085 0.000000 0.001164 0.000000
# 2 -0.001287 0.011820 -0.006196 0.000000 0.000622 0.000000
# 3 -0.004085 -0.006196 0.031685 0.000000 0.019098 0.000000
# 4 0.000000 0.000000 0.000000 0.043406 0.000000 0.006862
# 5 0.001164 0.000622 0.019098 0.000000 0.041294 0.000000
# 6 0.000000 0.000000 0.000000 0.006862 0.000000 0.042072
#
#
# Mechanical properties :
#
#
# Convention : Reuss Voigt Hill
#
# Bulk Modulus (GPa) = 35.55636 66.37024 50.96330
# Shear Modulus (GPa) = 23.74819 31.67091 27.70955
#
# Velocity S-wave (km/s) = 2.99246 3.45575 3.23242
# Velocity P-wave (km/s) = 5.03459 6.39917 5.75745
#
# Compressibility (1/GPa) = 0.02812436
#
# Stress axis : x y z
#
# Youngs Moduli (GPa) = 128.93908 84.60325 31.56060
#
# Poissons Ratio (x) = 0.10888 0.12894
# Poissons Ratio (y) = 0.16593 0.19554
# Poissons Ratio (z) = 0.52676 0.52419
#
# Static dielectric constant tensor:
#      x y z
#    x 2.107170 0.000000 0.034530 
#    y 0.000000 2.116850 0.000000 
#    z 0.034530 0.000000 2.111300 
# 
# From -- ./inp_files/60699.got.cif
#   From: 2010.05.17/outbox.cif.g08.bks.cpg/sg15_31_cif.got.tgz:60699.got - 2010.06.03 18:47:42.
