data_PCOD9270655
_publ_section_title
;
Structure prediction by ZEFSAII (Michael W. Deem and Ramdas Pophale) SiO2 
 PCOD9270655
Probable space group: C 2/C
;
_chemical_formula_sum "Si O2"
_cell_formula_units_Z 56
_cell_length_a 8.792789
_cell_length_b 23.430521
_cell_length_c 16.626137
_cell_angle_alpha 90.000000
_cell_angle_beta 125.612416
_cell_angle_gamma 90.000000
_cell_volume 2784.690459
_symmetry_space_group_name_H-M "C 2/C"
_symmetry_group_IT_number 15
_symmetry_cell_setting 'monoclinic'
loop_
_space_group_symop_operation_xyz
x,y,z
-x,y,1/2-z
-x,-y,-z
x,-y,1/2+z
1/2+x,1/2+y,z
1/2-x,1/2+y,1/2-z
1/2-x,1/2-y,-z
1/2+x,1/2-y,1/2+z
loop_
_atom_site_type_symbol
_atom_site_label
_atom_site_fract_x
_atom_site_fract_y
_atom_site_fract_z
Si Si1 0.253147 0.124465 0.091622
Si Si2 0.831720 0.209746 0.145145
Si Si3 0.872467 0.187763 0.972392
Si Si4 0.326308 0.111213 0.298715
Si Si5 0.673357 0.505445 0.994921
Si Si6 0.328426 0.009787 0.884319
Si Si7 0.052682 0.592887 0.859431
O O1 0.236447 0.114002 0.182436
O O2 0.469415 0.141635 0.145558
O O3 0.252293 0.066794 0.040757
O O4 0.067719 0.158399 0.008375
O O5 0.665963 0.255672 0.090923
O O6 0.778561 0.149027 0.167218
O O7 0.000000 0.233689 0.250000
O O8 0.894310 0.203216 0.072711
O O9 0.681085 0.149412 0.910679
O O10 0.330090 0.044628 0.325618
O O11 0.653498 0.504362 0.892111
O O12 0.500000 0.500000 0.000000
O O13 0.805875 0.455989 0.068476
O O14 0.369611 0.070793 0.853976
O O15 0.500000 0.000000 0.000000
O O16 0.000000 0.589694 0.750000
#
# Coordination Sequence:
#
# PCOD9270655 Si02
#       7
#     8   8   8   8   8   8   8
#     4  11  22  38  61  95 121 165 210 264 318 374
#     4  11  23  43  65  93 119 163 219 266 315 377
#     4  11  24  40  65  90 124 166 212 267 316 377
#     4  11  22  38  64  91 128 162 213 263 315 384
#     4  11  21  36  60  90 132 165 213 256 314 387
#     4  10  20  35  61  92 128 170 202 256 324 377
#     4  11  21  39  61  92 132 170 206 254 322 388
#
# _framework density 20.109956
#
# number of rings (size 3 to 8) (size 9 to 14) (size 15 to 20)
#    0.000    1.143    5.714    3.000    0.000    0.571 
#    0.000    2.143    0.000    0.000    0.000    0.000 
#    0.000    0.000    0.000    0.000    0.000    0.000 
#
# Total GULP energy -155881.954615 kJ/mol
# GULP energy per Si atom -5567.212665 kJ/mol
# Density = 2.006418 g / cm^3
# Si number density = 20.109956 Si / 1000 Ang^3
#
#
#
# Elastic Constant Matrix: (Units=GPa)
#
#
# Indices 1 2 3 4 5 6 
#
# 1 75.2088 -0.7502 9.6537 0.0000 -5.0570 0.0000
# 2 -0.7502 58.0561 9.6221 0.0000 4.0896 0.0000
# 3 9.6537 9.6221 70.3887 0.0000 -19.3292 0.0000
# 4 0.0000 0.0000 0.0000 13.0066 0.0000 0.3879
# 5 -5.0570 4.0896 -19.3292 0.0000 16.2304 0.0000
# 6 0.0000 0.0000 0.0000 0.3879 0.0000 7.7050
#
#
#
# Elastic Compliance Matrix: (Units=1/GPa)
#
#
# Indices 1 2 3 4 5 6 
#
# 1 0.013634 0.000152 -0.001092 0.000000 0.002910 0.000000
# 2 0.000152 0.019016 -0.005830 0.000000 -0.011687 0.000000
# 3 -0.001092 -0.005830 0.022978 0.000000 0.028494 0.000000
# 4 0.000000 0.000000 0.000000 0.077000 0.000000 -0.003876
# 5 0.002910 -0.011687 0.028494 0.000000 0.099399 0.000000
# 6 0.000000 0.000000 0.000000 -0.003876 0.000000 0.129980
#
#
# Mechanical properties :
#
#
# Convention : Reuss Voigt Hill
#
# Bulk Modulus (GPa) = 23.75889 26.74500 25.25195
# Shear Modulus (GPa) = 12.83451 19.73026 16.28239
#
# Velocity S-wave (km/s) = 2.52904 3.13568 2.84855
# Velocity P-wave (km/s) = 4.51311 5.14181 4.83769
#
# Compressibility (1/GPa) = 0.04208951
#
# Stress axis : x y z
#
# Youngs Moduli (GPa) = 73.34828 52.58692 43.51967
#
# Poissons Ratio (x) = -0.00800 0.04751
# Poissons Ratio (y) = -0.01116 0.25370
# Poissons Ratio (z) = 0.08007 0.30656
#
# Static dielectric constant tensor:
#      x y z
#    x 1.169310 0.000000 -0.131980 
#    y 0.000000 1.729330 0.000000 
#    z -0.131980 0.000000 1.643330 
# 
# From -- ./inp_files/137921.got.cif
#   From: 2010.05.17/outbox.cif.g08.bks.cpg/sg15_69_cif.got.tgz:137921.got - 2010.06.03 18:47:42.
