data_PCOD9270634
_publ_section_title
;
Structure prediction by ZEFSAII (Michael W. Deem and Ramdas Pophale) SiO2 
 PCOD9270634
Probable space group: C 2/C
;
_chemical_formula_sum "Si O2"
_cell_formula_units_Z 64
_cell_length_a 20.081443
_cell_length_b 10.647267
_cell_length_c 18.718877
_cell_angle_alpha 90.000000
_cell_angle_beta 134.038136
_cell_angle_gamma 90.000000
_cell_volume 2877.183816
_symmetry_space_group_name_H-M "C 2/C"
_symmetry_group_IT_number 15
_symmetry_cell_setting 'monoclinic'
loop_
_space_group_symop_operation_xyz
x,y,z
-x,y,1/2-z
-x,-y,-z
x,-y,1/2+z
1/2+x,1/2+y,z
1/2-x,1/2+y,1/2-z
1/2-x,1/2-y,-z
1/2+x,1/2-y,1/2+z
loop_
_atom_site_type_symbol
_atom_site_label
_atom_site_fract_x
_atom_site_fract_y
_atom_site_fract_z
Si Si1 0.496358 0.071273 0.911509
Si Si2 0.345968 0.975709 0.204663
Si Si3 0.880209 0.165711 0.563115
Si Si4 0.797034 0.352030 0.929443
Si Si5 0.288485 0.318289 0.299293
Si Si6 0.484264 0.212616 0.444832
Si Si7 0.694577 0.258524 0.348134
Si Si8 0.197951 0.092929 0.487447
O O1 0.444020 0.085020 0.797495
O O2 0.608128 0.069055 0.997494
O O3 0.460709 0.933573 0.909413
O O4 0.465810 0.183691 0.942207
O O5 0.270717 0.925963 0.206642
O O6 0.348677 0.125091 0.205612
O O7 0.299949 0.937642 0.095629
O O8 0.962221 0.230928 0.582019
O O9 0.789854 0.230276 0.460404
O O10 0.872899 0.182870 0.642825
O O11 0.869902 0.017839 0.540590
O O12 0.825189 0.225146 0.994303
O O13 0.762377 0.308182 0.825521
O O14 0.714257 0.406668 0.914995
O O15 0.398827 0.305775 0.394609
O O16 0.280499 0.323617 0.208088
#
# Coordination Sequence:
#
# PCOD9270634 Si02
#       8
#     8   8   8   8   8   8   8   8
#     4  10  20  35  61  89 119 153 201 247 292 343
#     4  10  20  36  56  86 117 152 199 249 286 353
#     4  10  22  37  58  85 123 153 196 241 297 359
#     4   9  20  37  62  87 117 157 199 246 291 355
#     4  10  20  38  58  81 121 153 196 246 299 346
#     4  10  21  37  57  90 119 158 196 245 296 352
#     4  10  21  36  54  88 115 156 198 234 302 352
#     4   9  20  40  59  86 121 161 196 236 305 355
#
# _framework density 22.243974000000001
#
# number of rings (size 3 to 8) (size 9 to 14) (size 15 to 20)
#    0.000    2.250    1.250    0.750    5.250    2.000 
#    0.000   11.250    0.000    4.500    0.000    0.000 
#    0.000    0.000    0.000    0.000    0.000    0.000 
#
# Total GULP energy -178284.116892 kJ/mol
# GULP energy per Si atom -5571.378653 kJ/mol
# Density = 2.219335 g / cm^3
# Si number density = 22.243974 Si / 1000 Ang^3
#
#
#
# Elastic Constant Matrix: (Units=GPa)
#
#
# Indices 1 2 3 4 5 6 
#
# 1 82.6792 22.2720 9.1823 0.0000 -21.9010 0.0000
# 2 22.2720 62.8560 6.6153 0.0000 4.3527 0.0000
# 3 9.1823 6.6153 58.6800 0.0000 -19.6693 0.0000
# 4 0.0000 0.0000 0.0000 7.5385 0.0000 0.8851
# 5 -21.9010 4.3527 -19.6693 0.0000 34.8662 0.0000
# 6 0.0000 0.0000 0.0000 0.8851 0.0000 24.9209
#
#
#
# Elastic Compliance Matrix: (Units=1/GPa)
#
#
# Indices 1 2 3 4 5 6 
#
# 1 0.017276 -0.007303 0.002544 0.000000 0.013199 0.000000
# 2 -0.007303 0.019594 -0.004222 0.000000 -0.009415 0.000000
# 3 0.002544 -0.004222 0.021990 0.000000 0.014531 0.000000
# 4 0.000000 0.000000 0.000000 0.133208 0.000000 -0.004731
# 5 0.013199 -0.009415 0.014531 0.000000 0.046344 0.000000
# 6 0.000000 0.000000 0.000000 -0.004731 0.000000 0.040295
#
#
# Mechanical properties :
#
#
# Convention : Reuss Voigt Hill
#
# Bulk Modulus (GPa) = 24.45150 31.15048 27.80099
# Shear Modulus (GPa) = 16.11335 24.54149 20.32742
#
# Velocity S-wave (km/s) = 2.69437 3.32518 3.02626
# Velocity P-wave (km/s) = 4.54926 5.36440 4.97356
#
# Compressibility (1/GPa) = 0.04089728
#
# Stress axis : x y z
#
# Youngs Moduli (GPa) = 57.88391 51.03731 45.47517
#
# Poissons Ratio (x) = 0.37274 -0.11570
# Poissons Ratio (y) = 0.42274 0.19200
# Poissons Ratio (z) = -0.14727 0.21548
#
# Static dielectric constant tensor:
#      x y z
#    x 1.866710 0.000000 -0.054730 
#    y 0.000000 1.821470 0.000000 
#    z -0.054730 0.000000 1.928180 
# 
# From -- ./inp_files/215083.got.cif
#   From: 2010.05.17/outbox.cif.g08.bks.cpg/sg15_108_cif.got.tgz:215083.got - 2010.06.03 18:47:42.
