data_PCOD9270890
_publ_section_title
;
Structure prediction by ZEFSAII (Michael W. Deem and Ramdas Pophale) SiO2 
 PCOD9270890
Probable space group: C 2/C
;
_chemical_formula_sum "Si O2"
_cell_formula_units_Z 52
_cell_length_a 22.422235
_cell_length_b 17.762148
_cell_length_c 9.025372
_cell_angle_alpha 90.000000
_cell_angle_beta 45.190735
_cell_angle_gamma 90.000000
_cell_volume 2550.148330
_symmetry_space_group_name_H-M "C 2/C"
_symmetry_group_IT_number 15
_symmetry_cell_setting 'monoclinic'
loop_
_space_group_symop_operation_xyz
x,y,z
-x,y,1/2-z
-x,-y,-z
x,-y,1/2+z
1/2+x,1/2+y,z
1/2-x,1/2+y,1/2-z
1/2-x,1/2-y,-z
1/2+x,1/2-y,1/2+z
loop_
_atom_site_type_symbol
_atom_site_label
_atom_site_fract_x
_atom_site_fract_y
_atom_site_fract_z
Si Si1 0.153110 0.291584 0.307063
Si Si2 0.628489 0.480963 0.837392
Si Si3 0.000000 0.756453 0.250000
Si Si4 0.743614 0.807259 0.647673
Si Si5 0.399507 0.250056 0.931081
Si Si6 0.901272 0.105592 0.825175
Si Si7 0.301486 0.401256 0.073845
O O1 0.205773 0.226898 0.300337
O O2 0.135364 0.270508 0.170124
O O3 0.210157 0.364889 0.221544
O O4 0.065106 0.292754 0.545489
O O5 0.578391 0.545905 0.837116
O O6 0.667199 0.429515 0.641161
O O7 0.693305 0.529457 0.822769
O O8 0.582960 0.430182 0.039964
O O9 0.052414 0.814162 0.263351
O O10 0.750000 0.750000 0.500000
O O11 0.799974 0.878269 0.501496
O O12 0.647245 0.805768 0.870947
O O13 0.500000 0.247589 0.750000
O O14 0.364041 0.334635 0.020356
#
# Coordination Sequence:
#
# PCOD9270890 Si02
#       7
#     8   8   4   8   8   8   8
#     4  10  21  37  61  83 123 155 198 256 306 343
#     4  10  21  36  58  82 114 166 195 234 281 361
#     4  10  22  34  60  88 120 152 194 256 306 340
#     4  10  20  37  61  84 116 158 203 254 295 348
#     4  11  23  36  59  92 126 155 194 253 310 352
#     4  10  20  36  54  85 118 153 201 230 294 359
#     4  10  20  40  58  86 113 161 202 239 292 361
#
# _framework density 20.390971
#
# number of rings (size 3 to 8) (size 9 to 14) (size 15 to 20)
#    0.000    1.846    0.000    6.462    6.462    0.615 
#    5.538    0.000    0.000    0.923    8.000    0.000 
#    0.000    0.000    0.000    0.000    0.000    0.000 
#
# Total GULP energy -145217.309545 kJ/mol
# GULP energy per Si atom -5585.281136 kJ/mol
# Density = 2.034456 g / cm^3
# Si number density = 20.390971 Si / 1000 Ang^3
#
#
#
# Elastic Constant Matrix: (Units=GPa)
#
#
# Indices 1 2 3 4 5 6 
#
# 1 81.3536 27.5143 41.4733 0.0000 -3.2054 0.0000
# 2 27.5143 46.7168 12.8392 0.0000 -8.5616 0.0000
# 3 41.4733 12.8392 110.8505 0.0000 -16.5915 0.0000
# 4 0.0000 0.0000 0.0000 39.1541 0.0000 1.2303
# 5 -3.2054 -8.5616 -16.5915 0.0000 40.4324 0.0000
# 6 0.0000 0.0000 0.0000 1.2303 0.0000 31.4855
#
#
#
# Elastic Compliance Matrix: (Units=1/GPa)
#
#
# Indices 1 2 3 4 5 6 
#
# 1 0.018745 -0.009884 -0.006349 0.000000 -0.003212 0.000000
# 2 -0.009884 0.027904 0.001314 0.000000 0.005664 0.000000
# 3 -0.006349 0.001314 0.011944 0.000000 0.004676 0.000000
# 4 0.000000 0.000000 0.000000 0.025572 0.000000 -0.000999
# 5 -0.003212 0.005664 0.004676 0.000000 0.027596 0.000000
# 6 0.000000 0.000000 0.000000 -0.000999 0.000000 0.031800
#
#
# Mechanical properties :
#
#
# Convention : Reuss Voigt Hill
#
# Bulk Modulus (GPa) = 34.77705 44.73050 39.75377
# Shear Modulus (GPa) = 27.32480 32.68734 30.00607
#
# Velocity S-wave (km/s) = 3.66463 4.00813 3.84022
# Velocity P-wave (km/s) = 5.91593 6.58819 6.26109
#
# Compressibility (1/GPa) = 0.02875460
#
# Stress axis : x y z
#
# Youngs Moduli (GPa) = 53.34758 35.83750 83.72137
#
# Poissons Ratio (x) = 0.35421 0.53156
# Poissons Ratio (y) = 0.52728 -0.10999
# Poissons Ratio (z) = 0.33872 -0.04708
#
# Static dielectric constant tensor:
#      x y z
#    x 1.792780 0.000000 -0.015210 
#    y 0.000000 1.734670 0.000000 
#    z -0.015210 0.000000 1.775430 
# 
# From -- ./inp_files/40819.got.cif
#   From: 2010.05.17/outbox.cif.g08.bks.cpg/sg15_21_cif.got.tgz:40819.got - 2010.06.03 18:47:42.
