data_PCOD9270482
_publ_section_title
;
Structure prediction by ZEFSAII (Michael W. Deem and Ramdas Pophale) SiO2 
 PCOD9270482
Probable space group: C 2/C
;
_chemical_formula_sum "Si O2"
_cell_formula_units_Z 56
_cell_length_a 8.822105
_cell_length_b 12.239299
_cell_length_c 31.082959
_cell_angle_alpha 90.000000
_cell_angle_beta 133.503984
_cell_angle_gamma 90.000000
_cell_volume 2434.359255
_symmetry_space_group_name_H-M "C 2/C"
_symmetry_group_IT_number 15
_symmetry_cell_setting 'monoclinic'
loop_
_space_group_symop_operation_xyz
x,y,z
-x,y,1/2-z
-x,-y,-z
x,-y,1/2+z
1/2+x,1/2+y,z
1/2-x,1/2+y,1/2-z
1/2-x,1/2-y,-z
1/2+x,1/2-y,1/2+z
loop_
_atom_site_type_symbol
_atom_site_label
_atom_site_fract_x
_atom_site_fract_y
_atom_site_fract_z
Si Si1 0.224040 0.382663 0.781383
Si Si2 0.598513 0.198944 0.623597
Si Si3 0.706729 0.041932 0.905691
Si Si4 0.839488 0.071089 0.516579
Si Si5 0.812213 0.275735 0.449308
Si Si6 0.911552 0.341063 0.837404
Si Si7 0.899769 0.007842 0.183584
O O1 0.283039 0.294386 0.828704
O O2 0.194549 0.320933 0.729382
O O3 0.410178 0.468526 0.811155
O O4 0.000000 0.431907 0.750000
O O5 0.408280 0.157166 0.615483
O O6 0.545215 0.232996 0.564728
O O7 0.750311 0.094262 0.645837
O O8 0.928295 0.035142 0.925881
O O9 0.552474 0.949854 0.858155
O O10 0.744063 0.011672 0.963448
O O11 0.872182 0.181621 0.494648
O O12 0.697228 0.108991 0.528141
O O13 0.574706 0.246660 0.387277
O O14 0.739874 0.382477 0.838015
O O15 0.000000 0.987273 0.250000
#
# Coordination Sequence:
#
# PCOD9270482 Si02
#       7
#     8   8   8   8   8   8   8
#     4  11  21  37  62  88 124 158 197 254 297 368
#     4  11  22  37  61  90 120 157 201 249 307 369
#     4   9  20  39  61  83 114 159 199 251 305 362
#     4   9  20  39  59  81 119 151 202 255 300 362
#     4  10  20  35  59  87 115 154 195 251 303 362
#     4   9  19  38  58  83 119 155 196 240 308 358
#     4   9  21  38  58  82 122 162 194 243 299 361
#
# _framework density 23.004000000000001
#
# number of rings (size 3 to 8) (size 9 to 14) (size 15 to 20)
#    0.000    2.286    1.429    0.429    2.000    2.286 
#    2.571    0.000    3.143    0.000    0.000    0.000 
#    0.000    0.000    0.000    0.000    0.000    0.000 
#
# Total GULP energy -156409.480709 kJ/mol
# GULP energy per Si atom -5586.052882 kJ/mol
# Density = 2.295164 g / cm^3
# Si number density = 23.004000 Si / 1000 Ang^3
#
#
#
# Elastic Constant Matrix: (Units=GPa)
#
#
# Indices 1 2 3 4 5 6 
#
# 1 68.7640 19.1088 14.6725 0.0000 -0.2551 0.0000
# 2 19.1088 29.3384 4.6583 0.0000 -5.1206 0.0000
# 3 14.6725 4.6583 37.1328 0.0000 -5.8268 0.0000
# 4 0.0000 0.0000 0.0000 17.2262 0.0000 3.4357
# 5 -0.2551 -5.1206 -5.8268 0.0000 31.5332 0.0000
# 6 0.0000 0.0000 0.0000 3.4357 0.0000 19.2037
#
#
#
# Elastic Compliance Matrix: (Units=1/GPa)
#
#
# Indices 1 2 3 4 5 6 
#
# 1 0.019281 -0.012040 -0.006582 0.000000 -0.003015 0.000000
# 2 -0.012040 0.043074 0.000449 0.000000 0.006980 0.000000
# 3 -0.006582 0.000449 0.030358 0.000000 0.005629 0.000000
# 4 0.000000 0.000000 0.000000 0.060199 0.000000 -0.010770
# 5 -0.003015 0.006980 0.005629 0.000000 0.033862 0.000000
# 6 0.000000 0.000000 0.000000 -0.010770 0.000000 0.054000
#
#
# Mechanical properties :
#
#
# Convention : Reuss Voigt Hill
#
# Bulk Modulus (GPa) = 17.74032 23.56827 20.65429
# Shear Modulus (GPa) = 16.89712 20.04567 18.47140
#
# Velocity S-wave (km/s) = 2.71316 2.95515 2.83674
# Velocity P-wave (km/s) = 4.18850 4.68096 4.44156
#
# Compressibility (1/GPa) = 0.05636877
#
# Stress axis : x y z
#
# Youngs Moduli (GPa) = 51.86357 23.21596 32.94026
#
# Poissons Ratio (x) = 0.27951 0.21680
# Poissons Ratio (y) = 0.62442 -0.01479
# Poissons Ratio (z) = 0.34134 -0.01042
#
# Static dielectric constant tensor:
#      x y z
#    x 1.897060 0.000000 -0.012020 
#    y 0.000000 1.855660 0.000000 
#    z -0.012020 0.000000 1.852000 
# 
# From -- ./inp_files/308072.got.cif
#   From: 2010.05.17/outbox.cif.g08.bks.cpg/sg15_155_cif.got.tgz:308072.got - 2010.06.03 18:47:42.
