data_PCOD9270810
_publ_section_title
;
Structure prediction by ZEFSAII (Michael W. Deem and Ramdas Pophale) SiO2 
 PCOD9270810
Probable space group: C 2/C
;
_chemical_formula_sum "Si O2"
_cell_formula_units_Z 64
_cell_length_a 9.555884
_cell_length_b 17.195249
_cell_length_c 25.419042
_cell_angle_alpha 90.000000
_cell_angle_beta 132.672988
_cell_angle_gamma 90.000000
_cell_volume 3070.889826
_symmetry_space_group_name_H-M "C 2/C"
_symmetry_group_IT_number 15
_symmetry_cell_setting 'monoclinic'
loop_
_space_group_symop_operation_xyz
x,y,z
-x,y,1/2-z
-x,-y,-z
x,-y,1/2+z
1/2+x,1/2+y,z
1/2-x,1/2+y,1/2-z
1/2-x,1/2-y,-z
1/2+x,1/2-y,1/2+z
loop_
_atom_site_type_symbol
_atom_site_label
_atom_site_fract_x
_atom_site_fract_y
_atom_site_fract_z
Si Si1 0.818061 0.999603 0.736597
Si Si2 0.351400 0.504995 0.867562
Si Si3 0.479890 0.242090 0.894790
Si Si4 0.668384 0.847523 0.534090
Si Si5 0.934559 0.373006 0.881147
Si Si6 0.570762 0.902381 0.356024
Si Si7 0.645272 0.151124 0.332823
Si Si8 0.269755 0.996147 0.007657
O O1 0.632649 0.054970 0.690761
O O2 0.000000 0.028556 0.750000
O O3 0.873954 0.987741 0.811460
O O4 0.738886 0.921702 0.688552
O O5 0.191847 0.571286 0.836435
O O6 0.270811 0.426310 0.873666
O O7 0.555588 0.524233 0.944014
O O8 0.630976 0.312024 0.932992
O O9 0.529642 0.186821 0.858462
O O10 0.273461 0.279189 0.844479
O O11 0.514893 0.190645 0.955981
O O12 0.632896 0.826227 0.585394
O O13 0.675789 0.940251 0.527374
O O14 0.036382 0.329933 0.858879
O O15 0.088274 0.433861 0.944093
O O16 0.703492 0.937179 0.436592
O O17 0.500000 0.128061 0.250000
#
# Coordination Sequence:
#
# PCOD9270810 Si02
#       8
#     8   8   8   8   8   8   8   8
#     4  11  23  38  64  94 128 163 212 277 327 379
#     4  12  20  40  68  94 123 166 223 266 321 381
#     4  10  24  41  63  86 132 168 211 254 334 387
#     4  10  21  41  61  92 129 169 204 270 324 394
#     4  11  23  38  64  96 128 160 221 270 330 378
#     4  10  22  41  62  92 126 167 209 265 319 394
#     4  12  23  42  64  94 127 173 216 270 312 391
#     4  10  20  35  67  96 122 155 214 272 321 366
#
# _framework density 20.840865999999998
#
# number of rings (size 3 to 8) (size 9 to 14) (size 15 to 20)
#    0.000    1.250    5.000    1.875    0.000    3.000 
#    0.000    3.750    0.000    0.000    0.000    0.000 
#    0.000    0.000    0.000    0.000    0.000    0.000 
#
# Total GULP energy -178717.136038 kJ/mol
# GULP energy per Si atom -5584.910501 kJ/mol
# Density = 2.079343 g / cm^3
# Si number density = 20.840866 Si / 1000 Ang^3
#
#
#
# Elastic Constant Matrix: (Units=GPa)
#
#
# Indices 1 2 3 4 5 6 
#
# 1 110.4179 16.5719 33.9125 0.0000 -9.8704 0.0000
# 2 16.5719 47.4120 0.4528 0.0000 7.4482 0.0000
# 3 33.9125 0.4528 71.2620 0.0000 10.1594 0.0000
# 4 0.0000 0.0000 0.0000 13.5314 0.0000 -2.9339
# 5 -9.8704 7.4482 10.1594 0.0000 37.0658 0.0000
# 6 0.0000 0.0000 0.0000 -2.9339 0.0000 28.0222
#
#
#
# Elastic Compliance Matrix: (Units=1/GPa)
#
#
# Indices 1 2 3 4 5 6 
#
# 1 0.012500 -0.005287 -0.006807 0.000000 0.006257 0.000000
# 2 -0.005287 0.024033 0.003385 0.000000 -0.007165 0.000000
# 3 -0.006807 0.003385 0.018322 0.000000 -0.007515 0.000000
# 4 0.000000 0.000000 0.000000 0.075619 0.000000 0.007917
# 5 0.006257 -0.007165 -0.007515 0.000000 0.032145 0.000000
# 6 0.000000 0.000000 0.000000 0.007917 0.000000 0.036515
#
#
# Mechanical properties :
#
#
# Convention : Reuss Voigt Hill
#
# Bulk Modulus (GPa) = 26.71204 36.77406 31.74305
# Shear Modulus (GPa) = 21.83119 27.60086 24.71603
#
# Velocity S-wave (km/s) = 3.24005 3.64313 3.44748
# Velocity P-wave (km/s) = 5.18095 5.94811 5.57773
#
# Compressibility (1/GPa) = 0.03743630
#
# Stress axis : x y z
#
# Youngs Moduli (GPa) = 80.00085 41.60967 54.57978
#
# Poissons Ratio (x) = 0.21999 0.37152
# Poissons Ratio (y) = 0.42296 -0.18474
# Poissons Ratio (z) = 0.54456 -0.14084
#
# Static dielectric constant tensor:
#      x y z
#    x 1.782840 0.000000 -0.018630 
#    y 0.000000 1.758740 0.000000 
#    z -0.018630 0.000000 1.752450 
# 
# From -- ./inp_files/266141.got.cif
#   From: 2010.05.17/outbox.cif.g08.bks.cpg/sg15_134_cif.got.tgz:266141.got - 2010.06.03 18:47:42.
