data_PCOD9270723
_publ_section_title
;
Structure prediction by ZEFSAII (Michael W. Deem and Ramdas Pophale) SiO2 
 PCOD9270723
Probable space group: C 2/C
;
_chemical_formula_sum "Si O2"
_cell_formula_units_Z 56
_cell_length_a 7.698779
_cell_length_b 20.496757
_cell_length_c 14.305525
_cell_angle_alpha 90.000000
_cell_angle_beta 92.778543
_cell_angle_gamma 90.000000
_cell_volume 2254.757978
_symmetry_space_group_name_H-M "C 2/C"
_symmetry_group_IT_number 15
_symmetry_cell_setting 'monoclinic'
loop_
_space_group_symop_operation_xyz
x,y,z
-x,y,1/2-z
-x,-y,-z
x,-y,1/2+z
1/2+x,1/2+y,z
1/2-x,1/2+y,1/2-z
1/2-x,1/2-y,-z
1/2+x,1/2-y,1/2+z
loop_
_atom_site_type_symbol
_atom_site_label
_atom_site_fract_x
_atom_site_fract_y
_atom_site_fract_z
Si Si1 0.149002 0.014247 0.366509
Si Si2 0.235775 0.464385 0.821538
Si Si3 0.215436 0.335200 0.926775
Si Si4 0.156659 0.301069 0.560678
Si Si5 0.612489 0.364986 0.372289
Si Si6 0.299659 0.763145 0.737887
Si Si7 0.243456 0.919648 0.059877
O O1 0.174212 0.937518 0.348543
O O2 0.271557 0.046474 0.290305
O O3 0.179619 0.032047 0.474966
O O4 0.945742 0.031222 0.344468
O O5 0.166019 0.404493 0.879729
O O6 0.167195 0.532876 0.862136
O O7 0.311939 0.298514 0.844775
O O8 0.048575 0.289315 0.936596
O O9 0.309380 0.346451 0.025476
O O10 0.250000 0.250000 0.500000
O O11 0.253716 0.288068 0.661563
O O12 0.159086 0.367931 0.502209
O O13 0.673630 0.311681 0.297247
O O14 0.408319 0.379000 0.390556
O O15 0.500000 0.788039 0.750000
#
# Coordination Sequence:
#
# PCOD9270723 Si02
#       7
#     8   8   8   8   8   8   8
#     4  10  20  35  63 100 128 158 215 269 323 388
#     4  10  20  35  63  95 128 165 209 266 323 385
#     4  11  21  43  62  94 127 164 214 268 321 386
#     4  11  26  43  63  87 130 173 219 261 324 395
#     4  11  21  39  68  95 122 163 220 273 320 383
#     4  10  23  39  63  89 120 170 214 261 324 385
#     4  11  20  40  63  93 127 166 214 265 325 392
#
# _framework density 24.836368
#
# number of rings (size 3 to 8) (size 9 to 14) (size 15 to 20)
#    0.000    1.429    2.857    3.857    6.000    0.571 
#    0.000    2.143    0.000    0.000    0.000    0.000 
#    0.000    0.000    0.000    0.000    0.000    0.000 
#
# Total GULP energy -156197.104147 kJ/mol
# GULP energy per Si atom -5578.468005 kJ/mol
# Density = 2.477984 g / cm^3
# Si number density = 24.836368 Si / 1000 Ang^3
#
#
#
# Elastic Constant Matrix: (Units=GPa)
#
#
# Indices 1 2 3 4 5 6 
#
# 1 33.3532 20.6334 18.7113 0.0000 -2.3509 0.0000
# 2 20.6334 101.1783 29.4188 0.0000 -10.7491 0.0000
# 3 18.7113 29.4188 143.7363 0.0000 -10.6489 0.0000
# 4 0.0000 0.0000 0.0000 42.5889 0.0000 -3.7213
# 5 -2.3509 -10.7491 -10.6489 0.0000 26.3364 0.0000
# 6 0.0000 0.0000 0.0000 -3.7213 0.0000 28.1904
#
#
#
# Elastic Compliance Matrix: (Units=1/GPa)
#
#
# Indices 1 2 3 4 5 6 
#
# 1 0.035794 -0.006392 -0.003410 0.000000 -0.000793 0.000000
# 2 -0.006392 0.011978 -0.001340 0.000000 0.003776 0.000000
# 3 -0.003410 -0.001340 0.007847 0.000000 0.002322 0.000000
# 4 0.000000 0.000000 0.000000 0.023754 0.000000 0.003136
# 5 -0.000793 0.003776 0.002322 0.000000 0.040380 0.000000
# 6 0.000000 0.000000 0.000000 0.003136 0.000000 0.035887
#
#
# Mechanical properties :
#
#
# Convention : Reuss Voigt Hill
#
# Bulk Modulus (GPa) = 29.99826 46.19942 38.09884
# Shear Modulus (GPa) = 26.45010 33.39008 29.92009
#
# Velocity S-wave (km/s) = 3.26694 3.67059 3.47463
# Velocity P-wave (km/s) = 5.13177 6.05030 5.60987
#
# Compressibility (1/GPa) = 0.03333527
#
# Stress axis : x y z
#
# Youngs Moduli (GPa) = 27.93787 83.48752 127.43255
#
# Poissons Ratio (x) = 0.53367 0.43454
# Poissons Ratio (y) = 0.17858 0.17071
# Poissons Ratio (z) = 0.09527 0.11184
#
# Static dielectric constant tensor:
#      x y z
#    x 2.018780 0.000000 -0.061870 
#    y 0.000000 2.120510 0.000000 
#    z -0.061870 0.000000 2.154650 
# 
# From -- ./inp_files/136451.got.cif
#   From: 2010.05.17/outbox.cif.g08.bks.cpg/sg15_69_cif.got.tgz:136451.got - 2010.06.03 18:47:42.
