data_PCOD9270771
_publ_section_title
;
Structure prediction by ZEFSAII (Michael W. Deem and Ramdas Pophale) SiO2 
 PCOD9270771
Probable space group: C 2/C
;
_chemical_formula_sum "Si O2"
_cell_formula_units_Z 40
_cell_length_a 7.569614
_cell_length_b 24.749555
_cell_length_c 11.272950
_cell_angle_alpha 90.000000
_cell_angle_beta 44.841442
_cell_angle_gamma 90.000000
_cell_volume 1489.218870
_symmetry_space_group_name_H-M "C 2/C"
_symmetry_group_IT_number 15
_symmetry_cell_setting 'monoclinic'
loop_
_space_group_symop_operation_xyz
x,y,z
-x,y,1/2-z
-x,-y,-z
x,-y,1/2+z
1/2+x,1/2+y,z
1/2-x,1/2+y,1/2-z
1/2-x,1/2-y,-z
1/2+x,1/2-y,1/2+z
loop_
_atom_site_type_symbol
_atom_site_label
_atom_site_fract_x
_atom_site_fract_y
_atom_site_fract_z
Si Si1 0.760429 0.966564 0.678631
Si Si2 0.100918 0.869827 0.505153
Si Si3 0.169809 0.770012 0.790018
Si Si4 0.543645 0.165044 0.971917
Si Si5 0.733342 0.567057 0.702390
O O1 0.500000 0.943734 0.750000
O O2 0.908888 0.913622 0.652109
O O3 0.627928 0.014359 0.818921
O O4 0.000000 0.000000 0.500000
O O5 0.331459 0.858440 0.483190
O O6 0.184738 0.896003 0.341388
O O7 0.977128 0.810925 0.553662
O O8 0.415420 0.802228 0.637420
O O9 0.196930 0.711295 0.831122
O O10 0.000000 0.765368 0.750000
O O11 0.686970 0.110708 0.933212
O O12 0.500000 0.539651 0.750000
#
# Coordination Sequence:
#
# PCOD9270771 Si02
#       5
#     8   8   8   8   8
#     4  10  22  42  66  92 128 177 222 271 331 391
#     4  10  21  40  63  92 126 165 214 270 323 390
#     4  10  20  35  64  95 120 161 216 268 322 390
#     4  11  21  40  66  95 127 169 221 273 326 391
#     4  11  23  39  61  92 129 172 216 270 331 390
#
# _framework density 26.859721
#
# number of rings (size 3 to 8) (size 9 to 14) (size 15 to 20)
#    0.000    1.600    0.000    7.800    0.000    5.600 
#    0.000   11.000    0.000    0.000    0.000    0.000 
#    0.000    0.000    0.000    0.000    0.000    0.000 
#
# Total GULP energy -111665.297974 kJ/mol
# GULP energy per Si atom -5583.264899 kJ/mol
# Density = 2.679859 g / cm^3
# Si number density = 26.859721 Si / 1000 Ang^3
#
#
#
# Elastic Constant Matrix: (Units=GPa)
#
#
# Indices 1 2 3 4 5 6 
#
# 1 50.4368 7.3189 14.5489 0.0000 -4.9506 0.0000
# 2 7.3189 183.3948 33.4304 0.0000 0.9988 0.0000
# 3 14.5489 33.4304 107.5943 0.0000 11.4258 0.0000
# 4 0.0000 0.0000 0.0000 269.0539 0.0000 83.0060
# 5 -4.9506 0.9988 11.4258 0.0000 25.5597 0.0000
# 6 0.0000 0.0000 0.0000 83.0060 0.0000 60.7658
#
#
#
# Elastic Compliance Matrix: (Units=1/GPa)
#
#
# Indices 1 2 3 4 5 6 
#
# 1 0.021408 -0.000262 -0.003417 0.000000 0.005684 0.000000
# 2 -0.000262 0.005792 -0.001821 0.000000 0.000537 0.000000
# 3 -0.003417 -0.001821 0.010902 0.000000 -0.005464 0.000000
# 4 0.000000 0.000000 0.000000 0.006424 0.000000 -0.008775
# 5 0.005684 0.000537 -0.005464 0.000000 0.042647 0.000000
# 6 0.000000 0.000000 0.000000 -0.008775 0.000000 0.028443
#
#
# Mechanical properties :
#
#
# Convention : Reuss Voigt Hill
#
# Bulk Modulus (GPa) = 36.89792 50.22471 43.56131
# Shear Modulus (GPa) = 36.85895 90.15105 63.50500
#
# Velocity S-wave (km/s) = 3.70844 5.79970 4.86770
# Velocity P-wave (km/s) = 5.66602 7.97422 6.91708
#
# Compressibility (1/GPa) = 0.02710180
#
# Stress axis : x y z
#
# Youngs Moduli (GPa) = 46.71053 172.64446 91.72338
#
# Poissons Ratio (x) = 0.04531 0.31341
# Poissons Ratio (y) = 0.01226 0.16705
# Poissons Ratio (z) = 0.15961 0.31442
#
# Static dielectric constant tensor:
#      x y z
#    x 2.089210 0.000000 -0.024620 
#    y 0.000000 1.993840 0.000000 
#    z -0.024620 0.000000 2.421280 
# 
# From -- ./inp_files/137081.got.cif
#   From: 2010.05.17/outbox.cif.g08.bks.cpg/sg15_69_cif.got.tgz:137081.got - 2010.06.03 18:47:42.
