data_PCOD9270601
_publ_section_title
;
Structure prediction by ZEFSAII (Michael W. Deem and Ramdas Pophale) SiO2 
 PCOD9270601
Probable space group: C 2/C
;
_chemical_formula_sum "Si O2"
_cell_formula_units_Z 60
_cell_length_a 17.629054
_cell_length_b 14.834138
_cell_length_c 13.901825
_cell_angle_alpha 90.000000
_cell_angle_beta 134.145889
_cell_angle_gamma 90.000000
_cell_volume 2608.714953
_symmetry_space_group_name_H-M "C 2/C"
_symmetry_group_IT_number 15
_symmetry_cell_setting 'monoclinic'
loop_
_space_group_symop_operation_xyz
x,y,z
-x,y,1/2-z
-x,-y,-z
x,-y,1/2+z
1/2+x,1/2+y,z
1/2-x,1/2+y,1/2-z
1/2-x,1/2-y,-z
1/2+x,1/2-y,1/2+z
loop_
_atom_site_type_symbol
_atom_site_label
_atom_site_fract_x
_atom_site_fract_y
_atom_site_fract_z
Si Si1 0.092700 0.912398 0.972619
Si Si2 0.238681 0.483541 0.083957
Si Si3 0.923228 0.580273 0.901525
Si Si4 0.169329 0.377566 0.381443
Si Si5 0.673394 0.169441 0.401962
Si Si6 0.485514 0.785938 0.878937
Si Si7 0.539959 0.424449 0.149755
Si Si8 0.000000 0.776620 0.750000
O O1 0.013900 0.842770 0.852228
O O2 0.210357 0.879851 0.051080
O O3 0.069508 0.915364 0.064290
O O4 0.061008 0.014425 0.916600
O O5 0.180032 0.438792 0.123705
O O6 0.361233 0.478016 0.217958
O O7 0.182127 0.574504 0.997075
O O8 0.225807 0.423102 0.977070
O O9 0.896908 0.577205 0.765202
O O10 0.976783 0.674724 0.984964
O O11 0.000000 0.500000 0.000000
O O12 0.104791 0.285095 0.336696
O O13 0.750000 0.250000 0.500000
O O14 0.628510 0.176368 0.254946
O O15 0.574077 0.175017 0.386109
O O16 0.479176 0.680556 0.845678
#
# Coordination Sequence:
#
# PCOD9270601 Si02
#       8
#     8   8   8   8   8   8   8   4
#     4  11  26  45  69 100 138 183 239 306 359 433
#     4  11  23  41  68  99 137 178 233 295 351 432
#     4  11  23  44  65 101 146 189 240 296 358 437
#     4  12  25  44  74 102 140 196 241 298 378 441
#     4  10  20  35  60  96 130 169 220 275 349 421
#     4  10  22  38  64  95 132 178 228 289 349 423
#     4  11  23  45  67  99 138 180 239 297 359 424
#     4  12  26  48  72 108 144 188 252 304 372 456
#
# _framework density 22.999829999999999
#
# number of rings (size 3 to 8) (size 9 to 14) (size 15 to 20)
#    0.000    1.067    2.667    3.600    1.867    3.200 
#    0.000    0.000    0.000    0.000    0.000    0.000 
#    0.000    0.000    0.000    0.000    0.000    0.000 
#
# Total GULP energy -167444.731298 kJ/mol
# GULP energy per Si atom -5581.491043 kJ/mol
# Density = 2.294748 g / cm^3
# Si number density = 22.999830 Si / 1000 Ang^3
#
#
#
# Elastic Constant Matrix: (Units=GPa)
#
#
# Indices 1 2 3 4 5 6 
#
# 1 62.9857 12.3124 27.2993 0.0000 8.8754 0.0000
# 2 12.3124 96.0556 42.0263 0.0000 9.2981 0.0000
# 3 27.2993 42.0263 134.5093 0.0000 -2.7935 0.0000
# 4 0.0000 0.0000 0.0000 44.4638 0.0000 0.3420
# 5 8.8754 9.2981 -2.7935 0.0000 40.4813 0.0000
# 6 0.0000 0.0000 0.0000 0.3420 0.0000 30.2019
#
#
#
# Elastic Compliance Matrix: (Units=1/GPa)
#
#
# Indices 1 2 3 4 5 6 
#
# 1 0.018111 -0.000317 -0.003663 0.000000 -0.004151 0.000000
# 2 -0.000317 0.012449 -0.003889 0.000000 -0.003058 0.000000
# 3 -0.003663 -0.003889 0.009442 0.000000 0.002348 0.000000
# 4 0.000000 0.000000 0.000000 0.022492 0.000000 -0.000255
# 5 -0.004151 -0.003058 0.002348 0.000000 0.026477 0.000000
# 6 0.000000 0.000000 0.000000 -0.000255 0.000000 0.033113
#
#
# Mechanical properties :
#
#
# Convention : Reuss Voigt Hill
#
# Bulk Modulus (GPa) = 41.21317 50.75849 45.98583
# Shear Modulus (GPa) = 34.26788 37.15692 35.71240
#
# Velocity S-wave (km/s) = 3.86413 4.02373 3.94474
# Velocity P-wave (km/s) = 6.15358 6.61091 6.38634
#
# Compressibility (1/GPa) = 0.02426409
#
# Stress axis : x y z
#
# Youngs Moduli (GPa) = 55.21491 80.32990 105.91482
#
# Poissons Ratio (x) = 0.02547 0.38795
# Poissons Ratio (y) = 0.01751 0.41186
# Poissons Ratio (z) = 0.20224 0.31237
#
# Static dielectric constant tensor:
#      x y z
#    x 1.859200 0.000000 -0.015480 
#    y 0.000000 1.955630 0.000000 
#    z -0.015480 0.000000 1.945990 
# 
# From -- ./inp_files/168653.got.cif
#   From: 2010.05.17/outbox.cif.g08.bks.cpg/sg15_85_cif.got.tgz:168653.got - 2010.06.03 18:47:42.
