data_PCOD9270985
_publ_section_title
;
Structure prediction by ZEFSAII (Michael W. Deem and Ramdas Pophale) SiO2 
 PCOD9270985
Probable space group: C 2/C
;
_chemical_formula_sum "Si O2"
_cell_formula_units_Z 60
_cell_length_a 27.876290
_cell_length_b 7.318967
_cell_length_c 27.824205
_cell_angle_alpha 90.000000
_cell_angle_beta 146.923521
_cell_angle_gamma 90.000000
_cell_volume 3098.187164
_symmetry_space_group_name_H-M "C 2/C"
_symmetry_group_IT_number 15
_symmetry_cell_setting 'monoclinic'
loop_
_space_group_symop_operation_xyz
x,y,z
-x,y,1/2-z
-x,-y,-z
x,-y,1/2+z
1/2+x,1/2+y,z
1/2-x,1/2+y,1/2-z
1/2-x,1/2-y,-z
1/2+x,1/2-y,1/2+z
loop_
_atom_site_type_symbol
_atom_site_label
_atom_site_fract_x
_atom_site_fract_y
_atom_site_fract_z
Si Si1 0.262910 0.755969 0.330812
Si Si2 0.582880 0.766086 0.548151
Si Si3 0.505489 0.042678 0.346383
Si Si4 0.052752 0.680827 0.487740
Si Si5 0.500000 0.245875 0.250000
Si Si6 0.774824 0.634965 0.735045
Si Si7 0.542720 0.678007 0.143197
Si Si8 0.614741 0.353261 0.266752
O O1 0.362168 0.705132 0.427186
O O2 0.216588 0.570117 0.276079
O O3 0.262613 0.873545 0.282109
O O4 0.215306 0.859914 0.334643
O O5 0.533900 0.744907 0.558484
O O6 0.684762 0.714690 0.637213
O O7 0.525359 0.666488 0.458336
O O8 0.572088 0.979428 0.525700
O O9 0.547945 0.145192 0.427267
O O10 0.542593 0.112890 0.326463
O O11 0.411313 0.141931 0.263902
O O12 0.495230 0.832217 0.351849
O O13 0.573917 0.369766 0.285795
O O14 0.863920 0.745225 0.798233
O O15 0.562876 0.492676 0.188652
#
# Coordination Sequence:
#
# PCOD9270985 Si02
#       8
#     8   8   8   8   4   8   8   8
#     4  12  23  36  57  85 123 163 197 243 293 352
#     4  10  22  35  57  87 121 160 197 230 293 362
#     4   9  20  39  60  84 115 150 198 249 289 353
#     4  10  20  36  56  82 122 155 194 241 294 349
#     4   8  20  40  60  84 114 148 210 250 296 348
#     4  12  23  36  54  87 126 161 200 236 288 364
#     4  11  21  39  62  91 123 157 195 241 299 356
#     4  10  21  39  60  84 115 152 203 244 296 348
#
# _framework density 19.366161999999999
#
# number of rings (size 3 to 8) (size 9 to 14) (size 15 to 20)
#    0.800    0.800    2.667    3.200    3.733    1.067 
#    0.000    0.667    0.000    0.000    0.000    8.400 
#    0.000    0.000    0.000    0.000    0.000    0.000 
#
# Total GULP energy -167056.411869 kJ/mol
# GULP energy per Si atom -5568.547062 kJ/mol
# Density = 1.932208 g / cm^3
# Si number density = 19.366162 Si / 1000 Ang^3
#
#
#
# Elastic Constant Matrix: (Units=GPa)
#
#
# Indices 1 2 3 4 5 6 
#
# 1 131.4169 21.8871 40.1361 0.0000 -7.3744 0.0002
# 2 21.8871 42.6386 -11.1647 -0.0006 -2.7245 0.0000
# 3 40.1361 -11.1647 68.3692 0.0001 1.3365 0.0003
# 4 0.0000 -0.0006 0.0001 24.1688 0.0000 -2.4253
# 5 -7.3744 -2.7245 1.3365 0.0000 27.4326 -0.0001
# 6 0.0002 0.0000 0.0003 -2.4253 -0.0001 26.2695
#
#
#
# Elastic Compliance Matrix: (Units=1/GPa)
#
#
# Indices 1 2 3 4 5 6 
#
# 1 0.011557 -0.007886 -0.008126 0.000000 0.002719 0.000000
# 2 -0.007886 0.030020 0.009524 0.000001 0.000398 0.000000
# 3 -0.008126 0.009524 0.020996 0.000000 -0.002261 0.000000
# 4 0.000000 0.000001 0.000000 0.041763 0.000000 0.003856
# 5 0.002719 0.000398 -0.002261 0.000000 0.037334 0.000000
# 6 0.000000 0.000000 0.000000 0.003856 0.000000 0.038423
#
#
# Mechanical properties :
#
#
# Convention : Reuss Voigt Hill
#
# Bulk Modulus (GPa) = 20.16204 38.23796 29.20000
# Shear Modulus (GPa) = 23.85491 28.34526 26.10008
#
# Velocity S-wave (km/s) = 3.51348 3.82992 3.67511
# Velocity P-wave (km/s) = 5.18585 6.27258 5.75492
#
# Compressibility (1/GPa) = 0.04959815
#
# Stress axis : x y z
#
# Youngs Moduli (GPa) = 86.52749 33.31075 47.62805
#
# Poissons Ratio (x) = 0.26270 0.38700
# Poissons Ratio (y) = 0.68238 -0.45362
# Poissons Ratio (z) = 0.70308 -0.31726
#
# Static dielectric constant tensor:
#      x y z
#    x 1.772990 0.000000 0.012360 
#    y 0.000000 1.723220 0.000000 
#    z 0.012360 0.000000 1.696730 
# 
# From -- ./inp_files/303112.got.cif
#   From: 2010.05.17/outbox.cif.g08.bks.cpg/sg15_152_cif.got.tgz:303112.got - 2010.06.03 18:47:42.
