data_PCOD9270249
_publ_section_title
;
Structure prediction by ZEFSAII (Michael W. Deem and Ramdas Pophale) SiO2 
 PCOD9270249
Probable space group: C 2/C
;
_chemical_formula_sum "Si O2"
_cell_formula_units_Z 48
_cell_length_a 27.232138
_cell_length_b 10.911198
_cell_length_c 8.672314
_cell_angle_alpha 90.000000
_cell_angle_beta 117.548948
_cell_angle_gamma 90.000000
_cell_volume 2284.676697
_symmetry_space_group_name_H-M "C 2/C"
_symmetry_group_IT_number 15
_symmetry_cell_setting 'monoclinic'
loop_
_space_group_symop_operation_xyz
x,y,z
-x,y,1/2-z
-x,-y,-z
x,-y,1/2+z
1/2+x,1/2+y,z
1/2-x,1/2+y,1/2-z
1/2-x,1/2-y,-z
1/2+x,1/2-y,1/2+z
loop_
_atom_site_type_symbol
_atom_site_label
_atom_site_fract_x
_atom_site_fract_y
_atom_site_fract_z
Si Si1 0.617150 0.984795 0.040908
Si Si2 0.194921 0.124383 0.813935
Si Si3 0.378068 0.477200 0.021056
Si Si4 0.544617 0.400005 0.626257
Si Si5 0.689206 0.897434 0.889093
Si Si6 0.451099 0.875812 0.282530
O O1 0.668151 0.011492 0.227971
O O2 0.569642 0.939500 0.090101
O O3 0.598723 0.104758 0.914620
O O4 0.639359 0.892026 0.942315
O O5 0.165500 0.067523 0.623299
O O6 0.200770 0.269946 0.820157
O O7 0.153983 0.097072 0.896313
O O8 0.254490 0.067929 0.941770
O O9 0.427195 0.549058 0.178202
O O10 0.406866 0.396956 0.931201
O O11 0.500000 0.500000 0.500000
O O12 0.529004 0.259978 0.639554
O O13 0.500000 0.933453 0.250000
#
# Coordination Sequence:
#
# PCOD9270249 Si02
#       6
#     8   8   8   8   8   8
#     4  10  22  38  58  84 115 153 194 240 286 345
#     4  10  20  35  57  83 115 150 189 235 285 343
#     4  10  21  36  55  84 114 147 186 234 288 341
#     4  11  22  38  59  85 115 150 192 240 294 348
#     4  10  20  36  57  83 113 151 191 233 285 339
#     4  11  22  39  59  83 114 150 195 240 290 345
#
# _framework density 21.009536000000001
#
# number of rings (size 3 to 8) (size 9 to 14) (size 15 to 20)
#    0.000    1.667    0.000    5.000    0.000    1.333 
#    0.000    5.000    0.000   16.000    0.000    0.000 
#    0.000    0.000    0.000    0.000    0.000    0.000 
#
# Total GULP energy -133755.413650 kJ/mol
# GULP energy per Si atom -5573.142235 kJ/mol
# Density = 2.096172 g / cm^3
# Si number density = 21.009536 Si / 1000 Ang^3
#
#
#
# Elastic Constant Matrix: (Units=GPa)
#
#
# Indices 1 2 3 4 5 6 
#
# 1 40.8967 -0.2310 -2.8721 0.0000 -4.7469 0.0000
# 2 -0.2310 56.5847 31.2729 0.0000 6.8562 0.0000
# 3 -2.8721 31.2729 120.6555 0.0000 17.1083 0.0000
# 4 0.0000 0.0000 0.0000 7.6131 0.0000 8.9958
# 5 -4.7469 6.8562 17.1083 0.0000 42.1580 0.0000
# 6 0.0000 0.0000 0.0000 8.9958 0.0000 20.8635
#
#
#
# Elastic Compliance Matrix: (Units=1/GPa)
#
#
# Indices 1 2 3 4 5 6 
#
# 1 0.024788 -0.000399 0.000306 0.000000 0.002732 0.000000
# 2 -0.000399 0.020697 -0.005189 0.000000 -0.001305 0.000000
# 3 0.000306 -0.005189 0.010097 0.000000 -0.003219 0.000000
# 4 0.000000 0.000000 0.000000 0.267783 0.000000 -0.115461
# 5 0.002732 -0.001305 -0.003219 0.000000 0.025546 0.000000
# 6 0.000000 0.000000 0.000000 -0.115461 0.000000 0.097714
#
#
# Mechanical properties :
#
#
# Convention : Reuss Voigt Hill
#
# Bulk Modulus (GPa) = 22.21321 30.49740 26.35530
# Shear Modulus (GPa) = 10.58884 26.79138 18.69011
#
# Velocity S-wave (km/s) = 2.24743 3.57487 2.98585
# Velocity P-wave (km/s) = 4.16299 5.62024 4.94558
#
# Compressibility (1/GPa) = 0.04501826
#
# Stress axis : x y z
#
# Youngs Moduli (GPa) = 40.34180 48.31637 99.04219
#
# Poissons Ratio (x) = 0.01928 -0.03032
# Poissons Ratio (y) = 0.01610 0.51392
# Poissons Ratio (z) = -0.01235 0.25071
#
# Static dielectric constant tensor:
#      x y z
#    x 1.798230 0.000000 0.029770 
#    y 0.000000 1.756140 0.000000 
#    z 0.029770 0.000000 1.758900 
# 
# From -- ./inp_files/60683.got.cif
#   From: 2010.05.17/outbox.cif.g08.bks.cpg/sg15_31_cif.got.tgz:60683.got - 2010.06.03 18:47:42.
