data_PCOD9270490
_publ_section_title
;
Structure prediction by ZEFSAII (Michael W. Deem and Ramdas Pophale) SiO2 
 PCOD9270490
Probable space group: C 2/C
;
_chemical_formula_sum "Si O2"
_cell_formula_units_Z 44
_cell_length_a 19.145037
_cell_length_b 9.647215
_cell_length_c 18.286445
_cell_angle_alpha 90.000000
_cell_angle_beta 150.686470
_cell_angle_gamma 90.000000
_cell_volume 1653.554621
_symmetry_space_group_name_H-M "C 2/C"
_symmetry_group_IT_number 15
_symmetry_cell_setting 'monoclinic'
loop_
_space_group_symop_operation_xyz
x,y,z
-x,y,1/2-z
-x,-y,-z
x,-y,1/2+z
1/2+x,1/2+y,z
1/2-x,1/2+y,1/2-z
1/2-x,1/2-y,-z
1/2+x,1/2-y,1/2+z
loop_
_atom_site_type_symbol
_atom_site_label
_atom_site_fract_x
_atom_site_fract_y
_atom_site_fract_z
Si Si1 0.413349 0.775611 0.418628
Si Si2 0.250897 0.420102 0.598365
Si Si3 0.282304 0.584619 0.492483
Si Si4 0.500000 0.212984 0.250000
Si Si5 0.321332 0.936629 0.795419
Si Si6 0.553465 0.679812 0.406278
O O1 0.524867 0.861394 0.569701
O O2 0.299097 0.667207 0.347117
O O3 0.512475 0.687832 0.454367
O O4 0.339251 0.897481 0.300894
O O5 0.259514 0.556987 0.558913
O O6 0.221350 0.437618 0.656854
O O7 0.404608 0.348685 0.730961
O O8 0.128151 0.322879 0.454941
O O9 0.412359 0.691783 0.613212
O O10 0.124629 0.626600 0.324233
O O11 0.338350 0.444194 0.509258
#
# Coordination Sequence:
#
# PCOD9270490 Si02
#       6
#     8   8   8   4   8   8
#     4   9  19  37  61  85 120 157 207 253 308 357
#     4  10  20  35  59  88 119 156 202 255 304 357
#     4  11  21  40  58  88 124 158 200 245 301 381
#     4  10  24  38  60  82 126 166 192 244 310 368
#     4   9  19  37  61  88 122 160 204 262 303 365
#     4  10  20  35  61  86 117 156 205 253 297 362
#
# _framework density 26.609342999999999
#
# number of rings (size 3 to 8) (size 9 to 14) (size 15 to 20)
#    0.000    2.182    1.818    0.545    2.545    0.727 
#    0.000    5.455    8.000    0.000    0.000    0.000 
#    0.000    0.000    0.000    0.000    0.000    0.000 
#
# Total GULP energy -123135.346337 kJ/mol
# GULP energy per Si atom -5597.061197 kJ/mol
# Density = 2.654878 g / cm^3
# Si number density = 26.609343 Si / 1000 Ang^3
#
#
#
# Elastic Constant Matrix: (Units=GPa)
#
#
# Indices 1 2 3 4 5 6 
#
# 1 70.1463 22.0229 39.5687 0.0000 16.4714 0.0000
# 2 22.0229 86.7297 34.7349 -0.0001 19.2813 0.0000
# 3 39.5687 34.7349 150.5355 -0.0002 25.4503 -0.0001
# 4 0.0000 -0.0001 -0.0002 57.1353 -0.0001 19.0512
# 5 16.4714 19.2813 25.4503 -0.0001 45.6826 0.0000
# 6 0.0000 0.0000 -0.0001 19.0512 0.0000 36.3662
#
#
#
# Elastic Compliance Matrix: (Units=1/GPa)
#
#
# Indices 1 2 3 4 5 6 
#
# 1 0.017806 -0.002328 -0.003559 0.000000 -0.003455 0.000000
# 2 -0.002328 0.013751 -0.001901 0.000000 -0.003906 0.000000
# 3 -0.003559 -0.001901 0.008461 0.000000 -0.002628 0.000000
# 4 0.000000 0.000000 0.000000 0.021207 0.000000 -0.011110
# 5 -0.003455 -0.003906 -0.002628 0.000000 0.026249 0.000000
# 6 0.000000 0.000000 0.000000 -0.011110 0.000000 0.033318
#
#
# Mechanical properties :
#
#
# Convention : Reuss Voigt Hill
#
# Bulk Modulus (GPa) = 40.91245 55.56273 48.23759
# Shear Modulus (GPa) = 34.59880 41.90915 38.25398
#
# Velocity S-wave (km/s) = 3.60981 3.97291 3.79570
# Velocity P-wave (km/s) = 5.72564 6.47854 6.11369
#
# Compressibility (1/GPa) = 0.02444244
#
# Stress axis : x y z
#
# Youngs Moduli (GPa) = 56.16210 72.72380 118.18371
#
# Poissons Ratio (x) = 0.16929 0.42062
# Poissons Ratio (y) = 0.13074 0.22463
# Poissons Ratio (z) = 0.19988 0.13822
#
# Static dielectric constant tensor:
#      x y z
#    x 2.126650 0.000000 -0.062460 
#    y 0.000000 2.058920 0.000000 
#    z -0.062460 0.000000 2.068700 
# 
# From -- ./inp_files/303173.got.cif
#   From: 2010.05.17/outbox.cif.g08.bks.cpg/sg15_152_cif.got.tgz:303173.got - 2010.06.03 18:47:42.
