data_PCOD9270474
_publ_section_title
;
Structure prediction by ZEFSAII (Michael W. Deem and Ramdas Pophale) SiO2 
 PCOD9270474
Probable space group: C 2/C
;
_chemical_formula_sum "Si O2"
_cell_formula_units_Z 64
_cell_length_a 16.490607
_cell_length_b 14.791803
_cell_length_c 18.218835
_cell_angle_alpha 90.000000
_cell_angle_beta 139.472348
_cell_angle_gamma 90.000000
_cell_volume 2887.806324
_symmetry_space_group_name_H-M "C 2/C"
_symmetry_group_IT_number 15
_symmetry_cell_setting 'monoclinic'
loop_
_space_group_symop_operation_xyz
x,y,z
-x,y,1/2-z
-x,-y,-z
x,-y,1/2+z
1/2+x,1/2+y,z
1/2-x,1/2+y,1/2-z
1/2-x,1/2-y,-z
1/2+x,1/2-y,1/2+z
loop_
_atom_site_type_symbol
_atom_site_label
_atom_site_fract_x
_atom_site_fract_y
_atom_site_fract_z
Si Si1 0.425252 0.412098 0.265337
Si Si2 0.709893 0.815380 0.664852
Si Si3 0.839771 0.764634 0.891188
Si Si4 0.678270 0.178093 0.398990
Si Si5 0.341495 0.504691 0.998821
Si Si6 0.084455 0.134130 0.578942
Si Si7 0.780149 0.461669 0.947649
Si Si8 0.526269 0.111033 0.423744
O O1 0.500000 0.361170 0.250000
O O2 0.527966 0.481399 0.370499
O O3 0.378456 0.370449 0.309725
O O4 0.312868 0.460508 0.146605
O O5 0.819133 0.777462 0.791199
O O6 0.640063 0.727171 0.587422
O O7 0.742229 0.879355 0.621126
O O8 0.615942 0.876266 0.650444
O O9 0.706511 0.776619 0.840204
O O10 0.900604 0.674317 0.966732
O O11 0.936513 0.845515 0.978170
O O12 0.750000 0.250000 0.500000
O O13 0.557635 0.152375 0.364530
O O14 0.753642 0.084106 0.441814
O O15 0.262084 0.566300 0.000163
O O16 0.371589 0.552175 0.942137
O O17 0.915530 0.510434 0.036338
#
# Coordination Sequence:
#
# PCOD9270474 Si02
#       8
#     8   8   8   8   8   8   8   8
#     4  10  20  35  62  92 114 148 186 241 296 344
#     4  11  23  36  55  84 113 157 195 241 285 344
#     4  10  20  36  56  85 113 147 191 242 294 350
#     4   9  18  34  56  81 116 143 181 231 292 347
#     4  10  20  35  59  86 115 154 188 239 288 339
#     4  11  22  37  59  88 118 149 195 243 296 339
#     4  10  21  37  57  82 117 156 197 227 290 354
#     4   9  20  38  54  79 113 153 189 236 292 351
#
# _framework density 22.16215
#
# number of rings (size 3 to 8) (size 9 to 14) (size 15 to 20)
#    0.000    2.000    1.250    2.250    1.750    2.000 
#    0.000    0.000    0.000    0.000    0.000    0.000 
#    0.000    0.000    0.000    0.000    0.000    0.000 
#
# Total GULP energy -178361.214052 kJ/mol
# GULP energy per Si atom -5573.787939 kJ/mol
# Density = 2.211171 g / cm^3
# Si number density = 22.162150 Si / 1000 Ang^3
#
#
#
# Elastic Constant Matrix: (Units=GPa)
#
#
# Indices 1 2 3 4 5 6 
#
# 1 101.7666 36.6517 13.9138 0.0000 -31.2359 0.0000
# 2 36.6517 62.4109 3.0088 0.0000 -20.7401 0.0000
# 3 13.9138 3.0088 45.2300 0.0000 -20.5224 0.0000
# 4 0.0000 0.0000 0.0000 21.2439 0.0000 -10.8360
# 5 -31.2359 -20.7401 -20.5224 0.0000 35.4064 0.0000
# 6 0.0000 0.0000 0.0000 -10.8360 0.0000 34.1091
#
#
#
# Elastic Compliance Matrix: (Units=1/GPa)
#
#
# Indices 1 2 3 4 5 6 
#
# 1 0.014819 -0.005336 0.000420 0.000000 0.010191 0.000000
# 2 -0.005336 0.022831 0.005502 0.000000 0.011855 0.000000
# 3 0.000420 0.005502 0.031539 0.000000 0.021875 0.000000
# 4 0.000000 0.000000 0.000000 0.056175 0.000000 0.017846
# 5 0.010191 0.011855 0.021875 0.000000 0.056858 0.000000
# 6 0.000000 0.000000 0.000000 0.017846 0.000000 0.034987
#
#
# Mechanical properties :
#
#
# Convention : Reuss Voigt Hill
#
# Bulk Modulus (GPa) = 14.21235 35.17289 24.69262
# Shear Modulus (GPa) = 20.87768 28.54077 24.70922
#
# Velocity S-wave (km/s) = 3.07260 3.59251 3.34268
# Velocity P-wave (km/s) = 4.36058 5.75442 5.10529
#
# Compressibility (1/GPa) = 0.07036133
#
# Stress axis : x y z
#
# Youngs Moduli (GPa) = 67.48174 43.80014 31.70669
#
# Poissons Ratio (x) = 0.23372 -0.01333
# Poissons Ratio (y) = 0.36009 -0.17445
# Poissons Ratio (z) = -0.02837 -0.24098
#
# Static dielectric constant tensor:
#      x y z
#    x 1.883710 0.000000 0.012630 
#    y 0.000000 1.844470 0.000000 
#    z 0.012630 0.000000 1.845650 
# 
# From -- ./inp_files/205754.got.cif
#   From: 2010.05.17/outbox.cif.g08.bks.cpg/sg15_103_cif.got.tgz:205754.got - 2010.06.03 18:47:42.
