data_PCOD9270219
_publ_section_title
;
Structure prediction by ZEFSAII (Michael W. Deem and Ramdas Pophale) SiO2 
 PCOD9270219
Probable space group: C 2/C
;
_chemical_formula_sum "Si O2"
_cell_formula_units_Z 56
_cell_length_a 25.373365
_cell_length_b 11.467422
_cell_length_c 9.360025
_cell_angle_alpha 90.000000
_cell_angle_beta 70.160198
_cell_angle_gamma 90.000000
_cell_volume 2561.808884
_symmetry_space_group_name_H-M "C 2/C"
_symmetry_group_IT_number 15
_symmetry_cell_setting 'monoclinic'
loop_
_space_group_symop_operation_xyz
x,y,z
-x,y,1/2-z
-x,-y,-z
x,-y,1/2+z
1/2+x,1/2+y,z
1/2-x,1/2+y,1/2-z
1/2-x,1/2-y,-z
1/2+x,1/2-y,1/2+z
loop_
_atom_site_type_symbol
_atom_site_label
_atom_site_fract_x
_atom_site_fract_y
_atom_site_fract_z
Si Si1 0.200606 0.013068 0.679869
Si Si2 0.630099 0.312085 0.892065
Si Si3 0.314324 0.760063 0.886206
Si Si4 0.935530 0.758812 0.821672
Si Si5 0.673566 0.822107 0.929217
Si Si6 0.244543 0.401682 0.118408
Si Si7 0.460753 0.480433 0.400847
O O1 0.166930 0.134305 0.701151
O O2 0.255403 0.046988 0.722501
O O3 0.174793 0.895067 0.768603
O O4 0.213645 0.985683 0.505293
O O5 0.594669 0.248031 0.803288
O O6 0.653285 0.228669 0.994223
O O7 0.590463 0.404227 0.005096
O O8 0.322389 0.847861 0.745794
O O9 0.250000 0.750000 0.000000
O O10 0.000000 0.715773 0.750000
O O11 0.940955 0.896972 0.852986
O O12 0.890938 0.709393 0.976552
O O13 0.720917 0.718996 0.897323
O O14 0.693618 0.892710 0.053797
O O15 0.500000 0.418073 0.250000
O O16 0.500000 0.500000 0.500000
#
# Coordination Sequence:
#
# PCOD9270219 Si02
#       7
#     8   8   8   8   8   8   8
#     4  11  20  34  55  79 108 140 188 221 278 329
#     4  12  21  35  53  76 110 150 186 225 269 320
#     4  11  24  35  53  79 115 146 184 229 279 336
#     4  11  22  36  52  77 111 151 190 223 270 328
#     4  10  22  37  54  79 115 148 184 229 284 320
#     4  10  20  35  57  78 110 146 182 229 277 334
#     4  11  21  33  49  74 108 146 194 226 251 314
#
# _framework density 21.859556000000001
#
# number of rings (size 3 to 8) (size 9 to 14) (size 15 to 20)
#    0.000    1.143    5.714    3.429    6.000    0.000 
#    0.000    0.000    0.000    0.000    0.000    1.000 
#    0.000    0.000    0.000    0.000    0.000    0.000 
#
# Total GULP energy -156009.821959 kJ/mol
# GULP energy per Si atom -5571.779356 kJ/mol
# Density = 2.180980 g / cm^3
# Si number density = 21.859556 Si / 1000 Ang^3
#
#
#
# Elastic Constant Matrix: (Units=GPa)
#
#
# Indices 1 2 3 4 5 6 
#
# 1 130.1953 11.1104 66.6886 0.0000 20.9770 0.0000
# 2 11.1104 7.4398 -2.7868 0.0000 2.0297 0.0000
# 3 66.6886 -2.7868 125.2638 0.0000 20.9889 0.0000
# 4 0.0000 0.0000 0.0000 13.0373 0.0000 -9.1962
# 5 20.9770 2.0297 20.9889 0.0000 56.6901 0.0000
# 6 0.0000 0.0000 0.0000 -9.1962 0.0000 16.4073
#
#
#
# Elastic Compliance Matrix: (Units=1/GPa)
#
#
# Indices 1 2 3 4 5 6 
#
# 1 0.013773 -0.023017 -0.007600 0.000000 -0.001458 0.000000
# 2 -0.023017 0.176197 0.016849 0.000000 -0.004030 0.000000
# 3 -0.007600 0.016849 0.012830 0.000000 -0.002541 0.000000
# 4 0.000000 0.000000 0.000000 0.126858 0.000000 0.071103
# 5 -0.001458 -0.004030 -0.002541 0.000000 0.019265 0.000000
# 6 0.000000 0.000000 0.000000 0.071103 0.000000 0.100802
#
#
# Mechanical properties :
#
#
# Convention : Reuss Voigt Hill
#
# Bulk Modulus (GPa) = 5.70571 45.88036 25.79303
# Shear Modulus (GPa) = 9.33391 29.75271 19.54331
#
# Velocity S-wave (km/s) = 2.06863 3.69329 2.99329
# Velocity P-wave (km/s) = 2.88469 6.26270 4.87560
#
# Compressibility (1/GPa) = 0.17526304
#
# Stress axis : x y z
#
# Youngs Moduli (GPa) = 72.60611 5.67548 77.94211
#
# Poissons Ratio (x) = 0.13063 0.59238
# Poissons Ratio (y) = 1.67119 -1.31326
# Poissons Ratio (z) = 0.55182 -0.09563
#
# Static dielectric constant tensor:
#      x y z
#    x 1.840950 0.000000 0.005440 
#    y 0.000000 1.874830 0.000000 
#    z 0.005440 0.000000 1.844640 
# 
# From -- ./inp_files/61493.got.cif
#   From: 2010.05.17/outbox.cif.g08.bks.cpg/sg15_31_cif.got.tgz:61493.got - 2010.06.03 18:47:42.
