data_PCOD9270382
_publ_section_title
;
Structure prediction by ZEFSAII (Michael W. Deem and Ramdas Pophale) SiO2 
 PCOD9270382
Probable space group: C 2/C
;
_chemical_formula_sum "Si O2"
_cell_formula_units_Z 48
_cell_length_a 17.422082
_cell_length_b 8.844888
_cell_length_c 13.642438
_cell_angle_alpha 90.000000
_cell_angle_beta 104.284838
_cell_angle_gamma 90.000000
_cell_volume 2037.250748
_symmetry_space_group_name_H-M "C 2/C"
_symmetry_group_IT_number 15
_symmetry_cell_setting 'monoclinic'
loop_
_space_group_symop_operation_xyz
x,y,z
-x,y,1/2-z
-x,-y,-z
x,-y,1/2+z
1/2+x,1/2+y,z
1/2-x,1/2+y,1/2-z
1/2-x,1/2-y,-z
1/2+x,1/2-y,1/2+z
loop_
_atom_site_type_symbol
_atom_site_label
_atom_site_fract_x
_atom_site_fract_y
_atom_site_fract_z
Si Si1 0.798229 0.813641 0.748017
Si Si2 0.217220 0.982538 0.956452
Si Si3 0.855513 0.233041 0.673357
Si Si4 0.436229 0.477415 0.345016
Si Si5 0.872690 0.558308 0.634266
Si Si6 0.936418 0.806779 0.539507
O O1 0.722288 0.758665 0.783602
O O2 0.846854 0.675543 0.712187
O O3 0.767947 0.918839 0.648601
O O4 0.857589 0.916086 0.832103
O O5 0.176819 0.146491 0.932735
O O6 0.153106 0.866255 0.978020
O O7 0.293904 0.977058 0.046490
O O8 0.914005 0.115269 0.742509
O O9 0.897191 0.393562 0.676551
O O10 0.455630 0.353952 0.435140
O O11 0.507523 0.594917 0.373019
O O12 0.934376 0.639218 0.581114
#
# Coordination Sequence:
#
# PCOD9270382 Si02
#       6
#     8   8   8   8   8   8
#     4  10  20  35  58  86 119 157 200 243 286 348
#     4  10  20  35  59  88 123 159 195 238 290 351
#     4  11  21  35  59  90 121 153 195 248 295 347
#     4  10  22  40  61  83 117 161 200 241 297 354
#     4  11  21  35  60  92 122 154 196 246 289 347
#     4  10  21  40  61  83 117 162 201 239 294 356
#
# _framework density 23.561164000000002
#
# number of rings (size 3 to 8) (size 9 to 14) (size 15 to 20)
#    0.000    1.667    0.000    7.500    0.000    6.000 
#    0.000    3.333    0.000    5.000    0.000    0.000 
#    0.000    0.000    0.000    0.000    0.000    0.000 
#
# Total GULP energy -134219.088123 kJ/mol
# GULP energy per Si atom -5592.462005 kJ/mol
# Density = 2.350754 g / cm^3
# Si number density = 23.561164 Si / 1000 Ang^3
#
#
#
# Elastic Constant Matrix: (Units=GPa)
#
#
# Indices 1 2 3 4 5 6 
#
# 1 40.4177 17.2625 11.4649 0.0000 21.6192 0.0000
# 2 17.2625 116.1735 34.4058 0.0000 2.5824 0.0000
# 3 11.4649 34.4058 71.9392 0.0000 18.0361 0.0000
# 4 0.0000 0.0000 0.0000 19.1357 0.0000 -2.2513
# 5 21.6192 2.5824 18.0361 0.0000 27.7385 0.0000
# 6 0.0000 0.0000 0.0000 -2.2513 0.0000 30.9177
#
#
#
# Elastic Compliance Matrix: (Units=1/GPa)
#
#
# Indices 1 2 3 4 5 6 
#
# 1 0.048476 -0.008228 0.006559 0.000000 -0.041281 0.000000
# 2 -0.008228 0.011586 -0.006651 0.000000 0.009659 0.000000
# 3 0.006559 -0.006651 0.020506 0.000000 -0.017826 0.000000
# 4 0.000000 0.000000 0.000000 0.052710 0.000000 0.003838
# 5 -0.041281 0.009659 -0.017826 0.000000 0.078917 0.000000
# 6 0.000000 0.000000 0.000000 0.003838 0.000000 0.032623
#
#
# Mechanical properties :
#
#
# Convention : Reuss Voigt Hill
#
# Bulk Modulus (GPa) = 15.64283 39.42185 27.53234
# Shear Modulus (GPa) = 17.68241 26.58487 22.13364
#
# Velocity S-wave (km/s) = 2.74248 3.36271 3.06831
# Velocity P-wave (km/s) = 4.08435 5.64315 4.92580
#
# Compressibility (1/GPa) = 0.06392707
#
# Stress axis : x y z
#
# Youngs Moduli (GPa) = 20.62865 86.31411 48.76720
#
# Poissons Ratio (x) = 0.71021 -0.31988
# Poissons Ratio (y) = 0.16974 0.32437
# Poissons Ratio (z) = -0.13531 0.57410
#
# Static dielectric constant tensor:
#      x y z
#    x 1.899170 0.000000 -0.052950 
#    y 0.000000 1.933660 0.000000 
#    z -0.052950 0.000000 1.912200 
# 
# From -- ./inp_files/166417.got.cif
#   From: 2010.05.17/outbox.cif.g08.bks.cpg/sg15_84_cif.got.tgz:166417.got - 2010.06.03 18:47:42.
