data_PCOD9270238
_publ_section_title
;
Structure prediction by ZEFSAII (Michael W. Deem and Ramdas Pophale) SiO2 
 PCOD9270238
Probable space group: C 2/C
;
_chemical_formula_sum "Si O2"
_cell_formula_units_Z 64
_cell_length_a 23.283252
_cell_length_b 11.641742
_cell_length_c 26.155610
_cell_angle_alpha 90.000000
_cell_angle_beta 149.554214
_cell_angle_gamma 90.000000
_cell_volume 3592.501449
_symmetry_space_group_name_H-M "C 2/C"
_symmetry_group_IT_number 15
_symmetry_cell_setting 'monoclinic'
loop_
_space_group_symop_operation_xyz
x,y,z
-x,y,1/2-z
-x,-y,-z
x,-y,1/2+z
1/2+x,1/2+y,z
1/2-x,1/2+y,1/2-z
1/2-x,1/2-y,-z
1/2+x,1/2-y,1/2+z
loop_
_atom_site_type_symbol
_atom_site_label
_atom_site_fract_x
_atom_site_fract_y
_atom_site_fract_z
Si Si1 0.017198 0.926874 0.132851
Si Si2 0.197193 0.232525 0.818899
Si Si3 0.844132 0.729593 0.028068
Si Si4 0.439217 0.339526 0.862794
Si Si5 0.306506 0.122605 0.288287
Si Si6 0.912856 0.167243 0.922043
Si Si7 0.466216 0.073316 0.279384
Si Si8 0.152321 0.595302 0.735749
O O1 0.129285 0.877566 0.246574
O O2 0.034112 0.902151 0.085022
O O3 0.001982 0.063065 0.126730
O O4 0.917090 0.846417 0.076984
O O5 0.294940 0.204602 0.933774
O O6 0.221278 0.309533 0.786608
O O7 0.113916 0.315175 0.787126
O O8 0.750000 0.750000 0.000000
O O9 0.927102 0.625423 0.107940
O O10 0.312759 0.387311 0.775333
O O11 0.416939 0.211904 0.825157
O O12 0.506826 0.332902 0.967696
O O13 0.390463 0.205479 0.382979
O O14 0.357991 0.998380 0.317363
O O15 0.787274 0.121216 0.840672
O O16 0.500000 0.032054 0.250000
O O17 0.397045 0.974807 0.254772
#
# Coordination Sequence:
#
# PCOD9270238 Si02
#       8
#     8   8   8   8   8   8   8   8
#     4  10  21  34  56  86 116 147 184 231 286 336
#     4   9  19  35  56  83 115 140 184 239 285 333
#     4  11  21  35  62  89 109 146 186 240 301 326
#     4  11  21  35  55  83 117 151 192 225 281 351
#     4   9  19  35  53  81 114 150 186 235 278 332
#     4  10  20  35  57  82 112 153 192 232 283 336
#     4  10  20  37  59  82 111 145 194 240 279 343
#     4  10  22  37  55  82 113 154 192 231 292 332
#
# _framework density 17.814886000000001
#
# number of rings (size 3 to 8) (size 9 to 14) (size 15 to 20)
#    0.000    2.000    2.500    1.875    3.500    0.500 
#    4.500    0.000    2.750    1.500    0.000    0.000 
#    0.000    0.000    0.000    0.000    0.000    0.000 
#
# Total GULP energy -178394.200945 kJ/mol
# GULP energy per Si atom -5574.818780 kJ/mol
# Density = 1.777434 g / cm^3
# Si number density = 17.814886 Si / 1000 Ang^3
#
#
#
# Elastic Constant Matrix: (Units=GPa)
#
#
# Indices 1 2 3 4 5 6 
#
# 1 69.0038 35.4142 10.3720 0.0000 4.5903 0.0000
# 2 35.4142 122.9939 37.2452 0.0000 -6.0814 0.0000
# 3 10.3720 37.2452 63.3516 0.0000 -5.5263 0.0000
# 4 0.0000 0.0000 0.0000 8.5707 0.0000 2.6938
# 5 4.5903 -6.0814 -5.5263 0.0000 16.8984 0.0000
# 6 0.0000 0.0000 0.0000 2.6938 0.0000 16.4884
#
#
#
# Elastic Compliance Matrix: (Units=1/GPa)
#
#
# Indices 1 2 3 4 5 6 
#
# 1 0.017742 -0.005337 -0.000365 0.000000 -0.006860 0.000000
# 2 -0.005337 0.011545 -0.005584 0.000000 0.003778 0.000000
# 3 -0.000365 -0.005584 0.019518 0.000000 0.004473 0.000000
# 4 0.000000 0.000000 0.000000 0.122992 0.000000 -0.020094
# 5 -0.006860 0.003778 0.004473 0.000000 0.063863 0.000000
# 6 0.000000 0.000000 0.000000 -0.020094 0.000000 0.063931
#
#
# Mechanical properties :
#
#
# Convention : Reuss Voigt Hill
#
# Bulk Modulus (GPa) = 38.12143 46.82355 42.47249
# Shear Modulus (GPa) = 15.10988 19.87939 17.49463
#
# Velocity S-wave (km/s) = 2.91548 3.34411 3.13712
# Velocity P-wave (km/s) = 5.72525 6.42271 6.08398
#
# Compressibility (1/GPa) = 0.02623197
#
# Stress axis : x y z
#
# Youngs Moduli (GPa) = 56.36236 86.61741 51.23523
#
# Poissons Ratio (x) = 0.46229 0.01872
# Poissons Ratio (y) = 0.30081 0.28610
# Poissons Ratio (z) = 0.02060 0.48368
#
# Static dielectric constant tensor:
#      x y z
#    x 1.640200 0.000000 0.007840 
#    y 0.000000 1.635050 0.000000 
#    z 0.007840 0.000000 1.618060 
# 
# From -- ./inp_files/279914.got.cif
#   From: 2010.05.17/outbox.cif.g08.bks.cpg/sg15_140_cif.got.tgz:279914.got - 2010.06.03 18:47:42.
