data_PCOD9270259
_publ_section_title
;
Structure prediction by ZEFSAII (Michael W. Deem and Ramdas Pophale) SiO2 
 PCOD9270259
Probable space group: C 2/C
;
_chemical_formula_sum "Si O2"
_cell_formula_units_Z 56
_cell_length_a 15.638178
_cell_length_b 16.922838
_cell_length_c 13.188818
_cell_angle_alpha 90.000000
_cell_angle_beta 59.757424
_cell_angle_gamma 90.000000
_cell_volume 3015.289999
_symmetry_space_group_name_H-M "C 2/C"
_symmetry_group_IT_number 15
_symmetry_cell_setting 'monoclinic'
loop_
_space_group_symop_operation_xyz
x,y,z
-x,y,1/2-z
-x,-y,-z
x,-y,1/2+z
1/2+x,1/2+y,z
1/2-x,1/2+y,1/2-z
1/2-x,1/2-y,-z
1/2+x,1/2-y,1/2+z
loop_
_atom_site_type_symbol
_atom_site_label
_atom_site_fract_x
_atom_site_fract_y
_atom_site_fract_z
Si Si1 0.377666 0.969153 0.669239
Si Si2 0.453962 0.252626 0.617372
Si Si3 0.764133 0.552465 0.436467
Si Si4 0.804156 0.934794 0.849104
Si Si5 0.075590 0.065556 0.413409
Si Si6 0.648588 0.264387 0.619411
Si Si7 0.582491 0.113134 0.006721
O O1 0.333666 0.983323 0.806771
O O2 0.296933 0.918077 0.653634
O O3 0.480991 0.923143 0.611719
O O4 0.389734 0.050394 0.599226
O O5 0.461868 0.345726 0.586757
O O6 0.557767 0.231236 0.608678
O O7 0.369063 0.237746 0.753591
O O8 0.434643 0.197641 0.533308
O O9 0.727057 0.490422 0.541390
O O10 0.666086 0.579820 0.437173
O O11 0.832031 0.612596 0.459664
O O12 0.877732 0.967647 0.719413
O O13 0.855782 0.858677 0.865131
O O14 0.000000 0.000000 0.500000
O O15 0.750000 0.250000 0.500000
#
# Coordination Sequence:
#
# PCOD9270259 Si02
#       7
#     8   8   8   8   8   8   8
#     4   9  19  35  57  83 112 157 182 235 279 343
#     4  10  22  37  55  87 118 147 190 242 283 342
#     4  10  20  35  60  81 111 156 187 231 291 337
#     4   9  19  35  58  85 110 139 200 236 279 342
#     4  10  21  39  60  80 113 151 194 244 283 334
#     4  10  20  35  57  84 113 151 182 238 297 330
#     4  10  20  36  54  86 122 143 195 228 283 350
#
# _framework density 18.572011
#
# number of rings (size 3 to 8) (size 9 to 14) (size 15 to 20)
#    0.000    2.286    0.000    2.143    2.000    2.286 
#    7.714    0.000    6.286    0.000    0.000    0.000 
#    0.000    0.000    0.000    0.000    0.000    0.000 
#
# Total GULP energy -156014.170442 kJ/mol
# GULP energy per Si atom -5571.934659 kJ/mol
# Density = 1.852974 g / cm^3
# Si number density = 18.572011 Si / 1000 Ang^3
#
#
#
# Elastic Constant Matrix: (Units=GPa)
#
#
# Indices 1 2 3 4 5 6 
#
# 1 75.9535 18.7025 38.3585 0.0000 -0.2042 0.0000
# 2 18.7025 43.5599 35.3186 0.0000 -0.6149 0.0000
# 3 38.3585 35.3186 133.4344 0.0000 -7.5749 0.0000
# 4 0.0000 0.0000 0.0000 22.0681 0.0000 3.0746
# 5 -0.2042 -0.6149 -7.5749 0.0000 28.7231 0.0000
# 6 0.0000 0.0000 0.0000 3.0746 0.0000 27.1901
#
#
#
# Elastic Compliance Matrix: (Units=1/GPa)
#
#
# Indices 1 2 3 4 5 6 
#
# 1 0.015950 -0.003949 -0.003592 0.000000 -0.000918 0.000000
# 2 -0.003949 0.030266 -0.006945 0.000000 -0.001212 0.000000
# 3 -0.003592 -0.006945 0.010513 0.000000 0.002598 0.000000
# 4 0.000000 0.000000 0.000000 0.046040 0.000000 -0.005206
# 5 -0.000918 -0.001212 0.002598 0.000000 0.035468 0.000000
# 6 0.000000 0.000000 0.000000 -0.005206 0.000000 0.037367
#
#
# Mechanical properties :
#
#
# Convention : Reuss Voigt Hill
#
# Bulk Modulus (GPa) = 36.02618 48.63415 42.33017
# Shear Modulus (GPa) = 23.38348 26.30080 24.84214
#
# Velocity S-wave (km/s) = 3.55219 3.76726 3.66131
# Velocity P-wave (km/s) = 6.02198 6.72062 6.38087
#
# Compressibility (1/GPa) = 0.02775759
#
# Stress axis : x y z
#
# Youngs Moduli (GPa) = 62.69641 33.04044 95.12349
#
# Poissons Ratio (x) = 0.13046 0.34170
# Poissons Ratio (y) = 0.24756 0.66061
# Poissons Ratio (z) = 0.22521 0.22946
#
# Static dielectric constant tensor:
#      x y z
#    x 1.636410 0.000000 0.072490 
#    y 0.000000 1.631700 0.000000 
#    z 0.072490 0.000000 1.560310 
# 
# From -- ./inp_files/98689.got.cif
#   From: 2010.05.17/outbox.cif.g08.bks.cpg/sg15_50_cif.got.tgz:98689.got - 2010.06.03 18:47:42.
