data_PCOD9270801
_publ_section_title
;
Structure prediction by ZEFSAII (Michael W. Deem and Ramdas Pophale) SiO2 
 PCOD9270801
Probable space group: C 2/C
;
_chemical_formula_sum "Si O2"
_cell_formula_units_Z 60
_cell_length_a 21.422280
_cell_length_b 5.567187
_cell_length_c 27.840322
_cell_angle_alpha 90.000000
_cell_angle_beta 116.685156
_cell_angle_gamma 90.000000
_cell_volume 2966.636702
_symmetry_space_group_name_H-M "C 2/C"
_symmetry_group_IT_number 15
_symmetry_cell_setting 'monoclinic'
loop_
_space_group_symop_operation_xyz
x,y,z
-x,y,1/2-z
-x,-y,-z
x,-y,1/2+z
1/2+x,1/2+y,z
1/2-x,1/2+y,1/2-z
1/2-x,1/2-y,-z
1/2+x,1/2-y,1/2+z
loop_
_atom_site_type_symbol
_atom_site_label
_atom_site_fract_x
_atom_site_fract_y
_atom_site_fract_z
Si Si1 0.489078 0.713285 0.355456
Si Si2 0.268515 0.271133 0.343592
Si Si3 0.092325 0.729610 0.170036
Si Si4 0.297493 0.394699 0.120383
Si Si5 0.773623 0.008433 0.450974
Si Si6 0.862887 0.576208 0.215416
Si Si7 0.142872 0.771274 0.938487
Si Si8 0.000000 0.258793 0.250000
O O1 0.453652 0.463187 0.360377
O O2 0.561131 0.776970 0.407461
O O3 0.504419 0.647630 0.304596
O O4 0.443152 0.961143 0.343991
O O5 0.338721 0.242876 0.338606
O O6 0.280503 0.379086 0.401485
O O7 0.208283 0.430681 0.297903
O O8 0.234894 0.015130 0.343899
O O9 0.116982 0.750814 0.234156
O O10 0.348184 0.195610 0.159100
O O11 0.340209 0.573495 0.102795
O O12 0.236028 0.284448 0.066667
O O13 0.834137 0.923202 0.507033
O O14 0.700294 0.939249 0.451991
O O15 0.929031 0.408876 0.230103
#
# Coordination Sequence:
#
# PCOD9270801 Si02
#       8
#     8   8   8   8   8   8   8   4
#     4  11  26  42  64  95 132 176 208 269 326 388
#     4  10  23  42  61  91 124 171 221 262 315 382
#     4  11  28  42  63  93 133 176 220 261 314 389
#     4  10  20  35  66  93 122 167 208 274 326 378
#     4   9  20  40  65  98 123 165 214 283 320 386
#     4  10  24  37  64  91 127 168 208 268 321 389
#     4  10  21  38  66  96 129 160 221 267 341 380
#     4  10  22  42  58  96 130 160 208 260 334 390
#
# _framework density 20.224924000000001
#
# number of rings (size 3 to 8) (size 9 to 14) (size 15 to 20)
#    0.000    1.867    0.000    2.800   16.800    0.533 
#    0.000    1.333    0.000    0.000    0.000    0.000 
#    0.000    0.000    0.000    0.000    0.000    0.000 
#
# Total GULP energy -167220.328642 kJ/mol
# GULP energy per Si atom -5574.010955 kJ/mol
# Density = 2.017889 g / cm^3
# Si number density = 20.224924 Si / 1000 Ang^3
#
#
#
# Elastic Constant Matrix: (Units=GPa)
#
#
# Indices 1 2 3 4 5 6 
#
# 1 98.4921 22.6472 37.7588 -0.0001 15.3612 -0.0004
# 2 22.6472 61.3644 9.7039 0.0005 9.2035 -0.0021
# 3 37.7588 9.7039 72.5030 -0.0003 21.4017 -0.0002
# 4 -0.0001 0.0005 -0.0003 9.5198 -0.0001 22.6331
# 5 15.3612 9.2035 21.4017 -0.0001 25.3229 0.0003
# 6 -0.0004 -0.0021 -0.0002 22.6331 0.0003 -11.6063
#
#
#
# Elastic Compliance Matrix: (Units=1/GPa)
#
#
# Indices 1 2 3 4 5 6 
#
# 1 0.013629 -0.003807 -0.006071 0.000000 -0.001753 0.000000
# 2 -0.003807 0.018319 0.001085 0.000001 -0.005266 -0.000001
# 3 -0.006071 0.001085 0.021103 0.000000 -0.014547 0.000000
# 4 0.000000 0.000001 0.000000 0.018637 -0.000001 0.036344
# 5 -0.001753 -0.005266 -0.014547 -0.000001 0.054762 0.000001
# 6 0.000000 -0.000001 0.000000 0.036344 0.000001 -0.015287
#
#
# Mechanical properties :
#
#
# Convention : Reuss Voigt Hill
#
# Bulk Modulus (GPa) = 28.19609 41.39770 34.79690
# Shear Modulus (GPa) = 35.56911 15.46393 25.51652
#
# Velocity S-wave (km/s) = 4.19821 2.76814 3.55581
# Velocity P-wave (km/s) = 6.12139 5.54345 5.83958
#
# Compressibility (1/GPa) = 0.03546591
#
# Stress axis : x y z
#
# Youngs Moduli (GPa) = 73.37113 54.58722 47.38661
#
# Poissons Ratio (x) = 0.20782 0.28768
# Poissons Ratio (y) = 0.27933 -0.05142
# Poissons Ratio (z) = 0.44543 -0.05924
#
# Static dielectric constant tensor:
#      x y z
#    x -2.937340 -0.000080 -2.017390 
#    y -0.000080 1.831560 -0.000030 
#    z -2.017390 -0.000030 0.839770 
# 
# From -- ./inp_files/299954.got.cif
#   From: 2010.05.17/outbox.cif.g08.bks.cpg/sg15_150_cif.got.tgz:299954.got - 2010.06.03 18:47:42.
