data_PCOD9270188
_publ_section_title
;
Structure prediction by ZEFSAII (Michael W. Deem and Ramdas Pophale) SiO2 
 PCOD9270188
Probable space group: C 2/C
;
_chemical_formula_sum "Si O2"
_cell_formula_units_Z 48
_cell_length_a 9.929781
_cell_length_b 24.991593
_cell_length_c 11.379434
_cell_angle_alpha 90.000000
_cell_angle_beta 41.322148
_cell_angle_gamma 90.000000
_cell_volume 1864.619932
_symmetry_space_group_name_H-M "C 2/C"
_symmetry_group_IT_number 15
_symmetry_cell_setting 'monoclinic'
loop_
_space_group_symop_operation_xyz
x,y,z
-x,y,1/2-z
-x,-y,-z
x,-y,1/2+z
1/2+x,1/2+y,z
1/2-x,1/2+y,1/2-z
1/2-x,1/2-y,-z
1/2+x,1/2-y,1/2+z
loop_
_atom_site_type_symbol
_atom_site_label
_atom_site_fract_x
_atom_site_fract_y
_atom_site_fract_z
Si Si1 0.173839 0.280320 0.829055
Si Si2 0.639134 0.915861 0.312753
Si Si3 0.237245 0.120606 0.114351
Si Si4 0.851752 0.353584 0.947611
Si Si5 0.619404 0.482618 0.801670
Si Si6 0.535988 0.666887 0.942053
O O1 0.175166 0.318605 0.941692
O O2 0.369916 0.306845 0.638506
O O3 0.183776 0.217337 0.824826
O O4 0.964749 0.297055 0.900412
O O5 0.404297 0.910825 0.427280
O O6 0.637553 0.885707 0.439862
O O7 0.818580 0.883329 0.127876
O O8 0.699676 0.975321 0.305731
O O9 0.209397 0.077675 0.241145
O O10 0.000000 0.128489 0.250000
O O11 0.000000 0.377300 0.750000
O O12 0.620598 0.348818 0.058159
O O13 0.500000 0.488199 0.750000
O O14 0.500000 0.500000 0.000000
#
# Coordination Sequence:
#
# PCOD9270188 Si02
#       6
#     8   8   8   8   8   8
#     4  10  20  35  56  85 125 170 217 272 335 411
#     4  11  22  39  64  97 130 173 225 285 348 415
#     4  10  23  44  64  90 129 178 231 287 342 410
#     4   9  19  33  56  89 129 167 206 265 343 417
#     4  11  24  45  73 106 142 182 228 285 347 416
#     4  11  20  34  56  89 124 164 214 276 342 411
#
# _framework density 25.742511
#
# number of rings (size 3 to 8) (size 9 to 14) (size 15 to 20)
#    0.000    1.667    0.000    5.500    0.000    5.333 
#    0.000   14.167    0.000    0.000    0.000    0.000 
#    0.000    0.000    0.000    0.000    0.000    0.000 
#
# Total GULP energy -133694.510728 kJ/mol
# GULP energy per Si atom -5570.604614 kJ/mol
# Density = 2.568392 g / cm^3
# Si number density = 25.742511 Si / 1000 Ang^3
#
#
#
# Elastic Constant Matrix: (Units=GPa)
#
#
# Indices 1 2 3 4 5 6 
#
# 1 102.3606 57.6760 37.1994 0.0000 -36.8983 0.0000
# 2 57.6760 115.6377 19.0055 0.0000 -27.2973 0.0000
# 3 37.1994 19.0055 142.6900 0.0000 -17.9692 0.0000
# 4 0.0000 0.0000 0.0000 46.8121 0.0000 -6.6769
# 5 -36.8983 -27.2973 -17.9692 0.0000 53.7971 0.0000
# 6 0.0000 0.0000 0.0000 -6.6769 0.0000 11.1617
#
#
#
# Elastic Compliance Matrix: (Units=1/GPa)
#
#
# Indices 1 2 3 4 5 6 
#
# 1 0.016987 -0.006244 -0.002640 0.000000 0.007601 0.000000
# 2 -0.006244 0.012189 0.000255 0.000000 0.001987 0.000000
# 3 -0.002640 0.000255 0.007778 0.000000 0.000917 0.000000
# 4 0.000000 0.000000 0.000000 0.023355 0.000000 0.013971
# 5 0.007601 0.001987 0.000917 0.000000 0.025116 0.000000
# 6 0.000000 0.000000 0.000000 0.013971 0.000000 0.097949
#
#
# Mechanical properties :
#
#
# Convention : Reuss Voigt Hill
#
# Bulk Modulus (GPa) = 50.77309 65.38335 58.07822
# Shear Modulus (GPa) = 24.13145 38.80800 31.46972
#
# Velocity S-wave (km/s) = 3.06505 3.88692 3.50019
# Velocity P-wave (km/s) = 5.68263 6.75266 6.24062
#
# Compressibility (1/GPa) = 0.01969547
#
# Stress axis : x y z
#
# Youngs Moduli (GPa) = 58.86824 82.03805 128.56978
#
# Poissons Ratio (x) = 0.51228 0.33938
# Poissons Ratio (y) = 0.36760 -0.03274
# Poissons Ratio (z) = 0.15539 -0.02089
#
# Static dielectric constant tensor:
#      x y z
#    x 2.216280 0.000000 0.088150 
#    y 0.000000 1.993540 0.000000 
#    z 0.088150 0.000000 2.195260 
# 
# From -- ./inp_files/148696.got.cif
#   From: 2010.05.17/outbox.cif.g08.bks.cpg/sg15_75_cif.got.tgz:148696.got - 2010.06.03 18:47:42.
