data_PCOD9270492
_publ_section_title
;
Structure prediction by ZEFSAII (Michael W. Deem and Ramdas Pophale) SiO2 
 PCOD9270492
Probable space group: C 2/C
;
_chemical_formula_sum "Si O2"
_cell_formula_units_Z 60
_cell_length_a 31.125703
_cell_length_b 7.535198
_cell_length_c 22.422954
_cell_angle_alpha 90.000000
_cell_angle_beta 151.111746
_cell_angle_gamma 90.000000
_cell_volume 2540.658571
_symmetry_space_group_name_H-M "C 2/C"
_symmetry_group_IT_number 15
_symmetry_cell_setting 'monoclinic'
loop_
_space_group_symop_operation_xyz
x,y,z
-x,y,1/2-z
-x,-y,-z
x,-y,1/2+z
1/2+x,1/2+y,z
1/2-x,1/2+y,1/2-z
1/2-x,1/2-y,-z
1/2+x,1/2-y,1/2+z
loop_
_atom_site_type_symbol
_atom_site_label
_atom_site_fract_x
_atom_site_fract_y
_atom_site_fract_z
Si Si1 0.661051 0.684339 0.097131
Si Si2 0.000000 0.817898 0.750000
Si Si3 0.140515 0.415520 0.364460
Si Si4 0.004959 0.975247 0.887981
Si Si5 0.728842 0.154236 0.567200
Si Si6 0.326177 0.698126 0.204964
Si Si7 0.340899 0.007278 0.817145
Si Si8 0.586543 0.154288 0.203220
O O1 0.661408 0.744590 0.028385
O O2 0.631411 0.860708 0.096633
O O3 0.762021 0.629091 0.236584
O O4 0.601914 0.507276 0.033596
O O5 0.086983 0.696937 0.847811
O O6 0.992842 0.921554 0.678789
O O7 0.190224 0.571866 0.459957
O O8 0.191661 0.281477 0.381990
O O9 0.070483 0.502855 0.232418
O O10 0.931102 0.855769 0.831524
O O11 0.968286 0.173787 0.849023
O O12 0.810827 0.288061 0.660380
O O13 0.771286 0.979589 0.649865
O O14 0.304336 0.850547 0.224494
O O15 0.414624 0.906271 0.866969
#
# Coordination Sequence:
#
# PCOD9270492 Si02
#       8
#     8   4   8   8   8   8   8   8
#     4  11  24  39  65  92 120 161 205 261 313 347
#     4  10  24  36  56  92 134 156 200 258 302 364
#     4  10  20  35  59  88 121 167 199 251 300 362
#     4  10  23  41  60  92 124 168 197 255 314 356
#     4  10  20  35  60  90 118 163 202 249 305 368
#     4   9  20  41  60  85 127 159 206 250 302 373
#     4  10  22  43  61  89 120 159 209 260 297 369
#     4   9  21  39  61  85 125 158 210 246 301 373
#
# _framework density 23.615922999999999
#
# number of rings (size 3 to 8) (size 9 to 14) (size 15 to 20)
#    0.000    2.133    0.000    1.600    5.600    1.067 
#    4.800    0.000    0.000    0.000    0.000    0.000 
#    0.000    0.000    0.000    0.000    0.000    0.000 
#
# Total GULP energy -167453.197533 kJ/mol
# GULP energy per Si atom -5581.773251 kJ/mol
# Density = 2.356217 g / cm^3
# Si number density = 23.615923 Si / 1000 Ang^3
#
#
#
# Elastic Constant Matrix: (Units=GPa)
#
#
# Indices 1 2 3 4 5 6 
#
# 1 76.4136 18.4235 20.9696 0.0000 -0.6840 0.0000
# 2 18.4235 88.4001 5.5146 -0.0002 -1.1265 -0.0002
# 3 20.9696 5.5146 41.5552 0.0000 1.8197 0.0000
# 4 0.0000 -0.0002 0.0000 34.9761 0.0000 -12.6214
# 5 -0.6840 -1.1265 1.8197 0.0000 14.3707 0.0000
# 6 0.0000 -0.0002 0.0000 -12.6214 0.0000 46.9308
#
#
#
# Elastic Compliance Matrix: (Units=1/GPa)
#
#
# Indices 1 2 3 4 5 6 
#
# 1 0.015895 -0.002812 -0.007714 0.000000 0.001513 0.000000
# 2 -0.002812 0.011921 -0.000199 0.000000 0.000826 0.000000
# 3 -0.007714 -0.000199 0.028156 0.000000 -0.003948 0.000000
# 4 0.000000 0.000000 0.000000 0.031664 0.000000 0.008516
# 5 0.001513 0.000826 -0.003948 0.000000 0.070223 0.000000
# 6 0.000000 0.000000 0.000000 0.008516 0.000000 0.023598
#
#
# Mechanical properties :
#
#
# Convention : Reuss Voigt Hill
#
# Bulk Modulus (GPa) = 28.96699 32.90936 30.93818
# Shear Modulus (GPa) = 23.31922 30.01959 26.66940
#
# Velocity S-wave (km/s) = 3.14576 3.56920 3.36415
# Velocity P-wave (km/s) = 5.04846 5.56337 5.31215
#
# Compressibility (1/GPa) = 0.03452205
#
# Stress axis : x y z
#
# Youngs Moduli (GPa) = 62.91215 83.88385 35.51592
#
# Poissons Ratio (x) = 0.23590 0.27397
# Poissons Ratio (y) = 0.17692 0.00707
# Poissons Ratio (z) = 0.48531 0.01670
#
# Static dielectric constant tensor:
#      x y z
#    x 1.922340 0.000000 0.035420 
#    y 0.000000 1.855060 0.000000 
#    z 0.035420 0.000000 1.967970 
# 
# From -- ./inp_files/258747.got.cif
#   From: 2010.05.17/outbox.cif.g08.bks.cpg/sg15_130_cif.got.tgz:258747.got - 2010.06.03 18:47:42.
