data_PCOD9270405
_publ_section_title
;
Structure prediction by ZEFSAII (Michael W. Deem and Ramdas Pophale) SiO2 
 PCOD9270405
Probable space group: C 2/C
;
_chemical_formula_sum "Si O2"
_cell_formula_units_Z 48
_cell_length_a 21.690792
_cell_length_b 8.421328
_cell_length_c 12.096378
_cell_angle_alpha 90.000000
_cell_angle_beta 61.792838
_cell_angle_gamma 90.000000
_cell_volume 1947.187176
_symmetry_space_group_name_H-M "C 2/C"
_symmetry_group_IT_number 15
_symmetry_cell_setting 'monoclinic'
loop_
_space_group_symop_operation_xyz
x,y,z
-x,y,1/2-z
-x,-y,-z
x,-y,1/2+z
1/2+x,1/2+y,z
1/2-x,1/2+y,1/2-z
1/2-x,1/2-y,-z
1/2+x,1/2-y,1/2+z
loop_
_atom_site_type_symbol
_atom_site_label
_atom_site_fract_x
_atom_site_fract_y
_atom_site_fract_z
Si Si1 0.344566 0.330905 0.476644
Si Si2 0.913318 0.380413 0.609484
Si Si3 0.196654 0.059645 0.173513
Si Si4 0.799478 0.629929 0.732491
Si Si5 0.918523 0.974981 0.087885
Si Si6 0.947888 0.559320 0.383269
O O1 0.297558 0.430376 0.430176
O O2 0.315385 0.231915 0.606816
O O3 0.388010 0.468197 0.498189
O O4 0.398872 0.200578 0.380190
O O5 0.865514 0.516230 0.705817
O O6 0.891715 0.200627 0.638170
O O7 0.906665 0.429504 0.486549
O O8 0.994927 0.373798 0.577098
O O9 0.239217 0.986195 0.241270
O O10 0.115397 0.071555 0.281576
O O11 0.218995 0.244858 0.155595
O O12 0.000000 0.000000 0.000000
O O13 0.000000 0.489368 0.250000
#
# Coordination Sequence:
#
# PCOD9270405 Si02
#       6
#     8   8   8   8   8   8
#     4  10  22  39  64  95 125 167 223 270 326 395
#     4  10  21  39  60  86 132 160 211 269 319 392
#     4  11  23  41  66  92 128 175 222 271 334 394
#     4  10  23  43  65  94 129 176 219 274 331 391
#     4  11  22  39  62  95 129 169 212 274 331 389
#     4  10  20  35  58  88 121 169 205 257 327 381
#
# _framework density 24.650942000000001
#
# number of rings (size 3 to 8) (size 9 to 14) (size 15 to 20)
#    0.000    1.667    1.667    2.500    2.333    1.333 
#    0.000   10.833    0.000    0.000    0.000    0.000 
#    0.000    0.000    0.000    0.000    0.000    0.000 
#
# Total GULP energy -133778.866900 kJ/mol
# GULP energy per Si atom -5574.119454 kJ/mol
# Density = 2.459484 g / cm^3
# Si number density = 24.650942 Si / 1000 Ang^3
#
#
#
# Elastic Constant Matrix: (Units=GPa)
#
#
# Indices 1 2 3 4 5 6 
#
# 1 71.1859 47.2364 1.0913 0.0000 9.9918 0.0000
# 2 47.2364 126.1085 14.5853 0.0000 8.7661 0.0000
# 3 1.0913 14.5853 46.5263 0.0000 3.4783 0.0000
# 4 0.0000 0.0000 0.0000 28.1861 0.0000 3.5038
# 5 9.9918 8.7661 3.4783 0.0000 29.2124 0.0000
# 6 0.0000 0.0000 0.0000 3.5038 0.0000 38.7821
#
#
#
# Elastic Compliance Matrix: (Units=1/GPa)
#
#
# Indices 1 2 3 4 5 6 
#
# 1 0.019467 -0.007211 0.002159 0.000000 -0.004752 0.000000
# 2 -0.007211 0.011039 -0.003257 0.000000 -0.000458 0.000000
# 3 0.002159 -0.003257 0.022647 0.000000 -0.002458 0.000000
# 4 0.000000 0.000000 0.000000 0.035881 0.000000 -0.003242
# 5 -0.004752 -0.000458 -0.002458 0.000000 0.036288 0.000000
# 6 0.000000 0.000000 0.000000 -0.003242 0.000000 0.026078
#
#
# Mechanical properties :
#
#
# Convention : Reuss Voigt Hill
#
# Bulk Modulus (GPa) = 27.37099 41.07186 34.22142
# Shear Modulus (GPa) = 27.74747 31.29662 29.52205
#
# Velocity S-wave (km/s) = 3.35866 3.56700 3.46439
# Velocity P-wave (km/s) = 5.11550 5.80191 5.46948
#
# Compressibility (1/GPa) = 0.03653504
#
# Stress axis : x y z
#
# Youngs Moduli (GPa) = 51.37030 90.58567 44.15519
#
# Poissons Ratio (x) = 0.65321 -0.09534
# Poissons Ratio (y) = 0.37043 0.14382
# Poissons Ratio (z) = -0.11092 0.29506
#
# Static dielectric constant tensor:
#      x y z
#    x 2.015450 0.000000 -0.017680 
#    y 0.000000 1.983670 0.000000 
#    z -0.017680 0.000000 2.029000 
# 
# From -- ./inp_files/116718.got.cif
#   From: 2010.05.17/outbox.cif.g08.bks.cpg/sg15_59_cif.got.tgz:116718.got - 2010.06.03 18:47:42.
