data_PCOD9270994
_publ_section_title
;
Structure prediction by ZEFSAII (Michael W. Deem and Ramdas Pophale) SiO2 
 PCOD9270994
Probable space group: C 2/C
;
_chemical_formula_sum "Si O2"
_cell_formula_units_Z 64
_cell_length_a 19.261121
_cell_length_b 8.405254
_cell_length_c 19.146042
_cell_angle_alpha 90.000000
_cell_angle_beta 119.423026
_cell_angle_gamma 90.000000
_cell_volume 2699.838395
_symmetry_space_group_name_H-M "C 2/C"
_symmetry_group_IT_number 15
_symmetry_cell_setting 'monoclinic'
loop_
_space_group_symop_operation_xyz
x,y,z
-x,y,1/2-z
-x,-y,-z
x,-y,1/2+z
1/2+x,1/2+y,z
1/2-x,1/2+y,1/2-z
1/2-x,1/2-y,-z
1/2+x,1/2-y,1/2+z
loop_
_atom_site_type_symbol
_atom_site_label
_atom_site_fract_x
_atom_site_fract_y
_atom_site_fract_z
Si Si1 0.469212 0.713628 0.416597
Si Si2 0.815312 0.382761 0.402868
Si Si3 0.305915 0.593379 0.486280
Si Si4 0.404843 0.613052 0.925856
Si Si5 0.639438 0.616435 0.830075
Si Si6 0.712874 0.834696 0.699479
Si Si7 0.651373 0.047045 0.317635
Si Si8 0.603740 0.285571 0.753210
O O1 0.391006 0.808339 0.402282
O O2 0.538608 0.739145 0.506795
O O3 0.455459 0.523134 0.412605
O O4 0.469441 0.748581 0.335198
O O5 0.819138 0.281456 0.476134
O O6 0.724526 0.347621 0.332553
O O7 0.812710 0.567815 0.384223
O O8 0.361637 0.484262 0.465812
O O9 0.329806 0.569117 0.577561
O O10 0.220439 0.552305 0.410566
O O11 0.342471 0.681795 0.840129
O O12 0.600859 0.791139 0.806515
O O13 0.595366 0.461206 0.781182
O O14 0.686128 0.934455 0.754751
O O15 0.807471 0.803629 0.740096
O O16 0.612906 0.873529 0.302869
#
# Coordination Sequence:
#
# PCOD9270994 Si02
#       8
#     8   8   8   8   8   8   8   8
#     4  10  20  36  56  84 116 152 188 242 302 361
#     4   9  18  33  54  81 118 141 182 241 303 342
#     4  10  20  38  54  82 116 158 197 237 291 360
#     4  10  21  36  57  82 116 156 195 234 298 364
#     4  10  22  36  56  86 117 156 196 243 294 353
#     4  11  20  33  56  91 114 146 187 248 304 358
#     4  11  20  33  58  86 117 148 189 249 304 344
#     4  11  21  35  57  89 115 149 196 244 302 352
#
# _framework density 23.705121999999999
#
# number of rings (size 3 to 8) (size 9 to 14) (size 15 to 20)
#    0.000    1.750    2.500    4.500    1.750    1.000 
#    2.250    0.625    0.000    0.000    0.000    2.625 
#    0.000    0.000    0.000    0.000    0.000    0.000 
#
# Total GULP energy -178195.413715 kJ/mol
# GULP energy per Si atom -5568.606679 kJ/mol
# Density = 2.365117 g / cm^3
# Si number density = 23.705122 Si / 1000 Ang^3
#
#
#
# Elastic Constant Matrix: (Units=GPa)
#
#
# Indices 1 2 3 4 5 6 
#
# 1 40.8788 13.3381 36.0893 0.0000 10.2921 0.0000
# 2 13.3381 82.5381 17.7267 0.0000 5.0841 0.0000
# 3 36.0893 17.7267 117.3491 0.0000 1.5547 0.0000
# 4 0.0000 0.0000 0.0000 31.6728 0.0000 -3.2174
# 5 10.2921 5.0841 1.5547 0.0000 19.9651 0.0000
# 6 0.0000 0.0000 0.0000 -3.2174 0.0000 10.0768
#
#
#
# Elastic Compliance Matrix: (Units=1/GPa)
#
#
# Indices 1 2 3 4 5 6 
#
# 1 0.040706 -0.002846 -0.011833 0.000000 -0.019338 0.000000
# 2 -0.002846 0.012908 -0.001052 0.000000 -0.001738 0.000000
# 3 -0.011833 -0.001052 0.012248 0.000000 0.005414 0.000000
# 4 0.000000 0.000000 0.000000 0.032631 0.000000 0.010419
# 5 -0.019338 -0.001738 0.005414 0.000000 0.060077 0.000000
# 6 0.000000 0.000000 0.000000 0.010419 0.000000 0.102565
#
#
# Mechanical properties :
#
#
# Convention : Reuss Voigt Hill
#
# Bulk Modulus (GPa) = 29.06792 41.67493 35.37142
# Shear Modulus (GPa) = 16.44396 23.91706 20.18051
#
# Velocity S-wave (km/s) = 2.63665 3.17983 2.92089
# Velocity P-wave (km/s) = 4.64308 5.57678 5.13121
#
# Compressibility (1/GPa) = 0.03440219
#
# Stress axis : x y z
#
# Youngs Moduli (GPa) = 24.56637 77.46872 81.64791
#
# Poissons Ratio (x) = 0.22045 0.96611
# Poissons Ratio (y) = 0.06991 0.08588
# Poissons Ratio (z) = 0.29068 0.08148
#
# Static dielectric constant tensor:
#      x y z
#    x 1.995050 0.000000 -0.048180 
#    y 0.000000 1.991680 0.000000 
#    z -0.048180 0.000000 1.925840 
# 
# From -- ./inp_files/257011.got.cif
#   From: 2010.05.17/outbox.cif.g08.bks.cpg/sg15_129_cif.got.tgz:257011.got - 2010.06.03 18:47:42.
