data_PCOD9270066
_publ_section_title
;
Structure prediction by ZEFSAII (Michael W. Deem and Ramdas Pophale) SiO2 
 PCOD9270066
Probable space group: C 2/C
;
_chemical_formula_sum "Si O2"
_cell_formula_units_Z 48
_cell_length_a 13.470042
_cell_length_b 10.329002
_cell_length_c 23.303529
_cell_angle_alpha 90.000000
_cell_angle_beta 31.974163
_cell_angle_gamma 90.000000
_cell_volume 1716.900569
_symmetry_space_group_name_H-M "C 2/C"
_symmetry_group_IT_number 15
_symmetry_cell_setting 'monoclinic'
loop_
_space_group_symop_operation_xyz
x,y,z
-x,y,1/2-z
-x,-y,-z
x,-y,1/2+z
1/2+x,1/2+y,z
1/2-x,1/2+y,1/2-z
1/2-x,1/2-y,-z
1/2+x,1/2-y,1/2+z
loop_
_atom_site_type_symbol
_atom_site_label
_atom_site_fract_x
_atom_site_fract_y
_atom_site_fract_z
Si Si1 0.376032 0.088854 0.464025
Si Si2 0.936855 0.023478 0.444678
Si Si3 0.540347 0.196443 0.563479
Si Si4 0.806105 0.548034 0.820923
Si Si5 0.691386 0.387247 0.177200
Si Si6 0.735368 0.827164 0.840974
O O1 0.309953 0.091765 0.561760
O O2 0.566689 0.169328 0.376828
O O3 0.179589 0.096128 0.526085
O O4 0.436495 0.942548 0.418099
O O5 0.914218 0.167715 0.428641
O O6 0.830857 0.041556 0.556948
O O7 0.157447 0.001283 0.346337
O O8 0.320746 0.197878 0.653842
O O9 0.648966 0.183724 0.448513
O O10 0.849148 0.695341 0.780674
O O11 0.000000 0.488105 0.750000
O O12 0.500000 0.326452 0.250000
O O13 0.662000 0.534137 0.214179
#
# Coordination Sequence:
#
# PCOD9270066 Si02
#       6
#     8   8   8   8   8   8
#     4   9  17  32  54  77 103 130 175 219 262 310
#     4  10  20  35  55  74 105 144 173 217 263 308
#     4   8  16  31  51  75 100 138 169 203 268 317
#     4  10  21  37  54  72 104 146 180 209 261 323
#     4   9  16  29  52  77 105 134 167 215 262 311
#     4   8  16  32  53  75  98 136 173 209 262 313
#
# _framework density 27.957356000000001
#
# number of rings (size 3 to 8) (size 9 to 14) (size 15 to 20)
#    0.000    3.000    0.000    3.000    0.000    1.333 
#    6.000    0.000    0.000    0.000    0.000    0.000 
#    0.000    0.000    0.000    0.000    0.000    0.000 
#
# Total GULP energy -134014.554065 kJ/mol
# GULP energy per Si atom -5583.939753 kJ/mol
# Density = 2.789372 g / cm^3
# Si number density = 27.957356 Si / 1000 Ang^3
#
#
#
# Elastic Constant Matrix: (Units=GPa)
#
#
# Indices 1 2 3 4 5 6 
#
# 1 110.8643 22.7671 27.5848 0.0000 -30.8997 0.0000
# 2 22.7671 54.1509 14.9669 -0.0001 -10.2810 0.0000
# 3 27.5848 14.9669 97.3585 -0.0005 -19.9618 -0.0001
# 4 0.0000 -0.0001 -0.0005 32.2196 0.0000 -8.6339
# 5 -30.8997 -10.2810 -19.9618 0.0000 71.9317 0.0000
# 6 0.0000 0.0000 -0.0001 -8.6339 0.0000 32.1853
#
#
#
# Elastic Compliance Matrix: (Units=1/GPa)
#
#
# Indices 1 2 3 4 5 6 
#
# 1 0.011269 -0.003495 -0.001872 0.000000 0.003822 0.000000
# 2 -0.003495 0.020660 -0.002002 0.000000 0.000896 0.000000
# 3 -0.001872 -0.002002 0.011543 0.000000 0.002113 0.000000
# 4 0.000000 0.000000 0.000000 0.033441 0.000000 0.008971
# 5 0.003822 0.000896 0.002113 0.000000 0.016258 0.000000
# 6 0.000000 0.000000 0.000000 0.008971 0.000000 0.033477
#
#
# Mechanical properties :
#
#
# Convention : Reuss Voigt Hill
#
# Bulk Modulus (GPa) = 34.80273 43.66792 39.23533
# Shear Modulus (GPa) = 33.12086 40.40431 36.76258
#
# Velocity S-wave (km/s) = 3.44567 3.80572 3.63016
# Velocity P-wave (km/s) = 5.32031 5.91310 5.62452
#
# Compressibility (1/GPa) = 0.02873337
#
# Stress axis : x y z
#
# Youngs Moduli (GPa) = 88.74160 48.40329 86.63486
#
# Poissons Ratio (x) = 0.16916 0.16218
# Poissons Ratio (y) = 0.31014 0.17345
# Poissons Ratio (z) = 0.16612 0.09691
#
# Static dielectric constant tensor:
#      x y z
#    x 2.247390 0.000000 -0.045190 
#    y 0.000000 2.151240 0.000000 
#    z -0.045190 0.000000 2.234070 
# 
# From -- ./inp_files/181696.got.cif
#   From: 2010.05.17/outbox.cif.g08.bks.cpg/sg15_91_cif.got.tgz:181696.got - 2010.06.03 18:47:42.
