data_PCOD9270602
_publ_section_title
;
Structure prediction by ZEFSAII (Michael W. Deem and Ramdas Pophale) SiO2 
 PCOD9270602
Probable space group: C 2/C
;
_chemical_formula_sum "Si O2"
_cell_formula_units_Z 40
_cell_length_a 17.866822
_cell_length_b 21.529526
_cell_length_c 4.920735
_cell_angle_alpha 90.000000
_cell_angle_beta 118.473236
_cell_angle_gamma 90.000000
_cell_volume 1663.873666
_symmetry_space_group_name_H-M "C 2/C"
_symmetry_group_IT_number 15
_symmetry_cell_setting 'monoclinic'
loop_
_space_group_symop_operation_xyz
x,y,z
-x,y,1/2-z
-x,-y,-z
x,-y,1/2+z
1/2+x,1/2+y,z
1/2-x,1/2+y,1/2-z
1/2-x,1/2-y,-z
1/2+x,1/2-y,1/2+z
loop_
_atom_site_type_symbol
_atom_site_label
_atom_site_fract_x
_atom_site_fract_y
_atom_site_fract_z
Si Si1 0.130963 0.539943 0.942503
Si Si2 0.206703 0.885640 0.734155
Si Si3 0.556434 0.168805 0.612631
Si Si4 0.235890 0.690608 0.671432
Si Si5 0.406329 0.474775 0.241505
O O1 0.111558 0.483150 0.709304
O O2 0.082489 0.602043 0.775828
O O3 0.229184 0.559264 0.072356
O O4 0.205714 0.834390 0.974101
O O5 0.255676 0.861242 0.547673
O O6 0.117022 0.912407 0.461544
O O7 0.500000 0.201286 0.750000
O O8 0.645029 0.198003 0.663124
O O9 0.500000 0.162271 0.250000
O O10 0.250000 0.750000 0.500000
O O11 0.500000 0.500000 0.500000
O O12 0.368713 0.472755 0.476897
#
# Coordination Sequence:
#
# PCOD9270602 Si02
#       5
#     8   8   8   8   8
#     4  11  21  34  56  91 134 179 221 263 327 415
#     4  11  21  38  63  95 135 181 239 288 345 433
#     4  11  23  40  62  93 136 180 223 282 354 424
#     4  11  24  43  68  96 129 180 247 307 359 419
#     4  10  20  35  60  96 138 187 226 277 358 441
#
# _framework density 24.040288
#
# number of rings (size 3 to 8) (size 9 to 14) (size 15 to 20)
#    0.000    1.200    0.000    9.000    0.000    2.400 
#    0.000    0.000    4.400    0.000    5.200    0.000 
#    0.000    0.000    0.000    0.000    0.000    1.800 
#
# Total GULP energy -111416.858067 kJ/mol
# GULP energy per Si atom -5570.842903 kJ/mol
# Density = 2.398557 g / cm^3
# Si number density = 24.040288 Si / 1000 Ang^3
#
#
#
# Elastic Constant Matrix: (Units=GPa)
#
#
# Indices 1 2 3 4 5 6 
#
# 1 154.4184 45.7079 59.8180 0.0000 -6.8456 0.0000
# 2 45.7079 70.4750 55.3939 0.0000 3.4030 0.0000
# 3 59.8180 55.3939 188.2834 0.0000 -24.4161 0.0000
# 4 0.0000 0.0000 0.0000 26.2733 0.0000 -19.8230
# 5 -6.8456 3.4030 -24.4161 0.0000 49.6050 0.0000
# 6 0.0000 0.0000 0.0000 -19.8230 0.0000 17.3178
#
#
#
# Elastic Compliance Matrix: (Units=1/GPa)
#
#
# Indices 1 2 3 4 5 6 
#
# 1 0.008309 -0.004478 -0.001211 0.000000 0.000858 0.000000
# 2 -0.004478 0.021732 -0.005602 0.000000 -0.004866 0.000000
# 3 -0.001211 -0.005602 0.007875 0.000000 0.004093 0.000000
# 4 0.000000 0.000000 0.000000 0.279115 0.000000 0.319492
# 5 0.000858 -0.004866 0.004093 0.000000 0.022626 0.000000
# 6 0.000000 0.000000 0.000000 0.319492 0.000000 0.423453
#
#
# Mechanical properties :
#
#
# Convention : Reuss Voigt Hill
#
# Bulk Modulus (GPa) = 65.21833 81.66848 73.44341
# Shear Modulus (GPa) = 6.32268 35.45636 20.88952
#
# Velocity S-wave (km/s) = 1.62350 3.84457 2.95097
# Velocity P-wave (km/s) = 5.54094 7.33164 6.49827
#
# Compressibility (1/GPa) = 0.01533311
#
# Stress axis : x y z
#
# Youngs Moduli (GPa) = 120.35728 46.01485 126.98805
#
# Poissons Ratio (x) = 0.20607 0.15376
# Poissons Ratio (y) = 0.53900 0.71138
# Poissons Ratio (z) = 0.14574 0.25777
#
# Static dielectric constant tensor:
#      x y z
#    x 0.266030 0.000000 0.345580 
#    y 0.000000 1.971040 0.000000 
#    z 0.345580 0.000000 1.913070 
# 
# From -- ./inp_files/13600.got.cif
#   From: 2010.05.17/outbox.cif.g08.bks.cpg/sg15_7_cif.got.tgz:13600.got - 2010.06.03 18:47:42.
