data_PCOD9270085
_publ_section_title
;
Structure prediction by ZEFSAII (Michael W. Deem and Ramdas Pophale) SiO2 
 PCOD9270085
Probable space group: C 2/C
;
_chemical_formula_sum "Si O2"
_cell_formula_units_Z 52
_cell_length_a 25.433988
_cell_length_b 14.371156
_cell_length_c 8.771905
_cell_angle_alpha 90.000000
_cell_angle_beta 130.250824
_cell_angle_gamma 90.000000
_cell_volume 2447.099543
_symmetry_space_group_name_H-M "C 2/C"
_symmetry_group_IT_number 15
_symmetry_cell_setting 'monoclinic'
loop_
_space_group_symop_operation_xyz
x,y,z
-x,y,1/2-z
-x,-y,-z
x,-y,1/2+z
1/2+x,1/2+y,z
1/2-x,1/2+y,1/2-z
1/2-x,1/2-y,-z
1/2+x,1/2-y,1/2+z
loop_
_atom_site_type_symbol
_atom_site_label
_atom_site_fract_x
_atom_site_fract_y
_atom_site_fract_z
Si Si1 0.080329 0.393568 0.392232
Si Si2 0.869501 0.927268 0.231734
Si Si3 0.852332 0.544354 0.777608
Si Si4 0.428616 0.417119 0.039919
Si Si5 0.000000 0.735972 0.250000
Si Si6 0.892947 0.726036 0.282376
Si Si7 0.719091 0.887341 0.067711
O O1 0.097268 0.490047 0.512085
O O2 0.107961 0.394588 0.272394
O O3 0.114054 0.317148 0.564833
O O4 0.000000 0.377224 0.250000
O O5 0.866475 0.931267 0.043664
O O6 0.914003 0.833512 0.337715
O O7 0.906101 0.020272 0.357657
O O8 0.799031 0.900412 0.182405
O O9 0.815102 0.467175 0.603147
O O10 0.799407 0.595524 0.790530
O O11 0.500000 0.454269 0.250000
O O12 0.446635 0.307244 0.063953
O O13 0.046780 0.683332 0.213536
O O14 0.821206 0.705605 0.061076
#
# Coordination Sequence:
#
# PCOD9270085 Si02
#       7
#     8   8   8   8   4   8   8
#     4  10  20  35  55  81 108 146 181 229 276 321
#     4  11  20  38  58  84 108 150 185 231 281 330
#     4   9  20  37  55  80 108 144 190 223 263 333
#     4   9  20  36  60  81 110 140 195 231 278 330
#     4   8  20  38  56  80 112 154 186 224 288 326
#     4  10  22  35  54  82 117 146 182 231 283 333
#     4  10  20  36  58  80 114 148 186 228 276 333
#
# _framework density 21.249645999999998
#
# number of rings (size 3 to 8) (size 9 to 14) (size 15 to 20)
#    0.462    1.846    0.000    2.308    2.154    0.615 
#    2.769    0.769    0.000    0.000    0.000    0.000 
#    0.000    0.000    0.000    0.000    0.000    0.000 
#
# Total GULP energy -144813.105500 kJ/mol
# GULP energy per Si atom -5569.734827 kJ/mol
# Density = 2.120128 g / cm^3
# Si number density = 21.249646 Si / 1000 Ang^3
#
#
#
# Elastic Constant Matrix: (Units=GPa)
#
#
# Indices 1 2 3 4 5 6 
#
# 1 121.3524 -2.8557 27.0012 0.0000 -19.3798 0.0000
# 2 -2.8557 33.9861 3.1137 0.0000 -13.8897 0.0000
# 3 27.0012 3.1137 36.9310 0.0000 -16.4319 0.0000
# 4 0.0000 0.0000 0.0000 17.6101 0.0000 1.2876
# 5 -19.3798 -13.8897 -16.4319 0.0000 31.2607 0.0000
# 6 0.0000 0.0000 0.0000 1.2876 0.0000 20.9575
#
#
#
# Elastic Compliance Matrix: (Units=1/GPa)
#
#
# Indices 1 2 3 4 5 6 
#
# 1 0.010375 0.003425 -0.005659 0.000000 0.004979 0.000000
# 2 0.003425 0.037902 0.003574 0.000000 0.020843 0.000000
# 3 -0.005659 0.003574 0.039235 0.000000 0.018703 0.000000
# 4 0.000000 0.000000 0.000000 0.057042 0.000000 -0.003505
# 5 0.004979 0.020843 0.018703 0.000000 0.054168 0.000000
# 6 0.000000 0.000000 0.000000 -0.003505 0.000000 0.047931
#
#
# Mechanical properties :
#
#
# Convention : Reuss Voigt Hill
#
# Bulk Modulus (GPa) = 11.08726 27.42088 19.25407
# Shear Modulus (GPa) = 18.24562 24.96636 21.60599
#
# Velocity S-wave (km/s) = 2.93342 3.43141 3.19214
# Velocity P-wave (km/s) = 4.08684 5.35085 4.76098
#
# Compressibility (1/GPa) = 0.09019358
#
# Stress axis : x y z
#
# Youngs Moduli (GPa) = 96.38176 26.38350 25.48719
#
# Poissons Ratio (x) = -0.09037 0.14423
# Poissons Ratio (y) = -0.33014 -0.09109
# Poissons Ratio (z) = 0.54542 -0.09429
#
# Static dielectric constant tensor:
#      x y z
#    x 1.828140 0.000000 0.003350 
#    y 0.000000 1.832660 0.000000 
#    z 0.003350 0.000000 1.767310 
# 
# From -- ./inp_files/61665.got.cif
#   From: 2010.05.17/outbox.cif.g08.bks.cpg/sg15_31_cif.got.tgz:61665.got - 2010.06.03 18:47:42.
