data_PCOD9270352
_publ_section_title
;
Structure prediction by ZEFSAII (Michael W. Deem and Ramdas Pophale) SiO2 
 PCOD9270352
Probable space group: C 2/C
;
_chemical_formula_sum "Si O2"
_cell_formula_units_Z 36
_cell_length_a 8.309676
_cell_length_b 14.684914
_cell_length_c 16.109378
_cell_angle_alpha 90.000000
_cell_angle_beta 49.934804
_cell_angle_gamma 90.000000
_cell_volume 1504.433840
_symmetry_space_group_name_H-M "C 2/C"
_symmetry_group_IT_number 15
_symmetry_cell_setting 'monoclinic'
loop_
_space_group_symop_operation_xyz
x,y,z
-x,y,1/2-z
-x,-y,-z
x,-y,1/2+z
1/2+x,1/2+y,z
1/2-x,1/2+y,1/2-z
1/2-x,1/2-y,-z
1/2+x,1/2-y,1/2+z
loop_
_atom_site_type_symbol
_atom_site_label
_atom_site_fract_x
_atom_site_fract_y
_atom_site_fract_z
Si Si1 0.000000 0.688451 0.750000
Si Si2 0.516815 0.653866 0.115033
Si Si3 0.457282 0.319902 0.087619
Si Si4 0.807191 0.984088 0.495706
Si Si5 0.069084 0.625837 0.318420
O O1 0.045683 0.754857 0.657028
O O2 0.776920 0.640507 0.816304
O O3 0.696625 0.577163 0.054282
O O4 0.315233 0.606624 0.224915
O O5 0.487185 0.680959 0.028761
O O6 0.616876 0.392029 0.074703
O O7 0.460488 0.216807 0.117716
O O8 0.581892 0.957039 0.606806
O O9 0.000000 0.000000 0.500000
O O10 0.000000 0.655187 0.250000
#
# Coordination Sequence:
#
# PCOD9270352 Si02
#       5
#     4   8   8   8   8
#     4  10  22  40  58  84 118 150 194 234 290 344
#     4  10  22  40  58  85 117 152 188 244 285 338
#     4  10  21  36  60  82 113 156 188 238 280 343
#     4  10  20  35  58  83 115 150 189 234 285 336
#     4  11  20  36  60  85 117 150 196 229 284 343
#
# _framework density 23.929269000000001
#
# number of rings (size 3 to 8) (size 9 to 14) (size 15 to 20)
#    0.000    1.778    4.444    1.333    0.000    3.556 
#    2.000    4.444    0.000    0.000    0.000    0.000 
#    0.000    0.000    0.000    0.000    0.000    0.000 
#
# Total GULP energy -100459.680539 kJ/mol
# GULP energy per Si atom -5581.093363 kJ/mol
# Density = 2.387480 g / cm^3
# Si number density = 23.929269 Si / 1000 Ang^3
#
#
#
# Elastic Constant Matrix: (Units=GPa)
#
#
# Indices 1 2 3 4 5 6 
#
# 1 15.6560 1.5804 17.2032 0.0000 -16.3182 0.0000
# 2 1.5804 76.5404 62.8780 -0.0002 3.2668 0.0000
# 3 17.2032 62.8780 135.7959 -0.0003 -21.4518 -0.0001
# 4 0.0000 -0.0002 -0.0003 41.8845 0.0001 -11.2616
# 5 -16.3182 3.2668 -21.4518 0.0001 45.2205 0.0000
# 6 0.0000 0.0000 -0.0001 -11.2616 0.0000 21.2936
#
#
#
# Elastic Compliance Matrix: (Units=1/GPa)
#
#
# Indices 1 2 3 4 5 6 
#
# 1 0.111690 0.005406 -0.011185 0.000000 0.034608 0.000000
# 2 0.005406 0.023377 -0.012397 0.000000 -0.005619 0.000000
# 3 -0.011185 -0.012397 0.015161 0.000000 0.004051 0.000000
# 4 0.000000 0.000000 0.000000 0.027833 0.000000 0.014720
# 5 0.034608 -0.005619 0.004051 0.000000 0.036930 0.000000
# 6 0.000000 0.000000 0.000000 0.014720 0.000000 0.054748
#
#
# Mechanical properties :
#
#
# Convention : Reuss Voigt Hill
#
# Bulk Modulus (GPa) = 8.78156 43.47950 26.13053
# Shear Modulus (GPa) = 14.53274 31.43509 22.98391
#
# Velocity S-wave (km/s) = 2.46706 3.62839 3.10255
# Velocity P-wave (km/s) = 3.43409 5.98022 4.87627
#
# Compressibility (1/GPa) = 0.11387503
#
# Stress axis : x y z
#
# Youngs Moduli (GPa) = 8.95336 42.77667 65.95800
#
# Poissons Ratio (x) = -0.23123 0.73776
# Poissons Ratio (y) = -0.04840 0.81767
# Poissons Ratio (z) = 0.10015 0.53030
#
# Static dielectric constant tensor:
#      x y z
#    x 2.046550 0.000000 -0.035040 
#    y 0.000000 1.948820 0.000000 
#    z -0.035040 0.000000 1.927280 
# 
# From -- ./inp_files/237928.got.cif
#   From: 2010.05.17/outbox.cif.g08.bks.cpg/sg15_119_cif.got.tgz:237928.got - 2010.06.03 18:47:42.
