data_PCOD9270516
_publ_section_title
;
Structure prediction by ZEFSAII (Michael W. Deem and Ramdas Pophale) SiO2 
 PCOD9270516
Probable space group: C 2/C
;
_chemical_formula_sum "Si O2"
_cell_formula_units_Z 64
_cell_length_a 29.776936
_cell_length_b 11.498916
_cell_length_c 8.885125
_cell_angle_alpha 90.000000
_cell_angle_beta 97.273260
_cell_angle_gamma 90.000000
_cell_volume 3017.809522
_symmetry_space_group_name_H-M "C 2/C"
_symmetry_group_IT_number 15
_symmetry_cell_setting 'monoclinic'
loop_
_space_group_symop_operation_xyz
x,y,z
-x,y,1/2-z
-x,-y,-z
x,-y,1/2+z
1/2+x,1/2+y,z
1/2-x,1/2+y,1/2-z
1/2-x,1/2-y,-z
1/2+x,1/2-y,1/2+z
loop_
_atom_site_type_symbol
_atom_site_label
_atom_site_fract_x
_atom_site_fract_y
_atom_site_fract_z
Si Si1 0.553732 0.480441 0.034558
Si Si2 0.663474 0.955033 0.997606
Si Si3 0.677254 0.471177 0.505269
Si Si4 0.630341 0.153576 0.771627
Si Si5 0.946328 0.169524 0.248406
Si Si6 0.125648 0.141798 0.710151
Si Si7 0.788109 0.833102 0.698344
Si Si8 0.692291 0.842950 0.721556
O O1 0.567764 0.606847 0.102089
O O2 0.572567 0.382765 0.160226
O O3 0.500000 0.500000 0.000000
O O4 0.566584 0.427077 0.880574
O O5 0.635805 0.039391 0.875017
O O6 0.693252 0.877951 0.897479
O O7 0.690257 0.040161 0.121644
O O8 0.633357 0.879075 0.097005
O O9 0.646697 0.552099 0.598544
O O10 0.646773 0.396522 0.377719
O O11 0.702994 0.388431 0.632998
O O12 0.706673 0.560577 0.417202
O O13 0.584393 0.219583 0.787981
O O14 0.673175 0.238772 0.819047
O O15 0.000000 0.191011 0.250000
O O16 0.146970 0.266914 0.681773
O O17 0.737811 0.779648 0.685806
#
# Coordination Sequence:
#
# PCOD9270516 Si02
#       8
#     8   8   8   8   8   8   8   8
#     4  10  20  35  59  92 124 149 181 235 304 369
#     4  10  24  41  57  80 117 159 204 253 287 331
#     4  10  22  35  54  83 116 149 191 247 300 351
#     4  11  23  41  60  82 116 158 201 246 296 344
#     4  10  21  39  64  92 121 151 186 236 302 369
#     4  11  21  36  56  82 115 154 195 238 293 359
#     4  11  22  37  58  85 119 157 197 247 299 353
#     4  11  23  38  58  84 116 161 209 245 289 345
#
# _framework density 21.207436000000001
#
# number of rings (size 3 to 8) (size 9 to 14) (size 15 to 20)
#    0.000    1.500    0.000    6.000    0.000    9.000 
#    0.000    0.625    0.000    0.000    0.000    0.000 
#    0.000    0.000    0.000    0.000    0.000    0.000 
#
# Total GULP energy -178690.679506 kJ/mol
# GULP energy per Si atom -5584.083735 kJ/mol
# Density = 2.115917 g / cm^3
# Si number density = 21.207436 Si / 1000 Ang^3
#
#
#
# Elastic Constant Matrix: (Units=GPa)
#
#
# Indices 1 2 3 4 5 6 
#
# 1 83.5247 25.1932 13.6097 0.0000 -7.5694 0.0000
# 2 25.1932 50.4148 0.4829 0.0000 -9.8630 0.0000
# 3 13.6097 0.4829 89.8220 0.0000 -12.7465 0.0000
# 4 0.0000 0.0000 0.0000 39.4253 0.0000 -0.7695
# 5 -7.5694 -9.8630 -12.7465 0.0000 18.7676 0.0000
# 6 0.0000 0.0000 0.0000 -0.7695 0.0000 23.4547
#
#
#
# Elastic Compliance Matrix: (Units=1/GPa)
#
#
# Indices 1 2 3 4 5 6 
#
# 1 0.014512 -0.007089 -0.002057 0.000000 0.000730 0.000000
# 2 -0.007089 0.025807 0.002716 0.000000 0.012548 0.000000
# 3 -0.002057 0.002716 0.012743 0.000000 0.009253 0.000000
# 4 0.000000 0.000000 0.000000 0.025381 0.000000 0.000833
# 5 0.000730 0.012548 0.009253 0.000000 0.066456 0.000000
# 6 0.000000 0.000000 0.000000 0.000833 0.000000 0.042663
#
#
# Mechanical properties :
#
#
# Convention : Reuss Voigt Hill
#
# Bulk Modulus (GPa) = 24.87477 33.59257 29.23367
# Shear Modulus (GPa) = 23.38378 28.62792 26.00585
#
# Velocity S-wave (km/s) = 3.32418 3.67808 3.50560
# Velocity P-wave (km/s) = 5.14668 5.82341 5.49547
#
# Compressibility (1/GPa) = 0.04020138
#
# Stress axis : x y z
#
# Youngs Moduli (GPa) = 68.90737 38.74923 78.47298
#
# Poissons Ratio (x) = 0.27471 0.16143
# Poissons Ratio (y) = 0.48852 -0.21314
# Poissons Ratio (z) = 0.14175 -0.10525
#
# Static dielectric constant tensor:
#      x y z
#    x 1.839700 0.000000 0.032720 
#    y 0.000000 1.744770 0.000000 
#    z 0.032720 0.000000 1.829850 
# 
# From -- ./inp_files/69395.got.cif
#   From: 2010.05.17/outbox.cif.g08.bks.cpg/sg15_35_cif.got.tgz:69395.got - 2010.06.03 18:47:42.
