data_PCOD9270205
_publ_section_title
;
Structure prediction by ZEFSAII (Michael W. Deem and Ramdas Pophale) SiO2 
 PCOD9270205
Probable space group: C 2/C
;
_chemical_formula_sum "Si O2"
_cell_formula_units_Z 56
_cell_length_a 9.452748
_cell_length_b 16.051880
_cell_length_c 21.989808
_cell_angle_alpha 90.000000
_cell_angle_beta 138.299512
_cell_angle_gamma 90.000000
_cell_volume 2219.635344
_symmetry_space_group_name_H-M "C 2/C"
_symmetry_group_IT_number 15
_symmetry_cell_setting 'monoclinic'
loop_
_space_group_symop_operation_xyz
x,y,z
-x,y,1/2-z
-x,-y,-z
x,-y,1/2+z
1/2+x,1/2+y,z
1/2-x,1/2+y,1/2-z
1/2-x,1/2-y,-z
1/2+x,1/2-y,1/2+z
loop_
_atom_site_type_symbol
_atom_site_label
_atom_site_fract_x
_atom_site_fract_y
_atom_site_fract_z
Si Si1 0.244582 0.612765 0.659934
Si Si2 0.586904 0.572181 0.443180
Si Si3 0.686624 0.384265 0.489634
Si Si4 0.146211 0.307066 0.412562
Si Si5 0.891033 0.253255 0.628508
Si Si6 0.163335 0.173985 0.227840
Si Si7 0.843799 0.576258 0.402665
O O1 0.500000 0.610028 0.750000
O O2 0.233291 0.696687 0.616379
O O3 0.196942 0.520444 0.622441
O O4 0.059958 0.632485 0.648205
O O5 0.577198 0.473977 0.453454
O O6 0.664615 0.623968 0.527331
O O7 0.387562 0.608007 0.342035
O O8 0.764886 0.587867 0.446550
O O9 0.775165 0.339897 0.577986
O O10 0.571022 0.308115 0.417685
O O11 0.911268 0.401182 0.527173
O O12 0.250000 0.250000 0.500000
O O13 0.039176 0.237105 0.334887
O O14 0.127065 0.275255 0.725075
O O15 0.225439 0.125917 0.309850
#
# Coordination Sequence:
#
# PCOD9270205 Si02
#       7
#     8   8   8   8   8   8   8
#     4  12  20  34  62  91 120 159 209 263 308 373
#     4  11  19  36  60  86 123 165 208 255 311 375
#     4  10  20  35  56  88 132 159 196 265 321 381
#     4  10  22  37  56  85 123 163 208 255 318 374
#     4  10  21  35  54  89 129 159 201 252 324 369
#     4  10  22  36  51  87 130 168 196 256 318 373
#     4  11  21  35  60  96 123 154 212 262 316 369
#
# _framework density 25.229368000000001
#
# number of rings (size 3 to 8) (size 9 to 14) (size 15 to 20)
#    0.000    1.429    4.286    2.571    0.000    0.000 
#    0.000    0.000    0.000    3.429    3.714    6.000 
#    0.000    0.000    0.000    0.000    0.000    0.000 
#
# Total GULP energy -156061.985199 kJ/mol
# GULP energy per Si atom -5573.642329 kJ/mol
# Density = 2.517194 g / cm^3
# Si number density = 25.229368 Si / 1000 Ang^3
#
#
#
# Elastic Constant Matrix: (Units=GPa)
#
#
# Indices 1 2 3 4 5 6 
#
# 1 51.7555 28.8291 17.7966 0.0000 8.0962 0.0000
# 2 28.8291 195.0626 81.0985 0.0000 -0.7512 0.0000
# 3 17.7966 81.0985 151.1666 0.0000 15.2330 0.0000
# 4 0.0000 0.0000 0.0000 66.1328 0.0000 -8.7956
# 5 8.0962 -0.7512 15.2330 0.0000 40.1193 0.0000
# 6 0.0000 0.0000 0.0000 -8.7956 0.0000 35.9258
#
#
#
# Elastic Compliance Matrix: (Units=1/GPa)
#
#
# Indices 1 2 3 4 5 6 
#
# 1 0.021856 -0.003032 -0.000516 0.000000 -0.004272 0.000000
# 2 -0.003032 0.007110 -0.003673 0.000000 0.002140 0.000000
# 3 -0.000516 -0.003673 0.008987 0.000000 -0.003377 0.000000
# 4 0.000000 0.000000 0.000000 0.015630 0.000000 0.003827
# 5 -0.004272 0.002140 -0.003377 0.000000 0.027110 0.000000
# 6 0.000000 0.000000 0.000000 0.003827 0.000000 0.028772
#
#
# Mechanical properties :
#
#
# Convention : Reuss Voigt Hill
#
# Bulk Modulus (GPa) = 42.53385 72.60370 57.56878
# Shear Modulus (GPa) = 37.95232 46.45295 42.20263
#
# Velocity S-wave (km/s) = 3.88273 4.29561 4.09437
# Velocity P-wave (km/s) = 6.08245 7.31046 6.72455
#
# Compressibility (1/GPa) = 0.02351069
#
# Stress axis : x y z
#
# Youngs Moduli (GPa) = 45.75355 140.64622 111.27449
#
# Poissons Ratio (x) = 0.42646 0.05741
# Poissons Ratio (y) = 0.13873 0.40872
# Poissons Ratio (z) = 0.02361 0.51660
#
# Static dielectric constant tensor:
#      x y z
#    x 2.154800 0.000000 -0.045820 
#    y 0.000000 1.964890 0.000000 
#    z -0.045820 0.000000 2.072930 
# 
# From -- ./inp_files/313898.got.cif
#   From: 2010.05.17/outbox.cif.g08.bks.cpg/sg15_157_cif.got.tgz:313898.got - 2010.06.03 18:47:42.
