data_PCOD9270479
_publ_section_title
;
Structure prediction by ZEFSAII (Michael W. Deem and Ramdas Pophale) SiO2 
 PCOD9270479
Probable space group: C 2/C
;
_chemical_formula_sum "Si O2"
_cell_formula_units_Z 48
_cell_length_a 16.839266
_cell_length_b 5.757490
_cell_length_c 21.420662
_cell_angle_alpha 90.000000
_cell_angle_beta 59.454139
_cell_angle_gamma 90.000000
_cell_volume 1788.564783
_symmetry_space_group_name_H-M "C 2/C"
_symmetry_group_IT_number 15
_symmetry_cell_setting 'monoclinic'
loop_
_space_group_symop_operation_xyz
x,y,z
-x,y,1/2-z
-x,-y,-z
x,-y,1/2+z
1/2+x,1/2+y,z
1/2-x,1/2+y,1/2-z
1/2-x,1/2-y,-z
1/2+x,1/2-y,1/2+z
loop_
_atom_site_type_symbol
_atom_site_label
_atom_site_fract_x
_atom_site_fract_y
_atom_site_fract_z
Si Si1 0.687471 0.569657 0.063039
Si Si2 0.404293 0.202568 0.790166
Si Si3 0.148900 0.713174 0.832068
Si Si4 0.873610 0.216072 0.636995
Si Si5 0.450614 0.773774 0.468287
Si Si6 0.428036 0.820963 0.886837
O O1 0.671617 0.676597 0.136838
O O2 0.592008 0.585776 0.061383
O O3 0.674812 0.296944 0.078436
O O4 0.750000 0.750000 0.000000
O O5 0.500000 0.347722 0.750000
O O6 0.377511 0.187127 0.729563
O O7 0.429704 0.980921 0.823667
O O8 0.184317 0.454399 0.833032
O O9 0.058619 0.722910 0.913226
O O10 0.182748 0.977733 0.829190
O O11 0.915498 0.221240 0.550573
O O12 0.964458 0.232466 0.646429
O O13 0.416828 0.017848 0.453241
#
# Coordination Sequence:
#
# PCOD9270479 Si02
#       6
#     8   8   8   8   8   8
#     4  11  24  39  60  88 130 176 214 270 332 410
#     4  11  20  36  58  93 124 161 215 275 330 382
#     4  11  21  35  58  95 123 163 202 272 332 380
#     4  11  21  35  61  96 131 159 208 275 335 379
#     4  10  21  35  57  92 125 165 210 268 326 391
#     4  10  20  35  59  86 127 162 215 267 332 386
#
# _framework density 26.837160999999998
#
# number of rings (size 3 to 8) (size 9 to 14) (size 15 to 20)
#    0.000    1.333    6.667    2.500    4.667    3.333 
#    0.000    0.000    0.000    2.000    0.000    0.000 
#    0.000    0.000    0.000    0.000    0.000    0.000 
#
# Total GULP energy -133705.059897 kJ/mol
# GULP energy per Si atom -5571.044162 kJ/mol
# Density = 2.677608 g / cm^3
# Si number density = 26.837161 Si / 1000 Ang^3
#
#
#
# Elastic Constant Matrix: (Units=GPa)
#
#
# Indices 1 2 3 4 5 6 
#
# 1 48.6092 26.5012 34.1761 -0.0095 -0.7294 -0.0001
# 2 26.5012 120.4337 40.7702 -0.0212 -3.1635 -0.0063
# 3 34.1761 40.7702 204.9275 -0.0085 16.3251 -0.0050
# 4 -0.0095 -0.0212 -0.0085 16.9740 -0.0049 12.8129
# 5 -0.7294 -3.1635 16.3251 -0.0049 45.8930 -0.0053
# 6 -0.0001 -0.0063 -0.0050 12.8129 -0.0053 4.5997
#
#
#
# Elastic Compliance Matrix: (Units=1/GPa)
#
#
# Indices 1 2 3 4 5 6 
#
# 1 0.025425 -0.004383 -0.003475 -0.000012 0.001338 0.000026
# 2 -0.004383 0.009732 -0.001290 0.000000 0.001060 0.000012
# 3 -0.003475 -0.001290 0.005894 0.000003 -0.002241 -0.000005
# 4 -0.000012 0.000000 0.000003 -0.053426 0.000010 0.148823
# 5 0.001338 0.001060 -0.002241 0.000010 0.022681 -0.000004
# 6 0.000026 0.000012 -0.000005 0.148823 -0.000004 -0.197155
#
#
# Mechanical properties :
#
#
# Convention : Reuss Voigt Hill
#
# Bulk Modulus (GPa) = 43.94380 64.09615 54.01998
# Shear Modulus (GPa) = -31.06215 31.66152 0.29969
#
# Velocity S-wave (km/s) = -3.40579 3.43850 0.33453
# Velocity P-wave (km/s) = 0.97153 6.30076 4.50796
#
# Compressibility (1/GPa) = 0.02275634
#
# Stress axis : x y z
#
# Youngs Moduli (GPa) = 39.33134 102.75075 169.65398
#
# Poissons Ratio (x) = 0.45039 0.58950
# Poissons Ratio (y) = 0.17240 0.21880
# Poissons Ratio (z) = 0.13666 0.13251
#
# Static dielectric constant tensor:
#      x y z
#    x 2.206490 -0.000010 -0.108310 
#    y -0.000010 2.442910 0.000000 
#    z -0.108310 0.000000 2.023520 
# 
# From -- ./inp_files/253961.got.cif
#   From: 2010.05.17/outbox.cif.g08.bks.cpg/sg15_127_cif.got.tgz:253961.got - 2010.06.03 18:47:42.
