data_PCOD9270579
_publ_section_title
;
Structure prediction by ZEFSAII (Michael W. Deem and Ramdas Pophale) SiO2 
 PCOD9270579
Probable space group: C 2/C
;
_chemical_formula_sum "Si O2"
_cell_formula_units_Z 40
_cell_length_a 14.550377
_cell_length_b 12.744250
_cell_length_c 9.255462
_cell_angle_alpha 90.000000
_cell_angle_beta 89.863839
_cell_angle_gamma 90.000000
_cell_volume 1716.269181
_symmetry_space_group_name_H-M "C 2/C"
_symmetry_group_IT_number 15
_symmetry_cell_setting 'monoclinic'
loop_
_space_group_symop_operation_xyz
x,y,z
-x,y,1/2-z
-x,-y,-z
x,-y,1/2+z
1/2+x,1/2+y,z
1/2-x,1/2+y,1/2-z
1/2-x,1/2-y,-z
1/2+x,1/2-y,1/2+z
loop_
_atom_site_type_symbol
_atom_site_label
_atom_site_fract_x
_atom_site_fract_y
_atom_site_fract_z
Si Si1 0.852046 0.050119 0.979014
Si Si2 0.687151 0.830421 0.322303
Si Si3 0.835498 0.332265 0.497264
Si Si4 0.981320 0.770950 0.576098
Si Si5 0.282349 0.590919 0.273110
O O1 0.938855 0.123213 0.008919
O O2 0.805602 0.024171 0.131965
O O3 0.775450 0.116168 0.890860
O O4 0.861255 0.944941 0.885843
O O5 0.599296 0.818010 0.426098
O O6 0.709974 0.708321 0.288098
O O7 0.660523 0.876618 0.165938
O O8 0.750000 0.250000 0.500000
O O9 0.809526 0.409993 0.628385
O O10 0.930639 0.270614 0.509485
O O11 0.000000 0.783118 0.750000
#
# Coordination Sequence:
#
# PCOD9270579 Si02
#       5
#     8   8   8   8   8
#     4  11  21  38  62  92 125 165 205 255 310 371
#     4   9  19  38  60  84 119 164 206 254 305 361
#     4   9  18  36  58  83 115 157 200 248 302 360
#     4   9  18  35  60  86 119 163 206 250 307 364
#     4  10  20  35  60  91 123 159 204 251 305 366
#
# _framework density 23.306367999999999
#
# number of rings (size 3 to 8) (size 9 to 14) (size 15 to 20)
#    0.000    2.400    0.000    4.800    0.000    0.000 
#    0.000   26.000    0.000   19.200    0.000    1.400 
#    0.000    0.000    0.000    0.000    0.000    0.000 
#
# Total GULP energy -111536.541356 kJ/mol
# GULP energy per Si atom -5576.827068 kJ/mol
# Density = 2.325332 g / cm^3
# Si number density = 23.306368 Si / 1000 Ang^3
#
#
#
# Elastic Constant Matrix: (Units=GPa)
#
#
# Indices 1 2 3 4 5 6 
#
# 1 144.5118 33.7447 24.6508 0.0000 -4.3920 0.0000
# 2 33.7447 42.7694 17.9220 0.0000 8.5021 0.0000
# 3 24.6508 17.9220 113.2802 0.0000 -9.6843 0.0000
# 4 0.0000 0.0000 0.0000 50.3116 0.0000 5.7391
# 5 -4.3920 8.5021 -9.6843 0.0000 37.2066 0.0000
# 6 0.0000 0.0000 0.0000 5.7391 0.0000 41.6495
#
#
#
# Elastic Compliance Matrix: (Units=1/GPa)
#
#
# Indices 1 2 3 4 5 6 
#
# 1 0.008771 -0.007192 -0.000554 0.000000 0.002534 0.000000
# 2 -0.007192 0.032803 -0.004437 0.000000 -0.009500 0.000000
# 3 -0.000554 -0.004437 0.009953 0.000000 0.003539 0.000000
# 4 0.000000 0.000000 0.000000 0.020194 0.000000 -0.002783
# 5 0.002534 -0.009500 0.003539 0.000000 0.030268 0.000000
# 6 0.000000 0.000000 0.000000 -0.002783 0.000000 0.024393
#
#
# Mechanical properties :
#
#
# Convention : Reuss Voigt Hill
#
# Bulk Modulus (GPa) = 36.81728 50.35514 43.58621
# Shear Modulus (GPa) = 31.28900 40.78312 36.03606
#
# Velocity S-wave (km/s) = 3.66800 4.18768 3.93643
# Velocity P-wave (km/s) = 5.81123 6.71080 6.27715
#
# Compressibility (1/GPa) = 0.02716116
#
# Stress axis : x y z
#
# Youngs Moduli (GPa) = 114.01579 30.48497 100.47465
#
# Poissons Ratio (x) = 0.21924 0.05568
# Poissons Ratio (y) = 0.81996 0.44580
# Poissons Ratio (z) = 0.06318 0.13526
#
# Static dielectric constant tensor:
#      x y z
#    x 1.931250 0.000000 -0.011260 
#    y 0.000000 2.049390 0.000000 
#    z -0.011260 0.000000 1.935510 
# 
# From -- ./inp_files/95369.got.cif
#   From: 2010.05.17/outbox.cif.g08.bks.cpg/sg15_48_cif.got.tgz:95369.got - 2010.06.03 18:47:42.
