data_PCOD9270954
_publ_section_title
;
Structure prediction by ZEFSAII (Michael W. Deem and Ramdas Pophale) SiO2 
 PCOD9270954
Probable space group: C 2/C
;
_chemical_formula_sum "Si O2"
_cell_formula_units_Z 56
_cell_length_a 21.367721
_cell_length_b 14.412786
_cell_length_c 23.923985
_cell_angle_alpha 90.000000
_cell_angle_beta 25.437531
_cell_angle_gamma 90.000000
_cell_volume 3164.680652
_symmetry_space_group_name_H-M "C 2/C"
_symmetry_group_IT_number 15
_symmetry_cell_setting 'monoclinic'
loop_
_space_group_symop_operation_xyz
x,y,z
-x,y,1/2-z
-x,-y,-z
x,-y,1/2+z
1/2+x,1/2+y,z
1/2-x,1/2+y,1/2-z
1/2-x,1/2-y,-z
1/2+x,1/2-y,1/2+z
loop_
_atom_site_type_symbol
_atom_site_label
_atom_site_fract_x
_atom_site_fract_y
_atom_site_fract_z
Si Si1 0.685417 0.563958 0.883111
Si Si2 0.649078 0.419003 0.823059
Si Si3 0.663077 0.150150 0.635496
Si Si4 0.667342 0.366295 0.615981
Si Si5 0.361407 0.952465 0.553612
Si Si6 0.708769 0.272863 0.273373
Si Si7 0.448707 0.851016 0.011083
O O1 0.707539 0.467633 0.832504
O O2 0.791252 0.592781 0.847253
O O3 0.694131 0.644538 0.829473
O O4 0.522099 0.563549 0.039426
O O5 0.734794 0.462672 0.702296
O O6 0.684784 0.310261 0.792692
O O7 0.500000 0.124935 0.750000
O O8 0.664090 0.261568 0.643798
O O9 0.772365 0.135371 0.495606
O O10 0.500000 0.400372 0.750000
O O11 0.782447 0.420291 0.561510
O O12 0.472677 0.878937 0.492838
O O13 0.439249 0.051479 0.486751
O O14 0.552069 0.222812 0.397262
O O15 0.789536 0.312146 0.153747
#
# Coordination Sequence:
#
# PCOD9270954 Si02
#       7
#     8   8   8   8   8   8   8
#     4  11  21  35  53  80 121 143 181 228 278 327
#     4  10  21  33  55  83 107 149 182 225 286 330
#     4  10  22  33  52  77 111 151 179 215 267 330
#     4  10  21  37  53  79 109 149 189 214 265 331
#     4  10  20  36  56  78 112 143 189 228 265 336
#     4  11  20  35  52  80 114 143 176 224 282 331
#     4  10  21  33  54  82 108 147 178 223 291 315
#
# _framework density 17.695309000000002
#
# number of rings (size 3 to 8) (size 9 to 14) (size 15 to 20)
#    0.000    1.714    2.857    2.571    2.000    1.143 
#    0.000    0.000    0.000    0.000    0.000    5.000 
#    0.000    0.000    0.000    0.000    0.000    0.000 
#
# Total GULP energy -156223.937381 kJ/mol
# GULP energy per Si atom -5579.426335 kJ/mol
# Density = 1.765503 g / cm^3
# Si number density = 17.695309 Si / 1000 Ang^3
#
#
#
# Elastic Constant Matrix: (Units=GPa)
#
#
# Indices 1 2 3 4 5 6 
#
# 1 58.0701 17.6325 -5.0103 -0.0039 -16.3664 -0.0005
# 2 17.6325 50.1118 19.8970 -0.0014 -9.9239 0.0003
# 3 -5.0103 19.8970 84.2373 -0.0053 -4.4301 0.0000
# 4 -0.0039 -0.0014 -0.0053 18.9177 0.0009 -2.9473
# 5 -16.3664 -9.9239 -4.4301 0.0009 16.5710 0.0000
# 6 -0.0005 0.0003 0.0000 -2.9473 0.0000 14.5446
#
#
#
# Elastic Compliance Matrix: (Units=1/GPa)
#
#
# Indices 1 2 3 4 5 6 
#
# 1 0.025982 -0.006260 0.004236 0.000005 0.023044 0.000002
# 2 -0.006260 0.026146 -0.006136 -0.000002 0.007835 -0.000001
# 3 0.004236 -0.006136 0.013793 0.000004 0.004196 0.000001
# 4 0.000005 -0.000002 0.000004 0.054584 0.000002 0.011061
# 5 0.023044 0.007835 0.004196 0.000002 0.088920 0.000001
# 6 0.000002 -0.000001 0.000001 0.011061 0.000001 0.070995
#
#
# Mechanical properties :
#
#
# Convention : Reuss Voigt Hill
#
# Bulk Modulus (GPa) = 20.16124 28.60640 24.38382
# Shear Modulus (GPa) = 15.96047 20.66668 18.31358
#
# Velocity S-wave (km/s) = 3.00652 3.42119 3.22054
# Velocity P-wave (km/s) = 4.84464 5.63979 5.25727
#
# Compressibility (1/GPa) = 0.04960011
#
# Stress axis : x y z
#
# Youngs Moduli (GPa) = 38.48859 38.24675 72.49940
#
# Poissons Ratio (x) = 0.23944 -0.30711
# Poissons Ratio (y) = 0.24095 0.44486
# Poissons Ratio (z) = -0.16304 0.23468
#
# Static dielectric constant tensor:
#      x y z
#    x 1.578230 0.000000 -0.005440 
#    y 0.000000 1.622000 0.000000 
#    z -0.005440 0.000000 1.647560 
# 
# From -- ./inp_files/126753.got.cif
#   From: 2010.05.17/outbox.cif.g08.bks.cpg/sg15_64_cif.got.tgz:126753.got - 2010.06.03 18:47:42.
