data_PCOD9270110
_publ_section_title
;
Structure prediction by ZEFSAII (Michael W. Deem and Ramdas Pophale) SiO2 
 PCOD9270110
Probable space group: C 2/C
;
_chemical_formula_sum "Si O2"
_cell_formula_units_Z 56
_cell_length_a 19.262694
_cell_length_b 19.368205
_cell_length_c 14.301899
_cell_angle_alpha 90.000000
_cell_angle_beta 29.051827
_cell_angle_gamma 90.000000
_cell_volume 2591.070830
_symmetry_space_group_name_H-M "C 2/C"
_symmetry_group_IT_number 15
_symmetry_cell_setting 'monoclinic'
loop_
_space_group_symop_operation_xyz
x,y,z
-x,y,1/2-z
-x,-y,-z
x,-y,1/2+z
1/2+x,1/2+y,z
1/2-x,1/2+y,1/2-z
1/2-x,1/2-y,-z
1/2+x,1/2-y,1/2+z
loop_
_atom_site_type_symbol
_atom_site_label
_atom_site_fract_x
_atom_site_fract_y
_atom_site_fract_z
Si Si1 0.424621 0.610984 0.985386
Si Si2 0.984986 0.753215 0.059377
Si Si3 0.183296 0.279906 0.483412
Si Si4 0.710343 0.017364 0.328392
Si Si5 0.720801 0.398595 0.026424
Si Si6 0.661537 0.959929 0.094560
Si Si7 0.423067 0.105328 0.624886
O O1 0.352029 0.543170 0.110279
O O2 0.443308 0.671522 0.039705
O O3 0.322542 0.636774 0.020415
O O4 0.575056 0.596458 0.757934
O O5 0.815498 0.767040 0.255401
O O6 0.037393 0.739670 0.104781
O O7 0.040836 0.684803 0.941976
O O8 0.250000 0.250000 0.500000
O O9 0.174234 0.359254 0.527778
O O10 0.740085 0.035305 0.402313
O O11 0.575384 0.066033 0.458360
O O12 0.663174 0.940387 0.350946
O O13 0.787846 0.470217 0.916559
O O14 0.500000 0.965428 0.250000
O O15 0.660000 0.902530 0.177642
#
# Coordination Sequence:
#
# PCOD9270110 Si02
#       7
#     8   8   8   8   8   8   8
#     4  10  20  36  57  82 123 159 198 241 310 361
#     4  11  22  37  56  85 123 163 194 254 307 365
#     4  11  21  33  54  86 120 154 198 240 309 369
#     4  10  20  37  60  86 116 163 204 256 302 355
#     4  10  20  35  55  84 121 157 189 250 304 367
#     4  10  21  37  59  88 119 155 211 257 299 353
#     4  10  21  36  58  88 121 159 207 252 303 365
#
# _framework density 21.612686
#
# number of rings (size 3 to 8) (size 9 to 14) (size 15 to 20)
#    0.000    1.714    2.857    2.143    0.000    1.714 
#    0.000    0.714    0.000    0.000    0.000    0.000 
#    0.000    0.000    0.000    0.000    0.000    0.000 
#
# Total GULP energy -155962.412509 kJ/mol
# GULP energy per Si atom -5570.086161 kJ/mol
# Density = 2.156349 g / cm^3
# Si number density = 21.612686 Si / 1000 Ang^3
#
#
#
# Elastic Constant Matrix: (Units=GPa)
#
#
# Indices 1 2 3 4 5 6 
#
# 1 61.9171 14.7149 22.4122 -0.0005 9.6873 0.0005
# 2 14.7149 94.2224 21.8915 -0.0003 7.9317 0.0004
# 3 22.4122 21.8915 53.3642 -0.0009 12.9354 0.0005
# 4 -0.0005 -0.0003 -0.0009 36.7992 0.0008 6.8020
# 5 9.6873 7.9317 12.9354 0.0008 30.1004 -0.0005
# 6 0.0005 0.0004 0.0005 6.8020 -0.0005 28.9313
#
#
#
# Elastic Compliance Matrix: (Units=1/GPa)
#
#
# Indices 1 2 3 4 5 6 
#
# 1 0.019408 -0.001166 -0.006958 0.000000 -0.002949 0.000000
# 2 -0.001166 0.011837 -0.004131 0.000000 -0.000968 0.000000
# 3 -0.006958 -0.004131 0.025172 0.000001 -0.007489 -0.000001
# 4 0.000000 0.000000 0.000001 0.028409 -0.000001 -0.006679
# 5 -0.002949 -0.000968 -0.007489 -0.000001 0.037645 0.000001
# 6 0.000000 0.000000 -0.000001 -0.006679 0.000001 0.036135
#
#
# Mechanical properties :
#
#
# Convention : Reuss Voigt Hill
#
# Bulk Modulus (GPa) = 31.34260 36.39344 33.86802
# Shear Modulus (GPa) = 25.80643 29.19853 27.50248
#
# Velocity S-wave (km/s) = 3.45924 3.67957 3.57110
# Velocity P-wave (km/s) = 5.52164 5.90997 5.71910
#
# Compressibility (1/GPa) = 0.03190546
#
# Stress axis : x y z
#
# Youngs Moduli (GPa) = 51.52621 84.48321 39.72745
#
# Poissons Ratio (x) = 0.09852 0.27641
# Poissons Ratio (y) = 0.06009 0.16412
# Poissons Ratio (z) = 0.35851 0.34902
#
# Static dielectric constant tensor:
#      x y z
#    x 1.854970 0.000000 0.056080 
#    y 0.000000 1.916250 0.000000 
#    z 0.056080 0.000000 1.811610 
# 
# From -- ./inp_files/169112.got.cif
#   From: 2010.05.17/outbox.cif.g08.bks.cpg/sg15_85_cif.got.tgz:169112.got - 2010.06.03 18:47:42.
