data_PCOD9270109
_publ_section_title
;
Structure prediction by ZEFSAII (Michael W. Deem and Ramdas Pophale) SiO2 
 PCOD9270109
Probable space group: C 2/C
;
_chemical_formula_sum "Si O2"
_cell_formula_units_Z 60
_cell_length_a 5.797216
_cell_length_b 25.363637
_cell_length_c 25.273829
_cell_angle_alpha 90.000000
_cell_angle_beta 57.558431
_cell_angle_gamma 90.000000
_cell_volume 3136.267419
_symmetry_space_group_name_H-M "C 2/C"
_symmetry_group_IT_number 15
_symmetry_cell_setting 'monoclinic'
loop_
_space_group_symop_operation_xyz
x,y,z
-x,y,1/2-z
-x,-y,-z
x,-y,1/2+z
1/2+x,1/2+y,z
1/2-x,1/2+y,1/2-z
1/2-x,1/2-y,-z
1/2+x,1/2-y,1/2+z
loop_
_atom_site_type_symbol
_atom_site_label
_atom_site_fract_x
_atom_site_fract_y
_atom_site_fract_z
Si Si1 0.066472 0.538071 0.540061
Si Si2 0.947213 0.463158 0.856928
Si Si3 0.911813 0.753276 0.424029
Si Si4 0.619127 0.625157 0.573546
Si Si5 0.225392 0.051501 0.816428
Si Si6 0.055592 0.890492 0.958860
Si Si7 0.500000 0.501008 0.250000
Si Si8 0.112099 0.215562 0.064171
O O1 0.871630 0.589688 0.563056
O O2 0.000000 0.500000 0.500000
O O3 0.034104 0.502267 0.595365
O O4 0.370792 0.558695 0.493118
O O5 0.754454 0.494867 0.840664
O O6 0.813863 0.409308 0.893076
O O7 0.236603 0.462917 0.791767
O O8 0.750000 0.750000 0.500000
O O9 0.911420 0.814270 0.406572
O O10 0.714747 0.725833 0.404511
O O11 0.212399 0.731035 0.404887
O O12 0.360914 0.593432 0.629136
O O13 0.635542 0.627592 0.507857
O O14 0.500000 0.064718 0.750000
O O15 0.009311 0.039292 0.797778
O O16 0.874929 0.846275 0.951739
O O17 0.250000 0.250000 0.000000
#
# Coordination Sequence:
#
# PCOD9270109 Si02
#       8
#     8   8   8   8   8   8   4   8
#     4  12  22  32  52  87 127 150 188 241 302 368
#     4  11  22  36  55  81 118 156 200 244 291 360
#     4  10  20  35  55  84 121 157 189 243 295 363
#     4  12  21  34  59  85 118 158 196 239 313 367
#     4  10  22  39  55  80 114 156 203 243 289 360
#     4  12  23  33  57  89 121 157 193 244 308 368
#     4  10  22  42  54  72 116 160 200 246 284 348
#     4  10  20  37  53  83 128 155 193 236 300 364
#
# _framework density 19.131022999999999
#
# number of rings (size 3 to 8) (size 9 to 14) (size 15 to 20)
#    0.000    1.067    6.667    2.800    0.000    0.000 
#    0.000    0.000    0.000    0.000    1.733    0.000 
#    0.000    0.000    0.000    0.000    0.000    0.000 
#
# Total GULP energy -167133.212589 kJ/mol
# GULP energy per Si atom -5571.107086 kJ/mol
# Density = 1.908748 g / cm^3
# Si number density = 19.131023 Si / 1000 Ang^3
#
#
#
# Elastic Constant Matrix: (Units=GPa)
#
#
# Indices 1 2 3 4 5 6 
#
# 1 86.8094 21.5869 3.6113 0.0000 10.5349 0.0000
# 2 21.5869 86.7722 28.6780 0.0000 -6.8744 0.0000
# 3 3.6113 28.6780 53.0703 0.0000 -2.0039 0.0000
# 4 0.0000 0.0000 0.0000 10.4409 0.0000 -0.2937
# 5 10.5349 -6.8744 -2.0039 0.0000 26.9823 0.0000
# 6 0.0000 0.0000 0.0000 -0.2937 0.0000 37.2236
#
#
#
# Elastic Compliance Matrix: (Units=1/GPa)
#
#
# Indices 1 2 3 4 5 6 
#
# 1 0.013252 -0.004150 0.001109 0.000000 -0.006149 0.000000
# 2 -0.004150 0.015580 -0.007948 0.000000 0.004999 0.000000
# 3 0.001109 -0.007948 0.023034 0.000000 -0.000747 0.000000
# 4 0.000000 0.000000 0.000000 0.095799 0.000000 0.000756
# 5 -0.006149 0.004999 -0.000747 0.000000 0.040680 0.000000
# 6 0.000000 0.000000 0.000000 0.000756 0.000000 0.026871
#
#
# Mechanical properties :
#
#
# Convention : Reuss Voigt Hill
#
# Bulk Modulus (GPa) = 33.45944 37.15604 35.30774
# Shear Modulus (GPa) = 20.23014 26.44773 23.33894
#
# Velocity S-wave (km/s) = 3.25538 3.72217 3.49657
# Velocity P-wave (km/s) = 5.62651 6.15928 5.89891
#
# Compressibility (1/GPa) = 0.02988693
#
# Stress axis : x y z
#
# Youngs Moduli (GPa) = 75.46240 64.18600 43.41401
#
# Poissons Ratio (x) = 0.26639 -0.04814
# Poissons Ratio (y) = 0.31319 0.34504
# Poissons Ratio (z) = -0.08367 0.51013
#
# Static dielectric constant tensor:
#      x y z
#    x 1.775520 0.000000 -0.026760 
#    y 0.000000 1.699920 0.000000 
#    z -0.026760 0.000000 1.673930 
# 
# From -- ./inp_files/286668.got.cif
#   From: 2010.05.17/outbox.cif.g08.bks.cpg/sg15_144_cif.got.tgz:286668.got - 2010.06.03 18:47:42.
