data_PCOD9270401
_publ_section_title
;
Structure prediction by ZEFSAII (Michael W. Deem and Ramdas Pophale) SiO2 
 PCOD9270401
Probable space group: C 2/C
;
_chemical_formula_sum "Si O2"
_cell_formula_units_Z 56
_cell_length_a 9.596499
_cell_length_b 21.808586
_cell_length_c 14.261008
_cell_angle_alpha 90.000000
_cell_angle_beta 65.473461
_cell_angle_gamma 90.000000
_cell_volume 2715.324458
_symmetry_space_group_name_H-M "C 2/C"
_symmetry_group_IT_number 15
_symmetry_cell_setting 'monoclinic'
loop_
_space_group_symop_operation_xyz
x,y,z
-x,y,1/2-z
-x,-y,-z
x,-y,1/2+z
1/2+x,1/2+y,z
1/2-x,1/2+y,1/2-z
1/2-x,1/2-y,-z
1/2+x,1/2-y,1/2+z
loop_
_atom_site_type_symbol
_atom_site_label
_atom_site_fract_x
_atom_site_fract_y
_atom_site_fract_z
Si Si1 0.385036 0.442163 0.591108
Si Si2 0.645014 0.643993 0.081337
Si Si3 0.339874 0.165504 0.347887
Si Si4 0.319971 0.687713 0.638608
Si Si5 0.462746 0.562297 0.651927
Si Si6 0.088229 0.254102 0.337765
Si Si7 0.539553 0.815363 0.953024
O O1 0.541564 0.416458 0.597248
O O2 0.253899 0.394559 0.652971
O O3 0.352870 0.509092 0.641066
O O4 0.413773 0.439357 0.469877
O O5 0.530438 0.698297 0.144648
O O6 0.801618 0.646439 0.096852
O O7 0.694355 0.663616 0.962995
O O8 0.500000 0.171208 0.250000
O O9 0.228686 0.222024 0.355706
O O10 0.393694 0.159431 0.439706
O O11 0.394432 0.630769 0.671557
O O12 0.166257 0.711345 0.729820
O O13 0.424998 0.748197 0.600793
O O14 0.500000 0.547326 0.750000
O O15 0.007102 0.302241 0.428029
#
# Coordination Sequence:
#
# PCOD9270401 Si02
#       7
#     8   8   8   8   8   8   8
#     4   9  22  45  64  88 122 158 216 255 300 361
#     4   9  21  39  60  90 121 163 199 249 292 371
#     4  11  22  38  59  90 122 162 196 253 295 360
#     4  10  20  35  59  92 123 154 203 241 303 365
#     4  10  22  39  69  88 116 164 212 256 301 368
#     4  10  20  35  58  87 130 156 189 245 309 358
#     4  11  22  35  59  95 125 155 198 245 309 362
#
# _framework density 20.623687
#
# number of rings (size 3 to 8) (size 9 to 14) (size 15 to 20)
#    0.000    2.000    1.429    3.000    4.000    3.429 
#    0.000    0.000   12.571    8.571    0.000    0.000 
#    0.000    0.000    0.000    0.000    0.000    0.000 
#
# Total GULP energy -156176.514804 kJ/mol
# GULP energy per Si atom -5577.732672 kJ/mol
# Density = 2.057675 g / cm^3
# Si number density = 20.623687 Si / 1000 Ang^3
#
#
#
# Elastic Constant Matrix: (Units=GPa)
#
#
# Indices 1 2 3 4 5 6 
#
# 1 96.9544 20.2561 15.0219 0.0000 -4.6338 0.0000
# 2 20.2561 51.7569 11.4882 0.0000 0.5905 0.0000
# 3 15.0219 11.4882 94.7540 0.0000 2.2167 0.0000
# 4 0.0000 0.0000 0.0000 10.8712 0.0000 2.4656
# 5 -4.6338 0.5905 2.2167 0.0000 31.5944 0.0000
# 6 0.0000 0.0000 0.0000 2.4656 0.0000 21.9229
#
#
#
# Elastic Compliance Matrix: (Units=1/GPa)
#
#
# Indices 1 2 3 4 5 6 
#
# 1 0.011494 -0.004219 -0.001354 0.000000 0.001860 0.000000
# 2 -0.004219 0.021405 -0.001906 0.000000 -0.000885 0.000000
# 3 -0.001354 -0.001906 0.011021 0.000000 -0.000936 0.000000
# 4 0.000000 0.000000 0.000000 0.094394 0.000000 -0.010616
# 5 0.001860 -0.000885 -0.000936 0.000000 0.032006 0.000000
# 6 0.000000 0.000000 0.000000 -0.010616 0.000000 0.046808
#
#
# Mechanical properties :
#
#
# Convention : Reuss Voigt Hill
#
# Bulk Modulus (GPa) = 34.52683 37.44417 35.98550
# Shear Modulus (GPa) = 20.68325 25.99099 23.33712
#
# Velocity S-wave (km/s) = 3.17028 3.55385 3.36753
# Velocity P-wave (km/s) = 5.49350 5.91905 5.71024
#
# Compressibility (1/GPa) = 0.02896298
#
# Stress axis : x y z
#
# Youngs Moduli (GPa) = 86.99958 46.71712 90.73353
#
# Poissons Ratio (x) = 0.19711 0.12287
# Poissons Ratio (y) = 0.36706 0.17291
# Poissons Ratio (z) = 0.11782 0.08903
#
# Static dielectric constant tensor:
#      x y z
#    x 1.812230 0.000000 0.070810 
#    y 0.000000 1.723490 0.000000 
#    z 0.070810 0.000000 1.809930 
# 
# From -- ./inp_files/137729.got.cif
#   From: 2010.05.17/outbox.cif.g08.bks.cpg/sg15_69_cif.got.tgz:137729.got - 2010.06.03 18:47:42.
