data_PCOD9270834
_publ_section_title
;
Structure prediction by ZEFSAII (Michael W. Deem and Ramdas Pophale) SiO2 
 PCOD9270834
Probable space group: C 2/C
;
_chemical_formula_sum "Si O2"
_cell_formula_units_Z 56
_cell_length_a 24.954131
_cell_length_b 12.941743
_cell_length_c 27.336161
_cell_angle_alpha 90.000000
_cell_angle_beta 159.468852
_cell_angle_gamma 90.000000
_cell_volume 3096.199886
_symmetry_space_group_name_H-M "C 2/C"
_symmetry_group_IT_number 15
_symmetry_cell_setting 'monoclinic'
loop_
_space_group_symop_operation_xyz
x,y,z
-x,y,1/2-z
-x,-y,-z
x,-y,1/2+z
1/2+x,1/2+y,z
1/2-x,1/2+y,1/2-z
1/2-x,1/2-y,-z
1/2+x,1/2-y,1/2+z
loop_
_atom_site_type_symbol
_atom_site_label
_atom_site_fract_x
_atom_site_fract_y
_atom_site_fract_z
Si Si1 0.219461 0.818718 0.341224
Si Si2 0.489062 0.924742 0.921837
Si Si3 0.678216 0.366567 0.627728
Si Si4 0.110619 0.354168 0.557487
Si Si5 0.544358 0.657106 0.118030
Si Si6 0.062017 0.048288 0.928875
Si Si7 0.324388 0.175121 0.105579
O O1 0.384163 0.860993 0.498489
O O2 0.251123 0.748313 0.320210
O O3 0.161495 0.744776 0.333783
O O4 0.098754 0.908953 0.228794
O O5 0.327714 0.938620 0.757954
O O6 0.451086 0.861279 0.939239
O O7 0.566416 0.033106 0.000318
O O8 0.583510 0.380522 0.596106
O O9 0.584475 0.392687 0.499593
O O10 0.290676 0.334559 0.715483
O O11 0.034763 0.266261 0.459694
O O12 0.449297 0.571918 0.066606
O O13 0.200629 0.085859 0.012720
O O14 0.500000 0.137659 0.250000
O O15 0.250000 0.250000 0.000000
#
# Coordination Sequence:
#
# PCOD9270834 Si02
#       7
#     8   8   8   8   8   8   8
#     4  11  20  37  57  85 124 152 195 241 297 363
#     4  10  20  36  51  82 115 165 196 237 284 340
#     4  10  21  31  55  80 120 161 198 231 285 349
#     4  10  22  35  54  76 119 161 206 235 277 337
#     4  11  22  36  52  81 117 164 201 242 277 350
#     4  11  23  36  55  86 119 154 196 244 305 355
#     4  11  23  41  62  88 115 147 190 252 317 364
#
# _framework density 18.086687999999999
#
# number of rings (size 3 to 8) (size 9 to 14) (size 15 to 20)
#    0.000    1.429    4.286    2.143    6.000    0.000 
#    0.000    0.000    0.000    0.000    0.000    5.000 
#    0.000    0.000    0.000    0.000    0.000    0.000 
#
# Total GULP energy -156113.814959 kJ/mol
# GULP energy per Si atom -5575.493391 kJ/mol
# Density = 1.804552 g / cm^3
# Si number density = 18.086688 Si / 1000 Ang^3
#
#
#
# Elastic Constant Matrix: (Units=GPa)
#
#
# Indices 1 2 3 4 5 6 
#
# 1 50.6212 26.1931 23.2217 -0.0038 13.7354 0.0000
# 2 26.1931 82.4764 27.5957 -0.0061 11.6187 -0.0027
# 3 23.2217 27.5957 76.0304 -0.0093 11.9551 -0.0023
# 4 -0.0038 -0.0061 -0.0093 30.0539 -0.0026 3.8267
# 5 13.7354 11.6187 11.9551 -0.0026 25.0789 0.0003
# 6 0.0000 -0.0027 -0.0023 3.8267 0.0003 27.4877
#
#
#
# Elastic Compliance Matrix: (Units=1/GPa)
#
#
# Indices 1 2 3 4 5 6 
#
# 1 0.027695 -0.005762 -0.004759 0.000000 -0.010230 -0.000001
# 2 -0.005762 0.015449 -0.003479 0.000001 -0.002343 0.000001
# 3 -0.004759 -0.003479 0.016438 0.000003 -0.003618 0.000001
# 4 0.000000 0.000001 0.000003 0.033874 0.000001 -0.004716
# 5 -0.010230 -0.002343 -0.003618 0.000001 0.048287 -0.000001
# 6 -0.000001 0.000001 0.000001 -0.004716 -0.000001 0.037036
#
#
# Mechanical properties :
#
#
# Convention : Reuss Voigt Hill
#
# Bulk Modulus (GPa) = 31.66385 40.34987 36.00686
# Shear Modulus (GPa) = 23.00910 25.33194 24.17052
#
# Velocity S-wave (km/s) = 3.57060 3.74650 3.65961
# Velocity P-wave (km/s) = 5.87738 6.40879 6.14883
#
# Compressibility (1/GPa) = 0.03158175
#
# Stress axis : x y z
#
# Youngs Moduli (GPa) = 36.10780 64.73055 60.83606
#
# Poissons Ratio (x) = 0.37298 0.28951
# Poissons Ratio (y) = 0.20805 0.21164
# Poissons Ratio (z) = 0.17183 0.22519
#
# Static dielectric constant tensor:
#      x y z
#    x 1.621820 0.000000 0.008080 
#    y 0.000000 1.630840 0.000000 
#    z 0.008080 0.000000 1.643440 
# 
# From -- ./inp_files/319512.got.cif
#   From: 2010.05.17/outbox.cif.g08.bks.cpg/sg15_160_cif.got.tgz:319512.got - 2010.06.03 18:47:42.
