data_PCOD9270683
_publ_section_title
;
Structure prediction by ZEFSAII (Michael W. Deem and Ramdas Pophale) SiO2 
 PCOD9270683
Probable space group: C 2/C
;
_chemical_formula_sum "Si O2"
_cell_formula_units_Z 48
_cell_length_a 16.650107
_cell_length_b 10.176939
_cell_length_c 15.232801
_cell_angle_alpha 90.000000
_cell_angle_beta 137.426386
_cell_angle_gamma 90.000000
_cell_volume 1746.246157
_symmetry_space_group_name_H-M "C 2/C"
_symmetry_group_IT_number 15
_symmetry_cell_setting 'monoclinic'
loop_
_space_group_symop_operation_xyz
x,y,z
-x,y,1/2-z
-x,-y,-z
x,-y,1/2+z
1/2+x,1/2+y,z
1/2-x,1/2+y,1/2-z
1/2-x,1/2-y,-z
1/2+x,1/2-y,1/2+z
loop_
_atom_site_type_symbol
_atom_site_label
_atom_site_fract_x
_atom_site_fract_y
_atom_site_fract_z
Si Si1 0.713433 0.548591 0.359526
Si Si2 0.598063 0.234690 0.066065
Si Si3 0.724796 0.248511 0.359387
Si Si4 0.000000 0.379627 0.750000
Si Si5 0.566855 0.095490 0.670088
Si Si6 0.000000 0.176959 0.250000
Si Si7 0.163794 0.010629 0.120627
O O1 0.814234 0.659515 0.431477
O O2 0.754615 0.398847 0.401990
O O3 0.616191 0.586840 0.353500
O O4 0.654648 0.547409 0.215317
O O5 0.660375 0.236251 0.211207
O O6 0.579795 0.388098 0.031728
O O7 0.482691 0.143164 0.963433
O O8 0.619436 0.204759 0.339607
O O9 0.827931 0.139110 0.433588
O O10 0.996813 0.477102 0.830716
O O11 0.540859 0.223771 0.707145
O O12 0.704038 0.055957 0.779878
#
# Coordination Sequence:
#
# PCOD9270683 Si02
#       7
#     8   8   8   4   8   4   8
#     4  10  20  35  62  86 121 157 199 250 309 348
#     4  10  20  38  66  86 111 165 213 248 286 374
#     4   9  19  36  59  83 122 156 193 246 310 354
#     4   9  19  36  56  84 122 156 188 252 312 350
#     4  10  21  38  64  89 118 159 215 246 297 366
#     4  11  21  38  60  94 124 156 194 270 304 346
#     4   9  19  39  62  86 117 164 203 249 294 364
#
# _framework density 27.487532000000002
#
# number of rings (size 3 to 8) (size 9 to 14) (size 15 to 20)
#    0.000    2.333    1.667    0.500    0.000    6.667 
#    0.000    4.167    7.333    0.000    0.000    0.000 
#    0.000    0.000    0.000    0.000    0.000    0.000 
#
# Total GULP energy -134452.798751 kJ/mol
# GULP energy per Si atom -5602.199948 kJ/mol
# Density = 2.742497 g / cm^3
# Si number density = 27.487532 Si / 1000 Ang^3
#
#
#
# Elastic Constant Matrix: (Units=GPa)
#
#
# Indices 1 2 3 4 5 6 
#
# 1 98.1511 38.6813 10.8613 0.0000 -7.9532 0.0000
# 2 38.6813 206.4823 14.0998 0.0000 1.3077 0.0000
# 3 10.8613 14.0998 67.2883 0.0000 -1.9748 0.0000
# 4 0.0000 0.0000 0.0000 17.0944 0.0000 -1.8371
# 5 -7.9532 1.3077 -1.9748 0.0000 30.0675 0.0000
# 6 0.0000 0.0000 0.0000 -1.8371 0.0000 66.5873
#
#
#
# Elastic Compliance Matrix: (Units=1/GPa)
#
#
# Indices 1 2 3 4 5 6 
#
# 1 0.011392 -0.002063 -0.001318 0.000000 0.003016 0.000000
# 2 -0.002063 0.005289 -0.000800 0.000000 -0.000828 0.000000
# 3 -0.001318 -0.000800 0.015262 0.000000 0.000689 0.000000
# 4 0.000000 0.000000 0.000000 0.058673 0.000000 0.001619
# 5 0.003016 -0.000828 0.000689 0.000000 0.034138 0.000000
# 6 0.000000 0.000000 0.000000 0.001619 0.000000 0.015063
#
#
# Mechanical properties :
#
#
# Convention : Reuss Voigt Hill
#
# Bulk Modulus (GPa) = 42.40602 55.46737 48.93669
# Shear Modulus (GPa) = 32.04353 43.30181 37.67267
#
# Velocity S-wave (km/s) = 3.41801 3.97334 3.70609
# Velocity P-wave (km/s) = 5.57117 6.42439 6.01293
#
# Compressibility (1/GPa) = 0.02358156
#
# Stress axis : x y z
#
# Youngs Moduli (GPa) = 87.78292 189.05791 65.52256
#
# Poissons Ratio (x) = 0.39006 0.08635
# Poissons Ratio (y) = 0.18111 0.05239
# Poissons Ratio (z) = 0.11569 0.15118
#
# Static dielectric constant tensor:
#      x y z
#    x 2.142920 0.000000 0.021480 
#    y 0.000000 2.132350 0.000000 
#    z 0.021480 0.000000 2.244230 
# 
# From -- ./inp_files/160487.got.cif
#   From: 2010.05.17/outbox.cif.g08.bks.cpg/sg15_81_cif.got.tgz:160487.got - 2010.06.03 18:47:42.
