data_PCOD9270530
_publ_section_title
;
Structure prediction by ZEFSAII (Michael W. Deem and Ramdas Pophale) SiO2 
 PCOD9270530
Probable space group: C 2/C
;
_chemical_formula_sum "Si O2"
_cell_formula_units_Z 56
_cell_length_a 10.641819
_cell_length_b 8.785745
_cell_length_c 22.604526
_cell_angle_alpha 90.000000
_cell_angle_beta 112.722757
_cell_angle_gamma 90.000000
_cell_volume 1949.404554
_symmetry_space_group_name_H-M "C 2/C"
_symmetry_group_IT_number 15
_symmetry_cell_setting 'monoclinic'
loop_
_space_group_symop_operation_xyz
x,y,z
-x,y,1/2-z
-x,-y,-z
x,-y,1/2+z
1/2+x,1/2+y,z
1/2-x,1/2+y,1/2-z
1/2-x,1/2-y,-z
1/2+x,1/2-y,1/2+z
loop_
_atom_site_type_symbol
_atom_site_label
_atom_site_fract_x
_atom_site_fract_y
_atom_site_fract_z
Si Si1 0.829313 0.508086 0.513590
Si Si2 0.500000 0.161520 0.250000
Si Si3 0.043518 0.468706 0.150137
Si Si4 0.000000 0.841953 0.750000
Si Si5 0.590267 0.694944 0.024916
Si Si6 0.299369 0.398600 0.621016
Si Si7 0.795845 0.102706 0.760791
Si Si8 0.959089 0.961680 0.394560
O O1 0.719604 0.408006 0.529762
O O2 0.889978 0.372105 0.483354
O O3 0.763452 0.627497 0.455764
O O4 0.934403 0.570859 0.580469
O O5 0.468010 0.076806 0.183271
O O6 0.629903 0.260392 0.257721
O O7 0.170360 0.549363 0.137212
O O8 0.138841 0.380731 0.215533
O O9 0.094921 0.790396 0.823698
O O10 0.117983 0.953730 0.743597
O O11 0.558326 0.632826 0.084201
O O12 0.482171 0.639542 0.956448
O O13 0.405441 0.537844 0.622119
O O14 0.832047 0.101191 0.836068
#
# Coordination Sequence:
#
# PCOD9270530 Si02
#       8
#     8   4   8   4   8   8   8   8
#     4  10  20  35  59  96 135 170 213 271 341 393
#     4  11  24  42  70  95 130 191 228 274 344 399
#     4  11  23  38  64  99 130 172 223 272 336 408
#     4   7  14  32  58  81 108 161 204 240 310 375
#     4   9  19  33  60  93 127 168 226 260 328 415
#     4   9  18  36  60  85 124 166 210 271 326 388
#     4   9  19  37  60  92 128 164 224 272 323 389
#     4   9  17  36  60  89 121 173 216 276 326 388
#
# _framework density 28.72672
#
# number of rings (size 3 to 8) (size 9 to 14) (size 15 to 20)
#    0.000    2.571    0.000    2.143    2.000    5.714 
#    0.000    0.714    3.143    1.714    0.000    0.000 
#    0.000    0.000    0.000    0.000    0.000    0.000 
#
# Total GULP energy -156562.698054 kJ/mol
# GULP energy per Si atom -5591.524931 kJ/mol
# Density = 2.866134 g / cm^3
# Si number density = 28.726720 Si / 1000 Ang^3
#
#
#
# Elastic Constant Matrix: (Units=GPa)
#
#
# Indices 1 2 3 4 5 6 
#
# 1 87.5228 47.0364 97.8442 0.0000 14.1686 0.0000
# 2 47.0364 79.6170 51.5852 0.0000 9.2384 0.0000
# 3 97.8442 51.5852 310.3016 0.0000 47.0181 0.0000
# 4 0.0000 0.0000 0.0000 31.3959 0.0000 -6.3080
# 5 14.1686 9.2384 47.0181 0.0000 66.8396 0.0000
# 6 0.0000 0.0000 0.0000 -6.3080 0.0000 46.5453
#
#
#
# Elastic Compliance Matrix: (Units=1/GPa)
#
#
# Indices 1 2 3 4 5 6 
#
# 1 0.023086 -0.010009 -0.005690 0.000000 0.000492 0.000000
# 2 -0.010009 0.018423 0.000177 0.000000 -0.000549 0.000000
# 3 -0.005690 0.000177 0.005382 0.000000 -0.002604 0.000000
# 4 0.000000 0.000000 0.000000 0.032743 0.000000 0.004437
# 5 0.000492 -0.000549 -0.002604 0.000000 0.016765 0.000000
# 6 0.000000 0.000000 0.000000 0.004437 0.000000 0.022086
#
#
# Mechanical properties :
#
#
# Convention : Reuss Voigt Hill
#
# Bulk Modulus (GPa) = 63.10980 96.70811 79.90896
# Shear Modulus (GPa) = 32.29722 47.68788 39.99255
#
# Velocity S-wave (km/s) = 3.35668 4.07879 3.73523
# Velocity P-wave (km/s) = 6.08603 7.47797 6.81762
#
# Compressibility (1/GPa) = 0.01584540
#
# Stress axis : x y z
#
# Youngs Moduli (GPa) = 43.31565 54.28084 185.79965
#
# Poissons Ratio (x) = 0.54332 1.05724
# Poissons Ratio (y) = 0.43356 -0.03283
# Poissons Ratio (z) = 0.24648 -0.00959
#
# Static dielectric constant tensor:
#      x y z
#    x 2.258780 0.000000 -0.045910 
#    y 0.000000 2.323350 0.000000 
#    z -0.045910 0.000000 2.330870 
# 
# From -- ./inp_files/269011.got.cif
#   From: 2010.05.17/outbox.cif.g08.bks.cpg/sg15_135_cif.got.tgz:269011.got - 2010.06.03 18:47:42.
