data_PCOD9270284
_publ_section_title
;
Structure prediction by ZEFSAII (Michael W. Deem and Ramdas Pophale) SiO2 
 PCOD9270284
Probable space group: C 2/C
;
_chemical_formula_sum "Si O2"
_cell_formula_units_Z 64
_cell_length_a 11.285691
_cell_length_b 24.998751
_cell_length_c 11.545499
_cell_angle_alpha 90.000000
_cell_angle_beta 100.120526
_cell_angle_gamma 90.000000
_cell_volume 3206.627810
_symmetry_space_group_name_H-M "C 2/C"
_symmetry_group_IT_number 15
_symmetry_cell_setting 'monoclinic'
loop_
_space_group_symop_operation_xyz
x,y,z
-x,y,1/2-z
-x,-y,-z
x,-y,1/2+z
1/2+x,1/2+y,z
1/2-x,1/2+y,1/2-z
1/2-x,1/2-y,-z
1/2+x,1/2-y,1/2+z
loop_
_atom_site_type_symbol
_atom_site_label
_atom_site_fract_x
_atom_site_fract_y
_atom_site_fract_z
Si Si1 0.579750 0.164272 0.433773
Si Si2 0.371934 0.573936 0.292903
Si Si3 0.305928 0.758283 0.207839
Si Si4 0.001309 0.241067 0.436887
Si Si5 0.328106 0.151316 0.312502
Si Si6 0.276168 0.642042 0.661172
Si Si7 0.513024 0.629414 0.975528
Si Si8 0.121612 0.952016 0.193213
O O1 0.550052 0.225304 0.465105
O O2 0.448877 0.136948 0.402608
O O3 0.636232 0.159149 0.316747
O O4 0.669958 0.144660 0.548605
O O5 0.500000 0.574746 0.250000
O O6 0.273570 0.606064 0.202470
O O7 0.395567 0.605113 0.415656
O O8 0.338236 0.512783 0.315933
O O9 0.392011 0.735700 0.325953
O O10 0.394333 0.770880 0.116428
O O11 0.220551 0.709441 0.158856
O O12 0.242537 0.810152 0.250480
O O13 0.044356 0.182686 0.481875
O O14 0.404172 0.647249 0.618177
O O15 0.282834 0.584900 0.724688
O O16 0.421239 0.582752 0.924176
O O17 0.000000 0.955286 0.250000
#
# Coordination Sequence:
#
# PCOD9270284 Si02
#       8
#     8   8   8   8   8   8   8   8
#     4  10  22  37  58  84 121 160 201 232 286 361
#     4  11  21  39  60  91 124 146 197 258 306 342
#     4  10  20  35  57  86 122 155 191 245 298 355
#     4  10  20  35  57  87 122 154 188 241 305 350
#     4  11  21  36  60  89 117 159 201 241 289 356
#     4  10  20  40  59  83 122 160 197 240 298 356
#     4  11  19  35  63  89 117 156 194 242 306 360
#     4   9  22  37  60  89 116 154 199 251 302 352
#
# _framework density 19.958662
#
# number of rings (size 3 to 8) (size 9 to 14) (size 15 to 20)
#    0.000    1.750    2.500    1.875    1.750    2.500 
#    2.250    0.625    0.000    6.000    0.000    0.000 
#    0.000    0.000    0.000    0.000    0.000    0.000 
#
# Total GULP energy -178700.521496 kJ/mol
# GULP energy per Si atom -5584.391297 kJ/mol
# Density = 1.991324 g / cm^3
# Si number density = 19.958662 Si / 1000 Ang^3
#
#
#
# Elastic Constant Matrix: (Units=GPa)
#
#
# Indices 1 2 3 4 5 6 
#
# 1 67.5383 33.4086 15.5209 0.0000 5.8275 0.0000
# 2 33.4086 118.0662 27.6389 0.0000 -1.8190 0.0000
# 3 15.5209 27.6389 45.1286 0.0000 11.6599 0.0000
# 4 0.0000 0.0000 0.0000 13.9880 0.0000 3.4224
# 5 5.8275 -1.8190 11.6599 0.0000 34.2214 0.0000
# 6 0.0000 0.0000 0.0000 3.4224 0.0000 20.8912
#
#
#
# Elastic Compliance Matrix: (Units=1/GPa)
#
#
# Indices 1 2 3 4 5 6 
#
# 1 0.017844 -0.004422 -0.002832 0.000000 -0.002309 0.000000
# 2 -0.004422 0.011241 -0.006264 0.000000 0.003485 0.000000
# 3 -0.002832 -0.006264 0.029531 0.000000 -0.009912 0.000000
# 4 0.000000 0.000000 0.000000 0.074475 0.000000 -0.012200
# 5 -0.002309 0.003485 -0.009912 0.000000 0.033177 0.000000
# 6 0.000000 0.000000 0.000000 -0.012200 0.000000 0.049866
#
#
# Mechanical properties :
#
#
# Convention : Reuss Voigt Hill
#
# Bulk Modulus (GPa) = 31.66681 42.65223 37.15952
# Shear Modulus (GPa) = 19.70860 24.09777 21.90318
#
# Velocity S-wave (km/s) = 3.14581 3.47851 3.31634
# Velocity P-wave (km/s) = 5.39402 6.12781 5.77259
#
# Compressibility (1/GPa) = 0.03157881
#
# Stress axis : x y z
#
# Youngs Moduli (GPa) = 56.04207 88.95903 33.86316
#
# Poissons Ratio (x) = 0.39335 0.09591
# Poissons Ratio (y) = 0.24780 0.21213
# Poissons Ratio (z) = 0.15873 0.55726
#
# Static dielectric constant tensor:
#      x y z
#    x 1.727700 0.000000 0.002520 
#    y 0.000000 1.680390 0.000000 
#    z 0.002520 0.000000 1.747640 
# 
# From -- ./inp_files/90867.got.cif
#   From: 2010.05.17/outbox.cif.g08.bks.cpg/sg15_46_cif.got.tgz:90867.got - 2010.06.03 18:47:42.
