data_PCOD9270325
_publ_section_title
;
Structure prediction by ZEFSAII (Michael W. Deem and Ramdas Pophale) SiO2 
 PCOD9270325
Probable space group: C 2/C
;
_chemical_formula_sum "Si O2"
_cell_formula_units_Z 64
_cell_length_a 14.745351
_cell_length_b 27.812731
_cell_length_c 14.716169
_cell_angle_alpha 90.000000
_cell_angle_beta 143.779985
_cell_angle_gamma 90.000000
_cell_volume 3566.139585
_symmetry_space_group_name_H-M "C 2/C"
_symmetry_group_IT_number 15
_symmetry_cell_setting 'monoclinic'
loop_
_space_group_symop_operation_xyz
x,y,z
-x,y,1/2-z
-x,-y,-z
x,-y,1/2+z
1/2+x,1/2+y,z
1/2-x,1/2+y,1/2-z
1/2-x,1/2-y,-z
1/2+x,1/2-y,1/2+z
loop_
_atom_site_type_symbol
_atom_site_label
_atom_site_fract_x
_atom_site_fract_y
_atom_site_fract_z
Si Si1 0.447590 0.893729 0.901458
Si Si2 0.431153 0.397485 0.387017
Si Si3 0.027729 0.701989 0.378491
Si Si4 0.766034 0.940347 0.905296
Si Si5 0.269902 0.948578 0.130612
Si Si6 0.741528 0.946736 0.098925
Si Si7 0.376156 0.946674 0.017865
Si Si8 0.619979 0.695773 0.768157
O O1 0.447720 0.838268 0.875436
O O2 0.390334 0.925535 0.770358
O O3 0.623174 0.910732 0.051400
O O4 0.362652 0.909686 0.924228
O O5 0.611841 0.405274 0.543295
O O6 0.336241 0.413229 0.397990
O O7 0.395046 0.436698 0.278305
O O8 0.387659 0.345407 0.313776
O O9 0.209197 0.702660 0.551419
O O10 0.000000 0.688506 0.250000
O O11 0.948084 0.753876 0.323081
O O12 0.792324 0.996944 0.910688
O O13 0.756192 0.933512 0.005356
O O14 0.284381 0.935582 0.036017
O O15 0.444281 0.949505 0.309430
O O16 0.680936 0.000771 0.059410
O O17 0.500000 0.680439 0.750000
#
# Coordination Sequence:
#
# PCOD9270325 Si02
#       8
#     8   8   8   8   8   8   8   8
#     4  12  21  35  57  82 108 147 191 222 272 325
#     4  12  23  36  55  80 115 149 184 224 280 330
#     4  11  23  37  58  83 113 141 182 228 278 340
#     4  11  23  32  53  85 115 150 177 228 273 333
#     4  10  20  37  54  81 111 147 191 228 271 315
#     4  11  19  35  54  81 113 144 184 220 269 328
#     4  10  20  35  58  79 109 147 192 234 259 317
#     4  11  23  38  57  82 113 144 179 228 282 334
#
# _framework density 17.946577000000001
#
# number of rings (size 3 to 8) (size 9 to 14) (size 15 to 20)
#    0.000    1.000    3.750    5.250    3.500    0.000 
#    0.000    1.875    0.000    0.750    0.000    0.000 
#    0.000    0.000    0.000    0.000    0.000    0.000 
#
# Total GULP energy -178699.942619 kJ/mol
# GULP energy per Si atom -5584.373207 kJ/mol
# Density = 1.790573 g / cm^3
# Si number density = 17.946577 Si / 1000 Ang^3
#
#
#
# Elastic Constant Matrix: (Units=GPa)
#
#
# Indices 1 2 3 4 5 6 
#
# 1 81.4113 62.4054 22.2689 0.0000 -12.5252 0.0000
# 2 62.4054 100.4571 23.4371 0.0000 -10.5971 0.0000
# 3 22.2689 23.4371 46.9946 0.0000 0.4453 0.0000
# 4 0.0000 0.0000 0.0000 18.4770 0.0000 -5.7564
# 5 -12.5252 -10.5971 0.4453 0.0000 23.7215 0.0000
# 6 0.0000 0.0000 0.0000 -5.7564 0.0000 28.7334
#
#
#
# Elastic Compliance Matrix: (Units=1/GPa)
#
#
# Indices 1 2 3 4 5 6 
#
# 1 0.025422 -0.013794 -0.005237 0.000000 0.007359 0.000000
# 2 -0.013794 0.019414 -0.003159 0.000000 0.001448 0.000000
# 3 -0.005237 -0.003159 0.025380 0.000000 -0.004653 0.000000
# 4 0.000000 0.000000 0.000000 0.057724 0.000000 0.011564
# 5 0.007359 0.001448 -0.004653 0.000000 0.046776 0.000000
# 6 0.000000 0.000000 0.000000 0.011564 0.000000 0.037119
#
#
# Mechanical properties :
#
#
# Convention : Reuss Voigt Hill
#
# Bulk Modulus (GPa) = 38.70659 49.45397 44.08028
# Shear Modulus (GPa) = 18.88024 22.23649 20.55836
#
# Velocity S-wave (km/s) = 3.24701 3.52382 3.38824
# Velocity P-wave (km/s) = 5.97260 6.64623 6.31840
#
# Compressibility (1/GPa) = 0.02583540
#
# Stress axis : x y z
#
# Youngs Moduli (GPa) = 39.33602 51.51025 39.40104
#
# Poissons Ratio (x) = 0.71056 0.20633
# Poissons Ratio (y) = 0.54262 0.12447
# Poissons Ratio (z) = 0.20599 0.16272
#
# Static dielectric constant tensor:
#      x y z
#    x 1.612540 0.000000 -0.001800 
#    y 0.000000 1.600820 0.000000 
#    z -0.001800 0.000000 1.619970 
# 
# From -- ./inp_files/157094.got.cif
#   From: 2010.05.17/outbox.cif.g08.bks.cpg/sg15_79_cif.got.tgz:157094.got - 2010.06.03 18:47:42.
