data_PCOD9270346
_publ_section_title
;
Structure prediction by ZEFSAII (Michael W. Deem and Ramdas Pophale) SiO2 
 PCOD9270346
Probable space group: C 2/C
;
_chemical_formula_sum "Si O2"
_cell_formula_units_Z 64
_cell_length_a 8.976889
_cell_length_b 29.222967
_cell_length_c 14.459460
_cell_angle_alpha 90.000000
_cell_angle_beta 57.054672
_cell_angle_gamma 90.000000
_cell_volume 3183.189379
_symmetry_space_group_name_H-M "C 2/C"
_symmetry_group_IT_number 15
_symmetry_cell_setting 'monoclinic'
loop_
_space_group_symop_operation_xyz
x,y,z
-x,y,1/2-z
-x,-y,-z
x,-y,1/2+z
1/2+x,1/2+y,z
1/2-x,1/2+y,1/2-z
1/2-x,1/2-y,-z
1/2+x,1/2-y,1/2+z
loop_
_atom_site_type_symbol
_atom_site_label
_atom_site_fract_x
_atom_site_fract_y
_atom_site_fract_z
Si Si1 0.148424 0.663309 0.778569
Si Si2 0.994781 0.782468 0.360763
Si Si3 0.047148 0.390032 0.629620
Si Si4 0.116958 0.942924 0.962705
Si Si5 0.913486 0.305408 0.002117
Si Si6 0.247397 0.534900 0.289101
Si Si7 0.702409 0.539815 0.024153
Si Si8 0.080753 0.559784 0.825192
O O1 0.338325 0.683673 0.684243
O O2 0.077161 0.691454 0.890879
O O3 0.161655 0.610150 0.804598
O O4 0.000000 0.665172 0.750000
O O5 0.000000 0.768551 0.250000
O O6 0.001890 0.738607 0.425016
O O7 0.799556 0.803507 0.444969
O O8 0.253906 0.402763 0.551529
O O9 0.005090 0.350528 0.571843
O O10 0.000000 0.374722 0.750000
O O11 0.936796 0.436565 0.651879
O O12 0.170218 0.954955 0.838691
O O13 0.909497 0.933076 0.016769
O O14 0.158571 0.987213 0.011125
O O15 0.338946 0.548256 0.354525
O O16 0.214296 0.480783 0.303139
O O17 0.907925 0.552177 0.946153
O O18 0.000000 0.552519 0.750000
#
# Coordination Sequence:
#
# PCOD9270346 Si02
#       8
#     8   8   8   8   8   8   8   8
#     4  10  23  37  58  91 119 151 191 236 290 355
#     4   9  20  41  62  88 118 144 188 245 296 350
#     4  10  20  35  58  83 110 146 200 235 280 345
#     4  10  22  36  49  81 112 145 199 240 274 329
#     4  10  20  38  64  86 113 152 190 240 298 346
#     4  11  20  37  55  77 114 159 193 237 280 332
#     4  11  21  34  54  75 110 160 190 234 285 326
#     4  11  20  36  54  79 120 156 192 237 284 338
#
# _framework density 20.105623000000001
#
# number of rings (size 3 to 8) (size 9 to 14) (size 15 to 20)
#    0.000    1.750    2.500    2.250    1.750    2.500 
#    0.000    1.250    0.000    6.000    0.000    0.000 
#    0.000    0.000    0.000    0.000    0.000    0.000 
#
# Total GULP energy -178564.851999 kJ/mol
# GULP energy per Si atom -5580.151625 kJ/mol
# Density = 2.005986 g / cm^3
# Si number density = 20.105623 Si / 1000 Ang^3
#
#
#
# Elastic Constant Matrix: (Units=GPa)
#
#
# Indices 1 2 3 4 5 6 
#
# 1 42.4395 20.9708 -2.3091 0.0000 6.8663 0.0000
# 2 20.9708 88.2258 19.8600 0.0000 -1.8489 0.0000
# 3 -2.3091 19.8600 62.2343 0.0000 7.5410 0.0000
# 4 0.0000 0.0000 0.0000 24.2020 0.0000 2.9337
# 5 6.8663 -1.8489 7.5410 0.0000 25.1402 0.0000
# 6 0.0000 0.0000 0.0000 2.9337 0.0000 16.4333
#
#
#
# Elastic Compliance Matrix: (Units=1/GPa)
#
#
# Indices 1 2 3 4 5 6 
#
# 1 0.029632 -0.008386 0.005013 0.000000 -0.010214 0.000000
# 2 -0.008386 0.014697 -0.005614 0.000000 0.005055 0.000000
# 3 0.005013 -0.005614 0.018951 0.000000 -0.007466 0.000000
# 4 0.000000 0.000000 0.000000 0.042233 0.000000 -0.007540
# 5 -0.010214 0.005055 -0.007466 0.000000 0.045178 0.000000
# 6 0.000000 0.000000 0.000000 -0.007540 0.000000 0.062198
#
#
# Mechanical properties :
#
#
# Convention : Reuss Voigt Hill
#
# Bulk Modulus (GPa) = 22.07184 29.99366 26.03275
# Shear Modulus (GPa) = 20.32819 23.44698 21.88759
#
# Velocity S-wave (km/s) = 3.18318 3.41866 3.30302
# Velocity P-wave (km/s) = 4.95096 5.52570 5.24621
#
# Compressibility (1/GPa) = 0.04530661
#
# Stress axis : x y z
#
# Youngs Moduli (GPa) = 33.74740 68.03896 52.76905
#
# Poissons Ratio (x) = 0.57056 -0.26454
# Poissons Ratio (y) = 0.28300 0.29624
# Poissons Ratio (z) = -0.16918 0.38196
#
# Static dielectric constant tensor:
#      x y z
#    x 1.775750 0.000000 -0.069640 
#    y 0.000000 1.680150 0.000000 
#    z -0.069640 0.000000 1.784960 
# 
# From -- ./inp_files/139509.got.cif
#   From: 2010.05.17/outbox.cif.g08.bks.cpg/sg15_70_cif.got.tgz:139509.got - 2010.06.03 18:47:42.
