data_PCOD9270872
_publ_section_title
;
Structure prediction by ZEFSAII (Michael W. Deem and Ramdas Pophale) SiO2 
 PCOD9270872
Probable space group: C 2/C
;
_chemical_formula_sum "Si O2"
_cell_formula_units_Z 44
_cell_length_a 7.009849
_cell_length_b 8.030998
_cell_length_c 27.907122
_cell_angle_alpha 90.000000
_cell_angle_beta 77.253608
_cell_angle_gamma 90.000000
_cell_volume 1532.344761
_symmetry_space_group_name_H-M "C 2/C"
_symmetry_group_IT_number 15
_symmetry_cell_setting 'monoclinic'
loop_
_space_group_symop_operation_xyz
x,y,z
-x,y,1/2-z
-x,-y,-z
x,-y,1/2+z
1/2+x,1/2+y,z
1/2-x,1/2+y,1/2-z
1/2-x,1/2-y,-z
1/2+x,1/2-y,1/2+z
loop_
_atom_site_type_symbol
_atom_site_label
_atom_site_fract_x
_atom_site_fract_y
_atom_site_fract_z
Si Si1 0.013077 0.755541 0.154533
Si Si2 0.392472 0.255634 0.878640
Si Si3 0.770415 0.580344 0.968428
Si Si4 0.348861 0.410418 0.440488
Si Si5 0.916474 0.930160 0.707942
Si Si6 0.000000 0.527421 0.250000
O O1 0.792816 0.779829 0.145109
O O2 0.006715 0.619615 0.196709
O O3 0.055055 0.925227 0.181037
O O4 0.143195 0.759751 0.098276
O O5 0.423312 0.114345 0.917162
O O6 0.332896 0.421093 0.910704
O O7 0.577978 0.297872 0.835309
O O8 0.564005 0.571081 0.952207
O O9 0.750000 0.750000 0.000000
O O10 0.793410 0.431021 0.005549
O O11 0.723966 0.025685 0.735674
O O12 0.000000 0.841931 0.750000
#
# Coordination Sequence:
#
# PCOD9270872 Si02
#       6
#     8   8   8   8   8   4
#     4  10  20  36  54  79 111 148 189 239 289 343
#     4   9  17  32  53  77 114 149 188 238 289 342
#     4   8  13  25  49  85 114 150 192 228 290 352
#     4   8  15  27  51  82 115 147 191 235 284 352
#     4  11  22  37  54  79 110 145 193 239 283 346
#     4  12  24  36  58  80 108 154 194 236 298 342
#
# _framework density 28.714167
#
# number of rings (size 3 to 8) (size 9 to 14) (size 15 to 20)
#    0.000    2.545    2.727    0.000    0.000    1.455 
#    0.000    0.000    0.000    1.091    0.000  114.545 
#    0.000    0.000    0.000    0.000    0.000    0.000 
#
# Total GULP energy -122874.512229 kJ/mol
# GULP energy per Si atom -5585.205101 kJ/mol
# Density = 2.864881 g / cm^3
# Si number density = 28.714167 Si / 1000 Ang^3
#
#
#
# Elastic Constant Matrix: (Units=GPa)
#
#
# Indices 1 2 3 4 5 6 
#
# 1 80.3786 11.6912 42.9385 0.0000 -14.2694 0.0000
# 2 11.6912 61.7386 25.7872 0.0000 4.9535 0.0000
# 3 42.9385 25.7872 181.4477 0.0000 16.3595 0.0000
# 4 0.0000 0.0000 0.0000 43.4390 0.0000 9.2746
# 5 -14.2694 4.9535 16.3595 0.0000 43.6472 0.0000
# 6 0.0000 0.0000 0.0000 9.2746 0.0000 33.8857
#
#
#
# Elastic Compliance Matrix: (Units=1/GPa)
#
#
# Indices 1 2 3 4 5 6 
#
# 1 0.016225 -0.001883 -0.004212 0.000000 0.007097 0.000000
# 2 -0.001883 0.017487 -0.001868 0.000000 -0.001900 0.000000
# 3 -0.004212 -0.001868 0.007119 0.000000 -0.003833 0.000000
# 4 0.000000 0.000000 0.000000 0.024450 0.000000 -0.006692
# 5 0.007097 -0.001900 -0.003833 0.000000 0.026883 0.000000
# 6 0.000000 0.000000 0.000000 -0.006692 0.000000 0.031343
#
#
# Mechanical properties :
#
#
# Convention : Reuss Voigt Hill
#
# Bulk Modulus (GPa) = 40.15276 53.82207 46.98742
# Shear Modulus (GPa) = 33.84480 40.40424 37.12452
#
# Velocity S-wave (km/s) = 3.43691 3.75523 3.59959
# Velocity P-wave (km/s) = 5.45562 6.13083 5.80306
#
# Compressibility (1/GPa) = 0.02490489
#
# Stress axis : x y z
#
# Youngs Moduli (GPa) = 61.63434 57.18645 140.46798
#
# Poissons Ratio (x) = 0.10766 0.59162
# Poissons Ratio (y) = 0.11603 0.26245
# Poissons Ratio (z) = 0.25959 0.10685
#
# Static dielectric constant tensor:
#      x y z
#    x 2.346710 0.000000 -0.031710 
#    y 0.000000 2.270250 0.000000 
#    z -0.031710 0.000000 2.265150 
# 
# From -- ./inp_files/304939.got.cif
#   From: 2010.05.17/outbox.cif.g08.bks.cpg/sg15_153_cif.got.tgz:304939.got - 2010.06.03 18:47:42.
