data_PCOD9270377
_publ_section_title
;
Structure prediction by ZEFSAII (Michael W. Deem and Ramdas Pophale) SiO2 
 PCOD9270377
Probable space group: C 2/C
;
_chemical_formula_sum "Si O2"
_cell_formula_units_Z 56
_cell_length_a 11.463940
_cell_length_b 22.219843
_cell_length_c 10.868917
_cell_angle_alpha 90.000000
_cell_angle_beta 109.706716
_cell_angle_gamma 90.000000
_cell_volume 2606.451627
_symmetry_space_group_name_H-M "C 2/C"
_symmetry_group_IT_number 15
_symmetry_cell_setting 'monoclinic'
loop_
_space_group_symop_operation_xyz
x,y,z
-x,y,1/2-z
-x,-y,-z
x,-y,1/2+z
1/2+x,1/2+y,z
1/2-x,1/2+y,1/2-z
1/2-x,1/2-y,-z
1/2+x,1/2-y,1/2+z
loop_
_atom_site_type_symbol
_atom_site_label
_atom_site_fract_x
_atom_site_fract_y
_atom_site_fract_z
Si Si1 0.624987 0.545086 0.222094
Si Si2 0.498315 0.363360 0.499544
Si Si3 0.282876 0.289622 0.884186
Si Si4 0.345638 0.845438 0.464534
Si Si5 0.734140 0.581481 0.720762
Si Si6 0.419178 0.154379 0.615492
Si Si7 0.804595 0.163897 0.122940
O O1 0.500000 0.525141 0.250000
O O2 0.574685 0.581163 0.085300
O O3 0.707098 0.488976 0.212825
O O4 0.695886 0.592918 0.335465
O O5 0.599667 0.315283 0.496424
O O6 0.391027 0.385767 0.371575
O O7 0.429033 0.332227 0.589695
O O8 0.289972 0.218292 0.897400
O O9 0.298784 0.302311 0.747554
O O10 0.170496 0.330746 0.897089
O O11 0.265457 0.896765 0.369706
O O12 0.481984 0.857494 0.458170
O O13 0.847120 0.602410 0.670301
O O14 0.500000 0.186741 0.750000
O O15 0.305682 0.183867 0.504934
#
# Coordination Sequence:
#
# PCOD9270377 Si02
#       7
#     8   8   8   8   8   8   8
#     4   9  18  33  58  91 116 142 185 245 299 351
#     4   9  19  35  60  88 114 141 190 243 302 346
#     4  10  21  38  58  83 118 150 195 243 288 342
#     4  10  23  38  54  82 118 159 195 237 280 340
#     4  10  20  35  58  86 116 151 187 237 295 345
#     4   9  20  40  57  76 114 150 193 233 277 343
#     4   9  19  38  61  85 110 150 192 235 300 347
#
# _framework density 21.485147999999999
#
# number of rings (size 3 to 8) (size 9 to 14) (size 15 to 20)
#    0.000    2.571    0.000    1.714    2.000    5.143 
#    5.143   10.714    6.286    0.000    0.000    0.000 
#    0.000    0.000    0.000    0.000    0.000    0.000 
#
# Total GULP energy -155969.819705 kJ/mol
# GULP energy per Si atom -5570.350704 kJ/mol
# Density = 2.143625 g / cm^3
# Si number density = 21.485148 Si / 1000 Ang^3
#
#
#
# Elastic Constant Matrix: (Units=GPa)
#
#
# Indices 1 2 3 4 5 6 
#
# 1 84.2684 48.4695 30.8452 0.0000 0.7143 0.0000
# 2 48.4695 65.4452 16.2371 0.0000 1.2515 0.0000
# 3 30.8452 16.2371 47.4353 0.0000 11.3024 0.0000
# 4 0.0000 0.0000 0.0000 6.0800 0.0000 -14.3924
# 5 0.7143 1.2515 11.3024 0.0000 26.6561 0.0000
# 6 0.0000 0.0000 0.0000 -14.3924 0.0000 16.6620
#
#
#
# Elastic Compliance Matrix: (Units=1/GPa)
#
#
# Indices 1 2 3 4 5 6 
#
# 1 0.025528 -0.015928 -0.012418 0.000000 0.005329 0.000000
# 2 -0.015928 0.026716 0.001568 0.000000 -0.001492 0.000000
# 3 -0.012418 0.001568 0.031767 0.000000 -0.013210 0.000000
# 4 0.000000 0.000000 0.000000 -0.157434 0.000000 -0.135989
# 5 0.005329 -0.001492 -0.013210 0.000000 0.043044 0.000000
# 6 0.000000 0.000000 0.000000 -0.135989 0.000000 -0.057448
#
#
# Mechanical properties :
#
#
# Convention : Reuss Voigt Hill
#
# Bulk Modulus (GPa) = 32.83413 43.13916 37.98664
# Shear Modulus (GPa) = -207.28209 16.65277 -95.31466
#
# Velocity S-wave (km/s) = -9.83292 2.78705 -6.66778
# Velocity P-wave (km/s) = 10.65832 5.52078 6.44673
#
# Compressibility (1/GPa) = 0.03045612
#
# Stress axis : x y z
#
# Youngs Moduli (GPa) = 39.17244 37.43122 31.47925
#
# Poissons Ratio (x) = 0.59619 0.39090
# Poissons Ratio (y) = 0.62392 -0.04935
# Poissons Ratio (z) = 0.48643 -0.05869
#
# Static dielectric constant tensor:
#      x y z
#    x 1.858160 0.000000 -0.050760 
#    y 0.000000 1.795870 0.000000 
#    z -0.050760 0.000000 1.814610 
# 
# From -- ./inp_files/89641.got.cif
#   From: 2010.05.17/outbox.cif.g08.bks.cpg/sg15_45_cif.got.tgz:89641.got - 2010.06.03 18:47:42.
