data_PCOD9270616
_publ_section_title
;
Structure prediction by ZEFSAII (Michael W. Deem and Ramdas Pophale) SiO2 
 PCOD9270616
Probable space group: C 2/C
;
_chemical_formula_sum "Si O2"
_cell_formula_units_Z 48
_cell_length_a 22.213264
_cell_length_b 10.806501
_cell_length_c 27.618849
_cell_angle_alpha 90.000000
_cell_angle_beta 158.155501
_cell_angle_gamma 90.000000
_cell_volume 2466.889471
_symmetry_space_group_name_H-M "C 2/C"
_symmetry_group_IT_number 15
_symmetry_cell_setting 'monoclinic'
loop_
_space_group_symop_operation_xyz
x,y,z
-x,y,1/2-z
-x,-y,-z
x,-y,1/2+z
1/2+x,1/2+y,z
1/2-x,1/2+y,1/2-z
1/2-x,1/2-y,-z
1/2+x,1/2-y,1/2+z
loop_
_atom_site_type_symbol
_atom_site_label
_atom_site_fract_x
_atom_site_fract_y
_atom_site_fract_z
Si Si1 0.741855 0.997000 0.820450
Si Si2 0.361858 0.799852 0.180633
Si Si3 0.054199 0.937727 0.113612
Si Si4 0.855929 0.902912 0.109006
Si Si5 0.970667 0.291404 0.616485
Si Si6 0.078042 0.876820 0.906359
O O1 0.600695 0.898024 0.718884
O O2 0.695898 0.112136 0.819580
O O3 0.787400 0.039322 0.800307
O O4 0.902622 0.938780 0.963877
O O5 0.500000 0.859579 0.250000
O O6 0.456797 0.688562 0.278204
O O7 0.204857 0.785120 0.028236
O O8 0.040654 0.808697 0.131473
O O9 0.023498 0.048524 0.128845
O O10 0.928322 0.787000 0.133031
O O11 0.000000 0.947860 0.250000
O O12 0.821143 0.014932 0.045930
O O13 0.701052 0.856497 0.023026
#
# Coordination Sequence:
#
# PCOD9270616 Si02
#       6
#     8   8   8   8   8   8
#     4  10  21  37  59  82 120 157 202 247 299 366
#     4  11  22  37  59  88 119 160 196 246 305 362
#     4   9  21  39  57  84 116 159 200 252 297 350
#     4  10  20  36  60  89 121 154 200 257 301 357
#     4  10  20  35  61  86 113 158 203 247 303 360
#     4  10  22  38  59  86 123 157 201 247 302 360
#
# _framework density 19.457702999999999
#
# number of rings (size 3 to 8) (size 9 to 14) (size 15 to 20)
#    0.000    2.000    0.000    3.000    2.333    4.667 
#    0.000    0.000    0.000    4.000    0.000    0.000 
#    0.000    0.000    0.000    0.000    0.000    0.000 
#
# Total GULP energy -133840.701991 kJ/mol
# GULP energy per Si atom -5576.695916 kJ/mol
# Density = 1.941342 g / cm^3
# Si number density = 19.457703 Si / 1000 Ang^3
#
#
#
# Elastic Constant Matrix: (Units=GPa)
#
#
# Indices 1 2 3 4 5 6 
#
# 1 71.5481 23.8105 26.0670 0.0014 6.8003 0.0002
# 2 23.8105 67.2402 45.6370 0.0029 3.6197 -0.0005
# 3 26.0670 45.6370 90.5098 0.0072 -5.2808 -0.0017
# 4 0.0014 0.0029 0.0072 21.3286 0.0013 2.2481
# 5 6.8003 3.6197 -5.2808 0.0013 22.4650 -0.0003
# 6 0.0002 -0.0005 -0.0017 2.2481 -0.0003 4.0579
#
#
#
# Elastic Compliance Matrix: (Units=1/GPa)
#
#
# Indices 1 2 3 4 5 6 
#
# 1 0.016866 -0.003301 -0.003508 0.000001 -0.005398 -0.000004
# 2 -0.003301 0.024204 -0.011582 0.000001 -0.005623 -0.000003
# 3 -0.003508 -0.011582 0.018321 -0.000006 0.007235 0.000010
# 4 0.000001 0.000001 -0.000006 0.049793 -0.000005 -0.027585
# 5 -0.005398 -0.005623 0.007235 -0.000005 0.048755 0.000009
# 6 -0.000004 -0.000003 0.000010 -0.027585 0.000009 0.261712
#
#
# Mechanical properties :
#
#
# Convention : Reuss Voigt Hill
#
# Bulk Modulus (GPa) = 44.22855 46.70300 45.46577
# Shear Modulus (GPa) = 10.77657 18.48921 14.63289
#
# Velocity S-wave (km/s) = 2.35595 3.08592 2.74530
# Velocity P-wave (km/s) = 5.49369 6.06231 5.78499
#
# Compressibility (1/GPa) = 0.02260983
#
# Stress axis : x y z
#
# Youngs Moduli (GPa) = 59.28976 41.31473 54.58289
#
# Poissons Ratio (x) = 0.13638 0.19148
# Poissons Ratio (y) = 0.19571 0.63217
# Poissons Ratio (z) = 0.20799 0.47850
#
# Static dielectric constant tensor:
#      x y z
#    x 1.699230 0.000000 -0.020010 
#    y 0.000000 1.682470 0.000000 
#    z -0.020010 0.000000 1.690500 
# 
# From -- ./inp_files/116731.got.cif
#   From: 2010.05.17/outbox.cif.g08.bks.cpg/sg15_59_cif.got.tgz:116731.got - 2010.06.03 18:47:42.
