data_PCOD9270220
_publ_section_title
;
Structure prediction by ZEFSAII (Michael W. Deem and Ramdas Pophale) SiO2 
 PCOD9270220
Probable space group: C 2/C
;
_chemical_formula_sum "Si O2"
_cell_formula_units_Z 52
_cell_length_a 16.004844
_cell_length_b 13.388704
_cell_length_c 14.080194
_cell_angle_alpha 90.000000
_cell_angle_beta 141.768985
_cell_angle_gamma 90.000000
_cell_volume 1867.121502
_symmetry_space_group_name_H-M "C 2/C"
_symmetry_group_IT_number 15
_symmetry_cell_setting 'monoclinic'
loop_
_space_group_symop_operation_xyz
x,y,z
-x,y,1/2-z
-x,-y,-z
x,-y,1/2+z
1/2+x,1/2+y,z
1/2-x,1/2+y,1/2-z
1/2-x,1/2-y,-z
1/2+x,1/2-y,1/2+z
loop_
_atom_site_type_symbol
_atom_site_label
_atom_site_fract_x
_atom_site_fract_y
_atom_site_fract_z
Si Si1 0.129911 0.560545 0.187057
Si Si2 0.737499 0.959302 0.571617
Si Si3 0.151761 0.666668 0.535881
Si Si4 0.000000 0.652294 0.750000
Si Si5 0.513064 0.603057 0.387666
Si Si6 0.295861 0.166303 0.705681
Si Si7 0.108217 0.877014 0.505683
O O1 0.184530 0.568026 0.129528
O O2 0.149561 0.446400 0.233810
O O3 0.230366 0.617011 0.344850
O O4 0.982195 0.602210 0.063189
O O5 0.743910 0.080461 0.570942
O O6 0.622255 0.912700 0.402364
O O7 0.884088 0.908363 0.701236
O O8 0.219139 0.696002 0.697861
O O9 0.092557 0.769795 0.441499
O O10 0.077995 0.714569 0.738061
O O11 0.655410 0.665128 0.523473
O O12 0.560082 0.485227 0.428402
O O13 0.453879 0.624376 0.442225
#
# Coordination Sequence:
#
# PCOD9270220 Si02
#       7
#     8   8   8   4   8   8   8
#     4   9  17  34  51  83 106 140 178 234 263 338
#     4  10  20  35  57  78 113 142 191 220 282 324
#     4  11  18  31  57  91 107 139 181 245 265 331
#     4  12  20  36  56  84 104 162 184 232 268 344
#     4   9  20  39  52  84 114 152 174 232 280 350
#     4  10  20  35  57  78 113 142 191 220 282 324
#     4   9  19  30  60  83 115 137 185 223 293 319
#
# _framework density 27.850356999999999
#
# number of rings (size 3 to 8) (size 9 to 14) (size 15 to 20)
#    0.000    2.154    3.077    3.692    4.308    0.615 
#    0.000    0.000    0.000   16.615    0.000    0.000 
#    0.000    0.000    0.000    0.000    0.000    0.000 
#
# Total GULP energy -145331.128667 kJ/mol
# GULP energy per Si atom -5589.658795 kJ/mol
# Density = 2.778697 g / cm^3
# Si number density = 27.850357 Si / 1000 Ang^3
#
#
#
# Elastic Constant Matrix: (Units=GPa)
#
#
# Indices 1 2 3 4 5 6 
#
# 1 70.3918 -4.4279 46.1364 0.0000 4.1970 0.0000
# 2 -4.4279 153.5026 18.8299 0.0000 8.9768 0.0000
# 3 46.1364 18.8299 202.7623 0.0000 22.7730 0.0000
# 4 0.0000 0.0000 0.0000 18.1672 0.0000 8.4333
# 5 4.1970 8.9768 22.7730 0.0000 56.6806 0.0000
# 6 0.0000 0.0000 0.0000 8.4333 0.0000 24.9143
#
#
#
# Elastic Compliance Matrix: (Units=1/GPa)
#
#
# Indices 1 2 3 4 5 6 
#
# 1 0.016839 0.000958 -0.003941 0.000000 0.000185 0.000000
# 2 0.000958 0.006682 -0.000745 0.000000 -0.000830 0.000000
# 3 -0.003941 -0.000745 0.006128 0.000000 -0.002052 0.000000
# 4 0.000000 0.000000 0.000000 0.065306 0.000000 -0.022105
# 5 0.000185 -0.000830 -0.002052 0.000000 0.018585 0.000000
# 6 0.000000 0.000000 0.000000 -0.022105 0.000000 0.047620
#
#
# Mechanical properties :
#
#
# Convention : Reuss Voigt Hill
#
# Bulk Modulus (GPa) = 45.05996 60.85929 52.95963
# Shear Modulus (GPa) = 28.40685 44.36032 36.38358
#
# Velocity S-wave (km/s) = 3.19718 3.99533 3.61833
# Velocity P-wave (km/s) = 5.46294 6.57140 6.04264
#
# Compressibility (1/GPa) = 0.02219265
#
# Stress axis : x y z
#
# Youngs Moduli (GPa) = 59.38725 149.65230 163.17479
#
# Poissons Ratio (x) = -0.14342 0.64311
# Poissons Ratio (y) = -0.05692 0.12163
# Poissons Ratio (z) = 0.23406 0.11155
#
# Static dielectric constant tensor:
#      x y z
#    x 2.318130 0.000000 -0.071320 
#    y 0.000000 2.239060 0.000000 
#    z -0.071320 0.000000 2.159140 
# 
# From -- ./inp_files/215600.got.cif
#   From: 2010.05.17/outbox.cif.g08.bks.cpg/sg15_108_cif.got.tgz:215600.got - 2010.06.03 18:47:42.
