data_PCOD9270116
_publ_section_title
;
Structure prediction by ZEFSAII (Michael W. Deem and Ramdas Pophale) SiO2 
 PCOD9270116
Probable space group: C 2/C
;
_chemical_formula_sum "Si O2"
_cell_formula_units_Z 60
_cell_length_a 8.520711
_cell_length_b 22.315702
_cell_length_c 23.831472
_cell_angle_alpha 90.000000
_cell_angle_beta 38.210184
_cell_angle_gamma 90.000000
_cell_volume 2802.920056
_symmetry_space_group_name_H-M "C 2/C"
_symmetry_group_IT_number 15
_symmetry_cell_setting 'monoclinic'
loop_
_space_group_symop_operation_xyz
x,y,z
-x,y,1/2-z
-x,-y,-z
x,-y,1/2+z
1/2+x,1/2+y,z
1/2-x,1/2+y,1/2-z
1/2-x,1/2-y,-z
1/2+x,1/2-y,1/2+z
loop_
_atom_site_type_symbol
_atom_site_label
_atom_site_fract_x
_atom_site_fract_y
_atom_site_fract_z
Si Si1 0.947946 0.198544 0.848296
Si Si2 0.082821 0.791416 0.901758
Si Si3 0.500000 0.886936 0.750000
Si Si4 0.070437 0.485523 0.645258
Si Si5 0.578669 0.467961 0.050512
Si Si6 0.015684 0.754728 0.805441
Si Si7 0.925046 0.167557 0.568558
Si Si8 0.414702 0.439132 0.213155
O O1 0.717547 0.228113 0.879604
O O2 0.189246 0.240758 0.769348
O O3 0.910953 0.195988 0.926207
O O4 0.030627 0.131860 0.807117
O O5 0.274571 0.843296 0.829825
O O6 0.919019 0.782728 0.891082
O O7 0.979025 0.813981 0.990068
O O8 0.444991 0.928830 0.711386
O O9 0.159789 0.480199 0.555570
O O10 0.346822 0.489746 0.597069
O O11 0.879418 0.540664 0.710255
O O12 0.474377 0.402578 0.061467
O O13 0.579989 0.467977 0.117025
O O14 0.000000 0.788568 0.750000
O O15 0.854589 0.693899 0.841964
O O16 0.500000 0.460294 0.250000
#
# Coordination Sequence:
#
# PCOD9270116 Si02
#       8
#     8   8   4   8   8   8   8   8
#     4  10  21  38  59  87 121 159 201 244 304 362
#     4  12  21  38  60  86 121 165 200 243 304 374
#     4  12  22  38  68  84 118 162 206 244 308 366
#     4  11  22  41  63  89 117 159 217 254 300 361
#     4  10  21  38  64  90 119 157 209 259 296 361
#     4  10  20  35  55  85 123 155 195 244 296 358
#     4  10  21  35  60  91 118 154 199 253 301 353
#     4  11  22  38  63  90 123 161 201 258 311 358
#
# _framework density 21.406248000000001
#
# number of rings (size 3 to 8) (size 9 to 14) (size 15 to 20)
#    0.000    1.333    4.000    2.400    0.000    2.667 
#    0.000    0.667    0.000    1.600    0.000    0.000 
#    0.000    0.000    0.000    0.000    0.000    0.000 
#
# Total GULP energy -167235.972038 kJ/mol
# GULP energy per Si atom -5574.532401 kJ/mol
# Density = 2.135753 g / cm^3
# Si number density = 21.406248 Si / 1000 Ang^3
#
#
#
# Elastic Constant Matrix: (Units=GPa)
#
#
# Indices 1 2 3 4 5 6 
#
# 1 69.1541 5.3463 43.1335 -0.0016 42.9021 0.0022
# 2 5.3463 65.7511 32.9660 -0.0005 6.3013 0.0007
# 3 43.1335 32.9660 152.1825 -0.0002 47.3360 0.0005
# 4 -0.0016 -0.0005 -0.0002 28.3691 0.0008 5.1177
# 5 42.9021 6.3013 47.3360 0.0008 49.2481 -0.0009
# 6 0.0022 0.0007 0.0005 5.1177 -0.0009 13.6984
#
#
#
# Elastic Compliance Matrix: (Units=1/GPa)
#
#
# Indices 1 2 3 4 5 6 
#
# 1 0.031506 0.000337 -0.000645 0.000004 -0.026869 -0.000008
# 2 0.000337 0.017198 -0.004344 0.000000 0.001681 -0.000001
# 3 -0.000645 -0.004344 0.010481 0.000000 -0.008956 -0.000001
# 4 0.000004 0.000000 0.000000 0.037797 -0.000005 -0.014121
# 5 -0.026869 0.001681 -0.008956 -0.000005 0.052105 0.000010
# 6 -0.000008 -0.000001 -0.000001 -0.014121 0.000010 0.078277
#
#
# Mechanical properties :
#
#
# Convention : Reuss Voigt Hill
#
# Bulk Modulus (GPa) = 20.04806 49.99770 35.02288
# Shear Modulus (GPa) = 19.73976 31.97255 25.85616
#
# Velocity S-wave (km/s) = 3.03999 3.86892 3.47923
# Velocity P-wave (km/s) = 4.65917 6.58523 5.70409
#
# Compressibility (1/GPa) = 0.04988015
#
# Stress axis : x y z
#
# Youngs Moduli (GPa) = 31.73992 58.14524 95.41413
#
# Poissons Ratio (x) = -0.01958 0.06156
# Poissons Ratio (y) = -0.01069 0.41448
# Poissons Ratio (z) = 0.02048 0.25258
#
# Static dielectric constant tensor:
#      x y z
#    x 1.819350 0.000000 0.050770 
#    y 0.000000 1.768020 0.000000 
#    z 0.050770 0.000000 1.831310 
# 
# From -- ./inp_files/266513.got.cif
#   From: 2010.05.17/outbox.cif.g08.bks.cpg/sg15_134_cif.got.tgz:266513.got - 2010.06.03 18:47:42.
