data_PCOD9270866
_publ_section_title
;
Structure prediction by ZEFSAII (Michael W. Deem and Ramdas Pophale) SiO2 
 PCOD9270866
Probable space group: C 2/C
;
_chemical_formula_sum "Si O2"
_cell_formula_units_Z 48
_cell_length_a 18.820095
_cell_length_b 19.028770
_cell_length_c 16.553536
_cell_angle_alpha 90.000000
_cell_angle_beta 156.249400
_cell_angle_gamma 90.000000
_cell_volume 2387.622271
_symmetry_space_group_name_H-M "C 2/C"
_symmetry_group_IT_number 15
_symmetry_cell_setting 'monoclinic'
loop_
_space_group_symop_operation_xyz
x,y,z
-x,y,1/2-z
-x,-y,-z
x,-y,1/2+z
1/2+x,1/2+y,z
1/2-x,1/2+y,1/2-z
1/2-x,1/2-y,-z
1/2+x,1/2-y,1/2+z
loop_
_atom_site_type_symbol
_atom_site_label
_atom_site_fract_x
_atom_site_fract_y
_atom_site_fract_z
Si Si1 0.699382 0.688593 0.172101
Si Si2 0.607909 0.983378 0.195488
Si Si3 0.589505 0.154327 0.594054
Si Si4 0.838142 0.572233 0.998137
Si Si5 0.970242 0.946198 0.039890
Si Si6 0.797287 0.174454 0.515719
O O1 0.658463 0.765800 0.162156
O O2 0.881182 0.659688 0.396485
O O3 0.544821 0.630921 0.016705
O O4 0.726121 0.686303 0.103352
O O5 0.660842 0.902311 0.233463
O O6 0.783086 0.031108 0.383428
O O7 0.500000 0.000000 0.000000
O O8 0.472962 0.007540 0.124992
O O9 0.617222 0.123831 0.531761
O O10 0.637092 0.548718 0.771367
O O11 0.820259 0.616172 0.062028
O O12 0.000000 0.000000 0.000000
O O13 0.750000 0.250000 0.500000
O O14 0.000000 0.159556 0.750000
#
# Coordination Sequence:
#
# PCOD9270866 Si02
#       6
#     8   8   8   8   8   8
#     4  12  22  34  50  81 112 150 185 225 282 335
#     4  10  20  36  54  75  98 146 198 238 281 319
#     4  11  21  35  53  78 108 147 196 230 280 336
#     4  11  21  37  51  74 108 149 198 230 268 332
#     4  12  20  35  58  74 103 147 189 243 284 327
#     4  12  24  34  49  77 116 157 193 222 269 338
#
# _framework density 20.103684000000001
#
# number of rings (size 3 to 8) (size 9 to 14) (size 15 to 20)
#    0.000    0.667   10.000    2.000    0.000    0.000 
#    0.000    0.000    0.000    0.000    0.000    0.000 
#    0.000    1.333    6.667    4.333    0.000    0.000 
#
# Total GULP energy -133955.589445 kJ/mol
# GULP energy per Si atom -5581.482894 kJ/mol
# Density = 2.005793 g / cm^3
# Si number density = 20.103684 Si / 1000 Ang^3
#
#
#
# Elastic Constant Matrix: (Units=GPa)
#
#
# Indices 1 2 3 4 5 6 
#
# 1 60.2814 49.7432 8.4513 0.0000 15.4694 0.0000
# 2 49.7432 151.9450 16.9671 0.0000 13.9309 0.0000
# 3 8.4513 16.9671 106.7029 -0.0001 24.6833 0.0000
# 4 0.0000 0.0000 -0.0001 16.8652 0.0000 6.7314
# 5 15.4694 13.9309 24.6833 0.0000 21.1229 0.0000
# 6 0.0000 0.0000 0.0000 6.7314 0.0000 43.2248
#
#
#
# Elastic Compliance Matrix: (Units=1/GPa)
#
#
# Indices 1 2 3 4 5 6 
#
# 1 0.027202 -0.007551 0.003430 0.000000 -0.018949 0.000000
# 2 -0.007551 0.009101 -0.001014 0.000000 0.000712 0.000000
# 3 0.003430 -0.001014 0.013277 0.000000 -0.017358 0.000000
# 4 0.000000 0.000000 0.000000 0.063224 0.000000 -0.009846
# 5 -0.018949 0.000712 -0.017358 0.000000 0.081033 0.000000
# 6 0.000000 0.000000 0.000000 -0.009846 0.000000 0.024668
#
#
# Mechanical properties :
#
#
# Convention : Reuss Voigt Hill
#
# Bulk Modulus (GPa) = 25.43933 52.13917 38.78925
# Shear Modulus (GPa) = 20.67164 32.49376 26.58270
#
# Velocity S-wave (km/s) = 3.21011 4.02470 3.64026
# Velocity P-wave (km/s) = 5.14017 6.89848 6.08319
#
# Compressibility (1/GPa) = 0.03930921
#
# Stress axis : x y z
#
# Youngs Moduli (GPa) = 36.76260 109.87563 75.32002
#
# Poissons Ratio (x) = 0.82965 -0.25832
# Poissons Ratio (y) = 0.27759 0.07637
# Poissons Ratio (z) = -0.12608 0.11141
#
# Static dielectric constant tensor:
#      x y z
#    x 1.719370 0.000000 0.022320 
#    y 0.000000 1.767330 0.000000 
#    z 0.022320 0.000000 1.831200 
# 
# From -- ./inp_files/253287.got.cif
#   From: 2010.05.17/outbox.cif.g08.bks.cpg/sg15_127_cif.got.tgz:253287.got - 2010.06.03 18:47:42.
