data_PCOD9270436
_publ_section_title
;
Structure prediction by ZEFSAII (Michael W. Deem and Ramdas Pophale) SiO2 
 PCOD9270436
Probable space group: C 2/C
;
_chemical_formula_sum "Si O2"
_cell_formula_units_Z 52
_cell_length_a 12.312718
_cell_length_b 15.106678
_cell_length_c 16.390965
_cell_angle_alpha 90.000000
_cell_angle_beta 124.149805
_cell_angle_gamma 90.000000
_cell_volume 2523.094828
_symmetry_space_group_name_H-M "C 2/C"
_symmetry_group_IT_number 15
_symmetry_cell_setting 'monoclinic'
loop_
_space_group_symop_operation_xyz
x,y,z
-x,y,1/2-z
-x,-y,-z
x,-y,1/2+z
1/2+x,1/2+y,z
1/2-x,1/2+y,1/2-z
1/2-x,1/2-y,-z
1/2+x,1/2-y,1/2+z
loop_
_atom_site_type_symbol
_atom_site_label
_atom_site_fract_x
_atom_site_fract_y
_atom_site_fract_z
Si Si1 0.000000 0.190767 0.750000
Si Si2 0.920527 0.108777 0.133658
Si Si3 0.279046 0.196083 0.096635
Si Si4 0.466261 0.121552 0.057374
Si Si5 0.482398 0.309182 0.505264
Si Si6 0.298023 0.997873 0.368765
Si Si7 0.422919 0.439754 0.347790
O O1 0.132821 0.247274 0.803773
O O2 0.988084 0.127335 0.667873
O O3 0.922105 0.189284 0.070523
O O4 0.000000 0.130014 0.250000
O O5 0.787873 0.061420 0.108142
O O6 0.000227 0.031623 0.119438
O O7 0.382127 0.126285 0.104568
O O8 0.139276 0.168505 0.072903
O O9 0.250000 0.250000 0.000000
O O10 0.589143 0.058393 0.120935
O O11 0.517782 0.215953 0.043855
O O12 0.369038 0.079133 0.949440
O O13 0.406974 0.385767 0.423523
O O14 0.205000 0.957568 0.260303
#
# Coordination Sequence:
#
# PCOD9270436 Si02
#       7
#     4   8   8   8   8   8   8
#     4  12  18  32  62  88 120 168 192 260 320 366
#     4  10  22  38  60  88 125 165 209 248 312 380
#     4  10  20  35  58  95 123 144 207 268 306 369
#     4  10  21  39  61  88 123 164 207 258 320 364
#     4  11  22  38  64  96 121 163 208 270 307 373
#     4  10  21  39  62  83 124 173 203 252 316 391
#     4  11  19  36  60  89 120 156 209 250 316 367
#
# _framework density 20.60961
#
# number of rings (size 3 to 8) (size 9 to 14) (size 15 to 20)
#    0.000    1.538    5.385    3.231    0.000    3.077 
#    5.538    0.000    0.000    1.846    0.000    0.000 
#    0.000    0.000    0.000    0.000    0.000    0.000 
#
# Total GULP energy -145043.958767 kJ/mol
# GULP energy per Si atom -5578.613799 kJ/mol
# Density = 2.056270 g / cm^3
# Si number density = 20.609610 Si / 1000 Ang^3
#
#
#
# Elastic Constant Matrix: (Units=GPa)
#
#
# Indices 1 2 3 4 5 6 
#
# 1 66.7115 22.7138 27.2684 0.0000 8.1445 0.0000
# 2 22.7138 41.8873 18.9710 0.0000 3.8902 0.0000
# 3 27.2684 18.9710 45.9898 0.0000 5.8685 0.0000
# 4 0.0000 0.0000 0.0000 16.0571 0.0000 -2.5534
# 5 8.1445 3.8902 5.8685 0.0000 36.0802 0.0000
# 6 0.0000 0.0000 0.0000 -2.5534 0.0000 21.3577
#
#
#
# Elastic Compliance Matrix: (Units=1/GPa)
#
#
# Indices 1 2 3 4 5 6 
#
# 1 0.021649 -0.007177 -0.009549 0.000000 -0.002560 0.000000
# 2 -0.007177 0.031790 -0.008811 0.000000 -0.000375 0.000000
# 3 -0.009549 -0.008811 0.031293 0.000000 -0.001984 0.000000
# 4 0.000000 0.000000 0.000000 0.063485 0.000000 0.007590
# 5 -0.002560 -0.000375 -0.001984 0.000000 0.028657 0.000000
# 6 0.000000 0.000000 0.000000 0.007590 0.000000 0.047729
#
#
# Mechanical properties :
#
#
# Convention : Reuss Voigt Hill
#
# Bulk Modulus (GPa) = 29.70893 32.49946 31.10420
# Shear Modulus (GPa) = 17.42784 20.40801 18.91792
#
# Velocity S-wave (km/s) = 2.91110 3.15019 3.03300
# Velocity P-wave (km/s) = 5.07403 5.38840 5.23358
#
# Compressibility (1/GPa) = 0.03365991
#
# Stress axis : x y z
#
# Youngs Moduli (GPa) = 46.19096 31.45596 31.95557
#
# Poissons Ratio (x) = 0.22576 0.30515
# Poissons Ratio (y) = 0.33151 0.28155
# Poissons Ratio (z) = 0.44108 0.27715
#
# Static dielectric constant tensor:
#      x y z
#    x 1.736320 0.000000 -0.012710 
#    y 0.000000 1.787260 0.000000 
#    z -0.012710 0.000000 1.762560 
# 
# From -- ./inp_files/198022.got.cif
#   From: 2010.05.17/outbox.cif.g08.bks.cpg/sg15_100_cif.got.tgz:198022.got - 2010.06.03 18:47:42.
