data_PCOD9270199
_publ_section_title
;
Structure prediction by ZEFSAII (Michael W. Deem and Ramdas Pophale) SiO2 
 PCOD9270199
Probable space group: C 2/C
;
_chemical_formula_sum "Si O2"
_cell_formula_units_Z 60
_cell_length_a 15.455379
_cell_length_b 21.606948
_cell_length_c 9.392285
_cell_angle_alpha 90.000000
_cell_angle_beta 71.460266
_cell_angle_gamma 90.000000
_cell_volume 2973.719791
_symmetry_space_group_name_H-M "C 2/C"
_symmetry_group_IT_number 15
_symmetry_cell_setting 'monoclinic'
loop_
_space_group_symop_operation_xyz
x,y,z
-x,y,1/2-z
-x,-y,-z
x,-y,1/2+z
1/2+x,1/2+y,z
1/2-x,1/2+y,1/2-z
1/2-x,1/2-y,-z
1/2+x,1/2-y,1/2+z
loop_
_atom_site_type_symbol
_atom_site_label
_atom_site_fract_x
_atom_site_fract_y
_atom_site_fract_z
Si Si1 0.763139 0.807180 0.833282
Si Si2 0.146956 0.805202 0.433703
Si Si3 0.500000 0.494489 0.750000
Si Si4 0.765682 0.607366 0.714077
Si Si5 0.873903 0.977026 0.068702
Si Si6 0.539940 0.287467 0.072029
Si Si7 0.585088 0.799008 0.314251
Si Si8 0.696761 0.387546 0.946563
O O1 0.672931 0.767158 0.911138
O O2 0.841979 0.755448 0.762292
O O3 0.752873 0.856216 0.713983
O O4 0.800804 0.834505 0.960073
O O5 0.193755 0.836703 0.275077
O O6 0.040309 0.814982 0.485763
O O7 0.572338 0.460348 0.606060
O O8 0.559417 0.533926 0.831093
O O9 0.721064 0.554434 0.835628
O O10 0.861691 0.636016 0.711731
O O11 0.758892 0.594839 0.549453
O O12 0.855977 0.050367 0.069376
O O13 0.500000 0.280812 0.250000
O O14 0.560701 0.221813 0.987496
O O15 0.623411 0.334555 0.024014
O O16 0.500000 0.797695 0.250000
#
# Coordination Sequence:
#
# PCOD9270199 Si02
#       8
#     8   8   4   8   8   8   8   8
#     4   9  21  36  56  87 122 160 201 251 303 370
#     4  10  20  35  56  87 124 157 201 245 307 368
#     4  10  24  38  60  82 126 156 200 240 302 364
#     4  11  24  39  61  85 127 164 205 257 310 360
#     4  11  24  41  58  90 124 164 208 251 299 370
#     4  11  22  33  60  91 127 157 197 248 309 374
#     4  10  21  41  60  89 120 161 205 255 309 365
#     4  11  24  37  58  87 125 163 203 249 307 372
#
# _framework density 20.176749000000001
#
# number of rings (size 3 to 8) (size 9 to 14) (size 15 to 20)
#    0.000    1.600    4.000    0.000    8.400    1.600 
#    0.000    0.000    0.000    0.800    0.000    0.000 
#    0.000    0.000    0.000    0.000    0.000    0.000 
#
# Total GULP energy -167248.060394 kJ/mol
# GULP energy per Si atom -5574.935346 kJ/mol
# Density = 2.013083 g / cm^3
# Si number density = 20.176749 Si / 1000 Ang^3
#
#
#
# Elastic Constant Matrix: (Units=GPa)
#
#
# Indices 1 2 3 4 5 6 
#
# 1 44.3372 10.2171 16.4062 0.0000 1.6277 0.0000
# 2 10.2171 48.1180 48.5903 0.0000 -8.0701 0.0000
# 3 16.4062 48.5903 126.7345 0.0000 6.2789 0.0000
# 4 0.0000 0.0000 0.0000 17.7445 0.0000 -7.9297
# 5 1.6277 -8.0701 6.2789 0.0000 20.0598 0.0000
# 6 0.0000 0.0000 0.0000 -7.9297 0.0000 19.6853
#
#
#
# Elastic Compliance Matrix: (Units=1/GPa)
#
#
# Indices 1 2 3 4 5 6 
#
# 1 0.024163 -0.004402 -0.001275 0.000000 -0.003332 0.000000
# 2 -0.004402 0.042591 -0.016888 0.000000 0.022778 0.000000
# 3 -0.001275 -0.016888 0.015096 0.000000 -0.011416 0.000000
# 4 0.000000 0.000000 0.000000 0.068727 0.000000 0.027685
# 5 -0.003332 0.022778 -0.011416 0.000000 0.062858 0.000000
# 6 0.000000 0.000000 0.000000 0.027685 0.000000 0.061951
#
#
# Mechanical properties :
#
#
# Convention : Reuss Voigt Hill
#
# Bulk Modulus (GPa) = 27.23321 41.06852 34.15087
# Shear Modulus (GPa) = 15.02598 21.09632 18.06115
#
# Velocity S-wave (km/s) = 2.73191 3.23704 2.99515
# Velocity P-wave (km/s) = 4.84538 5.86258 5.37808
#
# Compressibility (1/GPa) = 0.03671987
#
# Stress axis : x y z
#
# Youngs Moduli (GPa) = 41.38563 23.47916 66.24214
#
# Poissons Ratio (x) = 0.10335 0.08448
# Poissons Ratio (y) = 0.18217 1.11871
# Poissons Ratio (z) = 0.05278 0.39652
#
# Static dielectric constant tensor:
#      x y z
#    x 1.743230 0.000000 -0.003600 
#    y 0.000000 1.733350 0.000000 
#    z -0.003600 0.000000 1.793570 
# 
# From -- ./inp_files/50208.got.cif
#   From: 2010.05.17/outbox.cif.g08.bks.cpg/sg15_26_cif.got.tgz:50208.got - 2010.06.03 18:47:42.
