data_PCOD9270083
_publ_section_title
;
Structure prediction by ZEFSAII (Michael W. Deem and Ramdas Pophale) SiO2 
 PCOD9270083
Probable space group: C 2/C
;
_chemical_formula_sum "Si O2"
_cell_formula_units_Z 56
_cell_length_a 12.150834
_cell_length_b 8.698622
_cell_length_c 23.925446
_cell_angle_alpha 90.000000
_cell_angle_beta 61.870508
_cell_angle_gamma 90.000000
_cell_volume 2230.119843
_symmetry_space_group_name_H-M "C 2/C"
_symmetry_group_IT_number 15
_symmetry_cell_setting 'monoclinic'
loop_
_space_group_symop_operation_xyz
x,y,z
-x,y,1/2-z
-x,-y,-z
x,-y,1/2+z
1/2+x,1/2+y,z
1/2-x,1/2+y,1/2-z
1/2-x,1/2-y,-z
1/2+x,1/2-y,1/2+z
loop_
_atom_site_type_symbol
_atom_site_label
_atom_site_fract_x
_atom_site_fract_y
_atom_site_fract_z
Si Si1 0.010399 0.354098 0.077180
Si Si2 0.135910 0.061318 0.234665
Si Si3 0.722253 0.274759 0.374153
Si Si4 0.330279 0.282388 0.359953
Si Si5 0.316651 0.988037 0.036817
Si Si6 0.535193 0.013052 0.677402
Si Si7 0.102627 0.936745 0.874108
O O1 0.949586 0.416604 0.149286
O O2 0.923743 0.395790 0.045381
O O3 0.016036 0.170955 0.083881
O O4 0.132953 0.456111 0.034620
O O5 0.241451 0.182099 0.190777
O O6 0.128190 0.038403 0.302410
O O7 0.000000 0.126300 0.250000
O O8 0.150421 0.908201 0.193405
O O9 0.703897 0.145794 0.424755
O O10 0.842821 0.379500 0.357135
O O11 0.609542 0.394869 0.398555
O O12 0.299480 0.376594 0.423785
O O13 0.443408 0.165993 0.339985
O O14 0.217274 0.169012 0.368957
O O15 0.500000 0.021900 0.750000
#
# Coordination Sequence:
#
# PCOD9270083 Si02
#       7
#     8   8   8   8   8   8   8
#     4  10  21  39  60  80 112 149 190 236 276 336
#     4  11  20  33  53  81 114 146 188 236 285 340
#     4  10  21  35  54  79 112 146 185 232 282 339
#     4   9  21  37  55  80 113 149 188 230 284 347
#     4   9  21  40  58  81 110 151 193 228 280 335
#     4  11  22  37  57  85 115 145 184 234 288 336
#     4  10  20  35  55  80 111 151 187 231 289 339
#
# _framework density 25.110759000000002
#
# number of rings (size 3 to 8) (size 9 to 14) (size 15 to 20)
#    0.000    2.000    0.000    3.429    0.000    9.714 
#    0.000    0.000    0.000    0.000    0.000    0.000 
#    0.000    0.000    0.000    0.000    0.000    0.000 
#
# Total GULP energy -156512.326654 kJ/mol
# GULP energy per Si atom -5589.725952 kJ/mol
# Density = 2.505361 g / cm^3
# Si number density = 25.110759 Si / 1000 Ang^3
#
#
#
# Elastic Constant Matrix: (Units=GPa)
#
#
# Indices 1 2 3 4 5 6 
#
# 1 25.1229 3.3569 -9.7845 0.0000 -2.6278 0.0000
# 2 3.3569 133.8314 7.0429 0.0000 -7.3060 0.0000
# 3 -9.7845 7.0429 69.3518 0.0000 4.7366 0.0000
# 4 0.0000 0.0000 0.0000 18.3620 0.0000 -5.8756
# 5 -2.6278 -7.3060 4.7366 0.0000 16.8983 0.0000
# 6 0.0000 0.0000 0.0000 -5.8756 0.0000 24.3666
#
#
#
# Elastic Compliance Matrix: (Units=1/GPa)
#
#
# Indices 1 2 3 4 5 6 
#
# 1 0.042699 -0.001131 0.005831 0.000000 0.004517 0.000000
# 2 -0.001131 0.007755 -0.001187 0.000000 0.003509 0.000000
# 3 0.005831 -0.001187 0.015635 0.000000 -0.003989 0.000000
# 4 0.000000 0.000000 0.000000 0.059014 0.000000 0.014230
# 5 0.004517 0.003509 -0.003989 0.000000 0.062515 0.000000
# 6 0.000000 0.000000 0.000000 0.014230 0.000000 0.044471
#
#
# Mechanical properties :
#
#
# Convention : Reuss Voigt Hill
#
# Bulk Modulus (GPa) = 13.67747 25.50408 19.59077
# Shear Modulus (GPa) = 20.04535 27.10476 23.57506
#
# Velocity S-wave (km/s) = 2.82845 3.28900 3.06738
# Velocity P-wave (km/s) = 4.01566 4.96004 4.51262
#
# Compressibility (1/GPa) = 0.07311293
#
# Stress axis : x y z
#
# Youngs Moduli (GPa) = 23.41994 128.95735 63.95992
#
# Poissons Ratio (x) = 0.14589 -0.37292
# Poissons Ratio (y) = 0.02649 0.07591
# Poissons Ratio (z) = -0.13655 0.15304
#
# Static dielectric constant tensor:
#      x y z
#    x 2.150610 0.000000 -0.070620 
#    y 0.000000 1.967090 0.000000 
#    z -0.070620 0.000000 2.040940 
# 
# From -- ./inp_files/295076.got.cif
#   From: 2010.05.17/outbox.cif.g08.bks.cpg/sg15_148_cif.got.tgz:295076.got - 2010.06.03 18:47:42.
