data_PCOD9270641
_publ_section_title
;
Structure prediction by ZEFSAII (Michael W. Deem and Ramdas Pophale) SiO2 
 PCOD9270641
Probable space group: C 2/C
;
_chemical_formula_sum "Si O2"
_cell_formula_units_Z 56
_cell_length_a 23.721148
_cell_length_b 9.816764
_cell_length_c 17.964386
_cell_angle_alpha 90.000000
_cell_angle_beta 144.771523
_cell_angle_gamma 90.000000
_cell_volume 2413.073667
_symmetry_space_group_name_H-M "C 2/C"
_symmetry_group_IT_number 15
_symmetry_cell_setting 'monoclinic'
loop_
_space_group_symop_operation_xyz
x,y,z
-x,y,1/2-z
-x,-y,-z
x,-y,1/2+z
1/2+x,1/2+y,z
1/2-x,1/2+y,1/2-z
1/2-x,1/2-y,-z
1/2+x,1/2-y,1/2+z
loop_
_atom_site_type_symbol
_atom_site_label
_atom_site_fract_x
_atom_site_fract_y
_atom_site_fract_z
Si Si1 0.500000 0.885422 0.250000
Si Si2 0.000000 0.064897 0.750000
Si Si3 0.445867 0.205962 0.930394
Si Si4 0.129116 0.136670 0.020655
Si Si5 0.832736 0.383173 0.978395
Si Si6 0.877432 0.848443 0.432412
Si Si7 0.381600 0.341196 0.711606
Si Si8 0.805552 0.508794 0.282376
O O1 0.576621 0.960396 0.386316
O O2 0.574404 0.791004 0.282445
O O3 0.080403 0.141455 0.887404
O O4 0.061948 0.968448 0.761752
O O5 0.402809 0.307835 0.821013
O O6 0.408279 0.055742 0.868004
O O7 0.404055 0.237993 0.965847
O O8 0.558828 0.251001 0.050582
O O9 0.084573 0.001079 0.013980
O O10 0.244701 0.102982 0.158443
O O11 0.872812 0.229472 0.006251
O O12 0.733562 0.371056 0.917353
O O13 0.809678 0.433916 0.870236
O O14 0.766726 0.876973 0.290329
#
# Coordination Sequence:
#
# PCOD9270641 Si02
#       8
#     4   4   8   8   8   8   8   8
#     4  11  24  36  59  96 128 154 201 251 320 354
#     4  11  22  34  61  98 116 152 201 253 316 338
#     4  12  20  39  64  87 123 162 204 247 292 359
#     4  10  21  37  61  91 122 149 206 256 294 358
#     4  12  22  40  60  92 128 158 196 253 306 358
#     4  10  20  35  61  90 115 154 208 244 294 349
#     4  11  19  38  62  89 122 158 198 257 300 346
#     4  10  23  36  62  89 117 165 203 238 304 363
#
# _framework density 23.206917000000001
#
# number of rings (size 3 to 8) (size 9 to 14) (size 15 to 20)
#    0.857    0.286    5.714    1.714    2.000    1.714 
#    0.000    0.714    0.000    0.857    0.000    0.000 
#    0.000    0.000    0.000    0.000    0.000    0.000 
#
# Total GULP energy -156064.643393 kJ/mol
# GULP energy per Si atom -5573.737264 kJ/mol
# Density = 2.315410 g / cm^3
# Si number density = 23.206917 Si / 1000 Ang^3
#
#
#
# Elastic Constant Matrix: (Units=GPa)
#
#
# Indices 1 2 3 4 5 6 
#
# 1 52.3160 3.6247 35.3040 0.0000 3.8188 0.0000
# 2 3.6247 20.2806 -2.0108 0.0000 -3.8366 0.0000
# 3 35.3040 -2.0108 154.4649 0.0000 -13.0214 0.0000
# 4 0.0000 0.0000 0.0000 22.5760 0.0000 -2.1479
# 5 3.8188 -3.8366 -13.0214 0.0000 40.6746 0.0000
# 6 0.0000 0.0000 0.0000 -2.1479 0.0000 19.6875
#
#
#
# Elastic Compliance Matrix: (Units=1/GPa)
#
#
# Indices 1 2 3 4 5 6 
#
# 1 0.023847 -0.005733 -0.005919 0.000000 -0.004675 0.000000
# 2 -0.005733 0.051759 0.002509 0.000000 0.006224 0.000000
# 3 -0.005919 0.002509 0.008146 0.000000 0.003400 0.000000
# 4 0.000000 0.000000 0.000000 0.044759 0.000000 0.004883
# 5 -0.004675 0.006224 0.003400 0.000000 0.026700 0.000000
# 6 0.000000 0.000000 0.000000 0.004883 0.000000 0.051326
#
#
# Mechanical properties :
#
#
# Convention : Reuss Voigt Hill
#
# Bulk Modulus (GPa) = 15.27536 33.43305 24.35420
# Shear Modulus (GPa) = 20.27186 29.26387 24.76787
#
# Velocity S-wave (km/s) = 2.95875 3.55491 3.27044
# Velocity P-wave (km/s) = 4.27421 5.59353 4.97777
#
# Compressibility (1/GPa) = 0.06546492
#
# Stress axis : x y z
#
# Youngs Moduli (GPa) = 41.93316 19.32034 122.75754
#
# Poissons Ratio (x) = 0.11077 0.72663
# Poissons Ratio (y) = 0.24042 -0.30798
# Poissons Ratio (z) = 0.24821 -0.04847
#
# Static dielectric constant tensor:
#      x y z
#    x 1.857070 0.000000 0.036090 
#    y 0.000000 1.889490 0.000000 
#    z 0.036090 0.000000 2.011350 
# 
# From -- ./inp_files/219188.got.cif
#   From: 2010.05.17/outbox.cif.g08.bks.cpg/sg15_110_cif.got.tgz:219188.got - 2010.06.03 18:47:42.
