data_PCOD9270620
_publ_section_title
;
Structure prediction by ZEFSAII (Michael W. Deem and Ramdas Pophale) SiO2 
 PCOD9270620
Probable space group: C 2/C
;
_chemical_formula_sum "Si O2"
_cell_formula_units_Z 60
_cell_length_a 20.431413
_cell_length_b 19.716215
_cell_length_c 13.685981
_cell_angle_alpha 90.000000
_cell_angle_beta 36.576697
_cell_angle_gamma 90.000000
_cell_volume 3285.262175
_symmetry_space_group_name_H-M "C 2/C"
_symmetry_group_IT_number 15
_symmetry_cell_setting 'monoclinic'
loop_
_space_group_symop_operation_xyz
x,y,z
-x,y,1/2-z
-x,-y,-z
x,-y,1/2+z
1/2+x,1/2+y,z
1/2-x,1/2+y,1/2-z
1/2-x,1/2-y,-z
1/2+x,1/2-y,1/2+z
loop_
_atom_site_type_symbol
_atom_site_label
_atom_site_fract_x
_atom_site_fract_y
_atom_site_fract_z
Si Si1 0.973087 0.823262 0.896150
Si Si2 0.577365 0.828007 0.060352
Si Si3 0.448804 0.052530 0.634920
Si Si4 0.321214 0.695667 0.226394
Si Si5 0.000000 0.457264 0.750000
Si Si6 0.124722 0.190250 0.569995
Si Si7 0.236891 0.352126 0.222230
Si Si8 0.310488 0.845461 0.995756
O O1 0.941580 0.745972 0.961538
O O2 0.000000 0.823716 0.750000
O O3 0.078099 0.837176 0.835916
O O4 0.861895 0.864116 0.042088
O O5 0.500000 0.831839 0.250000
O O6 0.533844 0.886234 0.043828
O O7 0.708674 0.833499 0.908118
O O8 0.338990 0.088578 0.729205
O O9 0.500000 0.000000 0.500000
O O10 0.447561 0.009266 0.735041
O O11 0.309425 0.777882 0.256630
O O12 0.342991 0.683938 0.084142
O O13 0.099654 0.405158 0.609734
O O14 0.215729 0.151674 0.526945
O O15 0.135552 0.270826 0.581436
O O16 0.000000 0.170175 0.750000
O O17 0.238544 0.347294 0.336995
#
# Coordination Sequence:
#
# PCOD9270620 Si02
#       8
#     8   8   8   8   4   8   8   8
#     4  10  21  34  61  89 121 155 193 254 305 357
#     4  10  22  37  57  87 121 156 203 246 303 356
#     4  12  24  38  60  85 120 164 198 247 293 355
#     4  10  21  35  59  91 122 155 194 258 305 361
#     4  12  24  38  60  88 120 162 202 244 288 360
#     4  10  20  35  61  86 121 155 193 253 311 364
#     4  10  21  38  58  87 123 155 202 246 305 359
#     4  10  21  37  57  87 120 154 199 248 304 355
#
# _framework density 18.263383000000001
#
# number of rings (size 3 to 8) (size 9 to 14) (size 15 to 20)
#    0.000    1.600    4.000    0.800    3.733    2.667 
#    0.000    0.000    0.000    3.200    0.000    0.000 
#    0.000    0.000    0.000    0.000    0.000    0.000 
#
# Total GULP energy -167111.488472 kJ/mol
# GULP energy per Si atom -5570.382949 kJ/mol
# Density = 1.822181 g / cm^3
# Si number density = 18.263383 Si / 1000 Ang^3
#
#
#
# Elastic Constant Matrix: (Units=GPa)
#
#
# Indices 1 2 3 4 5 6 
#
# 1 116.4424 35.1798 57.9382 0.0000 -22.1229 0.0000
# 2 35.1798 51.2061 39.9003 0.0000 -10.6319 0.0000
# 3 57.9382 39.9003 124.4606 0.0000 -29.8115 0.0000
# 4 0.0000 0.0000 0.0000 16.5525 0.0000 -12.6388
# 5 -22.1229 -10.6319 -29.8115 0.0000 30.6569 0.0000
# 6 0.0000 0.0000 0.0000 -12.6388 0.0000 57.0480
#
#
#
# Elastic Compliance Matrix: (Units=1/GPa)
#
#
# Indices 1 2 3 4 5 6 
#
# 1 0.012545 -0.005306 -0.003143 0.000000 0.004156 0.000000
# 2 -0.005306 0.028310 -0.006741 0.000000 -0.000567 0.000000
# 3 -0.003143 -0.006741 0.013761 0.000000 0.008775 0.000000
# 4 0.000000 0.000000 0.000000 0.072715 0.000000 0.016110
# 5 0.004156 -0.000567 0.008775 0.000000 0.043955 0.000000
# 6 0.000000 0.000000 0.000000 0.016110 0.000000 0.021098
#
#
# Mechanical properties :
#
#
# Convention : Reuss Voigt Hill
#
# Bulk Modulus (GPa) = 41.26480 62.01619 51.64050
# Shear Modulus (GPa) = 21.65980 31.45753 26.55867
#
# Velocity S-wave (km/s) = 3.44753 4.15473 3.81754
# Velocity P-wave (km/s) = 6.20408 7.55288 6.91146
#
# Compressibility (1/GPa) = 0.02423373
#
# Stress axis : x y z
#
# Youngs Moduli (GPa) = 79.71557 35.32357 72.66974
#
# Poissons Ratio (x) = 0.18744 0.22841
# Poissons Ratio (y) = 0.42300 0.48988
# Poissons Ratio (z) = 0.25055 0.23812
#
# Static dielectric constant tensor:
#      x y z
#    x 1.605790 0.000000 -0.022290 
#    y 0.000000 1.580820 0.000000 
#    z -0.022290 0.000000 1.642850 
# 
# From -- ./inp_files/169459.got.cif
#   From: 2010.05.17/outbox.cif.g08.bks.cpg/sg15_85_cif.got.tgz:169459.got - 2010.06.03 18:47:42.
