data_PCOD9270933
_publ_section_title
;
Structure prediction by ZEFSAII (Michael W. Deem and Ramdas Pophale) SiO2 
 PCOD9270933
Probable space group: C 2/C
;
_chemical_formula_sum "Si O2"
_cell_formula_units_Z 64
_cell_length_a 31.660177
_cell_length_b 8.457893
_cell_length_c 12.062481
_cell_angle_alpha 90.000000
_cell_angle_beta 83.128939
_cell_angle_gamma 90.000000
_cell_volume 3206.873017
_symmetry_space_group_name_H-M "C 2/C"
_symmetry_group_IT_number 15
_symmetry_cell_setting 'monoclinic'
loop_
_space_group_symop_operation_xyz
x,y,z
-x,y,1/2-z
-x,-y,-z
x,-y,1/2+z
1/2+x,1/2+y,z
1/2-x,1/2+y,1/2-z
1/2-x,1/2-y,-z
1/2+x,1/2-y,1/2+z
loop_
_atom_site_type_symbol
_atom_site_label
_atom_site_fract_x
_atom_site_fract_y
_atom_site_fract_z
Si Si1 0.423868 0.398911 0.379730
Si Si2 0.921418 0.327727 0.170386
Si Si3 0.148467 0.221570 0.749509
Si Si4 0.926377 0.266323 0.402229
Si Si5 0.861170 0.549724 0.055154
Si Si6 0.640010 0.410829 0.888469
Si Si7 0.200006 0.281141 0.514653
Si Si8 0.506050 0.310857 0.000677
O O1 0.397143 0.308847 0.294986
O O2 0.432391 0.585124 0.355824
O O3 0.394156 0.413950 0.499703
O O4 0.465825 0.298826 0.397045
O O5 0.931749 0.377759 0.292719
O O6 0.901043 0.441862 0.083543
O O7 0.882933 0.201071 0.193252
O O8 0.963179 0.248400 0.106546
O O9 0.153168 0.373842 0.824794
O O10 0.181443 0.229140 0.639116
O O11 0.151967 0.074121 0.830184
O O12 0.881519 0.316133 0.469988
O O13 0.961463 0.272845 0.489675
O O14 0.823929 0.447851 0.008274
O O15 0.681096 0.330975 0.925966
O O16 0.250000 0.250000 0.500000
O O17 0.500000 0.500000 0.000000
#
# Coordination Sequence:
#
# PCOD9270933 Si02
#       8
#     8   8   8   8   8   8   8   8
#     4   9  18  34  58  88 117 155 211 261 297 356
#     4  10  20  36  55  85 123 163 207 260 318 352
#     4  11  20  39  67  88 116 168 213 244 324 380
#     4  11  19  35  60  83 122 163 212 258 305 364
#     4  11  24  39  62  89 124 166 206 254 322 392
#     4   9  18  36  62  84 112 158 205 247 300 385
#     4  10  24  43  61  92 131 152 197 266 321 382
#     4   9  20  34  55  87 123 164 215 265 302 355
#
# _framework density 19.957135000000001
#
# number of rings (size 3 to 8) (size 9 to 14) (size 15 to 20)
#    0.000    2.000    2.500    1.875    0.000    1.500 
#    0.000    2.500    0.000    0.000    0.000    0.000 
#    0.000    0.000    0.000    0.000    0.000    0.000 
#
# Total GULP energy -178169.678769 kJ/mol
# GULP energy per Si atom -5567.802462 kJ/mol
# Density = 1.991171 g / cm^3
# Si number density = 19.957135 Si / 1000 Ang^3
#
#
#
# Elastic Constant Matrix: (Units=GPa)
#
#
# Indices 1 2 3 4 5 6 
#
# 1 95.6951 21.1098 11.3950 0.0000 15.9803 0.0000
# 2 21.1098 51.7312 15.1569 0.0000 2.5282 0.0000
# 3 11.3950 15.1569 55.1746 0.0000 10.9554 0.0000
# 4 0.0000 0.0000 0.0000 19.9029 0.0000 0.0051
# 5 15.9803 2.5282 10.9554 0.0000 17.1784 0.0000
# 6 0.0000 0.0000 0.0000 0.0051 0.0000 17.7886
#
#
#
# Elastic Compliance Matrix: (Units=1/GPa)
#
#
# Indices 1 2 3 4 5 6 
#
# 1 0.013575 -0.005258 0.001139 0.000000 -0.012581 0.000000
# 2 -0.005258 0.023066 -0.006352 0.000000 0.005548 0.000000
# 3 0.001139 -0.006352 0.022509 0.000000 -0.014480 0.000000
# 4 0.000000 0.000000 0.000000 0.050244 0.000000 -0.000014
# 5 -0.012581 0.005548 -0.014480 0.000000 0.078333 0.000000
# 6 0.000000 0.000000 0.000000 -0.000014 0.000000 0.056216
#
#
# Mechanical properties :
#
#
# Convention : Reuss Voigt Hill
#
# Bulk Modulus (GPa) = 26.17292 33.10271 29.63781
# Shear Modulus (GPa) = 18.01005 21.30326 19.65666
#
# Velocity S-wave (km/s) = 3.00732 3.27073 3.14179
# Velocity P-wave (km/s) = 5.02012 5.55756 5.29567
#
# Compressibility (1/GPa) = 0.03820744
#
# Stress axis : x y z
#
# Youngs Moduli (GPa) = 73.66439 43.35302 44.42651
#
# Poissons Ratio (x) = 0.22797 -0.05060
# Poissons Ratio (y) = 0.38736 0.28220
# Poissons Ratio (z) = -0.08390 0.27538
#
# Static dielectric constant tensor:
#      x y z
#    x 1.732630 0.000000 0.023100 
#    y 0.000000 1.796830 0.000000 
#    z 0.023100 0.000000 1.763580 
# 
# From -- ./inp_files/125914.got.cif
#   From: 2010.05.17/outbox.cif.g08.bks.cpg/sg15_63_cif.got.tgz:125914.got - 2010.06.03 18:47:42.
