data_PCOD9270203
_publ_section_title
;
Structure prediction by ZEFSAII (Michael W. Deem and Ramdas Pophale) SiO2 
 PCOD9270203
Probable space group: C 2/C
;
_chemical_formula_sum "Si O2"
_cell_formula_units_Z 56
_cell_length_a 22.545315
_cell_length_b 14.331284
_cell_length_c 8.520014
_cell_angle_alpha 90.000000
_cell_angle_beta 122.875876
_cell_angle_gamma 90.000000
_cell_volume 2311.972501
_symmetry_space_group_name_H-M "C 2/C"
_symmetry_group_IT_number 15
_symmetry_cell_setting 'monoclinic'
loop_
_space_group_symop_operation_xyz
x,y,z
-x,y,1/2-z
-x,-y,-z
x,-y,1/2+z
1/2+x,1/2+y,z
1/2-x,1/2+y,1/2-z
1/2-x,1/2-y,-z
1/2+x,1/2-y,1/2+z
loop_
_atom_site_type_symbol
_atom_site_label
_atom_site_fract_x
_atom_site_fract_y
_atom_site_fract_z
Si Si1 0.935270 0.576418 0.559559
Si Si2 0.269426 0.890076 0.409698
Si Si3 0.477072 0.731371 0.961728
Si Si4 0.378087 0.380648 0.838910
Si Si5 0.153542 0.792897 0.410772
Si Si6 0.078884 0.065524 0.417079
Si Si7 0.661373 0.053565 0.802844
O O1 0.966892 0.663850 0.509501
O O2 0.881481 0.607372 0.622074
O O3 0.894529 0.506569 0.383761
O O4 0.000000 0.530362 0.750000
O O5 0.190617 0.858727 0.336328
O O6 0.316315 0.810258 0.559568
O O7 0.292958 0.893868 0.262762
O O8 0.289212 0.984760 0.525882
O O9 0.555813 0.691413 0.070943
O O10 0.429736 0.714737 0.739126
O O11 0.438306 0.662471 0.026134
O O12 0.326325 0.332137 0.888390
O O13 0.396095 0.478854 0.946016
O O14 0.367405 0.410369 0.645362
O O15 0.000000 0.033366 0.250000
#
# Coordination Sequence:
#
# PCOD9270203 Si02
#       7
#     8   8   8   8   8   8   8
#     4  11  22  40  66  98 130 166 210 267 332 381
#     4  10  24  44  65  87 126 171 215 266 315 367
#     4  11  22  38  62  96 129 164 207 263 321 385
#     4  11  22  38  62  91 130 165 208 262 320 383
#     4  11  23  42  63  91 126 170 215 258 314 386
#     4  10  20  35  56  88 126 161 197 250 310 378
#     4  10  23  45  67  91 129 167 220 273 309 382
#
# _framework density 24.221744000000001
#
# number of rings (size 3 to 8) (size 9 to 14) (size 15 to 20)
#    0.000    1.429    1.429    5.571    4.000    2.286 
#    0.000    2.143    0.000    0.000    0.000    0.000 
#    0.000    0.000    0.000    0.000    0.000    0.000 
#
# Total GULP energy -156475.811971 kJ/mol
# GULP energy per Si atom -5588.421856 kJ/mol
# Density = 2.416661 g / cm^3
# Si number density = 24.221744 Si / 1000 Ang^3
#
#
#
# Elastic Constant Matrix: (Units=GPa)
#
#
# Indices 1 2 3 4 5 6 
#
# 1 89.1959 8.2633 10.9005 0.0000 -24.3069 0.0000
# 2 8.2633 64.2769 -6.8164 0.0000 -8.2621 0.0000
# 3 10.9005 -6.8164 45.9650 0.0000 -19.9267 0.0000
# 4 0.0000 0.0000 0.0000 10.1406 0.0000 10.7677
# 5 -24.3069 -8.2621 -19.9267 0.0000 47.6202 0.0000
# 6 0.0000 0.0000 0.0000 10.7677 0.0000 -8.9789
#
#
#
# Elastic Compliance Matrix: (Units=1/GPa)
#
#
# Indices 1 2 3 4 5 6 
#
# 1 0.013076 -0.000925 -0.000506 0.000000 0.006302 0.000000
# 2 -0.000925 0.016721 0.004584 0.000000 0.004347 0.000000
# 3 -0.000506 0.004584 0.027838 0.000000 0.012186 0.000000
# 4 0.000000 0.000000 0.000000 0.043377 0.000000 0.052019
# 5 0.006302 0.004347 0.012186 0.000000 0.030070 0.000000
# 6 0.000000 0.000000 0.000000 0.052019 0.000000 -0.048990
#
#
# Mechanical properties :
#
#
# Convention : Reuss Voigt Hill
#
# Bulk Modulus (GPa) = 15.63914 24.90362 20.27138
# Shear Modulus (GPa) = 51.49264 22.22908 36.86086
#
# Velocity S-wave (km/s) = 4.61573 3.03270 3.90527
# Velocity P-wave (km/s) = 5.90570 4.75046 5.35930
#
# Compressibility (1/GPa) = 0.06394215
#
# Stress axis : x y z
#
# Youngs Moduli (GPa) = 76.47452 59.80354 35.92183
#
# Poissons Ratio (x) = 0.05529 0.01817
# Poissons Ratio (y) = 0.07071 -0.16465
# Poissons Ratio (z) = 0.03869 -0.27412
#
# Static dielectric constant tensor:
#      x y z
#    x 1.968260 0.000000 0.015820 
#    y 0.000000 1.857600 0.000000 
#    z 0.015820 0.000000 1.986320 
# 
# From -- ./inp_files/61619.got.cif
#   From: 2010.05.17/outbox.cif.g08.bks.cpg/sg15_31_cif.got.tgz:61619.got - 2010.06.03 18:47:42.
