data_PCOD9270468
_publ_section_title
;
Structure prediction by ZEFSAII (Michael W. Deem and Ramdas Pophale) SiO2 
 PCOD9270468
Probable space group: C 2/C
;
_chemical_formula_sum "Si O2"
_cell_formula_units_Z 64
_cell_length_a 21.067513
_cell_length_b 11.691007
_cell_length_c 21.139708
_cell_angle_alpha 90.000000
_cell_angle_beta 143.639245
_cell_angle_gamma 90.000000
_cell_volume 3086.894373
_symmetry_space_group_name_H-M "C 2/C"
_symmetry_group_IT_number 15
_symmetry_cell_setting 'monoclinic'
loop_
_space_group_symop_operation_xyz
x,y,z
-x,y,1/2-z
-x,-y,-z
x,-y,1/2+z
1/2+x,1/2+y,z
1/2-x,1/2+y,1/2-z
1/2-x,1/2-y,-z
1/2+x,1/2-y,1/2+z
loop_
_atom_site_type_symbol
_atom_site_label
_atom_site_fract_x
_atom_site_fract_y
_atom_site_fract_z
Si Si1 0.460392 0.140931 0.902668
Si Si2 0.358620 0.433164 0.416406
Si Si3 0.304378 0.761810 0.147439
Si Si4 0.102664 0.284583 0.403670
Si Si5 0.838038 0.106795 0.749067
Si Si6 0.797780 0.810480 0.842570
Si Si7 0.979432 0.087437 0.339944
Si Si8 0.159677 0.555689 0.138840
O O1 0.391278 0.231179 0.888344
O O2 0.508048 0.166463 0.871812
O O3 0.391330 0.025765 0.848723
O O4 0.565308 0.115624 0.027167
O O5 0.261064 0.354994 0.364336
O O6 0.365382 0.402699 0.346953
O O7 0.337093 0.570277 0.404932
O O8 0.463654 0.407132 0.544273
O O9 0.376252 0.667897 0.241494
O O10 0.375327 0.822510 0.149671
O O11 0.210167 0.701760 0.030931
O O12 0.072099 0.148680 0.373643
O O13 0.790524 0.230483 0.693399
O O14 0.733889 0.026218 0.656998
O O15 0.937318 0.041341 0.796443
O O16 0.732989 0.853129 0.730226
#
# Coordination Sequence:
#
# PCOD9270468 Si02
#       8
#     8   8   8   8   8   8   8   8
#     4  10  20  35  59  85 122 153 202 235 301 373
#     4  10  23  37  56  87 124 155 203 249 302 374
#     4  10  23  39  57  89 121 151 201 255 305 345
#     4  10  21  36  61  89 112 155 199 255 294 355
#     4  10  21  35  57  85 121 161 192 246 308 365
#     4  10  22  36  56  88 125 158 189 249 308 367
#     4  11  22  36  59  87 117 162 199 247 305 364
#     4   9  20  34  52  87 120 160 186 243 300 361
#
# _framework density 20.732811999999999
#
# number of rings (size 3 to 8) (size 9 to 14) (size 15 to 20)
#    0.000    2.000    0.000    3.000   14.000    0.000 
#    0.000    0.000    0.000    0.000    6.500   13.125 
#    0.000    0.000    0.000    0.000    0.000    0.000 
#
# Total GULP energy -178224.349280 kJ/mol
# GULP energy per Si atom -5569.510915 kJ/mol
# Density = 2.068562 g / cm^3
# Si number density = 20.732812 Si / 1000 Ang^3
#
#
#
# Elastic Constant Matrix: (Units=GPa)
#
#
# Indices 1 2 3 4 5 6 
#
# 1 80.4850 30.2127 18.8315 0.0000 8.8563 0.0000
# 2 30.2127 97.8454 39.1628 0.0000 -1.9916 0.0000
# 3 18.8315 39.1628 127.5178 0.0000 -11.6333 0.0000
# 4 0.0000 0.0000 0.0000 37.6192 0.0000 15.3685
# 5 8.8563 -1.9916 -11.6333 0.0000 22.8080 0.0000
# 6 0.0000 0.0000 0.0000 15.3685 0.0000 22.8351
#
#
#
# Elastic Compliance Matrix: (Units=1/GPa)
#
#
# Indices 1 2 3 4 5 6 
#
# 1 0.015145 -0.004181 -0.001597 0.000000 -0.007060 0.000000
# 2 -0.004181 0.012822 -0.003220 0.000000 0.001101 0.000000
# 3 -0.001597 -0.003220 0.009542 0.000000 0.005205 0.000000
# 4 0.000000 0.000000 0.000000 0.036662 0.000000 -0.024674
# 5 -0.007060 0.001101 0.005205 0.000000 0.049337 0.000000
# 6 0.000000 0.000000 0.000000 -0.024674 0.000000 0.060398
#
#
# Mechanical properties :
#
#
# Convention : Reuss Voigt Hill
#
# Bulk Modulus (GPa) = 51.24700 53.58470 52.41585
# Shear Modulus (GPa) = 23.99161 31.16188 27.57675
#
# Velocity S-wave (km/s) = 3.40543 3.88109 3.65101
# Velocity P-wave (km/s) = 6.34303 6.78124 6.56580
#
# Compressibility (1/GPa) = 0.01951334
#
# Stress axis : x y z
#
# Youngs Moduli (GPa) = 66.03027 77.98796 104.80359
#
# Poissons Ratio (x) = 0.32607 0.16732
# Poissons Ratio (y) = 0.27607 0.33748
# Poissons Ratio (z) = 0.10542 0.25113
#
# Static dielectric constant tensor:
#      x y z
#    x 1.827940 0.000000 0.022930 
#    y 0.000000 1.828840 0.000000 
#    z 0.022930 0.000000 1.835810 
# 
# From -- ./inp_files/302170.got.cif
#   From: 2010.05.17/outbox.cif.g08.bks.cpg/sg15_152_cif.got.tgz:302170.got - 2010.06.03 18:47:42.
