data_PCOD9270098
_publ_section_title
;
Structure prediction by ZEFSAII (Michael W. Deem and Ramdas Pophale) SiO2 
 PCOD9270098
Probable space group: C 2/C
;
_chemical_formula_sum "Si O2"
_cell_formula_units_Z 24
_cell_length_a 10.363400
_cell_length_b 8.355071
_cell_length_c 9.915867
_cell_angle_alpha 90.000000
_cell_angle_beta 80.309844
_cell_angle_gamma 90.000000
_cell_volume 846.334669
_symmetry_space_group_name_H-M "C 2/C"
_symmetry_group_IT_number 15
_symmetry_cell_setting 'monoclinic'
loop_
_space_group_symop_operation_xyz
x,y,z
-x,y,1/2-z
-x,-y,-z
x,-y,1/2+z
1/2+x,1/2+y,z
1/2-x,1/2+y,1/2-z
1/2-x,1/2-y,-z
1/2+x,1/2-y,1/2+z
loop_
_atom_site_type_symbol
_atom_site_label
_atom_site_fract_x
_atom_site_fract_y
_atom_site_fract_z
Si Si1 0.414346 0.700298 0.644029
Si Si2 0.348738 0.023667 0.570471
Si Si3 0.861584 0.137684 0.113731
O O1 0.500000 0.771662 0.750000
O O2 0.316246 0.843794 0.623647
O O3 0.508259 0.663401 0.500585
O O4 0.376496 0.521567 0.699040
O O5 0.500000 0.000000 0.500000
O O6 0.256070 0.081553 0.465008
O O7 0.343921 0.180334 0.667708
#
# Coordination Sequence:
#
# PCOD9270098 Si02
#       3
#     8   8   8
#     4  10  20  35  55  83 110 145 188 224 275 331
#     4   9  18  36  58  76 107 146 184 226 280 326
#     4   9  19  37  56  79 112 147 179 230 278 324
#
# _framework density 28.357575000000001
#
# number of rings (size 3 to 8) (size 9 to 14) (size 15 to 20)
#    0.000    2.667    0.000    1.000    0.000    1.333 
#   18.000    0.000    0.000    0.000    0.000    0.000 
#    0.000    0.000    0.000    0.000    0.000    0.000 
#
# Total GULP energy -67035.747133 kJ/mol
# GULP energy per Si atom -5586.312261 kJ/mol
# Density = 2.829303 g / cm^3
# Si number density = 28.357575 Si / 1000 Ang^3
#
#
#
# Elastic Constant Matrix: (Units=GPa)
#
#
# Indices 1 2 3 4 5 6 
#
# 1 102.6307 92.2669 12.8902 0.0000 -1.5944 0.0000
# 2 92.2669 339.0656 57.9957 0.0000 -15.6150 0.0000
# 3 12.8902 57.9957 21.9733 0.0000 -12.7960 0.0000
# 4 0.0000 0.0000 0.0000 58.3629 0.0000 -13.9583
# 5 -1.5944 -15.6150 -12.7960 0.0000 49.3684 0.0000
# 6 0.0000 0.0000 0.0000 -13.9583 0.0000 73.4603
#
#
#
# Elastic Compliance Matrix: (Units=1/GPa)
#
#
# Indices 1 2 3 4 5 6 
#
# 1 0.013016 -0.004069 0.003061 0.000000 -0.000073 0.000000
# 2 -0.004069 0.006886 -0.017190 0.000000 -0.002409 0.000000
# 3 0.003061 -0.017190 0.101261 0.000000 0.020908 0.000000
# 4 0.000000 0.000000 0.000000 0.017950 0.000000 0.003411
# 5 -0.000073 -0.002409 0.020908 0.000000 0.024911 0.000000
# 6 0.000000 0.000000 0.000000 0.003411 0.000000 0.014261
#
#
# Mechanical properties :
#
#
# Convention : Reuss Voigt Hill
#
# Bulk Modulus (GPa) = 11.79704 87.77502 49.78603
# Shear Modulus (GPa) = 20.58146 56.27277 38.42712
#
# Velocity S-wave (km/s) = 2.69696 4.45949 3.68515
# Velocity P-wave (km/s) = 3.72388 7.58526 5.97509
#
# Compressibility (1/GPa) = 0.08476701
#
# Stress axis : x y z
#
# Youngs Moduli (GPa) = 76.82791 145.22381 9.87542
#
# Poissons Ratio (x) = 0.59090 -0.03023
# Poissons Ratio (y) = 0.31261 0.16976
# Poissons Ratio (z) = -0.23518 2.49646
#
# Static dielectric constant tensor:
#      x y z
#    x 2.400490 0.000000 -0.107370 
#    y 0.000000 2.274040 0.000000 
#    z -0.107370 0.000000 2.197100 
# 
# From -- ./inp_files/83139.got.cif
#   From: 2010.05.17/outbox.cif.g08.bks.cpg/sg15_42_cif.got.tgz:83139.got - 2010.06.03 18:47:42.
