data_PCOD9270438
_publ_section_title
;
Structure prediction by ZEFSAII (Michael W. Deem and Ramdas Pophale) SiO2 
 PCOD9270438
Probable space group: C 2/C
;
_chemical_formula_sum "Si O2"
_cell_formula_units_Z 56
_cell_length_a 21.037136
_cell_length_b 9.490020
_cell_length_c 13.027810
_cell_angle_alpha 90.000000
_cell_angle_beta 122.377251
_cell_angle_gamma 90.000000
_cell_volume 2196.573268
_symmetry_space_group_name_H-M "C 2/C"
_symmetry_group_IT_number 15
_symmetry_cell_setting 'monoclinic'
loop_
_space_group_symop_operation_xyz
x,y,z
-x,y,1/2-z
-x,-y,-z
x,-y,1/2+z
1/2+x,1/2+y,z
1/2-x,1/2+y,1/2-z
1/2-x,1/2-y,-z
1/2+x,1/2-y,1/2+z
loop_
_atom_site_type_symbol
_atom_site_label
_atom_site_fract_x
_atom_site_fract_y
_atom_site_fract_z
Si Si1 0.106081 0.006724 0.790101
Si Si2 0.621113 0.215108 0.753703
Si Si3 0.229513 0.930238 0.039230
Si Si4 0.629924 0.310997 0.121251
Si Si5 0.095840 0.713072 0.394959
Si Si6 0.449529 0.077103 0.352845
Si Si7 0.780693 0.218702 0.355875
O O1 0.077043 0.847287 0.762451
O O2 0.090801 0.077683 0.665168
O O3 0.080921 0.121755 0.854321
O O4 0.194406 0.977583 0.899844
O O5 0.692297 0.156314 0.883780
O O6 0.660094 0.279780 0.685694
O O7 0.568370 0.086532 0.672888
O O8 0.158535 0.855971 0.035210
O O9 0.239928 0.065510 0.121123
O O10 0.586004 0.163029 0.083911
O O11 0.707632 0.289695 0.249324
O O12 0.092474 0.639908 0.282927
O O13 0.176596 0.703826 0.515526
O O14 0.033867 0.633259 0.408870
#
# Coordination Sequence:
#
# PCOD9270438 Si02
#       7
#     8   8   8   8   8   8   8
#     4  10  21  37  62  89 121 159 199 255 297 363
#     4  11  21  36  61  92 125 154 202 251 306 351
#     4  10  20  35  58  97 124 152 201 247 306 362
#     4  10  20  37  62  86 122 161 198 246 308 354
#     4   9  22  41  61  82 118 164 210 238 304 363
#     4  10  21  40  60  83 121 163 198 252 297 365
#     4  10  20  36  61  92 120 156 204 249 294 372
#
# _framework density 25.494254999999999
#
# number of rings (size 3 to 8) (size 9 to 14) (size 15 to 20)
#    0.000    2.000    2.857    0.429    2.000    2.286 
#    2.571    8.571    3.143    0.000    0.000    0.000 
#    0.000    0.000    0.000    0.000    0.000    0.000 
#
# Total GULP energy -156460.363621 kJ/mol
# GULP energy per Si atom -5587.870129 kJ/mol
# Density = 2.543623 g / cm^3
# Si number density = 25.494255 Si / 1000 Ang^3
#
#
#
# Elastic Constant Matrix: (Units=GPa)
#
#
# Indices 1 2 3 4 5 6 
#
# 1 98.9646 53.1797 7.9782 0.0000 9.3744 0.0000
# 2 53.1797 182.1030 26.5883 0.0000 1.6029 0.0000
# 3 7.9782 26.5883 68.9581 0.0000 -9.4854 0.0000
# 4 0.0000 0.0000 0.0000 24.1855 0.0000 -9.6948
# 5 9.3744 1.6029 -9.4854 0.0000 19.3370 0.0000
# 6 0.0000 0.0000 0.0000 -9.6948 0.0000 11.0016
#
#
#
# Elastic Compliance Matrix: (Units=1/GPa)
#
#
# Indices 1 2 3 4 5 6 
#
# 1 0.012664 -0.003498 -0.000988 0.000000 -0.006334 0.000000
# 2 -0.003498 0.006838 -0.002227 0.000000 0.000037 0.000000
# 3 -0.000988 -0.002227 0.016692 0.000000 0.008851 0.000000
# 4 0.000000 0.000000 0.000000 0.063929 0.000000 0.056336
# 5 -0.006334 0.000037 0.008851 0.000000 0.059124 0.000000
# 6 0.000000 0.000000 0.000000 0.056336 0.000000 0.140540
#
#
# Mechanical properties :
#
#
# Convention : Reuss Voigt Hill
#
# Bulk Modulus (GPa) = 43.92009 58.39090 51.15549
# Shear Modulus (GPa) = 15.58595 28.39011 21.98803
#
# Velocity S-wave (km/s) = 2.47523 3.34067 2.93997
# Velocity P-wave (km/s) = 5.04320 6.15088 5.62438
#
# Compressibility (1/GPa) = 0.02276862
#
# Stress axis : x y z
#
# Youngs Moduli (GPa) = 78.96336 146.24570 59.90953
#
# Poissons Ratio (x) = 0.51162 0.05916
# Poissons Ratio (y) = 0.27624 0.13340
# Poissons Ratio (z) = 0.07798 0.32564
#
# Static dielectric constant tensor:
#      x y z
#    x 2.094670 0.000000 -0.058080 
#    y 0.000000 2.073980 0.000000 
#    z -0.058080 0.000000 2.036330 
# 
# From -- ./inp_files/172503.got.cif
#   From: 2010.05.17/outbox.cif.g08.bks.cpg/sg15_87_cif.got.tgz:172503.got - 2010.06.03 18:47:42.
