data_PCOD9270090
_publ_section_title
;
Structure prediction by ZEFSAII (Michael W. Deem and Ramdas Pophale) SiO2 
 PCOD9270090
Probable space group: C 2/C
;
_chemical_formula_sum "Si O2"
_cell_formula_units_Z 52
_cell_length_a 22.320533
_cell_length_b 11.805114
_cell_length_c 21.562140
_cell_angle_alpha 90.000000
_cell_angle_beta 147.988705
_cell_angle_gamma 90.000000
_cell_volume 3011.711017
_symmetry_space_group_name_H-M "C 2/C"
_symmetry_group_IT_number 15
_symmetry_cell_setting 'monoclinic'
loop_
_space_group_symop_operation_xyz
x,y,z
-x,y,1/2-z
-x,-y,-z
x,-y,1/2+z
1/2+x,1/2+y,z
1/2-x,1/2+y,1/2-z
1/2-x,1/2-y,-z
1/2+x,1/2-y,1/2+z
loop_
_atom_site_type_symbol
_atom_site_label
_atom_site_fract_x
_atom_site_fract_y
_atom_site_fract_z
Si Si1 0.000000 0.946089 0.750000
Si Si2 0.268243 0.609716 0.862189
Si Si3 0.668716 0.332899 0.220089
Si Si4 0.105081 0.422989 0.668953
Si Si5 0.148215 0.493198 0.066244
Si Si6 0.993925 0.978792 0.880401
Si Si7 0.183554 0.164776 0.339188
O O1 0.110100 0.867970 0.834892
O O2 0.010968 0.014579 0.823273
O O3 0.285920 0.666382 0.810231
O O4 0.182931 0.506267 0.777259
O O5 0.218178 0.706268 0.862463
O O6 0.389520 0.565040 0.990508
O O7 0.633046 0.207199 0.206418
O O8 0.765722 0.388844 0.347869
O O9 0.564025 0.420436 0.132929
O O10 0.132539 0.449757 0.620488
O O11 0.973694 0.452094 0.562576
O O12 0.208178 0.584239 0.074512
O O13 0.902458 0.876618 0.791662
#
# Coordination Sequence:
#
# PCOD9270090 Si02
#       7
#     4   8   8   8   8   8   8
#     4   8  20  40  60  80 108 160 198 222 286 330
#     4  11  21  32  58  86 117 142 193 239 286 339
#     4  10  20  35  55  81 119 149 186 234 291 341
#     4  10  21  32  53  87 115 152 178 228 293 344
#     4   9  19  35  52  79 117 151 179 224 287 340
#     4   9  21  37  56  84 106 155 192 234 277 340
#     4   9  19  37  57  81 109 151 184 239 278 330
#
# _framework density 17.265933
#
# number of rings (size 3 to 8) (size 9 to 14) (size 15 to 20)
#    0.923    1.538    1.538    0.462    4.308    1.846 
#    0.000    0.000    0.000    4.615    0.000    0.000 
#    0.000    0.000    0.000    0.000    0.000    0.000 
#
# Total GULP energy -144800.083901 kJ/mol
# GULP energy per Si atom -5569.233996 kJ/mol
# Density = 1.722663 g / cm^3
# Si number density = 17.265933 Si / 1000 Ang^3
#
#
#
# Elastic Constant Matrix: (Units=GPa)
#
#
# Indices 1 2 3 4 5 6 
#
# 1 43.9820 -3.7707 -5.6085 0.0000 17.3267 0.0000
# 2 -3.7707 88.8123 45.3140 0.0000 22.2799 0.0000
# 3 -5.6085 45.3140 90.4996 0.0000 29.9209 0.0000
# 4 0.0000 0.0000 0.0000 5.9822 0.0000 -0.0794
# 5 17.3267 22.2799 29.9209 0.0000 26.2733 0.0000
# 6 0.0000 0.0000 0.0000 -0.0794 0.0000 9.5606
#
#
#
# Elastic Compliance Matrix: (Units=1/GPa)
#
#
# Indices 1 2 3 4 5 6 
#
# 1 0.050667 0.007662 0.020047 0.000000 -0.062741 0.000000
# 2 0.007662 0.017064 -0.002589 0.000000 -0.016575 0.000000
# 3 0.020047 -0.002589 0.027641 0.000000 -0.042503 0.000000
# 4 0.000000 0.000000 0.000000 0.167180 0.000000 0.001388
# 5 -0.062741 -0.016575 -0.042503 0.000000 0.141897 0.000000
# 6 0.000000 0.000000 0.000000 0.001388 0.000000 0.104608
#
#
# Mechanical properties :
#
#
# Convention : Reuss Voigt Hill
#
# Bulk Modulus (GPa) = 6.86758 32.79593 19.83175
# Shear Modulus (GPa) = 9.85504 20.85384 15.35444
#
# Velocity S-wave (km/s) = 2.39169 3.47912 2.98533
# Velocity P-wave (km/s) = 3.40780 5.93084 4.83673
#
# Compressibility (1/GPa) = 0.14561171
#
# Stress axis : x y z
#
# Youngs Moduli (GPa) = 19.73683 58.60202 36.17820
#
# Poissons Ratio (x) = -0.44904 -0.72526
# Poissons Ratio (y) = -0.15123 0.09368
# Poissons Ratio (z) = -0.39566 0.15174
#
# Static dielectric constant tensor:
#      x y z
#    x 1.593510 0.000000 0.003840 
#    y 0.000000 1.559180 0.000000 
#    z 0.003840 0.000000 1.585980 
# 
# From -- ./inp_files/252771.got.cif
#   From: 2010.05.17/outbox.cif.g08.bks.cpg/sg15_127_cif.got.tgz:252771.got - 2010.06.03 18:47:42.
