data_PCOD9270026
_publ_section_title
;
Structure prediction by ZEFSAII (Michael W. Deem and Ramdas Pophale) SiO2 
 PCOD9270026
Probable space group: C 2/C
;
_chemical_formula_sum "Si O2"
_cell_formula_units_Z 60
_cell_length_a 20.370800
_cell_length_b 20.281945
_cell_length_c 11.426549
_cell_angle_alpha 90.000000
_cell_angle_beta 149.922743
_cell_angle_gamma 90.000000
_cell_volume 2366.004056
_symmetry_space_group_name_H-M "C 2/C"
_symmetry_group_IT_number 15
_symmetry_cell_setting 'monoclinic'
loop_
_space_group_symop_operation_xyz
x,y,z
-x,y,1/2-z
-x,-y,-z
x,-y,1/2+z
1/2+x,1/2+y,z
1/2-x,1/2+y,1/2-z
1/2-x,1/2-y,-z
1/2+x,1/2-y,1/2+z
loop_
_atom_site_type_symbol
_atom_site_label
_atom_site_fract_x
_atom_site_fract_y
_atom_site_fract_z
Si Si1 0.642702 0.504316 0.418953
Si Si2 0.449510 0.120524 0.346377
Si Si3 0.351443 0.779827 0.979964
Si Si4 0.687589 0.081487 0.137436
Si Si5 0.334075 0.393344 0.212599
Si Si6 0.000000 0.486096 0.750000
Si Si7 0.843628 0.140568 0.998025
Si Si8 0.894916 0.242512 0.777635
O O1 0.500000 0.515890 0.250000
O O2 0.715701 0.458690 0.628043
O O3 0.625499 0.463893 0.273031
O O4 0.701311 0.577662 0.496659
O O5 0.427850 0.102675 0.447933
O O6 0.488275 0.196788 0.384687
O O7 0.523103 0.062234 0.395139
O O8 0.307373 0.116663 0.064943
O O9 0.271037 0.847949 0.851618
O O10 0.370300 0.755371 0.875966
O O11 0.500000 0.794605 0.250000
O O12 0.290786 0.713714 0.944823
O O13 0.625026 0.033280 0.945624
O O14 0.320127 0.383582 0.328784
O O15 0.428527 0.334079 0.312985
O O16 0.000000 0.150749 0.250000
O O17 0.750000 0.250000 0.500000
#
# Coordination Sequence:
#
# PCOD9270026 Si02
#       8
#     8   8   8   8   8   4   8   8
#     4  10  21  35  53  82 109 141 188 231 273 319
#     4   9  19  32  51  78 108 148 183 220 272 330
#     4   9  16  31  54  81 102 140 191 223 264 335
#     4  10  20  35  54  80 113 148 180 223 281 341
#     4   9  17  34  54  74 108 146 181 225 275 322
#     4  12  20  32  54  86 116 138 176 232 286 334
#     4   9  18  31  53  81  99 134 191 230 263 321
#     4   8  15  30  52  74 105 145 190 220 260 329
#
# _framework density 25.359213
#
# number of rings (size 3 to 8) (size 9 to 14) (size 15 to 20)
#    0.000    2.667    0.667    2.000    0.000    2.133 
#    1.200    0.000    0.000    0.000    0.000    7.467 
#    0.000    0.000    0.000    0.000    0.000    0.000 
#
# Total GULP energy -167418.799787 kJ/mol
# GULP energy per Si atom -5580.626660 kJ/mol
# Density = 2.530149 g / cm^3
# Si number density = 25.359213 Si / 1000 Ang^3
#
#
#
# Elastic Constant Matrix: (Units=GPa)
#
#
# Indices 1 2 3 4 5 6 
#
# 1 45.5255 42.7115 11.0536 0.0000 -12.5456 0.0000
# 2 42.7115 257.7606 11.1918 0.0000 -7.4500 0.0000
# 3 11.0536 11.1918 104.4034 0.0000 -12.1651 0.0000
# 4 0.0000 0.0000 0.0000 10.0778 0.0000 -7.4205
# 5 -12.5456 -7.4500 -12.1651 0.0000 25.5032 0.0000
# 6 0.0000 0.0000 0.0000 -7.4205 0.0000 24.2288
#
#
#
# Elastic Compliance Matrix: (Units=1/GPa)
#
#
# Indices 1 2 3 4 5 6 
#
# 1 0.030090 -0.004561 -0.001194 0.000000 0.012900 0.000000
# 2 -0.004561 0.004613 -0.000123 0.000000 -0.000955 0.000000
# 3 -0.001194 -0.000123 0.010213 0.000000 0.004248 0.000000
# 4 0.000000 0.000000 0.000000 0.128120 0.000000 0.039239
# 5 0.012900 -0.000955 0.004248 0.000000 0.047304 0.000000
# 6 0.000000 0.000000 0.000000 0.039239 0.000000 0.053291
#
#
# Mechanical properties :
#
#
# Convention : Reuss Voigt Hill
#
# Bulk Modulus (GPa) = 30.15673 59.73372 44.94523
# Shear Modulus (GPa) = 16.86684 34.81080 25.83882
#
# Velocity S-wave (km/s) = 2.58178 3.70903 3.19550
# Velocity P-wave (km/s) = 4.56126 6.47678 5.60151
#
# Compressibility (1/GPa) = 0.03316009
#
# Stress axis : x y z
#
# Youngs Moduli (GPa) = 33.23394 216.77314 97.91627
#
# Poissons Ratio (x) = 0.98876 0.11688
# Poissons Ratio (y) = 0.15159 0.01203
# Poissons Ratio (z) = 0.03967 0.02663
#
# Static dielectric constant tensor:
#      x y z
#    x 2.030300 0.000000 0.012730 
#    y 0.000000 2.198390 0.000000 
#    z 0.012730 0.000000 1.941500 
# 
# From -- ./inp_files/119975.got.cif
#   From: 2010.05.17/outbox.cif.g08.bks.cpg/sg15_60_cif.got.tgz:119975.got - 2010.06.03 18:47:42.
