data_PCOD9270566
_publ_section_title
;
Structure prediction by ZEFSAII (Michael W. Deem and Ramdas Pophale) SiO2 
 PCOD9270566
Probable space group: C 2/C
;
_chemical_formula_sum "Si O2"
_cell_formula_units_Z 56
_cell_length_a 14.712585
_cell_length_b 11.216213
_cell_length_c 18.078984
_cell_angle_alpha 90.000000
_cell_angle_beta 128.350703
_cell_angle_gamma 90.000000
_cell_volume 2339.652597
_symmetry_space_group_name_H-M "C 2/C"
_symmetry_group_IT_number 15
_symmetry_cell_setting 'monoclinic'
loop_
_space_group_symop_operation_xyz
x,y,z
-x,y,1/2-z
-x,-y,-z
x,-y,1/2+z
1/2+x,1/2+y,z
1/2-x,1/2+y,1/2-z
1/2-x,1/2-y,-z
1/2+x,1/2-y,1/2+z
loop_
_atom_site_type_symbol
_atom_site_label
_atom_site_fract_x
_atom_site_fract_y
_atom_site_fract_z
Si Si1 0.193650 0.928046 0.958269
Si Si2 0.981882 0.781522 0.831179
Si Si3 0.260916 0.619335 0.178142
Si Si4 0.763915 0.315437 0.430069
Si Si5 0.075819 0.461383 0.361402
Si Si6 0.504874 0.185036 0.086743
Si Si7 0.902395 0.122075 0.760423
O O1 0.228279 0.848534 0.904168
O O2 0.063368 0.884482 0.908143
O O3 0.217635 0.054195 0.930616
O O4 0.286405 0.934027 0.071245
O O5 0.844059 0.793411 0.766494
O O6 0.000000 0.793154 0.750000
O O7 0.026980 0.653816 0.879877
O O8 0.125827 0.628589 0.124162
O O9 0.318940 0.491548 0.230822
O O10 0.750000 0.250000 0.500000
O O11 0.676675 0.279257 0.321420
O O12 0.898288 0.303917 0.475800
O O13 0.000000 0.462304 0.250000
O O14 0.051033 0.587162 0.386606
O O15 0.535643 0.311048 0.140737
O O16 0.000000 0.085167 0.750000
#
# Coordination Sequence:
#
# PCOD9270566 Si02
#       7
#     8   8   8   8   8   8   8
#     4   9  19  36  61  84 112 155 203 245 287 366
#     4   9  18  36  59  83 111 152 198 237 289 358
#     4  10  22  38  58  88 116 157 200 246 300 358
#     4  10  20  35  60  90 115 153 206 253 295 353
#     4  10  21  35  58  86 117 150 195 247 301 351
#     4  11  24  37  59  90 126 153 198 256 306 361
#     4  11  21  39  66  87 118 162 208 250 295 363
#
# _framework density 23.935178000000001
#
# number of rings (size 3 to 8) (size 9 to 14) (size 15 to 20)
#    0.000    2.000    1.429    3.000    4.000    5.143 
#    0.000    0.000    0.000    1.714    0.000    0.000 
#    0.000    0.000    0.000    0.000    0.000    0.000 
#
# Total GULP energy -156008.217528 kJ/mol
# GULP energy per Si atom -5571.722055 kJ/mol
# Density = 2.388070 g / cm^3
# Si number density = 23.935178 Si / 1000 Ang^3
#
#
#
# Elastic Constant Matrix: (Units=GPa)
#
#
# Indices 1 2 3 4 5 6 
#
# 1 58.3931 -6.1194 17.1500 0.0000 36.0535 0.0000
# 2 -6.1194 44.8356 -7.3178 0.0000 4.9560 0.0000
# 3 17.1500 -7.3178 137.1831 0.0000 38.5942 0.0000
# 4 0.0000 0.0000 0.0000 15.6925 0.0000 7.9950
# 5 36.0535 4.9560 38.5942 0.0000 42.0454 0.0000
# 6 0.0000 0.0000 0.0000 7.9950 0.0000 12.6006
#
#
#
# Elastic Compliance Matrix: (Units=1/GPa)
#
#
# Indices 1 2 3 4 5 6 
#
# 1 0.046531 0.013274 0.008839 0.000000 -0.049578 0.000000
# 2 0.013274 0.027114 0.005242 0.000000 -0.019390 0.000000
# 3 0.008839 0.005242 0.011824 0.000000 -0.019050 0.000000
# 4 0.000000 0.000000 0.000000 0.094165 0.000000 -0.059747
# 5 -0.049578 -0.019390 -0.019050 0.000000 0.086069 0.000000
# 6 0.000000 0.000000 0.000000 -0.059747 0.000000 0.117270
#
#
# Mechanical properties :
#
#
# Convention : Reuss Voigt Hill
#
# Bulk Modulus (GPa) = 7.13378 27.53749 17.33564
# Shear Modulus (GPa) = 13.33370 29.84764 21.59067
#
# Velocity S-wave (km/s) = 2.36281 3.53515 3.00667
# Velocity P-wave (km/s) = 3.22966 5.30971 4.39453
#
# Compressibility (1/GPa) = 0.14017809
#
# Stress axis : x y z
#
# Youngs Moduli (GPa) = 21.49093 36.88106 84.57648
#
# Poissons Ratio (x) = -0.48955 -0.74756
# Poissons Ratio (y) = -0.28526 -0.44334
# Poissons Ratio (z) = -0.18996 -0.19333
#
# Static dielectric constant tensor:
#      x y z
#    x 1.955270 0.000000 -0.031030 
#    y 0.000000 2.082450 0.000000 
#    z -0.031030 0.000000 2.950770 
# 
# From -- ./inp_files/277118.got.cif
#   From: 2010.05.17/outbox.cif.g08.bks.cpg/sg15_139_cif.got.tgz:277118.got - 2010.06.03 18:47:42.
