data_PCOD9270802
_publ_section_title
;
Structure prediction by ZEFSAII (Michael W. Deem and Ramdas Pophale) SiO2 
 PCOD9270802
Probable space group: C 2/C
;
_chemical_formula_sum "Si O2"
_cell_formula_units_Z 64
_cell_length_a 6.010678
_cell_length_b 17.183567
_cell_length_c 33.088827
_cell_angle_alpha 90.000000
_cell_angle_beta 89.065205
_cell_angle_gamma 90.000000
_cell_volume 3417.120947
_symmetry_space_group_name_H-M "C 2/C"
_symmetry_group_IT_number 15
_symmetry_cell_setting 'monoclinic'
loop_
_space_group_symop_operation_xyz
x,y,z
-x,y,1/2-z
-x,-y,-z
x,-y,1/2+z
1/2+x,1/2+y,z
1/2-x,1/2+y,1/2-z
1/2-x,1/2-y,-z
1/2+x,1/2-y,1/2+z
loop_
_atom_site_type_symbol
_atom_site_label
_atom_site_fract_x
_atom_site_fract_y
_atom_site_fract_z
Si Si1 0.107877 0.350331 0.292850
Si Si2 0.997713 0.207532 0.000713
Si Si3 0.699230 0.766643 0.647350
Si Si4 0.616317 0.089590 0.355105
Si Si5 0.411250 0.679552 0.410864
Si Si6 0.298246 0.945939 0.352574
Si Si7 0.083545 0.997993 0.706486
Si Si8 0.411027 0.670196 0.587611
O O1 0.225788 0.276624 0.312539
O O2 0.274993 0.423107 0.286991
O O3 0.000000 0.333510 0.250000
O O4 0.929382 0.380655 0.326371
O O5 0.006765 0.161195 0.958474
O O6 0.750000 0.250000 0.000000
O O7 0.250000 0.250000 0.000000
O O8 0.999951 0.166140 0.044268
O O9 0.518549 0.832989 0.655474
O O10 0.602205 0.701582 0.617027
O O11 0.896931 0.807678 0.622416
O O12 0.756954 0.111486 0.394247
O O13 0.768202 0.064333 0.317259
O O14 0.459968 0.016043 0.363635
O O15 0.269950 0.759865 0.411834
O O16 0.191008 0.905664 0.391687
O O17 0.115533 0.980140 0.322814
O O18 0.000000 0.970008 0.750000
#
# Coordination Sequence:
#
# PCOD9270802 Si02
#       8
#     8   8   8   8   8   8   8   8
#     4  11  22  37  66  94 118 158 212 271 319 374
#     4  10  20  36  64 102 133 171 220 281 333 399
#     4  11  20  39  64  89 127 158 208 266 324 384
#     4  10  25  39  62  89 126 174 205 255 332 396
#     4  10  20  39  61  92 131 166 211 267 329 385
#     4  11  21  40  63  90 122 166 217 256 319 390
#     4  11  22  41  66  85 121 167 216 260 315 390
#     4  10  20  35  66  96 121 167 217 267 321 385
#
# _framework density 18.729216999999998
#
# number of rings (size 3 to 8) (size 9 to 14) (size 15 to 20)
#    0.000    1.500    5.000    0.750    0.000    0.000 
#    0.000    4.375    2.750    3.000    0.000    0.000 
#    0.000    0.000    0.000    0.000    0.000    0.000 
#
# Total GULP energy -178495.148001 kJ/mol
# GULP energy per Si atom -5577.973375 kJ/mol
# Density = 1.868659 g / cm^3
# Si number density = 18.729217 Si / 1000 Ang^3
#
#
#
# Elastic Constant Matrix: (Units=GPa)
#
#
# Indices 1 2 3 4 5 6 
#
# 1 86.5832 29.6718 59.0260 0.0000 16.2465 0.0000
# 2 29.6718 65.0513 74.3322 0.0000 12.2184 0.0000
# 3 59.0260 74.3322 160.0005 0.0000 25.0198 0.0000
# 4 0.0000 0.0000 0.0000 21.9225 0.0000 10.8308
# 5 16.2465 12.2184 25.0198 0.0000 19.3311 0.0000
# 6 0.0000 0.0000 0.0000 10.8308 0.0000 26.7764
#
#
#
# Elastic Compliance Matrix: (Units=1/GPa)
#
#
# Indices 1 2 3 4 5 6 
#
# 1 0.016264 -0.001055 -0.004359 0.000000 -0.007360 0.000000
# 2 -0.001055 0.032860 -0.014754 0.000000 -0.000787 0.000000
# 3 -0.004359 -0.014754 0.015899 0.000000 -0.007589 0.000000
# 4 0.000000 0.000000 0.000000 0.057007 0.000000 -0.023059
# 5 -0.007360 -0.000787 -0.007589 0.000000 0.068236 0.000000
# 6 0.000000 0.000000 0.000000 -0.023059 0.000000 0.046673
#
#
# Mechanical properties :
#
#
# Convention : Reuss Voigt Hill
#
# Bulk Modulus (GPa) = 40.50626 70.85500 55.68063
# Shear Modulus (GPa) = 17.51288 23.51300 20.51294
#
# Velocity S-wave (km/s) = 3.06119 3.54703 3.31303
# Velocity P-wave (km/s) = 5.84540 7.39518 6.66549
#
# Compressibility (1/GPa) = 0.02468754
#
# Stress axis : x y z
#
# Youngs Moduli (GPa) = 61.48650 30.43189 62.89781
#
# Poissons Ratio (x) = 0.03212 0.27415
# Poissons Ratio (y) = 0.06490 0.92797
# Poissons Ratio (z) = 0.26799 0.44898
#
# Static dielectric constant tensor:
#      x y z
#    x 1.716370 0.000000 0.002750 
#    y 0.000000 1.617700 0.000000 
#    z 0.002750 0.000000 1.614140 
# 
# From -- ./inp_files/305797.got.cif
#   From: 2010.05.17/outbox.cif.g08.bks.cpg/sg15_153_cif.got.tgz:305797.got - 2010.06.03 18:47:42.
