data_PCOD9270703
_publ_section_title
;
Structure prediction by ZEFSAII (Michael W. Deem and Ramdas Pophale) SiO2 
 PCOD9270703
Probable space group: C 2/C
;
_chemical_formula_sum "Si O2"
_cell_formula_units_Z 32
_cell_length_a 7.627322
_cell_length_b 18.378786
_cell_length_c 13.657364
_cell_angle_alpha 90.000000
_cell_angle_beta 45.694273
_cell_angle_gamma 90.000000
_cell_volume 1370.061393
_symmetry_space_group_name_H-M "C 2/C"
_symmetry_group_IT_number 15
_symmetry_cell_setting 'monoclinic'
loop_
_space_group_symop_operation_xyz
x,y,z
-x,y,1/2-z
-x,-y,-z
x,-y,1/2+z
1/2+x,1/2+y,z
1/2-x,1/2+y,1/2-z
1/2-x,1/2-y,-z
1/2+x,1/2-y,1/2+z
loop_
_atom_site_type_symbol
_atom_site_label
_atom_site_fract_x
_atom_site_fract_y
_atom_site_fract_z
Si Si1 0.027699 0.697421 0.052321
Si Si2 0.300362 0.532511 0.703658
Si Si3 0.663369 0.033737 0.048932
Si Si4 0.736704 0.691715 0.731308
O O1 0.084346 0.617326 0.069178
O O2 0.797097 0.736069 0.192056
O O3 0.250000 0.750000 0.000000
O O4 0.036781 0.694924 0.931433
O O5 0.588231 0.520183 0.609273
O O6 0.244851 0.486267 0.628030
O O7 0.270078 0.619292 0.701033
O O8 0.085455 0.512585 0.863966
O O9 0.500000 0.683883 0.750000
#
# Coordination Sequence:
#
# PCOD9270703 Si02
#       4
#     8   8   8   8
#     4  10  20  35  62  91 117 157 214 247 289 357
#     4  10  21  36  58  91 123 155 203 247 307 359
#     4  10  21  36  61  87 117 165 197 250 299 365
#     4  10  20  36  60  94 117 153 206 262 285 355
#
# _framework density 23.356617
#
# number of rings (size 3 to 8) (size 9 to 14) (size 15 to 20)
#    0.000    2.000    5.000    0.000   10.500    1.000 
#    0.000    0.000    0.000   13.500    0.000    0.000 
#    0.000    0.000    0.000    0.000    0.000    0.000 
#
# Total GULP energy -89271.336873 kJ/mol
# GULP energy per Si atom -5579.458555 kJ/mol
# Density = 2.330346 g / cm^3
# Si number density = 23.356617 Si / 1000 Ang^3
#
#
#
# Elastic Constant Matrix: (Units=GPa)
#
#
# Indices 1 2 3 4 5 6 
#
# 1 70.2062 30.0872 43.4917 0.0000 -13.8550 0.0000
# 2 30.0872 136.1603 68.8514 0.0000 -3.3115 0.0000
# 3 43.4917 68.8514 175.7548 0.0000 -5.9837 0.0000
# 4 0.0000 0.0000 0.0000 40.4252 0.0000 2.3559
# 5 -13.8550 -3.3115 -5.9837 0.0000 39.1850 0.0000
# 6 0.0000 0.0000 0.0000 2.3559 0.0000 -1.8631
#
#
#
# Elastic Compliance Matrix: (Units=1/GPa)
#
#
# Indices 1 2 3 4 5 6 
#
# 1 0.018509 -0.002160 -0.003536 0.000000 0.005822 0.000000
# 2 -0.002160 0.009413 -0.003168 0.000000 -0.000452 0.000000
# 3 -0.003536 -0.003168 0.007795 0.000000 -0.000328 0.000000
# 4 0.000000 0.000000 0.000000 0.023039 0.000000 0.029133
# 5 0.005822 -0.000452 -0.000328 0.000000 0.027490 0.000000
# 6 0.000000 0.000000 0.000000 0.029133 0.000000 -0.499911
#
#
# Mechanical properties :
#
#
# Convention : Reuss Voigt Hill
#
# Bulk Modulus (GPa) = 55.59350 74.10911 64.85131
# Shear Modulus (GPa) = -12.82245 31.52882 9.35319
#
# Velocity S-wave (km/s) = -2.34559 3.67807 2.00330
# Velocity P-wave (km/s) = 4.06423 7.05945 5.75994
#
# Compressibility (1/GPa) = 0.01798771
#
# Stress axis : x y z
#
# Youngs Moduli (GPa) = 54.02837 106.23924 128.29370
#
# Poissons Ratio (x) = 0.22953 0.45359
# Poissons Ratio (y) = 0.11673 0.40646
# Poissons Ratio (z) = 0.19102 0.33658
#
# Static dielectric constant tensor:
#      x y z
#    x 1.797980 0.000000 0.016970 
#    y 0.000000 1.813260 0.000000 
#    z 0.016970 0.000000 2.010060 
# 
# From -- ./inp_files/189579.got.cif
#   From: 2010.05.17/outbox.cif.g08.bks.cpg/sg15_95_cif.got.tgz:189579.got - 2010.06.03 18:47:42.
