data_PCOD9270646
_publ_section_title
;
Structure prediction by ZEFSAII (Michael W. Deem and Ramdas Pophale) SiO2 
 PCOD9270646
Probable space group: C 2/C
;
_chemical_formula_sum "Si O2"
_cell_formula_units_Z 52
_cell_length_a 7.771951
_cell_length_b 28.369240
_cell_length_c 12.819828
_cell_angle_alpha 90.000000
_cell_angle_beta 55.427614
_cell_angle_gamma 90.000000
_cell_volume 2327.426974
_symmetry_space_group_name_H-M "C 2/C"
_symmetry_group_IT_number 15
_symmetry_cell_setting 'monoclinic'
loop_
_space_group_symop_operation_xyz
x,y,z
-x,y,1/2-z
-x,-y,-z
x,-y,1/2+z
1/2+x,1/2+y,z
1/2-x,1/2+y,1/2-z
1/2-x,1/2-y,-z
1/2+x,1/2-y,1/2+z
loop_
_atom_site_type_symbol
_atom_site_label
_atom_site_fract_x
_atom_site_fract_y
_atom_site_fract_z
Si Si1 0.027643 0.354848 0.510572
Si Si2 0.366266 0.955091 0.514674
Si Si3 0.077222 0.036116 0.384063
Si Si4 0.577822 0.642447 0.469146
Si Si5 0.000000 0.483770 0.250000
Si Si6 0.702380 0.790197 0.758354
Si Si7 0.300311 0.318848 0.238615
O O1 0.226734 0.353987 0.518943
O O2 0.112281 0.342034 0.367293
O O3 0.935131 0.406928 0.543213
O O4 0.866302 0.317696 0.614336
O O5 0.124925 0.964680 0.619753
O O6 0.500000 0.000000 0.500000
O O7 0.413116 0.952528 0.374414
O O8 0.083320 0.089820 0.422268
O O9 0.307760 0.017063 0.278796
O O10 0.000000 0.000000 0.500000
O O11 0.620926 0.680629 0.363886
O O12 0.376245 0.655034 0.608057
O O13 0.500000 0.790290 0.750000
O O14 0.750302 0.735887 0.763428
O O15 0.500000 0.319877 0.250000
#
# Coordination Sequence:
#
# PCOD9270646 Si02
#       7
#     8   8   8   8   4   8   8
#     4  10  20  35  61  91 126 164 214 263 318 384
#     4  11  25  43  62  95 128 170 216 262 319 391
#     4  10  23  41  65  90 124 165 210 261 318 384
#     4  10  20  35  61  90 126 167 213 264 321 376
#     4  10  24  44  68  88 128 166 212 268 330 374
#     4   9  18  33  58  88 126 165 212 267 317 374
#     4   9  18  33  56  92 124 165 215 266 315 374
#
# _framework density 22.342268000000001
#
# number of rings (size 3 to 8) (size 9 to 14) (size 15 to 20)
#    0.000    2.154    0.000    2.769    9.692    4.308 
#    2.769    0.000    0.000    5.538    0.000    0.000 
#    0.000    0.000    0.000    0.000    0.000    0.000 
#
# Total GULP energy -145302.472707 kJ/mol
# GULP energy per Si atom -5588.556643 kJ/mol
# Density = 2.229142 g / cm^3
# Si number density = 22.342268 Si / 1000 Ang^3
#
#
#
# Elastic Constant Matrix: (Units=GPa)
#
#
# Indices 1 2 3 4 5 6 
#
# 1 54.8942 17.4714 35.3528 0.0000 -22.2324 0.0000
# 2 17.4714 107.8043 17.1487 0.0000 -16.5733 0.0000
# 3 35.3528 17.1487 129.8765 0.0000 -21.6635 0.0000
# 4 0.0000 0.0000 0.0000 35.3112 0.0000 2.2059
# 5 -22.2324 -16.5733 -21.6635 0.0000 16.1354 0.0000
# 6 0.0000 0.0000 0.0000 2.2059 0.0000 22.0991
#
#
#
# Elastic Compliance Matrix: (Units=1/GPa)
#
#
# Indices 1 2 3 4 5 6 
#
# 1 0.042239 0.002373 -0.002186 0.000000 0.057702 0.000000
# 2 0.002373 0.011180 0.000436 0.000000 0.015339 0.000000
# 3 -0.002186 0.000436 0.010063 0.000000 0.010947 0.000000
# 4 0.000000 0.000000 0.000000 0.028497 0.000000 -0.002845
# 5 0.057702 0.015339 0.010947 0.000000 0.171932 0.000000
# 6 0.000000 0.000000 0.000000 -0.002845 0.000000 0.045535
#
#
# Mechanical properties :
#
#
# Convention : Reuss Voigt Hill
#
# Bulk Modulus (GPa) = 15.44912 48.05789 31.75351
# Shear Modulus (GPa) = 15.16178 29.54928 22.35553
#
# Velocity S-wave (km/s) = 2.60785 3.64066 3.16665
# Velocity P-wave (km/s) = 3.99970 6.26332 5.25484
#
# Compressibility (1/GPa) = 0.06472859
#
# Stress axis : x y z
#
# Youngs Moduli (GPa) = 23.67483 89.44350 99.37402
#
# Poissons Ratio (x) = -0.21225 0.21726
# Poissons Ratio (y) = -0.05618 -0.04337
# Poissons Ratio (z) = 0.05176 -0.03904
#
# Static dielectric constant tensor:
#      x y z
#    x 1.875330 0.000000 0.025520 
#    y 0.000000 1.724690 0.000000 
#    z 0.025520 0.000000 1.837580 
# 
# From -- ./inp_files/138444.got.cif
#   From: 2010.05.17/outbox.cif.g08.bks.cpg/sg15_70_cif.got.tgz:138444.got - 2010.06.03 18:47:42.
