data_PCOD9270686
_publ_section_title
;
Structure prediction by ZEFSAII (Michael W. Deem and Ramdas Pophale) SiO2 
 PCOD9270686
Probable space group: C 2/C
;
_chemical_formula_sum "Si O2"
_cell_formula_units_Z 48
_cell_length_a 9.155804
_cell_length_b 15.682597
_cell_length_c 27.451198
_cell_angle_alpha 90.000000
_cell_angle_beta 141.730971
_cell_angle_gamma 90.000000
_cell_volume 2441.266732
_symmetry_space_group_name_H-M "C 2/C"
_symmetry_group_IT_number 15
_symmetry_cell_setting 'monoclinic'
loop_
_space_group_symop_operation_xyz
x,y,z
-x,y,1/2-z
-x,-y,-z
x,-y,1/2+z
1/2+x,1/2+y,z
1/2-x,1/2+y,1/2-z
1/2-x,1/2-y,-z
1/2+x,1/2-y,1/2+z
loop_
_atom_site_type_symbol
_atom_site_label
_atom_site_fract_x
_atom_site_fract_y
_atom_site_fract_z
Si Si1 0.802115 0.289058 0.740465
Si Si2 0.376327 0.019836 0.270426
Si Si3 0.777589 0.248497 0.066105
Si Si4 0.497334 0.618456 0.690436
Si Si5 0.273738 0.560921 0.943556
Si Si6 0.473328 0.910835 0.018901
O O1 0.807487 0.382752 0.765103
O O2 0.548635 0.266819 0.651360
O O3 0.878870 0.207346 0.791913
O O4 0.000000 0.293008 0.750000
O O5 0.500000 0.019207 0.250000
O O6 0.145980 0.960546 0.209147
O O7 0.561647 0.980285 0.357073
O O8 0.691154 0.340045 0.063254
O O9 0.750000 0.250000 0.000000
O O10 0.633843 0.164035 0.042406
O O11 0.500000 0.611718 0.750000
O O12 0.228488 0.618533 0.603986
O O13 0.191207 0.570899 0.977629
O O14 0.500000 0.500000 0.000000
O O15 0.500000 0.000000 0.000000
#
# Coordination Sequence:
#
# PCOD9270686 Si02
#       6
#     8   8   8   8   8   8
#     4  10  20  35  62  87 117 162 208 245 297 365
#     4  11  24  39  64  91 123 159 205 254 305 366
#     4  10  20  39  61  90 121 161 206 248 300 371
#     4  11  20  42  62  87 119 161 208 250 297 361
#     4  11  24  40  62  91 126 160 202 255 308 361
#     4  11  24  40  65  91 122 163 206 253 303 365
#
# _framework density 19.661923000000002
#
# number of rings (size 3 to 8) (size 9 to 14) (size 15 to 20)
#    0.000    1.333    3.333    4.000   14.000    0.000 
#    0.000    3.333    0.000    0.000    0.000    0.000 
#    0.000    0.000    0.000    0.000    0.000    0.000 
#
# Total GULP energy -133978.867954 kJ/mol
# GULP energy per Si atom -5582.452831 kJ/mol
# Density = 1.961717 g / cm^3
# Si number density = 19.661923 Si / 1000 Ang^3
#
#
#
# Elastic Constant Matrix: (Units=GPa)
#
#
# Indices 1 2 3 4 5 6 
#
# 1 45.9992 42.5407 20.1157 0.0000 20.9796 0.0000
# 2 42.5407 211.4507 60.5044 0.0000 24.5776 0.0000
# 3 20.1157 60.5044 102.4276 0.0001 38.6834 -0.0001
# 4 0.0000 0.0000 0.0001 39.7719 0.0000 7.7079
# 5 20.9796 24.5776 38.6834 0.0000 36.3171 0.0000
# 6 0.0000 0.0000 -0.0001 7.7079 0.0000 33.0418
#
#
#
# Elastic Compliance Matrix: (Units=1/GPa)
#
#
# Indices 1 2 3 4 5 6 
#
# 1 0.034710 -0.005850 0.004545 0.000000 -0.020933 0.000000
# 2 -0.005850 0.006682 -0.003959 0.000000 0.003075 0.000000
# 3 0.004545 -0.003959 0.018719 0.000000 -0.019885 0.000000
# 4 0.000000 0.000000 0.000000 0.026334 0.000000 -0.006143
# 5 -0.020933 0.003075 -0.019885 0.000000 0.058727 0.000000
# 6 0.000000 0.000000 0.000000 -0.006143 0.000000 0.031698
#
#
# Mechanical properties :
#
#
# Convention : Reuss Voigt Hill
#
# Bulk Modulus (GPa) = 20.16922 67.35546 43.76234
# Shear Modulus (GPa) = 24.51873 37.60725 31.06299
#
# Velocity S-wave (km/s) = 3.53514 4.37818 3.97905
# Velocity P-wave (km/s) = 5.19069 7.73881 6.58910
#
# Compressibility (1/GPa) = 0.04958049
#
# Stress axis : x y z
#
# Youngs Moduli (GPa) = 28.81039 149.66143 53.42175
#
# Poissons Ratio (x) = 0.87559 -0.24279
# Poissons Ratio (y) = 0.16855 0.21151
# Poissons Ratio (z) = -0.13094 0.59256
#
# Static dielectric constant tensor:
#      x y z
#    x 1.583550 0.000000 -0.098530 
#    y 0.000000 1.769230 0.000000 
#    z -0.098530 0.000000 1.583070 
# 
# From -- ./inp_files/289073.got.cif
#   From: 2010.05.17/outbox.cif.g08.bks.cpg/sg15_145_cif.got.tgz:289073.got - 2010.06.03 18:47:42.
