data_PCOD9270296
_publ_section_title
;
Structure prediction by ZEFSAII (Michael W. Deem and Ramdas Pophale) SiO2 
 PCOD9270296
Probable space group: C 2/C
;
_chemical_formula_sum "Si O2"
_cell_formula_units_Z 48
_cell_length_a 25.440302
_cell_length_b 9.624900
_cell_length_c 19.437397
_cell_angle_alpha 90.000000
_cell_angle_beta 148.554883
_cell_angle_gamma 90.000000
_cell_volume 2482.916444
_symmetry_space_group_name_H-M "C 2/C"
_symmetry_group_IT_number 15
_symmetry_cell_setting 'monoclinic'
loop_
_space_group_symop_operation_xyz
x,y,z
-x,y,1/2-z
-x,-y,-z
x,-y,1/2+z
1/2+x,1/2+y,z
1/2-x,1/2+y,1/2-z
1/2-x,1/2-y,-z
1/2+x,1/2-y,1/2+z
loop_
_atom_site_type_symbol
_atom_site_label
_atom_site_fract_x
_atom_site_fract_y
_atom_site_fract_z
Si Si1 0.292343 0.979957 0.423065
Si Si2 0.790253 0.213761 0.262603
Si Si3 0.617126 0.194807 0.869159
Si Si4 0.468683 0.879050 0.518773
Si Si5 0.809367 0.300919 0.698987
Si Si6 0.249337 0.900134 0.093958
O O1 0.391267 0.938931 0.489132
O O2 0.232757 0.842370 0.378066
O O3 0.222860 0.074439 0.296019
O O4 0.327794 0.074807 0.525434
O O5 0.903150 0.261368 0.406893
O O6 0.728575 0.199250 0.264168
O O7 0.742730 0.336514 0.162797
O O8 0.500000 0.186054 0.750000
O O9 0.650871 0.168106 0.828932
O O10 0.660567 0.338453 0.947962
O O11 0.570500 0.820041 0.665776
O O12 0.500000 0.000000 0.500000
O O13 0.761039 0.436057 0.609880
#
# Coordination Sequence:
#
# PCOD9270296 Si02
#       6
#     8   8   8   8   8   8
#     4  10  22  37  55  88 119 146 200 246 288 345
#     4  10  20  35  57  88 117 150 193 235 288 355
#     4  10  22  40  61  81 107 159 203 238 283 350
#     4  11  19  34  62  84 113 165 186 231 305 353
#     4  11  20  36  58  87 120 149 189 244 297 344
#     4  10  21  38  59  83 115 151 195 240 286 344
#
# _framework density 19.332104999999999
#
# number of rings (size 3 to 8) (size 9 to 14) (size 15 to 20)
#    0.000    1.667    3.333    2.000    0.000    1.333 
#    0.000   10.833    0.000    0.000    0.000    0.000 
#    0.000    0.000    0.000    0.000    0.000    0.000 
#
# Total GULP energy -134032.160544 kJ/mol
# GULP energy per Si atom -5584.673356 kJ/mol
# Density = 1.928810 g / cm^3
# Si number density = 19.332105 Si / 1000 Ang^3
#
#
#
# Elastic Constant Matrix: (Units=GPa)
#
#
# Indices 1 2 3 4 5 6 
#
# 1 59.5330 18.2256 29.5926 0.0000 4.1777 0.0000
# 2 18.2256 126.4870 71.3578 0.0000 17.0318 0.0000
# 3 29.5926 71.3578 77.4788 0.0000 14.9715 0.0000
# 4 0.0000 0.0000 0.0000 25.4765 0.0000 2.2543
# 5 4.1777 17.0318 14.9715 0.0000 18.4788 0.0000
# 6 0.0000 0.0000 0.0000 2.2543 0.0000 23.6741
#
#
#
# Elastic Compliance Matrix: (Units=1/GPa)
#
#
# Indices 1 2 3 4 5 6 
#
# 1 0.021360 0.003096 -0.011293 0.000000 0.001467 0.000000
# 2 0.003096 0.017090 -0.016294 0.000000 -0.003250 0.000000
# 3 -0.011293 -0.016294 0.034183 0.000000 -0.010124 0.000000
# 4 0.000000 0.000000 0.000000 0.039585 0.000000 -0.003769
# 5 0.001467 -0.003250 -0.010124 0.000000 0.064982 0.000000
# 6 0.000000 0.000000 0.000000 -0.003769 0.000000 0.042599
#
#
# Mechanical properties :
#
#
# Convention : Reuss Voigt Hill
#
# Bulk Modulus (GPa) = 42.28269 55.76118 49.02194
# Shear Modulus (GPa) = 18.07233 23.14740 20.60987
#
# Velocity S-wave (km/s) = 3.06082 3.46404 3.26865
# Velocity P-wave (km/s) = 5.86607 6.70118 6.29748
#
# Compressibility (1/GPa) = 0.02365034
#
# Stress axis : x y z
#
# Youngs Moduli (GPa) = 46.81589 58.51433 29.25428
#
# Poissons Ratio (x) = -0.18113 0.33037
# Poissons Ratio (y) = -0.14492 0.47667
# Poissons Ratio (z) = 0.52869 0.95343
#
# Static dielectric constant tensor:
#      x y z
#    x 1.699590 0.000000 -0.026850 
#    y 0.000000 1.682590 0.000000 
#    z -0.026850 0.000000 1.662690 
# 
# From -- ./inp_files/121372.got.cif
#   From: 2010.05.17/outbox.cif.g08.bks.cpg/sg15_61_cif.got.tgz:121372.got - 2010.06.03 18:47:42.
