data_PCOD9270517
_publ_section_title
;
Structure prediction by ZEFSAII (Michael W. Deem and Ramdas Pophale) SiO2 
 PCOD9270517
Probable space group: C 2/C
;
_chemical_formula_sum "Si O2"
_cell_formula_units_Z 52
_cell_length_a 25.782145
_cell_length_b 6.151113
_cell_length_c 19.313377
_cell_angle_alpha 90.000000
_cell_angle_beta 123.991614
_cell_angle_gamma 90.000000
_cell_volume 2539.499033
_symmetry_space_group_name_H-M "C 2/C"
_symmetry_group_IT_number 15
_symmetry_cell_setting 'monoclinic'
loop_
_space_group_symop_operation_xyz
x,y,z
-x,y,1/2-z
-x,-y,-z
x,-y,1/2+z
1/2+x,1/2+y,z
1/2-x,1/2+y,1/2-z
1/2-x,1/2-y,-z
1/2+x,1/2-y,1/2+z
loop_
_atom_site_type_symbol
_atom_site_label
_atom_site_fract_x
_atom_site_fract_y
_atom_site_fract_z
Si Si1 0.899661 0.759590 0.239734
Si Si2 0.396210 0.886262 0.120492
Si Si3 0.296428 0.603009 0.115793
Si Si4 0.171704 0.378647 0.042492
Si Si5 0.725573 0.479727 0.143680
Si Si6 0.335505 0.865002 0.821227
Si Si7 0.000000 0.070438 0.250000
O O1 0.897251 0.564826 0.182506
O O2 0.891599 0.648708 0.308554
O O3 0.841054 0.924525 0.185097
O O4 0.958827 0.911846 0.267664
O O5 0.338277 0.721446 0.089955
O O6 0.455989 0.730708 0.172504
O O7 0.385758 0.027869 0.043953
O O8 0.232872 0.479555 0.050682
O O9 0.270437 0.795027 0.145355
O O10 0.190604 0.128146 0.061896
O O11 0.164426 0.461103 0.116456
O O12 0.671548 0.364196 0.146343
O O13 0.771851 0.607109 0.229290
#
# Coordination Sequence:
#
# PCOD9270517 Si02
#       7
#     8   8   8   8   8   8   4
#     4  11  22  41  66  87 118 166 215 255 306 359
#     4  11  23  42  61  89 121 161 211 264 306 357
#     4  10  20  35  59  92 126 162 198 240 299 374
#     4  11  23  34  59  96 134 162 194 247 308 372
#     4  11  19  34  55  92 134 162 196 230 297 378
#     4  11  20  35  58  91 127 168 199 239 299 375
#     4  10  26  44  68  82 110 160 226 270 310 352
#
# _framework density 20.476479000000001
#
# number of rings (size 3 to 8) (size 9 to 14) (size 15 to 20)
#    0.000    1.231    4.615    1.846    0.000    7.385 
#    0.000    0.769    0.000    4.615    0.000    0.000 
#    0.000    0.000    0.000    0.000    0.000    0.000 
#
# Total GULP energy -145077.452557 kJ/mol
# GULP energy per Si atom -5579.902021 kJ/mol
# Density = 2.042987 g / cm^3
# Si number density = 20.476479 Si / 1000 Ang^3
#
#
#
# Elastic Constant Matrix: (Units=GPa)
#
#
# Indices 1 2 3 4 5 6 
#
# 1 77.8310 29.1582 33.8110 0.0002 0.9613 0.0000
# 2 29.1582 99.5116 19.2985 0.0010 -4.8401 0.0000
# 3 33.8110 19.2985 35.0937 0.0005 -9.7906 0.0001
# 4 0.0002 0.0010 0.0005 17.0038 0.0001 3.5445
# 5 0.9613 -4.8401 -9.7906 0.0001 14.5742 0.0000
# 6 0.0000 0.0000 0.0001 3.5445 0.0000 27.0069
#
#
#
# Elastic Compliance Matrix: (Units=1/GPa)
#
#
# Indices 1 2 3 4 5 6 
#
# 1 0.028581 -0.003244 -0.032709 0.000001 -0.024936 0.000000
# 2 -0.003244 0.011620 -0.002619 -0.000001 0.002314 0.000000
# 3 -0.032709 -0.002619 0.076063 -0.000002 0.052385 0.000000
# 4 0.000001 -0.000001 -0.000002 0.060464 -0.000003 -0.007936
# 5 -0.024936 0.002314 0.052385 -0.000003 0.106219 0.000000
# 6 0.000000 0.000000 0.000000 -0.007936 0.000000 0.038069
#
#
# Mechanical properties :
#
#
# Convention : Reuss Voigt Hill
#
# Bulk Modulus (GPa) = 25.56227 41.88575 33.72401
# Shear Modulus (GPa) = 12.15953 20.39490 16.27722
#
# Velocity S-wave (km/s) = 2.43950 3.15940 2.82250
# Velocity P-wave (km/s) = 4.52170 5.81455 5.20839
#
# Compressibility (1/GPa) = 0.03912015
#
# Stress axis : x y z
#
# Youngs Moduli (GPa) = 34.98842 86.05777 13.14698
#
# Poissons Ratio (x) = 0.27918 0.43002
# Poissons Ratio (y) = 0.11351 0.03443
# Poissons Ratio (z) = 1.14443 0.22539
#
# Static dielectric constant tensor:
#      x y z
#    x 1.734330 0.000000 -0.008820 
#    y 0.000000 1.778650 0.000000 
#    z -0.008820 0.000000 1.748840 
# 
# From -- ./inp_files/254413.got.cif
#   From: 2010.05.17/outbox.cif.g08.bks.cpg/sg15_128_cif.got.tgz:254413.got - 2010.06.03 18:47:42.
