data_PCOD9270743
_publ_section_title
;
Structure prediction by ZEFSAII (Michael W. Deem and Ramdas Pophale) SiO2 
 PCOD9270743
Probable space group: C 2/C
;
_chemical_formula_sum "Si O2"
_cell_formula_units_Z 52
_cell_length_a 24.796604
_cell_length_b 15.889157
_cell_length_c 8.821555
_cell_angle_alpha 90.000000
_cell_angle_beta 130.858575
_cell_angle_gamma 90.000000
_cell_volume 2628.739875
_symmetry_space_group_name_H-M "C 2/C"
_symmetry_group_IT_number 15
_symmetry_cell_setting 'monoclinic'
loop_
_space_group_symop_operation_xyz
x,y,z
-x,y,1/2-z
-x,-y,-z
x,-y,1/2+z
1/2+x,1/2+y,z
1/2-x,1/2+y,1/2-z
1/2-x,1/2-y,-z
1/2+x,1/2-y,1/2+z
loop_
_atom_site_type_symbol
_atom_site_label
_atom_site_fract_x
_atom_site_fract_y
_atom_site_fract_z
Si Si1 0.880657 0.976593 0.702244
Si Si2 0.409552 0.746504 0.855415
Si Si3 0.000000 0.643819 0.750000
Si Si4 0.639677 0.112427 0.460295
Si Si5 0.307927 0.611480 0.780373
Si Si6 0.004541 0.892457 0.413315
Si Si7 0.421125 0.037139 0.837512
O O1 0.844907 0.926955 0.499251
O O2 0.829110 0.044439 0.686688
O O3 0.952777 0.027309 0.788241
O O4 0.916152 0.913932 0.890133
O O5 0.390119 0.801127 0.669804
O O6 0.339059 0.703079 0.794462
O O7 0.461465 0.665106 0.947108
O O8 0.455048 0.806668 0.044115
O O9 0.063431 0.597168 0.775969
O O10 0.627537 0.039177 0.311632
O O11 0.723679 0.118124 0.644309
O O12 0.602803 0.082594 0.550900
O O13 0.000000 0.841748 0.250000
O O14 0.500000 0.000000 0.000000
#
# Coordination Sequence:
#
# PCOD9270743 Si02
#       7
#     8   8   4   8   8   8   8
#     4  10  20  38  63  90 126 163 218 254 298 369
#     4  11  25  39  63  95 132 168 204 266 321 375
#     4  12  24  42  68  94 126 156 220 276 322 362
#     4  12  24  43  66  93 129 165 215 256 328 392
#     4  11  23  42  62  94 133 175 203 257 317 389
#     4  10  20  35  63  93 121 164 210 258 304 357
#     4  12  23  43  70  95 116 165 219 280 313 364
#
# _framework density 19.781341000000001
#
# number of rings (size 3 to 8) (size 9 to 14) (size 15 to 20)
#    0.000    0.923    4.615    2.308    2.154    0.000 
#    0.000    0.769    0.000    0.000    0.000    0.000 
#    0.000    0.000    0.000    0.000    0.000    0.000 
#
# Total GULP energy -144864.295249 kJ/mol
# GULP energy per Si atom -5571.703663 kJ/mol
# Density = 1.973632 g / cm^3
# Si number density = 19.781341 Si / 1000 Ang^3
#
#
#
# Elastic Constant Matrix: (Units=GPa)
#
#
# Indices 1 2 3 4 5 6 
#
# 1 66.3453 9.3784 3.7025 0.0000 10.8520 0.0000
# 2 9.3784 71.2618 24.5017 0.0000 5.5591 0.0000
# 3 3.7025 24.5017 74.2185 0.0000 6.8680 0.0000
# 4 0.0000 0.0000 0.0000 -33.2622 0.0000 20.4482
# 5 10.8520 5.5591 6.8680 0.0000 32.0955 0.0000
# 6 0.0000 0.0000 0.0000 20.4482 0.0000 15.5048
#
#
#
# Elastic Compliance Matrix: (Units=1/GPa)
#
#
# Indices 1 2 3 4 5 6 
#
# 1 0.016166 -0.001816 0.000275 0.000000 -0.005210 0.000000
# 2 -0.001816 0.016120 -0.005131 0.000000 -0.001080 0.000000
# 3 0.000275 -0.005131 0.015385 0.000000 -0.002496 0.000000
# 4 0.000000 0.000000 0.000000 -0.016603 0.000000 0.021897
# 5 -0.005210 -0.001080 -0.002496 0.000000 0.033640 0.000000
# 6 0.000000 0.000000 0.000000 0.021897 0.000000 0.035618
#
#
# Mechanical properties :
#
#
# Convention : Reuss Voigt Hill
#
# Bulk Modulus (GPa) = 29.13087 31.88786 30.50936
# Shear Modulus (GPa) = 39.96390 14.48383 27.22387
#
# Velocity S-wave (km/s) = 4.49963 2.70885 3.71380
# Velocity P-wave (km/s) = 6.46173 5.09303 5.81777
#
# Compressibility (1/GPa) = 0.03432785
#
# Stress axis : x y z
#
# Youngs Moduli (GPa) = 61.85735 62.03378 64.99839
#
# Poissons Ratio (x) = 0.11263 -0.01788
# Poissons Ratio (y) = 0.11231 0.33352
# Poissons Ratio (z) = -0.01702 0.31831
#
# Static dielectric constant tensor:
#      x y z
#    x 1.761630 0.000000 -0.005980 
#    y 0.000000 1.886800 0.000000 
#    z -0.005980 0.000000 1.607510 
# 
# From -- ./inp_files/66329.got.cif
#   From: 2010.05.17/outbox.cif.g08.bks.cpg/sg15_34_cif.got.tgz:66329.got - 2010.06.03 18:47:42.
