data_PCOD9270475
_publ_section_title
;
Structure prediction by ZEFSAII (Michael W. Deem and Ramdas Pophale) SiO2 
 PCOD9270475
Probable space group: C 2/C
;
_chemical_formula_sum "Si O2"
_cell_formula_units_Z 60
_cell_length_a 18.129381
_cell_length_b 17.651900
_cell_length_c 9.061315
_cell_angle_alpha 90.000000
_cell_angle_beta 89.397787
_cell_angle_gamma 90.000000
_cell_volume 2899.623917
_symmetry_space_group_name_H-M "C 2/C"
_symmetry_group_IT_number 15
_symmetry_cell_setting 'monoclinic'
loop_
_space_group_symop_operation_xyz
x,y,z
-x,y,1/2-z
-x,-y,-z
x,-y,1/2+z
1/2+x,1/2+y,z
1/2-x,1/2+y,1/2-z
1/2-x,1/2-y,-z
1/2+x,1/2-y,1/2+z
loop_
_atom_site_type_symbol
_atom_site_label
_atom_site_fract_x
_atom_site_fract_y
_atom_site_fract_z
Si Si1 0.784170 0.995140 0.442171
Si Si2 0.086397 0.089841 0.003984
Si Si3 0.346547 0.823990 0.919064
Si Si4 0.000000 0.008533 0.750000
Si Si5 0.414406 0.723076 0.299511
Si Si6 0.319383 0.028039 0.302605
Si Si7 0.914143 0.383248 0.218122
Si Si8 0.828955 0.166088 0.012740
O O1 0.830457 0.061962 0.511089
O O2 0.707599 0.982920 0.529435
O O3 0.757560 0.019797 0.282591
O O4 0.834181 0.919347 0.452206
O O5 0.086903 0.176797 0.049740
O O6 0.050504 0.045800 0.146400
O O7 0.043570 0.061722 0.862320
O O8 0.259527 0.826421 0.965170
O O9 0.352219 0.887156 0.791189
O O10 0.396857 0.855312 0.051825
O O11 0.359122 0.733616 0.907226
O O12 0.500000 0.726431 0.250000
O O13 0.387170 0.809508 0.310485
O O14 0.368647 0.680745 0.169653
O O15 0.372099 0.959947 0.257358
O O16 0.000000 0.394412 0.250000
#
# Coordination Sequence:
#
# PCOD9270475 Si02
#       8
#     8   8   8   4   8   8   8   8
#     4  11  22  35  61  85 120 148 195 238 291 338
#     4  11  20  37  54  89 117 166 191 238 282 344
#     4   9  18  35  59  85 108 145 197 236 280 340
#     4  10  22  32  58  82 126 156 204 228 284 346
#     4  10  20  35  59  86 115 154 204 237 276 348
#     4  11  20  39  58  89 114 145 192 250 285 353
#     4  10  21  38  61  86 113 151 195 244 293 353
#     4   9  17  33  57  85 108 152 194 237 266 342
#
# _framework density 20.692339
#
# number of rings (size 3 to 8) (size 9 to 14) (size 15 to 20)
#    0.000    1.867    3.333    3.200    1.867    0.533 
#    0.000    0.667    2.933    0.000    1.733    0.000 
#    0.000    0.000    0.000    0.000    0.000    0.000 
#
# Total GULP energy -167209.485234 kJ/mol
# GULP energy per Si atom -5573.649508 kJ/mol
# Density = 2.064524 g / cm^3
# Si number density = 20.692339 Si / 1000 Ang^3
#
#
#
# Elastic Constant Matrix: (Units=GPa)
#
#
# Indices 1 2 3 4 5 6 
#
# 1 60.8047 9.0471 16.0430 0.0000 31.8999 0.0000
# 2 9.0471 126.4537 23.0144 0.0000 13.6850 0.0000
# 3 16.0430 23.0144 65.0147 0.0000 22.4528 0.0000
# 4 0.0000 0.0000 0.0000 19.5398 0.0000 -0.2729
# 5 31.8999 13.6850 22.4528 0.0000 26.3181 0.0000
# 6 0.0000 0.0000 0.0000 -0.2729 0.0000 22.5166
#
#
#
# Elastic Compliance Matrix: (Units=1/GPa)
#
#
# Indices 1 2 3 4 5 6 
#
# 1 0.052025 0.002133 0.012146 0.000000 -0.074530 0.000000
# 2 0.002133 0.008669 -0.001624 0.000000 -0.005708 0.000000
# 3 0.012146 -0.001624 0.025166 0.000000 -0.035348 0.000000
# 4 0.000000 0.000000 0.000000 0.051186 0.000000 0.000620
# 5 -0.074530 -0.005708 -0.035348 0.000000 0.161458 0.000000
# 6 0.000000 0.000000 0.000000 0.000620 0.000000 0.044419
#
#
# Mechanical properties :
#
#
# Convention : Reuss Voigt Hill
#
# Bulk Modulus (GPa) = 8.99520 38.72023 23.85771
# Shear Modulus (GPa) = 14.09766 27.28615 20.69190
#
# Velocity S-wave (km/s) = 2.61300 3.63527 3.16568
# Velocity P-wave (km/s) = 3.66882 6.03103 4.99167
#
# Compressibility (1/GPa) = 0.11117046
#
# Stress axis : x y z
#
# Youngs Moduli (GPa) = 19.22170 115.35831 39.73582
#
# Poissons Ratio (x) = -0.24606 -0.48264
# Poissons Ratio (y) = -0.04100 0.06452
# Poissons Ratio (z) = -0.23347 0.18732
#
# Static dielectric constant tensor:
#      x y z
#    x 1.741460 0.000000 0.002600 
#    y 0.000000 1.821540 0.000000 
#    z 0.002600 0.000000 1.776400 
# 
# From -- ./inp_files/56660.got.cif
#   From: 2010.05.17/outbox.cif.g08.bks.cpg/sg15_29_cif.got.tgz:56660.got - 2010.06.03 18:47:42.
