data_PCOD9270669
_publ_section_title
;
Structure prediction by ZEFSAII (Michael W. Deem and Ramdas Pophale) SiO2 
 PCOD9270669
Probable space group: C 2/C
;
_chemical_formula_sum "Si O2"
_cell_formula_units_Z 64
_cell_length_a 17.050120
_cell_length_b 8.146152
_cell_length_c 27.868782
_cell_angle_alpha 90.000000
_cell_angle_beta 38.119108
_cell_angle_gamma 90.000000
_cell_volume 2389.422813
_symmetry_space_group_name_H-M "C 2/C"
_symmetry_group_IT_number 15
_symmetry_cell_setting 'monoclinic'
loop_
_space_group_symop_operation_xyz
x,y,z
-x,y,1/2-z
-x,-y,-z
x,-y,1/2+z
1/2+x,1/2+y,z
1/2-x,1/2+y,1/2-z
1/2-x,1/2-y,-z
1/2+x,1/2-y,1/2+z
loop_
_atom_site_type_symbol
_atom_site_label
_atom_site_fract_x
_atom_site_fract_y
_atom_site_fract_z
Si Si1 0.452978 0.286049 0.580850
Si Si2 0.299181 0.093282 0.252963
Si Si3 0.405065 0.382355 0.902026
Si Si4 0.763155 0.608371 0.098497
Si Si5 0.322982 0.263624 0.549480
Si Si6 0.046232 0.772014 0.173251
Si Si7 0.941876 0.600340 0.091854
Si Si8 0.913619 0.316917 0.252049
O O1 0.327525 0.313532 0.673720
O O2 0.564214 0.380500 0.556250
O O3 0.397084 0.350211 0.557009
O O4 0.482050 0.090314 0.567766
O O5 0.428895 0.177136 0.207372
O O6 0.324943 0.087183 0.184392
O O7 0.304800 0.924378 0.279717
O O8 0.269155 0.352284 0.941466
O O9 0.440614 0.558183 0.862233
O O10 0.496221 0.247852 0.833441
O O11 0.780567 0.412888 0.092935
O O12 0.882501 0.673120 0.071369
O O13 0.645795 0.674447 0.186360
O O14 0.182846 0.323892 0.602763
O O15 0.431083 0.207032 0.459582
O O16 0.000000 0.803194 0.250000
O O17 0.000000 0.412909 0.250000
#
# Coordination Sequence:
#
# PCOD9270669 Si02
#       8
#     8   8   8   8   8   8   8   8
#     4  11  22  38  64 100 130 171 233 276 326 402
#     4  12  25  36  67 100 134 170 225 286 335 404
#     4  10  20  35  61  94 129 165 220 276 321 389
#     4   9  19  38  63  89 126 176 220 261 330 405
#     4  10  22  44  69  93 134 182 222 275 339 422
#     4  11  22  42  68 100 128 178 228 274 337 413
#     4  11  24  42  65  98 135 179 222 275 350 403
#     4  10  20  36  60  95 130 164 214 282 338 377
#
# _framework density 26.78471
#
# number of rings (size 3 to 8) (size 9 to 14) (size 15 to 20)
#    0.000    1.500    2.500    4.500    3.500    0.500 
#    0.000    5.625    0.000    3.750    0.000    0.000 
#    0.000    0.000    0.000    0.000    0.000    0.000 
#
# Total GULP energy -178784.856430 kJ/mol
# GULP energy per Si atom -5587.026763 kJ/mol
# Density = 2.672375 g / cm^3
# Si number density = 26.784710 Si / 1000 Ang^3
#
#
#
# Elastic Constant Matrix: (Units=GPa)
#
#
# Indices 1 2 3 4 5 6 
#
# 1 173.7466 25.2987 -1.9236 0.0000 0.3454 -0.0008
# 2 25.2987 54.0915 6.5352 -0.0002 -0.0978 -0.0010
# 3 -1.9236 6.5352 79.6661 0.0000 -4.9285 0.0002
# 4 0.0000 -0.0002 0.0000 25.4958 0.0001 -7.7399
# 5 0.3454 -0.0978 -4.9285 0.0001 40.7968 -0.0001
# 6 -0.0008 -0.0010 0.0002 -7.7399 -0.0001 37.9856
#
#
#
# Elastic Compliance Matrix: (Units=1/GPa)
#
#
# Indices 1 2 3 4 5 6 
#
# 1 0.006188 -0.002941 0.000390 0.000000 -0.000012 0.000000
# 2 -0.002941 0.020071 -0.001726 0.000000 -0.000135 0.000001
# 3 0.000390 -0.001726 0.012799 0.000000 0.001539 0.000000
# 4 0.000000 0.000000 0.000000 0.041808 0.000000 0.008519
# 5 -0.000012 -0.000135 0.001539 0.000000 0.024697 0.000000
# 6 0.000000 0.000001 0.000000 0.008519 0.000000 0.028062
#
#
# Mechanical properties :
#
#
# Convention : Reuss Voigt Hill
#
# Bulk Modulus (GPa) = 32.78338 40.81390 36.79864
# Shear Modulus (GPa) = 32.81973 39.36190 36.09081
#
# Velocity S-wave (km/s) = 3.50425 3.83765 3.67473
# Velocity P-wave (km/s) = 5.35156 5.90826 5.63679
#
# Compressibility (1/GPa) = 0.03050326
#
# Stress axis : x y z
#
# Youngs Moduli (GPa) = 161.59973 49.82276 78.13373
#
# Poissons Ratio (x) = 0.14655 -0.03047
# Poissons Ratio (y) = 0.47532 0.13485
# Poissons Ratio (z) = -0.06301 0.08599
#
# Static dielectric constant tensor:
#      x y z
#    x 2.222550 0.000000 0.027150 
#    y 0.000000 2.112350 0.000000 
#    z 0.027150 0.000000 2.123120 
# 
# From -- ./inp_files/315665.got.cif
#   From: 2010.05.17/outbox.cif.g08.bks.cpg/sg15_158_cif.got.tgz:315665.got - 2010.06.03 18:47:42.
