data_PCOD9270729
_publ_section_title
;
Structure prediction by ZEFSAII (Michael W. Deem and Ramdas Pophale) SiO2 
 PCOD9270729
Probable space group: C 2/C
;
_chemical_formula_sum "Si O2"
_cell_formula_units_Z 40
_cell_length_a 5.057649
_cell_length_b 23.854861
_cell_length_c 14.840542
_cell_angle_alpha 90.000000
_cell_angle_beta 61.219001
_cell_angle_gamma 90.000000
_cell_volume 1569.316744
_symmetry_space_group_name_H-M "C 2/C"
_symmetry_group_IT_number 15
_symmetry_cell_setting 'monoclinic'
loop_
_space_group_symop_operation_xyz
x,y,z
-x,y,1/2-z
-x,-y,-z
x,-y,1/2+z
1/2+x,1/2+y,z
1/2-x,1/2+y,1/2-z
1/2-x,1/2-y,-z
1/2+x,1/2-y,1/2+z
loop_
_atom_site_type_symbol
_atom_site_label
_atom_site_fract_x
_atom_site_fract_y
_atom_site_fract_z
Si Si1 0.834682 0.136033 0.078826
Si Si2 0.425020 0.527746 0.415871
Si Si3 0.411434 0.187854 0.920831
Si Si4 0.481633 0.752640 0.858322
Si Si5 0.192049 0.581919 0.917974
O O1 0.565869 0.180085 0.133639
O O2 0.847352 0.079559 0.136841
O O3 0.854821 0.114679 0.972074
O O4 0.148165 0.169860 0.033726
O O5 0.500000 0.500000 0.500000
O O6 0.377315 0.473490 0.361275
O O7 0.104946 0.557565 0.483789
O O8 0.658858 0.224086 0.933759
O O9 0.579946 0.129342 0.867177
O O10 0.251781 0.223218 0.868234
O O11 0.500000 0.737145 0.750000
#
# Coordination Sequence:
#
# PCOD9270729 Si02
#       5
#     8   8   8   8   8
#     4  10  20  35  63  87 120 153 203 255 299 360
#     4   8  16  30  53  93 119 141 187 259 303 352
#     4  11  22  39  60  85 119 157 201 249 296 363
#     4  12  26  39  55  87 124 165 201 243 306 367
#     4   9  17  32  58  92 115 145 199 252 303 349
#
# _framework density 25.488797000000002
#
# number of rings (size 3 to 8) (size 9 to 14) (size 15 to 20)
#    0.000    2.000    2.000    1.800    5.600    0.000 
#    0.000    0.000    0.000    0.000   31.200    0.000 
#    0.000    0.000    0.000    0.000    0.000    0.000 
#
# Total GULP energy -111567.294439 kJ/mol
# GULP energy per Si atom -5578.364722 kJ/mol
# Density = 2.543078 g / cm^3
# Si number density = 25.488797 Si / 1000 Ang^3
#
#
#
# Elastic Constant Matrix: (Units=GPa)
#
#
# Indices 1 2 3 4 5 6 
#
# 1 163.3252 89.8571 20.5822 0.0000 20.5799 0.0000
# 2 89.8571 267.0654 31.7936 0.0000 17.2553 0.0000
# 3 20.5822 31.7936 41.8053 0.0000 9.3822 0.0000
# 4 0.0000 0.0000 0.0000 -5.2425 0.0000 2.2413
# 5 20.5799 17.2553 9.3822 0.0000 13.6139 0.0000
# 6 0.0000 0.0000 0.0000 2.2413 0.0000 74.2007
#
#
#
# Elastic Compliance Matrix: (Units=1/GPa)
#
#
# Indices 1 2 3 4 5 6 
#
# 1 0.008652 -0.002225 -0.000314 0.000000 -0.010043 0.000000
# 2 -0.002225 0.004846 -0.002326 0.000000 -0.001176 0.000000
# 3 -0.000314 -0.002326 0.029664 0.000000 -0.017021 0.000000
# 4 0.000000 0.000000 0.000000 -0.188317 0.000000 0.005688
# 5 -0.010043 -0.001176 -0.017021 0.000000 0.101856 0.000000
# 6 0.000000 0.000000 0.000000 0.005688 0.000000 0.013305
#
#
# Mechanical properties :
#
#
# Convention : Reuss Voigt Hill
#
# Bulk Modulus (GPa) = 29.91139 84.07352 56.99246
# Shear Modulus (GPa) = -548.18336 38.51196 -254.83570
#
# Velocity S-wave (km/s) = -14.68112 3.89129 -10.00982
# Velocity P-wave (km/s) = 16.60180 7.29696 10.54453
#
# Compressibility (1/GPa) = 0.03343208
#
# Stress axis : x y z
#
# Youngs Moduli (GPa) = 115.58404 206.36294 33.71109
#
# Poissons Ratio (x) = 0.45911 0.01058
# Poissons Ratio (y) = 0.25715 0.07842
# Poissons Ratio (z) = 0.03627 0.48003
#
# Static dielectric constant tensor:
#      x y z
#    x 1.437020 0.000000 -0.625990 
#    y 0.000000 7.373700 0.000000 
#    z -0.625990 0.000000 1.822590 
# 
# From -- ./inp_files/227124.got.cif
#   From: 2010.05.17/outbox.cif.g08.bks.cpg/sg15_114_cif.got.tgz:227124.got - 2010.06.03 18:47:42.
