data_PCOD9270409
_publ_section_title
;
Structure prediction by ZEFSAII (Michael W. Deem and Ramdas Pophale) SiO2 
 PCOD9270409
Probable space group: C 2/C
;
_chemical_formula_sum "Si O2"
_cell_formula_units_Z 48
_cell_length_a 12.933778
_cell_length_b 29.272085
_cell_length_c 8.025322
_cell_angle_alpha 90.000000
_cell_angle_beta 45.075541
_cell_angle_gamma 90.000000
_cell_volume 2151.287062
_symmetry_space_group_name_H-M "C 2/C"
_symmetry_group_IT_number 15
_symmetry_cell_setting 'monoclinic'
loop_
_space_group_symop_operation_xyz
x,y,z
-x,y,1/2-z
-x,-y,-z
x,-y,1/2+z
1/2+x,1/2+y,z
1/2-x,1/2+y,1/2-z
1/2-x,1/2-y,-z
1/2+x,1/2-y,1/2+z
loop_
_atom_site_type_symbol
_atom_site_label
_atom_site_fract_x
_atom_site_fract_y
_atom_site_fract_z
Si Si1 0.500000 0.814113 0.750000
Si Si2 0.158050 0.250327 0.781481
Si Si3 0.593014 0.875442 0.392794
Si Si4 0.000000 0.002134 0.750000
Si Si5 0.293595 0.160545 0.084853
Si Si6 0.477153 0.655281 0.578115
Si Si7 0.678586 0.560034 0.791381
O O1 0.519179 0.779568 0.879678
O O2 0.617803 0.848424 0.538628
O O3 0.250000 0.250000 0.500000
O O4 0.213040 0.285253 0.859941
O O5 0.103041 0.200961 0.894907
O O6 0.420096 0.866262 0.547813
O O7 0.654510 0.926740 0.349383
O O8 0.667975 0.851870 0.147770
O O9 0.872946 0.033967 0.815961
O O10 0.090212 0.969243 0.526110
O O11 0.133202 0.145638 0.318262
O O12 0.500000 0.662811 0.750000
O O13 0.386703 0.610402 0.646526
#
# Coordination Sequence:
#
# PCOD9270409 Si02
#       7
#     4   8   8   4   8   8   8
#     4  10  20  35  58  88 130 180 224 261 320 378
#     4  11  19  36  59  95 141 185 226 270 316 384
#     4  10  23  42  67  94 134 186 226 279 338 412
#     4  10  24  43  72 100 136 158 222 303 362 434
#     4  10  23  42  63  99 149 187 230 278 327 391
#     4  12  22  38  70 101 131 184 234 274 328 410
#     4  11  23  44  70 102 127 174 223 287 364 420
#
# _framework density 22.312222999999999
#
# number of rings (size 3 to 8) (size 9 to 14) (size 15 to 20)
#    0.000    1.333    3.333    2.000    2.333    1.333 
#    0.000   27.500    0.000   25.000    0.000    0.000 
#    0.000    0.000    0.000    0.000    0.000    0.000 
#
# Total GULP energy -133704.111379 kJ/mol
# GULP energy per Si atom -5571.004641 kJ/mol
# Density = 2.226144 g / cm^3
# Si number density = 22.312223 Si / 1000 Ang^3
#
#
#
# Elastic Constant Matrix: (Units=GPa)
#
#
# Indices 1 2 3 4 5 6 
#
# 1 52.7580 32.7556 -7.3445 0.0000 -0.3793 0.0000
# 2 32.7556 127.7491 12.8870 0.0000 -7.3332 0.0000
# 3 -7.3445 12.8870 62.0058 0.0000 -11.2032 0.0000
# 4 0.0000 0.0000 0.0000 26.9796 0.0000 -19.5036
# 5 -0.3793 -7.3332 -11.2032 0.0000 38.2991 0.0000
# 6 0.0000 0.0000 0.0000 -19.5036 0.0000 53.8905
#
#
#
# Elastic Compliance Matrix: (Units=1/GPa)
#
#
# Indices 1 2 3 4 5 6 
#
# 1 0.023536 -0.006442 0.004166 0.000000 0.000218 0.000000
# 2 -0.006442 0.009803 -0.002611 0.000000 0.001049 0.000000
# 3 0.004166 -0.002611 0.018034 0.000000 0.004817 0.000000
# 4 0.000000 0.000000 0.000000 0.050198 0.000000 0.018167
# 5 0.000218 0.001049 0.004817 0.000000 0.027722 0.000000
# 6 0.000000 0.000000 0.000000 0.018167 0.000000 0.025131
#
#
# Mechanical properties :
#
#
# Convention : Reuss Voigt Hill
#
# Bulk Modulus (GPa) = 24.03921 35.45657 29.74789
# Shear Modulus (GPa) = 28.07955 37.44817 32.76386
#
# Velocity S-wave (km/s) = 3.55136 4.10124 3.83616
# Velocity P-wave (km/s) = 5.25486 6.19294 5.74308
#
# Compressibility (1/GPa) = 0.04159871
#
# Stress axis : x y z
#
# Youngs Moduli (GPa) = 42.48825 102.00581 55.45107
#
# Poissons Ratio (x) = 0.65717 -0.23102
# Poissons Ratio (y) = 0.27373 0.14478
# Poissons Ratio (z) = -0.17702 0.26633
#
# Static dielectric constant tensor:
#      x y z
#    x 2.130470 0.000000 -0.064550 
#    y 0.000000 1.789780 0.000000 
#    z -0.064550 0.000000 1.867320 
# 
# From -- ./inp_files/43868.got.cif
#   From: 2010.05.17/outbox.cif.g08.bks.cpg/sg15_22_cif.got.tgz:43868.got - 2010.06.03 18:47:42.
