data_PCOD9270442
_publ_section_title
;
Structure prediction by ZEFSAII (Michael W. Deem and Ramdas Pophale) SiO2 
 PCOD9270442
Probable space group: C 2/C
;
_chemical_formula_sum "Si O2"
_cell_formula_units_Z 44
_cell_length_a 16.520480
_cell_length_b 16.539084
_cell_length_c 8.308480
_cell_angle_alpha 90.000000
_cell_angle_beta 107.122388
_cell_angle_gamma 90.000000
_cell_volume 2169.538209
_symmetry_space_group_name_H-M "C 2/C"
_symmetry_group_IT_number 15
_symmetry_cell_setting 'monoclinic'
loop_
_space_group_symop_operation_xyz
x,y,z
-x,y,1/2-z
-x,-y,-z
x,-y,1/2+z
1/2+x,1/2+y,z
1/2-x,1/2+y,1/2-z
1/2-x,1/2-y,-z
1/2+x,1/2-y,1/2+z
loop_
_atom_site_type_symbol
_atom_site_label
_atom_site_fract_x
_atom_site_fract_y
_atom_site_fract_z
Si Si1 0.500000 0.255315 0.750000
Si Si2 0.761199 0.135124 0.671522
Si Si3 0.320937 0.822358 0.055264
Si Si4 0.596080 0.515164 0.862160
Si Si5 0.393240 0.623237 0.333325
Si Si6 0.789663 0.319849 0.690248
O O1 0.585329 0.208804 0.845475
O O2 0.529550 0.315405 0.624879
O O3 0.713129 0.126282 0.813096
O O4 0.831386 0.067627 0.682048
O O5 0.806462 0.223847 0.695506
O O6 0.698779 0.140081 0.478240
O O7 0.250000 0.750000 0.000000
O O8 0.326779 0.856853 0.876677
O O9 0.500000 0.528974 0.750000
O O10 0.616270 0.420746 0.844591
O O11 0.596710 0.548137 0.042855
O O12 0.310939 0.670857 0.338412
#
# Coordination Sequence:
#
# PCOD9270442 Si02
#       6
#     4   8   8   8   8   8
#     4  12  22  36  58  88 114 152 198 224 294 344
#     4   9  19  36  52  78 107 148 196 225 274 332
#     4  10  20  35  59  76 112 150 184 247 274 327
#     4  11  24  32  53  82 123 155 181 229 287 356
#     4  11  23  36  52  83 121 152 190 226 282 362
#     4   9  19  37  55  73 111 147 192 235 267 329
#
# _framework density 20.280812999999998
#
# number of rings (size 3 to 8) (size 9 to 14) (size 15 to 20)
#    0.000    1.818    4.545    0.545    7.636    0.000 
#    0.000    0.909    0.000    0.000    0.000    1.273 
#    2.727    0.000    0.000    0.000    0.000    0.000 
#
# Total GULP energy -122554.103418 kJ/mol
# GULP energy per Si atom -5570.641064 kJ/mol
# Density = 2.023465 g / cm^3
# Si number density = 20.280813 Si / 1000 Ang^3
#
#
#
# Elastic Constant Matrix: (Units=GPa)
#
#
# Indices 1 2 3 4 5 6 
#
# 1 91.4357 28.4144 32.0218 0.0000 3.0068 0.0000
# 2 28.4144 31.1720 10.5326 0.0000 0.6947 0.0000
# 3 32.0218 10.5326 133.6081 0.0000 -21.9872 0.0000
# 4 0.0000 0.0000 0.0000 20.5541 0.0000 -3.9774
# 5 3.0068 0.6947 -21.9872 0.0000 20.4209 0.0000
# 6 0.0000 0.0000 0.0000 -3.9774 0.0000 34.8650
#
#
#
# Elastic Compliance Matrix: (Units=1/GPa)
#
#
# Indices 1 2 3 4 5 6 
#
# 1 0.016849 -0.013873 -0.003980 0.000000 -0.006295 0.000000
# 2 -0.013873 0.044766 -0.000144 0.000000 0.000365 0.000000
# 3 -0.003980 -0.000144 0.010388 0.000000 0.011775 0.000000
# 4 0.000000 0.000000 0.000000 0.049750 0.000000 0.005675
# 5 -0.006295 0.000365 0.011775 0.000000 0.062562 0.000000
# 6 0.000000 0.000000 0.000000 0.005675 0.000000 0.029330
#
#
# Mechanical properties :
#
#
# Convention : Reuss Voigt Hill
#
# Bulk Modulus (GPa) = 27.77167 44.23930 36.00548
# Shear Modulus (GPa) = 19.11002 27.51779 23.31390
#
# Velocity S-wave (km/s) = 3.07297 3.68753 3.39419
# Velocity P-wave (km/s) = 5.12973 6.32386 5.75784
#
# Compressibility (1/GPa) = 0.03600792
#
# Stress axis : x y z
#
# Youngs Moduli (GPa) = 59.35143 22.33816 96.26749
#
# Poissons Ratio (x) = 0.30990 0.38318
# Poissons Ratio (y) = 0.82339 0.01387
# Poissons Ratio (z) = 0.23624 0.00322
#
# Static dielectric constant tensor:
#      x y z
#    x 1.690230 0.000000 -0.039540 
#    y 0.000000 1.713410 0.000000 
#    z -0.039540 0.000000 1.879720 
# 
# From -- ./inp_files/39296.got.cif
#   From: 2010.05.17/outbox.cif.g08.bks.cpg/sg15_20_cif.got.tgz:39296.got - 2010.06.03 18:47:42.
