data_PCOD9270597
_publ_section_title
;
Structure prediction by ZEFSAII (Michael W. Deem and Ramdas Pophale) SiO2 
 PCOD9270597
Probable space group: C 2/C
;
_chemical_formula_sum "Si O2"
_cell_formula_units_Z 56
_cell_length_a 23.568675
_cell_length_b 19.258375
_cell_length_c 8.618842
_cell_angle_alpha 90.000000
_cell_angle_beta 46.754307
_cell_angle_gamma 90.000000
_cell_volume 2849.620738
_symmetry_space_group_name_H-M "C 2/C"
_symmetry_group_IT_number 15
_symmetry_cell_setting 'monoclinic'
loop_
_space_group_symop_operation_xyz
x,y,z
-x,y,1/2-z
-x,-y,-z
x,-y,1/2+z
1/2+x,1/2+y,z
1/2-x,1/2+y,1/2-z
1/2-x,1/2-y,-z
1/2+x,1/2-y,1/2+z
loop_
_atom_site_type_symbol
_atom_site_label
_atom_site_fract_x
_atom_site_fract_y
_atom_site_fract_z
Si Si1 0.492299 0.282188 0.508004
Si Si2 0.500000 0.400322 0.250000
Si Si3 0.240411 0.189439 0.334461
Si Si4 0.000000 0.330036 0.750000
Si Si5 0.705089 0.581345 0.870552
Si Si6 0.378433 0.714524 0.495050
Si Si7 0.668110 0.835610 0.524079
Si Si8 0.162158 0.061074 0.309262
O O1 0.518858 0.347652 0.356254
O O2 0.467323 0.220447 0.443825
O O3 0.561069 0.258185 0.492129
O O4 0.420749 0.298113 0.753840
O O5 0.426100 0.442045 0.455933
O O6 0.283656 0.156478 0.404567
O O7 0.178841 0.251535 0.486496
O O8 0.199819 0.129065 0.315945
O O9 0.307535 0.232154 0.118286
O O10 0.078435 0.360619 0.680565
O O11 0.786663 0.621636 0.694496
O O12 0.704250 0.508923 0.784440
O O13 0.648216 0.638521 0.900890
O O14 0.675288 0.568223 0.100752
#
# Coordination Sequence:
#
# PCOD9270597 Si02
#       8
#     8   4   8   4   8   8   8   8
#     4  10  20  35  60  95 132 160 201 259 311 371
#     4  11  24  38  62  92 126 171 204 256 306 379
#     4  10  21  39  64  92 127 168 207 258 310 376
#     4  11  20  36  64  98 126 161 206 268 318 361
#     4  11  26  42  62  89 124 174 211 260 307 383
#     4  10  21  38  61  93 128 165 209 253 313 369
#     4  10  22  39  66  94 127 161 211 257 320 367
#     4  12  26  43  63  89 129 168 215 255 316 374
#
# _framework density 19.651737000000001
#
# number of rings (size 3 to 8) (size 9 to 14) (size 15 to 20)
#    0.000    1.429    2.857    2.571    8.000    2.857 
#    0.000    0.000    0.000    5.143    0.000    0.000 
#    0.000    0.000    0.000    0.000    0.000    0.000 
#
# Total GULP energy -156087.264004 kJ/mol
# GULP energy per Si atom -5574.545143 kJ/mol
# Density = 1.960701 g / cm^3
# Si number density = 19.651737 Si / 1000 Ang^3
#
#
#
# Elastic Constant Matrix: (Units=GPa)
#
#
# Indices 1 2 3 4 5 6 
#
# 1 77.9707 12.0199 29.3871 0.0000 -1.1926 0.0000
# 2 12.0199 70.0228 12.8262 0.0000 -0.5095 0.0000
# 3 29.3871 12.8262 97.7837 0.0000 -5.9258 0.0000
# 4 0.0000 0.0000 0.0000 23.2413 0.0000 3.2230
# 5 -1.1926 -0.5095 -5.9258 0.0000 27.5556 0.0000
# 6 0.0000 0.0000 0.0000 3.2230 0.0000 14.4979
#
#
#
# Elastic Compliance Matrix: (Units=1/GPa)
#
#
# Indices 1 2 3 4 5 6 
#
# 1 0.014673 -0.001752 -0.004198 0.000000 -0.000300 0.000000
# 2 -0.001752 0.014842 -0.001427 0.000000 -0.000108 0.000000
# 3 -0.004198 -0.001427 0.011817 0.000000 0.002333 0.000000
# 4 0.000000 0.000000 0.000000 0.044395 0.000000 -0.009869
# 5 -0.000300 -0.000108 0.002333 0.000000 0.036777 0.000000
# 6 0.000000 0.000000 0.000000 -0.009869 0.000000 0.071170
#
#
# Mechanical properties :
#
#
# Convention : Reuss Voigt Hill
#
# Bulk Modulus (GPa) = 37.62453 39.36041 38.49247
# Shear Modulus (GPa) = 23.01095 25.82857 24.41976
#
# Velocity S-wave (km/s) = 3.42561 3.62928 3.52891
# Velocity P-wave (km/s) = 5.90200 6.13471 6.01948
#
# Compressibility (1/GPa) = 0.02657840
#
# Stress axis : x y z
#
# Youngs Moduli (GPa) = 68.15206 67.37469 84.62478
#
# Poissons Ratio (x) = 0.11804 0.35526
# Poissons Ratio (y) = 0.11940 0.12075
# Poissons Ratio (z) = 0.28611 0.09614
#
# Static dielectric constant tensor:
#      x y z
#    x 1.711830 0.000000 -0.021480 
#    y 0.000000 1.646880 0.000000 
#    z -0.021480 0.000000 1.749030 
# 
# From -- ./inp_files/62706.got.cif
#   From: 2010.05.17/outbox.cif.g08.bks.cpg/sg15_32_cif.got.tgz:62706.got - 2010.06.03 18:47:42.
