data_PCOD9270103
_publ_section_title
;
Structure prediction by ZEFSAII (Michael W. Deem and Ramdas Pophale) SiO2 
 PCOD9270103
Probable space group: C 2/C
;
_chemical_formula_sum "Si O2"
_cell_formula_units_Z 64
_cell_length_a 7.581030
_cell_length_b 24.853137
_cell_length_c 20.887222
_cell_angle_alpha 90.000000
_cell_angle_beta 57.332438
_cell_angle_gamma 90.000000
_cell_volume 3312.894056
_symmetry_space_group_name_H-M "C 2/C"
_symmetry_group_IT_number 15
_symmetry_cell_setting 'monoclinic'
loop_
_space_group_symop_operation_xyz
x,y,z
-x,y,1/2-z
-x,-y,-z
x,-y,1/2+z
1/2+x,1/2+y,z
1/2-x,1/2+y,1/2-z
1/2-x,1/2-y,-z
1/2+x,1/2-y,1/2+z
loop_
_atom_site_type_symbol
_atom_site_label
_atom_site_fract_x
_atom_site_fract_y
_atom_site_fract_z
Si Si1 0.390429 0.057013 0.110399
Si Si2 0.673710 0.307830 0.990909
Si Si3 0.522599 0.444346 0.892840
Si Si4 0.375824 0.892965 0.046036
Si Si5 0.104613 0.363454 0.666177
Si Si6 0.219014 0.953435 0.193140
Si Si7 0.211121 0.880796 0.454444
Si Si8 0.219918 0.449407 0.183263
O O1 0.449201 0.101717 0.151193
O O2 0.164657 0.063791 0.121115
O O3 0.390182 0.998775 0.143188
O O4 0.554526 0.062303 0.019833
O O5 0.787425 0.320671 0.901509
O O6 0.750000 0.250000 0.000000
O O7 0.762453 0.348555 0.026704
O O8 0.432863 0.327908 0.028033
O O9 0.716705 0.404549 0.844753
O O10 0.616312 0.504175 0.868412
O O11 0.428764 0.425339 0.979792
O O12 0.228142 0.916577 0.129551
O O13 0.585476 0.872316 0.040754
O O14 0.000000 0.340358 0.750000
O O15 0.235592 0.921768 0.256513
O O16 0.000000 0.983278 0.250000
O O17 0.284236 0.907296 0.373487
O O18 0.000000 0.475688 0.250000
#
# Coordination Sequence:
#
# PCOD9270103 Si02
#       8
#     8   8   8   8   8   8   8   8
#     4  10  21  35  54  80 119 160 191 224 273 343
#     4  10  23  44  65  85 107 148 200 250 301 352
#     4  10  20  35  55  83 119 163 194 224 275 343
#     4  10  22  40  58  82 113 154 195 240 287 349
#     4  10  21  36  59  87 116 145 190 245 289 334
#     4  12  21  32  52  83 124 160 191 223 272 340
#     4  10  22  39  59  83 116 154 197 241 291 347
#     4  12  21  33  52  83 126 160 193 227 274 344
#
# _framework density 19.318456000000001
#
# number of rings (size 3 to 8) (size 9 to 14) (size 15 to 20)
#    0.000    1.500    2.500    3.375    0.000    0.500 
#    0.000    1.875    0.000    0.000    0.000    0.000 
#    0.000    0.000    0.000    0.000    0.000    0.000 
#
# Total GULP energy -178364.809036 kJ/mol
# GULP energy per Si atom -5573.900282 kJ/mol
# Density = 1.927449 g / cm^3
# Si number density = 19.318456 Si / 1000 Ang^3
#
#
#
# Elastic Constant Matrix: (Units=GPa)
#
#
# Indices 1 2 3 4 5 6 
#
# 1 64.7295 7.3817 35.9547 0.0000 -0.2730 0.0000
# 2 7.3817 43.3244 23.9363 0.0000 -0.9552 0.0000
# 3 35.9547 23.9363 122.0226 0.0000 14.6562 0.0000
# 4 0.0000 0.0000 0.0000 9.6852 0.0000 4.1516
# 5 -0.2730 -0.9552 14.6562 0.0000 33.4132 0.0000
# 6 0.0000 0.0000 0.0000 4.1516 0.0000 21.4698
#
#
#
# Elastic Compliance Matrix: (Units=1/GPa)
#
#
# Indices 1 2 3 4 5 6 
#
# 1 0.018703 0.000111 -0.005860 0.000000 0.002726 0.000000
# 2 0.000111 0.026202 -0.005555 0.000000 0.003187 0.000000
# 3 -0.005860 -0.005555 0.011650 0.000000 -0.005317 0.000000
# 4 0.000000 0.000000 0.000000 0.112582 0.000000 -0.021770
# 5 0.002726 0.003187 -0.005317 0.000000 0.032374 0.000000
# 6 0.000000 0.000000 0.000000 -0.021770 0.000000 0.050787
#
#
# Mechanical properties :
#
#
# Convention : Reuss Voigt Hill
#
# Bulk Modulus (GPa) = 29.45806 40.51355 34.98580
# Shear Modulus (GPa) = 17.46892 23.76723 20.61808
#
# Velocity S-wave (km/s) = 3.01036 3.51135 3.27046
# Velocity P-wave (km/s) = 5.23113 6.12016 5.69303
#
# Compressibility (1/GPa) = 0.03394657
#
# Stress axis : x y z
#
# Youngs Moduli (GPa) = 53.46782 38.16457 85.83443
#
# Poissons Ratio (x) = -0.00424 0.50301
# Poissons Ratio (y) = -0.00594 0.47685
# Poissons Ratio (z) = 0.31333 0.21202
#
# Static dielectric constant tensor:
#      x y z
#    x 1.853740 0.000000 -0.017470 
#    y 0.000000 1.642850 0.000000 
#    z -0.017470 0.000000 1.690600 
# 
# From -- ./inp_files/234413.got.cif
#   From: 2010.05.17/outbox.cif.g08.bks.cpg/sg15_118_cif.got.tgz:234413.got - 2010.06.03 18:47:42.
