data_PCOD9270020
_publ_section_title
;
Structure prediction by ZEFSAII (Michael W. Deem and Ramdas Pophale) SiO2 
 PCOD9270020
Probable space group: C 2/C
;
_chemical_formula_sum "Si O2"
_cell_formula_units_Z 64
_cell_length_a 22.003432
_cell_length_b 21.075204
_cell_length_c 9.034523
_cell_angle_alpha 90.000000
_cell_angle_beta 114.242328
_cell_angle_gamma 90.000000
_cell_volume 3820.103594
_symmetry_space_group_name_H-M "C 2/C"
_symmetry_group_IT_number 15
_symmetry_cell_setting 'monoclinic'
loop_
_space_group_symop_operation_xyz
x,y,z
-x,y,1/2-z
-x,-y,-z
x,-y,1/2+z
1/2+x,1/2+y,z
1/2-x,1/2+y,1/2-z
1/2-x,1/2-y,-z
1/2+x,1/2-y,1/2+z
loop_
_atom_site_type_symbol
_atom_site_label
_atom_site_fract_x
_atom_site_fract_y
_atom_site_fract_z
Si Si1 0.575992 0.383733 0.003008
Si Si2 0.924967 0.732900 0.497754
Si Si3 0.707144 0.811507 0.135282
Si Si4 0.575992 0.383733 0.648976
Si Si5 0.207143 0.311508 0.779005
Si Si6 0.924967 0.267100 0.352179
Si Si7 0.207269 0.934746 0.280128
Si Si8 0.292730 0.565254 0.365589
O O1 0.582765 0.308288 0.040957
O O2 0.584494 0.392419 0.834495
O O3 0.500000 0.402264 0.964923
O O4 0.633021 0.419999 0.147379
O O5 0.865992 0.695132 0.361682
O O6 0.920582 0.725721 0.670581
O O7 0.000000 0.714650 0.526524
O O8 0.750000 0.750000 0.225990
O O9 0.634008 0.804868 0.129699
O O10 0.746204 0.875280 0.216468
O O11 0.702679 0.809761 0.952679
O O12 0.582766 0.308288 0.624575
O O13 0.633021 0.419999 0.618663
O O14 0.246204 0.375281 0.775941
O O15 0.206738 0.939767 0.456738
O O16 0.230626 1.000000 0.230626
#
# Coordination Sequence:
#
# PCOD9270020 Si02
#       8
#     8   8   8   8   8   8   8   8
#     4   9  18  33  52  76 107 141 177 213 253 307
#     4   9  18  32  53  82 110 136 171 215 261 310
#     4  10  20  35  54  79 107 136 174 219 264 310
#     4   9  18  33  52  76 107 141 177 213 253 307
#     4  10  20  35  54  79 107 136 174 219 264 310
#     4   9  18  32  53  82 110 136 171 215 261 310
#     4  11  23  37  53  75 106 141 178 218 261 312
#     4  11  23  37  53  75 106 141 178 218 261 312
#
# _framework density 16.753471000000001
#
# number of rings (size 3 to 8) (size 9 to 14) (size 15 to 20)
#    0.000    2.250    2.500    2.250    0.000    4.000 
#    0.000    2.500    0.000    0.750    0.000    0.000 
#    0.000    0.000    0.000    0.000    0.000    0.000 
#
# Total GULP energy -178570.583498 kJ/mol
# GULP energy per Si atom -5580.330734 kJ/mol
# Density = 1.671534 g / cm^3
# Si number density = 16.753471 Si / 1000 Ang^3
#
#
#
# Elastic Constant Matrix: (Units=GPa)
#
#
# Indices 1 2 3 4 5 6 
#
# 1 106.8178 64.3476 30.3231 0.0000 15.5875 0.0000
# 2 64.3476 116.3990 48.6869 0.0000 11.3944 0.0000
# 3 30.3231 48.6869 52.0581 0.0000 24.2517 0.0000
# 4 0.0000 0.0000 0.0000 22.9343 0.0000 -3.6298
# 5 15.5875 11.3944 24.2517 0.0000 21.2322 0.0000
# 6 0.0000 0.0000 0.0000 -3.6298 0.0000 17.9449
#
#
#
# Elastic Compliance Matrix: (Units=1/GPa)
#
#
# Indices 1 2 3 4 5 6 
#
# 1 0.015499 -0.010053 0.006757 0.000000 -0.013702 0.000000
# 2 -0.010053 0.023750 -0.029615 0.000000 0.028462 0.000000
# 3 0.006757 -0.029615 0.080954 0.000000 -0.081534 0.000000
# 4 0.000000 0.000000 0.000000 0.045045 0.000000 0.009112
# 5 -0.013702 0.028462 -0.081534 0.000000 0.135012 0.000000
# 6 0.000000 0.000000 0.000000 0.009112 0.000000 0.057569
#
#
# Mechanical properties :
#
#
# Convention : Reuss Voigt Hill
#
# Bulk Modulus (GPa) = 18.38894 62.44336 40.41615
# Shear Modulus (GPa) = 11.31788 21.21675 16.26732
#
# Velocity S-wave (km/s) = 2.60196 3.56253 3.11944
# Velocity P-wave (km/s) = 4.47515 7.36715 6.09516
#
# Compressibility (1/GPa) = 0.05438051
#
# Stress axis : x y z
#
# Youngs Moduli (GPa) = 64.51976 42.10516 12.35271
#
# Poissons Ratio (x) = 0.42330 -0.08347
# Poissons Ratio (y) = 0.64864 0.36583
# Poissons Ratio (z) = -0.43599 1.24695
#
# Static dielectric constant tensor:
#      x y z
#    x 1.554210 0.000000 -0.000050 
#    y 0.000000 1.564120 0.000000 
#    z -0.000050 0.000000 1.554280 
# 
# From -- ./inp_files/57838.got.cif
#   From: 2010.05.17/outbox.cif.g08.bks.cpg/sg15_29_cif.got.tgz:57838.got - 2010.06.03 18:47:42.
