data_PCOD9270501
_publ_section_title
;
Structure prediction by ZEFSAII (Michael W. Deem and Ramdas Pophale) SiO2 
 PCOD9270501
Probable space group: C 2/C
;
_chemical_formula_sum "Si O2"
_cell_formula_units_Z 56
_cell_length_a 22.513038
_cell_length_b 17.946283
_cell_length_c 8.658979
_cell_angle_alpha 90.000000
_cell_angle_beta 133.100210
_cell_angle_gamma 90.000000
_cell_volume 2554.425287
_symmetry_space_group_name_H-M "C 2/C"
_symmetry_group_IT_number 15
_symmetry_cell_setting 'monoclinic'
loop_
_space_group_symop_operation_xyz
x,y,z
-x,y,1/2-z
-x,-y,-z
x,-y,1/2+z
1/2+x,1/2+y,z
1/2-x,1/2+y,1/2-z
1/2-x,1/2-y,-z
1/2+x,1/2-y,1/2+z
loop_
_atom_site_type_symbol
_atom_site_label
_atom_site_fract_x
_atom_site_fract_y
_atom_site_fract_z
Si Si1 0.736900 0.780162 0.735312
Si Si2 0.880499 0.754700 0.206096
Si Si3 0.961940 0.394862 0.350887
Si Si4 0.815511 0.521580 0.739692
Si Si5 0.885035 0.411642 0.673278
Si Si6 0.210711 0.855440 0.965441
Si Si7 0.464540 0.283724 0.857040
O O1 0.655439 0.769225 0.689995
O O2 0.742182 0.839983 0.610087
O O3 0.744565 0.701941 0.654949
O O4 0.809888 0.794313 0.985292
O O5 0.888982 0.675273 0.137894
O O6 0.964637 0.795740 0.389832
O O7 0.879777 0.437270 0.241084
O O8 0.949235 0.305579 0.338984
O O9 0.000000 0.409976 0.250000
O O10 0.025983 0.421801 0.595006
O O11 0.824068 0.435998 0.704393
O O12 0.729698 0.561697 0.557965
O O13 0.850724 0.543750 0.967511
O O14 0.117974 0.830075 0.770710
O O15 0.500000 0.299973 0.750000
#
# Coordination Sequence:
#
# PCOD9270501 Si02
#       7
#     8   8   8   8   8   8   8
#     4  10  20  36  59  89 117 154 195 263 318 364
#     4  10  21  38  60  87 123 153 202 255 312 372
#     4  10  21  37  60  85 121 163 202 253 308 376
#     4  12  24  39  56  85 126 167 213 249 299 377
#     4  11  24  37  57  84 120 168 211 246 302 367
#     4  11  22  36  60  89 124 161 204 253 316 372
#     4  10  20  35  59  89 123 161 197 250 319 364
#
# _framework density 21.922740000000001
#
# number of rings (size 3 to 8) (size 9 to 14) (size 15 to 20)
#    0.000    1.429    2.857    3.429    6.000    0.571 
#    0.000    0.000    0.000    0.000    0.000    9.000 
#    0.000    0.000    0.000    0.000    0.000    0.000 
#
# Total GULP energy -156418.627572 kJ/mol
# GULP energy per Si atom -5586.379556 kJ/mol
# Density = 2.187284 g / cm^3
# Si number density = 21.922740 Si / 1000 Ang^3
#
#
#
# Elastic Constant Matrix: (Units=GPa)
#
#
# Indices 1 2 3 4 5 6 
#
# 1 65.2295 2.9685 44.7243 0.0000 -2.9105 0.0000
# 2 2.9685 41.0977 26.4581 0.0000 13.1002 0.0000
# 3 44.7243 26.4581 138.1699 0.0000 30.4103 0.0000
# 4 0.0000 0.0000 0.0000 20.5814 0.0000 9.8407
# 5 -2.9105 13.1002 30.4103 0.0000 38.7969 0.0000
# 6 0.0000 0.0000 0.0000 9.8407 0.0000 23.5186
#
#
#
# Elastic Compliance Matrix: (Units=1/GPa)
#
#
# Indices 1 2 3 4 5 6 
#
# 1 0.021991 0.001730 -0.009286 0.000000 0.008344 0.000000
# 2 0.001730 0.029221 -0.004849 0.000000 -0.005936 0.000000
# 3 -0.009286 -0.004849 0.013251 0.000000 -0.009446 0.000000
# 4 0.000000 0.000000 0.000000 0.060739 0.000000 -0.025415
# 5 0.008344 -0.005936 -0.009446 0.000000 0.035810 0.000000
# 6 0.000000 0.000000 0.000000 -0.025415 0.000000 0.053153
#
#
# Mechanical properties :
#
#
# Convention : Reuss Voigt Hill
#
# Bulk Modulus (GPa) = 25.21885 43.64433 34.43159
# Shear Modulus (GPa) = 19.82606 27.93578 23.88092
#
# Velocity S-wave (km/s) = 3.01052 3.57358 3.30407
# Velocity P-wave (km/s) = 4.85930 6.08102 5.50416
#
# Compressibility (1/GPa) = 0.03965288
#
# Stress axis : x y z
#
# Youngs Moduli (GPa) = 45.47300 34.22159 75.46729
#
# Poissons Ratio (x) = -0.05920 0.70080
# Poissons Ratio (y) = -0.07867 0.36594
# Poissons Ratio (z) = 0.42227 0.16594
#
# Static dielectric constant tensor:
#      x y z
#    x 1.863940 0.000000 -0.019240 
#    y 0.000000 1.864640 0.000000 
#    z -0.019240 0.000000 1.820780 
# 
# From -- ./inp_files/62781.got.cif
#   From: 2010.05.17/outbox.cif.g08.bks.cpg/sg15_32_cif.got.tgz:62781.got - 2010.06.03 18:47:42.
