data_PCOD9270028
_publ_section_title
;
Structure prediction by ZEFSAII (Michael W. Deem and Ramdas Pophale) SiO2 
 PCOD9270028
Probable space group: C 2/C
;
_chemical_formula_sum "Si O2"
_cell_formula_units_Z 64
_cell_length_a 27.837278
_cell_length_b 7.908521
_cell_length_c 14.317523
_cell_angle_alpha 90.000000
_cell_angle_beta 103.844112
_cell_angle_gamma 90.000000
_cell_volume 3060.461699
_symmetry_space_group_name_H-M "C 2/C"
_symmetry_group_IT_number 15
_symmetry_cell_setting 'monoclinic'
loop_
_space_group_symop_operation_xyz
x,y,z
-x,y,1/2-z
-x,-y,-z
x,-y,1/2+z
1/2+x,1/2+y,z
1/2-x,1/2+y,1/2-z
1/2-x,1/2-y,-z
1/2+x,1/2-y,1/2+z
loop_
_atom_site_type_symbol
_atom_site_label
_atom_site_fract_x
_atom_site_fract_y
_atom_site_fract_z
Si Si1 0.352917 0.029220 0.543587
Si Si2 0.396054 0.868159 0.324858
Si Si3 0.882358 0.287117 0.869645
Si Si4 0.548362 0.846512 0.318845
Si Si5 0.703895 0.194076 0.814015
Si Si6 0.805962 0.975224 0.302677
Si Si7 0.452447 0.429519 0.530131
Si Si8 0.870130 0.822001 0.985943
O O1 0.354019 0.119727 0.443065
O O2 0.408931 0.045638 0.610420
O O3 0.316442 0.133618 0.594677
O O4 0.343366 0.828293 0.530091
O O5 0.421893 0.767555 0.254643
O O6 0.337933 0.875313 0.275756
O O7 0.403509 0.781505 0.426475
O O8 0.410679 0.063479 0.330129
O O9 0.844037 0.174270 0.794277
O O10 0.921471 0.166544 0.936263
O O11 0.500000 0.928545 0.250000
O O12 0.532506 0.704007 0.384056
O O13 0.755705 0.109435 0.814366
O O14 0.703826 0.392623 0.785990
O O15 0.831946 0.071862 0.403231
O O16 0.500000 0.500000 0.500000
O O17 0.410584 0.557254 0.552607
#
# Coordination Sequence:
#
# PCOD9270028 Si02
#       8
#     8   8   8   8   8   8   8   8
#     4   9  20  38  57  79 110 146 190 236 276 330
#     4   9  18  36  58  78 109 147 185 229 279 328
#     4   9  19  37  58  79 106 147 187 226 282 336
#     4  10  20  35  54  81 113 145 185 231 278 327
#     4  10  20  35  55  82 113 145 183 232 278 326
#     4  10  20  35  57  83 113 148 184 224 282 339
#     4  10  20  35  56  82 113 148 185 227 278 334
#     4   9  19  37  58  81 110 148 187 226 278 334
#
# _framework density 20.911878000000002
#
# number of rings (size 3 to 8) (size 9 to 14) (size 15 to 20)
#    0.000    2.500    0.000    1.500    0.000    3.000 
#    0.000   28.125    0.000    0.000    0.000    0.000 
#    0.000    0.000    0.000    0.000    0.000    0.000 
#
# Total GULP energy -178255.768136 kJ/mol
# GULP energy per Si atom -5570.492754 kJ/mol
# Density = 2.086428 g / cm^3
# Si number density = 20.911878 Si / 1000 Ang^3
#
#
#
# Elastic Constant Matrix: (Units=GPa)
#
#
# Indices 1 2 3 4 5 6 
#
# 1 80.7088 13.7668 11.0620 0.0000 5.5869 0.0000
# 2 13.7668 38.2476 -4.4385 0.0000 10.3465 0.0000
# 3 11.0620 -4.4385 37.0096 0.0000 -7.4743 0.0000
# 4 0.0000 0.0000 0.0000 14.4162 0.0000 -1.1815
# 5 5.5869 10.3465 -7.4743 0.0000 17.9236 0.0000
# 6 0.0000 0.0000 0.0000 -1.1815 0.0000 27.0953
#
#
#
# Elastic Compliance Matrix: (Units=1/GPa)
#
#
# Indices 1 2 3 4 5 6 
#
# 1 0.014245 -0.004674 -0.005646 0.000000 -0.004096 0.000000
# 2 -0.004674 0.032518 0.001966 0.000000 -0.016494 0.000000
# 3 -0.005646 0.001966 0.031743 0.000000 0.013862 0.000000
# 4 0.000000 0.000000 0.000000 0.069615 0.000000 0.003036
# 5 -0.004096 -0.016494 0.013862 0.000000 0.072371 0.000000
# 6 0.000000 0.000000 0.000000 0.003036 0.000000 0.037039
#
#
# Mechanical properties :
#
#
# Convention : Reuss Voigt Hill
#
# Bulk Modulus (GPa) = 16.18191 21.86074 19.02133
# Shear Modulus (GPa) = 16.95846 20.92541 18.94193
#
# Velocity S-wave (km/s) = 2.85081 3.16673 3.01291
# Velocity P-wave (km/s) = 4.31174 4.88338 4.60643
#
# Compressibility (1/GPa) = 0.06179740
#
# Stress axis : x y z
#
# Youngs Moduli (GPa) = 70.20065 30.75218 31.50327
#
# Poissons Ratio (x) = 0.14375 0.17785
# Poissons Ratio (y) = 0.32815 -0.06193
# Poissons Ratio (z) = 0.39632 -0.06045
#
# Static dielectric constant tensor:
#      x y z
#    x 1.751810 0.000000 -0.002710 
#    y 0.000000 1.844120 0.000000 
#    z -0.002710 0.000000 1.766450 
# 
# From -- ./inp_files/176607.got.cif
#   From: 2010.05.17/outbox.cif.g08.bks.cpg/sg15_89_cif.got.tgz:176607.got - 2010.06.03 18:47:42.
