data_PCOD9270898
_publ_section_title
;
Structure prediction by ZEFSAII (Michael W. Deem and Ramdas Pophale) SiO2 
 PCOD9270898
Probable space group: C 2/C
;
_chemical_formula_sum "Si O2"
_cell_formula_units_Z 44
_cell_length_a 13.322964
_cell_length_b 21.187669
_cell_length_c 14.569378
_cell_angle_alpha 90.000000
_cell_angle_beta 33.384975
_cell_angle_gamma 90.000000
_cell_volume 2263.051332
_symmetry_space_group_name_H-M "C 2/C"
_symmetry_group_IT_number 15
_symmetry_cell_setting 'monoclinic'
loop_
_space_group_symop_operation_xyz
x,y,z
-x,y,1/2-z
-x,-y,-z
x,-y,1/2+z
1/2+x,1/2+y,z
1/2-x,1/2+y,1/2-z
1/2-x,1/2-y,-z
1/2+x,1/2-y,1/2+z
loop_
_atom_site_type_symbol
_atom_site_label
_atom_site_fract_x
_atom_site_fract_y
_atom_site_fract_z
Si Si1 0.176316 0.522800 0.978277
Si Si2 0.750379 0.207974 0.142937
Si Si3 0.026273 0.896255 0.933891
Si Si4 0.000000 0.064499 0.250000
Si Si5 0.832646 0.671020 0.496048
Si Si6 0.224317 0.512710 0.722771
O O1 0.333482 0.481533 0.903793
O O2 0.202781 0.514508 0.849102
O O3 0.193752 0.596949 0.977987
O O4 0.978193 0.498466 0.159086
O O5 0.904852 0.170555 0.080463
O O6 0.549211 0.185416 0.325661
O O7 0.764695 0.189786 0.024727
O O8 0.760611 0.284003 0.132339
O O9 0.156297 0.949351 0.882667
O O10 0.046986 0.898136 0.807249
O O11 0.827735 0.924481 0.110528
#
# Coordination Sequence:
#
# PCOD9270898 Si02
#       6
#     8   8   8   4   8   8
#     4  10  20  36  54  88 117 148 189 237 286 354
#     4  10  22  37  55  82 118 150 194 230 284 343
#     4  10  20  38  55  85 115 154 192 237 289 348
#     4  10  24  34  60  86 118 154 190 244 292 338
#     4  10  22  35  56  84 113 155 186 236 283 346
#     4   9  20  34  57  82 115 152 185 235 302 332
#
# _framework density 19.442777
#
# number of rings (size 3 to 8) (size 9 to 14) (size 15 to 20)
#    0.000    2.182    1.818    0.000   10.182    2.182 
#    0.000    0.000    0.000    1.091    0.000    0.000 
#    0.000    0.000    0.000    0.000    0.000    0.000 
#
# Total GULP energy -122731.335619 kJ/mol
# GULP energy per Si atom -5578.697074 kJ/mol
# Density = 1.939852 g / cm^3
# Si number density = 19.442777 Si / 1000 Ang^3
#
#
#
# Elastic Constant Matrix: (Units=GPa)
#
#
# Indices 1 2 3 4 5 6 
#
# 1 79.2878 46.8347 21.1796 0.0011 -5.9112 -0.0069
# 2 46.8347 74.4810 23.8539 -0.0060 -5.5856 -0.0020
# 3 21.1796 23.8539 40.3594 -0.0244 -9.3663 -0.0056
# 4 0.0011 -0.0060 -0.0244 17.1661 0.0027 -0.5908
# 5 -5.9112 -5.5856 -9.3663 0.0027 25.7363 0.0076
# 6 -0.0069 -0.0020 -0.0056 -0.5908 0.0076 29.7781
#
#
#
# Elastic Compliance Matrix: (Units=1/GPa)
#
#
# Indices 1 2 3 4 5 6 
#
# 1 0.020563 -0.011686 -0.003688 -0.000011 0.000845 0.000003
# 2 -0.011686 0.023202 -0.007684 -0.000002 -0.000445 -0.000003
# 3 -0.003688 -0.007684 0.033500 0.000044 0.009677 0.000003
# 4 -0.000011 -0.000002 0.000044 0.058294 0.000007 0.001157
# 5 0.000845 -0.000445 0.009677 0.000007 0.042475 -0.000009
# 6 0.000003 -0.000003 0.000003 0.001157 -0.000009 0.033605
#
#
# Mechanical properties :
#
#
# Convention : Reuss Voigt Hill
#
# Bulk Modulus (GPa) = 32.10372 41.98496 37.04434
# Shear Modulus (GPa) = 18.64707 21.35344 20.00025
#
# Velocity S-wave (km/s) = 3.10025 3.31761 3.21077
# Velocity P-wave (km/s) = 5.41878 6.02631 5.73060
#
# Compressibility (1/GPa) = 0.03114904
#
# Stress axis : x y z
#
# Youngs Moduli (GPa) = 48.63055 43.09959 29.85053
#
# Poissons Ratio (x) = 0.50366 0.11010
# Poissons Ratio (y) = 0.56829 0.22938
# Poissons Ratio (z) = 0.17936 0.33118
#
# Static dielectric constant tensor:
#      x y z
#    x 1.694590 0.000000 -0.000890 
#    y 0.000000 1.706890 0.000020 
#    z -0.000890 0.000020 1.739220 
# 
# From -- ./inp_files/156117.got.cif
#   From: 2010.05.17/outbox.cif.g08.bks.cpg/sg15_79_cif.got.tgz:156117.got - 2010.06.03 18:47:42.
