data_PCOD9270611
_publ_section_title
;
Structure prediction by ZEFSAII (Michael W. Deem and Ramdas Pophale) SiO2 
 PCOD9270611
Probable space group: C 2/C
;
_chemical_formula_sum "Si O2"
_cell_formula_units_Z 52
_cell_length_a 16.608029
_cell_length_b 9.663323
_cell_length_c 20.629155
_cell_angle_alpha 90.000000
_cell_angle_beta 125.251360
_cell_angle_gamma 90.000000
_cell_volume 2703.648444
_symmetry_space_group_name_H-M "C 2/C"
_symmetry_group_IT_number 15
_symmetry_cell_setting 'monoclinic'
loop_
_space_group_symop_operation_xyz
x,y,z
-x,y,1/2-z
-x,-y,-z
x,-y,1/2+z
1/2+x,1/2+y,z
1/2-x,1/2+y,1/2-z
1/2-x,1/2-y,-z
1/2+x,1/2-y,1/2+z
loop_
_atom_site_type_symbol
_atom_site_label
_atom_site_fract_x
_atom_site_fract_y
_atom_site_fract_z
Si Si1 0.888239 0.864384 0.582154
Si Si2 0.000000 0.962691 0.750000
Si Si3 0.344046 0.609020 0.763473
Si Si4 0.335344 0.101101 0.311667
Si Si5 0.175455 0.640881 0.039971
Si Si6 0.462205 0.917364 0.545644
Si Si7 0.521061 0.594858 0.948092
O O1 0.894055 0.753438 0.527288
O O2 0.787015 0.834387 0.571403
O O3 0.894808 0.015548 0.553228
O O4 0.971830 0.868389 0.675712
O O5 0.093845 0.055910 0.770558
O O6 0.316705 0.771272 0.754585
O O7 0.246772 0.517653 0.730622
O O8 0.422986 0.592203 0.858177
O O9 0.329159 0.149384 0.384487
O O10 0.451357 0.060301 0.361079
O O11 0.141091 0.494338 0.993851
O O12 0.452659 0.754547 0.528689
O O13 0.500000 0.000000 0.500000
O O14 0.500000 0.500000 0.000000
#
# Coordination Sequence:
#
# PCOD9270611 Si02
#       7
#     8   4   8   8   8   8   8
#     4  10  20  35  61  82 120 156 193 242 293 348
#     4  10  20  38  56  88 116 162 188 242 304 354
#     4  10  21  35  60  80 119 148 197 241 294 346
#     4  10  20  37  58  87 112 154 196 242 287 358
#     4  10  20  37  59  87 115 153 196 245 288 351
#     4   9  19  34  55  80 114 142 187 239 284 335
#     4  10  20  36  57  86 111 153 198 238 287 359
#
# _framework density 19.233270999999998
#
# number of rings (size 3 to 8) (size 9 to 14) (size 15 to 20)
#    0.000    2.154    1.538    2.769    0.000    5.538 
#    0.000    0.000   20.308    0.923    0.000    0.000 
#    0.000    0.000    0.000    0.000    0.000    0.000 
#
# Total GULP energy -144735.176648 kJ/mol
# GULP energy per Si atom -5566.737563 kJ/mol
# Density = 1.918949 g / cm^3
# Si number density = 19.233271 Si / 1000 Ang^3
#
#
#
# Elastic Constant Matrix: (Units=GPa)
#
#
# Indices 1 2 3 4 5 6 
#
# 1 16.6741 -11.8587 -6.8675 0.0000 1.6804 0.0000
# 2 -11.8587 101.2147 33.2697 0.0000 2.8571 0.0000
# 3 -6.8675 33.2697 41.3927 0.0000 -8.2015 0.0000
# 4 0.0000 0.0000 0.0000 35.9316 0.0000 4.4209
# 5 1.6804 2.8571 -8.2015 0.0000 16.1812 0.0000
# 6 0.0000 0.0000 0.0000 4.4209 0.0000 20.5716
#
#
#
# Elastic Compliance Matrix: (Units=1/GPa)
#
#
# Indices 1 2 3 4 5 6 
#
# 1 0.067111 0.006429 0.004848 0.000000 -0.005647 0.000000
# 2 0.006429 0.015249 -0.013179 0.000000 -0.010040 0.000000
# 3 0.004848 -0.013179 0.039927 0.000000 0.022060 0.000000
# 4 0.000000 0.000000 0.000000 0.028587 0.000000 -0.006143
# 5 -0.005647 -0.010040 0.022060 0.000000 0.075341 0.000000
# 6 0.000000 0.000000 0.000000 -0.006143 0.000000 0.049931
#
#
# Mechanical properties :
#
#
# Convention : Reuss Voigt Hill
#
# Bulk Modulus (GPa) = 8.44002 20.92984 14.68493
# Shear Modulus (GPa) = 15.65226 24.18609 19.91917
#
# Velocity S-wave (km/s) = 2.85583 3.54999 3.22166
# Velocity P-wave (km/s) = 3.90796 5.26393 4.63579
#
# Compressibility (1/GPa) = 0.11848317
#
# Stress axis : x y z
#
# Youngs Moduli (GPa) = 14.90063 65.58002 25.04586
#
# Poissons Ratio (x) = -0.42160 -0.12143
# Poissons Ratio (y) = -0.09579 0.33007
# Poissons Ratio (z) = -0.07224 0.86427
#
# Static dielectric constant tensor:
#      x y z
#    x 1.749310 0.000000 0.011060 
#    y 0.000000 1.713010 0.000000 
#    z 0.011060 0.000000 1.684020 
# 
# From -- ./inp_files/213311.got.cif
#   From: 2010.05.17/outbox.cif.g08.bks.cpg/sg15_107_cif.got.tgz:213311.got - 2010.06.03 18:47:42.
