data_PCOD9270473
_publ_section_title
;
Structure prediction by ZEFSAII (Michael W. Deem and Ramdas Pophale) SiO2 
 PCOD9270473
Probable space group: C 2/C
;
_chemical_formula_sum "Si O2"
_cell_formula_units_Z 56
_cell_length_a 24.115494
_cell_length_b 13.292779
_cell_length_c 19.469096
_cell_angle_alpha 90.000000
_cell_angle_beta 24.789722
_cell_angle_gamma 90.000000
_cell_volume 2616.805507
_symmetry_space_group_name_H-M "C 2/C"
_symmetry_group_IT_number 15
_symmetry_cell_setting 'monoclinic'
loop_
_space_group_symop_operation_xyz
x,y,z
-x,y,1/2-z
-x,-y,-z
x,-y,1/2+z
1/2+x,1/2+y,z
1/2-x,1/2+y,1/2-z
1/2-x,1/2-y,-z
1/2+x,1/2-y,1/2+z
loop_
_atom_site_type_symbol
_atom_site_label
_atom_site_fract_x
_atom_site_fract_y
_atom_site_fract_z
Si Si1 0.840369 0.736397 0.491253
Si Si2 0.000000 0.919989 0.250000
Si Si3 0.890567 0.498128 0.232621
Si Si4 0.000000 0.431138 0.750000
Si Si5 0.686981 0.417417 0.562937
Si Si6 0.939492 0.717927 0.140412
Si Si7 0.963769 0.714057 0.614074
Si Si8 0.819677 0.282261 0.510710
O O1 0.687116 0.730265 0.682512
O O2 0.892757 0.842114 0.401592
O O3 0.877801 0.646839 0.396972
O O4 0.932627 0.722749 0.454620
O O5 0.922001 0.002287 0.290318
O O6 0.751909 0.467136 0.422666
O O7 0.892856 0.601911 0.190178
O O8 0.979210 0.513184 0.201629
O O9 0.936321 0.404648 0.136414
O O10 0.797063 0.386574 0.495133
O O11 0.646149 0.306890 0.581571
O O12 0.977595 0.756190 0.022390
O O13 0.069153 0.720546 0.556734
O O14 0.824106 0.761122 0.793820
#
# Coordination Sequence:
#
# PCOD9270473 Si02
#       8
#     8   4   8   4   8   8   8   8
#     4  10  23  36  63  87 120 160 196 246 308 345
#     4  11  20  36  61  90 126 152 193 258 306 353
#     4  10  20  35  59  86 114 155 194 248 292 348
#     4   9  20  34  57  88 114 140 201 252 296 347
#     4  10  20  35  61  87 120 145 197 251 304 350
#     4  11  22  41  57  87 121 163 202 236 290 365
#     4  11  22  39  61  84 123 160 201 237 292 363
#     4  10  22  38  62  91 115 159 194 249 308 347
#
# _framework density 21.400138999999999
#
# number of rings (size 3 to 8) (size 9 to 14) (size 15 to 20)
#    0.000    1.714    1.429    3.000    2.000    5.714 
#    0.000    0.000    0.000    2.571    0.000    0.000 
#    0.000    0.000    0.000    0.000    0.000    0.000 
#
# Total GULP energy -156276.235349 kJ/mol
# GULP energy per Si atom -5581.294120 kJ/mol
# Density = 2.135143 g / cm^3
# Si number density = 21.400139 Si / 1000 Ang^3
#
#
#
# Elastic Constant Matrix: (Units=GPa)
#
#
# Indices 1 2 3 4 5 6 
#
# 1 45.3686 -17.9904 15.5734 0.0000 3.4432 0.0000
# 2 -17.9904 40.9868 -6.6107 -0.0001 5.8868 0.0000
# 3 15.5734 -6.6107 99.9682 -0.0001 6.4790 0.0001
# 4 0.0000 -0.0001 -0.0001 21.8920 0.0001 -3.5438
# 5 3.4432 5.8868 6.4790 0.0001 37.0876 0.0000
# 6 0.0000 0.0000 0.0001 -3.5438 0.0000 23.0810
#
#
#
# Elastic Compliance Matrix: (Units=1/GPa)
#
#
# Indices 1 2 3 4 5 6 
#
# 1 0.028468 0.012538 -0.003343 0.000000 -0.004049 0.000000
# 2 0.012538 0.030863 0.000486 0.000000 -0.006148 0.000000
# 3 -0.003343 0.000486 0.010662 0.000000 -0.001629 0.000000
# 4 0.000000 0.000000 0.000000 0.046843 0.000000 0.007192
# 5 -0.004049 -0.006148 -0.001629 0.000000 0.028600 0.000000
# 6 0.000000 0.000000 0.000000 0.007192 0.000000 0.044430
#
#
# Mechanical properties :
#
#
# Convention : Reuss Voigt Hill
#
# Bulk Modulus (GPa) = 11.19139 18.69647 14.94393
# Shear Modulus (GPa) = 24.96394 29.43554 27.19974
#
# Velocity S-wave (km/s) = 3.41916 3.71277 3.56899
# Velocity P-wave (km/s) = 4.56382 5.20914 4.89712
#
# Compressibility (1/GPa) = 0.08935444
#
# Stress axis : x y z
#
# Youngs Moduli (GPa) = 35.12662 32.40148 93.79312
#
# Poissons Ratio (x) = -0.40625 0.31359
# Poissons Ratio (y) = -0.44042 -0.04560
# Poissons Ratio (z) = 0.11744 -0.01575
#
# Static dielectric constant tensor:
#      x y z
#    x 1.760080 0.000000 -0.028170 
#    y 0.000000 1.800260 0.000000 
#    z -0.028170 0.000000 1.835990 
# 
# From -- ./inp_files/112361.got.cif
#   From: 2010.05.17/outbox.cif.g08.bks.cpg/sg15_57_cif.got.tgz:112361.got - 2010.06.03 18:47:42.
