data_PCOD9270791
_publ_section_title
;
Structure prediction by ZEFSAII (Michael W. Deem and Ramdas Pophale) SiO2 
 PCOD9270791
Probable space group: C 2/C
;
_chemical_formula_sum "Si O2"
_cell_formula_units_Z 60
_cell_length_a 13.399547
_cell_length_b 14.895008
_cell_length_c 20.368193
_cell_angle_alpha 90.000000
_cell_angle_beta 41.040582
_cell_angle_gamma 90.000000
_cell_volume 2669.192421
_symmetry_space_group_name_H-M "C 2/C"
_symmetry_group_IT_number 15
_symmetry_cell_setting 'monoclinic'
loop_
_space_group_symop_operation_xyz
x,y,z
-x,y,1/2-z
-x,-y,-z
x,-y,1/2+z
1/2+x,1/2+y,z
1/2-x,1/2+y,1/2-z
1/2-x,1/2-y,-z
1/2+x,1/2-y,1/2+z
loop_
_atom_site_type_symbol
_atom_site_label
_atom_site_fract_x
_atom_site_fract_y
_atom_site_fract_z
Si Si1 0.000000 0.739392 0.250000
Si Si2 0.383385 0.119009 0.577564
Si Si3 0.267954 0.391082 0.660020
Si Si4 0.133247 0.694328 0.630667
Si Si5 0.092018 0.554705 0.361315
Si Si6 0.700772 0.991989 0.575982
Si Si7 0.162743 0.161012 0.570852
Si Si8 0.043891 0.788682 0.544781
O O1 0.152098 0.679224 0.182009
O O2 0.010923 0.798550 0.178140
O O3 0.529552 0.093767 0.460195
O O4 0.249491 0.125541 0.592222
O O5 0.421490 0.212905 0.589573
O O6 0.357669 0.044995 0.645098
O O7 0.220563 0.393174 0.759337
O O8 0.222223 0.480685 0.643131
O O9 0.448204 0.375273 0.571343
O O10 0.177501 0.597926 0.574594
O O11 0.085267 0.767753 0.599904
O O12 0.300365 0.722009 0.572897
O O13 0.000000 0.683262 0.750000
O O14 0.951152 0.550761 0.380286
O O15 0.829433 0.924682 0.481522
O O16 0.250000 0.250000 0.500000
#
# Coordination Sequence:
#
# PCOD9270791 Si02
#       8
#     4   8   8   8   8   8   8   8
#     4  12  20  36  64 100 138 176 212 264 372 400
#     4  10  20  38  61  92 130 176 220 271 336 408
#     4  12  22  39  66 103 132 176 227 285 337 413
#     4  11  26  47  69  89 127 185 226 282 345 412
#     4  10  20  35  65  94 129 177 221 266 337 418
#     4  11  21  41  67  95 136 179 223 274 341 407
#     4  11  21  39  62 100 138 172 216 287 336 402
#     4  11  25  44  64  98 132 166 237 286 331 406
#
# _framework density 22.478708999999998
#
# number of rings (size 3 to 8) (size 9 to 14) (size 15 to 20)
#    0.000    1.067    5.333    1.600    1.867    0.533 
#    2.400    0.000    1.467    0.000    0.000    0.000 
#    0.000    0.000    0.000    0.000    0.000    0.000 
#
# Total GULP energy -167181.721733 kJ/mol
# GULP energy per Si atom -5572.724058 kJ/mol
# Density = 2.242755 g / cm^3
# Si number density = 22.478709 Si / 1000 Ang^3
#
#
#
# Elastic Constant Matrix: (Units=GPa)
#
#
# Indices 1 2 3 4 5 6 
#
# 1 73.9031 14.3162 21.6738 -0.0001 -9.3013 0.0000
# 2 14.3162 55.8352 16.9768 -0.0001 0.7530 0.0000
# 3 21.6738 16.9768 87.8075 -0.0003 5.1679 0.0001
# 4 -0.0001 -0.0001 -0.0003 28.0681 0.0001 9.2428
# 5 -9.3013 0.7530 5.1679 0.0001 26.1785 0.0000
# 6 0.0000 0.0000 0.0001 9.2428 0.0000 24.9330
#
#
#
# Elastic Compliance Matrix: (Units=1/GPa)
#
#
# Indices 1 2 3 4 5 6 
#
# 1 0.016047 -0.003061 -0.003753 0.000000 0.006531 0.000000
# 2 -0.003061 0.019613 -0.002974 0.000000 -0.001065 0.000000
# 3 -0.003753 -0.002974 0.013116 0.000000 -0.003837 0.000000
# 4 0.000000 0.000000 0.000000 0.040582 0.000000 -0.015044
# 5 0.006531 -0.001065 -0.003837 0.000000 0.041308 0.000000
# 6 0.000000 0.000000 0.000000 -0.015044 0.000000 0.045684
#
#
# Mechanical properties :
#
#
# Convention : Reuss Voigt Hill
#
# Bulk Modulus (GPa) = 34.24755 35.94213 35.09484
# Shear Modulus (GPa) = 24.31201 26.80787 25.55994
#
# Velocity S-wave (km/s) = 3.29227 3.45713 3.37571
# Velocity P-wave (km/s) = 5.45167 5.65330 5.55340
#
# Compressibility (1/GPa) = 0.02919916
#
# Stress axis : x y z
#
# Youngs Moduli (GPa) = 62.31720 50.98581 76.24393
#
# Poissons Ratio (x) = 0.15608 0.28617
# Poissons Ratio (y) = 0.19077 0.22673
# Poissons Ratio (z) = 0.23390 0.15162
#
# Static dielectric constant tensor:
#      x y z
#    x 1.831010 0.000000 -0.037980 
#    y 0.000000 2.007930 0.000000 
#    z -0.037980 0.000000 1.924350 
# 
# From -- ./inp_files/244685.got.cif
#   From: 2010.05.17/outbox.cif.g08.bks.cpg/sg15_123_cif.got.tgz:244685.got - 2010.06.03 18:47:42.
