data_PCOD9270339
_publ_section_title
;
Structure prediction by ZEFSAII (Michael W. Deem and Ramdas Pophale) SiO2 
 PCOD9270339
Probable space group: C 2/C
;
_chemical_formula_sum "Si O2"
_cell_formula_units_Z 64
_cell_length_a 19.861932
_cell_length_b 20.061836
_cell_length_c 11.847404
_cell_angle_alpha 90.000000
_cell_angle_beta 137.075559
_cell_angle_gamma 90.000000
_cell_volume 3215.020213
_symmetry_space_group_name_H-M "C 2/C"
_symmetry_group_IT_number 15
_symmetry_cell_setting 'monoclinic'
loop_
_space_group_symop_operation_xyz
x,y,z
-x,y,1/2-z
-x,-y,-z
x,-y,1/2+z
1/2+x,1/2+y,z
1/2-x,1/2+y,1/2-z
1/2-x,1/2-y,-z
1/2+x,1/2-y,1/2+z
loop_
_atom_site_type_symbol
_atom_site_label
_atom_site_fract_x
_atom_site_fract_y
_atom_site_fract_z
Si Si1 0.113924 0.004465 0.608343
Si Si2 0.389976 0.307783 0.657176
Si Si3 0.248463 0.562884 0.533877
Si Si4 0.265345 0.429020 0.434363
Si Si5 0.654845 0.858808 0.102697
Si Si6 0.180824 0.135519 0.100832
Si Si7 0.322598 0.249321 0.344725
Si Si8 0.463413 0.260887 0.987554
O O1 0.156945 0.930252 0.644326
O O2 0.167444 0.045141 0.772195
O O3 0.143532 0.042820 0.530067
O O4 0.000000 0.000000 0.500000
O O5 0.500000 0.328995 0.750000
O O6 0.314305 0.369577 0.565862
O O7 0.348629 0.259276 0.508681
O O8 0.405885 0.273792 0.797647
O O9 0.222810 0.491412 0.449409
O O10 0.162608 0.597754 0.500016
O O11 0.291367 0.610009 0.489258
O O12 0.182820 0.402147 0.246658
O O13 0.743108 0.804338 0.209924
O O14 0.559316 0.813504 0.999123
O O15 0.273131 0.178463 0.259502
O O16 0.085351 0.184021 0.990943
O O17 0.421714 0.265450 0.397831
#
# Coordination Sequence:
#
# PCOD9270339 Si02
#       8
#     8   8   8   8   8   8   8   8
#     4  10  22  34  54  83 112 146 184 226 277 345
#     4   9  18  31  55  83 111 141 185 235 285 333
#     4  10  21  37  53  78 116 148 182 231 286 337
#     4   9  19  32  52  78 109 145 176 233 284 330
#     4   9  20  37  54  79 113 143 188 236 274 337
#     4  10  22  36  57  84 115 147 186 232 285 338
#     4   9  20  37  54  82 114 145 186 237 279 335
#     4  10  20  35  58  82 110 152 190 231 282 332
#
# _framework density 19.906562000000001
#
# number of rings (size 3 to 8) (size 9 to 14) (size 15 to 20)
#    0.000    2.500    0.000    0.750    8.750    9.000 
#    0.000    1.875    0.000    8.250    0.000    0.000 
#    0.000    0.000    0.000    0.000    0.000    0.000 
#
# Total GULP energy -178668.353038 kJ/mol
# GULP energy per Si atom -5583.386032 kJ/mol
# Density = 1.986125 g / cm^3
# Si number density = 19.906562 Si / 1000 Ang^3
#
#
#
# Elastic Constant Matrix: (Units=GPa)
#
#
# Indices 1 2 3 4 5 6 
#
# 1 43.9943 29.0877 13.0303 0.0000 -16.6693 0.0000
# 2 29.0877 96.9151 23.3571 0.0000 -17.2784 0.0000
# 3 13.0303 23.3571 24.1923 0.0000 -7.5532 0.0000
# 4 0.0000 0.0000 0.0000 18.2337 0.0000 -7.7773
# 5 -16.6693 -17.2784 -7.5532 0.0000 23.4751 0.0000
# 6 0.0000 0.0000 0.0000 -7.7773 0.0000 34.0778
#
#
#
# Elastic Compliance Matrix: (Units=1/GPa)
#
#
# Indices 1 2 3 4 5 6 
#
# 1 0.035895 -0.005437 -0.008200 0.000000 0.018849 0.000000
# 2 -0.005437 0.015183 -0.010501 0.000000 0.003935 0.000000
# 3 -0.008200 -0.010501 0.057429 0.000000 0.004926 0.000000
# 4 0.000000 0.000000 0.000000 0.060758 0.000000 0.013866
# 5 0.018849 0.003935 0.004926 0.000000 0.060464 0.000000
# 6 0.000000 0.000000 0.000000 0.013866 0.000000 0.032509
#
#
# Mechanical properties :
#
#
# Convention : Reuss Voigt Hill
#
# Bulk Modulus (GPa) = 16.60284 32.89463 24.74874
# Shear Modulus (GPa) = 15.12447 21.79909 18.46178
#
# Velocity S-wave (km/s) = 2.75939 3.31277 3.04866
# Velocity P-wave (km/s) = 4.30242 5.58507 4.98517
#
# Compressibility (1/GPa) = 0.06023067
#
# Stress axis : x y z
#
# Youngs Moduli (GPa) = 27.85892 65.86485 17.41295
#
# Poissons Ratio (x) = 0.35810 0.14278
# Poissons Ratio (y) = 0.15146 0.18286
# Poissons Ratio (z) = 0.22843 0.69167
#
# Static dielectric constant tensor:
#      x y z
#    x 1.722400 0.000000 -0.030150 
#    y 0.000000 1.729270 0.000000 
#    z -0.030150 0.000000 1.690760 
# 
# From -- ./inp_files/114293.got.cif
#   From: 2010.05.17/outbox.cif.g08.bks.cpg/sg15_58_cif.got.tgz:114293.got - 2010.06.03 18:47:42.
