data_PCOD9270554
_publ_section_title
;
Structure prediction by ZEFSAII (Michael W. Deem and Ramdas Pophale) SiO2 
 PCOD9270554
Probable space group: C 2/C
;
_chemical_formula_sum "Si O2"
_cell_formula_units_Z 44
_cell_length_a 11.574799
_cell_length_b 23.108488
_cell_length_c 8.608618
_cell_angle_alpha 90.000000
_cell_angle_beta 119.027908
_cell_angle_gamma 90.000000
_cell_volume 2013.355005
_symmetry_space_group_name_H-M "C 2/C"
_symmetry_group_IT_number 15
_symmetry_cell_setting 'monoclinic'
loop_
_space_group_symop_operation_xyz
x,y,z
-x,y,1/2-z
-x,-y,-z
x,-y,1/2+z
1/2+x,1/2+y,z
1/2-x,1/2+y,1/2-z
1/2-x,1/2-y,-z
1/2+x,1/2-y,1/2+z
loop_
_atom_site_type_symbol
_atom_site_label
_atom_site_fract_x
_atom_site_fract_y
_atom_site_fract_z
Si Si1 0.082538 0.321758 0.434246
Si Si2 0.238718 0.569471 0.986754
Si Si3 0.598896 0.028710 0.189802
Si Si4 0.299842 0.302859 0.816731
Si Si5 0.391949 0.810942 0.556385
Si Si6 0.000000 0.121003 0.250000
O O1 0.158969 0.372311 0.394950
O O2 0.192292 0.290794 0.610517
O O3 0.000000 0.287950 0.250000
O O4 0.977299 0.347415 0.489684
O O5 0.200292 0.561185 0.143740
O O6 0.393683 0.582573 0.086764
O O7 0.182061 0.518423 0.843476
O O8 0.500000 0.058478 0.250000
O O9 0.500000 0.000000 0.000000
O O10 0.224430 0.335253 0.911282
O O11 0.416072 0.339369 0.814434
O O12 0.342191 0.243065 0.922962
O O13 0.500000 0.788386 0.750000
#
# Coordination Sequence:
#
# PCOD9270554 Si02
#       6
#     8   8   8   8   8   4
#     4  10  20  35  60  88 116 147 203 247 283 345
#     4  10  21  38  57  89 113 154 188 242 297 349
#     4   9  18  35  63  81 109 142 191 243 285 345
#     4   9  20  39  55  83 119 160 194 240 288 344
#     4   9  19  38  60  82 114 160 205 237 287 344
#     4  10  22  38  58  84 132 148 198 234 292 356
#
# _framework density 21.854071000000001
#
# number of rings (size 3 to 8) (size 9 to 14) (size 15 to 20)
#    0.000    2.545    0.000    1.636    1.273    5.091 
#   16.364    0.000    0.000    0.000    0.000    0.000 
#    0.000    0.000    0.000    0.000    0.000    0.000 
#
# Total GULP energy -122640.843723 kJ/mol
# GULP energy per Si atom -5574.583806 kJ/mol
# Density = 2.180433 g / cm^3
# Si number density = 21.854071 Si / 1000 Ang^3
#
#
#
# Elastic Constant Matrix: (Units=GPa)
#
#
# Indices 1 2 3 4 5 6 
#
# 1 148.7247 16.6291 59.7156 0.0000 7.5327 0.0000
# 2 16.6291 34.0070 40.3298 0.0000 12.5803 0.0000
# 3 59.7156 40.3298 163.1747 0.0000 4.5091 0.0000
# 4 0.0000 0.0000 0.0000 36.7780 0.0000 -7.1916
# 5 7.5327 12.5803 4.5091 0.0000 29.2586 0.0000
# 6 0.0000 0.0000 0.0000 -7.1916 0.0000 24.1842
#
#
#
# Elastic Compliance Matrix: (Units=1/GPa)
#
#
# Indices 1 2 3 4 5 6 
#
# 1 0.007957 0.000181 -0.002910 0.000000 -0.001678 0.000000
# 2 0.000181 0.051216 -0.012167 0.000000 -0.020193 0.000000
# 3 -0.002910 -0.012167 0.010078 0.000000 0.004427 0.000000
# 4 0.000000 0.000000 0.000000 0.028869 0.000000 0.008585
# 5 -0.001678 -0.020193 0.004427 0.000000 0.042610 0.000000
# 6 0.000000 0.000000 0.000000 0.008585 0.000000 0.043902
#
#
# Mechanical properties :
#
#
# Convention : Reuss Voigt Hill
#
# Bulk Modulus (GPa) = 25.34238 64.36171 44.85205
# Shear Modulus (GPa) = 21.97057 33.32627 27.64842
#
# Velocity S-wave (km/s) = 3.17414 3.90929 3.56074
# Velocity P-wave (km/s) = 5.00548 7.06338 6.12153
#
# Compressibility (1/GPa) = 0.03945960
#
# Stress axis : x y z
#
# Youngs Moduli (GPa) = 125.67318 19.52522 99.22335
#
# Poissons Ratio (x) = -0.00354 0.28879
# Poissons Ratio (y) = -0.02280 1.20722
# Poissons Ratio (z) = 0.36577 0.23756
#
# Static dielectric constant tensor:
#      x y z
#    x 1.895880 0.000000 -0.014990 
#    y 0.000000 1.828100 0.000000 
#    z -0.014990 0.000000 1.810420 
# 
# From -- ./inp_files/32737.got.cif
#   From: 2010.05.17/outbox.cif.g08.bks.cpg/sg15_17_cif.got.tgz:32737.got - 2010.06.03 18:47:42.
