data_PCOD9270514
_publ_section_title
;
Structure prediction by ZEFSAII (Michael W. Deem and Ramdas Pophale) SiO2 
 PCOD9270514
Probable space group: C 2/C
;
_chemical_formula_sum "Si O2"
_cell_formula_units_Z 48
_cell_length_a 11.467454
_cell_length_b 24.036996
_cell_length_c 10.658779
_cell_angle_alpha 90.000000
_cell_angle_beta 51.695920
_cell_angle_gamma 90.000000
_cell_volume 2305.558509
_symmetry_space_group_name_H-M "C 2/C"
_symmetry_group_IT_number 15
_symmetry_cell_setting 'monoclinic'
loop_
_space_group_symop_operation_xyz
x,y,z
-x,y,1/2-z
-x,-y,-z
x,-y,1/2+z
1/2+x,1/2+y,z
1/2-x,1/2+y,1/2-z
1/2-x,1/2-y,-z
1/2+x,1/2-y,1/2+z
loop_
_atom_site_type_symbol
_atom_site_label
_atom_site_fract_x
_atom_site_fract_y
_atom_site_fract_z
Si Si1 0.974190 0.545022 0.909134
Si Si2 0.721572 0.864180 0.666138
Si Si3 0.345802 0.403844 0.834727
Si Si4 0.897610 0.371212 0.003652
Si Si5 0.190575 0.742565 0.827324
Si Si6 0.125709 0.210035 0.024815
O O1 0.000000 0.525735 0.750000
O O2 0.804772 0.565523 0.029023
O O3 0.000000 0.500000 0.000000
O O4 0.085566 0.594936 0.878028
O O5 0.832624 0.887814 0.696430
O O6 0.560748 0.875574 0.834104
O O7 0.717403 0.888767 0.528747
O O8 0.746364 0.797702 0.649249
O O9 0.500000 0.435718 0.750000
O O10 0.357694 0.348762 0.915380
O O11 0.867350 0.306976 0.048912
O O12 0.318041 0.713780 0.656784
O O13 0.040547 0.765075 0.857881
O O14 0.250000 0.250000 0.000000
#
# Coordination Sequence:
#
# PCOD9270514 Si02
#       6
#     8   8   8   8   8   8
#     4  11  26  47  75  99 122 169 226 280 336 398
#     4  10  20  35  59  91 127 181 206 254 320 385
#     4  11  21  40  65  97 133 173 219 272 335 389
#     4  10  22  39  61  91 132 166 220 266 318 386
#     4  12  20  35  56  90 132 175 223 255 315 389
#     4  12  20  32  55  88 130 174 218 260 311 382
#
# _framework density 20.819248999999999
#
# number of rings (size 3 to 8) (size 9 to 14) (size 15 to 20)
#    0.000    1.000    5.000    3.000    4.667    0.000 
#    0.000    0.833    0.000    0.000    0.000    0.000 
#    0.000    0.000    0.000    0.000    0.000    0.000 
#
# Total GULP energy -133833.919202 kJ/mol
# GULP energy per Si atom -5576.413300 kJ/mol
# Density = 2.077186 g / cm^3
# Si number density = 20.819249 Si / 1000 Ang^3
#
#
#
# Elastic Constant Matrix: (Units=GPa)
#
#
# Indices 1 2 3 4 5 6 
#
# 1 131.9660 35.6024 54.0688 0.0000 15.6080 0.0000
# 2 35.6024 45.6620 22.4119 0.0000 -1.0283 0.0000
# 3 54.0688 22.4119 70.2068 0.0000 2.5043 0.0000
# 4 0.0000 0.0000 0.0000 20.4560 0.0000 4.7703
# 5 15.6080 -1.0283 2.5043 0.0000 30.2533 0.0000
# 6 0.0000 0.0000 0.0000 4.7703 0.0000 22.8642
#
#
#
# Elastic Compliance Matrix: (Units=1/GPa)
#
#
# Indices 1 2 3 4 5 6 
#
# 1 0.013414 -0.006697 -0.007961 0.000000 -0.006489 0.000000
# 2 -0.006697 0.029388 -0.004395 0.000000 0.004818 0.000000
# 3 -0.007961 -0.004395 0.021701 0.000000 0.002161 0.000000
# 4 0.000000 0.000000 0.000000 0.051385 0.000000 -0.010721
# 5 -0.006489 0.004818 0.002161 0.000000 0.036387 0.000000
# 6 0.000000 0.000000 0.000000 -0.010721 0.000000 0.045973
#
#
# Mechanical properties :
#
#
# Convention : Reuss Voigt Hill
#
# Bulk Modulus (GPa) = 37.88616 52.44455 45.16536
# Shear Modulus (GPa) = 20.39538 23.76481 22.08009
#
# Velocity S-wave (km/s) = 3.13332 3.38225 3.26016
# Velocity P-wave (km/s) = 5.59709 6.36380 5.99272
#
# Compressibility (1/GPa) = 0.02639486
#
# Stress axis : x y z
#
# Youngs Moduli (GPa) = 74.55010 34.02773 46.08148
#
# Poissons Ratio (x) = 0.22790 0.36685
# Poissons Ratio (y) = 0.49929 0.20254
# Poissons Ratio (z) = 0.59349 0.14956
#
# Static dielectric constant tensor:
#      x y z
#    x 1.813130 0.000000 0.077640 
#    y 0.000000 1.764010 0.000000 
#    z 0.077640 0.000000 1.868760 
# 
# From -- ./inp_files/90618.got.cif
#   From: 2010.05.17/outbox.cif.g08.bks.cpg/sg15_46_cif.got.tgz:90618.got - 2010.06.03 18:47:42.
