data_PCOD9270348
_publ_section_title
;
Structure prediction by ZEFSAII (Michael W. Deem and Ramdas Pophale) SiO2 
 PCOD9270348
Probable space group: C 2/C
;
_chemical_formula_sum "Si O2"
_cell_formula_units_Z 32
_cell_length_a 14.079242
_cell_length_b 7.231304
_cell_length_c 15.338000
_cell_angle_alpha 90.000000
_cell_angle_beta 46.697752
_cell_angle_gamma 90.000000
_cell_volume 1136.434380
_symmetry_space_group_name_H-M "C 2/C"
_symmetry_group_IT_number 15
_symmetry_cell_setting 'monoclinic'
loop_
_space_group_symop_operation_xyz
x,y,z
-x,y,1/2-z
-x,-y,-z
x,-y,1/2+z
1/2+x,1/2+y,z
1/2-x,1/2+y,1/2-z
1/2-x,1/2-y,-z
1/2+x,1/2-y,1/2+z
loop_
_atom_site_type_symbol
_atom_site_label
_atom_site_fract_x
_atom_site_fract_y
_atom_site_fract_z
Si Si1 0.925388 0.082729 0.206436
Si Si2 0.065868 0.417561 0.613353
Si Si3 0.808430 0.685963 0.232714
Si Si4 0.325128 0.478300 0.512848
O O1 0.799090 0.209666 0.274277
O O2 0.046737 0.105871 0.063052
O O3 0.000000 0.104171 0.250000
O O4 0.859120 0.882100 0.235670
O O5 0.199170 0.534573 0.534201
O O6 0.117854 0.208624 0.567844
O O7 0.000000 0.437178 0.750000
O O8 0.940025 0.429933 0.629857
O O9 0.727420 0.590927 0.361629
#
# Coordination Sequence:
#
# PCOD9270348 Si02
#       4
#     8   8   8   8
#     4  11  22  38  58  83 113 146 184 228 274 326
#     4   8  14  27  52  83 108 140 182 222 268 323
#     4  10  20  35  58  83 111 147 184 225 276 326
#     4   9  15  31  56  80 108 144 183 222 270 326
#
# _framework density 28.158245000000001
#
# number of rings (size 3 to 8) (size 9 to 14) (size 15 to 20)
#    0.000    2.500    0.000    8.250    0.000    0.000 
#    0.000   16.250    0.000    9.000    0.000    0.000 
#    0.000    0.000    0.000    0.000    0.000    0.000 
#
# Total GULP energy -89455.754922 kJ/mol
# GULP energy per Si atom -5590.984683 kJ/mol
# Density = 2.809416 g / cm^3
# Si number density = 28.158245 Si / 1000 Ang^3
#
#
#
# Elastic Constant Matrix: (Units=GPa)
#
#
# Indices 1 2 3 4 5 6 
#
# 1 298.3474 46.9745 63.1640 0.0000 -63.5376 0.0000
# 2 46.9745 84.7954 25.5281 0.0000 -12.4067 0.0000
# 3 63.1640 25.5281 111.5211 0.0000 -32.4944 0.0000
# 4 0.0000 0.0000 0.0000 7.8977 0.0000 -13.5837
# 5 -63.5376 -12.4067 -32.4944 0.0000 60.5067 0.0000
# 6 0.0000 0.0000 0.0000 -13.5837 0.0000 46.2671
#
#
#
# Elastic Compliance Matrix: (Units=1/GPa)
#
#
# Indices 1 2 3 4 5 6 
#
# 1 0.004704 -0.001686 -0.001114 0.000000 0.003996 0.000000
# 2 -0.001686 0.013348 -0.002156 0.000000 -0.000191 0.000000
# 3 -0.001114 -0.002156 0.011407 0.000000 0.004514 0.000000
# 4 0.000000 0.000000 0.000000 0.255781 0.000000 0.075096
# 5 0.003996 -0.000191 0.004514 0.000000 0.023108 0.000000
# 6 0.000000 0.000000 0.000000 0.075096 0.000000 0.043661
#
#
# Mechanical properties :
#
#
# Convention : Reuss Voigt Hill
#
# Bulk Modulus (GPa) = 51.16112 85.11078 68.13595
# Shear Modulus (GPa) = 13.57082 46.86747 30.21914
#
# Velocity S-wave (km/s) = 2.19771 4.08417 3.27951
# Velocity P-wave (km/s) = 4.96473 7.24790 6.21211
#
# Compressibility (1/GPa) = 0.01954609
#
# Stress axis : x y z
#
# Youngs Moduli (GPa) = 212.58245 74.91636 87.66721
#
# Poissons Ratio (x) = 0.12630 0.09768
# Poissons Ratio (y) = 0.35839 0.18905
# Poissons Ratio (z) = 0.23685 0.16155
#
# Static dielectric constant tensor:
#      x y z
#    x 2.354500 0.000000 0.020970 
#    y 0.000000 2.299580 0.000000 
#    z 0.020970 0.000000 2.201440 
# 
# From -- ./inp_files/117803.got.cif
#   From: 2010.05.17/outbox.cif.g08.bks.cpg/sg15_59_cif.got.tgz:117803.got - 2010.06.03 18:47:42.
