data_PCOD9270714
_publ_section_title
;
Structure prediction by ZEFSAII (Michael W. Deem and Ramdas Pophale) SiO2 
 PCOD9270714
Probable space group: C 2/C
;
_chemical_formula_sum "Si O2"
_cell_formula_units_Z 52
_cell_length_a 12.023637
_cell_length_b 29.820303
_cell_length_c 11.965252
_cell_angle_alpha 90.000000
_cell_angle_beta 37.149544
_cell_angle_gamma 90.000000
_cell_volume 2590.794371
_symmetry_space_group_name_H-M "C 2/C"
_symmetry_group_IT_number 15
_symmetry_cell_setting 'monoclinic'
loop_
_space_group_symop_operation_xyz
x,y,z
-x,y,1/2-z
-x,-y,-z
x,-y,1/2+z
1/2+x,1/2+y,z
1/2-x,1/2+y,1/2-z
1/2-x,1/2-y,-z
1/2+x,1/2-y,1/2+z
loop_
_atom_site_type_symbol
_atom_site_label
_atom_site_fract_x
_atom_site_fract_y
_atom_site_fract_z
Si Si1 0.154275 0.096098 0.885677
Si Si2 0.258596 0.195333 0.852120
Si Si3 0.000000 0.404197 0.750000
Si Si4 0.256385 0.120779 0.243940
Si Si5 0.710936 0.539994 0.620053
Si Si6 0.180829 0.704131 0.440202
Si Si7 0.723327 0.436793 0.568284
O O1 0.184127 0.149709 0.857918
O O2 0.218663 0.065632 0.731647
O O3 0.257569 0.077250 0.913219
O O4 0.930475 0.094665 0.072633
O O5 0.470191 0.195057 0.642646
O O6 0.225733 0.195219 0.013400
O O7 0.190703 0.245747 0.883464
O O8 0.901136 0.378301 0.728240
O O9 0.156696 0.434555 0.570110
O O10 0.320626 0.094809 0.080567
O O11 0.229185 0.170758 0.220510
O O12 0.500000 0.542659 0.750000
O O13 0.761825 0.487591 0.573795
O O14 0.500000 0.430285 0.750000
#
# Coordination Sequence:
#
# PCOD9270714 Si02
#       7
#     8   8   4   8   8   8   8
#     4  11  21  41  69  91 126 170 213 267 329 375
#     4  10  20  35  62  95 128 165 205 269 326 379
#     4  12  26  42  62  92 128 176 222 256 322 384
#     4  11  22  40  63  92 130 167 212 265 317 387
#     4  11  24  44  64  90 131 171 217 266 321 387
#     4  10  20  36  59  96 132 159 210 265 325 382
#     4   9  22  38  65  94 123 165 214 270 324 376
#
# _framework density 20.071064
#
# number of rings (size 3 to 8) (size 9 to 14) (size 15 to 20)
#    0.000    1.538    3.077    1.846    2.154    3.692 
#    2.769    0.000    1.692    2.769    0.000    0.000 
#    0.000    0.000    0.000    0.000    0.000    0.000 
#
# Total GULP energy -145023.170904 kJ/mol
# GULP energy per Si atom -5577.814266 kJ/mol
# Density = 2.002538 g / cm^3
# Si number density = 20.071064 Si / 1000 Ang^3
#
#
#
# Elastic Constant Matrix: (Units=GPa)
#
#
# Indices 1 2 3 4 5 6 
#
# 1 87.0178 49.7015 11.3573 0.0000 22.6893 0.0000
# 2 49.7015 126.7360 22.6193 0.0000 26.5119 0.0000
# 3 11.3573 22.6193 61.4401 0.0000 12.0896 0.0000
# 4 0.0000 0.0000 0.0000 14.9266 0.0000 -8.0211
# 5 22.6893 26.5119 12.0896 0.0000 27.5125 0.0000
# 6 0.0000 0.0000 0.0000 -8.0211 0.0000 28.6346
#
#
#
# Elastic Compliance Matrix: (Units=1/GPa)
#
#
# Indices 1 2 3 4 5 6 
#
# 1 0.016502 -0.004593 0.000490 0.000000 -0.009398 0.000000
# 2 -0.004593 0.011375 -0.002110 0.000000 -0.006246 0.000000
# 3 0.000490 -0.002110 0.018217 0.000000 -0.006376 0.000000
# 4 0.000000 0.000000 0.000000 0.078866 0.000000 0.022092
# 5 -0.009398 -0.006246 -0.006376 0.000000 0.052919 0.000000
# 6 0.000000 0.000000 0.000000 0.022092 0.000000 0.041111
#
#
# Mechanical properties :
#
#
# Convention : Reuss Voigt Hill
#
# Bulk Modulus (GPa) = 29.70164 49.17224 39.43694
# Shear Modulus (GPa) = 20.60694 26.98246 23.79470
#
# Velocity S-wave (km/s) = 3.20769 3.67051 3.44688
# Velocity P-wave (km/s) = 5.34316 6.52041 5.96092
#
# Compressibility (1/GPa) = 0.03366817
#
# Stress axis : x y z
#
# Youngs Moduli (GPa) = 60.59947 87.91396 54.89463
#
# Poissons Ratio (x) = 0.40377 -0.02689
# Poissons Ratio (y) = 0.27832 0.11580
# Poissons Ratio (z) = -0.02968 0.18546
#
# Static dielectric constant tensor:
#      x y z
#    x 1.730650 0.000000 -0.025390 
#    y 0.000000 1.720640 0.000000 
#    z -0.025390 0.000000 1.750990 
# 
# From -- ./inp_files/52235.got.cif
#   From: 2010.05.17/outbox.cif.g08.bks.cpg/sg15_27_cif.got.tgz:52235.got - 2010.06.03 18:47:42.
