data_PCOD9270827
_publ_section_title
;
Structure prediction by ZEFSAII (Michael W. Deem and Ramdas Pophale) SiO2 
 PCOD9270827
Probable space group: C 2/C
;
_chemical_formula_sum "Si O2"
_cell_formula_units_Z 40
_cell_length_a 24.454689
_cell_length_b 14.457758
_cell_length_c 8.015057
_cell_angle_alpha 90.000000
_cell_angle_beta 126.628737
_cell_angle_gamma 90.000000
_cell_volume 2274.179150
_symmetry_space_group_name_H-M "C 2/C"
_symmetry_group_IT_number 15
_symmetry_cell_setting 'monoclinic'
loop_
_space_group_symop_operation_xyz
x,y,z
-x,y,1/2-z
-x,-y,-z
x,-y,1/2+z
1/2+x,1/2+y,z
1/2-x,1/2+y,1/2-z
1/2-x,1/2-y,-z
1/2+x,1/2-y,1/2+z
loop_
_atom_site_type_symbol
_atom_site_label
_atom_site_fract_x
_atom_site_fract_y
_atom_site_fract_z
Si Si1 0.070598 0.263489 0.323516
Si Si2 0.188298 0.547672 0.598198
Si Si3 0.822073 0.638956 0.282714
Si Si4 0.458719 0.084969 0.010374
Si Si5 0.214932 0.802538 0.088528
O O1 0.101667 0.329241 0.526701
O O2 0.133841 0.195364 0.404532
O O3 0.000000 0.218819 0.250000
O O4 0.945721 0.332113 0.358034
O O5 0.182299 0.593527 0.405567
O O6 0.201756 0.438431 0.627664
O O7 0.116126 0.555961 0.561640
O O8 0.247017 0.603526 0.800668
O O9 0.780320 0.732309 0.244362
O O10 0.500000 0.113955 0.250000
O O11 0.500000 0.000000 0.000000
O O12 0.250000 0.750000 0.000000
#
# Coordination Sequence:
#
# PCOD9270827 Si02
#       5
#     8   8   8   8   8
#     4  10  20  36  50  79 111 142 186 223 280 328
#     4  12  19  37  52  82 116 149 188 229 278 336
#     4  10  22  32  58  79 112 148 189 228 281 330
#     4  12  22  30  51  78 114 152 181 217 285 339
#     4  10  21  37  55  78 112 152 187 235 274 340
#
# _framework density 17.588763
#
# number of rings (size 3 to 8) (size 9 to 14) (size 15 to 20)
#    1.200    0.000    2.000    8.400    0.000    0.000 
#    0.000    0.000    0.000    0.000    0.000    7.000 
#    0.000    0.000    0.000    0.000    0.000    0.000 
#
# Total GULP energy -111448.519385 kJ/mol
# GULP energy per Si atom -5572.425969 kJ/mol
# Density = 1.754873 g / cm^3
# Si number density = 17.588763 Si / 1000 Ang^3
#
#
#
# Elastic Constant Matrix: (Units=GPa)
#
#
# Indices 1 2 3 4 5 6 
#
# 1 91.9162 18.4529 29.9320 0.0000 15.6053 0.0000
# 2 18.4529 38.9122 5.5044 0.0000 21.5167 0.0000
# 3 29.9320 5.5044 85.7693 0.0000 12.6783 0.0000
# 4 0.0000 0.0000 0.0000 30.2710 0.0000 5.7511
# 5 15.6053 21.5167 12.6783 0.0000 35.4354 0.0000
# 6 0.0000 0.0000 0.0000 5.7511 0.0000 24.1414
#
#
#
# Elastic Compliance Matrix: (Units=1/GPa)
#
#
# Indices 1 2 3 4 5 6 
#
# 1 0.013487 -0.005039 -0.004179 0.000000 -0.001385 0.000000
# 2 -0.005039 0.040661 0.002609 0.000000 -0.023404 0.000000
# 3 -0.004179 0.002609 0.013633 0.000000 -0.004621 0.000000
# 4 0.000000 0.000000 0.000000 0.034601 0.000000 -0.008243
# 5 -0.001385 -0.023404 -0.004621 0.000000 0.044695 0.000000
# 6 0.000000 0.000000 0.000000 -0.008243 0.000000 0.043386
#
#
# Mechanical properties :
#
#
# Convention : Reuss Voigt Hill
#
# Bulk Modulus (GPa) = 18.32756 36.04181 27.18469
# Shear Modulus (GPa) = 22.53588 28.81679 25.67634
#
# Velocity S-wave (km/s) = 3.58336 4.05206 3.82490
# Velocity P-wave (km/s) = 5.25008 6.51369 5.91572
#
# Compressibility (1/GPa) = 0.05456265
#
# Stress axis : x y z
#
# Youngs Moduli (GPa) = 74.14578 24.59378 73.35036
#
# Poissons Ratio (x) = 0.12393 0.30651
# Poissons Ratio (y) = 0.37362 -0.19134
# Poissons Ratio (z) = 0.30983 -0.06415
#
# Static dielectric constant tensor:
#      x y z
#    x 1.640540 0.000000 -0.005260 
#    y 0.000000 1.582380 0.000000 
#    z -0.005260 0.000000 1.636230 
# 
# From -- ./inp_files/47731.got.cif
#   From: 2010.05.17/outbox.cif.g08.bks.cpg/sg15_24_cif.got.tgz:47731.got - 2010.06.03 18:47:42.
