data_PCOD9270625
_publ_section_title
;
Structure prediction by ZEFSAII (Michael W. Deem and Ramdas Pophale) SiO2 
 PCOD9270625
Probable space group: C 2/C
;
_chemical_formula_sum "Si O2"
_cell_formula_units_Z 48
_cell_length_a 16.864126
_cell_length_b 8.037101
_cell_length_c 20.916101
_cell_angle_alpha 90.000000
_cell_angle_beta 41.881568
_cell_angle_gamma 90.000000
_cell_volume 1892.586852
_symmetry_space_group_name_H-M "C 2/C"
_symmetry_group_IT_number 15
_symmetry_cell_setting 'monoclinic'
loop_
_space_group_symop_operation_xyz
x,y,z
-x,y,1/2-z
-x,-y,-z
x,-y,1/2+z
1/2+x,1/2+y,z
1/2-x,1/2+y,1/2-z
1/2-x,1/2-y,-z
1/2+x,1/2-y,1/2+z
loop_
_atom_site_type_symbol
_atom_site_label
_atom_site_fract_x
_atom_site_fract_y
_atom_site_fract_z
Si Si1 0.049348 0.856770 0.298281
Si Si2 0.476863 0.754439 0.046890
Si Si3 0.728542 0.533868 0.270828
Si Si4 0.663565 0.476343 0.609014
Si Si5 0.573164 0.923295 0.557997
Si Si6 0.237480 0.784049 0.360339
O O1 0.949933 0.002436 0.368134
O O2 0.987652 0.682952 0.349981
O O3 0.117097 0.894974 0.191660
O O4 0.151943 0.882213 0.287888
O O5 0.368757 0.656010 0.141559
O O6 0.508272 0.909486 0.074060
O O7 0.434414 0.813156 0.002204
O O8 0.605170 0.666918 0.961839
O O9 0.780349 0.624721 0.177135
O O10 0.793857 0.440498 0.289745
O O11 0.790295 0.534752 0.507787
O O12 0.685179 0.297872 0.629294
#
# Coordination Sequence:
#
# PCOD9270625 Si02
#       6
#     8   8   8   8   8   8
#     4  10  20  38  62  84 121 165 202 243 319 361
#     4  10  22  37  57  91 126 146 202 264 304 357
#     4  11  23  37  63  89 117 160 203 258 312 374
#     4   9  21  39  59  86 123 162 201 258 297 377
#     4  10  20  35  61  87 119 160 201 250 305 368
#     4  10  22  38  59  89 117 159 205 255 315 361
#
# _framework density 25.362110999999999
#
# number of rings (size 3 to 8) (size 9 to 14) (size 15 to 20)
#    0.000    2.000    1.667    1.000    9.333    0.000 
#    0.000    3.333    3.667    2.000    0.000    0.000 
#    0.000    0.000    0.000    0.000    0.000    0.000 
#
# Total GULP energy -134138.100071 kJ/mol
# GULP energy per Si atom -5589.087503 kJ/mol
# Density = 2.530439 g / cm^3
# Si number density = 25.362111 Si / 1000 Ang^3
#
#
#
# Elastic Constant Matrix: (Units=GPa)
#
#
# Indices 1 2 3 4 5 6 
#
# 1 66.6360 9.5579 1.5740 0.0000 -15.2923 0.0000
# 2 9.5579 31.5669 24.4838 0.0000 -2.8878 -0.0001
# 3 1.5740 24.4838 107.8162 0.0000 -16.1338 0.0000
# 4 0.0000 0.0000 0.0000 44.6129 0.0000 4.8102
# 5 -15.2923 -2.8878 -16.1338 0.0000 26.4857 0.0000
# 6 0.0000 -0.0001 0.0000 4.8102 0.0000 33.4901
#
#
#
# Elastic Compliance Matrix: (Units=1/GPa)
#
#
# Indices 1 2 3 4 5 6 
#
# 1 0.018662 -0.006957 0.003088 0.000000 0.011898 0.000000
# 2 -0.006957 0.041082 -0.010077 0.000000 -0.005676 0.000000
# 3 0.003088 -0.010077 0.012786 0.000000 0.008473 0.000000
# 4 0.000000 0.000000 0.000000 0.022768 0.000000 -0.003270
# 5 0.011898 -0.005676 0.008473 0.000000 0.049168 0.000000
# 6 0.000000 0.000000 0.000000 -0.003270 0.000000 0.030329
#
#
# Mechanical properties :
#
#
# Convention : Reuss Voigt Hill
#
# Bulk Modulus (GPa) = 22.40260 30.80560 26.60410
# Shear Modulus (GPa) = 22.98140 32.27797 27.62968
#
# Velocity S-wave (km/s) = 3.01347 3.57134 3.30420
# Velocity P-wave (km/s) = 4.57824 5.40173 5.00694
#
# Compressibility (1/GPa) = 0.04463767
#
# Stress axis : x y z
#
# Youngs Moduli (GPa) = 53.58421 24.34158 78.20906
#
# Poissons Ratio (x) = 0.16935 -0.24149
# Poissons Ratio (y) = 0.37279 0.78812
# Poissons Ratio (z) = -0.16546 0.24529
#
# Static dielectric constant tensor:
#      x y z
#    x 2.118060 0.000000 0.019390 
#    y 0.000000 2.022600 0.000000 
#    z 0.019390 0.000000 2.020220 
# 
# From -- ./inp_files/247296.got.cif
#   From: 2010.05.17/outbox.cif.g08.bks.cpg/sg15_124_cif.got.tgz:247296.got - 2010.06.03 18:47:42.
