data_PCOD9270086
_publ_section_title
;
Structure prediction by ZEFSAII (Michael W. Deem and Ramdas Pophale) SiO2 
 PCOD9270086
Probable space group: C 2/C
;
_chemical_formula_sum "Si O2"
_cell_formula_units_Z 64
_cell_length_a 21.311322
_cell_length_b 9.807398
_cell_length_c 19.804077
_cell_angle_alpha 90.000000
_cell_angle_beta 63.338509
_cell_angle_gamma 90.000000
_cell_volume 3699.112340
_symmetry_space_group_name_H-M "C 2/C"
_symmetry_group_IT_number 15
_symmetry_cell_setting 'monoclinic'
loop_
_space_group_symop_operation_xyz
x,y,z
-x,y,1/2-z
-x,-y,-z
x,-y,1/2+z
1/2+x,1/2+y,z
1/2-x,1/2+y,1/2-z
1/2-x,1/2-y,-z
1/2+x,1/2-y,1/2+z
loop_
_atom_site_type_symbol
_atom_site_label
_atom_site_fract_x
_atom_site_fract_y
_atom_site_fract_z
Si Si1 0.793205 0.890802 0.777732
Si Si2 0.436496 0.747499 0.048587
Si Si3 0.918453 0.935596 0.428503
Si Si4 0.703176 0.146414 0.830852
Si Si5 0.925345 0.017473 0.650438
Si Si6 0.225858 0.138134 0.564509
Si Si7 0.092027 0.798076 0.469120
Si Si8 0.230686 0.655457 0.447018
O O1 0.791003 0.762162 0.728887
O O2 0.864178 0.977625 0.731287
O O3 0.785302 0.840783 0.858336
O O4 0.730051 0.998231 0.794924
O O5 0.376615 0.849865 0.102503
O O6 0.432171 0.616594 0.100152
O O7 0.419736 0.686478 0.982922
O O8 0.518594 0.782681 0.010588
O O9 0.854928 0.903997 0.409004
O O10 0.906358 0.074661 0.478221
O O11 0.996765 0.949239 0.360372
O O12 0.753596 0.182509 0.869933
O O13 0.904457 0.135277 0.607190
O O14 0.250000 0.250000 0.500000
O O15 0.269794 0.000603 0.530154
O O16 0.157321 0.704058 0.452705
O O17 0.250000 0.750000 0.500000
#
# Coordination Sequence:
#
# PCOD9270086 Si02
#       8
#     8   8   8   8   8   8   8   8
#     4  10  21  35  53  80 109 143 186 226 272 329
#     4   8  15  29  54  82 106 141 180 221 267 321
#     4   9  15  30  55  82 109 141 178 225 270 319
#     4  10  20  35  55  81 111 143 185 221 278 330
#     4   8  16  30  55  81 105 142 185 221 265 318
#     4  11  21  33  54  83 116 141 175 223 284 334
#     4   9  16  31  56  81 107 139 183 228 267 318
#     4  11  22  35  54  81 109 140 184 230 277 318
#
# _framework density 17.301448000000001
#
# number of rings (size 3 to 8) (size 9 to 14) (size 15 to 20)
#    0.000    2.500    2.500    2.250    0.000    1.000 
#    0.000    5.000    2.750    0.000    0.000    0.000 
#    0.000    0.000    0.000    0.000    0.000    0.000 
#
# Total GULP energy -178267.067771 kJ/mol
# GULP energy per Si atom -5570.845868 kJ/mol
# Density = 1.726207 g / cm^3
# Si number density = 17.301448 Si / 1000 Ang^3
#
#
#
# Elastic Constant Matrix: (Units=GPa)
#
#
# Indices 1 2 3 4 5 6 
#
# 1 125.9767 29.8426 51.2897 0.0000 -15.7142 0.0000
# 2 29.8426 67.0292 43.9877 0.0000 -1.4871 -0.0001
# 3 51.2897 43.9877 104.2513 0.0000 -11.0287 0.0000
# 4 0.0000 0.0000 0.0000 24.5306 0.0000 1.0576
# 5 -15.7142 -1.4871 -11.0287 0.0000 28.8042 0.0000
# 6 0.0000 -0.0001 0.0000 1.0576 0.0000 28.6437
#
#
#
# Elastic Compliance Matrix: (Units=1/GPa)
#
#
# Indices 1 2 3 4 5 6 
#
# 1 0.010517 -0.002051 -0.003870 0.000000 0.004150 0.000000
# 2 -0.002051 0.021187 -0.008268 0.000000 -0.003191 0.000000
# 3 -0.003870 -0.008268 0.015338 0.000000 0.003334 0.000000
# 4 0.000000 0.000000 0.000000 0.040830 0.000000 -0.001508
# 5 0.004150 -0.003191 0.003334 0.000000 0.038093 0.000000
# 6 0.000000 0.000000 0.000000 -0.001508 0.000000 0.034967
#
#
# Mechanical properties :
#
#
# Convention : Reuss Voigt Hill
#
# Bulk Modulus (GPa) = 53.57923 60.83301 57.20612
# Shear Modulus (GPa) = 25.57129 27.87152 26.72140
#
# Velocity S-wave (km/s) = 3.84863 4.01800 3.93423
# Velocity P-wave (km/s) = 7.12633 7.53411 7.33305
#
# Compressibility (1/GPa) = 0.01866395
#
# Stress axis : x y z
#
# Youngs Moduli (GPa) = 95.08418 47.19837 65.19922
#
# Poissons Ratio (x) = 0.09679 0.25231
# Poissons Ratio (y) = 0.19499 0.53909
# Poissons Ratio (z) = 0.36796 0.39025
#
# Static dielectric constant tensor:
#      x y z
#    x 1.603860 0.000000 -0.019140 
#    y 0.000000 1.586890 0.000000 
#    z -0.019140 0.000000 1.608340 
# 
# From -- ./inp_files/214816.got.cif
#   From: 2010.05.17/outbox.cif.g08.bks.cpg/sg15_108_cif.got.tgz:214816.got - 2010.06.03 18:47:42.
