data_PCOD9270735
_publ_section_title
;
Structure prediction by ZEFSAII (Michael W. Deem and Ramdas Pophale) SiO2 
 PCOD9270735
Probable space group: C 2/C
;
_chemical_formula_sum "Si O2"
_cell_formula_units_Z 56
_cell_length_a 7.977608
_cell_length_b 21.429172
_cell_length_c 16.185240
_cell_angle_alpha 90.000000
_cell_angle_beta 84.251169
_cell_angle_gamma 90.000000
_cell_volume 2753.007904
_symmetry_space_group_name_H-M "C 2/C"
_symmetry_group_IT_number 15
_symmetry_cell_setting 'monoclinic'
loop_
_space_group_symop_operation_xyz
x,y,z
-x,y,1/2-z
-x,-y,-z
x,-y,1/2+z
1/2+x,1/2+y,z
1/2-x,1/2+y,1/2-z
1/2-x,1/2-y,-z
1/2+x,1/2-y,1/2+z
loop_
_atom_site_type_symbol
_atom_site_label
_atom_site_fract_x
_atom_site_fract_y
_atom_site_fract_z
Si Si1 0.500000 0.933730 0.750000
Si Si2 0.029473 0.563285 0.949265
Si Si3 0.536038 0.839376 0.593627
Si Si4 0.171479 0.384748 0.186339
Si Si5 0.776675 0.245175 0.344340
Si Si6 0.142757 0.807009 0.836081
Si Si7 0.216202 0.025577 0.693839
Si Si8 0.500000 0.423526 0.750000
O O1 0.519579 0.888986 0.669977
O O2 0.350787 0.980632 0.733562
O O3 0.203103 0.555215 0.890891
O O4 0.887600 0.572780 0.886676
O O5 0.029860 0.621821 0.010014
O O6 0.000000 0.500000 0.000000
O O7 0.380136 0.791897 0.610061
O O8 0.718000 0.808286 0.600161
O O9 0.231954 0.319147 0.147727
O O10 0.304879 0.419209 0.238658
O O11 0.000000 0.374237 0.250000
O O12 0.785066 0.231727 0.245218
O O13 0.957962 0.219420 0.367366
O O14 0.113179 0.875654 0.796993
O O15 0.076394 0.973814 0.682515
#
# Coordination Sequence:
#
# PCOD9270735 Si02
#       8
#     4   8   8   8   8   8   8   4
#     4  12  16  34  62  82 112 158 206 244 298 362
#     4  11  23  35  61  94 125 164 202 254 320 377
#     4  12  21  37  61  94 122 160 211 255 308 372
#     4  10  20  40  62  85 124 165 206 260 311 364
#     4  10  20  38  63  86 114 164 212 247 308 367
#     4  10  20  35  63  90 117 155 208 267 293 362
#     4  11  20  38  62  89 121 161 205 256 311 374
#     4  10  20  36  60  94 118 156 216 258 310 366
#
# _framework density 20.341387999999998
#
# number of rings (size 3 to 8) (size 9 to 14) (size 15 to 20)
#    0.000    1.429    7.857    0.857    0.000    0.571 
#    2.571    2.857    0.000    0.000    0.000    0.000 
#    0.000    0.000    0.000    0.000    0.000    0.000 
#
# Total GULP energy -156193.685277 kJ/mol
# GULP energy per Si atom -5578.345903 kJ/mol
# Density = 2.029509 g / cm^3
# Si number density = 20.341388 Si / 1000 Ang^3
#
#
#
# Elastic Constant Matrix: (Units=GPa)
#
#
# Indices 1 2 3 4 5 6 
#
# 1 68.3255 37.7049 18.1723 0.0000 5.9537 0.0000
# 2 37.7049 116.2816 29.5755 0.0000 -6.5754 0.0000
# 3 18.1723 29.5755 79.6705 0.0000 2.3726 0.0000
# 4 0.0000 0.0000 0.0000 17.6521 0.0000 -3.7108
# 5 5.9537 -6.5754 2.3726 0.0000 11.7113 0.0000
# 6 0.0000 0.0000 0.0000 -3.7108 0.0000 7.4905
#
#
#
# Elastic Compliance Matrix: (Units=1/GPa)
#
#
# Indices 1 2 3 4 5 6 
#
# 1 0.020050 -0.006866 -0.001616 0.000000 -0.013721 0.000000
# 2 -0.006866 0.012299 -0.003329 0.000000 0.011070 0.000000
# 3 -0.001616 -0.003329 0.014273 0.000000 -0.003939 0.000000
# 4 0.000000 0.000000 0.000000 0.063236 0.000000 0.031328
# 5 -0.013721 0.011070 -0.003939 0.000000 0.099376 0.000000
# 6 0.000000 0.000000 0.000000 0.031328 0.000000 0.149023
#
#
# Mechanical properties :
#
#
# Convention : Reuss Voigt Hill
#
# Bulk Modulus (GPa) = 43.47805 48.35368 45.91587
# Shear Modulus (GPa) = 12.83540 19.29243 16.06392
#
# Velocity S-wave (km/s) = 2.51469 3.08300 2.81324
# Velocity P-wave (km/s) = 5.46371 6.04118 5.75969
#
# Compressibility (1/GPa) = 0.02300011
#
# Stress axis : x y z
#
# Youngs Moduli (GPa) = 49.87464 81.30735 70.06020
#
# Poissons Ratio (x) = 0.55828 0.11320
# Poissons Ratio (y) = 0.34245 0.23324
# Poissons Ratio (z) = 0.08059 0.27069
#
# Static dielectric constant tensor:
#      x y z
#    x 1.861610 0.000000 -0.036340 
#    y 0.000000 1.728710 0.000000 
#    z -0.036340 0.000000 1.698800 
# 
# From -- ./inp_files/136490.got.cif
#   From: 2010.05.17/outbox.cif.g08.bks.cpg/sg15_69_cif.got.tgz:136490.got - 2010.06.03 18:47:42.
