data_PCOD9270997
_publ_section_title
;
Structure prediction by ZEFSAII (Michael W. Deem and Ramdas Pophale) SiO2 
 PCOD9270997
Probable space group: C 2/C
;
_chemical_formula_sum "Si O2"
_cell_formula_units_Z 60
_cell_length_a 18.411493
_cell_length_b 5.823745
_cell_length_c 28.356108
_cell_angle_alpha 90.000000
_cell_angle_beta 70.072413
_cell_angle_gamma 90.000000
_cell_volume 2858.401161
_symmetry_space_group_name_H-M "C 2/C"
_symmetry_group_IT_number 15
_symmetry_cell_setting 'monoclinic'
loop_
_space_group_symop_operation_xyz
x,y,z
-x,y,1/2-z
-x,-y,-z
x,-y,1/2+z
1/2+x,1/2+y,z
1/2-x,1/2+y,1/2-z
1/2-x,1/2-y,-z
1/2+x,1/2-y,1/2+z
loop_
_atom_site_type_symbol
_atom_site_label
_atom_site_fract_x
_atom_site_fract_y
_atom_site_fract_z
Si Si1 0.514281 0.747930 0.331599
Si Si2 0.614950 0.045906 0.365851
Si Si3 0.790642 0.996150 0.500010
Si Si4 0.500000 0.911778 0.750000
Si Si5 0.143522 0.008281 0.111762
Si Si6 0.713967 0.648623 0.896688
Si Si7 0.765986 0.750732 0.332171
Si Si8 0.627767 0.365753 0.271723
O O1 0.539367 0.895496 0.371857
O O2 0.488224 0.924229 0.297117
O O3 0.442382 0.581393 0.355410
O O4 0.589518 0.605222 0.296727
O O5 0.685186 0.874015 0.358683
O O6 0.633111 0.225010 0.403139
O O7 0.627089 0.193236 0.315666
O O8 0.750000 0.250000 0.500000
O O9 0.855326 0.982870 0.444966
O O10 0.803567 0.999263 0.553181
O O11 0.750000 0.750000 0.500000
O O12 0.430084 0.747546 0.753144
O O13 0.211799 0.192697 0.107767
O O14 0.173983 0.803146 0.138458
O O15 0.743592 0.514075 0.843564
O O16 0.794611 0.851863 0.275974
#
# Coordination Sequence:
#
# PCOD9270997 Si02
#       8
#     8   8   8   4   8   8   8   8
#     4  11  22  40  56  87 130 164 210 261 330 393
#     4  10  25  37  56  85 125 169 210 258 320 388
#     4  10  20  40  67 103 127 162 217 284 332 392
#     4  10  20  36  56  84 118 160 206 250 312 378
#     4  10  21  37  64  94 118 162 206 270 332 387
#     4  10  21  40  63  92 124 161 218 267 322 391
#     4  11  21  36  61  85 119 164 216 258 320 375
#     4  11  23  36  58  86 121 167 206 259 304 385
#
# _framework density 20.990755
#
# number of rings (size 3 to 8) (size 9 to 14) (size 15 to 20)
#    0.000    1.600    1.333    3.600    3.733    3.200 
#    0.000    0.667    0.000    3.200    0.000    0.000 
#    0.000    0.000    0.000    0.000    0.000    0.000 
#
# Total GULP energy -167023.311033 kJ/mol
# GULP energy per Si atom -5567.443701 kJ/mol
# Density = 2.094298 g / cm^3
# Si number density = 20.990755 Si / 1000 Ang^3
#
#
#
# Elastic Constant Matrix: (Units=GPa)
#
#
# Indices 1 2 3 4 5 6 
#
# 1 74.4229 16.7939 7.0241 -0.0009 16.1595 -0.0011
# 2 16.7939 71.2192 5.8302 -0.0045 8.5579 -0.0013
# 3 7.0241 5.8302 52.2771 0.0001 4.9614 0.0001
# 4 -0.0009 -0.0045 0.0001 21.3222 -0.0001 8.3032
# 5 16.1595 8.5579 4.9614 -0.0001 13.7549 -0.0001
# 6 -0.0011 -0.0013 0.0001 8.3032 -0.0001 34.6598
#
#
#
# Elastic Compliance Matrix: (Units=1/GPa)
#
#
# Indices 1 2 3 4 5 6 
#
# 1 0.018271 -0.001855 -0.000332 0.000000 -0.020191 0.000000
# 2 -0.001855 0.015398 -0.000793 0.000003 -0.007115 0.000000
# 3 -0.000332 -0.000793 0.019858 0.000000 -0.006280 0.000000
# 4 0.000000 0.000003 0.000000 0.051725 -0.000002 -0.012391
# 5 -0.020191 -0.007115 -0.006280 -0.000002 0.103114 0.000000
# 6 0.000000 0.000000 0.000000 -0.012391 0.000000 0.031820
#
#
# Mechanical properties :
#
#
# Convention : Reuss Voigt Hill
#
# Bulk Modulus (GPa) = 21.02259 28.57951 24.80105
# Shear Modulus (GPa) = 19.08383 25.16544 22.12463
#
# Velocity S-wave (km/s) = 3.01849 3.46624 3.25009
# Velocity P-wave (km/s) = 4.71013 5.44653 5.09166
#
# Compressibility (1/GPa) = 0.04756787
#
# Stress axis : x y z
#
# Youngs Moduli (GPa) = 54.73234 64.94151 50.35805
#
# Poissons Ratio (x) = 0.12046 0.01671
# Poissons Ratio (y) = 0.10153 0.03992
# Poissons Ratio (z) = 0.01816 0.05149
#
# Static dielectric constant tensor:
#      x y z
#    x 1.867200 -0.000070 -0.137110 
#    y -0.000070 1.898170 0.000140 
#    z -0.137110 0.000140 2.009920 
# 
# From -- ./inp_files/315079.got.cif
#   From: 2010.05.17/outbox.cif.g08.bks.cpg/sg15_158_cif.got.tgz:315079.got - 2010.06.03 18:47:42.
