data_PCOD9270969
_publ_section_title
;
Structure prediction by ZEFSAII (Michael W. Deem and Ramdas Pophale) SiO2 
 PCOD9270969
Probable space group: C 2/C
;
_chemical_formula_sum "Si O2"
_cell_formula_units_Z 56
_cell_length_a 12.942076
_cell_length_b 20.269582
_cell_length_c 9.360785
_cell_angle_alpha 90.000000
_cell_angle_beta 68.094700
_cell_angle_gamma 90.000000
_cell_volume 2278.327725
_symmetry_space_group_name_H-M "C 2/C"
_symmetry_group_IT_number 15
_symmetry_cell_setting 'monoclinic'
loop_
_space_group_symop_operation_xyz
x,y,z
-x,y,1/2-z
-x,-y,-z
x,-y,1/2+z
1/2+x,1/2+y,z
1/2-x,1/2+y,1/2-z
1/2-x,1/2-y,-z
1/2+x,1/2-y,1/2+z
loop_
_atom_site_type_symbol
_atom_site_label
_atom_site_fract_x
_atom_site_fract_y
_atom_site_fract_z
Si Si1 0.836477 0.005532 0.174526
Si Si2 0.526032 0.835253 0.573864
Si Si3 0.350204 0.709678 0.021546
Si Si4 0.106768 0.375550 0.122703
Si Si5 0.348289 0.269677 0.844622
Si Si6 0.753981 0.087549 0.961457
Si Si7 0.366358 0.407653 0.929686
O O1 0.774408 0.957428 0.315714
O O2 0.907479 0.955955 0.034999
O O3 0.758233 0.044695 0.103681
O O4 0.883805 0.058017 0.265961
O O5 0.500000 0.847331 0.750000
O O6 0.544176 0.757038 0.543758
O O7 0.432061 0.860542 0.517683
O O8 0.641050 0.873653 0.490044
O O9 0.319443 0.702219 0.203894
O O10 0.351828 0.640804 0.938943
O O11 0.250000 0.750000 0.000000
O O12 0.108478 0.304789 0.204956
O O13 0.232652 0.402001 0.039248
O O14 0.000000 0.412867 0.250000
O O15 0.250000 0.250000 0.000000
O O16 0.406264 0.331528 0.896174
#
# Coordination Sequence:
#
# PCOD9270969 Si02
#       7
#     8   8   8   8   8   8   8
#     4  10  20  36  56  81 105 154 192 230 259 329
#     4  11  23  36  55  83 117 150 177 231 287 334
#     4  10  21  36  57  81 110 143 185 239 285 324
#     4  11  21  36  55  83 116 147 183 225 286 337
#     4  10  21  35  58  82 108 143 187 238 284 328
#     4  10  21  38  57  80 117 142 196 231 273 318
#     4  10  21  36  56  79 113 142 194 226 272 320
#
# _framework density 24.579432000000001
#
# number of rings (size 3 to 8) (size 9 to 14) (size 15 to 20)
#    0.000    1.714    2.857    1.714   12.000    0.000 
#    0.000   14.286    0.000    0.000    0.000   20.000 
#    0.000    0.000    0.000    0.000    0.000    0.000 
#
# Total GULP energy -156296.218868 kJ/mol
# GULP energy per Si atom -5582.007817 kJ/mol
# Density = 2.452349 g / cm^3
# Si number density = 24.579432 Si / 1000 Ang^3
#
#
#
# Elastic Constant Matrix: (Units=GPa)
#
#
# Indices 1 2 3 4 5 6 
#
# 1 68.3112 20.7731 30.1360 0.0000 0.4850 0.0000
# 2 20.7731 132.8571 38.8303 0.0000 15.9746 0.0000
# 3 30.1360 38.8303 132.1180 0.0000 23.4561 0.0000
# 4 0.0000 0.0000 0.0000 40.2065 0.0000 17.6160
# 5 0.4850 15.9746 23.4561 0.0000 33.7538 0.0000
# 6 0.0000 0.0000 0.0000 17.6160 0.0000 16.8866
#
#
#
# Elastic Compliance Matrix: (Units=1/GPa)
#
#
# Indices 1 2 3 4 5 6 
#
# 1 0.016914 -0.001911 -0.003894 0.000000 0.003368 0.000000
# 2 -0.001911 0.008644 -0.001578 0.000000 -0.002967 0.000000
# 3 -0.003894 -0.001578 0.010014 0.000000 -0.006156 0.000000
# 4 0.000000 0.000000 0.000000 0.045809 0.000000 -0.047788
# 5 0.003368 -0.002967 -0.006156 0.000000 0.035260 0.000000
# 6 0.000000 0.000000 0.000000 -0.047788 0.000000 0.109070
#
#
# Mechanical properties :
#
#
# Convention : Reuss Voigt Hill
#
# Bulk Modulus (GPa) = 48.06519 56.97388 52.51953
# Shear Modulus (GPa) = 20.20910 34.40584 27.30747
#
# Velocity S-wave (km/s) = 2.87051 3.74542 3.33677
# Velocity P-wave (km/s) = 5.53027 6.47565 6.02154
#
# Compressibility (1/GPa) = 0.02080508
#
# Stress axis : x y z
#
# Youngs Moduli (GPa) = 59.12187 115.69262 99.86086
#
# Poissons Ratio (x) = 0.22114 0.38888
# Poissons Ratio (y) = 0.11301 0.15755
# Poissons Ratio (z) = 0.23024 0.18252
#
# Static dielectric constant tensor:
#      x y z
#    x 2.018590 0.000000 -0.035310 
#    y 0.000000 2.075370 0.000000 
#    z -0.035310 0.000000 1.964780 
# 
# From -- ./inp_files/41241.got.cif
#   From: 2010.05.17/outbox.cif.g08.bks.cpg/sg15_21_cif.got.tgz:41241.got - 2010.06.03 18:47:42.
