data_PCOD9270157
_publ_section_title
;
Structure prediction by ZEFSAII (Michael W. Deem and Ramdas Pophale) SiO2 
 PCOD9270157
Probable space group: C 2/C
;
_chemical_formula_sum "Si O2"
_cell_formula_units_Z 40
_cell_length_a 8.192609
_cell_length_b 31.567433
_cell_length_c 11.742738
_cell_angle_alpha 90.000000
_cell_angle_beta 42.292095
_cell_angle_gamma 90.000000
_cell_volume 2043.563546
_symmetry_space_group_name_H-M "C 2/C"
_symmetry_group_IT_number 15
_symmetry_cell_setting 'monoclinic'
loop_
_space_group_symop_operation_xyz
x,y,z
-x,y,1/2-z
-x,-y,-z
x,-y,1/2+z
1/2+x,1/2+y,z
1/2-x,1/2+y,1/2-z
1/2-x,1/2-y,-z
1/2+x,1/2-y,1/2+z
loop_
_atom_site_type_symbol
_atom_site_label
_atom_site_fract_x
_atom_site_fract_y
_atom_site_fract_z
Si Si1 0.486316 0.546046 0.065462
Si Si2 0.290034 0.105308 0.762139
Si Si3 0.395913 0.952634 0.551137
Si Si4 0.734595 0.698689 0.706192
Si Si5 0.742147 0.774444 0.884386
O O1 0.234526 0.554925 0.260456
O O2 0.689890 0.547814 0.059455
O O3 0.500000 0.500000 0.000000
O O4 0.564552 0.579655 0.930024
O O5 0.500000 0.105138 0.750000
O O6 0.401739 0.080694 0.595444
O O7 0.222568 0.153463 0.772783
O O8 0.500000 0.000000 0.500000
O O9 0.500000 0.703817 0.750000
O O10 0.737949 0.738051 0.791318
O O11 0.993777 0.699762 0.507776
O O12 0.000000 0.798914 0.750000
O O13 0.750000 0.750000 0.000000
#
# Coordination Sequence:
#
# PCOD9270157 Si02
#       5
#     8   8   8   8   8
#     4  10  20  35  57  82 112 156 199 250 301 356
#     4  10  21  38  56  83 119 160 203 248 298 369
#     4  10  20  35  56  83 112 153 204 246 299 360
#     4  11  22  39  62  93 124 153 196 258 307 356
#     4   9  19  39  65  87 114 160 197 233 300 378
#
# _framework density 19.573651000000002
#
# number of rings (size 3 to 8) (size 9 to 14) (size 15 to 20)
#    0.000    2.000    2.000    2.400    0.000    1.600 
#   14.400    0.000    0.000    0.000    0.000    0.000 
#    0.000    0.000    0.000    0.000    0.000    0.000 
#
# Total GULP energy -111582.933520 kJ/mol
# GULP energy per Si atom -5579.146676 kJ/mol
# Density = 1.952910 g / cm^3
# Si number density = 19.573651 Si / 1000 Ang^3
#
#
#
# Elastic Constant Matrix: (Units=GPa)
#
#
# Indices 1 2 3 4 5 6 
#
# 1 53.4217 19.5758 45.6539 0.0000 -13.8438 0.0000
# 2 19.5758 96.3139 49.9381 0.0000 -1.8708 0.0000
# 3 45.6539 49.9381 161.3604 0.0000 -9.7533 0.0000
# 4 0.0000 0.0000 0.0000 28.0526 0.0000 5.2525
# 5 -13.8438 -1.8708 -9.7533 0.0000 25.5002 0.0000
# 6 0.0000 0.0000 0.0000 5.2525 0.0000 27.4470
#
#
#
# Elastic Compliance Matrix: (Units=1/GPa)
#
#
# Indices 1 2 3 4 5 6 
#
# 1 0.028463 -0.002098 -0.006632 0.000000 0.012762 0.000000
# 2 -0.002098 0.012530 -0.003375 0.000000 -0.001511 0.000000
# 3 -0.006632 -0.003375 0.009096 0.000000 -0.000369 0.000000
# 4 0.000000 0.000000 0.000000 0.036972 0.000000 -0.007075
# 5 0.012762 -0.001511 -0.000369 0.000000 0.045892 0.000000
# 6 0.000000 0.000000 0.000000 -0.007075 0.000000 0.037788
#
#
# Mechanical properties :
#
#
# Convention : Reuss Voigt Hill
#
# Bulk Modulus (GPa) = 38.64466 60.15905 49.40185
# Shear Modulus (GPa) = 24.56059 29.26185 26.91122
#
# Velocity S-wave (km/s) = 3.54613 3.87067 3.71195
# Velocity P-wave (km/s) = 6.04589 7.12583 6.60796
#
# Compressibility (1/GPa) = 0.02587680
#
# Stress axis : x y z
#
# Youngs Moduli (GPa) = 35.13346 79.80842 109.93733
#
# Poissons Ratio (x) = 0.16747 0.72913
# Poissons Ratio (y) = 0.07372 0.37109
# Poissons Ratio (z) = 0.23301 0.26939
#
# Static dielectric constant tensor:
#      x y z
#    x 1.690670 0.000000 -0.021400 
#    y 0.000000 1.577540 0.000000 
#    z -0.021400 0.000000 1.750920 
# 
# From -- ./inp_files/23621.got.cif
#   From: 2010.05.17/outbox.cif.g08.bks.cpg/sg15_12_cif.got.tgz:23621.got - 2010.06.03 18:47:42.
