data_PCOD9270402
_publ_section_title
;
Structure prediction by ZEFSAII (Michael W. Deem and Ramdas Pophale) SiO2 
 PCOD9270402
Probable space group: C 2/C
;
_chemical_formula_sum "Si O2"
_cell_formula_units_Z 56
_cell_length_a 8.167494
_cell_length_b 18.079054
_cell_length_c 18.684573
_cell_angle_alpha 90.000000
_cell_angle_beta 65.812255
_cell_angle_gamma 90.000000
_cell_volume 2516.758084
_symmetry_space_group_name_H-M "C 2/C"
_symmetry_group_IT_number 15
_symmetry_cell_setting 'monoclinic'
loop_
_space_group_symop_operation_xyz
x,y,z
-x,y,1/2-z
-x,-y,-z
x,-y,1/2+z
1/2+x,1/2+y,z
1/2-x,1/2+y,1/2-z
1/2-x,1/2-y,-z
1/2+x,1/2-y,1/2+z
loop_
_atom_site_type_symbol
_atom_site_label
_atom_site_fract_x
_atom_site_fract_y
_atom_site_fract_z
Si Si1 0.121571 0.696744 0.845226
Si Si2 0.327357 0.081118 0.465652
Si Si3 0.622784 0.697075 0.571267
Si Si4 0.328621 0.894636 0.805414
Si Si5 0.450562 0.648568 0.386585
Si Si6 0.369659 0.090828 0.965678
Si Si7 0.718246 0.774891 0.808702
O O1 0.293425 0.684061 0.864830
O O2 0.177582 0.711424 0.753972
O O3 0.042396 0.773844 0.889946
O O4 0.970406 0.635603 0.885750
O O5 0.146424 0.117430 0.529205
O O6 0.361492 0.118688 0.383338
O O7 0.486732 0.094584 0.494072
O O8 0.327883 0.993602 0.454142
O O9 0.750000 0.750000 0.500000
O O10 0.432536 0.735700 0.616595
O O11 0.500000 0.944085 0.750000
O O12 0.340934 0.827223 0.746645
O O13 0.112924 0.909301 0.842863
O O14 0.312020 0.625260 0.471633
O O15 0.339522 0.671997 0.336027
#
# Coordination Sequence:
#
# PCOD9270402 Si02
#       7
#     8   8   8   8   8   8   8
#     4  10  20  35  58  88 118 154 196 249 307 356
#     4  10  23  41  61  87 121 166 207 244 301 369
#     4  11  20  35  61  87 116 157 204 251 298 363
#     4  11  21  38  60  87 120 154 198 250 308 369
#     4  11  22  37  61  90 119 157 203 254 308 366
#     4  10  22  41  61  85 123 163 204 251 301 366
#     4  11  21  35  60  93 122 152 204 263 313 360
#
# _framework density 22.250847
#
# number of rings (size 3 to 8) (size 9 to 14) (size 15 to 20)
#    0.000    1.429    0.000    9.429    0.000    1.714 
#    0.000    2.857    0.000    8.571    0.000    0.000 
#    0.000    0.000    0.000    0.000    0.000    0.000 
#
# Total GULP energy -156208.351636 kJ/mol
# GULP energy per Si atom -5578.869701 kJ/mol
# Density = 2.220020 g / cm^3
# Si number density = 22.250847 Si / 1000 Ang^3
#
#
#
# Elastic Constant Matrix: (Units=GPa)
#
#
# Indices 1 2 3 4 5 6 
#
# 1 90.1537 17.7883 44.5340 0.0000 -10.7074 0.0000
# 2 17.7883 72.2162 39.0674 0.0000 -12.5265 0.0000
# 3 44.5340 39.0674 142.1618 0.0000 -24.0603 0.0000
# 4 0.0000 0.0000 0.0000 7.4246 0.0000 0.9650
# 5 -10.7074 -12.5265 -24.0603 0.0000 50.6533 0.0000
# 6 0.0000 0.0000 0.0000 0.9650 0.0000 15.0945
#
#
#
# Elastic Compliance Matrix: (Units=1/GPa)
#
#
# Indices 1 2 3 4 5 6 
#
# 1 0.013236 -0.001122 -0.003710 0.000000 0.000758 0.000000
# 2 -0.001122 0.016562 -0.003857 0.000000 0.002027 0.000000
# 3 -0.003710 -0.003857 0.009746 0.000000 0.002891 0.000000
# 4 0.000000 0.000000 0.000000 0.135817 0.000000 -0.008683
# 5 0.000758 0.002027 0.002891 0.000000 0.021777 0.000000
# 6 0.000000 0.000000 0.000000 -0.008683 0.000000 0.066804
#
#
# Mechanical properties :
#
#
# Convention : Reuss Voigt Hill
#
# Bulk Modulus (GPa) = 45.11338 56.36789 50.74063
# Shear Modulus (GPa) = 17.31861 28.17729 22.74795
#
# Velocity S-wave (km/s) = 2.79289 3.56244 3.20088
# Velocity P-wave (km/s) = 5.54249 6.50455 6.04270
#
# Compressibility (1/GPa) = 0.02216637
#
# Stress axis : x y z
#
# Youngs Moduli (GPa) = 75.55084 60.38044 102.61072
#
# Poissons Ratio (x) = 0.06774 0.38066
# Poissons Ratio (y) = 0.08476 0.39576
# Poissons Ratio (z) = 0.28027 0.23288
#
# Static dielectric constant tensor:
#      x y z
#    x 1.972330 0.000000 -0.030820 
#    y 0.000000 1.845820 0.000000 
#    z -0.030820 0.000000 1.819560 
# 
# From -- ./inp_files/192042.got.cif
#   From: 2010.05.17/outbox.cif.g08.bks.cpg/sg15_97_cif.got.tgz:192042.got - 2010.06.03 18:47:42.
