data_PCOD9270633
_publ_section_title
;
Structure prediction by ZEFSAII (Michael W. Deem and Ramdas Pophale) SiO2 
 PCOD9270633
Probable space group: C 2/C
;
_chemical_formula_sum "Si O2"
_cell_formula_units_Z 40
_cell_length_a 10.427925
_cell_length_b 18.901439
_cell_length_c 11.996857
_cell_angle_alpha 90.000000
_cell_angle_beta 118.931283
_cell_angle_gamma 90.000000
_cell_volume 2069.511392
_symmetry_space_group_name_H-M "C 2/C"
_symmetry_group_IT_number 15
_symmetry_cell_setting 'monoclinic'
loop_
_space_group_symop_operation_xyz
x,y,z
-x,y,1/2-z
-x,-y,-z
x,-y,1/2+z
1/2+x,1/2+y,z
1/2-x,1/2+y,1/2-z
1/2-x,1/2-y,-z
1/2+x,1/2-y,1/2+z
loop_
_atom_site_type_symbol
_atom_site_label
_atom_site_fract_x
_atom_site_fract_y
_atom_site_fract_z
Si Si1 0.101803 0.043900 0.899694
Si Si2 0.500000 0.318876 0.750000
Si Si3 0.264826 0.210655 0.727722
Si Si4 0.622676 0.597376 0.508879
Si Si5 0.500000 0.786960 0.750000
Si Si6 0.683230 0.824476 0.019312
O O1 0.206302 0.110545 0.924812
O O2 0.000000 0.028620 0.750000
O O3 0.184977 0.973272 0.975860
O O4 0.992230 0.069456 0.949213
O O5 0.354377 0.272598 0.707329
O O6 0.467178 0.362999 0.625324
O O7 0.226009 0.150408 0.621927
O O8 0.366707 0.187557 0.875157
O O9 0.116925 0.238314 0.729752
O O10 0.433439 0.836500 0.626192
O O11 0.750000 0.750000 0.000000
#
# Coordination Sequence:
#
# PCOD9270633 Si02
#       6
#     8   4   8   8   4   8
#     4  11  21  40  64  92 125 165 221 264 305 376
#     4  12  24  38  60 100 130 168 202 268 320 374
#     4  11  21  38  63  90 132 164 213 258 317 369
#     4  11  22  37  62  91 128 167 209 262 319 371
#     4  10  20  38  64  94 122 166 214 262 302 382
#     4  10  20  35  61  89 118 161 208 258 303 364
#
# _framework density 19.328233999999998
#
# number of rings (size 3 to 8) (size 9 to 14) (size 15 to 20)
#    0.000    1.200    3.000    6.600    1.400    0.000 
#    0.000    1.000    0.000    3.600    0.000    0.000 
#    0.000    0.000    0.000    0.000    0.000    0.000 
#
# Total GULP energy -111440.677498 kJ/mol
# GULP energy per Si atom -5572.033875 kJ/mol
# Density = 1.928424 g / cm^3
# Si number density = 19.328234 Si / 1000 Ang^3
#
#
#
# Elastic Constant Matrix: (Units=GPa)
#
#
# Indices 1 2 3 4 5 6 
#
# 1 45.0923 20.5064 4.4512 0.0000 -11.7998 0.0000
# 2 20.5064 104.8743 41.3293 0.0000 -8.5648 0.0000
# 3 4.4512 41.3293 168.5815 0.0000 -18.2707 0.0000
# 4 0.0000 0.0000 0.0000 11.7434 0.0000 -36.0960
# 5 -11.7998 -8.5648 -18.2707 0.0000 23.2904 0.0000
# 6 0.0000 0.0000 0.0000 -36.0960 0.0000 18.8375
#
#
#
# Elastic Compliance Matrix: (Units=1/GPa)
#
#
# Indices 1 2 3 4 5 6 
#
# 1 0.027934 -0.005127 0.002021 0.000000 0.013852 0.000000
# 2 -0.005127 0.011584 -0.002759 0.000000 -0.000502 0.000000
# 3 0.002021 -0.002759 0.007165 0.000000 0.005630 0.000000
# 4 0.000000 0.000000 0.000000 -0.017415 0.000000 -0.033369
# 5 0.013852 -0.000502 0.005630 0.000000 0.054186 0.000000
# 6 0.000000 0.000000 0.000000 -0.033369 0.000000 -0.010856
#
#
# Mechanical properties :
#
#
# Convention : Reuss Voigt Hill
#
# Bulk Modulus (GPa) = 28.61062 50.12466 39.36764
# Shear Modulus (GPa) = 52.09461 27.59166 39.84313
#
# Velocity S-wave (km/s) = 5.19722 3.78237 4.54518
# Velocity P-wave (km/s) = 7.13088 6.71303 6.92511
#
# Compressibility (1/GPa) = 0.03495206
#
# Stress axis : x y z
#
# Youngs Moduli (GPa) = 35.79914 86.32611 139.56638
#
# Poissons Ratio (x) = 0.44259 -0.28201
# Poissons Ratio (y) = 0.18354 0.38506
# Poissons Ratio (z) = -0.07234 0.23817
#
# Static dielectric constant tensor:
#      x y z
#    x 1.708210 0.000000 0.038700 
#    y 0.000000 1.744610 0.000000 
#    z 0.038700 0.000000 1.765230 
# 
# From -- ./inp_files/86031.got.cif
#   From: 2010.05.17/outbox.cif.g08.bks.cpg/sg15_44_cif.got.tgz:86031.got - 2010.06.03 18:47:42.
