data_PCOD9270567
_publ_section_title
;
Structure prediction by ZEFSAII (Michael W. Deem and Ramdas Pophale) SiO2 
 PCOD9270567
Probable space group: C 2/C
;
_chemical_formula_sum "Si O2"
_cell_formula_units_Z 60
_cell_length_a 17.572478
_cell_length_b 21.160236
_cell_length_c 17.087767
_cell_angle_alpha 90.000000
_cell_angle_beta 149.659933
_cell_angle_gamma 90.000000
_cell_volume 3209.542171
_symmetry_space_group_name_H-M "C 2/C"
_symmetry_group_IT_number 15
_symmetry_cell_setting 'monoclinic'
loop_
_space_group_symop_operation_xyz
x,y,z
-x,y,1/2-z
-x,-y,-z
x,-y,1/2+z
1/2+x,1/2+y,z
1/2-x,1/2+y,1/2-z
1/2-x,1/2-y,-z
1/2+x,1/2-y,1/2+z
loop_
_atom_site_type_symbol
_atom_site_label
_atom_site_fract_x
_atom_site_fract_y
_atom_site_fract_z
Si Si1 0.500000 0.238420 0.250000
Si Si2 0.657014 0.987938 0.936446
Si Si3 0.510318 0.945881 0.076317
Si Si4 0.135400 0.646078 0.476107
Si Si5 0.380995 0.839026 0.860372
Si Si6 0.172438 0.974410 0.062396
Si Si7 0.878611 0.200854 0.797903
Si Si8 0.564454 0.400950 0.557877
O O1 0.631193 0.191688 0.397523
O O2 0.539006 0.279515 0.209539
O O3 0.500000 0.975558 0.750000
O O4 0.609195 0.034919 0.963070
O O5 0.778173 0.013979 0.982902
O O6 0.703762 0.921155 0.015506
O O7 0.677476 0.949594 0.260286
O O8 0.469895 0.877721 0.005499
O O9 0.500000 0.000000 0.000000
O O10 0.217341 0.679356 0.621557
O O11 0.963416 0.638002 0.353129
O O12 0.379963 0.763255 0.853026
O O13 0.210798 0.862577 0.712893
O O14 0.123805 0.040271 0.059166
O O15 0.034887 0.927740 0.958920
O O16 0.960059 0.143849 0.912863
#
# Coordination Sequence:
#
# PCOD9270567 Si02
#       8
#     4   8   8   8   8   8   8   8
#     4  10  22  34  52  86 122 162 198 242 290 370
#     4  10  20  35  60  90 117 155 198 256 297 355
#     4  11  19  37  65  87 114 160 209 243 299 365
#     4  11  20  35  59  82 123 162 202 236 297 371
#     4  11  21  38  58  83 117 159 207 243 289 364
#     4  10  23  38  59  86 122 157 200 256 309 348
#     4  11  25  36  56  89 122 164 201 245 307 367
#     4  11  23  40  56  82 126 158 198 256 303 351
#
# _framework density 18.694254999999998
#
# number of rings (size 3 to 8) (size 9 to 14) (size 15 to 20)
#    0.000    1.333    3.333    3.600    3.733    0.000 
#    0.000    2.000    0.000    0.800    0.000    1.867 
#    0.000    0.000    0.000    0.000    0.000    0.000 
#
# Total GULP energy -167515.254504 kJ/mol
# GULP energy per Si atom -5583.841817 kJ/mol
# Density = 1.865171 g / cm^3
# Si number density = 18.694255 Si / 1000 Ang^3
#
#
#
# Elastic Constant Matrix: (Units=GPa)
#
#
# Indices 1 2 3 4 5 6 
#
# 1 119.7778 40.3518 22.4326 0.0000 14.8618 0.0000
# 2 40.3518 91.7898 40.4124 -0.0001 -2.9740 0.0000
# 3 22.4326 40.4124 62.9775 0.0000 6.5534 -0.0001
# 4 0.0000 -0.0001 0.0000 37.4254 0.0000 -7.8287
# 5 14.8618 -2.9740 6.5534 0.0000 24.4735 0.0000
# 6 0.0000 0.0000 -0.0001 -7.8287 0.0000 21.9962
#
#
#
# Elastic Compliance Matrix: (Units=1/GPa)
#
#
# Indices 1 2 3 4 5 6 
#
# 1 0.010952 -0.005114 0.000141 0.000000 -0.007310 0.000000
# 2 -0.005114 0.018088 -0.010634 0.000000 0.008151 0.000000
# 3 0.000141 -0.010634 0.023449 0.000000 -0.007657 0.000000
# 4 0.000000 0.000000 0.000000 0.028869 0.000000 0.010275
# 5 -0.007310 0.008151 -0.007657 0.000000 0.048340 0.000000
# 6 0.000000 0.000000 0.000000 0.010275 0.000000 0.049119
#
#
# Mechanical properties :
#
#
# Convention : Reuss Voigt Hill
#
# Bulk Modulus (GPa) = 47.00077 53.43763 50.21920
# Shear Modulus (GPa) = 23.02837 28.20225 25.61531
#
# Velocity S-wave (km/s) = 3.51357 3.88829 3.70567
# Velocity P-wave (km/s) = 6.45419 6.98609 6.72540
#
# Compressibility (1/GPa) = 0.02127625
#
# Stress axis : x y z
#
# Youngs Moduli (GPa) = 91.30659 55.28433 42.64574
#
# Poissons Ratio (x) = 0.28270 -0.00601
# Poissons Ratio (y) = 0.46690 0.45349
# Poissons Ratio (z) = -0.01286 0.58789
#
# Static dielectric constant tensor:
#      x y z
#    x 1.653460 0.000000 0.022140 
#    y 0.000000 1.657680 0.000000 
#    z 0.022140 0.000000 1.698420 
# 
# From -- ./inp_files/211758.got.cif
#   From: 2010.05.17/outbox.cif.g08.bks.cpg/sg15_106_cif.got.tgz:211758.got - 2010.06.03 18:47:42.
