data_PCOD9270123
_publ_section_title
;
Structure prediction by ZEFSAII (Michael W. Deem and Ramdas Pophale) SiO2 
 PCOD9270123
Probable space group: C 2/C
;
_chemical_formula_sum "Si O2"
_cell_formula_units_Z 40
_cell_length_a 6.657889
_cell_length_b 13.837110
_cell_length_c 14.783850
_cell_angle_alpha 90.000000
_cell_angle_beta 77.110652
_cell_angle_gamma 90.000000
_cell_volume 1327.657970
_symmetry_space_group_name_H-M "C 2/C"
_symmetry_group_IT_number 15
_symmetry_cell_setting 'monoclinic'
loop_
_space_group_symop_operation_xyz
x,y,z
-x,y,1/2-z
-x,-y,-z
x,-y,1/2+z
1/2+x,1/2+y,z
1/2-x,1/2+y,1/2-z
1/2-x,1/2-y,-z
1/2+x,1/2-y,1/2+z
loop_
_atom_site_type_symbol
_atom_site_label
_atom_site_fract_x
_atom_site_fract_y
_atom_site_fract_z
Si Si1 0.659128 0.941786 0.417105
Si Si2 0.212527 0.906606 0.281754
Si Si3 0.164071 0.647268 0.367665
Si Si4 0.523060 0.319175 0.474322
Si Si5 0.292007 0.367191 0.672284
O O1 0.762876 0.043863 0.378487
O O2 0.500000 0.000000 0.500000
O O3 0.621459 0.899332 0.318938
O O4 0.812190 0.866934 0.451680
O O5 0.000000 0.876975 0.250000
O O6 0.185975 0.863456 0.386009
O O7 0.201451 0.019931 0.306679
O O8 0.283183 0.688916 0.268580
O O9 0.100270 0.708829 0.460683
O O10 0.932614 0.641038 0.349766
O O11 0.464501 0.334035 0.584621
#
# Coordination Sequence:
#
# PCOD9270123 Si02
#       5
#     8   8   8   8   8
#     4  10  20  35  55  87 124 151 197 259 306 352
#     4   9  21  36  57  85 117 160 199 248 312 365
#     4  10  22  35  58  95 116 151 208 258 296 368
#     4  11  21  37  65  89 116 166 205 248 314 374
#     4  10  20  35  58  87 120 151 201 255 300 368
#
# _framework density 30.128245
#
# number of rings (size 3 to 8) (size 9 to 14) (size 15 to 20)
#    0.000    2.000    2.000    1.200    8.400    0.000 
#    0.000    0.000    0.000   26.400    5.200    0.000 
#    0.000    0.000    0.000    0.000    0.000    0.000 
#
# Total GULP energy -111479.553105 kJ/mol
# GULP energy per Si atom -5573.977655 kJ/mol
# Density = 3.005967 g / cm^3
# Si number density = 30.128245 Si / 1000 Ang^3
#
#
#
# Elastic Constant Matrix: (Units=GPa)
#
#
# Indices 1 2 3 4 5 6 
#
# 1 86.7446 -20.1444 22.1065 0.0000 -16.3757 0.0000
# 2 -20.1444 43.1997 2.3422 0.0000 17.9560 0.0000
# 3 22.1065 2.3422 292.9490 0.0000 -2.0500 0.0000
# 4 0.0000 0.0000 0.0000 62.9133 0.0000 1.6402
# 5 -16.3757 17.9560 -2.0500 0.0000 62.6340 0.0000
# 6 0.0000 0.0000 0.0000 1.6402 0.0000 39.7206
#
#
#
# Elastic Compliance Matrix: (Units=1/GPa)
#
#
# Indices 1 2 3 4 5 6 
#
# 1 0.013437 0.005536 -0.001045 0.000000 0.001892 0.000000
# 2 0.005536 0.028581 -0.000694 0.000000 -0.006769 0.000000
# 3 -0.001045 -0.000694 0.003498 0.000000 0.000040 0.000000
# 4 0.000000 0.000000 0.000000 0.015912 0.000000 -0.000657
# 5 0.001892 -0.006769 0.000040 0.000000 0.018402 0.000000
# 6 0.000000 0.000000 0.000000 -0.000657 0.000000 0.025203
#
#
# Mechanical properties :
#
#
# Convention : Reuss Voigt Hill
#
# Bulk Modulus (GPa) = 18.82831 47.94466 33.38649
# Shear Modulus (GPa) = 43.42447 60.95952 52.19200
#
# Velocity S-wave (km/s) = 3.80059 4.50303 4.16664
# Velocity P-wave (km/s) = 5.05196 6.55625 5.85264
#
# Compressibility (1/GPa) = 0.05311152
#
# Stress axis : x y z
#
# Youngs Moduli (GPa) = 74.42018 34.98828 285.85726
#
# Poissons Ratio (x) = -0.19370 0.29873
# Poissons Ratio (y) = -0.41201 0.19829
# Poissons Ratio (z) = 0.07777 0.02427
#
# Static dielectric constant tensor:
#      x y z
#    x 2.591790 0.000000 0.015020 
#    y 0.000000 2.435330 0.000000 
#    z 0.015020 0.000000 2.509400 
# 
# From -- ./inp_files/142631.got.cif
#   From: 2010.05.17/outbox.cif.g08.bks.cpg/sg15_72_cif.got.tgz:142631.got - 2010.06.03 18:47:42.
