data_PCOD9270307
_publ_section_title
;
Structure prediction by ZEFSAII (Michael W. Deem and Ramdas Pophale) SiO2 
 PCOD9270307
Probable space group: C 2/C
;
_chemical_formula_sum "Si O2"
_cell_formula_units_Z 64
_cell_length_a 11.330196
_cell_length_b 22.121988
_cell_length_c 23.623705
_cell_angle_alpha 90.000000
_cell_angle_beta 149.873015
_cell_angle_gamma 90.000000
_cell_volume 2971.956749
_symmetry_space_group_name_H-M "C 2/C"
_symmetry_group_IT_number 15
_symmetry_cell_setting 'monoclinic'
loop_
_space_group_symop_operation_xyz
x,y,z
-x,y,1/2-z
-x,-y,-z
x,-y,1/2+z
1/2+x,1/2+y,z
1/2-x,1/2+y,1/2-z
1/2-x,1/2-y,-z
1/2+x,1/2-y,1/2+z
loop_
_atom_site_type_symbol
_atom_site_label
_atom_site_fract_x
_atom_site_fract_y
_atom_site_fract_z
Si Si1 0.672618 0.498179 0.019198
Si Si2 0.647680 0.697210 0.575847
Si Si3 0.855557 0.331027 0.276808
Si Si4 0.394678 0.815854 0.011422
Si Si5 0.505376 0.370656 0.585348
Si Si6 0.935983 0.945388 0.313516
Si Si7 0.937691 0.429701 0.486876
Si Si8 0.360544 0.940176 0.808683
O O1 0.932158 0.523283 0.137182
O O2 0.500000 0.500000 0.000000
O O3 0.658468 0.430044 0.990398
O O4 0.556166 0.539608 0.923293
O O5 0.670702 0.692555 0.653000
O O6 0.619633 0.765410 0.542579
O O7 0.458912 0.657135 0.462551
O O8 0.894570 0.672086 0.652126
O O9 0.762471 0.396346 0.257002
O O10 0.912304 0.299765 0.360434
O O11 0.145250 0.823699 0.939810
O O12 0.451423 0.881118 0.008756
O O13 0.730778 0.393746 0.713384
O O14 0.155756 0.924025 0.367644
O O15 0.825276 0.008696 0.248661
O O16 0.000000 0.500000 0.500000
O O17 0.031715 0.414517 0.588850
#
# Coordination Sequence:
#
# PCOD9270307 Si02
#       8
#     8   8   8   8   8   8   8   8
#     4  10  20  35  57  90 125 160 201 248 305 371
#     4  10  22  39  62  91 117 157 208 256 300 361
#     4  10  20  38  62  84 118 157 198 252 304 361
#     4  11  23  39  62  91 119 159 211 251 301 371
#     4  10  20  36  59  88 123 157 204 252 299 365
#     4  10  21  36  58  89 122 164 207 241 303 374
#     4  11  23  39  59  91 129 162 203 255 309 370
#     4  10  21  35  57  90 126 160 197 255 307 354
#
# _framework density 21.534632999999999
#
# number of rings (size 3 to 8) (size 9 to 14) (size 15 to 20)
#    0.000    1.750    0.000    6.750    0.000    9.500 
#    0.000    0.625    0.000    9.000    0.000    0.000 
#    0.000    0.000    0.000    0.000    0.000    0.000 
#
# Total GULP energy -178630.996370 kJ/mol
# GULP energy per Si atom -5582.218637 kJ/mol
# Density = 2.148562 g / cm^3
# Si number density = 21.534633 Si / 1000 Ang^3
#
#
#
# Elastic Constant Matrix: (Units=GPa)
#
#
# Indices 1 2 3 4 5 6 
#
# 1 53.3589 20.2819 30.1816 0.0006 -11.9299 -0.0003
# 2 20.2819 99.0355 43.3854 0.0015 -12.6995 0.0004
# 3 30.1816 43.3854 133.7113 0.0036 -29.5603 -0.0003
# 4 0.0006 0.0015 0.0036 19.0102 0.0024 -1.2511
# 5 -11.9299 -12.6995 -29.5603 0.0024 33.2243 -0.0006
# 6 -0.0003 0.0004 -0.0003 -1.2511 -0.0006 24.5957
#
#
#
# Elastic Compliance Matrix: (Units=1/GPa)
#
#
# Indices 1 2 3 4 5 6 
#
# 1 0.022544 -0.002632 -0.003321 0.000000 0.004134 0.000000
# 2 -0.002632 0.012128 -0.003144 0.000000 0.000894 0.000000
# 3 -0.003321 -0.003144 0.010854 -0.000003 0.007263 0.000000
# 4 0.000000 0.000000 -0.000003 0.052780 -0.000006 0.002685
# 5 0.004134 0.000894 0.007263 -0.000006 0.038387 0.000001
# 6 0.000000 0.000000 0.000000 0.002685 0.000001 0.040794
#
#
# Mechanical properties :
#
#
# Convention : Reuss Voigt Hill
#
# Bulk Modulus (GPa) = 36.58463 52.64486 44.61474
# Shear Modulus (GPa) = 24.41513 28.18315 26.29914
#
# Velocity S-wave (km/s) = 3.37079 3.62157 3.49843
# Velocity P-wave (km/s) = 5.67232 6.47977 6.08944
#
# Compressibility (1/GPa) = 0.02733388
#
# Stress axis : x y z
#
# Youngs Moduli (GPa) = 44.35743 82.45279 92.13176
#
# Poissons Ratio (x) = 0.21702 0.30594
# Poissons Ratio (y) = 0.11675 0.28962
# Poissons Ratio (z) = 0.14730 0.25919
#
# Static dielectric constant tensor:
#      x y z
#    x 1.841100 0.000000 0.002720 
#    y 0.000000 1.794160 0.000000 
#    z 0.002720 0.000000 1.841970 
# 
# From -- ./inp_files/271221.got.cif
#   From: 2010.05.17/outbox.cif.g08.bks.cpg/sg15_136_cif.got.tgz:271221.got - 2010.06.03 18:47:42.
