data_PCOD9270751
_publ_section_title
;
Structure prediction by ZEFSAII (Michael W. Deem and Ramdas Pophale) SiO2 
 PCOD9270751
Probable space group: C 2/C
;
_chemical_formula_sum "Si O2"
_cell_formula_units_Z 44
_cell_length_a 9.002019
_cell_length_b 18.096953
_cell_length_c 13.834810
_cell_angle_alpha 90.000000
_cell_angle_beta 111.286209
_cell_angle_gamma 90.000000
_cell_volume 2100.058201
_symmetry_space_group_name_H-M "C 2/C"
_symmetry_group_IT_number 15
_symmetry_cell_setting 'monoclinic'
loop_
_space_group_symop_operation_xyz
x,y,z
-x,y,1/2-z
-x,-y,-z
x,-y,1/2+z
1/2+x,1/2+y,z
1/2-x,1/2+y,1/2-z
1/2-x,1/2-y,-z
1/2+x,1/2-y,1/2+z
loop_
_atom_site_type_symbol
_atom_site_label
_atom_site_fract_x
_atom_site_fract_y
_atom_site_fract_z
Si Si1 0.852626 0.983648 0.037034
Si Si2 0.246668 0.150980 0.453650
Si Si3 0.000000 0.098311 0.750000
Si Si4 0.519650 0.929781 0.934044
Si Si5 0.000000 0.480248 0.250000
Si Si6 0.000000 0.774805 0.750000
Si Si7 0.766366 0.343618 0.179225
O O1 0.901431 0.951315 0.152127
O O2 0.789363 0.065170 0.039310
O O3 0.712104 0.929226 0.964973
O O4 0.000000 0.000000 0.000000
O O5 0.424931 0.142559 0.448756
O O6 0.106260 0.179711 0.350580
O O7 0.243921 0.183009 0.562679
O O8 0.109575 0.145056 0.703871
O O9 0.446147 0.963923 0.820070
O O10 0.500000 0.000000 0.000000
O O11 0.857689 0.422575 0.193685
O O12 0.873636 0.715499 0.762259
#
# Coordination Sequence:
#
# PCOD9270751 Si02
#       7
#     8   8   4   8   4   4   8
#     4  11  21  38  66 104 131 157 200 270 343 395
#     4  11  22  44  63  96 128 164 220 269 326 391
#     4  12  23  40  64  96 131 166 214 268 338 394
#     4  10  20  35  63  95 127 158 202 261 327 390
#     4  11  18  38  66  96 126 165 200 252 338 395
#     4  11  27  42  66  86 125 183 224 272 310 371
#     4  11  23  41  65  88 127 176 222 259 315 398
#
# _framework density 20.951799000000001
#
# number of rings (size 3 to 8) (size 9 to 14) (size 15 to 20)
#    0.000    1.091    5.455    3.273    2.545    1.455 
#    0.000    3.636    0.000    0.000    0.000    0.000 
#    0.000    0.000    0.000    0.000    0.000    0.000 
#
# Total GULP energy -122497.323314 kJ/mol
# GULP energy per Si atom -5568.060151 kJ/mol
# Density = 2.090411 g / cm^3
# Si number density = 20.951799 Si / 1000 Ang^3
#
#
#
# Elastic Constant Matrix: (Units=GPa)
#
#
# Indices 1 2 3 4 5 6 
#
# 1 126.3475 30.2471 47.2264 0.0000 -0.0132 0.0000
# 2 30.2471 36.7127 31.9628 0.0000 7.9548 0.0000
# 3 47.2264 31.9628 125.8573 0.0000 2.3442 0.0000
# 4 0.0000 0.0000 0.0000 23.9713 0.0000 17.2350
# 5 -0.0132 7.9548 2.3442 0.0000 37.8778 0.0000
# 6 0.0000 0.0000 0.0000 17.2350 0.0000 29.5393
#
#
#
# Elastic Compliance Matrix: (Units=1/GPa)
#
#
# Indices 1 2 3 4 5 6 
#
# 1 0.010405 -0.007059 -0.002142 0.000000 0.001619 0.000000
# 2 -0.007059 0.041602 -0.007763 0.000000 -0.008259 0.000000
# 3 -0.002142 -0.007763 0.010703 0.000000 0.000967 0.000000
# 4 0.000000 0.000000 0.000000 0.071863 0.000000 -0.041929
# 5 0.001619 -0.008259 0.000967 0.000000 0.028076 0.000000
# 6 0.000000 0.000000 0.000000 -0.041929 0.000000 0.058317
#
#
# Mechanical properties :
#
#
# Convention : Reuss Voigt Hill
#
# Bulk Modulus (GPa) = 34.74251 56.42112 45.58181
# Shear Modulus (GPa) = 18.90449 30.24307 24.57378
#
# Velocity S-wave (km/s) = 3.00706 3.80341 3.42844
# Velocity P-wave (km/s) = 5.35488 6.80260 6.12169
#
# Compressibility (1/GPa) = 0.02878319
#
# Stress axis : x y z
#
# Youngs Moduli (GPa) = 96.10492 24.03729 93.43440
#
# Poissons Ratio (x) = 0.16967 0.20014
# Poissons Ratio (y) = 0.67837 0.72531
# Poissons Ratio (z) = 0.20586 0.18660
#
# Static dielectric constant tensor:
#      x y z
#    x 2.102230 0.000000 -0.054790 
#    y 0.000000 1.648720 0.000000 
#    z -0.054790 0.000000 1.813510 
# 
# From -- ./inp_files/78326.got.cif
#   From: 2010.05.17/outbox.cif.g08.bks.cpg/sg15_40_cif.got.tgz:78326.got - 2010.06.03 18:47:42.
