data_PCOD9270344
_publ_section_title
;
Structure prediction by ZEFSAII (Michael W. Deem and Ramdas Pophale) SiO2 
 PCOD9270344
Probable space group: C 2/C
;
_chemical_formula_sum "Si O2"
_cell_formula_units_Z 56
_cell_length_a 14.451308
_cell_length_b 14.143814
_cell_length_c 29.768159
_cell_angle_alpha 90.000000
_cell_angle_beta 28.753021
_cell_angle_gamma 90.000000
_cell_volume 2926.862649
_symmetry_space_group_name_H-M "C 2/C"
_symmetry_group_IT_number 15
_symmetry_cell_setting 'monoclinic'
loop_
_space_group_symop_operation_xyz
x,y,z
-x,y,1/2-z
-x,-y,-z
x,-y,1/2+z
1/2+x,1/2+y,z
1/2-x,1/2+y,1/2-z
1/2-x,1/2-y,-z
1/2+x,1/2-y,1/2+z
loop_
_atom_site_type_symbol
_atom_site_label
_atom_site_fract_x
_atom_site_fract_y
_atom_site_fract_z
Si Si1 0.840531 0.298597 0.854468
Si Si2 0.503641 0.627512 0.845471
Si Si3 0.978867 0.068070 0.311354
Si Si4 0.186629 0.605756 0.511966
Si Si5 0.958302 0.203860 0.093763
Si Si6 0.361118 0.094516 0.436281
Si Si7 0.732810 0.790111 0.776716
O O1 0.915504 0.200019 0.845428
O O2 0.639187 0.293415 0.913372
O O3 0.827686 0.375155 0.899363
O O4 0.000000 0.324708 0.750000
O O5 0.558778 0.525959 0.802085
O O6 0.679551 0.680659 0.794917
O O7 0.330989 0.615084 0.954076
O O8 0.777817 0.083712 0.423724
O O9 0.000000 0.046829 0.250000
O O10 0.093584 0.166105 0.269478
O O11 0.364980 0.634853 0.468784
O O12 0.091497 0.513565 0.573467
O O13 0.043099 0.692904 0.568758
O O14 0.792498 0.180810 0.200622
O O15 0.539241 0.159267 0.375388
#
# Coordination Sequence:
#
# PCOD9270344 Si02
#       7
#     8   8   8   8   8   8   8
#     4  11  19  33  59  86 110 151 200 241 282 349
#     4  10  21  37  55  88 119 152 192 250 306 343
#     4  10  22  37  59  89 118 150 207 243 290 357
#     4   9  22  39  56  84 122 160 189 241 304 351
#     4  10  20  38  60  82 115 162 195 233 297 360
#     4  10  21  36  56  87 118 148 195 248 302 345
#     4  10  20  35  58  82 116 157 189 242 294 353
#
# _framework density 19.133115
#
# number of rings (size 3 to 8) (size 9 to 14) (size 15 to 20)
#    0.000    2.000    2.857    2.143    2.000    2.857 
#    0.000    2.857    0.000    7.714    0.000    0.000 
#    0.000    0.000    0.000    0.000    0.000    0.000 
#
# Total GULP energy -155963.140109 kJ/mol
# GULP energy per Si atom -5570.112147 kJ/mol
# Density = 1.908957 g / cm^3
# Si number density = 19.133115 Si / 1000 Ang^3
#
#
#
# Elastic Constant Matrix: (Units=GPa)
#
#
# Indices 1 2 3 4 5 6 
#
# 1 52.5991 8.6137 27.8189 0.0005 13.8270 0.0001
# 2 8.6137 62.2872 15.8681 0.0010 12.5531 -0.0004
# 3 27.8189 15.8681 56.7591 0.0018 11.0389 0.0002
# 4 0.0005 0.0010 0.0018 20.9161 -0.0007 0.4844
# 5 13.8270 12.5531 11.0389 -0.0007 21.7627 0.0001
# 6 0.0001 -0.0004 0.0002 0.4844 0.0001 12.6187
#
#
#
# Elastic Compliance Matrix: (Units=1/GPa)
#
#
# Indices 1 2 3 4 5 6 
#
# 1 0.028443 0.001722 -0.011887 0.000000 -0.013035 0.000000
# 2 0.001722 0.018872 -0.004205 -0.000001 -0.009847 0.000001
# 3 -0.011887 -0.004205 0.025162 -0.000002 -0.002785 0.000000
# 4 0.000000 -0.000001 -0.000002 0.047853 0.000003 -0.001837
# 5 -0.013035 -0.009847 -0.002785 0.000003 0.061325 -0.000001
# 6 0.000000 0.000001 0.000000 -0.001837 -0.000001 0.079318
#
#
# Mechanical properties :
#
#
# Convention : Reuss Voigt Hill
#
# Bulk Modulus (GPa) = 22.86381 30.69409 26.77895
# Shear Modulus (GPa) = 16.43163 19.01581 17.72372
#
# Velocity S-wave (km/s) = 2.93372 3.15599 3.04688
# Velocity P-wave (km/s) = 4.84267 5.41826 5.13853
#
# Compressibility (1/GPa) = 0.04373724
#
# Stress axis : x y z
#
# Youngs Moduli (GPa) = 35.15782 52.98771 39.74316
#
# Poissons Ratio (x) = -0.09124 0.47242
# Poissons Ratio (y) = -0.06054 0.16712
# Poissons Ratio (z) = 0.41792 0.22281
#
# Static dielectric constant tensor:
#      x y z
#    x 1.699810 0.000000 -0.029130 
#    y 0.000000 1.682440 0.000000 
#    z -0.029130 0.000000 1.674330 
# 
# From -- ./inp_files/182098.got.cif
#   From: 2010.05.17/outbox.cif.g08.bks.cpg/sg15_92_cif.got.tgz:182098.got - 2010.06.03 18:47:42.
