data_PCOD9270183
_publ_section_title
;
Structure prediction by ZEFSAII (Michael W. Deem and Ramdas Pophale) SiO2 
 PCOD9270183
Probable space group: C 2/C
;
_chemical_formula_sum "Si O2"
_cell_formula_units_Z 60
_cell_length_a 26.874998
_cell_length_b 6.218325
_cell_length_c 26.744344
_cell_angle_alpha 90.000000
_cell_angle_beta 135.724382
_cell_angle_gamma 90.000000
_cell_volume 3120.168714
_symmetry_space_group_name_H-M "C 2/C"
_symmetry_group_IT_number 15
_symmetry_cell_setting 'monoclinic'
loop_
_space_group_symop_operation_xyz
x,y,z
-x,y,1/2-z
-x,-y,-z
x,-y,1/2+z
1/2+x,1/2+y,z
1/2-x,1/2+y,1/2-z
1/2-x,1/2-y,-z
1/2+x,1/2-y,1/2+z
loop_
_atom_site_type_symbol
_atom_site_label
_atom_site_fract_x
_atom_site_fract_y
_atom_site_fract_z
Si Si1 0.546551 0.544796 0.347527
Si Si2 0.469956 0.944588 0.904062
Si Si3 0.500000 0.161406 0.250000
Si Si4 0.916941 0.631474 0.764922
Si Si5 0.394300 0.639646 0.516272
Si Si6 0.709376 0.061002 0.499034
Si Si7 0.944192 0.179451 0.978060
Si Si8 0.331719 0.239278 0.621051
O O1 0.531408 0.310179 0.315731
O O2 0.596946 0.523078 0.431281
O O3 0.593652 0.645908 0.337948
O O4 0.475353 0.675583 0.309339
O O5 0.423708 0.012500 0.822875
O O6 0.531092 0.770038 0.934558
O O7 0.425982 0.831999 0.917626
O O8 0.513064 0.154966 0.954935
O O9 0.555553 0.022405 0.259576
O O10 0.840150 0.688815 0.686183
O O11 0.338221 0.821170 0.492906
O O12 0.386431 0.473563 0.464258
O O13 0.750000 0.250000 0.500000
O O14 0.671533 0.939918 0.425232
O O15 0.764900 0.894446 0.563173
O O16 0.000000 0.000000 0.000000
#
# Coordination Sequence:
#
# PCOD9270183 Si02
#       8
#     8   8   4   8   8   8   8   8
#     4  12  20  32  53  84 117 156 188 230 289 362
#     4  10  20  35  56  85 120 144 186 248 314 357
#     4  12  20  30  50  82 118 160 178 216 298 354
#     4  12  21  32  53  82 117 157 194 235 301 362
#     4  11  20  34  58  80 117 161 192 239 296 356
#     4  11  24  38  54  77 123 165 202 241 276 344
#     4   9  20  35  54  85 120 138 189 243 304 359
#     4  11  23  36  49  80 124 155 210 237 273 358
#
# _framework density 19.22973
#
# number of rings (size 3 to 8) (size 9 to 14) (size 15 to 20)
#    0.000    1.067    6.667    1.600    0.000    0.000 
#    0.000    0.000    0.000    0.000    0.000    0.000 
#   68.000    0.000    0.000    0.000    0.000    0.000 
#
# Total GULP energy -167043.949126 kJ/mol
# GULP energy per Si atom -5568.131638 kJ/mol
# Density = 1.918596 g / cm^3
# Si number density = 19.229730 Si / 1000 Ang^3
#
#
#
# Elastic Constant Matrix: (Units=GPa)
#
#
# Indices 1 2 3 4 5 6 
#
# 1 62.2944 29.7663 35.7476 -0.0012 -19.8589 0.0058
# 2 29.7663 88.4400 34.7054 -0.0014 -8.1716 0.0178
# 3 35.7476 34.7054 111.3004 0.0001 -21.8918 0.0001
# 4 -0.0012 -0.0014 0.0001 35.1615 -0.0021 -11.9195
# 5 -19.8589 -8.1716 -21.8918 -0.0021 23.8199 -0.0009
# 6 0.0058 0.0178 0.0001 -11.9195 -0.0009 35.3552
#
#
#
# Elastic Compliance Matrix: (Units=1/GPa)
#
#
# Indices 1 2 3 4 5 6 
#
# 1 0.026094 -0.005969 -0.003227 0.000002 0.016741 0.000000
# 2 -0.005969 0.014265 -0.003109 -0.000002 -0.002941 -0.000007
# 3 -0.003227 -0.003109 0.012514 0.000001 0.007744 0.000003
# 4 0.000002 -0.000002 0.000001 0.032110 0.000005 0.010825
# 5 0.016741 -0.002941 0.007744 0.000005 0.062048 0.000002
# 6 0.000000 -0.000007 0.000003 0.010825 0.000002 0.031934
#
#
# Mechanical properties :
#
#
# Convention : Reuss Voigt Hill
#
# Bulk Modulus (GPa) = 35.38330 51.38592 43.38461
# Shear Modulus (GPa) = 23.47483 29.65503 26.56493
#
# Velocity S-wave (km/s) = 3.49772 3.93128 3.72082
# Velocity P-wave (km/s) = 5.89511 6.88380 6.40855
#
# Compressibility (1/GPa) = 0.02826192
#
# Stress axis : x y z
#
# Youngs Moduli (GPa) = 38.32337 70.10381 79.91255
#
# Poissons Ratio (x) = 0.41847 0.25785
# Poissons Ratio (y) = 0.22877 0.24845
# Poissons Ratio (z) = 0.12365 0.21796
#
# Static dielectric constant tensor:
#      x y z
#    x 1.712880 -0.000080 -0.064350 
#    y -0.000080 0.750410 -0.000120 
#    z -0.064350 -0.000120 1.813290 
# 
# From -- ./inp_files/302833.got.cif
#   From: 2010.05.17/outbox.cif.g08.bks.cpg/sg15_152_cif.got.tgz:302833.got - 2010.06.03 18:47:42.
