data_PCOD9270895
_publ_section_title
;
Structure prediction by ZEFSAII (Michael W. Deem and Ramdas Pophale) SiO2 
 PCOD9270895
Probable space group: C 2/C
;
_chemical_formula_sum "Si O2"
_cell_formula_units_Z 48
_cell_length_a 19.261851
_cell_length_b 5.071269
_cell_length_c 17.231132
_cell_angle_alpha 90.000000
_cell_angle_beta 75.563961
_cell_angle_gamma 90.000000
_cell_volume 1630.028361
_symmetry_space_group_name_H-M "C 2/C"
_symmetry_group_IT_number 15
_symmetry_cell_setting 'monoclinic'
loop_
_space_group_symop_operation_xyz
x,y,z
-x,y,1/2-z
-x,-y,-z
x,-y,1/2+z
1/2+x,1/2+y,z
1/2-x,1/2+y,1/2-z
1/2-x,1/2-y,-z
1/2+x,1/2-y,1/2+z
loop_
_atom_site_type_symbol
_atom_site_label
_atom_site_fract_x
_atom_site_fract_y
_atom_site_fract_z
Si Si1 0.356101 0.431543 0.581619
Si Si2 0.238620 0.757509 0.662047
Si Si3 0.635389 0.334873 0.271385
Si Si4 0.571391 0.921656 0.649606
Si Si5 0.456683 0.404311 0.936560
Si Si6 0.806196 0.507236 0.497246
O O1 0.276666 0.465357 0.640877
O O2 0.400444 0.517949 0.645268
O O3 0.378655 0.624913 0.503697
O O4 0.363754 0.148480 0.541734
O O5 0.302869 0.846319 0.705388
O O6 0.170809 0.930051 0.709445
O O7 0.256431 0.841029 0.569249
O O8 0.583632 0.144524 0.236551
O O9 0.552889 0.642655 0.618915
O O10 0.650297 0.006522 0.596409
O O11 0.526007 0.146748 0.618703
O O12 0.500000 0.500000 0.000000
O O13 0.750000 0.750000 0.500000
#
# Coordination Sequence:
#
# PCOD9270895 Si02
#       6
#     8   8   8   8   8   8
#     4   9  23  38  57  88 129 174 211 266 328 386
#     4  10  20  36  54  86 137 174 198 258 318 400
#     4  10  21  36  58  92 131 177 211 257 331 401
#     4  11  23  40  67  97 123 167 223 275 316 400
#     4  11  24  46  69  91 122 169 224 288 337 369
#     4  11  20  35  55  90 130 172 218 252 313 398
#
# _framework density 29.447337999999998
#
# number of rings (size 3 to 8) (size 9 to 14) (size 15 to 20)
#    1.000    0.667    3.333    1.500    0.000    4.667 
#    0.000    0.833    0.000    2.000    0.000    0.000 
#    0.000    0.000    0.000    0.000    0.000    0.000 
#
# Total GULP energy -133722.249174 kJ/mol
# GULP energy per Si atom -5571.760382 kJ/mol
# Density = 2.938031 g / cm^3
# Si number density = 29.447338 Si / 1000 Ang^3
#
#
#
# Elastic Constant Matrix: (Units=GPa)
#
#
# Indices 1 2 3 4 5 6 
#
# 1 65.3515 -19.0051 10.2786 0.0000 15.2163 0.0000
# 2 -19.0051 95.6025 34.6837 0.0000 -6.9963 0.0000
# 3 10.2786 34.6837 138.3803 0.0000 5.7911 0.0000
# 4 0.0000 0.0000 0.0000 53.7555 0.0000 5.1504
# 5 15.2163 -6.9963 5.7911 0.0000 47.6258 0.0000
# 6 0.0000 0.0000 0.0000 5.1504 0.0000 46.5168
#
#
#
# Elastic Compliance Matrix: (Units=1/GPa)
#
#
# Indices 1 2 3 4 5 6 
#
# 1 0.017930 0.003978 -0.002124 0.000000 -0.004886 0.000000
# 2 0.003978 0.012592 -0.003493 0.000000 0.001004 0.000000
# 3 -0.002124 -0.003493 0.008295 0.000000 -0.000843 0.000000
# 4 0.000000 0.000000 0.000000 0.018802 0.000000 -0.002082
# 5 -0.004886 0.001004 -0.000843 0.000000 0.022808 0.000000
# 6 0.000000 0.000000 0.000000 -0.002082 0.000000 0.021728
#
#
# Mechanical properties :
#
#
# Convention : Reuss Voigt Hill
#
# Bulk Modulus (GPa) = 28.13991 39.02763 33.58377
# Shear Modulus (GPa) = 42.63257 47.80476 45.21866
#
# Velocity S-wave (km/s) = 3.80907 4.03351 3.92290
# Velocity P-wave (km/s) = 5.37793 5.91392 5.65228
#
# Compressibility (1/GPa) = 0.03553672
#
# Stress axis : x y z
#
# Youngs Moduli (GPa) = 55.77132 79.41863 120.55278
#
# Poissons Ratio (x) = -0.31589 0.25609
# Poissons Ratio (y) = -0.22183 0.42114
# Poissons Ratio (z) = 0.11847 0.27744
#
# Static dielectric constant tensor:
#      x y z
#    x 2.958280 0.000000 0.230400 
#    y 0.000000 3.339410 0.000000 
#    z 0.230400 0.000000 2.406320 
# 
# From -- ./inp_files/217537.got.cif
#   From: 2010.05.17/outbox.cif.g08.bks.cpg/sg15_109_cif.got.tgz:217537.got - 2010.06.03 18:47:42.
