data_PCOD9270415
_publ_section_title
;
Structure prediction by ZEFSAII (Michael W. Deem and Ramdas Pophale) SiO2 
 PCOD9270415
Probable space group: C 2/C
;
_chemical_formula_sum "Si O2"
_cell_formula_units_Z 48
_cell_length_a 20.034862
_cell_length_b 18.301695
_cell_length_c 8.406774
_cell_angle_alpha 90.000000
_cell_angle_beta 46.598540
_cell_angle_gamma 90.000000
_cell_volume 2239.632854
_symmetry_space_group_name_H-M "C 2/C"
_symmetry_group_IT_number 15
_symmetry_cell_setting 'monoclinic'
loop_
_space_group_symop_operation_xyz
x,y,z
-x,y,1/2-z
-x,-y,-z
x,-y,1/2+z
1/2+x,1/2+y,z
1/2-x,1/2+y,1/2-z
1/2-x,1/2-y,-z
1/2+x,1/2-y,1/2+z
loop_
_atom_site_type_symbol
_atom_site_label
_atom_site_fract_x
_atom_site_fract_y
_atom_site_fract_z
Si Si1 0.391599 0.098354 0.404359
Si Si2 0.704864 0.004864 0.180559
Si Si3 0.337727 0.482941 0.712017
Si Si4 0.387499 0.731541 0.930141
Si Si5 0.384100 0.654406 0.613262
Si Si6 0.598074 0.341236 0.770876
O O1 0.500000 0.091028 0.250000
O O2 0.360516 0.066350 0.284706
O O3 0.365992 0.182788 0.460359
O O4 0.342720 0.050531 0.621198
O O5 0.800779 0.034100 0.096825
O O6 0.744915 0.964221 0.961994
O O7 0.366981 0.567376 0.661684
O O8 0.408326 0.426930 0.669864
O O9 0.500000 0.723567 0.750000
O O10 0.350028 0.693615 0.830387
O O11 0.357576 0.697623 0.148526
O O12 0.353942 0.669964 0.479269
O O13 0.490956 0.678454 0.433391
#
# Coordination Sequence:
#
# PCOD9270415 Si02
#       6
#     8   8   8   8   8   8
#     4  10  21  43  64  85 110 144 201 259 307 360
#     4  10  22  36  61  84 111 151 192 244 312 351
#     4  11  19  37  55  85 128 155 193 241 281 348
#     4   9  20  38  60  87 119 151 198 255 294 341
#     4  10  20  35  59  90 121 166 202 231 284 343
#     4  10  20  35  58  89 123 164 205 229 278 352
#
# _framework density 21.432082999999999
#
# number of rings (size 3 to 8) (size 9 to 14) (size 15 to 20)
#    0.000    2.000    1.667    2.000    0.000    0.000 
#    6.000    8.333    0.000    0.000    0.000    0.000 
#    0.000    0.000    0.000    0.000    0.000    0.000 
#
# Total GULP energy -133638.506785 kJ/mol
# GULP energy per Si atom -5568.271116 kJ/mol
# Density = 2.138330 g / cm^3
# Si number density = 21.432083 Si / 1000 Ang^3
#
#
#
# Elastic Constant Matrix: (Units=GPa)
#
#
# Indices 1 2 3 4 5 6 
#
# 1 78.2057 42.0266 39.2877 0.0000 32.8010 0.0000
# 2 42.0266 93.4458 45.1683 0.0000 41.5395 0.0000
# 3 39.2877 45.1683 98.8138 0.0000 42.7382 0.0000
# 4 0.0000 0.0000 0.0000 18.6479 0.0000 15.4478
# 5 32.8010 41.5395 42.7382 0.0000 46.9380 0.0000
# 6 0.0000 0.0000 0.0000 15.4478 0.0000 5.8104
#
#
#
# Elastic Compliance Matrix: (Units=1/GPa)
#
#
# Indices 1 2 3 4 5 6 
#
# 1 0.019498 -0.004139 -0.002559 0.000000 -0.007632 0.000000
# 2 -0.004139 0.018805 -0.001655 0.000000 -0.012243 0.000000
# 3 -0.002559 -0.001655 0.017300 0.000000 -0.012499 0.000000
# 4 0.000000 0.000000 0.000000 -0.044598 0.000000 0.118570
# 5 -0.007632 -0.012243 -0.012499 0.000000 0.048853 0.000000
# 6 0.000000 0.000000 0.000000 0.118570 0.000000 -0.143133
#
#
# Mechanical properties :
#
#
# Convention : Reuss Voigt Hill
#
# Bulk Modulus (GPa) = 25.70959 58.15895 41.93427
# Shear Modulus (GPa) = -93.28119 23.87810 -34.70155
#
# Velocity S-wave (km/s) = -6.60444 3.34148 -4.02822
# Velocity P-wave (km/s) = 6.79236 6.48711 1.42366
#
# Compressibility (1/GPa) = 0.03889599
#
# Stress axis : x y z
#
# Youngs Moduli (GPa) = 51.28772 53.17629 57.80316
#
# Poissons Ratio (x) = 0.22012 0.14793
# Poissons Ratio (y) = 0.21230 0.09567
# Poissons Ratio (z) = 0.13126 0.08801
#
# Static dielectric constant tensor:
#      x y z
#    x 1.873730 0.000000 0.023490 
#    y 0.000000 1.769940 0.000000 
#    z 0.023490 0.000000 1.829800 
# 
# From -- ./inp_files/48066.got.cif
#   From: 2010.05.17/outbox.cif.g08.bks.cpg/sg15_25_cif.got.tgz:48066.got - 2010.06.03 18:47:42.
