data_PCOD9270006
_publ_section_title
;
Structure prediction by ZEFSAII (Michael W. Deem and Ramdas Pophale) SiO2 
 PCOD9270006
Probable space group: C 2/C
;
_chemical_formula_sum "Si O2"
_cell_formula_units_Z 40
_cell_length_a 14.661386
_cell_length_b 16.192456
_cell_length_c 18.292599
_cell_angle_alpha 90.000000
_cell_angle_beta 25.735263
_cell_angle_gamma 90.000000
_cell_volume 1885.673790
_symmetry_space_group_name_H-M "C 2/C"
_symmetry_group_IT_number 15
_symmetry_cell_setting 'monoclinic'
loop_
_space_group_symop_operation_xyz
x,y,z
-x,y,1/2-z
-x,-y,-z
x,-y,1/2+z
1/2+x,1/2+y,z
1/2-x,1/2+y,1/2-z
1/2-x,1/2-y,-z
1/2+x,1/2-y,1/2+z
loop_
_atom_site_type_symbol
_atom_site_label
_atom_site_fract_x
_atom_site_fract_y
_atom_site_fract_z
Si Si1 0.691503 0.343945 0.557791
Si Si2 0.555831 0.213528 0.405714
Si Si3 0.214144 0.651512 0.140369
Si Si4 0.629338 0.143616 0.816188
Si Si5 0.735353 0.034527 0.616808
O O1 0.500000 0.349854 0.750000
O O2 0.750000 0.250000 0.500000
O O3 0.648746 0.398191 0.517008
O O4 0.901372 0.371598 0.446812
O O5 0.387723 0.280060 0.496971
O O6 0.652001 0.161094 0.270480
O O7 0.427506 0.160334 0.558109
O O8 0.745116 0.272726 0.299216
O O9 0.300341 0.560080 0.063483
O O10 0.000000 0.663968 0.250000
O O11 0.746934 0.067731 0.691700
O O12 0.500000 0.034989 0.750000
#
# Coordination Sequence:
#
# PCOD9270006 Si02
#       5
#     8   8   8   8   8
#     4  11  20  34  59  84 114 153 184 220 269 332
#     4  10  21  36  59  81 110 150 183 235 283 328
#     4  10  21  40  59  80 108 146 194 232 279 333
#     4  10  20  35  53  85 115 142 187 225 279 332
#     4   9  20  37  57  82 115 149 184 230 271 330
#
# _framework density 21.212577
#
# number of rings (size 3 to 8) (size 9 to 14) (size 15 to 20)
#    0.000    2.000    0.000    4.800    0.000    3.200 
#    0.000   13.000    0.000    0.000    0.000    0.000 
#    0.000    0.000    0.000    0.000    0.000    0.000 
#
# Total GULP energy -111493.758522 kJ/mol
# GULP energy per Si atom -5574.687926 kJ/mol
# Density = 2.116430 g / cm^3
# Si number density = 21.212577 Si / 1000 Ang^3
#
#
#
# Elastic Constant Matrix: (Units=GPa)
#
#
# Indices 1 2 3 4 5 6 
#
# 1 55.5056 24.9441 20.8121 0.0001 -6.1981 -0.0047
# 2 24.9441 91.2285 19.0944 -0.0295 13.2182 0.0046
# 3 20.8121 19.0944 79.4207 -0.0337 -7.2447 -0.0072
# 4 0.0001 -0.0295 -0.0337 19.9292 0.0135 5.3316
# 5 -6.1981 13.2182 -7.2447 0.0135 28.1687 0.0017
# 6 -0.0047 0.0046 -0.0072 5.3316 0.0017 20.9871
#
#
#
# Elastic Compliance Matrix: (Units=1/GPa)
#
#
# Indices 1 2 3 4 5 6 
#
# 1 0.023225 -0.006591 -0.003843 -0.000024 0.007215 0.000011
# 2 -0.006591 0.014609 -0.002604 0.000026 -0.008975 -0.000012
# 3 -0.003843 -0.002604 0.014601 0.000018 0.004131 0.000000
# 4 -0.000024 0.000026 0.000018 0.053837 -0.000038 -0.013677
# 5 0.007215 -0.008975 0.004131 -0.000038 0.042362 0.000011
# 6 0.000011 -0.000012 0.000000 -0.013677 0.000011 0.051123
#
#
# Mechanical properties :
#
#
# Convention : Reuss Voigt Hill
#
# Bulk Modulus (GPa) = 37.93824 39.53955 38.73889
# Shear Modulus (GPa) = 21.31106 24.57061 22.94084
#
# Velocity S-wave (km/s) = 3.17305 3.40708 3.29214
# Velocity P-wave (km/s) = 5.59892 5.84446 5.72301
#
# Compressibility (1/GPa) = 0.02635863
#
# Stress axis : x y z
#
# Youngs Moduli (GPa) = 43.05699 68.45030 68.48752
#
# Poissons Ratio (x) = 0.45117 0.26322
# Poissons Ratio (y) = 0.28380 0.17833
# Poissons Ratio (z) = 0.16548 0.17823
#
# Static dielectric constant tensor:
#      x y z
#    x 1.786920 0.000000 -0.020920 
#    y 0.000000 1.817570 0.000000 
#    z -0.020920 0.000000 1.804840 
# 
# From -- ./inp_files/38647.got.cif
#   From: 2010.05.17/outbox.cif.g08.bks.cpg/sg15_20_cif.got.tgz:38647.got - 2010.06.03 18:47:42.
