data_PCOD9270942
_publ_section_title
;
Structure prediction by ZEFSAII (Michael W. Deem and Ramdas Pophale) SiO2 
 PCOD9270942
Probable space group: C 2/C
;
_chemical_formula_sum "Si O2"
_cell_formula_units_Z 52
_cell_length_a 15.675609
_cell_length_b 25.250896
_cell_length_c 8.474708
_cell_angle_alpha 90.000000
_cell_angle_beta 47.021916
_cell_angle_gamma 90.000000
_cell_volume 2454.190513
_symmetry_space_group_name_H-M "C 2/C"
_symmetry_group_IT_number 15
_symmetry_cell_setting 'monoclinic'
loop_
_space_group_symop_operation_xyz
x,y,z
-x,y,1/2-z
-x,-y,-z
x,-y,1/2+z
1/2+x,1/2+y,z
1/2-x,1/2+y,1/2-z
1/2-x,1/2-y,-z
1/2+x,1/2-y,1/2+z
loop_
_atom_site_type_symbol
_atom_site_label
_atom_site_fract_x
_atom_site_fract_y
_atom_site_fract_z
Si Si1 0.500000 0.214375 0.250000
Si Si2 0.699179 0.045203 0.965129
Si Si3 0.330464 0.746014 0.718255
Si Si4 0.000000 0.468105 0.250000
Si Si5 0.724503 0.335191 0.634397
Si Si6 0.837106 0.653555 0.665361
Si Si7 0.215279 0.440383 0.785065
Si Si8 0.000000 0.210139 0.250000
O O1 0.609570 0.245390 0.187353
O O2 0.454843 0.176857 0.446084
O O3 0.670063 0.092733 0.882554
O O4 0.756107 0.998435 0.791576
O O5 0.749226 0.069569 0.060935
O O6 0.597303 0.010243 0.182848
O O7 0.254489 0.793045 0.734058
O O8 0.264357 0.689877 0.785791
O O9 0.438434 0.743117 0.462475
O O10 0.922923 0.437704 0.479129
O O11 0.819352 0.335844 0.372616
O O12 0.723391 0.394134 0.698299
O O13 0.602493 0.321685 0.706552
#
# Coordination Sequence:
#
# PCOD9270942 Si02
#       8
#     4   8   8   4   8   8   8   4
#     4  12  23  36  58  90 130 162 202 257 308 386
#     4  10  20  36  55  87 126 156 201 249 312 367
#     4  11  23  41  62  90 123 165 213 257 314 368
#     4   8  21  33  56  88 124 162 197 251 314 382
#     4  11  23  41  64  90 120 168 210 260 314 366
#     4  11  23  37  60  88 126 168 207 255 311 372
#     4  10  21  35  59  85 123 160 200 255 311 372
#     4  10  22  43  64  82 120 160 217 262 308 370
#
# _framework density 21.188248000000002
#
# number of rings (size 3 to 8) (size 9 to 14) (size 15 to 20)
#    0.923    0.615    0.000    6.923    0.000    4.308 
#    0.000    0.000    0.000    9.231    0.000    0.000 
#    0.000    0.000    0.000    0.000    0.000    0.000 
#
# Total GULP energy -144740.588765 kJ/mol
# GULP energy per Si atom -5566.945722 kJ/mol
# Density = 2.114002 g / cm^3
# Si number density = 21.188248 Si / 1000 Ang^3
#
#
#
# Elastic Constant Matrix: (Units=GPa)
#
#
# Indices 1 2 3 4 5 6 
#
# 1 82.0876 43.9765 14.3633 0.0000 17.8778 0.0000
# 2 43.9765 119.0396 11.3101 0.0000 3.2306 0.0000
# 3 14.3633 11.3101 64.7652 0.0000 13.8609 0.0000
# 4 0.0000 0.0000 0.0000 8.6540 0.0000 7.0708
# 5 17.8778 3.2306 13.8609 0.0000 24.0787 0.0000
# 6 0.0000 0.0000 0.0000 7.0708 0.0000 9.5891
#
#
#
# Elastic Compliance Matrix: (Units=1/GPa)
#
#
# Indices 1 2 3 4 5 6 
#
# 1 0.018441 -0.006445 -0.000250 0.000000 -0.012683 0.000000
# 2 -0.006445 0.010797 -0.001335 0.000000 0.004105 0.000000
# 3 -0.000250 -0.001335 0.017850 0.000000 -0.009911 0.000000
# 4 0.000000 0.000000 0.000000 0.290682 0.000000 -0.214342
# 5 -0.012683 0.004105 -0.009911 0.000000 0.056102 0.000000
# 6 0.000000 0.000000 0.000000 -0.214342 0.000000 0.262336
#
#
# Mechanical properties :
#
#
# Convention : Reuss Voigt Hill
#
# Bulk Modulus (GPa) = 32.22758 45.02135 38.62447
# Shear Modulus (GPa) = 7.32483 21.54718 14.43601
#
# Velocity S-wave (km/s) = 1.86133 3.19241 2.61305
# Velocity P-wave (km/s) = 4.45674 5.90619 5.23190
#
# Compressibility (1/GPa) = 0.03102932
#
# Stress axis : x y z
#
# Youngs Moduli (GPa) = 54.22812 92.62030 56.02252
#
# Poissons Ratio (x) = 0.59689 0.01399
# Poissons Ratio (y) = 0.34947 0.07477
# Poissons Ratio (z) = 0.01355 0.12362
#
# Static dielectric constant tensor:
#      x y z
#    x 1.955720 0.000000 -0.007400 
#    y 0.000000 1.768160 0.000000 
#    z -0.007400 0.000000 1.829440 
# 
# From -- ./inp_files/43433.got.cif
#   From: 2010.05.17/outbox.cif.g08.bks.cpg/sg15_22_cif.got.tgz:43433.got - 2010.06.03 18:47:42.
