data_PCOD9270850
_publ_section_title
;
Structure prediction by ZEFSAII (Michael W. Deem and Ramdas Pophale) SiO2 
 PCOD9270850
Probable space group: C 2/C
;
_chemical_formula_sum "Si O2"
_cell_formula_units_Z 52
_cell_length_a 10.026557
_cell_length_b 27.788189
_cell_length_c 8.860829
_cell_angle_alpha 90.000000
_cell_angle_beta 84.958779
_cell_angle_gamma 90.000000
_cell_volume 2459.252964
_symmetry_space_group_name_H-M "C 2/C"
_symmetry_group_IT_number 15
_symmetry_cell_setting 'monoclinic'
loop_
_space_group_symop_operation_xyz
x,y,z
-x,y,1/2-z
-x,-y,-z
x,-y,1/2+z
1/2+x,1/2+y,z
1/2-x,1/2+y,1/2-z
1/2-x,1/2-y,-z
1/2+x,1/2-y,1/2+z
loop_
_atom_site_type_symbol
_atom_site_label
_atom_site_fract_x
_atom_site_fract_y
_atom_site_fract_z
Si Si1 0.859172 0.139223 0.284097
Si Si2 0.000000 0.043186 0.750000
Si Si3 0.151554 0.485605 0.957940
Si Si4 0.854938 0.701619 0.829581
Si Si5 0.182994 0.038419 0.350612
Si Si6 0.354584 0.782357 0.689421
Si Si7 0.774544 0.102601 0.621023
O O1 0.866565 0.091507 0.180432
O O2 0.732828 0.171433 0.251643
O O3 0.843740 0.123143 0.460343
O O4 0.000000 0.166079 0.250000
O O5 0.118892 0.081703 0.771896
O O6 0.066150 0.001218 0.851075
O O7 0.247047 0.529614 0.997649
O O8 0.186068 0.441387 0.065577
O O9 0.202141 0.471341 0.787158
O O10 0.000000 0.500000 0.000000
O O11 0.738163 0.735705 0.776130
O O12 0.812854 0.646329 0.808332
O O13 0.000000 0.711688 0.750000
O O14 0.865377 0.711365 0.007799
O O15 0.500000 0.779826 0.750000
#
# Coordination Sequence:
#
# PCOD9270850 Si02
#       7
#     8   4   8   8   8   8   8
#     4  10  20  37  59  85 116 158 197 245 301 357
#     4  10  20  36  52  88 120 148 206 246 288 350
#     4  10  21  36  53  81 117 154 195 242 294 349
#     4  10  22  43  65  88 123 161 198 248 305 361
#     4  10  21  33  58  79 113 158 193 243 292 352
#     4  10  23  42  63  92 124 151 201 258 301 359
#     4   9  22  36  57  84 120 155 197 249 288 356
#
# _framework density 21.144631
#
# number of rings (size 3 to 8) (size 9 to 14) (size 15 to 20)
#    0.000    2.154    0.769    0.923    3.231    8.615 
#    2.769    0.000    0.000    0.000    0.000    0.000 
#    0.000    0.000    0.000    0.000    0.000    0.000 
#
# Total GULP energy -144929.638110 kJ/mol
# GULP energy per Si atom -5574.216850 kJ/mol
# Density = 2.109651 g / cm^3
# Si number density = 21.144631 Si / 1000 Ang^3
#
#
#
# Elastic Constant Matrix: (Units=GPa)
#
#
# Indices 1 2 3 4 5 6 
#
# 1 188.2475 72.1500 45.4081 0.0000 16.2712 0.0000
# 2 72.1500 117.9570 32.1565 0.0000 2.6812 0.0000
# 3 45.4081 32.1565 22.1022 0.0000 7.5183 0.0000
# 4 0.0000 0.0000 0.0000 14.7810 0.0000 3.2862
# 5 16.2712 2.6812 7.5183 0.0000 25.8690 0.0000
# 6 0.0000 0.0000 0.0000 3.2862 0.0000 27.9535
#
#
#
# Elastic Compliance Matrix: (Units=1/GPa)
#
#
# Indices 1 2 3 4 5 6 
#
# 1 0.010601 -0.000991 -0.020090 0.000000 -0.000726 0.000000
# 2 -0.000991 0.014745 -0.021206 0.000000 0.005258 0.000000
# 3 -0.020090 -0.021206 0.124648 0.000000 -0.021392 0.000000
# 4 0.000000 0.000000 0.000000 0.069470 0.000000 -0.008167
# 5 -0.000726 0.005258 -0.021392 0.000000 0.044785 0.000000
# 6 0.000000 0.000000 0.000000 -0.008167 0.000000 0.036734
#
#
# Mechanical properties :
#
#
# Convention : Reuss Voigt Hill
#
# Bulk Modulus (GPa) = 15.28578 69.74843 42.51710
# Shear Modulus (GPa) = 12.27404 25.62685 18.95045
#
# Velocity S-wave (km/s) = 2.41193 3.48513 2.99696
# Velocity P-wave (km/s) = 3.87316 7.01803 5.66808
#
# Compressibility (1/GPa) = 0.06542029
#
# Stress axis : x y z
#
# Youngs Moduli (GPa) = 94.33299 67.81937 8.02258
#
# Poissons Ratio (x) = 0.06719 0.16118
# Poissons Ratio (y) = 0.09345 0.17012
# Poissons Ratio (z) = 1.89519 1.43816
#
# Static dielectric constant tensor:
#      x y z
#    x 1.835870 0.000000 -0.088140 
#    y 0.000000 1.780490 0.000000 
#    z -0.088140 0.000000 1.845800 
# 
# From -- ./inp_files/80749.got.cif
#   From: 2010.05.17/outbox.cif.g08.bks.cpg/sg15_41_cif.got.tgz:80749.got - 2010.06.03 18:47:42.
