data_PCOD9270114
_publ_section_title
;
Structure prediction by ZEFSAII (Michael W. Deem and Ramdas Pophale) SiO2 
 PCOD9270114
Probable space group: C 2/C
;
_chemical_formula_sum "Si O2"
_cell_formula_units_Z 32
_cell_length_a 18.453910
_cell_length_b 11.621055
_cell_length_c 7.967114
_cell_angle_alpha 90.000000
_cell_angle_beta 64.821352
_cell_angle_gamma 90.000000
_cell_volume 1546.239220
_symmetry_space_group_name_H-M "C 2/C"
_symmetry_group_IT_number 15
_symmetry_cell_setting 'monoclinic'
loop_
_space_group_symop_operation_xyz
x,y,z
-x,y,1/2-z
-x,-y,-z
x,-y,1/2+z
1/2+x,1/2+y,z
1/2-x,1/2+y,1/2-z
1/2-x,1/2-y,-z
1/2+x,1/2-y,1/2+z
loop_
_atom_site_type_symbol
_atom_site_label
_atom_site_fract_x
_atom_site_fract_y
_atom_site_fract_z
Si Si1 0.871628 0.664663 0.820148
Si Si2 0.800112 0.105510 0.402391
Si Si3 0.248079 0.377889 0.570312
Si Si4 0.418447 0.052880 0.423672
O O1 0.871165 0.801877 0.851662
O O2 0.908757 0.617188 0.610197
O O3 0.910351 0.586973 0.929110
O O4 0.775533 0.639570 0.905253
O O5 0.767430 0.118893 0.246549
O O6 0.809439 0.969858 0.426690
O O7 0.250000 0.250000 0.500000
O O8 0.158747 0.416655 0.611363
O O9 0.500000 0.083567 0.250000
#
# Coordination Sequence:
#
# PCOD9270114 Si02
#       4
#     8   8   8   8
#     4  10  20  35  55  85 120 152 191 241 295 339
#     4  10  21  35  56  87 115 149 201 241 285 346
#     4  11  21  37  59  87 117 153 197 245 294 340
#     4  11  21  36  58  88 122 152 194 245 299 349
#
# _framework density 20.695374999999999
#
# number of rings (size 3 to 8) (size 9 to 14) (size 15 to 20)
#    0.000    1.500    2.500    6.750    3.500    0.000 
#    0.000    0.000    0.000    3.000    0.000    0.000 
#    0.000    0.000    0.000    0.000    0.000    0.000 
#
# Total GULP energy -89227.034104 kJ/mol
# GULP energy per Si atom -5576.689632 kJ/mol
# Density = 2.064827 g / cm^3
# Si number density = 20.695375 Si / 1000 Ang^3
#
#
#
# Elastic Constant Matrix: (Units=GPa)
#
#
# Indices 1 2 3 4 5 6 
#
# 1 46.4535 27.6772 23.5308 0.0000 -4.2204 0.0000
# 2 27.6772 189.4463 73.5382 0.0000 -5.8893 0.0000
# 3 23.5308 73.5382 130.5012 0.0000 -0.5773 0.0000
# 4 0.0000 0.0000 0.0000 28.1492 0.0000 10.3037
# 5 -4.2204 -5.8893 -0.5773 0.0000 21.0821 0.0000
# 6 0.0000 0.0000 0.0000 10.3037 0.0000 18.2205
#
#
#
# Elastic Compliance Matrix: (Units=1/GPa)
#
#
# Indices 1 2 3 4 5 6 
#
# 1 0.024879 -0.002263 -0.003192 0.000000 0.004261 0.000000
# 2 -0.002263 0.007030 -0.003547 0.000000 0.001414 0.000000
# 3 -0.003192 -0.003547 0.010231 0.000000 -0.001350 0.000000
# 4 0.000000 0.000000 0.000000 0.044798 0.000000 -0.025333
# 5 0.004261 0.001414 -0.001350 0.000000 0.048645 0.000000
# 6 0.000000 0.000000 0.000000 -0.025333 0.000000 0.069209
#
#
# Mechanical properties :
#
#
# Convention : Reuss Voigt Hill
#
# Bulk Modulus (GPa) = 41.43177 68.43259 54.93218
# Shear Modulus (GPa) = 21.65983 29.60067 25.63025
#
# Velocity S-wave (km/s) = 3.23863 3.78604 3.52298
# Velocity P-wave (km/s) = 5.83509 7.22845 6.56882
#
# Compressibility (1/GPa) = 0.02413607
#
# Stress axis : x y z
#
# Youngs Moduli (GPa) = 40.19403 142.24660 97.74088
#
# Poissons Ratio (x) = 0.32195 0.31197
# Poissons Ratio (y) = 0.09097 0.34670
# Poissons Ratio (z) = 0.12829 0.50457
#
# Static dielectric constant tensor:
#      x y z
#    x 1.736290 0.000000 -0.003730 
#    y 0.000000 1.946000 0.000000 
#    z -0.003730 0.000000 1.784250 
# 
# From -- ./inp_files/45636.got.cif
#   From: 2010.05.17/outbox.cif.g08.bks.cpg/sg15_23_cif.got.tgz:45636.got - 2010.06.03 18:47:42.
