data_PCOD9270550
_publ_section_title
;
Structure prediction by ZEFSAII (Michael W. Deem and Ramdas Pophale) SiO2 
 PCOD9270550
Probable space group: C 2/C
;
_chemical_formula_sum "Si O2"
_cell_formula_units_Z 60
_cell_length_a 18.211606
_cell_length_b 18.465854
_cell_length_c 10.524494
_cell_angle_alpha 90.000000
_cell_angle_beta 56.052759
_cell_angle_gamma 90.000000
_cell_volume 2936.043963
_symmetry_space_group_name_H-M "C 2/C"
_symmetry_group_IT_number 15
_symmetry_cell_setting 'monoclinic'
loop_
_space_group_symop_operation_xyz
x,y,z
-x,y,1/2-z
-x,-y,-z
x,-y,1/2+z
1/2+x,1/2+y,z
1/2-x,1/2+y,1/2-z
1/2-x,1/2-y,-z
1/2+x,1/2-y,1/2+z
loop_
_atom_site_type_symbol
_atom_site_label
_atom_site_fract_x
_atom_site_fract_y
_atom_site_fract_z
Si Si1 0.626930 0.358950 0.954985
Si Si2 0.680680 0.540428 0.175620
Si Si3 0.936443 0.138243 0.550185
Si Si4 0.270927 0.610537 0.886259
Si Si5 0.548118 0.200839 0.565465
Si Si6 0.628276 0.191365 0.884788
Si Si7 0.500000 0.542697 0.250000
Si Si8 0.216359 0.667562 0.535677
O O1 0.661976 0.423131 0.829598
O O2 0.638794 0.278910 0.880829
O O3 0.520354 0.366391 0.065085
O O4 0.680944 0.363817 0.032134
O O5 0.749015 0.475207 0.098246
O O6 0.588751 0.505820 0.213746
O O7 0.709562 0.608422 0.062561
O O8 0.843887 0.120524 0.704469
O O9 0.928862 0.218975 0.502982
O O10 0.967241 0.089364 0.402083
O O11 0.182860 0.656543 0.946107
O O12 0.500000 0.206352 0.750000
O O13 0.475444 0.173822 0.534547
O O14 0.639114 0.159259 0.504359
O O15 0.673673 0.160051 0.714615
O O16 0.250000 0.750000 0.500000
#
# Coordination Sequence:
#
# PCOD9270550 Si02
#       8
#     8   8   8   8   8   8   4   8
#     4  10  23  40  55  86 124 159 204 245 291 362
#     4  11  25  36  59  89 120 159 201 253 295 369
#     4  10  20  35  60  87 116 162 196 245 298 358
#     4  12  25  37  58  85 127 164 197 237 313 369
#     4   9  18  35  63  93 114 141 202 265 293 339
#     4  10  21  39  62  86 117 156 202 255 300 345
#     4  10  20  36  56  82 126 148 198 244 296 350
#     4  11  19  37  65  91 111 152 204 254 300 346
#
# _framework density 20.435662000000001
#
# number of rings (size 3 to 8) (size 9 to 14) (size 15 to 20)
#    0.000    1.600    2.000    3.200    5.600    1.067 
#    0.000    0.667    0.000    0.000    0.000    0.000 
#    0.000    0.000    0.000    0.000    0.000    0.000 
#
# Total GULP energy -167478.929374 kJ/mol
# GULP energy per Si atom -5582.630979 kJ/mol
# Density = 2.038915 g / cm^3
# Si number density = 20.435662 Si / 1000 Ang^3
#
#
#
# Elastic Constant Matrix: (Units=GPa)
#
#
# Indices 1 2 3 4 5 6 
#
# 1 157.6519 28.2435 9.6163 0.0000 9.2981 0.0000
# 2 28.2435 62.5078 -3.6121 0.0000 -8.3721 0.0000
# 3 9.6163 -3.6121 34.6565 0.0000 1.9582 0.0000
# 4 0.0000 0.0000 0.0000 29.5818 0.0000 26.1702
# 5 9.2981 -8.3721 1.9582 0.0000 21.7848 0.0000
# 6 0.0000 0.0000 0.0000 26.1702 0.0000 84.4473
#
#
#
# Elastic Compliance Matrix: (Units=1/GPa)
#
#
# Indices 1 2 3 4 5 6 
#
# 1 0.007490 -0.004128 -0.002250 0.000000 -0.004581 0.000000
# 2 -0.004128 0.019209 0.002644 0.000000 0.008906 0.000000
# 3 -0.002250 0.002644 0.029794 0.000000 -0.000702 0.000000
# 4 0.000000 0.000000 0.000000 0.046573 0.000000 -0.014433
# 5 -0.004581 0.008906 -0.000702 0.000000 0.051345 0.000000
# 6 0.000000 0.000000 0.000000 -0.014433 0.000000 0.016314
#
#
# Mechanical properties :
#
#
# Convention : Reuss Voigt Hill
#
# Bulk Modulus (GPa) = 20.39724 35.92351 28.16038
# Shear Modulus (GPa) = 25.70246 41.86734 33.78490
#
# Velocity S-wave (km/s) = 3.55029 4.53121 4.07041
# Velocity P-wave (km/s) = 5.17774 6.70767 5.99173
#
# Compressibility (1/GPa) = 0.04902624
#
# Stress axis : x y z
#
# Youngs Moduli (GPa) = 133.51130 52.05948 33.56369
#
# Poissons Ratio (x) = 0.21489 0.07551
# Poissons Ratio (y) = 0.55111 -0.08875
# Poissons Ratio (z) = 0.30036 -0.13765
#
# Static dielectric constant tensor:
#      x y z
#    x 1.807010 0.000000 0.102850 
#    y 0.000000 1.702710 0.000000 
#    z 0.102850 0.000000 2.373510 
# 
# From -- ./inp_files/106676.got.cif
#   From: 2010.05.17/outbox.cif.g08.bks.cpg/sg15_54_cif.got.tgz:106676.got - 2010.06.03 18:47:42.
