data_PCOD9270797
_publ_section_title
;
Structure prediction by ZEFSAII (Michael W. Deem and Ramdas Pophale) SiO2 
 PCOD9270797
Probable space group: C 2/C
;
_chemical_formula_sum "Si O2"
_cell_formula_units_Z 36
_cell_length_a 7.734168
_cell_length_b 13.663700
_cell_length_c 14.059820
_cell_angle_alpha 90.000000
_cell_angle_beta 105.035345
_cell_angle_gamma 90.000000
_cell_volume 1434.939476
_symmetry_space_group_name_H-M "C 2/C"
_symmetry_group_IT_number 15
_symmetry_cell_setting 'monoclinic'
loop_
_space_group_symop_operation_xyz
x,y,z
-x,y,1/2-z
-x,-y,-z
x,-y,1/2+z
1/2+x,1/2+y,z
1/2-x,1/2+y,1/2-z
1/2-x,1/2-y,-z
1/2+x,1/2-y,1/2+z
loop_
_atom_site_type_symbol
_atom_site_label
_atom_site_fract_x
_atom_site_fract_y
_atom_site_fract_z
Si Si1 0.246810 0.493569 0.213125
Si Si2 0.991711 0.268597 0.047154
Si Si3 0.500000 0.331977 0.750000
Si Si4 0.844385 0.543028 0.592605
Si Si5 0.853789 0.117865 0.557397
O O1 0.326149 0.600356 0.242546
O O2 0.220497 0.437947 0.309054
O O3 0.379714 0.444920 0.155576
O O4 0.048947 0.495342 0.136955
O O5 0.191417 0.311788 0.065404
O O6 0.971292 0.228106 0.150149
O O7 0.863505 0.362996 0.026402
O O8 0.993100 0.184062 0.967748
O O9 0.720252 0.459375 0.530435
#
# Coordination Sequence:
#
# PCOD9270797 Si02
#       5
#     8   8   4   8   8
#     4  10  21  36  64  86 130 163 208 259 328 378
#     4  10  20  35  66  86 125 156 219 255 317 380
#     4  12  22  38  58  98 124 170 202 270 322 376
#     4  10  20  43  66  88 120 177 210 261 329 375
#     4  10  20  40  66  92 116 173 217 262 321 378
#
# _framework density 25.088166000000001
#
# number of rings (size 3 to 8) (size 9 to 14) (size 15 to 20)
#    0.000    1.778    2.222    5.333    0.000    0.889 
#    0.000    4.444   48.889    0.000    0.000    0.000 
#    0.000    0.000    0.000    0.000    0.000    0.000 
#
# Total GULP energy -100765.050626 kJ/mol
# GULP energy per Si atom -5598.058368 kJ/mol
# Density = 2.503106 g / cm^3
# Si number density = 25.088166 Si / 1000 Ang^3
#
#
#
# Elastic Constant Matrix: (Units=GPa)
#
#
# Indices 1 2 3 4 5 6 
#
# 1 124.7183 24.5774 15.9614 0.0000 -10.0600 0.0000
# 2 24.5774 107.4580 47.6010 0.0000 -9.4025 0.0000
# 3 15.9614 47.6010 144.3497 0.0000 -20.6602 0.0000
# 4 0.0000 0.0000 0.0000 48.5026 0.0000 -27.4625
# 5 -10.0600 -9.4025 -20.6602 0.0000 41.8011 0.0000
# 6 0.0000 0.0000 0.0000 -27.4625 0.0000 -3.2609
#
#
#
# Elastic Compliance Matrix: (Units=1/GPa)
#
#
# Indices 1 2 3 4 5 6 
#
# 1 0.008508 -0.001746 -0.000138 0.000000 0.001587 0.000000
# 2 -0.001746 0.011277 -0.003468 0.000000 0.000402 0.000000
# 3 -0.000138 -0.003468 0.008577 0.000000 0.003426 0.000000
# 4 0.000000 0.000000 0.000000 0.003574 0.000000 -0.030101
# 5 0.001587 0.000402 0.003426 0.000000 0.026088 0.000000
# 6 0.000000 0.000000 0.000000 -0.030101 0.000000 -0.053162
#
#
# Mechanical properties :
#
#
# Convention : Reuss Voigt Hill
#
# Bulk Modulus (GPa) = 56.63288 61.42285 59.02787
# Shear Modulus (GPa) = 233.08666 36.63430 134.86048
#
# Velocity S-wave (km/s) = 9.64929 3.82543 7.33971
# Velocity P-wave (km/s) = 12.11476 6.63685 9.76768
#
# Compressibility (1/GPa) = 0.01765759
#
# Stress axis : x y z
#
# Youngs Moduli (GPa) = 117.53972 88.67833 116.59343
#
# Poissons Ratio (x) = 0.15483 0.01608
# Poissons Ratio (y) = 0.20522 0.40435
# Poissons Ratio (z) = 0.01621 0.30754
#
# Static dielectric constant tensor:
#      x y z
#    x 2.030130 0.000000 0.008480 
#    y 0.000000 2.041980 0.000000 
#    z 0.008480 0.000000 1.936040 
# 
# From -- ./inp_files/132781.got.cif
#   From: 2010.05.17/outbox.cif.g08.bks.cpg/sg15_67_cif.got.tgz:132781.got - 2010.06.03 18:47:42.
