data_PCOD9270406
_publ_section_title
;
Structure prediction by ZEFSAII (Michael W. Deem and Ramdas Pophale) SiO2 
 PCOD9270406
Probable space group: C 2/C
;
_chemical_formula_sum "Si O2"
_cell_formula_units_Z 48
_cell_length_a 18.047137
_cell_length_b 9.572770
_cell_length_c 10.936071
_cell_angle_alpha 90.000000
_cell_angle_beta 86.825134
_cell_angle_gamma 90.000000
_cell_volume 1886.427740
_symmetry_space_group_name_H-M "C 2/C"
_symmetry_group_IT_number 15
_symmetry_cell_setting 'monoclinic'
loop_
_space_group_symop_operation_xyz
x,y,z
-x,y,1/2-z
-x,-y,-z
x,-y,1/2+z
1/2+x,1/2+y,z
1/2-x,1/2+y,1/2-z
1/2-x,1/2-y,-z
1/2+x,1/2-y,1/2+z
loop_
_atom_site_type_symbol
_atom_site_label
_atom_site_fract_x
_atom_site_fract_y
_atom_site_fract_z
Si Si1 0.332937 0.119598 0.950406
Si Si2 0.689037 0.702195 0.653636
Si Si3 0.510366 0.850230 0.059473
Si Si4 0.152236 0.644811 0.904472
Si Si5 0.438541 0.641413 0.657682
Si Si6 0.320497 0.444928 0.016572
O O1 0.257619 0.053029 0.903615
O O2 0.412292 0.121011 0.876857
O O3 0.323639 0.283805 0.976040
O O4 0.341775 0.022921 0.072469
O O5 0.777329 0.711091 0.672559
O O6 0.665904 0.798064 0.541551
O O7 0.628293 0.718435 0.763707
O O8 0.680762 0.546681 0.597706
O O9 0.525974 0.738832 0.949835
O O10 0.431066 0.815344 0.124130
O O11 0.500000 0.000000 0.000000
O O12 0.500000 0.597749 0.750000
O O13 0.392532 0.522817 0.590682
#
# Coordination Sequence:
#
# PCOD9270406 Si02
#       6
#     8   8   8   8   8   8
#     4   8  16  34  57  82 113 154 193 235 311 356
#     4  10  20  35  58  88 123 160 205 249 301 366
#     4   9  17  34  62  87 113 157 203 255 311 365
#     4   9  17  34  57  87 116 155 195 251 310 351
#     4  11  21  36  59  93 117 163 215 247 298 378
#     4   9  19  36  57  86 119 166 196 247 307 356
#
# _framework density 25.444921000000001
#
# number of rings (size 3 to 8) (size 9 to 14) (size 15 to 20)
#    0.000    2.667    1.667    0.000    0.000    0.667 
#    0.000   30.000    0.000    0.000    0.000    0.000 
#    0.000    0.000    0.000    0.000    0.000    0.000 
#
# Total GULP energy -133792.879131 kJ/mol
# GULP energy per Si atom -5574.703297 kJ/mol
# Density = 2.538701 g / cm^3
# Si number density = 25.444921 Si / 1000 Ang^3
#
#
#
# Elastic Constant Matrix: (Units=GPa)
#
#
# Indices 1 2 3 4 5 6 
#
# 1 246.0280 21.1582 37.9159 0.0000 -9.3540 0.0000
# 2 21.1582 88.8143 3.7199 0.0000 -0.4954 0.0000
# 3 37.9159 3.7199 92.0874 0.0000 -20.7967 0.0000
# 4 0.0000 0.0000 0.0000 18.8241 0.0000 4.8730
# 5 -9.3540 -0.4954 -20.7967 0.0000 17.9453 0.0000
# 6 0.0000 0.0000 0.0000 4.8730 0.0000 27.8435
#
#
#
# Elastic Compliance Matrix: (Units=1/GPa)
#
#
# Indices 1 2 3 4 5 6 
#
# 1 0.004424 -0.000981 -0.001717 0.000000 0.000290 0.000000
# 2 -0.000981 0.011497 -0.000141 0.000000 -0.000358 0.000000
# 3 -0.001717 -0.000141 0.015399 0.000000 0.016947 0.000000
# 4 0.000000 0.000000 0.000000 0.055644 0.000000 -0.009739
# 5 0.000290 -0.000358 0.016947 0.000000 0.075506 0.000000
# 6 0.000000 0.000000 0.000000 -0.009739 0.000000 0.037619
#
#
# Mechanical properties :
#
#
# Convention : Reuss Voigt Hill
#
# Bulk Modulus (GPa) = 38.99674 61.39086 50.19380
# Shear Modulus (GPa) = 23.33010 37.19830 30.26420
#
# Velocity S-wave (km/s) = 3.03130 3.82765 3.45251
# Velocity P-wave (km/s) = 5.25461 6.61164 5.97180
#
# Compressibility (1/GPa) = 0.02564317
#
# Stress axis : x y z
#
# Youngs Moduli (GPa) = 226.01527 86.97949 64.93890
#
# Poissons Ratio (x) = 0.08529 0.11148
# Poissons Ratio (y) = 0.22161 0.00919
# Poissons Ratio (z) = 0.38800 0.01230
#
# Static dielectric constant tensor:
#      x y z
#    x 2.167670 0.000000 0.032300 
#    y 0.000000 1.916520 0.000000 
#    z 0.032300 0.000000 1.995030 
# 
# From -- ./inp_files/103658.got.cif
#   From: 2010.05.17/outbox.cif.g08.bks.cpg/sg15_52_cif.got.tgz:103658.got - 2010.06.03 18:47:42.
