data_PCOD9270221
_publ_section_title
;
Structure prediction by ZEFSAII (Michael W. Deem and Ramdas Pophale) SiO2 
 PCOD9270221
Probable space group: C 2/C
;
_chemical_formula_sum "Si O2"
_cell_formula_units_Z 48
_cell_length_a 27.070396
_cell_length_b 5.578930
_cell_length_c 32.753313
_cell_angle_alpha 90.000000
_cell_angle_beta 156.812255
_cell_angle_gamma 90.000000
_cell_volume 1947.673462
_symmetry_space_group_name_H-M "C 2/C"
_symmetry_group_IT_number 15
_symmetry_cell_setting 'monoclinic'
loop_
_space_group_symop_operation_xyz
x,y,z
-x,y,1/2-z
-x,-y,-z
x,-y,1/2+z
1/2+x,1/2+y,z
1/2-x,1/2+y,1/2-z
1/2-x,1/2-y,-z
1/2+x,1/2-y,1/2+z
loop_
_atom_site_type_symbol
_atom_site_label
_atom_site_fract_x
_atom_site_fract_y
_atom_site_fract_z
Si Si1 0.745430 0.954865 0.857261
Si Si2 0.525696 0.838350 0.981121
Si Si3 0.778169 0.915180 0.294128
Si Si4 0.398452 0.176244 0.526401
Si Si5 0.683156 0.692925 0.884926
Si Si6 0.145289 0.943928 0.932976
O O1 0.650085 0.853278 0.819598
O O2 0.717034 0.079396 0.792897
O O3 0.829135 0.730342 0.906981
O O4 0.847180 0.118092 0.957922
O O5 0.428673 0.622100 0.910309
O O6 0.511634 0.994840 0.929139
O O7 0.500000 0.000000 0.000000
O O8 0.740896 0.668564 0.242918
O O9 0.442970 0.300380 0.602470
O O10 0.271080 0.025733 0.438059
O O11 0.596551 0.577022 0.855091
O O12 0.779567 0.862673 0.983165
O O13 0.250000 0.750000 0.000000
#
# Coordination Sequence:
#
# PCOD9270221 Si02
#       6
#     8   8   8   8   8   8
#     4  10  20  35  57  79 110 162 202 240 299 368
#     4  11  21  37  59  80 112 165 210 246 298 366
#     4  12  27  40  56  83 124 164 208 261 306 354
#     4   9  17  28  53  78 110 148 196 238 296 354
#     4   8  15  26  47  77 114 145 177 237 307 349
#     4   8  13  25  43  78 116 143 166 244 310 342
#
# _framework density 24.644788999999999
#
# number of rings (size 3 to 8) (size 9 to 14) (size 15 to 20)
#    0.000    2.333    1.667    1.500    4.667    0.000 
#    0.000    0.000    0.000    0.000    0.000    0.000 
#    0.000  173.333    0.000    0.000    0.000    0.000 
#
# Total GULP energy -133803.703449 kJ/mol
# GULP energy per Si atom -5575.154310 kJ/mol
# Density = 2.458870 g / cm^3
# Si number density = 24.644789 Si / 1000 Ang^3
#
#
#
# Elastic Constant Matrix: (Units=GPa)
#
#
# Indices 1 2 3 4 5 6 
#
# 1 143.1361 45.7178 45.5885 0.0369 -45.1645 -0.0681
# 2 45.7178 83.0142 17.8952 0.1355 -16.3109 -0.0211
# 3 45.5885 17.8952 54.8187 0.0893 -21.1796 -0.0034
# 4 0.0369 0.1355 0.0893 28.7230 -0.0214 -8.8151
# 5 -45.1645 -16.3109 -21.1796 -0.0214 36.9553 -0.0061
# 6 -0.0681 -0.0211 -0.0034 -8.8151 -0.0061 66.9945
#
#
#
# Elastic Compliance Matrix: (Units=1/GPa)
#
#
# Indices 1 2 3 4 5 6 
#
# 1 0.013811 -0.004070 -0.005561 0.000033 0.011895 0.000018
# 2 -0.004070 0.014694 -0.001064 -0.000062 0.000902 -0.000008
# 3 -0.005561 -0.001064 0.026210 -0.000067 0.007756 -0.000013
# 4 0.000033 -0.000062 -0.000067 0.036281 -0.000004 0.004774
# 5 0.011895 0.000902 0.007756 -0.000004 0.046440 0.000016
# 6 0.000018 -0.000008 -0.000013 0.004774 0.000016 0.015555
#
#
# Mechanical properties :
#
#
# Convention : Reuss Voigt Hill
#
# Bulk Modulus (GPa) = 30.00635 55.48577 42.74606
# Shear Modulus (GPa) = 26.95571 37.98574 32.47073
#
# Velocity S-wave (km/s) = 3.31081 3.93024 3.63374
# Velocity P-wave (km/s) = 5.17853 6.56953 5.91506
#
# Compressibility (1/GPa) = 0.03332628
#
# Stress axis : x y z
#
# Youngs Moduli (GPa) = 72.40659 68.05429 38.15277
#
# Poissons Ratio (x) = 0.27698 0.21217
# Poissons Ratio (y) = 0.29470 0.04058
# Poissons Ratio (z) = 0.40265 0.07238
#
# Static dielectric constant tensor:
#      x y z
#    x 1.909690 0.000970 0.010990 
#    y 0.000970 1.707350 -0.000500 
#    z 0.010990 -0.000500 1.959640 
# 
# From -- ./inp_files/319995.got.cif
#   From: 2010.05.17/outbox.cif.g08.bks.cpg/sg15_160_cif.got.tgz:319995.got - 2010.06.03 18:47:42.
