data_PCOD9270375
_publ_section_title
;
Structure prediction by ZEFSAII (Michael W. Deem and Ramdas Pophale) SiO2 
 PCOD9270375
Probable space group: C 2/C
;
_chemical_formula_sum "Si O2"
_cell_formula_units_Z 48
_cell_length_a 15.499064
_cell_length_b 29.189246
_cell_length_c 14.806049
_cell_angle_alpha 90.000000
_cell_angle_beta 160.810267
_cell_angle_gamma 90.000000
_cell_volume 2201.728785
_symmetry_space_group_name_H-M "C 2/C"
_symmetry_group_IT_number 15
_symmetry_cell_setting 'monoclinic'
loop_
_space_group_symop_operation_xyz
x,y,z
-x,y,1/2-z
-x,-y,-z
x,-y,1/2+z
1/2+x,1/2+y,z
1/2-x,1/2+y,1/2-z
1/2-x,1/2-y,-z
1/2+x,1/2-y,1/2+z
loop_
_atom_site_type_symbol
_atom_site_label
_atom_site_fract_x
_atom_site_fract_y
_atom_site_fract_z
Si Si1 0.067419 0.168886 0.713759
Si Si2 0.417702 0.823508 0.883996
Si Si3 0.556522 0.439461 0.158949
Si Si4 0.243672 0.028672 0.436657
Si Si5 0.926828 0.431317 0.929379
Si Si6 0.569502 0.779052 0.223768
O O1 0.058574 0.112901 0.696389
O O2 0.000000 0.180903 0.750000
O O3 0.856169 0.189144 0.434051
O O4 0.353479 0.183532 0.963126
O O5 0.399280 0.877302 0.887774
O O6 0.498113 0.801858 0.058598
O O7 0.661850 0.476766 0.331935
O O8 0.769025 0.442169 0.287542
O O9 0.266462 0.452069 0.837917
O O10 0.315381 0.053323 0.414368
O O11 0.000000 0.050083 0.250000
O O12 0.500000 0.029185 0.750000
O O13 0.500000 0.804002 0.250000
O O14 0.872863 0.764756 0.529144
#
# Coordination Sequence:
#
# PCOD9270375 Si02
#       6
#     8   8   8   8   8   8
#     4  10  20  35  58  86 115 150 193 235 278 329
#     4  10  21  37  60  86 115 149 185 233 286 335
#     4  10  20  36  55  74 104 147 194 234 273 325
#     4  12  23  34  51  77 108 143 187 236 286 333
#     4  10  21  37  54  76 107 146 184 228 287 336
#     4  10  21  39  64  91 116 148 188 228 274 333
#
# _framework density 21.801051000000001
#
# number of rings (size 3 to 8) (size 9 to 14) (size 15 to 20)
#    0.000    1.667    0.000    5.000    0.000    3.333 
#    0.000    2.500    0.000   10.000    0.000    0.000 
#    0.000    0.000    0.000    0.000    0.000    0.000 
#
# Total GULP energy -134133.059188 kJ/mol
# GULP energy per Si atom -5588.877466 kJ/mol
# Density = 2.175143 g / cm^3
# Si number density = 21.801051 Si / 1000 Ang^3
#
#
#
# Elastic Constant Matrix: (Units=GPa)
#
#
# Indices 1 2 3 4 5 6 
#
# 1 31.1327 -59.7260 59.3661 -0.0025 61.1937 -0.0022
# 2 -59.7260 -45.1107 38.1650 -0.0033 45.7241 -0.0001
# 3 59.3661 38.1650 94.0298 -0.0015 -36.6441 0.0009
# 4 -0.0025 -0.0033 -0.0015 20.9018 0.0028 -7.5023
# 5 61.1937 45.7241 -36.6441 0.0028 -7.2283 -0.0003
# 6 -0.0022 -0.0001 0.0009 -7.5023 -0.0003 13.9522
#
#
#
# Elastic Compliance Matrix: (Units=1/GPa)
#
#
# Indices 1 2 3 4 5 6 
#
# 1 0.009125 -0.012742 -0.000636 -0.000001 -0.000120 0.000001
# 2 -0.012742 0.026872 0.007173 -0.000001 0.025751 -0.000002
# 3 -0.000636 0.007173 0.007968 0.000002 -0.000405 0.000000
# 4 -0.000001 -0.000001 0.000002 0.059285 0.000001 0.031878
# 5 -0.000120 0.025751 -0.000405 0.000001 0.025587 0.000001
# 6 0.000001 -0.000002 0.000000 0.031878 0.000001 0.088814
#
#
# Mechanical properties :
#
#
# Convention : Reuss Voigt Hill
#
# Bulk Modulus (GPa) = 31.69088 17.29580 24.49334
# Shear Modulus (GPa) = 20.78316 8.34160 14.56238
#
# Velocity S-wave (km/s) = 3.09092 1.95820 2.58731
# Velocity P-wave (km/s) = 5.22555 3.61433 4.49276
#
# Compressibility (1/GPa) = 0.03155482
#
# Stress axis : x y z
#
# Youngs Moduli (GPa) = 109.58457 37.21356 125.50923
#
# Poissons Ratio (x) = 0.47416 0.07987
# Poissons Ratio (y) = 1.39629 -0.90028
# Poissons Ratio (z) = 0.06974 -0.26693
#
# Static dielectric constant tensor:
#      x y z
#    x 1.843090 0.000000 -0.018320 
#    y 0.000000 1.797820 0.000000 
#    z -0.018320 0.000000 1.787500 
# 
# From -- ./inp_files/8935.got.cif
#   From: 2010.05.17/outbox.cif.g08.bks.cpg/sg15_5_cif.got.tgz:8935.got - 2010.06.03 18:47:42.
