data_PCOD9270407
_publ_section_title
;
Structure prediction by ZEFSAII (Michael W. Deem and Ramdas Pophale) SiO2 
 PCOD9270407
Probable space group: C 2/C
;
_chemical_formula_sum "Si O2"
_cell_formula_units_Z 48
_cell_length_a 18.737381
_cell_length_b 17.586355
_cell_length_c 14.506260
_cell_angle_alpha 90.000000
_cell_angle_beta 28.342213
_cell_angle_gamma 90.000000
_cell_volume 2269.305980
_symmetry_space_group_name_H-M "C 2/C"
_symmetry_group_IT_number 15
_symmetry_cell_setting 'monoclinic'
loop_
_space_group_symop_operation_xyz
x,y,z
-x,y,1/2-z
-x,-y,-z
x,-y,1/2+z
1/2+x,1/2+y,z
1/2-x,1/2+y,1/2-z
1/2-x,1/2-y,-z
1/2+x,1/2-y,1/2+z
loop_
_atom_site_type_symbol
_atom_site_label
_atom_site_fract_x
_atom_site_fract_y
_atom_site_fract_z
Si Si1 0.636760 0.686354 0.165503
Si Si2 0.202473 0.136993 0.585279
Si Si3 0.500000 0.950510 0.750000
Si Si4 0.000000 0.985282 0.250000
Si Si5 0.708313 0.931623 0.110659
Si Si6 0.710900 0.779535 0.693183
Si Si7 0.411244 0.202942 0.622257
O O1 0.500000 0.677449 0.250000
O O2 0.572525 0.722745 0.330647
O O3 0.750000 0.750000 0.000000
O O4 0.740160 0.611445 0.043207
O O5 0.364489 0.105360 0.433961
O O6 0.088653 0.067914 0.720070
O O7 0.215518 0.162931 0.463395
O O8 0.149710 0.210928 0.699099
O O9 0.419449 0.006664 0.767529
O O10 0.867526 0.029627 0.453781
O O11 0.658786 0.867173 0.239860
O O12 0.812776 0.735441 0.650798
O O13 0.574498 0.819553 0.900308
#
# Coordination Sequence:
#
# PCOD9270407 Si02
#       7
#     8   8   4   4   8   8   8
#     4  10  20  35  58  88 128 166 200 241 302 379
#     4  10  22  44  67  86 116 173 221 250 317 351
#     4  10  22  39  67  88 124 176 208 244 302 414
#     4  10  20  41  65  84 120 176 202 240 304 408
#     4  10  22  37  63  90 130 167 197 245 319 390
#     4  11  23  41  67  92 121 157 217 281 294 360
#     4  11  23  36  63  99 126 152 208 265 316 351
#
# _framework density 21.151841000000001
#
# number of rings (size 3 to 8) (size 9 to 14) (size 15 to 20)
#    0.000    1.667    0.833    4.000    7.000    2.667 
#    0.000    8.333    3.667    0.000    0.000    0.000 
#    0.000    0.000    0.000    0.000    0.000    0.000 
#
# Total GULP energy -133802.481308 kJ/mol
# GULP energy per Si atom -5575.103388 kJ/mol
# Density = 2.110370 g / cm^3
# Si number density = 21.151841 Si / 1000 Ang^3
#
#
#
# Elastic Constant Matrix: (Units=GPa)
#
#
# Indices 1 2 3 4 5 6 
#
# 1 68.5135 19.6231 33.2934 -0.0001 4.2304 0.0004
# 2 19.6231 100.8822 38.4845 -0.0001 -1.6865 0.0002
# 3 33.2934 38.4845 81.5965 -0.0005 -9.9313 0.0016
# 4 -0.0001 -0.0001 -0.0005 29.1431 0.0000 -21.9917
# 5 4.2304 -1.6865 -9.9313 0.0000 33.8980 -0.0002
# 6 0.0004 0.0002 0.0016 -21.9917 -0.0002 78.3555
#
#
#
# Elastic Compliance Matrix: (Units=1/GPa)
#
#
# Indices 1 2 3 4 5 6 
#
# 1 0.018972 -0.000727 -0.007975 0.000000 -0.004740 0.000000
# 2 -0.000727 0.012156 -0.005550 0.000000 -0.000930 0.000000
# 3 -0.007975 -0.005550 0.018888 0.000000 0.006253 0.000000
# 4 0.000000 0.000000 0.000000 0.043534 0.000000 0.012218
# 5 -0.004740 -0.000930 0.006253 0.000000 0.031877 0.000000
# 6 0.000000 0.000000 0.000000 0.012218 0.000000 0.016192
#
#
# Mechanical properties :
#
#
# Convention : Reuss Voigt Hill
#
# Bulk Modulus (GPa) = 46.48625 48.19937 47.34281
# Shear Modulus (GPa) = 28.20201 38.91873 33.56037
#
# Velocity S-wave (km/s) = 3.65542 4.29414 3.98759
# Velocity P-wave (km/s) = 6.31199 6.88643 6.60546
#
# Compressibility (1/GPa) = 0.02151174
#
# Stress axis : x y z
#
# Youngs Moduli (GPa) = 52.70920 82.26718 52.94406
#
# Poissons Ratio (x) = 0.05983 0.42223
# Poissons Ratio (y) = 0.03834 0.29382
# Poissons Ratio (z) = 0.42035 0.45655
#
# Static dielectric constant tensor:
#      x y z
#    x 1.782250 0.000000 -0.033420 
#    y 0.000000 1.838700 0.000000 
#    z -0.033420 0.000000 1.730120 
# 
# From -- ./inp_files/163228.got.cif
#   From: 2010.05.17/outbox.cif.g08.bks.cpg/sg15_82_cif.got.tgz:163228.got - 2010.06.03 18:47:42.
