data_PCOD9270666
_publ_section_title
;
Structure prediction by ZEFSAII (Michael W. Deem and Ramdas Pophale) SiO2 
 PCOD9270666
Probable space group: C 2/C
;
_chemical_formula_sum "Si O2"
_cell_formula_units_Z 64
_cell_length_a 8.429884
_cell_length_b 21.115209
_cell_length_c 25.740002
_cell_angle_alpha 90.000000
_cell_angle_beta 134.776182
_cell_angle_gamma 90.000000
_cell_volume 3252.373865
_symmetry_space_group_name_H-M "C 2/C"
_symmetry_group_IT_number 15
_symmetry_cell_setting 'monoclinic'
loop_
_space_group_symop_operation_xyz
x,y,z
-x,y,1/2-z
-x,-y,-z
x,-y,1/2+z
1/2+x,1/2+y,z
1/2-x,1/2+y,1/2-z
1/2-x,1/2-y,-z
1/2+x,1/2-y,1/2+z
loop_
_atom_site_type_symbol
_atom_site_label
_atom_site_fract_x
_atom_site_fract_y
_atom_site_fract_z
Si Si1 0.762400 0.600938 0.680999
Si Si2 0.163447 0.463570 0.835907
Si Si3 0.857141 0.174674 0.939639
Si Si4 0.527530 0.872757 0.077977
Si Si5 0.818593 0.969590 0.553017
Si Si6 0.919597 0.702499 0.009074
Si Si7 0.282035 0.090626 0.044436
Si Si8 0.411536 0.464377 0.176700
O O1 0.827026 0.540063 0.660379
O O2 0.631814 0.652008 0.617459
O O3 0.613332 0.570069 0.691848
O O4 0.000000 0.629510 0.750000
O O5 0.424548 0.445965 0.888834
O O6 0.100114 0.435849 0.877010
O O7 0.000000 0.447157 0.750000
O O8 0.628411 0.155326 0.913764
O O9 0.875443 0.249753 0.949259
O O10 0.063060 0.132712 0.009794
O O11 0.729411 0.911945 0.148583
O O12 0.361386 0.919176 0.007381
O O13 0.627131 0.822787 0.059585
O O14 0.794561 0.031692 0.509837
O O15 0.792259 0.991544 0.606473
O O16 0.931177 0.639926 0.046687
O O17 0.750000 0.750000 0.000000
O O18 0.500000 0.494840 0.250000
#
# Coordination Sequence:
#
# PCOD9270666 Si02
#       8
#     8   8   8   8   8   8   8   8
#     4  10  20  38  60  91 125 159 210 250 309 367
#     4  10  20  35  61  94 124 164 195 249 318 376
#     4  11  20  37  65  86 118 162 215 257 298 364
#     4  12  22  38  62  94 122 158 211 262 314 368
#     4  11  21  37  60  94 128 155 210 253 315 373
#     4  10  23  39  60  86 116 162 212 263 301 363
#     4  11  19  39  62  90 123 159 206 256 312 366
#     4  11  22  36  55  94 133 163 193 249 320 375
#
# _framework density 19.677934
#
# number of rings (size 3 to 8) (size 9 to 14) (size 15 to 20)
#    0.000    1.250    5.000    3.375    0.000    2.000 
#    0.000    0.000    2.750    6.750    0.000    0.000 
#    0.000    0.000    0.000    0.000    0.000    0.000 
#
# Total GULP energy -178462.480824 kJ/mol
# GULP energy per Si atom -5576.952526 kJ/mol
# Density = 1.963315 g / cm^3
# Si number density = 19.677934 Si / 1000 Ang^3
#
#
#
# Elastic Constant Matrix: (Units=GPa)
#
#
# Indices 1 2 3 4 5 6 
#
# 1 72.6411 21.4127 4.3813 0.0000 -2.4173 0.0000
# 2 21.4127 41.2601 20.3212 0.0000 0.2779 0.0000
# 3 4.3813 20.3212 98.3083 -0.0001 -6.9241 0.0000
# 4 0.0000 0.0000 -0.0001 14.3271 -0.0001 -1.5655
# 5 -2.4173 0.2779 -6.9241 -0.0001 33.1819 -0.0001
# 6 0.0000 0.0000 0.0000 -1.5655 -0.0001 31.5003
#
#
#
# Elastic Compliance Matrix: (Units=1/GPa)
#
#
# Indices 1 2 3 4 5 6 
#
# 1 0.016444 -0.009170 0.001271 0.000000 0.001540 0.000000
# 2 -0.009170 0.032163 -0.006400 0.000000 -0.002273 0.000000
# 3 0.001271 -0.006400 0.011619 0.000000 0.002571 0.000000
# 4 0.000000 0.000000 0.000000 0.070179 0.000000 0.003488
# 5 0.001540 -0.002273 0.002571 0.000000 0.030805 0.000000
# 6 0.000000 0.000000 0.000000 0.003488 0.000000 0.031919
#
#
# Mechanical properties :
#
#
# Convention : Reuss Voigt Hill
#
# Bulk Modulus (GPa) = 31.61708 33.82665 32.72187
# Shear Modulus (GPa) = 21.52671 26.87482 24.20076
#
# Velocity S-wave (km/s) = 3.31108 3.69959 3.51072
# Velocity P-wave (km/s) = 5.54255 5.95624 5.75311
#
# Compressibility (1/GPa) = 0.03162847
#
# Stress axis : x y z
#
# Youngs Moduli (GPa) = 60.81212 31.09170 86.06311
#
# Poissons Ratio (x) = 0.28512 -0.10940
# Poissons Ratio (y) = 0.55767 0.55078
# Poissons Ratio (z) = -0.07731 0.19898
#
# Static dielectric constant tensor:
#      x y z
#    x 1.771380 0.000000 0.006420 
#    y 0.000000 1.702490 0.000000 
#    z 0.006420 0.000000 1.716020 
# 
# From -- ./inp_files/266116.got.cif
#   From: 2010.05.17/outbox.cif.g08.bks.cpg/sg15_134_cif.got.tgz:266116.got - 2010.06.03 18:47:42.
