data_PCOD9270383
_publ_section_title
;
Structure prediction by ZEFSAII (Michael W. Deem and Ramdas Pophale) SiO2 
 PCOD9270383
Probable space group: C 2/C
;
_chemical_formula_sum "Si O2"
_cell_formula_units_Z 48
_cell_length_a 11.870770
_cell_length_b 11.465485
_cell_length_c 19.389435
_cell_angle_alpha 90.000000
_cell_angle_beta 130.068000
_cell_angle_gamma 90.000000
_cell_volume 2019.563077
_symmetry_space_group_name_H-M "C 2/C"
_symmetry_group_IT_number 15
_symmetry_cell_setting 'monoclinic'
loop_
_space_group_symop_operation_xyz
x,y,z
-x,y,1/2-z
-x,-y,-z
x,-y,1/2+z
1/2+x,1/2+y,z
1/2-x,1/2+y,1/2-z
1/2-x,1/2-y,-z
1/2+x,1/2-y,1/2+z
loop_
_atom_site_type_symbol
_atom_site_label
_atom_site_fract_x
_atom_site_fract_y
_atom_site_fract_z
Si Si1 0.609511 0.148622 0.857800
Si Si2 0.689363 0.431628 0.601756
Si Si3 0.338033 0.408929 0.652418
Si Si4 0.548517 0.002395 0.098220
Si Si5 0.114200 0.717466 0.394441
Si Si6 0.024488 0.945874 0.400209
O O1 0.500000 0.143120 0.750000
O O2 0.683313 0.276090 0.881914
O O3 0.728712 0.048630 0.890841
O O4 0.509938 0.112720 0.884803
O O5 0.807269 0.327789 0.644217
O O6 0.569300 0.406065 0.494944
O O7 0.607029 0.464024 0.639014
O O8 0.500000 0.415428 0.750000
O O9 0.219522 0.464002 0.657222
O O10 0.344631 0.487001 0.586262
O O11 0.471971 0.109116 0.107771
O O12 0.500000 0.000000 0.000000
O O13 0.250000 0.750000 0.500000
O O14 0.008121 0.828576 0.350132
#
# Coordination Sequence:
#
# PCOD9270383 Si02
#       6
#     8   8   8   8   8   8
#     4  10  23  41  62  88 129 168 213 266 331 391
#     4   9  19  35  60  85 112 162 203 251 315 378
#     4  11  25  41  59  94 132 169 216 266 332 398
#     4  11  23  41  69  95 128 171 222 272 325 397
#     4   9  18  35  58  90 120 149 205 263 310 372
#     4  10  20  35  58  86 121 154 204 259 308 378
#
# _framework density 23.767515
#
# number of rings (size 3 to 8) (size 9 to 14) (size 15 to 20)
#    0.000    2.000    0.000    4.000    2.333    8.000 
#    0.000    3.333    0.000    0.000    0.000    0.000 
#    0.000    0.000    0.000    0.000    0.000    0.000 
#
# Total GULP energy -133994.153014 kJ/mol
# GULP energy per Si atom -5583.089709 kJ/mol
# Density = 2.371342 g / cm^3
# Si number density = 23.767515 Si / 1000 Ang^3
#
#
#
# Elastic Constant Matrix: (Units=GPa)
#
#
# Indices 1 2 3 4 5 6 
#
# 1 145.6111 9.1768 11.1984 0.0000 4.2657 0.0000
# 2 9.1768 54.5722 -7.3415 0.0000 -5.1445 0.0000
# 3 11.1984 -7.3415 55.6322 0.0000 -6.9384 0.0000
# 4 0.0000 0.0000 0.0000 14.4517 0.0000 -0.1055
# 5 4.2657 -5.1445 -6.9384 0.0000 31.3160 0.0000
# 6 0.0000 0.0000 0.0000 -0.1055 0.0000 39.4445
#
#
#
# Elastic Compliance Matrix: (Units=1/GPa)
#
#
# Indices 1 2 3 4 5 6 
#
# 1 0.007161 -0.001610 -0.001860 0.000000 -0.001652 0.000000
# 2 -0.001610 0.019447 0.003410 0.000000 0.004170 0.000000
# 3 -0.001860 0.003410 0.019438 0.000000 0.005120 0.000000
# 4 0.000000 0.000000 0.000000 0.069197 0.000000 0.000185
# 5 -0.001652 0.004170 0.005120 0.000000 0.033977 0.000000
# 6 0.000000 0.000000 0.000000 0.000185 0.000000 0.025353
#
#
# Mechanical properties :
#
#
# Convention : Reuss Voigt Hill
#
# Bulk Modulus (GPa) = 21.77379 31.32033 26.54706
# Shear Modulus (GPa) = 26.31571 33.22788 29.77180
#
# Velocity S-wave (km/s) = 3.33109 3.74309 3.54308
# Velocity P-wave (km/s) = 4.89652 5.64689 5.28504
#
# Compressibility (1/GPa) = 0.04592677
#
# Stress axis : x y z
#
# Youngs Moduli (GPa) = 139.65496 51.42194 51.44498
#
# Poissons Ratio (x) = 0.08279 0.09568
# Poissons Ratio (y) = 0.22485 -0.17545
# Poissons Ratio (z) = 0.25974 -0.17537
#
# Static dielectric constant tensor:
#      x y z
#    x 1.873550 0.000000 -0.219420 
#    y 0.000000 1.958920 0.000000 
#    z -0.219420 0.000000 0.889050 
# 
# From -- ./inp_files/196135.got.cif
#   From: 2010.05.17/outbox.cif.g08.bks.cpg/sg15_99_cif.got.tgz:196135.got - 2010.06.03 18:47:42.
