data_PCOD9270781
_publ_section_title
;
Structure prediction by ZEFSAII (Michael W. Deem and Ramdas Pophale) SiO2 
 PCOD9270781
Probable space group: C 2/C
;
_chemical_formula_sum "Si O2"
_cell_formula_units_Z 48
_cell_length_a 15.063928
_cell_length_b 25.584872
_cell_length_c 6.795032
_cell_angle_alpha 90.000000
_cell_angle_beta 124.770589
_cell_angle_gamma 90.000000
_cell_volume 2151.245236
_symmetry_space_group_name_H-M "C 2/C"
_symmetry_group_IT_number 15
_symmetry_cell_setting 'monoclinic'
loop_
_space_group_symop_operation_xyz
x,y,z
-x,y,1/2-z
-x,-y,-z
x,-y,1/2+z
1/2+x,1/2+y,z
1/2-x,1/2+y,1/2-z
1/2-x,1/2-y,-z
1/2+x,1/2-y,1/2+z
loop_
_atom_site_type_symbol
_atom_site_label
_atom_site_fract_x
_atom_site_fract_y
_atom_site_fract_z
Si Si1 0.000000 0.253522 0.750000
Si Si2 0.126794 0.330462 0.176828
Si Si3 0.190763 0.823897 0.374208
Si Si4 0.855517 0.047050 0.232398
Si Si5 0.335545 0.118845 0.359115
Si Si6 0.907726 0.933270 0.352011
Si Si7 0.000000 0.595097 0.250000
O O1 0.961176 0.288968 0.516099
O O2 0.896542 0.219280 0.679062
O O3 0.124235 0.350211 0.396037
O O4 0.244181 0.312339 0.245640
O O5 0.096494 0.379559 0.001389
O O6 0.279960 0.836173 0.654091
O O7 0.127356 0.878343 0.275886
O O8 0.880264 0.068908 0.048591
O O9 0.755167 0.077994 0.188611
O O10 0.963983 0.056215 0.497484
O O11 0.844316 0.984603 0.198707
O O12 0.423193 0.084838 0.346364
#
# Coordination Sequence:
#
# PCOD9270781 Si02
#       7
#     4   8   8   8   8   8   4
#     4  11  24  42  66 100 134 176 230 284 338 401
#     4  10  22  43  64  93 132 178 226 280 338 399
#     4  11  22  40  64  95 138 172 222 277 337 399
#     4  10  20  35  65 100 139 177 221 258 336 406
#     4  11  21  40  68  98 132 182 222 279 333 401
#     4  10  20  37  61 101 141 177 211 269 330 409
#     4   9  22  40  70  94 128 176 228 280 340 383
#
# _framework density 22.312659
#
# number of rings (size 3 to 8) (size 9 to 14) (size 15 to 20)
#    0.000    1.667    1.667    3.000    0.000    3.333 
#    0.000    5.000    0.000   12.000    4.333    0.000 
#    0.000    0.000    0.000    0.000    0.000    0.000 
#
# Total GULP energy -133823.710740 kJ/mol
# GULP energy per Si atom -5575.987948 kJ/mol
# Density = 2.226187 g / cm^3
# Si number density = 22.312659 Si / 1000 Ang^3
#
#
#
# Elastic Constant Matrix: (Units=GPa)
#
#
# Indices 1 2 3 4 5 6 
#
# 1 180.9899 43.0427 25.2048 0.0000 -12.3594 0.0000
# 2 43.0427 90.0220 47.1912 0.0000 -1.9972 0.0000
# 3 25.2048 47.1912 107.4574 0.0000 -7.4059 0.0000
# 4 0.0000 0.0000 0.0000 -594.4169 0.0000 221.6970
# 5 -12.3594 -1.9972 -7.4059 0.0000 26.5569 0.0000
# 6 0.0000 0.0000 0.0000 221.6970 0.0000 -62.5506
#
#
#
# Elastic Compliance Matrix: (Units=1/GPa)
#
#
# Indices 1 2 3 4 5 6 
#
# 1 0.006431 -0.003017 0.000007 0.000000 0.002768 0.000000
# 2 -0.003017 0.015859 -0.006394 0.000000 -0.001995 0.000000
# 3 0.000007 -0.006394 0.012316 0.000000 0.002957 0.000000
# 4 0.000000 0.000000 0.000000 0.005226 0.000000 0.018524
# 5 0.002768 -0.001995 0.002957 0.000000 0.039618 0.000000
# 6 0.000000 0.000000 0.000000 0.018524 0.000000 0.049665
#
#
# Mechanical properties :
#
#
# Convention : Reuss Voigt Hill
#
# Bulk Modulus (GPa) = 63.30122 67.70520 65.50321
# Shear Modulus (GPa) = 32.63929 -108.54675 -37.95373
#
# Velocity S-wave (km/s) = 3.82883 -6.98238 -4.12879
# Velocity P-wave (km/s) = 6.92663 5.88177 2.58680
#
# Compressibility (1/GPa) = 0.01579748
#
# Stress axis : x y z
#
# Youngs Moduli (GPa) = 155.50392 63.05628 81.19366
#
# Poissons Ratio (x) = 0.19026 -0.00061
# Poissons Ratio (y) = 0.46920 0.51918
# Poissons Ratio (z) = -0.00116 0.40320
#
# Static dielectric constant tensor:
#      x y z
#    x 1.915490 0.000000 -0.015630 
#    y 0.000000 1.806790 0.000000 
#    z -0.015630 0.000000 1.898690 
# 
# From -- ./inp_files/8862.got.cif
#   From: 2010.05.17/outbox.cif.g08.bks.cpg/sg15_5_cif.got.tgz:8862.got - 2010.06.03 18:47:42.
