data_PCOD9270519
_publ_section_title
;
Structure prediction by ZEFSAII (Michael W. Deem and Ramdas Pophale) SiO2 
 PCOD9270519
Probable space group: C 2/C
;
_chemical_formula_sum "Si O2"
_cell_formula_units_Z 48
_cell_length_a 18.682020
_cell_length_b 9.070644
_cell_length_c 22.530126
_cell_angle_alpha 90.000000
_cell_angle_beta 143.140000
_cell_angle_gamma 90.000000
_cell_volume 2290.217756
_symmetry_space_group_name_H-M "C 2/C"
_symmetry_group_IT_number 15
_symmetry_cell_setting 'monoclinic'
loop_
_space_group_symop_operation_xyz
x,y,z
-x,y,1/2-z
-x,-y,-z
x,-y,1/2+z
1/2+x,1/2+y,z
1/2-x,1/2+y,1/2-z
1/2-x,1/2-y,-z
1/2+x,1/2-y,1/2+z
loop_
_atom_site_type_symbol
_atom_site_label
_atom_site_fract_x
_atom_site_fract_y
_atom_site_fract_z
Si Si1 0.151932 0.509442 0.293223
Si Si2 0.853529 0.762877 0.115905
Si Si3 0.185256 0.261504 0.708586
Si Si4 0.551186 0.261574 0.670952
Si Si5 0.409348 0.430269 0.259800
Si Si6 0.913893 0.133118 0.966202
O O1 0.132757 0.612027 0.337906
O O2 0.162118 0.614047 0.241969
O O3 0.053428 0.387308 0.210835
O O4 0.281328 0.432963 0.386859
O O5 0.975087 0.822918 0.166956
O O6 0.750000 0.750000 0.000000
O O7 0.041078 0.793056 0.943231
O O8 0.319907 0.263768 0.775718
O O9 0.170400 0.114705 0.849114
O O10 0.099198 0.254393 0.594647
O O11 0.548575 0.403493 0.711498
O O12 0.660152 0.608846 0.726695
O O13 0.000000 0.000000 0.000000
#
# Coordination Sequence:
#
# PCOD9270519 Si02
#       6
#     8   8   8   8   8   8
#     4  10  22  38  58  96 129 156 213 265 293 369
#     4  10  22  41  64  86 112 166 218 254 308 369
#     4  10  20  35  59  93 126 160 203 250 307 375
#     4  11  20  37  61  92 128 160 200 258 312 370
#     4  10  21  39  60  86 120 162 205 249 316 365
#     4  11  19  34  64  93 128 173 194 237 324 382
#
# _framework density 20.958704999999998
#
# number of rings (size 3 to 8) (size 9 to 14) (size 15 to 20)
#    0.000    1.667    3.333    2.000    0.000    0.667 
#    0.000   17.500    0.000    0.000    0.000    0.000 
#    0.000    0.000    0.000    0.000    0.000    0.000 
#
# Total GULP energy -133970.179504 kJ/mol
# GULP energy per Si atom -5582.090813 kJ/mol
# Density = 2.091100 g / cm^3
# Si number density = 20.958705 Si / 1000 Ang^3
#
#
#
# Elastic Constant Matrix: (Units=GPa)
#
#
# Indices 1 2 3 4 5 6 
#
# 1 64.1545 28.7197 18.6293 0.0000 -6.3193 0.0000
# 2 28.7197 109.2567 68.2532 0.0000 -12.7782 0.0000
# 3 18.6293 68.2532 173.4699 0.0000 -19.2897 0.0000
# 4 0.0000 0.0000 0.0000 35.8387 0.0000 -2.8978
# 5 -6.3193 -12.7782 -19.2897 0.0000 24.4136 0.0000
# 6 0.0000 0.0000 0.0000 -2.8978 0.0000 12.6396
#
#
#
# Elastic Compliance Matrix: (Units=1/GPa)
#
#
# Indices 1 2 3 4 5 6 
#
# 1 0.017788 -0.004469 0.000110 0.000000 0.002352 0.000000
# 2 -0.004469 0.013439 -0.004554 0.000000 0.002279 0.000000
# 3 0.000110 -0.004554 0.007984 0.000000 0.003953 0.000000
# 4 0.000000 0.000000 0.000000 0.028430 0.000000 0.006518
# 5 0.002352 0.002279 0.003953 0.000000 0.045886 0.000000
# 6 0.000000 0.000000 0.000000 0.006518 0.000000 0.080611
#
#
# Mechanical properties :
#
#
# Convention : Reuss Voigt Hill
#
# Bulk Modulus (GPa) = 46.76472 64.23173 55.49823
# Shear Modulus (GPa) = 22.82123 29.99697 26.40910
#
# Velocity S-wave (km/s) = 3.30338 3.78728 3.55357
# Velocity P-wave (km/s) = 6.07544 7.05960 6.58593
#
# Compressibility (1/GPa) = 0.02138364
#
# Stress axis : x y z
#
# Youngs Moduli (GPa) = 56.21796 74.40888 125.24282
#
# Poissons Ratio (x) = 0.33255 -0.01374
# Poissons Ratio (y) = 0.25125 0.57041
# Poissons Ratio (z) = -0.00617 0.33889
#
# Static dielectric constant tensor:
#      x y z
#    x 1.785960 0.000000 -0.021730 
#    y 0.000000 1.807210 0.000000 
#    z -0.021730 0.000000 1.746910 
# 
# From -- ./inp_files/284176.got.cif
#   From: 2010.05.17/outbox.cif.g08.bks.cpg/sg15_143_cif.got.tgz:284176.got - 2010.06.03 18:47:42.
