data_PCOD9270065
_publ_section_title
;
Structure prediction by ZEFSAII (Michael W. Deem and Ramdas Pophale) SiO2 
 PCOD9270065
Probable space group: C 2/C
;
_chemical_formula_sum "Si O2"
_cell_formula_units_Z 48
_cell_length_a 9.224327
_cell_length_b 15.413843
_cell_length_c 16.747371
_cell_angle_alpha 90.000000
_cell_angle_beta 68.846502
_cell_angle_gamma 90.000000
_cell_volume 2220.729118
_symmetry_space_group_name_H-M "C 2/C"
_symmetry_group_IT_number 15
_symmetry_cell_setting 'monoclinic'
loop_
_space_group_symop_operation_xyz
x,y,z
-x,y,1/2-z
-x,-y,-z
x,-y,1/2+z
1/2+x,1/2+y,z
1/2-x,1/2+y,1/2-z
1/2-x,1/2-y,-z
1/2+x,1/2-y,1/2+z
loop_
_atom_site_type_symbol
_atom_site_label
_atom_site_fract_x
_atom_site_fract_y
_atom_site_fract_z
Si Si1 0.039541 0.202527 0.997627
Si Si2 0.799994 0.585533 0.880982
Si Si3 0.331954 0.446069 0.468870
Si Si4 0.603462 0.145489 0.901419
Si Si5 0.418775 0.698918 0.185315
Si Si6 0.604220 0.495650 0.805293
O O1 0.898252 0.143025 0.993467
O O2 0.990183 0.303145 0.008726
O O3 0.049508 0.184899 0.090718
O O4 0.192310 0.168715 0.923812
O O5 0.750223 0.507887 0.951210
O O6 0.749044 0.553899 0.803363
O O7 0.975367 0.606500 0.868097
O O8 0.217379 0.421155 0.419763
O O9 0.517420 0.506949 0.597606
O O10 0.681194 0.225280 0.836339
O O11 0.500000 0.727958 0.250000
O O12 0.346544 0.604560 0.213811
O O13 0.500000 0.520967 0.750000
#
# Coordination Sequence:
#
# PCOD9270065 Si02
#       6
#     8   8   8   8   8   8
#     4   9  18  33  53  71  98 138 171 203 232 305
#     4  11  18  34  52  79 102 129 171 210 252 295
#     4  11  18  34  52  79 102 129 171 210 252 295
#     4  10  21  29  52  79 107 127 158 217 263 291
#     4   9  18  34  51  70  97 140 175 198 246 308
#     4  10  20  35  55  71  97 137 177 206 243 301
#
# _framework density 21.614522000000001
#
# number of rings (size 3 to 8) (size 9 to 14) (size 15 to 20)
#    1.000    1.000    3.333    2.500    0.000    1.333 
#    0.000    0.000    0.000    0.000    0.000    5.833 
#    0.000    0.000    0.000    0.000    0.000    0.000 
#
# Total GULP energy -133752.118448 kJ/mol
# GULP energy per Si atom -5573.004935 kJ/mol
# Density = 2.156533 g / cm^3
# Si number density = 21.614522 Si / 1000 Ang^3
#
#
#
# Elastic Constant Matrix: (Units=GPa)
#
#
# Indices 1 2 3 4 5 6 
#
# 1 96.4225 39.4910 11.5317 0.0000 21.0683 0.0000
# 2 39.4910 69.5244 3.8872 0.0000 9.9612 0.0000
# 3 11.5317 3.8872 53.9932 0.0000 18.6862 0.0000
# 4 0.0000 0.0000 0.0000 29.9301 0.0000 15.6674
# 5 21.0683 9.9612 18.6862 0.0000 31.7760 0.0000
# 6 0.0000 0.0000 0.0000 15.6674 0.0000 29.1392
#
#
#
# Elastic Compliance Matrix: (Units=1/GPa)
#
#
# Indices 1 2 3 4 5 6 
#
# 1 0.015114 -0.007486 -0.000042 0.000000 -0.007649 0.000000
# 2 -0.007486 0.018789 0.000712 0.000000 -0.001345 0.000000
# 3 -0.000042 0.000712 0.023285 0.000000 -0.013889 0.000000
# 4 0.000000 0.000000 0.000000 0.046498 0.000000 -0.025001
# 5 -0.007649 -0.001345 -0.013889 0.000000 0.045131 0.000000
# 6 0.000000 0.000000 0.000000 -0.025001 0.000000 0.047761
#
#
# Mechanical properties :
#
#
# Convention : Reuss Voigt Hill
#
# Bulk Modulus (GPa) = 22.95971 36.63998 29.79984
# Shear Modulus (GPa) = 22.24909 29.17106 25.71007
#
# Velocity S-wave (km/s) = 3.21184 3.67768 3.45263
# Velocity P-wave (km/s) = 4.93963 5.91795 5.45079
#
# Compressibility (1/GPa) = 0.04355456
#
# Stress axis : x y z
#
# Youngs Moduli (GPa) = 66.16580 53.22336 42.94586
#
# Poissons Ratio (x) = 0.39845 0.00179
# Poissons Ratio (y) = 0.49535 -0.03056
# Poissons Ratio (z) = 0.00275 -0.03788
#
# Static dielectric constant tensor:
#      x y z
#    x 1.757900 0.000000 0.001170 
#    y 0.000000 1.857920 0.000000 
#    z 0.001170 0.000000 1.826860 
# 
# From -- ./inp_files/231845.got.cif
#   From: 2010.05.17/outbox.cif.g08.bks.cpg/sg15_116_cif.got.tgz:231845.got - 2010.06.03 18:47:42.
