data_PCOD9270286
_publ_section_title
;
Structure prediction by ZEFSAII (Michael W. Deem and Ramdas Pophale) SiO2 
 PCOD9270286
Probable space group: C 2/C
;
_chemical_formula_sum "Si O2"
_cell_formula_units_Z 56
_cell_length_a 8.966119
_cell_length_b 26.829117
_cell_length_c 19.103161
_cell_angle_alpha 90.000000
_cell_angle_beta 35.912675
_cell_angle_gamma 90.000000
_cell_volume 2695.394224
_symmetry_space_group_name_H-M "C 2/C"
_symmetry_group_IT_number 15
_symmetry_cell_setting 'monoclinic'
loop_
_space_group_symop_operation_xyz
x,y,z
-x,y,1/2-z
-x,-y,-z
x,-y,1/2+z
1/2+x,1/2+y,z
1/2-x,1/2+y,1/2-z
1/2-x,1/2-y,-z
1/2+x,1/2-y,1/2+z
loop_
_atom_site_type_symbol
_atom_site_label
_atom_site_fract_x
_atom_site_fract_y
_atom_site_fract_z
Si Si1 0.479956 0.077106 0.550276
Si Si2 0.267802 0.344975 0.876541
Si Si3 0.556624 0.705971 0.057860
Si Si4 0.445074 0.674687 0.949464
Si Si5 0.918967 0.723700 0.170310
Si Si6 0.407964 0.497122 0.862314
Si Si7 0.736541 0.921435 0.214774
O O1 0.519822 0.122812 0.482464
O O2 0.289697 0.040424 0.583145
O O3 0.370529 0.091395 0.667153
O O4 0.745945 0.047149 0.458311
O O5 0.500000 0.371630 0.750000
O O6 0.360965 0.335952 0.919298
O O7 0.219732 0.296061 0.847973
O O8 0.273922 0.720761 0.191454
O O9 0.750000 0.750000 0.000000
O O10 0.585400 0.689057 0.968111
O O11 0.494511 0.719454 0.875065
O O12 0.559250 0.621616 0.883350
O O13 0.152469 0.684679 0.083865
O O14 0.500000 0.481079 0.750000
O O15 0.623527 0.524809 0.826534
O O16 0.500000 0.923149 0.250000
#
# Coordination Sequence:
#
# PCOD9270286 Si02
#       7
#     8   8   8   8   8   8   8
#     4  10  20  38  64  89 119 161 207 259 317 378
#     4  10  20  35  57  87 114 154 207 249 303 369
#     4  11  22  37  58  82 120 161 203 253 304 363
#     4  11  23  39  58  84 126 164 208 258 312 369
#     4  10  23  38  57  86 120 165 210 258 305 371
#     4   9  20  40  62  89 123 156 203 265 318 381
#     4  11  24  37  61  94 125 165 209 258 329 394
#
# _framework density 20.776181000000001
#
# number of rings (size 3 to 8) (size 9 to 14) (size 15 to 20)
#    0.000    1.714    1.429    2.571    4.000    0.571 
#    0.000    1.429    0.000    0.000    0.000    0.000 
#    0.000    0.000    0.000    0.000    0.000    0.000 
#
# Total GULP energy -156085.907145 kJ/mol
# GULP energy per Si atom -5574.496684 kJ/mol
# Density = 2.072889 g / cm^3
# Si number density = 20.776181 Si / 1000 Ang^3
#
#
#
# Elastic Constant Matrix: (Units=GPa)
#
#
# Indices 1 2 3 4 5 6 
#
# 1 68.4399 17.5590 7.9868 0.0000 -6.0435 0.0001
# 2 17.5590 66.4424 38.2936 -0.0001 -0.1522 0.0000
# 3 7.9868 38.2936 105.0132 -0.0002 -0.3925 0.0003
# 4 0.0000 -0.0001 -0.0002 31.5466 0.0001 -8.1738
# 5 -6.0435 -0.1522 -0.3925 0.0001 34.8062 -0.0001
# 6 0.0001 0.0000 0.0003 -8.1738 -0.0001 12.7530
#
#
#
# Elastic Compliance Matrix: (Units=1/GPa)
#
#
# Indices 1 2 3 4 5 6 
#
# 1 0.015947 -0.004450 0.000420 0.000000 0.002754 0.000000
# 2 -0.004450 0.020297 -0.007066 0.000000 -0.000764 0.000000
# 3 0.000420 -0.007066 0.012068 0.000000 0.000178 0.000000
# 4 0.000000 0.000000 0.000000 0.038012 0.000000 0.024363
# 5 0.002754 -0.000764 0.000178 0.000000 0.029207 0.000000
# 6 0.000000 0.000000 0.000000 0.024363 0.000000 0.094028
#
#
# Mechanical properties :
#
#
# Convention : Reuss Voigt Hill
#
# Bulk Modulus (GPa) = 38.28395 40.84156 39.56275
# Shear Modulus (GPa) = 20.79362 27.55824 24.17593
#
# Velocity S-wave (km/s) = 3.16704 3.64598 3.41491
# Velocity P-wave (km/s) = 5.64272 6.11758 5.88494
#
# Compressibility (1/GPa) = 0.02612061
#
# Stress axis : x y z
#
# Youngs Moduli (GPa) = 62.70648 49.26741 82.86420
#
# Poissons Ratio (x) = 0.21926 -0.03483
# Poissons Ratio (y) = 0.27907 0.58551
# Poissons Ratio (z) = -0.02635 0.34812
#
# Static dielectric constant tensor:
#      x y z
#    x 1.813020 0.000000 -0.080810 
#    y 0.000000 1.777430 0.000000 
#    z -0.080810 0.000000 1.690620 
# 
# From -- ./inp_files/81239.got.cif
#   From: 2010.05.17/outbox.cif.g08.bks.cpg/sg15_41_cif.got.tgz:81239.got - 2010.06.03 18:47:42.
