data_PCOD9270213
_publ_section_title
;
Structure prediction by ZEFSAII (Michael W. Deem and Ramdas Pophale) SiO2 
 PCOD9270213
Probable space group: C 2/C
;
_chemical_formula_sum "Si O2"
_cell_formula_units_Z 52
_cell_length_a 16.152142
_cell_length_b 20.286867
_cell_length_c 8.506807
_cell_angle_alpha 90.000000
_cell_angle_beta 61.279747
_cell_angle_gamma 90.000000
_cell_volume 2444.553643
_symmetry_space_group_name_H-M "C 2/C"
_symmetry_group_IT_number 15
_symmetry_cell_setting 'monoclinic'
loop_
_space_group_symop_operation_xyz
x,y,z
-x,y,1/2-z
-x,-y,-z
x,-y,1/2+z
1/2+x,1/2+y,z
1/2-x,1/2+y,1/2-z
1/2-x,1/2-y,-z
1/2+x,1/2-y,1/2+z
loop_
_atom_site_type_symbol
_atom_site_label
_atom_site_fract_x
_atom_site_fract_y
_atom_site_fract_z
Si Si1 0.380315 0.955555 0.948876
Si Si2 0.953748 0.414683 0.538377
Si Si3 0.317935 0.689611 0.595963
Si Si4 0.288787 0.833634 0.617461
Si Si5 0.500000 0.341985 0.750000
Si Si6 0.659918 0.565583 0.699872
Si Si7 0.879208 0.926039 0.616040
O O1 0.410907 0.933979 0.748029
O O2 0.435185 0.911393 0.029083
O O3 0.268995 0.952678 0.064236
O O4 0.421585 0.027472 0.951071
O O5 0.897792 0.351604 0.535858
O O6 0.280062 0.759577 0.691824
O O7 0.242793 0.666162 0.534570
O O8 0.414811 0.697995 0.407515
O O9 0.337184 0.632612 0.703378
O O10 0.220183 0.887501 0.760527
O O11 0.453789 0.387482 0.656274
O O12 0.623091 0.502116 0.828134
O O13 0.607053 0.575258 0.583105
#
# Coordination Sequence:
#
# PCOD9270213 Si02
#       7
#     8   8   8   8   4   8   8
#     4  10  20  35  56  93 122 156 205 244 305 361
#     4  10  20  35  58  86 130 160 199 253 298 368
#     4  10  25  41  66  86 130 160 223 250 325 367
#     4  10  20  44  60  89 123 173 197 261 306 385
#     4  10  24  48  60  94 118 166 210 278 302 384
#     4  12  22  40  65  98 121 173 199 270 306 386
#     4  11  23  39  71  89 131 156 217 254 324 362
#
# _framework density 21.271777
#
# number of rings (size 3 to 8) (size 9 to 14) (size 15 to 20)
#    0.000    1.538    3.077    1.846    2.154    3.692 
#    8.308    1.538    0.000    0.000    0.000    0.000 
#    0.000    0.000    0.000    0.000    0.000    0.000 
#
# Total GULP energy -145236.134319 kJ/mol
# GULP energy per Si atom -5586.005166 kJ/mol
# Density = 2.122336 g / cm^3
# Si number density = 21.271777 Si / 1000 Ang^3
#
#
#
# Elastic Constant Matrix: (Units=GPa)
#
#
# Indices 1 2 3 4 5 6 
#
# 1 93.8860 26.4326 32.7051 0.0000 21.1629 0.0000
# 2 26.4326 103.2106 30.2992 0.0000 35.5158 0.0000
# 3 32.7051 30.2992 47.3007 0.0000 13.7444 0.0000
# 4 0.0000 0.0000 0.0000 19.1781 0.0000 0.5213
# 5 21.1629 35.5158 13.7444 0.0000 30.1731 0.0000
# 6 0.0000 0.0000 0.0000 0.5213 0.0000 21.9548
#
#
#
# Elastic Compliance Matrix: (Units=1/GPa)
#
#
# Indices 1 2 3 4 5 6 
#
# 1 0.015302 0.001736 -0.009197 0.000000 -0.008586 0.000000
# 2 0.001736 0.017881 -0.007128 0.000000 -0.019018 0.000000
# 3 -0.009197 -0.007128 0.031988 0.000000 0.000270 0.000000
# 4 0.000000 0.000000 0.000000 0.052177 0.000000 -0.001239
# 5 -0.008586 -0.019018 0.000270 0.000000 0.061426 0.000000
# 6 0.000000 0.000000 0.000000 -0.001239 0.000000 0.045578
#
#
# Mechanical properties :
#
#
# Convention : Reuss Voigt Hill
#
# Bulk Modulus (GPa) = 27.78396 47.03013 37.40705
# Shear Modulus (GPa) = 18.83045 24.59190 21.71117
#
# Velocity S-wave (km/s) = 2.97851 3.40381 3.19824
# Velocity P-wave (km/s) = 4.99184 6.13229 5.59122
#
# Compressibility (1/GPa) = 0.03599198
#
# Stress axis : x y z
#
# Youngs Moduli (GPa) = 65.35234 55.92477 31.26173
#
# Poissons Ratio (x) = -0.09706 0.28751
# Poissons Ratio (y) = -0.11342 0.22284
# Poissons Ratio (z) = 0.60104 0.39864
#
# Static dielectric constant tensor:
#      x y z
#    x 1.789130 0.000000 -0.036070 
#    y 0.000000 1.769150 0.000000 
#    z -0.036070 0.000000 1.781640 
# 
# From -- ./inp_files/48953.got.cif
#   From: 2010.05.17/outbox.cif.g08.bks.cpg/sg15_25_cif.got.tgz:48953.got - 2010.06.03 18:47:42.
