data_PCOD9270457
_publ_section_title
;
Structure prediction by ZEFSAII (Michael W. Deem and Ramdas Pophale) SiO2 
 PCOD9270457
Probable space group: C 2/C
;
_chemical_formula_sum "Si O2"
_cell_formula_units_Z 56
_cell_length_a 16.562839
_cell_length_b 16.145565
_cell_length_c 26.736960
_cell_angle_alpha 90.000000
_cell_angle_beta 158.436786
_cell_angle_gamma 90.000000
_cell_volume 2627.785581
_symmetry_space_group_name_H-M "C 2/C"
_symmetry_group_IT_number 15
_symmetry_cell_setting 'monoclinic'
loop_
_space_group_symop_operation_xyz
x,y,z
-x,y,1/2-z
-x,-y,-z
x,-y,1/2+z
1/2+x,1/2+y,z
1/2-x,1/2+y,1/2-z
1/2-x,1/2-y,-z
1/2+x,1/2-y,1/2+z
loop_
_atom_site_type_symbol
_atom_site_label
_atom_site_fract_x
_atom_site_fract_y
_atom_site_fract_z
Si Si1 0.089170 0.795896 0.749159
Si Si2 0.380764 0.364367 0.537679
Si Si3 0.812669 0.753192 0.183756
Si Si4 0.540391 0.976065 0.215333
Si Si5 0.393575 0.657016 0.928354
Si Si6 0.502972 0.902485 0.514793
Si Si7 0.614159 0.128181 0.189377
O O1 0.246928 0.726253 0.817094
O O2 0.000000 0.765391 0.750000
O O3 0.903879 0.814134 0.602357
O O4 0.251088 0.871106 0.855995
O O5 0.364836 0.330468 0.471870
O O6 0.633961 0.396341 0.680225
O O7 0.165657 0.419979 0.419727
O O8 0.672891 0.838474 0.110956
O O9 0.888635 0.714054 0.280857
O O10 0.000000 0.765777 0.250000
O O11 0.644878 0.682244 0.065317
O O12 0.500000 0.992705 0.250000
O O13 0.776475 0.929021 0.347415
O O14 0.535952 0.059011 0.182198
O O15 0.480604 0.881989 0.561175
O O16 0.500000 0.000000 0.500000
#
# Coordination Sequence:
#
# PCOD9270457 Si02
#       7
#     8   8   8   8   8   8   8
#     4  10  20  35  59  84 116 162 209 258 324 383
#     4   9  20  36  54  85 124 159 209 264 320 381
#     4  10  22  43  68  93 129 175 217 267 322 392
#     4  10  20  35  61  94 125 165 213 269 328 380
#     4   9  20  37  57  90 129 155 206 270 316 380
#     4  10  24  45  60  92 134 166 216 271 317 384
#     4  10  22  41  63  93 130 169 217 268 325 389
#
# _framework density 21.310718999999999
#
# number of rings (size 3 to 8) (size 9 to 14) (size 15 to 20)
#    0.000    2.286    0.000    1.714    2.000    9.714 
#   12.857    0.000    0.000    0.000    0.000    0.000 
#    0.000    0.000    0.000    0.000    0.000    0.000 
#
# Total GULP energy -155909.151741 kJ/mol
# GULP energy per Si atom -5568.183991 kJ/mol
# Density = 2.126221 g / cm^3
# Si number density = 21.310719 Si / 1000 Ang^3
#
#
#
# Elastic Constant Matrix: (Units=GPa)
#
#
# Indices 1 2 3 4 5 6 
#
# 1 40.9294 20.6871 35.4966 0.0024 -5.5066 -0.0039
# 2 20.6871 75.8630 34.0486 0.0027 -4.1699 -0.0029
# 3 35.4966 34.0486 75.0748 0.0279 -8.2911 -0.0309
# 4 0.0024 0.0027 0.0279 116.3053 0.0022 -102.9850
# 5 -5.5066 -4.1699 -8.2911 0.0022 38.3928 -0.0045
# 6 -0.0039 -0.0029 -0.0309 -102.9850 -0.0045 130.5883
#
#
#
# Elastic Compliance Matrix: (Units=1/GPa)
#
#
# Indices 1 2 3 4 5 6 
#
# 1 0.042135 -0.003188 -0.018283 0.000003 0.001749 -0.000001
# 2 -0.003188 0.016793 -0.006103 0.000000 0.000049 -0.000001
# 3 -0.018283 -0.006103 0.024965 -0.000003 0.002106 0.000003
# 4 0.000003 0.000000 -0.000003 0.028499 0.000001 0.022475
# 5 0.001749 0.000049 0.002106 0.000001 0.026757 0.000002
# 6 -0.000001 -0.000001 0.000003 0.022475 0.000002 0.025382
#
#
# Mechanical properties :
#
#
# Convention : Reuss Voigt Hill
#
# Bulk Modulus (GPa) = 34.78946 41.37019 38.07983
# Shear Modulus (GPa) = 21.80903 63.83294 42.82099
#
# Velocity S-wave (km/s) = 3.20251 5.47891 4.48746
# Velocity P-wave (km/s) = 5.48042 7.71230 6.69009
#
# Compressibility (1/GPa) = 0.02874434
#
# Stress axis : x y z
#
# Youngs Moduli (GPa) = 23.73308 59.54873 40.05546
#
# Poissons Ratio (x) = 0.18984 0.73235
# Poissons Ratio (y) = 0.07566 0.24448
# Poissons Ratio (z) = 0.43392 0.36345
#
# Static dielectric constant tensor:
#      x y z
#    x 1.819790 0.000000 -0.001580 
#    y 0.000000 1.809760 -0.000010 
#    z -0.001580 -0.000010 1.832540 
# 
# From -- ./inp_files/299357.got.cif
#   From: 2010.05.17/outbox.cif.g08.bks.cpg/sg15_150_cif.got.tgz:299357.got - 2010.06.03 18:47:42.
