data_PCOD9270847
_publ_section_title
;
Structure prediction by ZEFSAII (Michael W. Deem and Ramdas Pophale) SiO2 
 PCOD9270847
Probable space group: C 2/C
;
_chemical_formula_sum "Si O2"
_cell_formula_units_Z 44
_cell_length_a 11.328864
_cell_length_b 19.874095
_cell_length_c 11.359635
_cell_angle_alpha 90.000000
_cell_angle_beta 39.744355
_cell_angle_gamma 90.000000
_cell_volume 1635.256076
_symmetry_space_group_name_H-M "C 2/C"
_symmetry_group_IT_number 15
_symmetry_cell_setting 'monoclinic'
loop_
_space_group_symop_operation_xyz
x,y,z
-x,y,1/2-z
-x,-y,-z
x,-y,1/2+z
1/2+x,1/2+y,z
1/2-x,1/2+y,1/2-z
1/2-x,1/2-y,-z
1/2+x,1/2-y,1/2+z
loop_
_atom_site_type_symbol
_atom_site_label
_atom_site_fract_x
_atom_site_fract_y
_atom_site_fract_z
Si Si1 0.057258 0.406033 0.856000
Si Si2 0.697869 0.647198 0.690498
Si Si3 0.694392 0.530998 0.886607
Si Si4 0.834325 0.385240 0.465643
Si Si5 0.135350 0.207167 0.419396
Si Si6 0.500000 0.709365 0.250000
O O1 0.147189 0.475532 0.746225
O O2 0.189129 0.342454 0.725863
O O3 0.084350 0.408258 0.975269
O O4 0.839177 0.396088 0.997425
O O5 0.710816 0.597723 0.794504
O O6 0.799319 0.718268 0.602325
O O7 0.487809 0.673073 0.881588
O O8 0.705177 0.557241 0.010651
O O9 0.500000 0.500000 0.000000
O O10 0.701453 0.322953 0.580779
O O11 0.000000 0.368406 0.250000
O O12 0.032094 0.220492 0.371872
#
# Coordination Sequence:
#
# PCOD9270847 Si02
#       6
#     8   8   8   8   8   4
#     4  11  23  39  61  86 123 162 202 248 298 350
#     4  12  22  38  56  87 121 162 204 240 295 365
#     4  12  23  40  61  87 125 164 203 253 300 354
#     4  11  21  37  59  85 121 159 203 242 290 359
#     4  11  22  35  56  83 120 160 201 239 293 362
#     4  10  20  36  52  84 124 162 190 240 286 352
#
# _framework density 26.907098999999999
#
# number of rings (size 3 to 8) (size 9 to 14) (size 15 to 20)
#    0.000    0.727    7.273    1.636    0.000    2.182 
#    0.000    0.000    0.000    0.000    0.000    1.273 
#    5.455    0.182    0.000    0.000    0.000    0.000 
#
# Total GULP energy -122634.919682 kJ/mol
# GULP energy per Si atom -5574.314531 kJ/mol
# Density = 2.684586 g / cm^3
# Si number density = 26.907099 Si / 1000 Ang^3
#
#
#
# Elastic Constant Matrix: (Units=GPa)
#
#
# Indices 1 2 3 4 5 6 
#
# 1 63.5510 -3.7231 50.0955 -0.0001 -17.2018 0.0000
# 2 -3.7231 103.7302 44.1176 -0.0001 5.1881 0.0000
# 3 50.0955 44.1176 159.7593 0.0000 -16.8242 0.0001
# 4 -0.0001 -0.0001 0.0000 24.9582 0.0000 -12.2556
# 5 -17.2018 5.1881 -16.8242 0.0000 32.8978 0.0000
# 6 0.0000 0.0000 0.0001 -12.2556 0.0000 16.2124
#
#
#
# Elastic Compliance Matrix: (Units=1/GPa)
#
#
# Indices 1 2 3 4 5 6 
#
# 1 0.024317 0.003791 -0.007817 0.000000 0.008120 0.000000
# 2 0.003791 0.011898 -0.004717 0.000000 -0.002306 0.000000
# 3 -0.007817 -0.004717 0.010211 0.000000 0.001879 0.000000
# 4 0.000000 0.000000 0.000000 0.063720 0.000000 0.048168
# 5 0.008120 -0.002306 0.001879 0.000000 0.035967 0.000000
# 6 0.000000 0.000000 0.000000 0.048168 0.000000 0.098093
#
#
# Mechanical properties :
#
#
# Convention : Reuss Voigt Hill
#
# Bulk Modulus (GPa) = 34.55383 56.44671 45.50027
# Shear Modulus (GPa) = 18.42705 30.58371 24.50538
#
# Velocity S-wave (km/s) = 2.61978 3.37507 3.02112
# Velocity P-wave (km/s) = 4.69263 6.01764 5.39596
#
# Compressibility (1/GPa) = 0.02894035
#
# Stress axis : x y z
#
# Youngs Moduli (GPa) = 41.12314 84.04621 97.93213
#
# Poissons Ratio (x) = -0.31865 0.76554
# Poissons Ratio (y) = -0.15591 0.46199
# Poissons Ratio (z) = 0.32146 0.39648
#
# Static dielectric constant tensor:
#      x y z
#    x 2.155460 0.000000 -0.020160 
#    y 0.000000 2.094540 0.000000 
#    z -0.020160 0.000000 2.152190 
# 
# From -- ./inp_files/156107.got.cif
#   From: 2010.05.17/outbox.cif.g08.bks.cpg/sg15_79_cif.got.tgz:156107.got - 2010.06.03 18:47:42.
