data_PCOD9270580
_publ_section_title
;
Structure prediction by ZEFSAII (Michael W. Deem and Ramdas Pophale) SiO2 
 PCOD9270580
Probable space group: C 2/C
;
_chemical_formula_sum "Si O2"
_cell_formula_units_Z 64
_cell_length_a 18.477512
_cell_length_b 11.938294
_cell_length_c 17.401999
_cell_angle_alpha 90.000000
_cell_angle_beta 128.034425
_cell_angle_gamma 90.000000
_cell_volume 3023.521449
_symmetry_space_group_name_H-M "C 2/C"
_symmetry_group_IT_number 15
_symmetry_cell_setting 'monoclinic'
loop_
_space_group_symop_operation_xyz
x,y,z
-x,y,1/2-z
-x,-y,-z
x,-y,1/2+z
1/2+x,1/2+y,z
1/2-x,1/2+y,1/2-z
1/2-x,1/2-y,-z
1/2+x,1/2-y,1/2+z
loop_
_atom_site_type_symbol
_atom_site_label
_atom_site_fract_x
_atom_site_fract_y
_atom_site_fract_z
Si Si1 0.329823 0.673229 0.089916
Si Si2 0.184570 0.271150 0.725755
Si Si3 0.592587 0.896339 0.351633
Si Si4 0.607588 0.450364 0.139122
Si Si5 0.123280 0.352494 0.138598
Si Si6 0.302174 0.011323 0.190170
Si Si7 0.832699 0.432588 0.934363
Si Si8 0.488684 0.351919 0.571633
O O1 0.390125 0.770495 0.170027
O O2 0.272844 0.585288 0.104012
O O3 0.400649 0.638689 0.069753
O O4 0.250000 0.750000 0.000000
O O5 0.128960 0.158077 0.703194
O O6 0.289039 0.228699 0.794630
O O7 0.172921 0.360857 0.784268
O O8 0.161637 0.339496 0.631282
O O9 0.500000 0.938156 0.250000
O O10 0.680934 0.968067 0.383105
O O11 0.601773 0.904489 0.449997
O O12 0.702308 0.488950 0.160355
O O13 0.562688 0.557088 0.149096
O O14 0.543994 0.398193 0.031569
O O15 0.129220 0.436692 0.213910
O O16 0.140154 0.443709 0.080416
O O17 0.038483 0.266632 0.088169
#
# Coordination Sequence:
#
# PCOD9270580 Si02
#       8
#     8   8   8   8   8   8   8   8
#     4  10  20  38  60  91 130 164 210 272 336 387
#     4  10  20  40  64  88 128 172 219 266 327 400
#     4  11  22  38  60  97 130 169 217 275 335 397
#     4  10  20  35  60  91 123 164 213 266 322 381
#     4  10  21  39  64  99 125 167 225 272 328 397
#     4  10  20  38  65  86 129 171 216 268 330 391
#     4  10  22  40  68  95 133 170 216 275 342 390
#     4  11  21  36  64  96 126 159 221 271 322 395
#
# _framework density 21.167370999999999
#
# number of rings (size 3 to 8) (size 9 to 14) (size 15 to 20)
#    0.000    1.750    1.250    5.250    0.000    1.000 
#    0.000    6.875    2.750    0.000    0.000    0.000 
#    0.000    0.000    0.000    0.000    0.000    0.000 
#
# Total GULP energy -178253.232569 kJ/mol
# GULP energy per Si atom -5570.413518 kJ/mol
# Density = 2.111919 g / cm^3
# Si number density = 21.167371 Si / 1000 Ang^3
#
#
#
# Elastic Constant Matrix: (Units=GPa)
#
#
# Indices 1 2 3 4 5 6 
#
# 1 95.2749 64.3054 26.8487 0.0000 15.9282 0.0000
# 2 64.3054 156.2735 30.2801 0.0000 10.1154 0.0000
# 3 26.8487 30.2801 68.0191 0.0000 12.1426 0.0000
# 4 0.0000 0.0000 0.0000 23.0772 0.0000 -6.4275
# 5 15.9282 10.1154 12.1426 0.0000 25.1870 0.0000
# 6 0.0000 0.0000 0.0000 -6.4275 0.0000 10.3234
#
#
#
# Elastic Compliance Matrix: (Units=1/GPa)
#
#
# Indices 1 2 3 4 5 6 
#
# 1 0.016231 -0.005730 -0.002663 0.000000 -0.006679 0.000000
# 2 -0.005730 0.009074 -0.001941 0.000000 0.000915 0.000000
# 3 -0.002663 -0.001941 0.017701 0.000000 -0.006070 0.000000
# 4 0.000000 0.000000 0.000000 0.052424 0.000000 0.032639
# 5 -0.006679 0.000915 -0.006070 0.000000 0.046485 0.000000
# 6 0.000000 0.000000 0.000000 0.032639 0.000000 0.117189
#
#
# Mechanical properties :
#
#
# Convention : Reuss Voigt Hill
#
# Bulk Modulus (GPa) = 44.77103 62.49286 53.63195
# Shear Modulus (GPa) = 17.40841 24.92642 21.16742
#
# Velocity S-wave (km/s) = 2.87089 3.43532 3.16571
# Velocity P-wave (km/s) = 5.67329 6.73220 6.22530
#
# Compressibility (1/GPa) = 0.02233587
#
# Stress axis : x y z
#
# Youngs Moduli (GPa) = 61.61108 110.20609 56.49522
#
# Poissons Ratio (x) = 0.63154 0.15047
# Poissons Ratio (y) = 0.35306 0.10965
# Poissons Ratio (z) = 0.16409 0.21390
#
# Static dielectric constant tensor:
#      x y z
#    x 1.882730 0.000000 0.032770 
#    y 0.000000 1.818680 0.000000 
#    z 0.032770 0.000000 1.862130 
# 
# From -- ./inp_files/248652.got.cif
#   From: 2010.05.17/outbox.cif.g08.bks.cpg/sg15_125_cif.got.tgz:248652.got - 2010.06.03 18:47:42.
