data_PCOD9270358
_publ_section_title
;
Structure prediction by ZEFSAII (Michael W. Deem and Ramdas Pophale) SiO2 
 PCOD9270358
Probable space group: C 2/C
;
_chemical_formula_sum "Si O2"
_cell_formula_units_Z 64
_cell_length_a 10.774077
_cell_length_b 19.980422
_cell_length_c 17.895355
_cell_angle_alpha 90.000000
_cell_angle_beta 57.685955
_cell_angle_gamma 90.000000
_cell_volume 3255.734564
_symmetry_space_group_name_H-M "C 2/C"
_symmetry_group_IT_number 15
_symmetry_cell_setting 'monoclinic'
loop_
_space_group_symop_operation_xyz
x,y,z
-x,y,1/2-z
-x,-y,-z
x,-y,1/2+z
1/2+x,1/2+y,z
1/2-x,1/2+y,1/2-z
1/2-x,1/2-y,-z
1/2+x,1/2-y,1/2+z
loop_
_atom_site_type_symbol
_atom_site_label
_atom_site_fract_x
_atom_site_fract_y
_atom_site_fract_z
Si Si1 0.838735 0.935533 0.521927
Si Si2 0.716471 0.674330 0.131235
Si Si3 0.637937 0.050298 0.954136
Si Si4 0.718286 0.175857 0.635323
Si Si5 0.001747 0.826007 0.933118
Si Si6 0.842945 0.954643 0.139879
Si Si7 0.829282 0.960001 0.788700
Si Si8 0.995576 0.675108 0.928836
O O1 0.698133 0.925191 0.514959
O O2 0.885603 0.880234 0.569248
O O3 0.982941 0.939673 0.422407
O O4 0.814781 0.006411 0.571109
O O5 0.706503 0.748549 0.168671
O O6 0.574695 0.661228 0.122922
O O7 0.731050 0.614982 0.184985
O O8 0.857496 0.673122 0.031106
O O9 0.600324 0.115444 0.918162
O O10 0.759524 0.005267 0.875409
O O11 0.500000 0.000000 0.000000
O O12 0.861121 0.174466 0.534409
O O13 0.751054 0.113388 0.677175
O O14 0.576755 0.165124 0.628979
O O15 0.060117 0.749992 0.912831
O O16 0.804654 0.004568 0.218220
O O17 0.000000 0.957348 0.750000
#
# Coordination Sequence:
#
# PCOD9270358 Si02
#       8
#     8   8   8   8   8   8   8   8
#     4  10  20  35  58  84 114 156 195 236 291 346
#     4   9  17  34  60  85 112 146 196 246 292 335
#     4  12  23  36  57  84 121 156 190 236 294 358
#     4   8  16  33  59  85 112 150 191 244 292 339
#     4   8  16  31  59  88 111 146 200 244 279 344
#     4  10  20  36  58  84 116 150 198 243 283 345
#     4  12  23  37  56  88 117 150 198 243 287 341
#     4   9  17  34  57  87 116 150 192 238 291 350
#
# _framework density 19.657623999999998
#
# number of rings (size 3 to 8) (size 9 to 14) (size 15 to 20)
#    0.000    2.250    2.500    3.000    3.500    0.500 
#    0.000    6.250    0.000    0.000    0.000    0.000 
#    0.000    0.000    0.000    0.000    0.000    0.000 
#
# Total GULP energy -178561.847804 kJ/mol
# GULP energy per Si atom -5580.057744 kJ/mol
# Density = 1.961288 g / cm^3
# Si number density = 19.657624 Si / 1000 Ang^3
#
#
#
# Elastic Constant Matrix: (Units=GPa)
#
#
# Indices 1 2 3 4 5 6 
#
# 1 64.8744 54.3234 6.2179 0.0000 9.6368 0.0000
# 2 54.3234 168.7413 31.4863 0.0000 16.8897 0.0000
# 3 6.2179 31.4863 37.8224 0.0000 3.1594 0.0000
# 4 0.0000 0.0000 0.0000 29.3080 0.0000 10.9460
# 5 9.6368 16.8897 3.1594 0.0000 19.7113 0.0000
# 6 0.0000 0.0000 0.0000 10.9460 0.0000 26.7674
#
#
#
# Elastic Compliance Matrix: (Units=1/GPa)
#
#
# Indices 1 2 3 4 5 6 
#
# 1 0.021774 -0.007000 0.002672 0.000000 -0.005075 0.000000
# 2 -0.007000 0.009822 -0.006698 0.000000 -0.003920 0.000000
# 3 0.002672 -0.006698 0.031630 0.000000 -0.000636 0.000000
# 4 0.000000 0.000000 0.000000 0.040271 0.000000 -0.016468
# 5 -0.005075 -0.003920 -0.000636 0.000000 0.056675 0.000000
# 6 0.000000 0.000000 0.000000 -0.016468 0.000000 0.044093
#
#
# Mechanical properties :
#
#
# Convention : Reuss Voigt Hill
#
# Bulk Modulus (GPa) = 24.28824 50.61035 37.44929
# Shear Modulus (GPa) = 20.82969 27.11803 23.97386
#
# Velocity S-wave (km/s) = 3.25872 3.71821 3.49602
# Velocity P-wave (km/s) = 5.15184 6.65096 5.94881
#
# Compressibility (1/GPa) = 0.04117219
#
# Stress axis : x y z
#
# Youngs Moduli (GPa) = 45.92625 101.81075 31.61597
#
# Poissons Ratio (x) = 0.71271 -0.08448
# Poissons Ratio (y) = 0.32150 0.21178
# Poissons Ratio (z) = -0.12272 0.68197
#
# Static dielectric constant tensor:
#      x y z
#    x 1.677190 0.000000 -0.006410 
#    y 0.000000 1.709270 0.000000 
#    z -0.006410 0.000000 1.742510 
# 
# From -- ./inp_files/200162.got.cif
#   From: 2010.05.17/outbox.cif.g08.bks.cpg/sg15_101_cif.got.tgz:200162.got - 2010.06.03 18:47:42.
