data_PCOD9270880
_publ_section_title
;
Structure prediction by ZEFSAII (Michael W. Deem and Ramdas Pophale) SiO2 
 PCOD9270880
Probable space group: C 2/C
;
_chemical_formula_sum "Si O2"
_cell_formula_units_Z 28
_cell_length_a 10.634508
_cell_length_b 23.648595
_cell_length_c 5.169772
_cell_angle_alpha 90.000000
_cell_angle_beta 118.352518
_cell_angle_gamma 90.000000
_cell_volume 1144.188944
_symmetry_space_group_name_H-M "C 2/C"
_symmetry_group_IT_number 15
_symmetry_cell_setting 'monoclinic'
loop_
_space_group_symop_operation_xyz
x,y,z
-x,y,1/2-z
-x,-y,-z
x,-y,1/2+z
1/2+x,1/2+y,z
1/2-x,1/2+y,1/2-z
1/2-x,1/2-y,-z
1/2+x,1/2-y,1/2+z
loop_
_atom_site_type_symbol
_atom_site_label
_atom_site_fract_x
_atom_site_fract_y
_atom_site_fract_z
Si Si1 0.827981 0.968645 0.594454
Si Si2 0.345343 0.201197 0.963213
Si Si3 0.500000 0.266235 0.750000
Si Si4 0.874039 0.133269 0.470685
O O1 0.808313 0.905040 0.681267
O O2 0.000000 0.972641 0.750000
O O3 0.772792 0.989311 0.264986
O O4 0.500000 0.198705 0.250000
O O5 0.249662 0.148383 0.947340
O O6 0.250000 0.250000 0.000000
O O7 0.376008 0.220038 0.698541
O O8 0.541265 0.312236 0.568188
O O9 0.000000 0.101979 0.750000
#
# Coordination Sequence:
#
# PCOD9270880 Si02
#       4
#     8   8   4   8
#     4  10  20  37  60  93 125 156 203 263 314 361
#     4  10  22  38  55  83 120 157 203 243 302 363
#     4  10  20  36  54  82 114 158 186 252 286 376
#     4  11  22  35  58  88 118 155 199 251 309 363
#
# _framework density 24.471485999999999
#
# number of rings (size 3 to 8) (size 9 to 14) (size 15 to 20)
#    0.000    1.714    1.429    6.000    0.000   10.286 
#    0.000    0.000    0.000    1.714    0.000    0.000 
#    0.000    0.000    0.000    0.000    0.000    0.000 
#
# Total GULP energy -77989.598096 kJ/mol
# GULP energy per Si atom -5570.685578 kJ/mol
# Density = 2.441579 g / cm^3
# Si number density = 24.471486 Si / 1000 Ang^3
#
#
#
# Elastic Constant Matrix: (Units=GPa)
#
#
# Indices 1 2 3 4 5 6 
#
# 1 166.0355 49.6764 57.9075 0.0000 -24.5948 0.0000
# 2 49.6764 112.8456 25.6433 0.0000 -25.5559 0.0000
# 3 57.9075 25.6433 80.6827 0.0000 -18.1493 0.0000
# 4 0.0000 0.0000 0.0000 31.5353 0.0000 -15.2737
# 5 -24.5948 -25.5559 -18.1493 0.0000 57.0512 0.0000
# 6 0.0000 0.0000 0.0000 -15.2737 0.0000 14.3550
#
#
#
# Elastic Compliance Matrix: (Units=1/GPa)
#
#
# Indices 1 2 3 4 5 6 
#
# 1 0.008735 -0.002419 -0.005274 0.000000 0.001004 0.000000
# 2 -0.002419 0.010947 -0.000942 0.000000 0.003561 0.000000
# 3 -0.005274 -0.000942 0.017096 0.000000 0.002743 0.000000
# 4 0.000000 0.000000 0.000000 0.065427 0.000000 0.069614
# 5 0.001004 0.003561 0.002743 0.000000 0.020429 0.000000
# 6 0.000000 0.000000 0.000000 0.069614 0.000000 0.143731
#
#
# Mechanical properties :
#
#
# Convention : Reuss Voigt Hill
#
# Bulk Modulus (GPa) = 51.26356 69.55759 60.41057
# Shear Modulus (GPa) = 17.23314 35.67740 26.45527
#
# Velocity S-wave (km/s) = 2.65658 3.82241 3.29152
# Velocity P-wave (km/s) = 5.51395 6.92580 6.25981
#
# Compressibility (1/GPa) = 0.01950704
#
# Stress axis : x y z
#
# Youngs Moduli (GPa) = 114.48320 91.34743 58.49264
#
# Poissons Ratio (x) = 0.22100 0.30852
# Poissons Ratio (y) = 0.27697 0.05509
# Poissons Ratio (z) = 0.60383 0.08604
#
# Static dielectric constant tensor:
#      x y z
#    x 1.907720 0.000000 -0.009660 
#    y 0.000000 2.069620 0.000000 
#    z -0.009660 0.000000 2.068620 
# 
# From -- ./inp_files/5238.got.cif
#   From: 2010.05.17/outbox.cif.g08.bks.cpg/sg15_3_cif.got.tgz:5238.got - 2010.06.03 18:47:42.
