data_PCOD9270524
_publ_section_title
;
Structure prediction by ZEFSAII (Michael W. Deem and Ramdas Pophale) SiO2 
 PCOD9270524
Probable space group: C 2/C
;
_chemical_formula_sum "Si O2"
_cell_formula_units_Z 60
_cell_length_a 21.148677
_cell_length_b 11.711734
_cell_length_c 17.184381
_cell_angle_alpha 90.000000
_cell_angle_beta 142.382845
_cell_angle_gamma 90.000000
_cell_volume 2598.006715
_symmetry_space_group_name_H-M "C 2/C"
_symmetry_group_IT_number 15
_symmetry_cell_setting 'monoclinic'
loop_
_space_group_symop_operation_xyz
x,y,z
-x,y,1/2-z
-x,-y,-z
x,-y,1/2+z
1/2+x,1/2+y,z
1/2-x,1/2+y,1/2-z
1/2-x,1/2-y,-z
1/2+x,1/2-y,1/2+z
loop_
_atom_site_type_symbol
_atom_site_label
_atom_site_fract_x
_atom_site_fract_y
_atom_site_fract_z
Si Si1 0.992566 0.839157 0.027729
Si Si2 0.528884 0.166836 0.952600
Si Si3 0.846209 0.465635 0.343502
Si Si4 0.882761 0.019044 0.154867
Si Si5 0.500000 0.100469 0.750000
Si Si6 0.694849 0.033008 0.372844
Si Si7 0.642653 0.533761 0.204890
Si Si8 0.415312 0.255124 0.229540
O O1 0.021760 0.756311 0.127474
O O2 0.039430 0.957706 0.105141
O O3 0.055327 0.788982 0.014800
O O4 0.879682 0.873825 0.884183
O O5 0.423577 0.137070 0.899010
O O6 0.517467 0.166410 0.848768
O O7 0.600885 0.062655 0.051038
O O8 0.824798 0.511948 0.236681
O O9 0.736148 0.448768 0.276406
O O10 0.883928 0.883767 0.177432
O O11 0.000000 0.052675 0.250000
O O12 0.844666 0.082524 0.196061
O O13 0.801133 0.022504 0.005722
O O14 0.398248 0.025318 0.669139
O O15 0.680258 0.168874 0.366615
O O16 0.500000 0.216785 0.250000
#
# Coordination Sequence:
#
# PCOD9270524 Si02
#       8
#     8   8   8   8   4   8   8   8
#     4  10  22  40  62  88 125 168 211 254 319 381
#     4  10  21  42  60  94 125 161 213 258 317 381
#     4  10  22  36  65  90 122 163 206 262 313 377
#     4  10  23  38  58  90 123 162 205 256 323 386
#     4  10  22  38  64  90 122 162 208 264 316 368
#     4  11  20  37  61  89 124 160 205 260 320 374
#     4  10  23  41  60  89 123 171 207 259 312 382
#     4  10  20  35  59  94 119 157 200 263 322 374
#
# _framework density 23.094628
#
# number of rings (size 3 to 8) (size 9 to 14) (size 15 to 20)
#    0.000    1.867    2.000    1.200    7.467    2.133 
#    1.200    0.000    1.467    4.000    0.000    0.000 
#    0.000    0.000    0.000    0.000    0.000    0.000 
#
# Total GULP energy -167271.610104 kJ/mol
# GULP energy per Si atom -5575.720337 kJ/mol
# Density = 2.304206 g / cm^3
# Si number density = 23.094628 Si / 1000 Ang^3
#
#
#
# Elastic Constant Matrix: (Units=GPa)
#
#
# Indices 1 2 3 4 5 6 
#
# 1 85.2436 -2.3231 35.0909 0.0000 -14.3165 0.0000
# 2 -2.3231 31.6706 13.8516 0.0000 -11.3656 0.0000
# 3 35.0909 13.8516 118.5208 0.0000 -21.1541 0.0000
# 4 0.0000 0.0000 0.0000 15.2524 0.0000 -1.2838
# 5 -14.3165 -11.3656 -21.1541 0.0000 45.9234 0.0000
# 6 0.0000 0.0000 0.0000 -1.2838 0.0000 7.4503
#
#
#
# Elastic Compliance Matrix: (Units=1/GPa)
#
#
# Indices 1 2 3 4 5 6 
#
# 1 0.014090 0.004062 -0.004013 0.000000 0.003549 0.000000
# 2 0.004062 0.036663 -0.003968 0.000000 0.008512 0.000000
# 3 -0.004013 -0.003968 0.010559 0.000000 0.002631 0.000000
# 4 0.000000 0.000000 0.000000 0.066528 0.000000 0.011463
# 5 0.003549 0.008512 0.002631 0.000000 0.026200 0.000000
# 6 0.000000 0.000000 0.000000 0.011463 0.000000 0.136199
#
#
# Mechanical properties :
#
#
# Convention : Reuss Voigt Hill
#
# Bulk Modulus (GPa) = 18.70059 36.51933 27.60996
# Shear Modulus (GPa) = 15.82771 26.31292 21.07032
#
# Velocity S-wave (km/s) = 2.62074 3.37909 3.02379
# Velocity P-wave (km/s) = 4.15604 5.57419 4.91652
#
# Compressibility (1/GPa) = 0.05347424
#
# Stress axis : x y z
#
# Youngs Moduli (GPa) = 70.97318 27.27517 94.70806
#
# Poissons Ratio (x) = -0.11080 0.38005
# Poissons Ratio (y) = -0.28832 0.37583
# Poissons Ratio (z) = 0.28481 0.10824
#
# Static dielectric constant tensor:
#      x y z
#    x 1.888770 0.000000 0.002440 
#    y 0.000000 1.985940 0.000000 
#    z 0.002440 0.000000 1.955560 
# 
# From -- ./inp_files/215236.got.cif
#   From: 2010.05.17/outbox.cif.g08.bks.cpg/sg15_108_cif.got.tgz:215236.got - 2010.06.03 18:47:42.
