data_PCOD9270491
_publ_section_title
;
Structure prediction by ZEFSAII (Michael W. Deem and Ramdas Pophale) SiO2 
 PCOD9270491
Probable space group: C 2/C
;
_chemical_formula_sum "Si O2"
_cell_formula_units_Z 48
_cell_length_a 14.914436
_cell_length_b 9.450943
_cell_length_c 31.170364
_cell_angle_alpha 90.000000
_cell_angle_beta 152.204220
_cell_angle_gamma 90.000000
_cell_volume 2048.845829
_symmetry_space_group_name_H-M "C 2/C"
_symmetry_group_IT_number 15
_symmetry_cell_setting 'monoclinic'
loop_
_space_group_symop_operation_xyz
x,y,z
-x,y,1/2-z
-x,-y,-z
x,-y,1/2+z
1/2+x,1/2+y,z
1/2-x,1/2+y,1/2-z
1/2-x,1/2-y,-z
1/2+x,1/2-y,1/2+z
loop_
_atom_site_type_symbol
_atom_site_label
_atom_site_fract_x
_atom_site_fract_y
_atom_site_fract_z
Si Si1 0.950044 0.869967 0.366867
Si Si2 0.500000 0.613153 0.250000
Si Si3 0.787556 0.060821 0.594661
Si Si4 0.754486 0.176276 0.281974
Si Si5 0.500000 0.087550 0.250000
Si Si6 0.512363 0.812712 0.048923
Si Si7 0.314907 0.351665 0.398307
O O1 0.814568 0.746755 0.290825
O O2 0.971100 0.858736 0.426678
O O3 0.136355 0.867446 0.416024
O O4 0.840635 0.019909 0.313686
O O5 0.532672 0.514863 0.305186
O O6 0.682896 0.716621 0.329645
O O7 0.682263 0.149523 0.587295
O O8 0.634031 0.942831 0.514699
O O9 0.910306 0.274387 0.371872
O O10 0.579514 0.169195 0.242373
O O11 0.676326 0.986187 0.338456
O O12 0.405412 0.679065 0.982451
#
# Coordination Sequence:
#
# PCOD9270491 Si02
#       7
#     8   4   8   8   4   8   8
#     4  11  23  38  61  90 120 154 198 251 298 346
#     4   9  16  35  60  80 116 162 200 230 288 372
#     4  10  20  35  59  88 119 160 200 242 292 351
#     4  11  23  41  64  90 120 157 201 247 295 353
#     4   9  20  39  64  84 112 162 200 234 296 372
#     4  10  22  39  59  86 122 161 199 241 297 359
#     4   9  20  38  59  86 117 153 196 246 300 350
#
# _framework density 23.427824999999999
#
# number of rings (size 3 to 8) (size 9 to 14) (size 15 to 20)
#    0.000    2.000    0.000    3.000    0.000    8.000 
#    0.000    5.000    0.000    0.000    0.000    0.000 
#    0.000    0.000    0.000    0.000    0.000    0.000 
#
# Total GULP energy -134277.705596 kJ/mol
# GULP energy per Si atom -5594.904400 kJ/mol
# Density = 2.337450 g / cm^3
# Si number density = 23.427825 Si / 1000 Ang^3
#
#
#
# Elastic Constant Matrix: (Units=GPa)
#
#
# Indices 1 2 3 4 5 6 
#
# 1 50.5717 -13.1445 5.4116 0.0001 1.1650 0.0000
# 2 -13.1445 49.7362 -2.1804 0.0001 1.5857 0.0000
# 3 5.4116 -2.1804 44.3740 0.0002 4.1006 0.0001
# 4 0.0001 0.0001 0.0002 26.6951 0.0001 -9.9085
# 5 1.1650 1.5857 4.1006 0.0001 19.9649 0.0001
# 6 0.0000 0.0000 0.0001 -9.9085 0.0001 27.5693
#
#
#
# Elastic Compliance Matrix: (Units=1/GPa)
#
#
# Indices 1 2 3 4 5 6 
#
# 1 0.021503 0.005625 -0.002231 0.000000 -0.001243 0.000000
# 2 0.005625 0.021687 0.000580 0.000000 -0.002170 0.000000
# 3 -0.002231 0.000580 0.023270 0.000000 -0.004695 0.000000
# 4 0.000000 0.000000 0.000000 0.043227 0.000000 0.015536
# 5 -0.001243 -0.002170 -0.004695 0.000000 0.051297 0.000000
# 6 0.000000 0.000000 0.000000 0.015536 0.000000 0.041856
#
#
# Mechanical properties :
#
#
# Convention : Reuss Voigt Hill
#
# Bulk Modulus (GPa) = 13.43932 13.87281 13.65606
# Shear Modulus (GPa) = 22.75876 25.15220 23.95548
#
# Velocity S-wave (km/s) = 3.12018 3.28014 3.20116
# Velocity P-wave (km/s) = 4.32777 4.50335 4.41643
#
# Compressibility (1/GPa) = 0.07440852
#
# Stress axis : x y z
#
# Youngs Moduli (GPa) = 46.50449 46.11002 42.97339
#
# Poissons Ratio (x) = -0.25936 0.09588
# Poissons Ratio (y) = -0.26158 -0.02493
# Poissons Ratio (z) = 0.10376 -0.02675
#
# Static dielectric constant tensor:
#      x y z
#    x 1.845440 0.000000 0.035720 
#    y 0.000000 1.894810 0.000000 
#    z 0.035720 0.000000 1.874900 
# 
# From -- ./inp_files/313655.got.cif
#   From: 2010.05.17/outbox.cif.g08.bks.cpg/sg15_157_cif.got.tgz:313655.got - 2010.06.03 18:47:42.
