data_PCOD9270094
_publ_section_title
;
Structure prediction by ZEFSAII (Michael W. Deem and Ramdas Pophale) SiO2 
 PCOD9270094
Probable space group: C 2/C
;
_chemical_formula_sum "Si O2"
_cell_formula_units_Z 48
_cell_length_a 10.806219
_cell_length_b 8.664487
_cell_length_c 18.939373
_cell_angle_alpha 90.000000
_cell_angle_beta 98.499725
_cell_angle_gamma 90.000000
_cell_volume 1753.823098
_symmetry_space_group_name_H-M "C 2/C"
_symmetry_group_IT_number 15
_symmetry_cell_setting 'monoclinic'
loop_
_space_group_symop_operation_xyz
x,y,z
-x,y,1/2-z
-x,-y,-z
x,-y,1/2+z
1/2+x,1/2+y,z
1/2-x,1/2+y,1/2-z
1/2-x,1/2-y,-z
1/2+x,1/2-y,1/2+z
loop_
_atom_site_type_symbol
_atom_site_label
_atom_site_fract_x
_atom_site_fract_y
_atom_site_fract_z
Si Si1 0.373493 0.659818 0.333845
Si Si2 0.745558 0.608157 0.738254
Si Si3 0.984164 0.600297 0.928758
Si Si4 0.632285 0.467575 0.372283
Si Si5 0.885202 0.873811 0.501959
Si Si6 0.447661 0.214165 0.363186
O O1 0.265628 0.530025 0.319175
O O2 0.358373 0.778524 0.267190
O O3 0.377110 0.771497 0.402700
O O4 0.503793 0.565447 0.346294
O O5 0.710906 0.524262 0.808521
O O6 0.632200 0.724504 0.708863
O O7 0.970801 0.467160 0.869969
O O8 0.097001 0.721416 0.946918
O O9 0.000000 0.500000 0.000000
O O10 0.696009 0.524353 0.450256
O O11 0.581854 0.295418 0.376319
O O12 0.877131 0.793004 0.425145
O O13 0.000000 0.000000 0.500000
#
# Coordination Sequence:
#
# PCOD9270094 Si02
#       6
#     8   8   8   8   8   8
#     4  10  20  35  55  82 117 155 199 250 305 363
#     4  11  21  36  59  87 121 158 198 253 312 370
#     4   9  17  31  55  81 110 155 202 245 300 365
#     4   9  19  36  57  82 116 158 199 245 303 367
#     4   8  15  30  54  77 108 156 202 246 298 360
#     4   9  16  30  54  82 113 154 199 243 304 365
#
# _framework density 27.368780999999998
#
# number of rings (size 3 to 8) (size 9 to 14) (size 15 to 20)
#    0.000    2.667    0.000    4.000    0.000    0.000 
#    0.000   11.667    0.000   67.000    0.000    0.000 
#    0.000    0.000    0.000    0.000    0.000    0.000 
#
# Total GULP energy -133660.409546 kJ/mol
# GULP energy per Si atom -5569.183731 kJ/mol
# Density = 2.730649 g / cm^3
# Si number density = 27.368781 Si / 1000 Ang^3
#
#
#
# Elastic Constant Matrix: (Units=GPa)
#
#
# Indices 1 2 3 4 5 6 
#
# 1 71.2594 32.1951 15.2872 0.0000 1.9991 0.0000
# 2 32.1951 187.2847 18.2845 0.0000 -0.4199 0.0000
# 3 15.2872 18.2845 47.8930 0.0000 -9.0849 0.0000
# 4 0.0000 0.0000 0.0000 59.5926 0.0000 13.2087
# 5 1.9991 -0.4199 -9.0849 0.0000 25.7753 0.0000
# 6 0.0000 0.0000 0.0000 13.2087 0.0000 38.1622
#
#
#
# Elastic Compliance Matrix: (Units=1/GPa)
#
#
# Indices 1 2 3 4 5 6 
#
# 1 0.016207 -0.002319 -0.004859 0.000000 -0.003007 0.000000
# 2 -0.002319 0.005890 -0.001561 0.000000 -0.000274 0.000000
# 3 -0.004859 -0.001561 0.024748 0.000000 0.009074 0.000000
# 4 0.000000 0.000000 0.000000 0.018175 0.000000 -0.006291
# 5 -0.003007 -0.000274 0.009074 0.000000 0.042224 0.000000
# 6 0.000000 0.000000 0.000000 -0.006291 0.000000 0.028381
#
#
# Mechanical properties :
#
#
# Convention : Reuss Voigt Hill
#
# Bulk Modulus (GPa) = 34.04882 48.66341 41.35612
# Shear Modulus (GPa) = 30.69547 40.75069 35.72308
#
# Velocity S-wave (km/s) = 3.35259 3.86288 3.61674
# Velocity P-wave (km/s) = 5.23968 6.14125 5.70829
#
# Compressibility (1/GPa) = 0.02936959
#
# Stress axis : x y z
#
# Youngs Moduli (GPa) = 61.70012 169.78585 40.40763
#
# Poissons Ratio (x) = 0.39365 0.19633
# Poissons Ratio (y) = 0.14305 0.06306
# Poissons Ratio (z) = 0.29978 0.26496
#
# Static dielectric constant tensor:
#      x y z
#    x 2.233970 0.000000 0.068780 
#    y 0.000000 2.129920 0.000000 
#    z 0.068780 0.000000 2.281960 
# 
# From -- ./inp_files/242580.got.cif
#   From: 2010.05.17/outbox.cif.g08.bks.cpg/sg15_122_cif.got.tgz:242580.got - 2010.06.03 18:47:42.
