data_PCOD9270077
_publ_section_title
;
Structure prediction by ZEFSAII (Michael W. Deem and Ramdas Pophale) SiO2 
 PCOD9270077
Probable space group: C 2/C
;
_chemical_formula_sum "Si O2"
_cell_formula_units_Z 48
_cell_length_a 10.030881
_cell_length_b 12.353021
_cell_length_c 17.332347
_cell_angle_alpha 90.000000
_cell_angle_beta 78.016380
_cell_angle_gamma 90.000000
_cell_volume 2100.875901
_symmetry_space_group_name_H-M "C 2/C"
_symmetry_group_IT_number 15
_symmetry_cell_setting 'monoclinic'
loop_
_space_group_symop_operation_xyz
x,y,z
-x,y,1/2-z
-x,-y,-z
x,-y,1/2+z
1/2+x,1/2+y,z
1/2-x,1/2+y,1/2-z
1/2-x,1/2-y,-z
1/2+x,1/2-y,1/2+z
loop_
_atom_site_type_symbol
_atom_site_label
_atom_site_fract_x
_atom_site_fract_y
_atom_site_fract_z
Si Si1 0.121994 0.707790 0.430776
Si Si2 0.337484 0.598792 0.054451
Si Si3 0.091660 0.172741 0.092762
Si Si4 0.143377 0.777100 0.103091
Si Si5 0.500000 0.588303 0.750000
Si Si6 0.000000 0.690482 0.750000
Si Si7 0.768861 0.078506 0.670201
O O1 0.106089 0.738464 0.522404
O O2 0.254790 0.632048 0.407686
O O3 0.169785 0.813346 0.376173
O O4 0.971045 0.692134 0.415466
O O5 0.492367 0.586535 0.065150
O O6 0.278108 0.708504 0.100007
O O7 0.251144 0.501917 0.100378
O O8 0.334922 0.632651 0.965659
O O9 0.026439 0.230793 0.174147
O O10 0.088121 0.834838 0.184446
O O11 0.385228 0.529682 0.712777
O O12 0.866563 0.613271 0.768262
#
# Coordination Sequence:
#
# PCOD9270077 Si02
#       7
#     8   8   8   8   4   4   8
#     4   8  17  34  56  77 104 144 180 214 261 320
#     4  10  20  35  55  79 109 144 178 217 268 324
#     4   9  17  32  55  78 104 140 181 213 258 319
#     4   9  19  35  57  78 105 144 182 215 264 327
#     4  10  20  36  56  78 104 138 182 226 264 312
#     4  10  20  36  56  78 110 146 178 224 270 312
#     4  10  21  36  55  81 111 139 175 227 274 309
#
# _framework density 22.847614
#
# number of rings (size 3 to 8) (size 9 to 14) (size 15 to 20)
#    0.000    2.667    0.000    1.000    0.000    7.333 
#    0.000    1.667    0.000   60.000    0.000    0.000 
#    0.000    0.000    0.000    0.000    0.000    0.000 
#
# Total GULP energy -133830.116320 kJ/mol
# GULP energy per Si atom -5576.254847 kJ/mol
# Density = 2.279561 g / cm^3
# Si number density = 22.847614 Si / 1000 Ang^3
#
#
#
# Elastic Constant Matrix: (Units=GPa)
#
#
# Indices 1 2 3 4 5 6 
#
# 1 95.4522 14.6816 23.4058 0.0000 -0.6918 0.0000
# 2 14.6816 34.8290 7.9129 0.0000 -6.1352 0.0000
# 3 23.4058 7.9129 113.4515 0.0000 -27.2642 0.0000
# 4 0.0000 0.0000 0.0000 24.2483 0.0000 1.8568
# 5 -0.6918 -6.1352 -27.2642 0.0000 33.3199 0.0000
# 6 0.0000 0.0000 0.0000 1.8568 0.0000 15.5807
#
#
#
# Elastic Compliance Matrix: (Units=1/GPa)
#
#
# Indices 1 2 3 4 5 6 
#
# 1 0.011901 -0.004897 -0.002827 0.000000 -0.002968 0.000000
# 2 -0.004897 0.031771 0.000219 0.000000 0.005927 0.000000
# 3 -0.002827 0.000219 0.011673 0.000000 0.009533 0.000000
# 4 0.000000 0.000000 0.000000 0.041620 0.000000 -0.004960
# 5 -0.002968 0.005927 0.009533 0.000000 0.038843 0.000000
# 6 0.000000 0.000000 0.000000 -0.004960 0.000000 0.064773
#
#
# Mechanical properties :
#
#
# Convention : Reuss Voigt Hill
#
# Bulk Modulus (GPa) = 24.79277 37.30370 31.04824
# Shear Modulus (GPa) = 21.83058 27.81195 24.82126
#
# Velocity S-wave (km/s) = 3.09445 3.49274 3.29961
# Velocity P-wave (km/s) = 4.86234 5.71211 5.30427
#
# Compressibility (1/GPa) = 0.04033433
#
# Stress axis : x y z
#
# Youngs Moduli (GPa) = 84.02367 31.47573 85.66550
#
# Poissons Ratio (x) = 0.15415 0.24217
# Poissons Ratio (y) = 0.41150 -0.01875
# Poissons Ratio (z) = 0.23753 -0.00689
#
# Static dielectric constant tensor:
#      x y z
#    x 1.979630 0.000000 0.006640 
#    y 0.000000 1.817810 0.000000 
#    z 0.006640 0.000000 1.833590 
# 
# From -- ./inp_files/196541.got.cif
#   From: 2010.05.17/outbox.cif.g08.bks.cpg/sg15_99_cif.got.tgz:196541.got - 2010.06.03 18:47:42.
