data_PCOD9270822
_publ_section_title
;
Structure prediction by ZEFSAII (Michael W. Deem and Ramdas Pophale) SiO2 
 PCOD9270822
Probable space group: C 2/C
;
_chemical_formula_sum "Si O2"
_cell_formula_units_Z 40
_cell_length_a 15.507583
_cell_length_b 25.858908
_cell_length_c 5.652788
_cell_angle_alpha 90.000000
_cell_angle_beta 52.483995
_cell_angle_gamma 90.000000
_cell_volume 1798.003498
_symmetry_space_group_name_H-M "C 2/C"
_symmetry_group_IT_number 15
_symmetry_cell_setting 'monoclinic'
loop_
_space_group_symop_operation_xyz
x,y,z
-x,y,1/2-z
-x,-y,-z
x,-y,1/2+z
1/2+x,1/2+y,z
1/2-x,1/2+y,1/2-z
1/2-x,1/2-y,-z
1/2+x,1/2-y,1/2+z
loop_
_atom_site_type_symbol
_atom_site_label
_atom_site_fract_x
_atom_site_fract_y
_atom_site_fract_z
Si Si1 0.300803 0.691665 0.877874
Si Si2 0.360913 0.880888 0.667838
Si Si3 0.500000 0.949662 0.750000
Si Si4 0.000000 0.293540 0.250000
Si Si5 0.861254 0.783167 0.775517
Si Si6 0.223668 0.484715 0.843065
O O1 0.367118 0.689683 0.523069
O O2 0.250000 0.750000 0.000000
O O3 0.212566 0.645564 0.008123
O O4 0.356497 0.684642 0.042644
O O5 0.463686 0.911612 0.601497
O O6 0.400857 0.831047 0.464451
O O7 0.298072 0.923680 0.624083
O O8 0.606583 0.984411 0.524879
O O9 0.039446 0.257485 0.396942
O O10 0.750000 0.750000 0.000000
O O11 0.276038 0.498129 0.501951
#
# Coordination Sequence:
#
# PCOD9270822 Si02
#       6
#     8   8   4   4   8   8
#     4  10  21  39  47  73 110 131 185 239 251 304
#     4  11  21  31  58  75 101 160 184 208 281 319
#     4  10  21  32  50  80 110 132 196 215 254 332
#     4  12  21  32  58  76  98 158 194 205 288 310
#     4  10  22  38  49  72 110 128 185 247 244 311
#     4  10  20  36  46  74 111 129 179 229 244 317
#
# _framework density 22.246898000000002
#
# number of rings (size 3 to 8) (size 9 to 14) (size 15 to 20)
#    0.000    1.600    4.000    4.200    5.600    4.000 
#    0.000    0.000    0.000    0.000    0.000    0.000 
#    0.000    0.000    0.000   72.000    4.800    0.000 
#
# Total GULP energy -111492.216499 kJ/mol
# GULP energy per Si atom -5574.610825 kJ/mol
# Density = 2.219626 g / cm^3
# Si number density = 22.246898 Si / 1000 Ang^3
#
#
#
# Elastic Constant Matrix: (Units=GPa)
#
#
# Indices 1 2 3 4 5 6 
#
# 1 36.7579 17.2232 26.6488 0.0000 22.4784 0.0000
# 2 17.2232 67.1617 23.6184 0.0000 -4.4449 0.0000
# 3 26.6488 23.6184 117.9629 0.0000 45.8425 0.0000
# 4 0.0000 0.0000 0.0000 34.6374 0.0000 3.9616
# 5 22.4784 -4.4449 45.8425 0.0000 38.5496 0.0000
# 6 0.0000 0.0000 0.0000 3.9616 0.0000 12.2177
#
#
#
# Elastic Compliance Matrix: (Units=1/GPa)
#
#
# Indices 1 2 3 4 5 6 
#
# 1 0.061420 -0.022799 0.010466 0.000000 -0.050888 0.000000
# 2 -0.022799 0.027161 -0.012403 0.000000 0.031175 0.000000
# 3 0.010466 -0.012403 0.021425 0.000000 -0.033011 0.000000
# 4 0.000000 0.000000 0.000000 0.029983 0.000000 -0.009722
# 5 -0.050888 0.031175 -0.033011 0.000000 0.098464 0.000000
# 6 0.000000 0.000000 0.000000 -0.009722 0.000000 0.085001
#
#
# Mechanical properties :
#
#
# Convention : Reuss Voigt Hill
#
# Bulk Modulus (GPa) = 16.51989 39.65148 28.08568
# Shear Modulus (GPa) = 12.71932 27.37374 20.04653
#
# Velocity S-wave (km/s) = 2.39369 3.51159 3.00508
# Velocity P-wave (km/s) = 3.88349 5.85694 4.96917
#
# Compressibility (1/GPa) = 0.06053309
#
# Stress axis : x y z
#
# Youngs Moduli (GPa) = 16.28139 36.81747 46.67497
#
# Poissons Ratio (x) = 0.83940 -0.48849
# Poissons Ratio (y) = 0.37120 0.57891
# Poissons Ratio (z) = -0.17040 0.45664
#
# Static dielectric constant tensor:
#      x y z
#    x 1.904260 0.000000 -0.007320 
#    y 0.000000 1.804010 0.000000 
#    z -0.007320 0.000000 1.968900 
# 
# From -- ./inp_files/10617.got.cif
#   From: 2010.05.17/outbox.cif.g08.bks.cpg/sg15_6_cif.got.tgz:10617.got - 2010.06.03 18:47:42.
