data_PCOD9270760
_publ_section_title
;
Structure prediction by ZEFSAII (Michael W. Deem and Ramdas Pophale) SiO2 
 PCOD9270760
Probable space group: C 2/C
;
_chemical_formula_sum "Si O2"
_cell_formula_units_Z 64
_cell_length_a 22.962975
_cell_length_b 9.123841
_cell_length_c 30.289052
_cell_angle_alpha 90.000000
_cell_angle_beta 150.056049
_cell_angle_gamma 90.000000
_cell_volume 3167.560093
_symmetry_space_group_name_H-M "C 2/C"
_symmetry_group_IT_number 15
_symmetry_cell_setting 'monoclinic'
loop_
_space_group_symop_operation_xyz
x,y,z
-x,y,1/2-z
-x,-y,-z
x,-y,1/2+z
1/2+x,1/2+y,z
1/2-x,1/2+y,1/2-z
1/2-x,1/2-y,-z
1/2+x,1/2-y,1/2+z
loop_
_atom_site_type_symbol
_atom_site_label
_atom_site_fract_x
_atom_site_fract_y
_atom_site_fract_z
Si Si1 0.469643 0.200425 0.510794
Si Si2 0.399295 0.710697 0.262205
Si Si3 0.282194 0.445502 0.359027
Si Si4 0.128077 0.024579 0.828749
Si Si5 0.367298 0.895646 0.463200
Si Si6 0.163159 0.114770 0.444458
Si Si7 0.386418 0.398535 0.011652
Si Si8 0.120283 0.925813 0.663152
O O1 0.374435 0.311971 0.427788
O O2 0.555680 0.151725 0.528124
O O3 0.550155 0.287432 0.597671
O O4 0.405574 0.065148 0.492718
O O5 0.343894 0.870130 0.220402
O O6 0.386635 0.624664 0.208302
O O7 0.534689 0.688363 0.362744
O O8 0.332909 0.624331 0.258558
O O9 0.324570 0.558546 0.424558
O O10 0.294599 0.517518 0.319031
O O11 0.171388 0.980548 0.905466
O O12 0.000000 0.094351 0.750000
O O13 0.227307 0.109643 0.867347
O O14 0.389245 0.776867 0.516012
O O15 0.250000 0.250000 0.500000
O O16 0.175639 0.999910 0.492693
O O17 0.520499 0.450787 0.101508
#
# Coordination Sequence:
#
# PCOD9270760 Si02
#       8
#     8   8   8   8   8   8   8   8
#     4  10  20  35  64  89 121 157 199 236 305 381
#     4  10  22  36  59  84 121 158 199 245 308 369
#     4  11  18  39  59  90 120 157 188 247 303 375
#     4  10  22  40  57  81 120 163 195 248 305 355
#     4  11  20  35  63  90 116 156 201 245 308 370
#     4  10  22  40  63  85 108 160 218 261 297 354
#     4  10  20  37  64  88 118 152 205 260 301 352
#     4  10  20  37  58  90 123 158 194 241 304 373
#
# _framework density 20.204827000000002
#
# number of rings (size 3 to 8) (size 9 to 14) (size 15 to 20)
#    0.000    1.750    3.750    1.500    3.500    1.500 
#    0.000    1.250    5.500    0.000    0.000    0.000 
#    0.000    0.000    0.000    0.000    0.000    0.000 
#
# Total GULP energy -178398.461412 kJ/mol
# GULP energy per Si atom -5574.951919 kJ/mol
# Density = 2.015884 g / cm^3
# Si number density = 20.204827 Si / 1000 Ang^3
#
#
#
# Elastic Constant Matrix: (Units=GPa)
#
#
# Indices 1 2 3 4 5 6 
#
# 1 79.9598 19.4596 21.8832 0.0001 -0.0741 0.0000
# 2 19.4596 80.8870 14.1220 0.0002 11.5479 -0.0001
# 3 21.8832 14.1220 23.8231 0.0001 8.7263 0.0000
# 4 0.0001 0.0002 0.0001 12.1382 0.0000 1.1420
# 5 -0.0741 11.5479 8.7263 0.0000 31.1195 0.0000
# 6 0.0000 -0.0001 0.0000 1.1420 0.0000 23.5391
#
#
#
# Elastic Compliance Matrix: (Units=1/GPa)
#
#
# Indices 1 2 3 4 5 6 
#
# 1 0.017687 -0.002075 -0.017068 0.000000 0.005598 0.000000
# 2 -0.002075 0.014316 -0.005163 0.000000 -0.003869 0.000000
# 3 -0.017068 -0.005163 0.066899 0.000000 -0.016884 0.000000
# 4 0.000000 0.000000 0.000000 0.082763 0.000000 -0.004015
# 5 0.005598 -0.003869 -0.016884 0.000000 0.038318 0.000000
# 6 0.000000 0.000000 0.000000 -0.004015 0.000000 0.042677
#
#
# Mechanical properties :
#
#
# Convention : Reuss Voigt Hill
#
# Bulk Modulus (GPa) = 19.88418 32.84440 26.36429
# Shear Modulus (GPa) = 15.24225 21.97302 18.60764
#
# Velocity S-wave (km/s) = 2.74959 3.30132 3.03801
# Velocity P-wave (km/s) = 4.46576 5.55182 5.03814
#
# Compressibility (1/GPa) = 0.05029124
#
# Stress axis : x y z
#
# Youngs Moduli (GPa) = 56.53737 69.85241 14.94783
#
# Poissons Ratio (x) = 0.14491 0.25513
# Poissons Ratio (y) = 0.11729 0.07718
# Poissons Ratio (z) = 0.96497 0.36067
#
# Static dielectric constant tensor:
#      x y z
#    x 1.766270 0.000000 0.005510 
#    y 0.000000 1.727820 0.000000 
#    z 0.005510 0.000000 1.736740 
# 
# From -- ./inp_files/318626.got.cif
#   From: 2010.05.17/outbox.cif.g08.bks.cpg/sg15_160_cif.got.tgz:318626.got - 2010.06.03 18:47:42.
