data_PCOD9270831
_publ_section_title
;
Structure prediction by ZEFSAII (Michael W. Deem and Ramdas Pophale) SiO2 
 PCOD9270831
Probable space group: C 2/C
;
_chemical_formula_sum "Si O2"
_cell_formula_units_Z 44
_cell_length_a 14.306991
_cell_length_b 27.636701
_cell_length_c 18.086940
_cell_angle_alpha 90.000000
_cell_angle_beta 158.781042
_cell_angle_gamma 90.000000
_cell_volume 2588.378770
_symmetry_space_group_name_H-M "C 2/C"
_symmetry_group_IT_number 15
_symmetry_cell_setting 'monoclinic'
loop_
_space_group_symop_operation_xyz
x,y,z
-x,y,1/2-z
-x,-y,-z
x,-y,1/2+z
1/2+x,1/2+y,z
1/2-x,1/2+y,1/2-z
1/2-x,1/2-y,-z
1/2+x,1/2-y,1/2+z
loop_
_atom_site_type_symbol
_atom_site_label
_atom_site_fract_x
_atom_site_fract_y
_atom_site_fract_z
Si Si1 0.365326 0.710674 0.731578
Si Si2 0.753571 0.991806 0.487305
Si Si3 0.788758 0.322720 0.654580
Si Si4 0.308571 0.958699 0.891234
Si Si5 0.997920 0.631849 0.444661
Si Si6 0.500000 0.420091 0.250000
O O1 0.500000 0.703357 0.750000
O O2 0.362365 0.768574 0.736359
O O3 0.088285 0.685330 0.534684
O O4 0.533668 0.685711 0.919237
O O5 0.500000 0.992228 0.250000
O O6 0.692489 0.966376 0.521113
O O7 0.013132 0.967212 0.646759
O O8 0.857869 0.045080 0.586216
O O9 0.000000 0.338327 0.750000
O O10 0.802301 0.359651 0.732288
O O11 0.396024 0.906022 0.928913
O O12 0.500000 0.000000 0.000000
O O13 0.268858 0.609834 0.615143
#
# Coordination Sequence:
#
# PCOD9270831 Si02
#       6
#     8   8   8   8   8   4
#     4  11  19  32  49  74 116 155 184 220 266 326
#     4  10  22  40  60  77 115 149 184 231 283 324
#     4  11  19  32  49  75 114 156 186 217 269 327
#     4  10  21  41  55  82 116 142 185 236 273 325
#     4  12  20  34  55  79 114 152 189 222 270 328
#     4  10  20  36  50  86 114 148 186 224 264 328
#
# _framework density 16.999056
#
# number of rings (size 3 to 8) (size 9 to 14) (size 15 to 20)
#    0.000    1.455    8.182    1.091    0.000    4.364 
#    0.000    0.000    0.000    0.000    0.000    5.091 
#    0.000    0.000    0.000    0.000    0.000    0.000 
#
# Total GULP energy -122578.998412 kJ/mol
# GULP energy per Si atom -5571.772655 kJ/mol
# Density = 1.696037 g / cm^3
# Si number density = 16.999056 Si / 1000 Ang^3
#
#
#
# Elastic Constant Matrix: (Units=GPa)
#
#
# Indices 1 2 3 4 5 6 
#
# 1 54.5079 30.9808 31.1172 -0.0058 2.4441 -0.0059
# 2 30.9808 58.9695 14.0526 0.0021 -5.3220 0.0043
# 3 31.1172 14.0526 132.6472 -0.0043 -16.7487 -0.0011
# 4 -0.0058 0.0021 -0.0043 12.4321 -0.0045 -13.0019
# 5 2.4441 -5.3220 -16.7487 -0.0045 27.0670 -0.0047
# 6 -0.0059 0.0043 -0.0011 -13.0019 -0.0047 -12.4248
#
#
#
# Elastic Compliance Matrix: (Units=1/GPa)
#
#
# Indices 1 2 3 4 5 6 
#
# 1 0.032016 -0.016066 -0.007130 -0.000003 -0.010461 -0.000013
# 2 -0.016066 0.025613 0.002033 0.000003 0.007745 0.000011
# 3 -0.007130 0.002033 0.009901 0.000001 0.007170 -0.000001
# 4 -0.000003 0.000003 0.000001 0.038405 0.000001 -0.040189
# 5 -0.010461 0.007745 0.007170 0.000001 0.043850 -0.000011
# 6 -0.000013 0.000011 -0.000001 -0.040189 -0.000011 -0.038428
#
#
# Mechanical properties :
#
#
# Convention : Reuss Voigt Hill
#
# Bulk Modulus (GPa) = 39.67212 44.26953 41.97083
# Shear Modulus (GPa) = 30.84835 16.74647 23.79741
#
# Velocity S-wave (km/s) = 4.26456 3.14210 3.74562
# Velocity P-wave (km/s) = 6.90197 6.26599 6.59165
#
# Compressibility (1/GPa) = 0.02520662
#
# Stress axis : x y z
#
# Youngs Moduli (GPa) = 31.23405 39.04310 100.99751
#
# Poissons Ratio (x) = 0.62725 0.72006
# Poissons Ratio (y) = 0.50179 -0.20535
# Poissons Ratio (z) = 0.22268 -0.07938
#
# Static dielectric constant tensor:
#      x y z
#    x 1.561600 0.000000 -0.021840 
#    y 0.000000 1.641090 0.000000 
#    z -0.021840 0.000000 1.647690 
# 
# From -- ./inp_files/149073.got.cif
#   From: 2010.05.17/outbox.cif.g08.bks.cpg/sg15_75_cif.got.tgz:149073.got - 2010.06.03 18:47:42.
