data_PCOD9270596
_publ_section_title
;
Structure prediction by ZEFSAII (Michael W. Deem and Ramdas Pophale) SiO2 
 PCOD9270596
Probable space group: C 2/C
;
_chemical_formula_sum "Si O2"
_cell_formula_units_Z 56
_cell_length_a 30.639518
_cell_length_b 14.544675
_cell_length_c 13.840870
_cell_angle_alpha 90.000000
_cell_angle_beta 156.384394
_cell_angle_gamma 90.000000
_cell_volume 2470.920550
_symmetry_space_group_name_H-M "C 2/C"
_symmetry_group_IT_number 15
_symmetry_cell_setting 'monoclinic'
loop_
_space_group_symop_operation_xyz
x,y,z
-x,y,1/2-z
-x,-y,-z
x,-y,1/2+z
1/2+x,1/2+y,z
1/2-x,1/2+y,1/2-z
1/2-x,1/2-y,-z
1/2+x,1/2-y,1/2+z
loop_
_atom_site_type_symbol
_atom_site_label
_atom_site_fract_x
_atom_site_fract_y
_atom_site_fract_z
Si Si1 0.584081 0.888811 0.728307
Si Si2 0.997031 0.202342 0.910947
Si Si3 0.296936 0.584722 0.560108
Si Si4 0.581837 0.517388 0.029699
Si Si5 0.449260 0.916568 0.254183
Si Si6 0.333734 0.449494 0.488578
Si Si7 0.663010 0.260666 0.909457
O O1 0.520998 0.807199 0.655036
O O2 0.525253 0.901689 0.504156
O O3 0.588068 0.979867 0.800607
O O4 0.706485 0.868881 0.942148
O O5 0.878676 0.158001 0.681683
O O6 0.066284 0.127531 0.992011
O O7 0.053655 0.208105 0.130943
O O8 0.256377 0.517594 0.392452
O O9 0.367753 0.514082 0.767861
O O10 0.461172 0.473745 0.773139
O O11 0.663134 0.477154 0.115696
O O12 0.500000 0.907717 0.250000
O O13 0.359301 0.836136 0.084318
O O14 0.308581 0.344430 0.462142
O O15 0.750000 0.250000 0.000000
#
# Coordination Sequence:
#
# PCOD9270596 Si02
#       7
#     8   8   8   8   8   8   8
#     4  10  23  41  64  87 132 166 212 260 321 387
#     4  10  20  40  62  89 126 168 205 258 327 374
#     4  11  19  38  62  94 124 165 200 260 320 375
#     4  10  20  35  65  90 123 163 203 263 312 372
#     4  10  24  43  63  90 126 174 213 264 316 387
#     4  10  20  35  60  95 121 155 210 256 307 367
#     4  11  21  38  67  93 122 166 218 269 315 374
#
# _framework density 22.663618
#
# number of rings (size 3 to 8) (size 9 to 14) (size 15 to 20)
#    0.000    1.714    2.857    2.143    2.000    1.143 
#    5.143    0.000    0.000    0.000    0.000    0.000 
#    0.000    0.000    0.000    0.000    0.000    0.000 
#
# Total GULP energy -156276.763362 kJ/mol
# GULP energy per Si atom -5581.312977 kJ/mol
# Density = 2.261203 g / cm^3
# Si number density = 22.663618 Si / 1000 Ang^3
#
#
#
# Elastic Constant Matrix: (Units=GPa)
#
#
# Indices 1 2 3 4 5 6 
#
# 1 138.3623 71.1590 -4.7475 0.0000 3.1281 0.0000
# 2 71.1590 185.4099 9.1080 0.0000 7.4370 0.0000
# 3 -4.7475 9.1080 21.0161 0.0000 5.7674 0.0000
# 4 0.0000 0.0000 0.0000 13.4048 0.0000 6.9827
# 5 3.1281 7.4370 5.7674 0.0000 17.5858 0.0000
# 6 0.0000 0.0000 0.0000 6.9827 0.0000 31.5308
#
#
#
# Elastic Compliance Matrix: (Units=1/GPa)
#
#
# Indices 1 2 3 4 5 6 
#
# 1 0.009313 -0.003719 0.004108 0.000000 -0.001431 0.000000
# 2 -0.003719 0.007042 -0.003578 0.000000 -0.001143 0.000000
# 3 0.004108 -0.003578 0.054776 0.000000 -0.017182 0.000000
# 4 0.000000 0.000000 0.000000 0.084328 0.000000 -0.018675
# 5 -0.001431 -0.001143 -0.017182 0.000000 0.063237 0.000000
# 6 0.000000 0.000000 0.000000 -0.018675 0.000000 0.035851
#
#
# Mechanical properties :
#
#
# Convention : Reuss Voigt Hill
#
# Bulk Modulus (GPa) = 15.44300 55.09192 35.26746
# Shear Modulus (GPa) = 17.69846 30.45553 24.07700
#
# Velocity S-wave (km/s) = 2.79753 3.66977 3.26293
# Velocity P-wave (km/s) = 4.15496 6.50520 5.45808
#
# Compressibility (1/GPa) = 0.06475428
#
# Stress axis : x y z
#
# Youngs Moduli (GPa) = 107.37364 141.99842 18.25604
#
# Poissons Ratio (x) = 0.52806 -0.07500
# Poissons Ratio (y) = 0.39930 0.06533
# Poissons Ratio (z) = -0.44112 0.50812
#
# Static dielectric constant tensor:
#      x y z
#    x 1.714920 0.000000 0.047300 
#    y 0.000000 1.843870 0.000000 
#    z 0.047300 0.000000 1.870970 
# 
# From -- ./inp_files/182154.got.cif
#   From: 2010.05.17/outbox.cif.g08.bks.cpg/sg15_92_cif.got.tgz:182154.got - 2010.06.03 18:47:42.
