data_PCOD9270117
_publ_section_title
;
Structure prediction by ZEFSAII (Michael W. Deem and Ramdas Pophale) SiO2 
 PCOD9270117
Probable space group: C 2/C
;
_chemical_formula_sum "Si O2"
_cell_formula_units_Z 64
_cell_length_a 14.954048
_cell_length_b 22.749732
_cell_length_c 14.827367
_cell_angle_alpha 90.000000
_cell_angle_beta 139.627648
_cell_angle_gamma 90.000000
_cell_volume 3267.443504
_symmetry_space_group_name_H-M "C 2/C"
_symmetry_group_IT_number 15
_symmetry_cell_setting 'monoclinic'
loop_
_space_group_symop_operation_xyz
x,y,z
-x,y,1/2-z
-x,-y,-z
x,-y,1/2+z
1/2+x,1/2+y,z
1/2-x,1/2+y,1/2-z
1/2-x,1/2-y,-z
1/2+x,1/2-y,1/2+z
loop_
_atom_site_type_symbol
_atom_site_label
_atom_site_fract_x
_atom_site_fract_y
_atom_site_fract_z
Si Si1 0.432806 0.457512 0.875796
Si Si2 0.775632 0.857235 0.855204
Si Si3 0.184101 0.458712 0.564906
Si Si4 0.644716 0.068784 0.413417
Si Si5 0.505231 0.122370 0.473098
Si Si6 0.801216 0.220715 0.946894
Si Si7 0.622832 0.385630 0.899728
Si Si8 0.107498 0.256299 0.130532
O O1 0.386679 0.396983 0.887861
O O2 0.291327 0.482298 0.722947
O O3 0.543126 0.440390 0.883751
O O4 0.500000 0.500000 0.000000
O O5 0.742844 0.892868 0.922850
O O6 0.634262 0.859090 0.688016
O O7 0.831324 0.790256 0.895730
O O8 0.178538 0.504070 0.477698
O O9 0.045156 0.432403 0.502766
O O10 0.264080 0.402675 0.586383
O O11 0.500000 0.063547 0.250000
O O12 0.613609 0.102439 0.481656
O O13 0.573936 0.177740 0.573494
O O14 0.711345 0.241283 0.794106
O O15 0.750000 0.250000 0.000000
O O16 0.801308 0.151290 0.965821
O O17 0.959704 0.234132 0.049644
O O18 0.500000 0.353106 0.750000
#
# Coordination Sequence:
#
# PCOD9270117 Si02
#       8
#     8   8   8   8   8   8   8   8
#     4  10  20  35  60  85 124 165 202 259 322 381
#     4  10  21  41  62  87 126 169 211 260 320 381
#     4  10  21  37  61  91 125 158 210 269 324 384
#     4  10  22  40  63  86 120 167 216 267 321 373
#     4  10  22  40  63  90 123 166 209 267 322 372
#     4  12  24  37  62  93 126 165 207 255 316 391
#     4  10  20  35  55  85 123 159 195 251 319 385
#     4  12  23  41  64  91 131 169 212 259 318 390
#
# _framework density 19.587178999999999
#
# number of rings (size 3 to 8) (size 9 to 14) (size 15 to 20)
#    0.000    1.500    2.500    3.000    1.750    2.500 
#    0.000    0.000    0.000    0.000    0.000    0.000 
#    0.000    0.000    0.000    0.000    0.000    0.000 
#
# Total GULP energy -178396.397786 kJ/mol
# GULP energy per Si atom -5574.887431 kJ/mol
# Density = 1.954260 g / cm^3
# Si number density = 19.587179 Si / 1000 Ang^3
#
#
#
# Elastic Constant Matrix: (Units=GPa)
#
#
# Indices 1 2 3 4 5 6 
#
# 1 115.2273 35.4987 27.6791 0.0000 -11.2675 0.0000
# 2 35.4987 80.5763 40.2981 0.0000 -8.0731 0.0000
# 3 27.6791 40.2981 60.3899 0.0000 -8.1704 0.0000
# 4 0.0000 0.0000 0.0000 29.2612 0.0000 -8.9762
# 5 -11.2675 -8.0731 -8.1704 0.0000 20.5189 0.0000
# 6 0.0000 0.0000 0.0000 -8.9762 0.0000 35.2739
#
#
#
# Elastic Compliance Matrix: (Units=1/GPa)
#
#
# Indices 1 2 3 4 5 6 
#
# 1 0.010547 -0.003167 -0.002226 0.000000 0.003659 0.000000
# 2 -0.003167 0.019701 -0.011501 0.000000 0.001433 0.000000
# 3 -0.002226 -0.011501 0.025870 0.000000 0.004554 0.000000
# 4 0.000000 0.000000 0.000000 0.037069 0.000000 0.009433
# 5 0.003659 0.001433 0.004554 0.000000 0.053122 0.000000
# 6 0.000000 0.000000 0.000000 0.009433 0.000000 0.030750
#
#
# Mechanical properties :
#
#
# Convention : Reuss Voigt Hill
#
# Bulk Modulus (GPa) = 44.78179 51.46057 48.12118
# Shear Modulus (GPa) = 22.90532 27.19198 25.04865
#
# Velocity S-wave (km/s) = 3.42336 3.72997 3.57995
# Velocity P-wave (km/s) = 6.20793 6.69924 6.45826
#
# Compressibility (1/GPa) = 0.02233051
#
# Stress axis : x y z
#
# Youngs Moduli (GPa) = 94.81798 50.75782 38.65444
#
# Poissons Ratio (x) = 0.16073 0.08604
# Poissons Ratio (y) = 0.30025 0.44458
# Poissons Ratio (z) = 0.21104 0.58379
#
# Static dielectric constant tensor:
#      x y z
#    x 1.729940 0.000000 -0.018590 
#    y 0.000000 1.765620 0.000000 
#    z -0.018590 0.000000 1.693030 
# 
# From -- ./inp_files/156802.got.cif
#   From: 2010.05.17/outbox.cif.g08.bks.cpg/sg15_79_cif.got.tgz:156802.got - 2010.06.03 18:47:42.
