data_PCOD9270452
_publ_section_title
;
Structure prediction by ZEFSAII (Michael W. Deem and Ramdas Pophale) SiO2 
 PCOD9270452
Probable space group: C 2/C
;
_chemical_formula_sum "Si O2"
_cell_formula_units_Z 56
_cell_length_a 17.065572
_cell_length_b 22.165350
_cell_length_c 8.942315
_cell_angle_alpha 90.000000
_cell_angle_beta 125.637683
_cell_angle_gamma 90.000000
_cell_volume 2749.065831
_symmetry_space_group_name_H-M "C 2/C"
_symmetry_group_IT_number 15
_symmetry_cell_setting 'monoclinic'
loop_
_space_group_symop_operation_xyz
x,y,z
-x,y,1/2-z
-x,-y,-z
x,-y,1/2+z
1/2+x,1/2+y,z
1/2-x,1/2+y,1/2-z
1/2-x,1/2-y,-z
1/2+x,1/2-y,1/2+z
loop_
_atom_site_type_symbol
_atom_site_label
_atom_site_fract_x
_atom_site_fract_y
_atom_site_fract_z
Si Si1 0.393834 0.921644 0.149750
Si Si2 0.900679 0.248710 0.049361
Si Si3 0.255356 0.662369 0.063836
Si Si4 0.927441 0.927081 0.808156
Si Si5 0.451104 0.655497 0.845146
Si Si6 0.317802 0.450091 0.139889
Si Si7 0.686532 0.012049 0.223144
O O1 0.500000 0.897755 0.250000
O O2 0.389542 0.979183 0.253613
O O3 0.318860 0.872322 0.127837
O O4 0.358816 0.942090 0.945813
O O5 0.831752 0.208652 0.079970
O O6 0.000000 0.262758 0.250000
O O7 0.825109 0.302722 0.925495
O O8 0.929789 0.207137 0.941610
O O9 0.326621 0.608752 0.191638
O O10 0.000000 0.914358 0.750000
O O11 0.897870 0.997343 0.761552
O O12 0.980878 0.896607 0.007046
O O13 0.500000 0.680009 0.750000
O O14 0.358016 0.616672 0.697777
O O15 0.238918 0.462746 0.178488
O O16 0.267983 0.462069 0.925154
#
# Coordination Sequence:
#
# PCOD9270452 Si02
#       7
#     8   8   8   8   8   8   8
#     4  11  22  38  60  88 117 159 207 253 314 364
#     4  11  23  42  66  90 117 163 220 261 301 352
#     4  11  21  40  69  85 117 160 216 264 294 351
#     4  12  20  39  62  92 128 161 205 257 304 373
#     4  12  23  35  58  93 132 161 196 250 318 376
#     4  11  21  35  59  94 128 166 199 239 322 377
#     4  10  20  35  59  83 126 157 198 254 302 373
#
# _framework density 20.370555
#
# number of rings (size 3 to 8) (size 9 to 14) (size 15 to 20)
#    0.000    0.857    5.714    4.286    0.000    0.000 
#    0.000    0.714    0.000    2.571    0.000    0.000 
#    0.000    0.000    0.000    0.000    0.000    0.000 
#
# Total GULP energy -156073.674832 kJ/mol
# GULP energy per Si atom -5574.059815 kJ/mol
# Density = 2.032419 g / cm^3
# Si number density = 20.370555 Si / 1000 Ang^3
#
#
#
# Elastic Constant Matrix: (Units=GPa)
#
#
# Indices 1 2 3 4 5 6 
#
# 1 108.1037 47.0779 65.5910 0.0000 12.8529 0.0000
# 2 47.0779 91.8134 22.4969 0.0000 3.4004 0.0000
# 3 65.5910 22.4969 65.8447 0.0000 -2.5420 0.0000
# 4 0.0000 0.0000 0.0000 20.1568 0.0000 -13.3345
# 5 12.8529 3.4004 -2.5420 0.0000 35.0255 0.0000
# 6 0.0000 0.0000 0.0000 -13.3345 0.0000 34.0164
#
#
#
# Elastic Compliance Matrix: (Units=1/GPa)
#
#
# Indices 1 2 3 4 5 6 
#
# 1 0.033582 -0.009153 -0.030854 0.000000 -0.013674 0.000000
# 2 -0.009153 0.014456 0.004266 0.000000 0.002265 0.000000
# 3 -0.030854 0.004266 0.045011 0.000000 0.014174 0.000000
# 4 0.000000 0.000000 0.000000 0.066981 0.000000 0.026257
# 5 -0.013674 0.002265 0.014174 0.000000 0.034377 0.000000
# 6 0.000000 0.000000 0.000000 0.026257 0.000000 0.039690
#
#
# Mechanical properties :
#
#
# Convention : Reuss Voigt Hill
#
# Bulk Modulus (GPa) = 46.36328 59.56596 52.96462
# Shear Modulus (GPa) = 15.98630 26.54615 21.26622
#
# Velocity S-wave (km/s) = 2.80442 3.61385 3.23456
# Velocity P-wave (km/s) = 5.77025 6.83505 6.32509
#
# Compressibility (1/GPa) = 0.02156879
#
# Stress axis : x y z
#
# Youngs Moduli (GPa) = 29.77758 69.17668 22.21657
#
# Poissons Ratio (x) = 0.63318 0.68546
# Poissons Ratio (y) = 0.27256 -0.09478
# Poissons Ratio (z) = 0.91874 -0.29513
#
# Static dielectric constant tensor:
#      x y z
#    x 1.753410 0.000000 0.002140 
#    y 0.000000 1.790830 0.000000 
#    z 0.002140 0.000000 1.741910 
# 
# From -- ./inp_files/42759.got.cif
#   From: 2010.05.17/outbox.cif.g08.bks.cpg/sg15_22_cif.got.tgz:42759.got - 2010.06.03 18:47:42.
