data_PCOD9270131
_publ_section_title
;
Structure prediction by ZEFSAII (Michael W. Deem and Ramdas Pophale) SiO2 
 PCOD9270131
Probable space group: C 2/C
;
_chemical_formula_sum "Si O2"
_cell_formula_units_Z 48
_cell_length_a 12.532040
_cell_length_b 25.357433
_cell_length_c 8.698266
_cell_angle_alpha 90.000000
_cell_angle_beta 85.725235
_cell_angle_gamma 90.000000
_cell_volume 2756.448475
_symmetry_space_group_name_H-M "C 2/C"
_symmetry_group_IT_number 15
_symmetry_cell_setting 'monoclinic'
loop_
_space_group_symop_operation_xyz
x,y,z
-x,y,1/2-z
-x,-y,-z
x,-y,1/2+z
1/2+x,1/2+y,z
1/2-x,1/2+y,1/2-z
1/2-x,1/2-y,-z
1/2+x,1/2-y,1/2+z
loop_
_atom_site_type_symbol
_atom_site_label
_atom_site_fract_x
_atom_site_fract_y
_atom_site_fract_z
Si Si1 0.295920 0.238779 0.660914
Si Si2 0.495948 0.058270 0.069132
Si Si3 0.907451 0.825240 0.856416
Si Si4 0.390768 0.870590 0.167561
Si Si5 0.412474 0.756421 0.623049
Si Si6 0.190433 0.364938 0.005939
O O1 0.250000 0.250000 0.500000
O O2 0.359639 0.284982 0.736112
O O3 0.374103 0.189695 0.626082
O O4 0.193320 0.232412 0.783604
O O5 0.500000 0.055210 0.250000
O O6 0.385699 0.088944 0.046581
O O7 0.592323 0.091955 0.979696
O O8 0.500000 0.000000 0.000000
O O9 0.808250 0.860122 0.924015
O O10 0.000000 0.853855 0.750000
O O11 0.945432 0.787832 0.994420
O O12 0.500000 0.877575 0.250000
O O13 0.303390 0.876377 0.311617
O O14 0.500000 0.766706 0.750000
O O15 0.371776 0.809787 0.537165
#
# Coordination Sequence:
#
# PCOD9270131 Si02
#       6
#     8   8   8   8   8   8
#     4  11  21  31  50  78 112 155 197 223 278 331
#     4  11  24  40  62  88 110 140 187 237 300 344
#     4  11  21  35  51  79 120 157 194 231 269 338
#     4  10  20  35  56  75 112 148 180 237 282 330
#     4  11  21  33  50  80 115 157 198 230 269 340
#     4  10  20  37  55  79 115 152 189 236 288 327
#
# _framework density 17.413710999999999
#
# number of rings (size 3 to 8) (size 9 to 14) (size 15 to 20)
#    0.000    1.333    3.333    4.500   11.667    0.000 
#    0.000    0.000    0.000    0.000    0.000    5.833 
#    0.000    0.000    0.000    0.000    0.000    0.000 
#
# Total GULP energy -133705.892143 kJ/mol
# GULP energy per Si atom -5571.078839 kJ/mol
# Density = 1.737408 g / cm^3
# Si number density = 17.413711 Si / 1000 Ang^3
#
#
#
# Elastic Constant Matrix: (Units=GPa)
#
#
# Indices 1 2 3 4 5 6 
#
# 1 77.4004 23.7216 35.1392 0.0000 -35.1861 0.0000
# 2 23.7216 75.8305 36.4317 0.0000 -22.2571 0.0000
# 3 35.1392 36.4317 139.0690 0.0000 -21.4976 0.0000
# 4 0.0000 0.0000 0.0000 27.8328 0.0000 -7.0705
# 5 -35.1861 -22.2571 -21.4976 0.0000 40.6910 0.0000
# 6 0.0000 0.0000 0.0000 -7.0705 0.0000 17.5287
#
#
#
# Elastic Compliance Matrix: (Units=1/GPa)
#
#
# Indices 1 2 3 4 5 6 
#
# 1 0.022320 -0.000484 -0.002799 0.000000 0.017557 0.000000
# 2 -0.000484 0.016991 -0.003220 0.000000 0.007174 0.000000
# 3 -0.002799 -0.003220 0.008815 0.000000 0.000476 0.000000
# 4 0.000000 0.000000 0.000000 0.040031 0.000000 0.016147
# 5 0.017557 0.007174 0.000476 0.000000 0.043932 0.000000
# 6 0.000000 0.000000 0.000000 0.016147 0.000000 0.063562
#
#
# Mechanical properties :
#
#
# Convention : Reuss Voigt Hill
#
# Bulk Modulus (GPa) = 28.47354 53.65386 41.06370
# Shear Modulus (GPa) = 22.68956 30.34432 26.51694
#
# Velocity S-wave (km/s) = 3.61359 4.17892 3.90649
# Velocity P-wave (km/s) = 5.81355 7.35953 6.63174
#
# Compressibility (1/GPa) = 0.03512032
#
# Stress axis : x y z
#
# Youngs Moduli (GPa) = 44.80210 58.85324 113.44423
#
# Poissons Ratio (x) = 0.02851 0.31752
# Poissons Ratio (y) = 0.02171 0.36527
# Poissons Ratio (z) = 0.12540 0.18950
#
# Static dielectric constant tensor:
#      x y z
#    x 1.632350 0.000000 -0.053030 
#    y 0.000000 1.580970 0.000000 
#    z -0.053030 0.000000 1.648080 
# 
# From -- ./inp_files/31999.got.cif
#   From: 2010.05.17/outbox.cif.g08.bks.cpg/sg15_16_cif.got.tgz:31999.got - 2010.06.03 18:47:42.
