data_PCOD9270912
_publ_section_title
;
Structure prediction by ZEFSAII (Michael W. Deem and Ramdas Pophale) SiO2 
 PCOD9270912
Probable space group: C 2/C
;
_chemical_formula_sum "Si O2"
_cell_formula_units_Z 40
_cell_length_a 22.331409
_cell_length_b 8.229288
_cell_length_c 19.461332
_cell_angle_alpha 90.000000
_cell_angle_beta 25.872573
_cell_angle_gamma 90.000000
_cell_volume 1560.655175
_symmetry_space_group_name_H-M "C 2/C"
_symmetry_group_IT_number 15
_symmetry_cell_setting 'monoclinic'
loop_
_space_group_symop_operation_xyz
x,y,z
-x,y,1/2-z
-x,-y,-z
x,-y,1/2+z
1/2+x,1/2+y,z
1/2-x,1/2+y,1/2-z
1/2-x,1/2-y,-z
1/2+x,1/2-y,1/2+z
loop_
_atom_site_type_symbol
_atom_site_label
_atom_site_fract_x
_atom_site_fract_y
_atom_site_fract_z
Si Si1 0.331492 0.541531 0.706952
Si Si2 0.882625 0.418345 0.669065
Si Si3 0.420874 0.026101 0.927631
Si Si4 0.475567 0.411658 0.883270
Si Si5 0.720779 0.555966 0.025919
O O1 0.134661 0.229835 0.827340
O O2 0.461049 0.448661 0.607166
O O3 0.260829 0.495927 0.707526
O O4 0.205469 0.504920 0.889618
O O5 0.000000 0.500000 0.500000
O O6 0.946701 0.437947 0.678442
O O7 0.458095 0.217416 0.893415
O O8 0.356237 0.981305 0.920605
O O9 0.339355 0.483403 0.986943
O O10 0.596453 0.470120 0.707427
O O11 0.750000 0.750000 0.000000
#
# Coordination Sequence:
#
# PCOD9270912 Si02
#       5
#     8   8   8   8   8
#     4  10  20  36  55  79 110 144 182 230 275 326
#     4  10  21  38  56  79 107 143 184 228 280 330
#     4   9  18  34  54  82 111 143 183 221 267 325
#     4   9  16  31  57  83 111 144 179 221 265 320
#     4   8  15  29  53  83 111 144 181 216 260 321
#
# _framework density 25.63026
#
# number of rings (size 3 to 8) (size 9 to 14) (size 15 to 20)
#    0.000    2.800    0.000    1.200    0.000    0.000 
#    0.000   29.000    0.000   16.800    0.000    0.000 
#    0.000    0.000    0.000    0.000    0.000    0.000 
#
# Total GULP energy -111750.576912 kJ/mol
# GULP energy per Si atom -5587.528846 kJ/mol
# Density = 2.557192 g / cm^3
# Si number density = 25.630260 Si / 1000 Ang^3
#
#
#
# Elastic Constant Matrix: (Units=GPa)
#
#
# Indices 1 2 3 4 5 6 
#
# 1 301.9413 53.0223 88.2989 -0.0003 -75.3573 0.0000
# 2 53.0223 95.4267 36.6039 0.0023 -39.4775 -0.0001
# 3 88.2989 36.6039 164.0402 0.0014 -58.8980 0.0001
# 4 -0.0003 0.0023 0.0014 14.8695 0.0002 -12.6920
# 5 -75.3573 -39.4775 -58.8980 0.0002 74.2837 0.0000
# 6 0.0000 -0.0001 0.0001 -12.6920 0.0000 32.5548
#
#
#
# Elastic Compliance Matrix: (Units=1/GPa)
#
#
# Indices 1 2 3 4 5 6 
#
# 1 0.004614 -0.000727 -0.001090 0.000000 0.003431 0.000000
# 2 -0.000727 0.013590 -0.000437 -0.000003 0.006139 -0.000001
# 3 -0.001090 -0.000437 0.008807 -0.000001 0.005645 -0.000001
# 4 0.000000 -0.000003 -0.000001 0.100793 -0.000003 0.039296
# 5 0.003431 0.006139 0.005645 -0.000003 0.024680 -0.000001
# 6 0.000000 -0.000001 -0.000001 0.039296 -0.000001 0.046038
#
#
# Mechanical properties :
#
#
# Convention : Reuss Voigt Hill
#
# Bulk Modulus (GPa) = 44.43636 101.91759 73.17697
# Shear Modulus (GPa) = 23.74938 49.90714 36.82826
#
# Velocity S-wave (km/s) = 3.04734 4.41749 3.79477
# Velocity P-wave (km/s) = 5.45498 8.11602 6.91472
#
# Compressibility (1/GPa) = 0.02250409
#
# Stress axis : x y z
#
# Youngs Moduli (GPa) = 216.70895 73.58240 113.54473
#
# Poissons Ratio (x) = 0.05346 0.12375
# Poissons Ratio (y) = 0.15745 0.04967
# Poissons Ratio (z) = 0.23619 0.03219
#
# Static dielectric constant tensor:
#      x y z
#    x 1.627730 0.000000 -0.157410 
#    y 0.000000 1.993620 0.000000 
#    z -0.157410 0.000000 1.968470 
# 
# From -- ./inp_files/301830.got.cif
#   From: 2010.05.17/outbox.cif.g08.bks.cpg/sg15_151_cif.got.tgz:301830.got - 2010.06.03 18:47:42.
