data_PCOD9270172
_publ_section_title
;
Structure prediction by ZEFSAII (Michael W. Deem and Ramdas Pophale) SiO2 
 PCOD9270172
Probable space group: C 2/C
;
_chemical_formula_sum "Si O2"
_cell_formula_units_Z 48
_cell_length_a 24.806560
_cell_length_b 13.860891
_cell_length_c 14.582033
_cell_angle_alpha 90.000000
_cell_angle_beta 27.193728
_cell_angle_gamma 90.000000
_cell_volume 2291.355652
_symmetry_space_group_name_H-M "C 2/C"
_symmetry_group_IT_number 15
_symmetry_cell_setting 'monoclinic'
loop_
_space_group_symop_operation_xyz
x,y,z
-x,y,1/2-z
-x,-y,-z
x,-y,1/2+z
1/2+x,1/2+y,z
1/2-x,1/2+y,1/2-z
1/2-x,1/2-y,-z
1/2+x,1/2-y,1/2+z
loop_
_atom_site_type_symbol
_atom_site_label
_atom_site_fract_x
_atom_site_fract_y
_atom_site_fract_z
Si Si1 0.952168 0.351202 0.581124
Si Si2 0.030021 0.859247 0.441231
Si Si3 0.693715 0.968590 0.201765
Si Si4 0.114620 0.339639 0.031086
Si Si5 0.148347 0.177935 0.120579
Si Si6 0.320525 0.518512 0.200447
O O1 0.868034 0.435888 0.744520
O O2 0.908895 0.337794 0.541342
O O3 0.943791 0.246252 0.638373
O O4 0.085709 0.392581 0.378843
O O5 0.953635 0.836438 0.650086
O O6 0.142135 0.923654 0.299413
O O7 0.943478 0.922481 0.508547
O O8 0.758980 0.988728 0.198884
O O9 0.792703 0.923648 0.988493
O O10 0.120303 0.233427 0.067442
O O11 0.000000 0.387548 0.250000
O O12 0.227813 0.404400 0.881417
O O13 0.250000 0.250000 0.000000
#
# Coordination Sequence:
#
# PCOD9270172 Si02
#       6
#     8   8   8   8   8   8
#     4  10  20  35  56  84 124 157 197 241 306 353
#     4  11  21  38  58  90 120 161 195 254 296 360
#     4  10  21  35  53  90 121 157 189 253 297 360
#     4  11  19  33  59  94 118 153 197 254 298 349
#     4  12  20  35  64  94 120 146 205 257 296 343
#     4  10  23  35  54  87 129 156 197 242 311 356
#
# _framework density 20.948297
#
# number of rings (size 3 to 8) (size 9 to 14) (size 15 to 20)
#    0.000    1.333    5.000    1.000    0.000    1.333 
#    0.000    0.000    0.000    4.000   17.333    0.000 
#    0.000    0.000    0.000    0.000    0.000    0.000 
#
# Total GULP energy -133907.930579 kJ/mol
# GULP energy per Si atom -5579.497107 kJ/mol
# Density = 2.090062 g / cm^3
# Si number density = 20.948297 Si / 1000 Ang^3
#
#
#
# Elastic Constant Matrix: (Units=GPa)
#
#
# Indices 1 2 3 4 5 6 
#
# 1 84.5298 17.8317 5.3395 0.0000 -24.4983 0.0000
# 2 17.8317 130.2367 19.8970 0.0000 -19.8861 0.0000
# 3 5.3395 19.8970 54.3353 0.0000 -16.5021 0.0000
# 4 0.0000 0.0000 0.0000 35.6704 0.0000 -5.3358
# 5 -24.4983 -19.8861 -16.5021 0.0000 31.7676 0.0000
# 6 0.0000 0.0000 0.0000 -5.3358 0.0000 18.9777
#
#
#
# Elastic Compliance Matrix: (Units=1/GPa)
#
#
# Indices 1 2 3 4 5 6 
#
# 1 0.015551 -0.000543 0.002623 0.000000 0.013016 0.000000
# 2 -0.000543 0.008655 -0.001897 0.000000 0.004014 0.000000
# 3 0.002623 -0.001897 0.022672 0.000000 0.012613 0.000000
# 4 0.000000 0.000000 0.000000 0.029265 0.000000 0.008228
# 5 0.013016 0.004014 0.012613 0.000000 0.050581 0.000000
# 6 0.000000 0.000000 0.000000 0.008228 0.000000 0.055007
#
#
# Mechanical properties :
#
#
# Convention : Reuss Voigt Hill
#
# Bulk Modulus (GPa) = 21.16587 39.47091 30.31839
# Shear Modulus (GPa) = 25.36629 32.35205 28.85917
#
# Velocity S-wave (km/s) = 3.48357 3.93412 3.71568
# Velocity P-wave (km/s) = 5.12895 6.28644 5.73696
#
# Compressibility (1/GPa) = 0.04724588
#
# Stress axis : x y z
#
# Youngs Moduli (GPa) = 64.30417 115.53495 44.10784
#
# Poissons Ratio (x) = 0.06269 -0.11572
# Poissons Ratio (y) = 0.03489 0.08367
# Poissons Ratio (z) = -0.16870 0.21917
#
# Static dielectric constant tensor:
#      x y z
#    x 1.834560 0.000000 -0.016130 
#    y 0.000000 1.807820 0.000000 
#    z -0.016130 0.000000 1.780390 
# 
# From -- ./inp_files/173619.got.cif
#   From: 2010.05.17/outbox.cif.g08.bks.cpg/sg15_87_cif.got.tgz:173619.got - 2010.06.03 18:47:42.
