data_PCOD9270528
_publ_section_title
;
Structure prediction by ZEFSAII (Michael W. Deem and Ramdas Pophale) SiO2 
 PCOD9270528
Probable space group: C 2/C
;
_chemical_formula_sum "Si O2"
_cell_formula_units_Z 56
_cell_length_a 20.292470
_cell_length_b 14.276156
_cell_length_c 17.831694
_cell_angle_alpha 90.000000
_cell_angle_beta 149.539899
_cell_angle_gamma 90.000000
_cell_volume 2618.748810
_symmetry_space_group_name_H-M "C 2/C"
_symmetry_group_IT_number 15
_symmetry_cell_setting 'monoclinic'
loop_
_space_group_symop_operation_xyz
x,y,z
-x,y,1/2-z
-x,-y,-z
x,-y,1/2+z
1/2+x,1/2+y,z
1/2-x,1/2+y,1/2-z
1/2-x,1/2-y,-z
1/2+x,1/2-y,1/2+z
loop_
_atom_site_type_symbol
_atom_site_label
_atom_site_fract_x
_atom_site_fract_y
_atom_site_fract_z
Si Si1 0.628045 0.866436 0.325349
Si Si2 0.862891 0.315043 0.578237
Si Si3 0.261451 0.051424 0.092935
Si Si4 0.932477 0.150181 0.924358
Si Si5 0.199795 0.771114 0.637610
Si Si6 0.001792 0.010049 0.120692
Si Si7 0.630303 0.664122 0.327599
O O1 0.500000 0.878365 0.250000
O O2 0.626900 0.765263 0.284148
O O3 0.746107 0.851226 0.499315
O O4 0.659441 0.958117 0.307893
O O5 0.750000 0.250000 0.500000
O O6 0.826427 0.414060 0.579415
O O7 0.854589 0.297962 0.481598
O O8 0.000000 0.287305 0.750000
O O9 0.255592 0.135757 0.148376
O O10 0.110769 0.023592 0.933620
O O11 0.814263 0.221275 0.796172
O O12 0.926772 0.078573 0.988380
O O13 0.939962 0.081201 0.860311
O O14 0.073775 0.199092 0.061236
O O15 0.115154 0.074742 0.261341
O O16 0.500000 0.665358 0.250000
#
# Coordination Sequence:
#
# PCOD9270528 Si02
#       7
#     8   8   8   8   8   8   8
#     4  10  21  35  55  91 122 150 193 258 324 366
#     4  10  20  35  59  96 130 161 196 253 325 376
#     4  10  20  36  61  89 127 154 199 261 320 367
#     4  10  23  41  63  87 122 164 212 249 302 372
#     4  10  21  39  61  92 125 162 204 253 310 382
#     4  10  22  41  64  85 115 169 217 249 294 384
#     4  10  20  38  60  85 113 158 208 255 314 365
#
# _framework density 21.384257999999999
#
# number of rings (size 3 to 8) (size 9 to 14) (size 15 to 20)
#    0.000    2.000    1.429    2.143    2.000    1.143 
#    5.143    0.000    0.000    6.000    0.000    0.000 
#    0.000    0.000    0.000    0.000    0.000    0.000 
#
# Total GULP energy -156196.768945 kJ/mol
# GULP energy per Si atom -5578.456034 kJ/mol
# Density = 2.133559 g / cm^3
# Si number density = 21.384258 Si / 1000 Ang^3
#
#
#
# Elastic Constant Matrix: (Units=GPa)
#
#
# Indices 1 2 3 4 5 6 
#
# 1 47.3273 15.5391 28.1307 0.0000 21.0287 0.0000
# 2 15.5391 113.1718 40.9567 0.0000 16.2980 0.0000
# 3 28.1307 40.9567 85.9822 0.0000 33.3192 0.0000
# 4 0.0000 0.0000 0.0000 45.5670 0.0000 3.2897
# 5 21.0287 16.2980 33.3192 0.0000 24.1459 0.0000
# 6 0.0000 0.0000 0.0000 3.2897 0.0000 15.2996
#
#
#
# Elastic Compliance Matrix: (Units=1/GPa)
#
#
# Indices 1 2 3 4 5 6 
#
# 1 0.034529 -0.000647 0.001064 0.000000 -0.031104 0.000000
# 2 -0.000647 0.010691 -0.004949 0.000000 0.000177 0.000000
# 3 0.001064 -0.004949 0.027305 0.000000 -0.035265 0.000000
# 4 0.000000 0.000000 0.000000 0.022292 0.000000 -0.004793
# 5 -0.031104 0.000177 -0.035265 0.000000 0.117046 0.000000
# 6 0.000000 0.000000 0.000000 -0.004793 0.000000 0.066392
#
#
# Mechanical properties :
#
#
# Convention : Reuss Voigt Hill
#
# Bulk Modulus (GPa) = 15.75765 46.19271 30.97518
# Shear Modulus (GPa) = 16.20886 27.79282 22.00084
#
# Velocity S-wave (km/s) = 2.75613 3.60903 3.21102
# Velocity P-wave (km/s) = 4.18487 6.24619 5.31639
#
# Compressibility (1/GPa) = 0.06346126
#
# Stress axis : x y z
#
# Youngs Moduli (GPa) = 28.96089 93.54010 36.62277
#
# Poissons Ratio (x) = 0.06052 -0.03898
# Poissons Ratio (y) = 0.01874 0.18126
# Poissons Ratio (z) = -0.03082 0.46296
#
# Static dielectric constant tensor:
#      x y z
#    x 1.493680 0.000000 0.210740 
#    y 0.000000 1.857650 0.000000 
#    z 0.210740 0.000000 1.566880 
# 
# From -- ./inp_files/215783.got.cif
#   From: 2010.05.17/outbox.cif.g08.bks.cpg/sg15_108_cif.got.tgz:215783.got - 2010.06.03 18:47:42.
