data_PCOD9270483
_publ_section_title
;
Structure prediction by ZEFSAII (Michael W. Deem and Ramdas Pophale) SiO2 
 PCOD9270483
Probable space group: C 2/C
;
_chemical_formula_sum "Si O2"
_cell_formula_units_Z 52
_cell_length_a 12.549726
_cell_length_b 14.839246
_cell_length_c 15.173616
_cell_angle_alpha 90.000000
_cell_angle_beta 57.155830
_cell_angle_gamma 90.000000
_cell_volume 2374.058138
_symmetry_space_group_name_H-M "C 2/C"
_symmetry_group_IT_number 15
_symmetry_cell_setting 'monoclinic'
loop_
_space_group_symop_operation_xyz
x,y,z
-x,y,1/2-z
-x,-y,-z
x,-y,1/2+z
1/2+x,1/2+y,z
1/2-x,1/2+y,1/2-z
1/2-x,1/2-y,-z
1/2+x,1/2-y,1/2+z
loop_
_atom_site_type_symbol
_atom_site_label
_atom_site_fract_x
_atom_site_fract_y
_atom_site_fract_z
Si Si1 0.842579 0.824166 0.168356
Si Si2 0.500000 0.267140 0.250000
Si Si3 0.676025 0.818907 0.969432
Si Si4 0.872158 0.090795 0.270211
Si Si5 0.756000 0.819270 0.576490
Si Si6 0.351892 0.494502 0.588793
Si Si7 0.913693 0.270214 0.145735
O O1 0.852769 0.731861 0.110008
O O2 0.713233 0.826615 0.282309
O O3 0.960812 0.827533 0.182777
O O4 0.819521 0.900962 0.106528
O O5 0.376755 0.203538 0.316004
O O6 0.767414 0.898546 0.894081
O O7 0.750000 0.750000 0.000000
O O8 0.539499 0.828552 0.077396
O O9 0.830690 0.041477 0.198904
O O10 0.912972 0.192174 0.220075
O O11 0.000000 0.047171 0.250000
O O12 0.750000 0.750000 0.500000
O O13 0.776791 0.926090 0.559360
O O14 0.880728 0.788328 0.574296
O O15 0.500000 0.500000 0.500000
#
# Coordination Sequence:
#
# PCOD9270483 Si02
#       7
#     8   4   8   8   8   8   8
#     4  10  22  37  60  91 122 159 210 264 317 372
#     4  10  20  40  64  86 118 168 212 252 308 386
#     4  11  20  36  64  87 120 163 211 259 314 385
#     4  10  20  35  59  87 117 154 205 248 306 373
#     4  10  20  37  62  85 117 161 209 249 302 380
#     4  11  23  38  59  87 128 155 205 265 317 367
#     4   9  19  36  57  88 114 154 207 254 298 376
#
# _framework density 21.903423
#
# number of rings (size 3 to 8) (size 9 to 14) (size 15 to 20)
#    0.000    1.846    1.538    4.615    1.077    0.000 
#    0.000    2.308    0.000    0.000    0.000    0.000 
#    0.000    0.000    0.000    0.000    0.000    0.000 
#
# Total GULP energy -144843.618650 kJ/mol
# GULP energy per Si atom -5570.908410 kJ/mol
# Density = 2.185357 g / cm^3
# Si number density = 21.903423 Si / 1000 Ang^3
#
#
#
# Elastic Constant Matrix: (Units=GPa)
#
#
# Indices 1 2 3 4 5 6 
#
# 1 88.3500 4.9591 11.8802 0.0000 -2.9940 0.0000
# 2 4.9591 63.7734 -1.1377 0.0000 -5.2952 0.0000
# 3 11.8802 -1.1377 66.2432 0.0000 -25.1482 0.0000
# 4 0.0000 0.0000 0.0000 26.5147 0.0000 8.0087
# 5 -2.9940 -5.2952 -25.1482 0.0000 51.4777 0.0000
# 6 0.0000 0.0000 0.0000 8.0087 0.0000 23.7696
#
#
#
# Elastic Compliance Matrix: (Units=1/GPa)
#
#
# Indices 1 2 3 4 5 6 
#
# 1 0.011668 -0.000995 -0.002321 0.000000 -0.000558 0.000000
# 2 -0.000995 0.015965 0.001294 0.000000 0.002217 0.000000
# 3 -0.002321 0.001294 0.019071 0.000000 0.009315 0.000000
# 4 0.000000 0.000000 0.000000 0.041988 0.000000 -0.014147
# 5 -0.000558 0.002217 0.009315 0.000000 0.024172 0.000000
# 6 0.000000 0.000000 0.000000 -0.014147 0.000000 0.046837
#
#
# Mechanical properties :
#
#
# Convention : Reuss Voigt Hill
#
# Bulk Modulus (GPa) = 23.44184 27.75221 25.59703
# Shear Modulus (GPa) = 28.09553 33.86341 30.97947
#
# Velocity S-wave (km/s) = 3.58537 3.93623 3.76489
# Velocity P-wave (km/s) = 5.27877 5.77549 5.53271
#
# Compressibility (1/GPa) = 0.04265876
#
# Stress axis : x y z
#
# Youngs Moduli (GPa) = 85.70657 62.63695 52.43686
#
# Poissons Ratio (x) = 0.06233 0.12172
# Poissons Ratio (y) = 0.08528 -0.06786
# Poissons Ratio (z) = 0.19896 -0.08106
#
# Static dielectric constant tensor:
#      x y z
#    x 1.837230 0.000000 0.021860 
#    y 0.000000 1.881100 0.000000 
#    z 0.021860 0.000000 1.893320 
# 
# From -- ./inp_files/145477.got.cif
#   From: 2010.05.17/outbox.cif.g08.bks.cpg/sg15_73_cif.got.tgz:145477.got - 2010.06.03 18:47:42.
