data_PCOD9270694
_publ_section_title
;
Structure prediction by ZEFSAII (Michael W. Deem and Ramdas Pophale) SiO2 
 PCOD9270694
Probable space group: C 2/C
;
_chemical_formula_sum "Si O2"
_cell_formula_units_Z 64
_cell_length_a 9.150613
_cell_length_b 29.249826
_cell_length_c 12.052065
_cell_angle_alpha 90.000000
_cell_angle_beta 96.572560
_cell_angle_gamma 90.000000
_cell_volume 3204.580641
_symmetry_space_group_name_H-M "C 2/C"
_symmetry_group_IT_number 15
_symmetry_cell_setting 'monoclinic'
loop_
_space_group_symop_operation_xyz
x,y,z
-x,y,1/2-z
-x,-y,-z
x,-y,1/2+z
1/2+x,1/2+y,z
1/2-x,1/2+y,1/2-z
1/2-x,1/2-y,-z
1/2+x,1/2-y,1/2+z
loop_
_atom_site_type_symbol
_atom_site_label
_atom_site_fract_x
_atom_site_fract_y
_atom_site_fract_z
Si Si1 0.247652 0.177546 0.462841
Si Si2 0.547770 0.592422 0.383416
Si Si3 0.932585 0.554613 0.863576
Si Si4 0.844569 0.779707 0.094347
Si Si5 0.188464 0.232937 0.655119
Si Si6 0.998953 0.634337 0.135348
Si Si7 0.711452 0.616282 0.981198
Si Si8 0.345854 0.046544 0.409596
O O1 0.130736 0.140500 0.412541
O O2 0.236266 0.188521 0.590669
O O3 0.229406 0.223873 0.391079
O O4 0.410142 0.159838 0.450342
O O5 0.500000 0.590162 0.250000
O O6 0.418200 0.590697 0.463241
O O7 0.674104 0.554839 0.413898
O O8 0.799844 0.586867 0.896275
O O9 0.875648 0.502381 0.858816
O O10 0.000000 0.567154 0.750000
O O11 0.060800 0.553396 0.968831
O O12 0.785776 0.771708 0.213153
O O13 0.838865 0.833918 0.066457
O O14 0.014345 0.763858 0.112806
O O15 0.750000 0.750000 0.000000
O O16 0.000000 0.661559 0.250000
O O17 0.091357 0.587664 0.160486
O O18 0.835679 0.625535 0.084023
#
# Coordination Sequence:
#
# PCOD9270694 Si02
#       8
#     8   8   8   8   8   8   8   8
#     4  10  21  39  61  88 117 171 218 258 328 377
#     4  11  23  39  65  97 140 168 210 275 334 390
#     4  10  22  43  70  94 126 171 220 268 319 388
#     4  11  24  40  61  89 126 166 217 268 326 388
#     4  10  23  41  60  83 124 168 213 270 318 389
#     4  10  20  35  62  89 121 163 210 267 313 378
#     4  11  23  39  59  97 128 163 219 262 324 396
#     4   9  21  41  65  94 127 167 218 263 319 392
#
# _framework density 19.971412999999998
#
# number of rings (size 3 to 8) (size 9 to 14) (size 15 to 20)
#    0.000    1.750    1.250    2.625    5.250    5.500 
#    0.000    4.375    0.000    0.000    0.000    0.000 
#    0.000    0.000    0.000    0.000    0.000    0.000 
#
# Total GULP energy -178626.830650 kJ/mol
# GULP energy per Si atom -5582.088458 kJ/mol
# Density = 1.992596 g / cm^3
# Si number density = 19.971413 Si / 1000 Ang^3
#
#
#
# Elastic Constant Matrix: (Units=GPa)
#
#
# Indices 1 2 3 4 5 6 
#
# 1 110.3583 20.2579 51.7752 0.0000 -16.3204 0.0000
# 2 20.2579 71.7363 28.4609 0.0000 -6.1252 0.0000
# 3 51.7752 28.4609 125.9104 0.0000 -25.4729 0.0000
# 4 0.0000 0.0000 0.0000 21.0773 0.0000 -3.7456
# 5 -16.3204 -6.1252 -25.4729 0.0000 29.3226 0.0000
# 6 0.0000 0.0000 0.0000 -3.7456 0.0000 18.9134
#
#
#
# Elastic Compliance Matrix: (Units=1/GPa)
#
#
# Indices 1 2 3 4 5 6 
#
# 1 0.011553 -0.001498 -0.003851 0.000000 0.002772 0.000000
# 2 -0.001498 0.015509 -0.002915 0.000000 -0.000127 0.000000
# 3 -0.003851 -0.002915 0.011681 0.000000 0.007395 0.000000
# 4 0.000000 0.000000 0.000000 0.049175 0.000000 0.009739
# 5 0.002772 -0.000127 0.007395 0.000000 0.042043 0.000000
# 6 0.000000 0.000000 0.000000 0.009739 0.000000 0.054801
#
#
# Mechanical properties :
#
#
# Convention : Reuss Voigt Hill
#
# Bulk Modulus (GPa) = 45.01747 56.55480 50.78614
# Shear Modulus (GPa) = 23.95827 27.69672 25.82749
#
# Velocity S-wave (km/s) = 3.46732 3.72804 3.60004
# Velocity P-wave (km/s) = 6.21447 6.84912 6.53950
#
# Compressibility (1/GPa) = 0.02221360
#
# Stress axis : x y z
#
# Youngs Moduli (GPa) = 86.55647 64.47974 85.60987
#
# Poissons Ratio (x) = 0.09658 0.32972
# Poissons Ratio (y) = 0.12965 0.24958
# Poissons Ratio (z) = 0.33337 0.18798
#
# Static dielectric constant tensor:
#      x y z
#    x 1.705140 0.000000 -0.025280 
#    y 0.000000 1.742040 0.000000 
#    z -0.025280 0.000000 1.705870 
# 
# From -- ./inp_files/82577.got.cif
#   From: 2010.05.17/outbox.cif.g08.bks.cpg/sg15_42_cif.got.tgz:82577.got - 2010.06.03 18:47:42.
