data_PCOD9270416
_publ_section_title
;
Structure prediction by ZEFSAII (Michael W. Deem and Ramdas Pophale) SiO2 
 PCOD9270416
Probable space group: C 2/C
;
_chemical_formula_sum "Si O2"
_cell_formula_units_Z 56
_cell_length_a 17.468828
_cell_length_b 18.785924
_cell_length_c 23.521512
_cell_angle_alpha 90.000000
_cell_angle_beta 20.905283
_cell_angle_gamma 90.000000
_cell_volume 2754.328837
_symmetry_space_group_name_H-M "C 2/C"
_symmetry_group_IT_number 15
_symmetry_cell_setting 'monoclinic'
loop_
_space_group_symop_operation_xyz
x,y,z
-x,y,1/2-z
-x,-y,-z
x,-y,1/2+z
1/2+x,1/2+y,z
1/2-x,1/2+y,1/2-z
1/2-x,1/2-y,-z
1/2+x,1/2-y,1/2+z
loop_
_atom_site_type_symbol
_atom_site_label
_atom_site_fract_x
_atom_site_fract_y
_atom_site_fract_z
Si Si1 0.017490 0.836718 0.616755
Si Si2 0.814760 0.277413 0.316996
Si Si3 0.893080 0.442634 0.148635
Si Si4 0.293605 0.716755 0.852289
Si Si5 0.911141 0.578831 0.867986
Si Si6 0.073081 0.605515 0.410855
Si Si7 0.423711 0.681977 0.632764
O O1 0.953349 0.793117 0.716872
O O2 0.799290 0.860423 0.738855
O O3 0.147093 0.786057 0.483825
O O4 0.162897 0.904049 0.531618
O O5 0.697303 0.283962 0.337648
O O6 0.972007 0.344235 0.211774
O O7 0.894499 0.522935 0.125824
O O8 0.664124 0.400286 0.309932
O O9 0.012281 0.450728 0.125811
O O10 0.028072 0.394842 0.010201
O O11 0.500000 0.709647 0.750000
O O12 0.359585 0.710451 0.739943
O O13 0.122659 0.651270 0.979572
O O14 0.166429 0.790326 0.954067
O O15 0.000000 0.540564 0.750000
#
# Coordination Sequence:
#
# PCOD9270416 Si02
#       7
#     8   8   8   8   8   8   8
#     4  11  21  35  61  93 123 159 198 245 304 361
#     4  10  20  35  58  89 129 153 195 241 301 372
#     4   9  21  43  61  86 124 160 207 244 307 375
#     4  11  22  38  63  90 121 152 212 267 308 356
#     4   9  20  37  57  89 126 158 194 244 297 367
#     4  10  22  40  63  87 118 166 206 251 305 366
#     4  10  20  38  64  86 118 163 199 255 311 364
#
# _framework density 20.331631000000002
#
# number of rings (size 3 to 8) (size 9 to 14) (size 15 to 20)
#    0.000    2.000    1.429    1.714    4.000    0.571 
#    7.714    6.429    0.000    0.000    0.000    0.000 
#    0.000    0.000    0.000    0.000    0.000    0.000 
#
# Total GULP energy -155979.705800 kJ/mol
# GULP energy per Si atom -5570.703779 kJ/mol
# Density = 2.028536 g / cm^3
# Si number density = 20.331631 Si / 1000 Ang^3
#
#
#
# Elastic Constant Matrix: (Units=GPa)
#
#
# Indices 1 2 3 4 5 6 
#
# 1 138.2677 20.8456 52.6564 -0.0024 -3.5287 -0.0014
# 2 20.8456 49.5855 28.1022 0.0152 3.0060 -0.0108
# 3 52.6564 28.1022 89.5655 0.0563 -14.4731 -0.0156
# 4 -0.0024 0.0152 0.0563 18.8923 0.0015 3.9320
# 5 -3.5287 3.0060 -14.4731 0.0015 27.8256 -0.0013
# 6 -0.0014 -0.0108 -0.0156 3.9320 -0.0013 16.9669
#
#
#
# Elastic Compliance Matrix: (Units=1/GPa)
#
#
# Indices 1 2 3 4 5 6 
#
# 1 0.009423 -0.000697 -0.005585 0.000021 -0.001635 -0.000010
# 2 -0.000697 0.026003 -0.008971 0.000005 -0.007564 0.000007
# 3 -0.005585 -0.008971 0.018894 -0.000056 0.010088 0.000025
# 4 0.000021 0.000005 -0.000056 0.055614 -0.000031 -0.012888
# 5 -0.001635 -0.007564 0.010088 -0.000031 0.041795 0.000015
# 6 -0.000010 0.000007 0.000025 -0.012888 0.000015 0.061925
#
#
# Mechanical properties :
#
#
# Convention : Reuss Voigt Hill
#
# Bulk Modulus (GPa) = 41.99442 53.40300 47.69871
# Shear Modulus (GPa) = 19.83353 24.45793 22.14573
#
# Velocity S-wave (km/s) = 3.12669 3.47212 3.30392
# Velocity P-wave (km/s) = 5.80814 6.51131 6.16975
#
# Compressibility (1/GPa) = 0.02381269
#
# Stress axis : x y z
#
# Youngs Moduli (GPa) = 106.12660 38.45689 52.92753
#
# Poissons Ratio (x) = 0.02679 0.29562
# Poissons Ratio (y) = 0.07394 0.47484
# Poissons Ratio (z) = 0.59275 0.34501
#
# Static dielectric constant tensor:
#      x y z
#    x 1.788590 0.000010 0.008980 
#    y 0.000010 1.743890 0.000040 
#    z 0.008980 0.000040 1.767400 
# 
# From -- ./inp_files/50342.got.cif
#   From: 2010.05.17/outbox.cif.g08.bks.cpg/sg15_26_cif.got.tgz:50342.got - 2010.06.03 18:47:42.
