data_PCOD9270047
_publ_section_title
;
Structure prediction by ZEFSAII (Michael W. Deem and Ramdas Pophale) SiO2 
 PCOD9270047
Probable space group: C 2/C
;
_chemical_formula_sum "Si O2"
_cell_formula_units_Z 60
_cell_length_a 24.712423
_cell_length_b 23.727228
_cell_length_c 5.122342
_cell_angle_alpha 90.000000
_cell_angle_beta 87.465349
_cell_angle_gamma 90.000000
_cell_volume 3000.584130
_symmetry_space_group_name_H-M "C 2/C"
_symmetry_group_IT_number 15
_symmetry_cell_setting 'monoclinic'
loop_
_space_group_symop_operation_xyz
x,y,z
-x,y,1/2-z
-x,-y,-z
x,-y,1/2+z
1/2+x,1/2+y,z
1/2-x,1/2+y,1/2-z
1/2-x,1/2-y,-z
1/2+x,1/2-y,1/2+z
loop_
_atom_site_type_symbol
_atom_site_label
_atom_site_fract_x
_atom_site_fract_y
_atom_site_fract_z
Si Si1 0.856059 0.697144 0.640222
Si Si2 0.000000 0.149100 0.250000
Si Si3 0.157223 0.035869 0.834409
Si Si4 0.949282 0.238573 0.879302
Si Si5 0.285317 0.709669 0.297750
Si Si6 0.682076 0.859601 0.835205
Si Si7 0.787476 0.531846 0.846228
Si Si8 0.610213 0.349040 0.466230
O O1 0.913700 0.724764 0.579775
O O2 0.810966 0.745873 0.588457
O O3 0.849101 0.647549 0.430560
O O4 0.845843 0.680722 0.941375
O O5 0.942752 0.125292 0.371311
O O6 0.021774 0.188597 0.473229
O O7 0.133313 0.098084 0.800438
O O8 0.140954 0.993714 0.607817
O O9 0.222528 0.040118 0.843842
O O10 0.910754 0.205406 0.687493
O O11 0.000000 0.272111 0.750000
O O12 0.250000 0.750000 0.500000
O O13 0.242456 0.661022 0.244519
O O14 0.338670 0.676243 0.386673
O O15 0.687877 0.915968 0.002477
O O16 0.801659 0.480570 0.042327
#
# Coordination Sequence:
#
# PCOD9270047 Si02
#       8
#     8   4   8   8   8   8   8   8
#     4  11  22  37  55  88 123 151 191 231 288 353
#     4  10  22  38  58  80 106 158 200 242 300 340
#     4  10  23  39  59  83 108 147 198 253 299 336
#     4  10  22  37  60  81 115 158 193 239 287 355
#     4  10  20  35  54  85 117 153 183 231 291 353
#     4  11  22  36  56  88 122 155 186 238 287 347
#     4  10  20  38  57  82 115 157 196 232 286 344
#     4  11  21  40  59  81 114 150 205 241 295 351
#
# _framework density 19.996106000000001
#
# number of rings (size 3 to 8) (size 9 to 14) (size 15 to 20)
#    0.000    1.600    2.667    2.800    3.733    1.067 
#    2.400    0.667    0.000    0.000    0.000    0.000 
#    0.000   10.667    0.000    0.000    0.000    0.000 
#
# Total GULP energy -167076.493503 kJ/mol
# GULP energy per Si atom -5569.216450 kJ/mol
# Density = 1.995059 g / cm^3
# Si number density = 19.996106 Si / 1000 Ang^3
#
#
#
# Elastic Constant Matrix: (Units=GPa)
#
#
# Indices 1 2 3 4 5 6 
#
# 1 69.1019 26.2331 23.0301 0.0000 -10.8412 0.0000
# 2 26.2331 47.8407 -4.5541 0.0000 -6.2017 0.0000
# 3 23.0301 -4.5541 73.3788 0.0000 -4.9484 0.0000
# 4 0.0000 0.0000 0.0000 17.1276 0.0000 -1.4376
# 5 -10.8412 -6.2017 -4.9484 0.0000 23.9230 0.0000
# 6 0.0000 0.0000 0.0000 -1.4376 0.0000 18.2909
#
#
#
# Elastic Compliance Matrix: (Units=1/GPa)
#
#
# Indices 1 2 3 4 5 6 
#
# 1 0.022497 -0.012339 -0.007459 0.000000 0.005453 0.000000
# 2 -0.012339 0.028620 0.005854 0.000000 0.003038 0.000000
# 3 -0.007459 0.005854 0.016436 0.000000 0.001537 0.000000
# 4 0.000000 0.000000 0.000000 0.058773 0.000000 0.004619
# 5 0.005453 0.003038 0.001537 0.000000 0.045378 0.000000
# 6 0.000000 0.000000 0.000000 0.004619 0.000000 0.055035
#
#
# Mechanical properties :
#
#
# Convention : Reuss Voigt Hill
#
# Bulk Modulus (GPa) = 25.21147 31.08216 28.14682
# Shear Modulus (GPa) = 18.66726 21.57579 20.12153
#
# Velocity S-wave (km/s) = 3.05871 3.28838 3.17562
# Velocity P-wave (km/s) = 5.01097 5.47684 5.24908
#
# Compressibility (1/GPa) = 0.03966448
#
# Stress axis : x y z
#
# Youngs Moduli (GPa) = 44.45012 34.94071 60.84263
#
# Poissons Ratio (x) = 0.43114 0.45381
# Poissons Ratio (y) = 0.54848 -0.35616
# Poissons Ratio (z) = 0.33155 -0.20454
#
# Static dielectric constant tensor:
#      x y z
#    x 1.691450 0.000000 -0.060000 
#    y 0.000000 1.762990 0.000000 
#    z -0.060000 0.000000 1.774400 
# 
# From -- ./inp_files/13923.got.cif
#   From: 2010.05.17/outbox.cif.g08.bks.cpg/sg15_7_cif.got.tgz:13923.got - 2010.06.03 18:47:42.
