data_PCOD9270722
_publ_section_title
;
Structure prediction by ZEFSAII (Michael W. Deem and Ramdas Pophale) SiO2 
 PCOD9270722
Probable space group: C 2/C
;
_chemical_formula_sum "Si O2"
_cell_formula_units_Z 40
_cell_length_a 8.807358
_cell_length_b 11.170286
_cell_length_c 17.300185
_cell_angle_alpha 90.000000
_cell_angle_beta 99.053023
_cell_angle_gamma 90.000000
_cell_volume 1680.802829
_symmetry_space_group_name_H-M "C 2/C"
_symmetry_group_IT_number 15
_symmetry_cell_setting 'monoclinic'
loop_
_space_group_symop_operation_xyz
x,y,z
-x,y,1/2-z
-x,-y,-z
x,-y,1/2+z
1/2+x,1/2+y,z
1/2-x,1/2+y,1/2-z
1/2-x,1/2-y,-z
1/2+x,1/2-y,1/2+z
loop_
_atom_site_type_symbol
_atom_site_label
_atom_site_fract_x
_atom_site_fract_y
_atom_site_fract_z
Si Si1 0.098899 0.652081 0.130774
Si Si2 0.627123 0.403190 0.110358
Si Si3 0.985661 0.405693 0.166355
Si Si4 0.645079 0.855311 0.023911
Si Si5 0.125859 0.078974 0.433997
O O1 0.067647 0.788311 0.153867
O O2 0.274165 0.659560 0.114391
O O3 0.073611 0.534768 0.179990
O O4 0.986674 0.622863 0.049705
O O5 0.806124 0.427218 0.136055
O O6 0.527118 0.522173 0.113440
O O7 0.599089 0.369003 0.017250
O O8 0.000000 0.342948 0.250000
O O9 0.064849 0.338323 0.100731
O O10 0.759767 0.966877 0.041878
O O11 0.750000 0.750000 0.000000
#
# Coordination Sequence:
#
# PCOD9270722 Si02
#       5
#     8   8   8   8   8
#     4  11  21  41  63  92 124 169 222 262 321 393
#     4  11  21  37  64  96 126 165 217 270 323 384
#     4  11  25  45  60  92 142 170 211 280 336 390
#     4  11  20  40  69  98 125 171 226 269 323 393
#     4  10  20  35  63 100 124 156 221 278 309 374
#
# _framework density 23.79815
#
# number of rings (size 3 to 8) (size 9 to 14) (size 15 to 20)
#    0.000    1.200    6.000    1.800    0.000    0.000 
#    3.600    4.000    0.000    0.000    0.000    0.000 
#    0.000    0.000    0.000    0.000    0.000    0.000 
#
# Total GULP energy -111855.764385 kJ/mol
# GULP energy per Si atom -5592.788219 kJ/mol
# Density = 2.374398 g / cm^3
# Si number density = 23.798150 Si / 1000 Ang^3
#
#
#
# Elastic Constant Matrix: (Units=GPa)
#
#
# Indices 1 2 3 4 5 6 
#
# 1 137.7054 16.0076 31.1947 0.0000 7.1649 0.0000
# 2 16.0076 71.8391 -3.8802 0.0000 -1.1601 0.0000
# 3 31.1947 -3.8802 78.0617 0.0000 -19.9494 0.0000
# 4 0.0000 0.0000 0.0000 10.0320 0.0000 3.4097
# 5 7.1649 -1.1601 -19.9494 0.0000 21.7008 0.0000
# 6 0.0000 0.0000 0.0000 3.4097 0.0000 32.7805
#
#
#
# Elastic Compliance Matrix: (Units=1/GPa)
#
#
# Indices 1 2 3 4 5 6 
#
# 1 0.009425 -0.002578 -0.006176 0.000000 -0.008927 0.000000
# 2 -0.002578 0.014717 0.002850 0.000000 0.004258 0.000000
# 3 -0.006176 0.002850 0.020887 0.000000 0.021393 0.000000
# 4 0.000000 0.000000 0.000000 0.103335 0.000000 -0.010749
# 5 -0.008927 0.004258 0.021393 0.000000 0.068923 0.000000
# 6 0.000000 0.000000 0.000000 -0.010749 0.000000 0.031624
#
#
# Mechanical properties :
#
#
# Convention : Reuss Voigt Hill
#
# Bulk Modulus (GPa) = 30.10117 41.58338 35.84228
# Shear Modulus (GPa) = 18.39634 29.18825 23.79230
#
# Velocity S-wave (km/s) = 2.78333 3.50593 3.16532
# Velocity P-wave (km/s) = 4.79638 5.82237 5.33410
#
# Compressibility (1/GPa) = 0.03322130
#
# Stress axis : x y z
#
# Youngs Moduli (GPa) = 106.09953 67.94813 47.87599
#
# Poissons Ratio (x) = 0.17516 0.29568
# Poissons Ratio (y) = 0.27351 -0.13644
# Poissons Ratio (z) = 0.65527 -0.19364
#
# Static dielectric constant tensor:
#      x y z
#    x 1.914950 0.000000 -0.033180 
#    y 0.000000 1.986850 0.000000 
#    z -0.033180 0.000000 1.948630 
# 
# From -- ./inp_files/187773.got.cif
#   From: 2010.05.17/outbox.cif.g08.bks.cpg/sg15_94_cif.got.tgz:187773.got - 2010.06.03 18:47:42.
