data_PCOD9270168
_publ_section_title
;
Structure prediction by ZEFSAII (Michael W. Deem and Ramdas Pophale) SiO2 
 PCOD9270168
Probable space group: C 2/C
;
_chemical_formula_sum "Si O2"
_cell_formula_units_Z 56
_cell_length_a 13.276811
_cell_length_b 7.717225
_cell_length_c 27.633545
_cell_angle_alpha 90.000000
_cell_angle_beta 121.653320
_cell_angle_gamma 90.000000
_cell_volume 2410.144158
_symmetry_space_group_name_H-M "C 2/C"
_symmetry_group_IT_number 15
_symmetry_cell_setting 'monoclinic'
loop_
_space_group_symop_operation_xyz
x,y,z
-x,y,1/2-z
-x,-y,-z
x,-y,1/2+z
1/2+x,1/2+y,z
1/2-x,1/2+y,1/2-z
1/2-x,1/2-y,-z
1/2+x,1/2-y,1/2+z
loop_
_atom_site_type_symbol
_atom_site_label
_atom_site_fract_x
_atom_site_fract_y
_atom_site_fract_z
Si Si1 0.179392 0.325213 0.081044
Si Si2 0.024683 0.195851 0.524280
Si Si3 0.753882 0.921925 0.377253
Si Si4 0.085146 0.134006 0.900572
Si Si5 0.509728 0.935645 0.809736
Si Si6 0.782908 0.587221 0.803925
Si Si7 0.868059 0.973949 0.812071
O O1 0.274604 0.387575 0.065632
O O2 0.203787 0.433358 0.135557
O O3 0.209550 0.121491 0.099779
O O4 0.044243 0.321486 0.029458
O O5 0.959663 0.206766 0.559741
O O6 0.165150 0.201361 0.569227
O O7 0.000000 0.000000 0.500000
O O8 0.612841 0.920662 0.344150
O O9 0.798159 0.903541 0.332923
O O10 0.052494 0.267596 0.849576
O O11 0.001779 0.972780 0.865384
O O12 0.500000 0.907700 0.750000
O O13 0.385629 0.988552 0.801194
O O14 0.658255 0.539096 0.748450
O O15 0.810200 0.787575 0.801616
#
# Coordination Sequence:
#
# PCOD9270168 Si02
#       7
#     8   8   8   8   8   8   8
#     4   9  19  34  57  84 115 150 195 251 286 343
#     4   9  17  36  62  87 115 151 204 251 292 356
#     4   8  17  34  57  81 107 156 196 235 297 349
#     4  10  21  35  62  89 112 155 202 242 304 355
#     4  11  21  38  58  84 120 158 198 247 302 356
#     4  11  22  38  57  85 122 157 197 244 305 356
#     4  10  20  35  56  84 117 152 194 244 295 360
#
# _framework density 23.235126000000001
#
# number of rings (size 3 to 8) (size 9 to 14) (size 15 to 20)
#    0.000    2.286    1.429    2.143    4.000    0.000 
#    2.571    1.429    0.000    0.000    0.000    0.000 
#    0.000    0.000    0.000    0.000    0.000    0.000 
#
# Total GULP energy -156350.981968 kJ/mol
# GULP energy per Si atom -5583.963642 kJ/mol
# Density = 2.318224 g / cm^3
# Si number density = 23.235126 Si / 1000 Ang^3
#
#
#
# Elastic Constant Matrix: (Units=GPa)
#
#
# Indices 1 2 3 4 5 6 
#
# 1 65.8317 -2.8244 6.1478 0.0000 3.6950 0.0000
# 2 -2.8244 10.3284 6.5584 0.0000 8.6634 0.0000
# 3 6.1478 6.5584 78.2762 0.0000 8.9887 0.0000
# 4 0.0000 0.0000 0.0000 17.1197 0.0000 -2.4317
# 5 3.6950 8.6634 8.9887 0.0000 30.4304 0.0000
# 6 0.0000 0.0000 0.0000 -2.4317 0.0000 18.8690
#
#
#
# Elastic Compliance Matrix: (Units=1/GPa)
#
#
# Indices 1 2 3 4 5 6 
#
# 1 0.015923 0.008625 -0.001521 0.000000 -0.003940 0.000000
# 2 0.008625 0.135382 -0.007737 0.000000 -0.037305 0.000000
# 3 -0.001521 -0.007737 0.013735 0.000000 -0.001670 0.000000
# 4 0.000000 0.000000 0.000000 0.059501 0.000000 0.007668
# 5 -0.003940 -0.037305 -0.001670 0.000000 0.044454 0.000000
# 6 0.000000 0.000000 0.000000 0.007668 0.000000 0.053985
#
#
# Mechanical properties :
#
#
# Convention : Reuss Voigt Hill
#
# Bulk Modulus (GPa) = 6.10595 19.35554 12.73075
# Shear Modulus (GPa) = 13.19827 22.92080 18.05954
#
# Velocity S-wave (km/s) = 2.38593 3.14422 2.79095
# Velocity P-wave (km/s) = 3.19747 4.64003 3.98458
#
# Compressibility (1/GPa) = 0.16377463
#
# Stress axis : x y z
#
# Youngs Moduli (GPa) = 62.80058 7.38651 72.80846
#
# Poissons Ratio (x) = -0.06371 0.11073
# Poissons Ratio (y) = -0.54164 0.56329
# Poissons Ratio (z) = 0.09551 0.05715
#
# Static dielectric constant tensor:
#      x y z
#    x 1.915740 0.000000 0.046200 
#    y 0.000000 1.914890 0.000000 
#    z 0.046200 0.000000 1.914120 
# 
# From -- ./inp_files/295247.got.cif
#   From: 2010.05.17/outbox.cif.g08.bks.cpg/sg15_148_cif.got.tgz:295247.got - 2010.06.03 18:47:42.
