data_PCOD9270673
_publ_section_title
;
Structure prediction by ZEFSAII (Michael W. Deem and Ramdas Pophale) SiO2 
 PCOD9270673
Probable space group: C 2/C
;
_chemical_formula_sum "Si O2"
_cell_formula_units_Z 40
_cell_length_a 11.923464
_cell_length_b 15.465002
_cell_length_c 9.267651
_cell_angle_alpha 90.000000
_cell_angle_beta 82.727911
_cell_angle_gamma 90.000000
_cell_volume 1695.175248
_symmetry_space_group_name_H-M "C 2/C"
_symmetry_group_IT_number 15
_symmetry_cell_setting 'monoclinic'
loop_
_space_group_symop_operation_xyz
x,y,z
-x,y,1/2-z
-x,-y,-z
x,-y,1/2+z
1/2+x,1/2+y,z
1/2-x,1/2+y,1/2-z
1/2-x,1/2-y,-z
1/2+x,1/2-y,1/2+z
loop_
_atom_site_type_symbol
_atom_site_label
_atom_site_fract_x
_atom_site_fract_y
_atom_site_fract_z
Si Si1 0.331422 0.053461 0.620716
Si Si2 0.038144 0.372368 0.898380
Si Si3 0.864056 0.999594 0.039669
Si Si4 0.365836 0.378285 0.801516
Si Si5 0.872824 0.692768 0.833221
O O1 0.425419 0.097752 0.501675
O O2 0.214099 0.056531 0.553534
O O3 0.322009 0.106980 0.769928
O O4 0.385630 0.958513 0.638128
O O5 0.000000 0.336457 0.750000
O O6 0.106682 0.312747 0.999003
O O7 0.836210 0.043178 0.197690
O O8 0.841524 0.906150 0.969919
O O9 0.000000 0.000000 0.000000
O O10 0.500000 0.370047 0.750000
O O11 0.318849 0.282189 0.786845
O O12 0.000000 0.691087 0.750000
#
# Coordination Sequence:
#
# PCOD9270673 Si02
#       5
#     8   8   8   8   8
#     4  10  20  35  63  89 125 160 198 248 306 370
#     4  10  20  35  61  96 121 155 198 252 312 360
#     4  10  22  39  63  87 118 168 208 246 300 363
#     4   9  20  40  61  85 121 163 207 250 299 360
#     4   9  19  38  61  89 124 160 200 255 306 358
#
# _framework density 23.596378999999999
#
# number of rings (size 3 to 8) (size 9 to 14) (size 15 to 20)
#    0.000    2.400    0.000    3.000    5.600    0.800 
#    0.000   10.000    0.000    0.000    0.000    0.000 
#    0.000    0.000    0.000    0.000    0.000    0.000 
#
# Total GULP energy -111452.219795 kJ/mol
# GULP energy per Si atom -5572.610990 kJ/mol
# Density = 2.354267 g / cm^3
# Si number density = 23.596379 Si / 1000 Ang^3
#
#
#
# Elastic Constant Matrix: (Units=GPa)
#
#
# Indices 1 2 3 4 5 6 
#
# 1 126.6259 1.2141 42.7760 0.0000 -1.3438 0.0000
# 2 1.2141 111.7255 40.5694 0.0000 4.3956 0.0000
# 3 42.7760 40.5694 157.4614 0.0000 -7.2823 0.0000
# 4 0.0000 0.0000 0.0000 23.2590 0.0000 5.1275
# 5 -1.3438 4.3956 -7.2823 0.0000 38.5556 0.0000
# 6 0.0000 0.0000 0.0000 5.1275 0.0000 -6.8206
#
#
#
# Elastic Compliance Matrix: (Units=1/GPa)
#
#
# Indices 1 2 3 4 5 6 
#
# 1 0.008771 0.000867 -0.002619 0.000000 -0.000288 0.000000
# 2 0.000867 0.010061 -0.002905 0.000000 -0.001666 0.000000
# 3 -0.002619 -0.002905 0.007891 0.000000 0.001730 0.000000
# 4 0.000000 0.000000 0.000000 0.036882 0.000000 0.027727
# 5 -0.000288 -0.001666 0.001730 0.000000 0.026443 0.000000
# 6 0.000000 0.000000 0.000000 0.027727 0.000000 -0.125770
#
#
# Mechanical properties :
#
#
# Convention : Reuss Voigt Hill
#
# Bulk Modulus (GPa) = 57.44238 62.77019 60.10628
# Shear Modulus (GPa) = -242.65821 31.74900 -105.45460
#
# Velocity S-wave (km/s) = -10.15186 3.67209 -6.69239
# Velocity P-wave (km/s) = 10.63095 6.68119 5.84717
#
# Compressibility (1/GPa) = 0.01740875
#
# Stress axis : x y z
#
# Youngs Moduli (GPa) = 114.01488 99.38941 126.72963
#
# Poissons Ratio (x) = -0.08619 0.33196
# Poissons Ratio (y) = -0.09887 0.36814
# Poissons Ratio (z) = 0.29865 0.28872
#
# Static dielectric constant tensor:
#      x y z
#    x 1.961500 0.000000 -0.033310 
#    y 0.000000 1.904810 0.000000 
#    z -0.033310 0.000000 1.911170 
# 
# From -- ./inp_files/38717.got.cif
#   From: 2010.05.17/outbox.cif.g08.bks.cpg/sg15_20_cif.got.tgz:38717.got - 2010.06.03 18:47:42.
