data_PCOD9270454
_publ_section_title
;
Structure prediction by ZEFSAII (Michael W. Deem and Ramdas Pophale) SiO2 
 PCOD9270454
Probable space group: C 2/C
;
_chemical_formula_sum "Si O2"
_cell_formula_units_Z 48
_cell_length_a 10.143383
_cell_length_b 17.332040
_cell_length_c 18.764234
_cell_angle_alpha 90.000000
_cell_angle_beta 121.956160
_cell_angle_gamma 90.000000
_cell_volume 2798.925242
_symmetry_space_group_name_H-M "C 2/C"
_symmetry_group_IT_number 15
_symmetry_cell_setting 'monoclinic'
loop_
_space_group_symop_operation_xyz
x,y,z
-x,y,1/2-z
-x,-y,-z
x,-y,1/2+z
1/2+x,1/2+y,z
1/2-x,1/2+y,1/2-z
1/2-x,1/2-y,-z
1/2+x,1/2-y,1/2+z
loop_
_atom_site_type_symbol
_atom_site_label
_atom_site_fract_x
_atom_site_fract_y
_atom_site_fract_z
Si Si1 0.429414 0.569087 0.160547
Si Si2 0.868864 0.539495 0.510324
Si Si3 0.309129 0.180454 0.332092
Si Si4 0.331132 0.327065 0.853059
Si Si5 0.594465 0.778269 0.494632
Si Si6 0.569877 0.069576 0.345750
O O1 0.500000 0.526149 0.250000
O O2 0.336911 0.641014 0.169976
O O3 0.564043 0.603630 0.149695
O O4 0.298235 0.528743 0.075669
O O5 0.909444 0.630267 0.522353
O O6 0.870596 0.499236 0.587717
O O7 0.000000 0.500000 0.500000
O O8 0.251866 0.211544 0.239716
O O9 0.385215 0.233025 0.414390
O O10 0.431417 0.113482 0.347326
O O11 0.445996 0.267830 0.924020
O O12 0.202091 0.367211 0.865453
O O13 0.750000 0.750000 0.500000
O O14 0.500000 0.042917 0.250000
#
# Coordination Sequence:
#
# PCOD9270454 Si02
#       6
#     8   8   8   8   8   8
#     4   9  17  33  58  79 109 152 189 219 280 345
#     4  11  20  38  61  83 115 151 189 231 287 340
#     4   9  18  36  58  78 114 151 187 214 291 346
#     4  10  20  35  59  84 111 148 190 233 275 334
#     4  11  20  36  59  86 108 145 195 233 272 332
#     4  10  21  38  59  86 113 152 188 230 286 345
#
# _framework density 17.149439999999998
#
# number of rings (size 3 to 8) (size 9 to 14) (size 15 to 20)
#    0.000    2.000    6.667    0.000    0.000    1.333 
#    3.000    0.000    3.667    0.000    0.000    0.000 
#    0.000    0.000    0.000    0.000    0.000    0.000 
#
# Total GULP energy -133669.077163 kJ/mol
# GULP energy per Si atom -5569.544882 kJ/mol
# Density = 1.711041 g / cm^3
# Si number density = 17.149440 Si / 1000 Ang^3
#
#
#
# Elastic Constant Matrix: (Units=GPa)
#
#
# Indices 1 2 3 4 5 6 
#
# 1 51.2120 22.2728 21.3410 0.0000 0.5978 0.0000
# 2 22.2728 64.6084 54.6311 0.0000 1.4364 0.0000
# 3 21.3410 54.6311 183.4151 0.0000 7.0705 0.0000
# 4 0.0000 0.0000 0.0000 37.6746 0.0000 5.6918
# 5 0.5978 1.4364 7.0705 0.0000 26.4085 0.0000
# 6 0.0000 0.0000 0.0000 5.6918 0.0000 20.8556
#
#
#
# Elastic Compliance Matrix: (Units=1/GPa)
#
#
# Indices 1 2 3 4 5 6 
#
# 1 0.022995 -0.007572 -0.000420 0.000000 0.000004 0.000000
# 2 -0.007572 0.023189 -0.006046 0.000000 0.000529 0.000000
# 3 -0.000420 -0.006046 0.007365 0.000000 -0.001633 0.000000
# 4 0.000000 0.000000 0.000000 0.027685 0.000000 -0.007556
# 5 0.000004 0.000529 -0.001633 0.000000 0.038275 0.000000
# 6 0.000000 0.000000 0.000000 -0.007556 0.000000 0.050011
#
#
# Mechanical properties :
#
#
# Convention : Reuss Voigt Hill
#
# Bulk Modulus (GPa) = 39.25910 55.08058 47.16984
# Shear Modulus (GPa) = 24.26163 30.38711 27.32437
#
# Velocity S-wave (km/s) = 3.76535 4.21396 3.99596
# Velocity P-wave (km/s) = 6.46884 7.47425 6.98965
#
# Compressibility (1/GPa) = 0.02547180
#
# Stress axis : x y z
#
# Youngs Moduli (GPa) = 43.48792 43.12396 135.77861
#
# Poissons Ratio (x) = 0.32652 0.05708
# Poissons Ratio (y) = 0.32928 0.82096
# Poissons Ratio (z) = 0.01828 0.26074
#
# Static dielectric constant tensor:
#      x y z
#    x 1.569540 0.000000 0.001470 
#    y 0.000000 1.562210 0.000000 
#    z 0.001470 0.000000 1.657150 
# 
# From -- ./inp_files/135473.got.cif
#   From: 2010.05.17/outbox.cif.g08.bks.cpg/sg15_68_cif.got.tgz:135473.got - 2010.06.03 18:47:42.
