data_PCOD9270190
_publ_section_title
;
Structure prediction by ZEFSAII (Michael W. Deem and Ramdas Pophale) SiO2 
 PCOD9270190
Probable space group: C 2/C
;
_chemical_formula_sum "Si O2"
_cell_formula_units_Z 40
_cell_length_a 19.018941
_cell_length_b 21.158792
_cell_length_c 4.999830
_cell_angle_alpha 90.000000
_cell_angle_beta 87.919247
_cell_angle_gamma 90.000000
_cell_volume 2010.694040
_symmetry_space_group_name_H-M "C 2/C"
_symmetry_group_IT_number 15
_symmetry_cell_setting 'monoclinic'
loop_
_space_group_symop_operation_xyz
x,y,z
-x,y,1/2-z
-x,-y,-z
x,-y,1/2+z
1/2+x,1/2+y,z
1/2-x,1/2+y,1/2-z
1/2-x,1/2-y,-z
1/2+x,1/2-y,1/2+z
loop_
_atom_site_type_symbol
_atom_site_label
_atom_site_fract_x
_atom_site_fract_y
_atom_site_fract_z
Si Si1 0.840145 0.709657 0.130312
Si Si2 0.639876 0.546291 0.732173
Si Si3 0.934514 0.139082 0.093410
Si Si4 0.067506 0.286039 0.398688
Si Si5 0.801036 0.846850 0.007722
O O1 0.899955 0.688800 0.330440
O O2 0.818837 0.783382 0.174491
O O3 0.870619 0.710172 0.827028
O O4 0.769870 0.668511 0.141753
O O5 0.636761 0.501211 0.478104
O O6 0.580953 0.401377 0.167651
O O7 0.704300 0.593042 0.796488
O O8 0.950263 0.212601 0.034837
O O9 0.864814 0.139398 0.291687
O O10 0.000000 0.112405 0.250000
O O11 0.000000 0.312865 0.250000
#
# Coordination Sequence:
#
# PCOD9270190 Si02
#       5
#     8   8   8   8   8
#     4  10  21  34  62  80 111 148 179 232 278 343
#     4  12  24  39  55  75 110 150 198 241 266 311
#     4  10  22  38  55  76 112 154 195 231 268 314
#     4  10  20  35  56  86 115 143 178 223 281 338
#     4  10  22  38  56  82 109 145 199 226 283 321
#
# _framework density 19.893630000000002
#
# number of rings (size 3 to 8) (size 9 to 14) (size 15 to 20)
#    0.000    1.600    4.000    0.600    2.800    4.000 
#    0.000    0.000    0.000    0.000    0.000    0.000 
#    0.000   16.000    0.000    0.000    0.000    0.000 
#
# Total GULP energy -111583.663057 kJ/mol
# GULP energy per Si atom -5579.183153 kJ/mol
# Density = 1.984835 g / cm^3
# Si number density = 19.893630 Si / 1000 Ang^3
#
#
#
# Elastic Constant Matrix: (Units=GPa)
#
#
# Indices 1 2 3 4 5 6 
#
# 1 79.4983 34.4189 28.9136 0.0000 17.5882 0.0000
# 2 34.4189 43.6660 29.2206 0.0000 3.1938 0.0000
# 3 28.9136 29.2206 125.7303 0.0000 14.5674 0.0000
# 4 0.0000 0.0000 0.0000 24.5746 0.0000 13.6004
# 5 17.5882 3.1938 14.5674 0.0000 35.4835 0.0000
# 6 0.0000 0.0000 0.0000 13.6004 0.0000 10.9434
#
#
#
# Elastic Compliance Matrix: (Units=1/GPa)
#
#
# Indices 1 2 3 4 5 6 
#
# 1 0.021776 -0.016406 -0.000121 0.000000 -0.009267 0.000000
# 2 -0.016406 0.039479 -0.006229 0.000000 0.007136 0.000000
# 3 -0.000121 -0.006229 0.009825 0.000000 -0.003413 0.000000
# 4 0.000000 0.000000 0.000000 0.130343 0.000000 -0.161991
# 5 -0.009267 0.007136 -0.003413 0.000000 0.033534 0.000000
# 6 0.000000 0.000000 0.000000 -0.161991 0.000000 0.292701
#
#
# Mechanical properties :
#
#
# Convention : Reuss Voigt Hill
#
# Bulk Modulus (GPa) = 39.11213 48.22231 43.66722
# Shear Modulus (GPa) = 8.59559 24.62307 16.60933
#
# Velocity S-wave (km/s) = 2.08090 3.52196 2.89261
# Velocity P-wave (km/s) = 5.04746 6.38997 5.75797
#
# Compressibility (1/GPa) = 0.02556752
#
# Stress axis : x y z
#
# Youngs Moduli (GPa) = 45.92172 25.32974 101.78596
#
# Poissons Ratio (x) = 0.41555 0.01234
# Poissons Ratio (y) = 0.75338 0.63406
# Poissons Ratio (z) = 0.00557 0.15779
#
# Static dielectric constant tensor:
#      x y z
#    x 1.748110 0.000000 0.000880 
#    y 0.000000 1.712050 0.000000 
#    z 0.000880 0.000000 1.778210 
# 
# From -- ./inp_files/10204.got.cif
#   From: 2010.05.17/outbox.cif.g08.bks.cpg/sg15_6_cif.got.tgz:10204.got - 2010.06.03 18:47:42.
