data_PCOD9270433
_publ_section_title
;
Structure prediction by ZEFSAII (Michael W. Deem and Ramdas Pophale) SiO2 
 PCOD9270433
Probable space group: C 2/C
;
_chemical_formula_sum "Si O2"
_cell_formula_units_Z 64
_cell_length_a 22.904120
_cell_length_b 6.657733
_cell_length_c 21.750831
_cell_angle_alpha 90.000000
_cell_angle_beta 94.428466
_cell_angle_gamma 90.000000
_cell_volume 3306.871498
_symmetry_space_group_name_H-M "C 2/C"
_symmetry_group_IT_number 15
_symmetry_cell_setting 'monoclinic'
loop_
_space_group_symop_operation_xyz
x,y,z
-x,y,1/2-z
-x,-y,-z
x,-y,1/2+z
1/2+x,1/2+y,z
1/2-x,1/2+y,1/2-z
1/2-x,1/2-y,-z
1/2+x,1/2-y,1/2+z
loop_
_atom_site_type_symbol
_atom_site_label
_atom_site_fract_x
_atom_site_fract_y
_atom_site_fract_z
Si Si1 0.672232 0.589015 0.394175
Si Si2 0.042142 0.989793 0.177212
Si Si3 0.094295 0.744343 0.445870
Si Si4 0.570822 0.281434 0.802473
Si Si5 0.001971 0.425852 0.651818
Si Si6 0.409175 0.769326 0.407940
Si Si7 0.793610 0.488174 0.044964
Si Si8 0.277502 0.169760 0.907669
O O1 0.627693 0.448695 0.429307
O O2 0.633419 0.695173 0.338907
O O3 0.701239 0.755714 0.440156
O O4 0.724453 0.450501 0.371934
O O5 0.069811 0.125544 0.234031
O O6 0.075791 0.051380 0.118644
O O7 0.975843 0.072224 0.167783
O O8 0.037401 0.752997 0.188170
O O9 0.083599 0.736333 0.517992
O O10 0.142665 0.576591 0.433940
O O11 0.037349 0.687726 0.402458
O O12 0.541451 0.062690 0.809982
O O13 0.046459 0.574833 0.620486
O O14 0.342393 0.827030 0.386449
O O15 0.745104 0.604801 0.080955
O O16 0.783261 0.562048 0.974752
#
# Coordination Sequence:
#
# PCOD9270433 Si02
#       8
#     8   8   8   8   8   8   8   8
#     4  11  19  35  64  87 116 158 201 255 293 338
#     4  10  23  40  60  85 121 160 195 246 297 354
#     4  10  20  35  58  94 123 151 200 243 302 360
#     4  10  22  40  61  90 114 145 218 249 288 351
#     4  11  21  40  63  87 120 161 188 249 307 350
#     4  10  23  38  55  88 131 159 193 235 295 377
#     4   9  18  34  57  87 120 157 197 250 289 347
#     4   9  20  35  55  87 123 157 201 236 296 354
#
# _framework density 19.353641
#
# number of rings (size 3 to 8) (size 9 to 14) (size 15 to 20)
#    0.000    2.000    2.500    1.500    0.000    7.500 
#    0.000    0.000    5.500    0.000    0.000    0.000 
#    0.000    0.000    0.000    0.000    0.000    0.000 
#
# Total GULP energy -178373.177018 kJ/mol
# GULP energy per Si atom -5574.161782 kJ/mol
# Density = 1.930959 g / cm^3
# Si number density = 19.353641 Si / 1000 Ang^3
#
#
#
# Elastic Constant Matrix: (Units=GPa)
#
#
# Indices 1 2 3 4 5 6 
#
# 1 80.8631 17.5721 25.9870 0.0000 8.9028 0.0000
# 2 17.5721 109.9730 24.2305 0.0000 -2.0435 0.0000
# 3 25.9870 24.2305 56.6851 0.0000 4.3692 0.0000
# 4 0.0000 0.0000 0.0000 19.3064 0.0000 6.2558
# 5 8.9028 -2.0435 4.3692 0.0000 17.8734 0.0000
# 6 0.0000 0.0000 0.0000 6.2558 0.0000 19.3718
#
#
#
# Elastic Compliance Matrix: (Units=1/GPa)
#
#
# Indices 1 2 3 4 5 6 
#
# 1 0.015247 -0.001236 -0.005978 0.000000 -0.006275 0.000000
# 2 -0.001236 0.010227 -0.004019 0.000000 0.002767 0.000000
# 3 -0.005978 -0.004019 0.022326 0.000000 -0.002939 0.000000
# 4 0.000000 0.000000 0.000000 0.057850 0.000000 -0.018682
# 5 -0.006275 0.002767 -0.002939 0.000000 0.060109 0.000000
# 6 0.000000 0.000000 0.000000 -0.018682 0.000000 0.057654
#
#
# Mechanical properties :
#
#
# Convention : Reuss Voigt Hill
#
# Bulk Modulus (GPa) = 39.46948 42.56672 41.01810
# Shear Modulus (GPa) = 19.65991 23.29241 21.47616
#
# Velocity S-wave (km/s) = 3.19066 3.47294 3.33479
# Velocity P-wave (km/s) = 5.83197 6.17443 6.00564
#
# Compressibility (1/GPa) = 0.02533603
#
# Stress axis : x y z
#
# Youngs Moduli (GPa) = 65.58617 97.77624 44.79023
#
# Poissons Ratio (x) = 0.12082 0.26776
# Poissons Ratio (y) = 0.08104 0.17999
# Poissons Ratio (z) = 0.39208 0.39292
#
# Static dielectric constant tensor:
#      x y z
#    x 1.683200 0.000000 0.034980 
#    y 0.000000 1.714070 0.000000 
#    z 0.034980 0.000000 1.693680 
# 
# From -- ./inp_files/256559.got.cif
#   From: 2010.05.17/outbox.cif.g08.bks.cpg/sg15_129_cif.got.tgz:256559.got - 2010.06.03 18:47:42.
