data_PCOD9270139
_publ_section_title
;
Structure prediction by ZEFSAII (Michael W. Deem and Ramdas Pophale) SiO2 
 PCOD9270139
Probable space group: C 2/C
;
_chemical_formula_sum "Si O2"
_cell_formula_units_Z 48
_cell_length_a 16.745867
_cell_length_b 11.261053
_cell_length_c 13.704254
_cell_angle_alpha 90.000000
_cell_angle_beta 57.498845
_cell_angle_gamma 90.000000
_cell_volume 2179.544065
_symmetry_space_group_name_H-M "C 2/C"
_symmetry_group_IT_number 15
_symmetry_cell_setting 'monoclinic'
loop_
_space_group_symop_operation_xyz
x,y,z
-x,y,1/2-z
-x,-y,-z
x,-y,1/2+z
1/2+x,1/2+y,z
1/2-x,1/2+y,1/2-z
1/2-x,1/2-y,-z
1/2+x,1/2-y,1/2+z
loop_
_atom_site_type_symbol
_atom_site_label
_atom_site_fract_x
_atom_site_fract_y
_atom_site_fract_z
Si Si1 0.066386 0.898760 0.125183
Si Si2 0.332230 0.419040 0.616649
Si Si3 0.733359 0.320751 0.153921
Si Si4 0.142821 0.528231 0.816673
Si Si5 0.036029 0.769962 0.836192
Si Si6 0.574732 0.768411 0.896433
O O1 0.155767 0.853976 0.126871
O O2 0.000000 0.957426 0.250000
O O3 0.005493 0.791765 0.118290
O O4 0.099739 0.973780 0.010016
O O5 0.293116 0.296568 0.596932
O O6 0.237655 0.491609 0.696745
O O7 0.392153 0.373465 0.670949
O O8 0.809669 0.424661 0.114904
O O9 0.672526 0.289869 0.292598
O O10 0.090469 0.642225 0.806916
O O11 0.082693 0.409354 0.871540
O O12 0.000000 0.784847 0.750000
O O13 0.955064 0.756749 0.972903
#
# Coordination Sequence:
#
# PCOD9270139 Si02
#       6
#     8   8   8   8   8   8
#     4   9  17  32  54  77 104 141 175 214 268 317
#     4   9  19  35  52  78 113 139 172 225 270 313
#     4   9  18  33  54  80 108 139 175 222 274 314
#     4  10  20  35  56  81 108 140 181 224 263 313
#     4  10  21  37  56  79 109 147 181 215 266 322
#     4   9  19  36  55  79 111 140 177 226 265 313
#
# _framework density 22.022953999999999
#
# number of rings (size 3 to 8) (size 9 to 14) (size 15 to 20)
#    0.000    2.667    0.000    1.000    0.000    4.667 
#    0.000   19.167    0.000    0.000    0.000    0.000 
#    0.000    0.000    0.000    0.000    0.000    0.000 
#
# Total GULP energy -133885.805354 kJ/mol
# GULP energy per Si atom -5578.575223 kJ/mol
# Density = 2.197283 g / cm^3
# Si number density = 22.022954 Si / 1000 Ang^3
#
#
#
# Elastic Constant Matrix: (Units=GPa)
#
#
# Indices 1 2 3 4 5 6 
#
# 1 98.4080 45.6370 51.9049 0.0000 10.6068 0.0000
# 2 45.6370 101.7446 38.8671 0.0000 0.2642 0.0000
# 3 51.9049 38.8671 149.2662 0.0000 5.5284 0.0000
# 4 0.0000 0.0000 0.0000 -3.5530 0.0000 -9.2675
# 5 10.6068 0.2642 5.5284 0.0000 31.4630 0.0000
# 6 0.0000 0.0000 0.0000 -9.2675 0.0000 34.0900
#
#
#
# Elastic Compliance Matrix: (Units=1/GPa)
#
#
# Indices 1 2 3 4 5 6 
#
# 1 0.015049 -0.005332 -0.003682 0.000000 -0.004382 0.000000
# 2 -0.005332 0.012809 -0.001554 0.000000 0.001963 0.000000
# 3 -0.003682 -0.001554 0.008393 0.000000 -0.000220 0.000000
# 4 0.000000 0.000000 0.000000 -0.164681 0.000000 -0.044769
# 5 -0.004382 0.001963 -0.000220 0.000000 0.033283 0.000000
# 6 0.000000 0.000000 0.000000 -0.044769 0.000000 0.017164
#
#
# Mechanical properties :
#
#
# Convention : Reuss Voigt Hill
#
# Bulk Modulus (GPa) = 66.16427 69.13741 67.65084
# Shear Modulus (GPa) = -96.50619 26.60068 -34.95276
#
# Velocity S-wave (km/s) = -6.62690 3.47920 -3.98817
# Velocity P-wave (km/s) = 5.33347 6.89937 3.09478
#
# Compressibility (1/GPa) = 0.01511390
#
# Stress axis : x y z
#
# Youngs Moduli (GPa) = 66.44931 78.07205 119.15171
#
# Poissons Ratio (x) = 0.41629 0.43876
# Poissons Ratio (y) = 0.35432 0.18513
# Poissons Ratio (z) = 0.24469 0.12131
#
# Static dielectric constant tensor:
#      x y z
#    x 1.778120 0.000000 -0.032030 
#    y 0.000000 1.841280 0.000000 
#    z -0.032030 0.000000 1.901560 
# 
# From -- ./inp_files/104175.got.cif
#   From: 2010.05.17/outbox.cif.g08.bks.cpg/sg15_53_cif.got.tgz:104175.got - 2010.06.03 18:47:42.
