data_PCOD9270968
_publ_section_title
;
Structure prediction by ZEFSAII (Michael W. Deem and Ramdas Pophale) SiO2 
 PCOD9270968
Probable space group: C 2/C
;
_chemical_formula_sum "Si O2"
_cell_formula_units_Z 52
_cell_length_a 8.971567
_cell_length_b 31.395466
_cell_length_c 10.330042
_cell_angle_alpha 90.000000
_cell_angle_beta 101.572610
_cell_angle_gamma 90.000000
_cell_volume 2850.478005
_symmetry_space_group_name_H-M "C 2/C"
_symmetry_group_IT_number 15
_symmetry_cell_setting 'monoclinic'
loop_
_space_group_symop_operation_xyz
x,y,z
-x,y,1/2-z
-x,-y,-z
x,-y,1/2+z
1/2+x,1/2+y,z
1/2-x,1/2+y,1/2-z
1/2-x,1/2-y,-z
1/2+x,1/2-y,1/2+z
loop_
_atom_site_type_symbol
_atom_site_label
_atom_site_fract_x
_atom_site_fract_y
_atom_site_fract_z
Si Si1 0.405668 0.445117 0.604005
Si Si2 0.119159 0.284257 0.503240
Si Si3 0.211040 0.286926 0.097359
Si Si4 0.000000 0.251756 0.750000
Si Si5 0.385932 0.540641 0.609219
Si Si6 0.824545 0.381979 0.371148
Si Si7 0.316745 0.877590 0.064152
O O1 0.500000 0.433903 0.750000
O O2 0.330070 0.491795 0.610635
O O3 0.523645 0.452716 0.507893
O O4 0.287755 0.409871 0.533996
O O5 0.250000 0.250000 0.500000
O O6 0.043865 0.280081 0.633088
O O7 0.192900 0.329921 0.491967
O O8 0.964082 0.279776 0.390730
O O9 0.351323 0.278152 0.216373
O O10 0.216267 0.337214 0.065722
O O11 0.250000 0.250000 0.000000
O O12 0.500000 0.546829 0.750000
O O13 0.259886 0.576760 0.592682
O O14 0.781864 0.377105 0.211619
O O15 0.004807 0.388696 0.413851
#
# Coordination Sequence:
#
# PCOD9270968 Si02
#       7
#     8   8   8   4   8   8   8
#     4  10  22  40  58  91 124 153 196 254 310 360
#     4  10  21  38  57  82 118 155 200 247 296 355
#     4   9  20  36  56  88 116 151 202 248 297 350
#     4  10  20  36  56  80 122 154 186 250 306 360
#     4  10  20  38  66  87 117 156 202 252 300 367
#     4  10  20  36  64  88 113 155 205 249 292 359
#     4  10  21  39  58  87 120 154 202 247 295 365
#
# _framework density 18.242553000000001
#
# number of rings (size 3 to 8) (size 9 to 14) (size 15 to 20)
#    0.000    2.154    1.538    0.923    1.077    4.923 
#   11.077    0.000    0.000    0.000    0.000    0.000 
#    0.000    0.000    0.000    0.000    0.000    0.000 
#
# Total GULP energy -144781.356235 kJ/mol
# GULP energy per Si atom -5568.513701 kJ/mol
# Density = 1.820103 g / cm^3
# Si number density = 18.242553 Si / 1000 Ang^3
#
#
#
# Elastic Constant Matrix: (Units=GPa)
#
#
# Indices 1 2 3 4 5 6 
#
# 1 72.1946 87.5034 39.7911 0.0000 10.0027 0.0000
# 2 87.5034 175.0458 48.1083 0.0000 13.3044 0.0000
# 3 39.7911 48.1083 93.0943 0.0000 2.1212 0.0000
# 4 0.0000 0.0000 0.0000 24.9538 0.0000 3.0397
# 5 10.0027 13.3044 2.1212 0.0000 31.6925 0.0000
# 6 0.0000 0.0000 0.0000 3.0397 0.0000 58.3490
#
#
#
# Elastic Compliance Matrix: (Units=1/GPa)
#
#
# Indices 1 2 3 4 5 6 
#
# 1 0.040138 -0.017501 -0.008003 0.000000 -0.004786 0.000000
# 2 -0.017501 0.014505 -0.000002 0.000000 -0.000565 0.000000
# 3 -0.008003 -0.000002 0.014128 0.000000 0.001581 0.000000
# 4 0.000000 0.000000 0.000000 0.040330 0.000000 -0.002101
# 5 -0.004786 -0.000565 0.001581 0.000000 0.033195 0.000000
# 6 0.000000 0.000000 0.000000 -0.002101 0.000000 0.017248
#
#
# Mechanical properties :
#
#
# Convention : Reuss Voigt Hill
#
# Bulk Modulus (GPa) = 56.31413 76.79337 66.55375
# Shear Modulus (GPa) = 23.09730 33.99451 28.54590
#
# Velocity S-wave (km/s) = 3.56212 4.32148 3.96004
# Velocity P-wave (km/s) = 6.91773 8.19069 7.58097
#
# Compressibility (1/GPa) = 0.01775753
#
# Stress axis : x y z
#
# Youngs Moduli (GPa) = 24.91419 68.94137 70.78315
#
# Poissons Ratio (x) = 1.20656 0.56647
# Poissons Ratio (y) = 0.43603 0.00017
# Poissons Ratio (z) = 0.19939 0.00016
#
# Static dielectric constant tensor:
#      x y z
#    x 1.618900 0.000000 0.031420 
#    y 0.000000 1.623340 0.000000 
#    z 0.031420 0.000000 1.721270 
# 
# From -- ./inp_files/80790.got.cif
#   From: 2010.05.17/outbox.cif.g08.bks.cpg/sg15_41_cif.got.tgz:80790.got - 2010.06.03 18:47:42.
