data_PCOD9270618
_publ_section_title
;
Structure prediction by ZEFSAII (Michael W. Deem and Ramdas Pophale) SiO2 
 PCOD9270618
Probable space group: C 2/C
;
_chemical_formula_sum "Si O2"
_cell_formula_units_Z 52
_cell_length_a 31.209626
_cell_length_b 15.192712
_cell_length_c 19.147964
_cell_angle_alpha 90.000000
_cell_angle_beta 17.140691
_cell_angle_gamma 90.000000
_cell_volume 2675.806330
_symmetry_space_group_name_H-M "C 2/C"
_symmetry_group_IT_number 15
_symmetry_cell_setting 'monoclinic'
loop_
_space_group_symop_operation_xyz
x,y,z
-x,y,1/2-z
-x,-y,-z
x,-y,1/2+z
1/2+x,1/2+y,z
1/2-x,1/2+y,1/2-z
1/2-x,1/2-y,-z
1/2+x,1/2-y,1/2+z
loop_
_atom_site_type_symbol
_atom_site_label
_atom_site_fract_x
_atom_site_fract_y
_atom_site_fract_z
Si Si1 0.309738 0.065640 0.742058
Si Si2 0.610378 0.540861 0.729539
Si Si3 0.920480 0.472633 0.223122
Si Si4 0.512059 0.777131 0.121253
Si Si5 0.000000 0.014825 0.750000
Si Si6 0.731912 0.755076 0.897281
Si Si7 0.996324 0.863392 0.536744
O O1 0.365231 0.028910 0.729475
O O2 0.315841 0.170553 0.737949
O O3 0.427005 0.024474 0.506441
O O4 0.140040 0.039200 0.003003
O O5 0.780180 0.516829 0.476541
O O6 0.563795 0.560993 0.721504
O O7 0.522209 0.453005 0.890604
O O8 0.570946 0.615157 0.847070
O O9 0.949480 0.370988 0.196316
O O10 0.382646 0.726814 0.364250
O O11 0.563983 0.714171 0.978323
O O12 0.638159 0.793378 0.980363
O O13 0.838302 0.825528 0.764129
#
# Coordination Sequence:
#
# PCOD9270618 Si02
#       7
#     8   8   8   8   4   8   8
#     4  10  20  35  61  86 117 156 201 244 298 362
#     4  10  22  38  61  92 124 161 199 252 312 365
#     4  10  20  38  60  86 118 159 198 247 300 366
#     4  11  21  37  62  89 122 155 206 257 304 350
#     4  10  20  38  62  88 118 160 208 242 302 382
#     4  11  21  35  60  91 117 162 203 254 299 360
#     4  11  21  37  61  90 127 155 201 260 308 351
#
# _framework density 19.433394
#
# number of rings (size 3 to 8) (size 9 to 14) (size 15 to 20)
#    0.000    1.538    3.077    4.154    2.154    0.000 
#    0.000    0.769    0.000    0.000    0.000    0.000 
#    0.000    0.000    0.000    0.000    0.000    0.000 
#
# Total GULP energy -144892.833192 kJ/mol
# GULP energy per Si atom -5572.801277 kJ/mol
# Density = 1.938916 g / cm^3
# Si number density = 19.433394 Si / 1000 Ang^3
#
#
#
# Elastic Constant Matrix: (Units=GPa)
#
#
# Indices 1 2 3 4 5 6 
#
# 1 81.2247 2.7148 9.1155 -0.0002 1.9083 -0.0004
# 2 2.7148 30.2635 2.3455 -0.0004 6.2111 -0.0009
# 3 9.1155 2.3455 48.1377 -0.0004 -3.2977 -0.0012
# 4 -0.0002 -0.0004 -0.0004 33.7242 0.0001 21.1351
# 5 1.9083 6.2111 -3.2977 0.0001 25.1722 0.0002
# 6 -0.0004 -0.0009 -0.0012 21.1351 0.0002 69.9604
#
#
#
# Elastic Compliance Matrix: (Units=1/GPa)
#
#
# Indices 1 2 3 4 5 6 
#
# 1 0.012634 -0.000719 -0.002433 0.000000 -0.001099 0.000000
# 2 -0.000719 0.035102 -0.002183 0.000000 -0.008893 0.000000
# 3 -0.002433 -0.002183 0.021584 0.000000 0.003551 0.000000
# 4 0.000000 0.000000 0.000000 0.036577 0.000000 -0.011050
# 5 -0.001099 -0.008893 0.003551 0.000000 0.042469 0.000000
# 6 0.000000 0.000000 0.000000 -0.011050 0.000000 0.017632
#
#
# Mechanical properties :
#
#
# Convention : Reuss Voigt Hill
#
# Bulk Modulus (GPa) = 17.05038 20.88638 18.96838
# Shear Modulus (GPa) = 25.48169 35.46805 30.47487
#
# Velocity S-wave (km/s) = 3.62502 4.27676 3.96431
# Velocity P-wave (km/s) = 5.12970 5.92947 5.54403
#
# Compressibility (1/GPa) = 0.05864973
#
# Stress axis : x y z
#
# Youngs Moduli (GPa) = 79.14893 28.48846 46.33056
#
# Poissons Ratio (x) = 0.02049 0.11271
# Poissons Ratio (y) = 0.05693 0.10115
# Poissons Ratio (z) = 0.19255 0.06220
#
# Static dielectric constant tensor:
#      x y z
#    x 1.706350 0.000000 0.013400 
#    y 0.000000 1.660590 0.000000 
#    z 0.013400 0.000000 1.736760 
# 
# From -- ./inp_files/225461.got.cif
#   From: 2010.05.17/outbox.cif.g08.bks.cpg/sg15_113_cif.got.tgz:225461.got - 2010.06.03 18:47:42.
