data_PCOD9270989
_publ_section_title
;
Structure prediction by ZEFSAII (Michael W. Deem and Ramdas Pophale) SiO2 
 PCOD9270989
Probable space group: C 2/C
;
_chemical_formula_sum "Si O2"
_cell_formula_units_Z 52
_cell_length_a 7.401803
_cell_length_b 29.951610
_cell_length_c 12.395588
_cell_angle_alpha 90.000000
_cell_angle_beta 61.853268
_cell_angle_gamma 90.000000
_cell_volume 2423.073307
_symmetry_space_group_name_H-M "C 2/C"
_symmetry_group_IT_number 15
_symmetry_cell_setting 'monoclinic'
loop_
_space_group_symop_operation_xyz
x,y,z
-x,y,1/2-z
-x,-y,-z
x,-y,1/2+z
1/2+x,1/2+y,z
1/2-x,1/2+y,1/2-z
1/2-x,1/2-y,-z
1/2+x,1/2-y,1/2+z
loop_
_atom_site_type_symbol
_atom_site_label
_atom_site_fract_x
_atom_site_fract_y
_atom_site_fract_z
Si Si1 0.000000 0.506106 0.750000
Si Si2 0.685133 0.370038 0.357618
Si Si3 0.831485 0.231702 0.703687
Si Si4 0.883927 0.953768 0.022460
Si Si5 0.565035 0.124595 0.918921
Si Si6 0.414863 0.224067 0.528672
Si Si7 0.887510 0.457020 0.584166
O O1 0.164042 0.537022 0.643268
O O2 0.125626 0.472660 0.790662
O O3 0.631564 0.318693 0.349670
O O4 0.534979 0.408253 0.446749
O O5 0.864898 0.368049 0.398108
O O6 0.762950 0.386406 0.218332
O O7 0.000000 0.240217 0.750000
O O8 0.873421 0.263277 0.590011
O O9 0.624257 0.235440 0.833651
O O10 0.826511 0.948307 0.914002
O O11 0.000000 0.000000 0.000000
O O12 0.614896 0.170929 0.963105
O O13 0.522237 0.085726 0.015637
O O14 0.250000 0.250000 0.500000
O O15 0.000000 0.500000 0.500000
#
# Coordination Sequence:
#
# PCOD9270989 Si02
#       7
#     4   8   8   8   8   8   8
#     4  10  20  38  52  78 114 150 186 234 288 358
#     4   9  17  33  55  79 106 139 193 232 283 348
#     4   9  18  34  51  79 107 140 182 239 282 342
#     4  10  20  36  56  83 112 149 190 246 296 346
#     4   9  17  33  58  78 102 152 186 231 284 348
#     4   9  18  34  52  76 111 140 187 233 289 336
#     4   9  18  35  55  78 110 143 191 231 281 351
#
# _framework density 21.460348
#
# number of rings (size 3 to 8) (size 9 to 14) (size 15 to 20)
#    0.000    2.769    0.000    2.769    0.000    1.231 
#   23.538    0.000    0.000    1.846    0.000    0.000 
#    0.000    0.000    0.000    0.000    0.000    0.000 
#
# Total GULP energy -144817.637699 kJ/mol
# GULP energy per Si atom -5569.909142 kJ/mol
# Density = 2.141150 g / cm^3
# Si number density = 21.460348 Si / 1000 Ang^3
#
#
#
# Elastic Constant Matrix: (Units=GPa)
#
#
# Indices 1 2 3 4 5 6 
#
# 1 28.1763 13.3105 14.8580 0.0000 3.3469 0.0000
# 2 13.3105 123.1107 52.3258 0.0000 13.2778 0.0000
# 3 14.8580 52.3258 91.4270 0.0000 11.9896 0.0000
# 4 0.0000 0.0000 0.0000 51.1007 0.0000 1.6462
# 5 3.3469 13.2778 11.9896 0.0000 24.1741 0.0000
# 6 0.0000 0.0000 0.0000 1.6462 0.0000 29.5864
#
#
#
# Elastic Compliance Matrix: (Units=1/GPa)
#
#
# Indices 1 2 3 4 5 6 
#
# 1 0.039274 -0.001896 -0.005049 0.000000 -0.001892 0.000000
# 2 -0.001896 0.011039 -0.005614 0.000000 -0.003016 0.000000
# 3 -0.005049 -0.005614 0.015482 0.000000 -0.003896 0.000000
# 4 0.000000 0.000000 0.000000 0.019604 0.000000 -0.001091
# 5 -0.001892 -0.003016 -0.003896 0.000000 0.045217 0.000000
# 6 0.000000 0.000000 0.000000 -0.001091 0.000000 0.033860
#
#
# Mechanical properties :
#
#
# Convention : Reuss Voigt Hill
#
# Bulk Modulus (GPa) = 24.58446 44.85588 34.72017
# Shear Modulus (GPa) = 24.61168 31.78688 28.19928
#
# Velocity S-wave (km/s) = 3.39018 3.85280 3.62887
# Velocity P-wave (km/s) = 5.17736 6.38273 5.81138
#
# Compressibility (1/GPa) = 0.04067609
#
# Stress axis : x y z
#
# Youngs Moduli (GPa) = 25.46229 90.58470 64.58942
#
# Poissons Ratio (x) = 0.17176 0.32613
# Poissons Ratio (y) = 0.04828 0.36263
# Poissons Ratio (z) = 0.12856 0.50858
#
# Static dielectric constant tensor:
#      x y z
#    x 1.943830 0.000000 -0.012510 
#    y 0.000000 1.780870 0.000000 
#    z -0.012510 0.000000 1.859060 
# 
# From -- ./inp_files/82104.got.cif
#   From: 2010.05.17/outbox.cif.g08.bks.cpg/sg15_42_cif.got.tgz:82104.got - 2010.06.03 18:47:42.
