data_PCOD9270826
_publ_section_title
;
Structure prediction by ZEFSAII (Michael W. Deem and Ramdas Pophale) SiO2 
 PCOD9270826
Probable space group: C 2/C
;
_chemical_formula_sum "Si O2"
_cell_formula_units_Z 40
_cell_length_a 28.021371
_cell_length_b 15.703694
_cell_length_c 9.136688
_cell_angle_alpha 90.000000
_cell_angle_beta 141.100398
_cell_angle_gamma 90.000000
_cell_volume 2524.703347
_symmetry_space_group_name_H-M "C 2/C"
_symmetry_group_IT_number 15
_symmetry_cell_setting 'monoclinic'
loop_
_space_group_symop_operation_xyz
x,y,z
-x,y,1/2-z
-x,-y,-z
x,-y,1/2+z
1/2+x,1/2+y,z
1/2-x,1/2+y,1/2-z
1/2-x,1/2-y,-z
1/2+x,1/2-y,1/2+z
loop_
_atom_site_type_symbol
_atom_site_label
_atom_site_fract_x
_atom_site_fract_y
_atom_site_fract_z
Si Si1 0.721815 0.234127 0.597489
Si Si2 0.203549 0.078319 0.556508
Si Si3 0.296259 0.599692 0.281542
Si Si4 0.023688 0.914013 0.638982
Si Si5 0.063579 0.201538 0.788674
O O1 0.750000 0.250000 0.500000
O O2 0.744626 0.317549 0.747705
O O3 0.629838 0.235228 0.393066
O O4 0.755112 0.149337 0.747719
O O5 0.225064 0.084306 0.437097
O O6 0.113743 0.096369 0.347414
O O7 0.216356 0.984572 0.653401
O O8 0.385688 0.627170 0.510945
O O9 0.000000 0.919416 0.750000
O O10 0.979314 0.838992 0.450783
O O11 0.000000 0.000000 0.500000
O O12 0.000000 0.233513 0.750000
#
# Coordination Sequence:
#
# PCOD9270826 Si02
#       5
#     8   8   8   8   8
#     4  10  21  37  53  78 113 150 189 229 274 332
#     4  12  20  34  54  80 113 150 182 226 279 329
#     4  10  22  32  53  80 112 144 188 218 279 328
#     4  12  19  28  47  75 108 141 171 218 272 333
#     4  10  20  36  50  78 114 144 182 224 274 331
#
# _framework density 15.843446
#
# number of rings (size 3 to 8) (size 9 to 14) (size 15 to 20)
#    1.200    0.000    4.000    4.800    0.000    0.000 
#    0.000    0.000    0.000    0.000    0.000   14.000 
#    0.000    0.000    0.000    0.000    0.000    0.000 
#
# Total GULP energy -111457.676148 kJ/mol
# GULP energy per Si atom -5572.883807 kJ/mol
# Density = 1.580739 g / cm^3
# Si number density = 15.843446 Si / 1000 Ang^3
#
#
#
# Elastic Constant Matrix: (Units=GPa)
#
#
# Indices 1 2 3 4 5 6 
#
# 1 108.7716 12.1352 17.7008 0.0000 -11.4248 0.0000
# 2 12.1352 50.5683 3.4733 0.0000 13.1729 0.0000
# 3 17.7008 3.4733 32.5597 0.0000 5.0382 0.0000
# 4 0.0000 0.0000 0.0000 36.5329 0.0000 -0.4309
# 5 -11.4248 13.1729 5.0382 0.0000 33.7600 0.0000
# 6 0.0000 0.0000 0.0000 -0.4309 0.0000 25.5206
#
#
#
# Elastic Compliance Matrix: (Units=1/GPa)
#
#
# Indices 1 2 3 4 5 6 
#
# 1 0.011409 -0.003942 -0.006774 0.000000 0.006410 0.000000
# 2 -0.003942 0.023410 0.001296 0.000000 -0.010662 0.000000
# 3 -0.006774 0.001296 0.035510 0.000000 -0.008097 0.000000
# 4 0.000000 0.000000 0.000000 0.027378 0.000000 0.000462
# 5 0.006410 -0.010662 -0.008097 0.000000 0.037159 0.000000
# 6 0.000000 0.000000 0.000000 0.000462 0.000000 0.039192
#
#
# Mechanical properties :
#
#
# Convention : Reuss Voigt Hill
#
# Bulk Modulus (GPa) = 19.42197 28.72424 24.07311
# Shear Modulus (GPa) = 23.80263 29.73539 26.76901
#
# Velocity S-wave (km/s) = 3.88024 4.33693 4.11493
# Velocity P-wave (km/s) = 5.68861 6.57633 6.14851
#
# Compressibility (1/GPa) = 0.05148807
#
# Stress axis : x y z
#
# Youngs Moduli (GPa) = 87.64980 42.71730 28.16106
#
# Poissons Ratio (x) = 0.16841 0.19076
# Poissons Ratio (y) = 0.34556 -0.03649
# Poissons Ratio (z) = 0.59372 -0.05536
#
# Static dielectric constant tensor:
#      x y z
#    x 1.685020 0.000000 -0.014450 
#    y 0.000000 1.515140 0.000000 
#    z -0.014450 0.000000 1.522760 
# 
# From -- ./inp_files/46708.got.cif
#   From: 2010.05.17/outbox.cif.g08.bks.cpg/sg15_24_cif.got.tgz:46708.got - 2010.06.03 18:47:42.
