data_PCOD9270152
_publ_section_title
;
Structure prediction by ZEFSAII (Michael W. Deem and Ramdas Pophale) SiO2 
 PCOD9270152
Probable space group: C 2/C
;
_chemical_formula_sum "Si O2"
_cell_formula_units_Z 56
_cell_length_a 13.920915
_cell_length_b 22.063905
_cell_length_c 9.027478
_cell_angle_alpha 90.000000
_cell_angle_beta 67.526779
_cell_angle_gamma 90.000000
_cell_volume 2562.217348
_symmetry_space_group_name_H-M "C 2/C"
_symmetry_group_IT_number 15
_symmetry_cell_setting 'monoclinic'
loop_
_space_group_symop_operation_xyz
x,y,z
-x,y,1/2-z
-x,-y,-z
x,-y,1/2+z
1/2+x,1/2+y,z
1/2-x,1/2+y,1/2-z
1/2-x,1/2-y,-z
1/2+x,1/2-y,1/2+z
loop_
_atom_site_type_symbol
_atom_site_label
_atom_site_fract_x
_atom_site_fract_y
_atom_site_fract_z
Si Si1 0.389523 0.480899 0.261902
Si Si2 0.384558 0.365230 0.479531
Si Si3 0.393260 0.612438 0.525865
Si Si4 0.231331 0.294051 0.239112
Si Si5 0.736451 0.403020 0.676860
Si Si6 0.127155 0.305515 0.986993
Si Si7 0.431888 0.228641 0.430188
O O1 0.500000 0.510207 0.250000
O O2 0.386511 0.420420 0.363240
O O3 0.389085 0.455742 0.093938
O O4 0.292560 0.526390 0.324751
O O5 0.488814 0.369831 0.517696
O O6 0.290792 0.379987 0.644301
O O7 0.396498 0.297149 0.412535
O O8 0.314948 0.652986 0.669580
O O9 0.347400 0.623561 0.391025
O O10 0.293292 0.232244 0.165624
O O11 0.170523 0.298482 0.430071
O O12 0.154445 0.297691 0.142787
O O13 0.847343 0.375757 0.565308
O O14 0.016621 0.278646 0.010337
O O15 0.500000 0.204804 0.250000
#
# Coordination Sequence:
#
# PCOD9270152 Si02
#       7
#     8   8   8   8   8   8   8
#     4  10  21  36  53  86 123 157 190 235 301 355
#     4  11  21  34  55  86 121 158 188 238 296 352
#     4  10  20  35  56  82 117 154 197 237 290 346
#     4  10  21  38  59  84 115 155 201 244 286 349
#     4  11  21  35  57  83 116 157 200 239 282 351
#     4  10  22  38  59  86 112 158 203 240 293 342
#     4  12  24  38  57  86 123 155 191 243 302 357
#
# _framework density 21.856069000000002
#
# number of rings (size 3 to 8) (size 9 to 14) (size 15 to 20)
#    0.000    1.429    2.857    3.857    0.000    5.143 
#    0.000    0.000    0.000    0.857    0.000    2.000 
#    0.000    0.000    0.000    0.000    0.000    0.000 
#
# Total GULP energy -156194.387244 kJ/mol
# GULP energy per Si atom -5578.370973 kJ/mol
# Density = 2.180632 g / cm^3
# Si number density = 21.856069 Si / 1000 Ang^3
#
#
#
# Elastic Constant Matrix: (Units=GPa)
#
#
# Indices 1 2 3 4 5 6 
#
# 1 56.1490 23.3458 7.6339 0.0000 6.6839 0.0000
# 2 23.3458 81.1854 21.4664 0.0000 -9.4590 0.0000
# 3 7.6339 21.4664 115.6032 0.0000 -14.9683 0.0000
# 4 0.0000 0.0000 0.0000 28.0338 0.0000 1.5179
# 5 6.6839 -9.4590 -14.9683 0.0000 28.9159 0.0000
# 6 0.0000 0.0000 0.0000 1.5179 0.0000 28.3194
#
#
#
# Elastic Compliance Matrix: (Units=1/GPa)
#
#
# Indices 1 2 3 4 5 6 
#
# 1 0.021764 -0.006865 -0.001184 0.000000 -0.007889 0.000000
# 2 -0.006865 0.015402 -0.001660 0.000000 0.005766 0.000000
# 3 -0.001184 -0.001660 0.009649 0.000000 0.004725 0.000000
# 4 0.000000 0.000000 0.000000 0.035775 0.000000 -0.001918
# 5 -0.007889 0.005766 0.004725 0.000000 0.040739 0.000000
# 6 0.000000 0.000000 0.000000 -0.001918 0.000000 0.035414
#
#
# Mechanical properties :
#
#
# Convention : Reuss Voigt Hill
#
# Bulk Modulus (GPa) = 36.50003 39.75886 38.12944
# Shear Modulus (GPa) = 26.69617 30.41993 28.55805
#
# Velocity S-wave (km/s) = 3.49872 3.73477 3.61867
# Velocity P-wave (km/s) = 5.74959 6.06867 5.91128
#
# Compressibility (1/GPa) = 0.02739724
#
# Stress axis : x y z
#
# Youngs Moduli (GPa) = 45.94734 64.92566 103.64238
#
# Poissons Ratio (x) = 0.44569 0.12271
# Poissons Ratio (y) = 0.31541 0.17207
# Poissons Ratio (z) = 0.05440 0.10779
#
# Static dielectric constant tensor:
#      x y z
#    x 1.807610 0.000000 0.024980 
#    y 0.000000 1.853840 0.000000 
#    z 0.024980 0.000000 1.900260 
# 
# From -- ./inp_files/42122.got.cif
#   From: 2010.05.17/outbox.cif.g08.bks.cpg/sg15_22_cif.got.tgz:42122.got - 2010.06.03 18:47:42.
