data_PCOD9270508
_publ_section_title
;
Structure prediction by ZEFSAII (Michael W. Deem and Ramdas Pophale) SiO2 
 PCOD9270508
Probable space group: C 2/C
;
_chemical_formula_sum "Si O2"
_cell_formula_units_Z 64
_cell_length_a 20.962032
_cell_length_b 20.951062
_cell_length_c 8.351486
_cell_angle_alpha 90.000000
_cell_angle_beta 65.323562
_cell_angle_gamma 90.000000
_cell_volume 3332.837359
_symmetry_space_group_name_H-M "C 2/C"
_symmetry_group_IT_number 15
_symmetry_cell_setting 'monoclinic'
loop_
_space_group_symop_operation_xyz
x,y,z
-x,y,1/2-z
-x,-y,-z
x,-y,1/2+z
1/2+x,1/2+y,z
1/2-x,1/2+y,1/2-z
1/2-x,1/2-y,-z
1/2+x,1/2-y,1/2+z
loop_
_atom_site_type_symbol
_atom_site_label
_atom_site_fract_x
_atom_site_fract_y
_atom_site_fract_z
Si Si1 0.132714 0.532093 0.984119
Si Si2 0.205907 0.060329 0.697506
Si Si3 0.303699 0.336965 0.019165
Si Si4 0.432543 0.588998 0.243963
Si Si5 0.843553 0.308722 0.490747
Si Si6 0.948975 0.383010 0.165746
Si Si7 0.912063 0.403675 0.639254
Si Si8 0.386331 0.532632 0.989994
O O1 0.215929 0.536997 0.921863
O O2 0.109032 0.572525 0.853528
O O3 0.108424 0.461082 0.963003
O O4 0.098996 0.564764 0.176117
O O5 0.206556 0.121683 0.810275
O O6 0.159815 0.071616 0.587841
O O7 0.167362 0.004147 0.836210
O O8 0.229493 0.333408 0.006708
O O9 0.361770 0.372359 0.851132
O O10 0.332397 0.266330 0.024126
O O11 0.500000 0.622623 0.250000
O O12 0.436975 0.572585 0.052063
O O13 0.424816 0.523121 0.352000
O O14 0.906717 0.326393 0.299362
O O15 0.861990 0.346041 0.634844
O O16 0.000000 0.410767 0.250000
O O17 0.009026 0.376367 0.966796
#
# Coordination Sequence:
#
# PCOD9270508 Si02
#       8
#     8   8   8   8   8   8   8   8
#     4  12  22  36  59  92 125 158 195 242 298 350
#     4  10  20  35  59  90 122 156 195 245 289 350
#     4  10  22  40  62  82 114 151 209 240 291 349
#     4  10  20  35  60  87 116 150 187 237 298 357
#     4  10  22  42  59  82 113 160 198 250 286 343
#     4  10  21  39  59  84 120 158 195 240 289 347
#     4  11  24  35  60  87 124 158 199 238 296 352
#     4   9  20  34  56  89 124 148 185 240 302 352
#
# _framework density 19.202857000000002
#
# number of rings (size 3 to 8) (size 9 to 14) (size 15 to 20)
#    0.000    1.750    1.250    3.375    7.000    2.500 
#    0.000    1.875    0.000    3.000    0.000    0.000 
#    0.000    0.000    0.000    0.000    0.000    0.000 
#
# Total GULP energy -178414.794144 kJ/mol
# GULP energy per Si atom -5575.462317 kJ/mol
# Density = 1.915915 g / cm^3
# Si number density = 19.202857 Si / 1000 Ang^3
#
#
#
# Elastic Constant Matrix: (Units=GPa)
#
#
# Indices 1 2 3 4 5 6 
#
# 1 77.2238 20.0934 10.9667 0.0000 7.8352 0.0000
# 2 20.0934 65.3141 6.0432 0.0000 4.2857 0.0000
# 3 10.9667 6.0432 52.7000 0.0000 2.6575 0.0000
# 4 0.0000 0.0000 0.0000 9.3904 0.0000 -5.1835
# 5 7.8352 4.2857 2.6575 0.0000 35.8131 0.0000
# 6 0.0000 0.0000 0.0000 -5.1835 0.0000 1.0576
#
#
#
# Elastic Compliance Matrix: (Units=1/GPa)
#
#
# Indices 1 2 3 4 5 6 
#
# 1 0.014621 -0.004106 -0.002444 0.000000 -0.002526 0.000000
# 2 -0.004106 0.016735 -0.001013 0.000000 -0.001029 0.000000
# 3 -0.002444 -0.001013 0.019641 0.000000 -0.000801 0.000000
# 4 0.000000 0.000000 0.000000 -0.062442 0.000000 -0.306039
# 5 -0.002526 -0.001029 -0.000801 0.000000 0.028658 0.000000
# 6 0.000000 0.000000 0.000000 -0.306039 0.000000 -0.554419
#
#
# Mechanical properties :
#
#
# Convention : Reuss Voigt Hill
#
# Bulk Modulus (GPa) = 27.87813 29.93826 28.90820
# Shear Modulus (GPa) = -9.80155 19.79453 4.99649
#
# Velocity S-wave (km/s) = -2.26170 3.21411 1.61481
# Velocity P-wave (km/s) = 2.78008 5.42203 4.30855
#
# Compressibility (1/GPa) = 0.03587041
#
# Stress axis : x y z
#
# Youngs Moduli (GPa) = 68.39373 59.75469 50.91508
#
# Poissons Ratio (x) = 0.24536 0.12446
# Poissons Ratio (y) = 0.28084 0.05156
# Poissons Ratio (z) = 0.16718 0.06051
#
# Static dielectric constant tensor:
#      x y z
#    x 1.688620 0.000000 -0.002400 
#    y 0.000000 1.652110 0.000000 
#    z -0.002400 0.000000 1.736260 
# 
# From -- ./inp_files/57846.got.cif
#   From: 2010.05.17/outbox.cif.g08.bks.cpg/sg15_29_cif.got.tgz:57846.got - 2010.06.03 18:47:42.
