data_PCOD9270857
_publ_section_title
;
Structure prediction by ZEFSAII (Michael W. Deem and Ramdas Pophale) SiO2 
 PCOD9270857
Probable space group: C 2/C
;
_chemical_formula_sum "Si O2"
_cell_formula_units_Z 56
_cell_length_a 26.375502
_cell_length_b 13.521913
_cell_length_c 8.132768
_cell_angle_alpha 90.000000
_cell_angle_beta 82.434754
_cell_angle_gamma 90.000000
_cell_volume 2875.281866
_symmetry_space_group_name_H-M "C 2/C"
_symmetry_group_IT_number 15
_symmetry_cell_setting 'monoclinic'
loop_
_space_group_symop_operation_xyz
x,y,z
-x,y,1/2-z
-x,-y,-z
x,-y,1/2+z
1/2+x,1/2+y,z
1/2-x,1/2+y,1/2-z
1/2-x,1/2-y,-z
1/2+x,1/2-y,1/2+z
loop_
_atom_site_type_symbol
_atom_site_label
_atom_site_fract_x
_atom_site_fract_y
_atom_site_fract_z
Si Si1 0.000000 0.262558 0.250000
Si Si2 0.665904 0.954208 0.488507
Si Si3 0.619833 0.870883 0.805703
Si Si4 0.563599 0.392774 0.537685
Si Si5 0.784599 0.632880 0.829548
Si Si6 0.328041 0.699861 0.538066
Si Si7 0.991658 0.612831 0.057735
Si Si8 0.500000 0.439949 0.250000
O O1 0.955412 0.191564 0.330867
O O2 0.017782 0.325185 0.400829
O O3 0.624426 0.893656 0.611591
O O4 0.701971 0.884019 0.366161
O O5 0.636761 0.026017 0.377682
O O6 0.698066 0.032402 0.583946
O O7 0.656443 0.780239 0.830977
O O8 0.567097 0.852153 0.919577
O O9 0.624478 0.376066 0.497330
O O10 0.533396 0.383795 0.375208
O O11 0.541081 0.492857 0.630920
O O12 0.725178 0.649615 0.891764
O O13 0.815754 0.727439 0.888251
O O14 0.000000 0.622423 0.250000
O O15 0.000000 0.500000 0.000000
#
# Coordination Sequence:
#
# PCOD9270857 Si02
#       8
#     4   8   8   8   8   8   8   4
#     4  11  24  38  59  88 120 162 201 258 302 375
#     4   9  19  36  58  77 116 151 190 237 292 358
#     4  10  20  36  53  80 112 154 189 238 297 351
#     4  10  21  41  63  85 121 159 208 262 322 365
#     4   9  20  36  57  87 114 153 194 241 300 363
#     4  10  20  36  58  83 119 151 194 249 301 368
#     4  12  24  37  56  88 126 163 207 249 295 371
#     4   9  22  42  63  88 116 162 213 270 314 365
#
# _framework density 19.476351000000001
#
# number of rings (size 3 to 8) (size 9 to 14) (size 15 to 20)
#    0.000    2.000    2.143    0.857    1.000    4.000 
#    0.000    2.857    0.000    0.000    0.000    0.000 
#    0.000    0.000    0.000    0.000    0.000    0.000 
#
# Total GULP energy -155897.933329 kJ/mol
# GULP energy per Si atom -5567.783333 kJ/mol
# Density = 1.943202 g / cm^3
# Si number density = 19.476351 Si / 1000 Ang^3
#
#
#
# Elastic Constant Matrix: (Units=GPa)
#
#
# Indices 1 2 3 4 5 6 
#
# 1 84.3124 23.0798 36.9757 0.0000 -10.0842 0.0000
# 2 23.0798 54.2621 38.7884 0.0000 -6.6666 0.0000
# 3 36.9757 38.7884 123.0377 0.0000 -3.3260 0.0000
# 4 0.0000 0.0000 0.0000 18.6040 0.0000 -18.9737
# 5 -10.0842 -6.6666 -3.3260 0.0000 22.2587 0.0000
# 6 0.0000 0.0000 0.0000 -18.9737 0.0000 10.3026
#
#
#
# Elastic Compliance Matrix: (Units=1/GPa)
#
#
# Indices 1 2 3 4 5 6 
#
# 1 0.014830 -0.003331 -0.003265 0.000000 0.005233 0.000000
# 2 -0.003331 0.025372 -0.006861 0.000000 0.005065 0.000000
# 3 -0.003265 -0.006861 0.011222 0.000000 -0.001857 0.000000
# 4 0.000000 0.000000 0.000000 -0.061204 0.000000 -0.112715
# 5 0.005233 0.005065 -0.001857 0.000000 0.048537 0.000000
# 6 0.000000 0.000000 0.000000 -0.112715 0.000000 -0.110519
#
#
# Mechanical properties :
#
#
# Convention : Reuss Voigt Hill
#
# Bulk Modulus (GPa) = 40.79906 51.03334 45.91620
# Shear Modulus (GPa) = -136.32437 21.08428 -57.62004
#
# Velocity S-wave (km/s) = -8.37537 3.29379 -5.44508
# Velocity P-wave (km/s) = 8.51678 6.38162 3.98814
#
# Compressibility (1/GPa) = 0.02451037
#
# Stress axis : x y z
#
# Youngs Moduli (GPa) = 67.42899 39.41281 89.11352
#
# Poissons Ratio (x) = 0.13128 0.29099
# Poissons Ratio (y) = 0.22459 0.61140
# Poissons Ratio (z) = 0.22018 0.27041
#
# Static dielectric constant tensor:
#      x y z
#    x 1.724260 0.000000 0.032040 
#    y 0.000000 1.705040 0.000000 
#    z 0.032040 0.000000 1.730030 
# 
# From -- ./inp_files/65945.got.cif
#   From: 2010.05.17/outbox.cif.g08.bks.cpg/sg15_33_cif.got.tgz:65945.got - 2010.06.03 18:47:42.
