data_PCOD9270178
_publ_section_title
;
Structure prediction by ZEFSAII (Michael W. Deem and Ramdas Pophale) SiO2 
 PCOD9270178
Probable space group: C 2/C
;
_chemical_formula_sum "Si O2"
_cell_formula_units_Z 64
_cell_length_a 14.101181
_cell_length_b 31.255555
_cell_length_c 20.032518
_cell_angle_alpha 90.000000
_cell_angle_beta 156.744993
_cell_angle_gamma 90.000000
_cell_volume 3485.956387
_symmetry_space_group_name_H-M "C 2/C"
_symmetry_group_IT_number 15
_symmetry_cell_setting 'monoclinic'
loop_
_space_group_symop_operation_xyz
x,y,z
-x,y,1/2-z
-x,-y,-z
x,-y,1/2+z
1/2+x,1/2+y,z
1/2-x,1/2+y,1/2-z
1/2-x,1/2-y,-z
1/2+x,1/2-y,1/2+z
loop_
_atom_site_type_symbol
_atom_site_label
_atom_site_fract_x
_atom_site_fract_y
_atom_site_fract_z
Si Si1 0.402053 0.921434 0.620006
Si Si2 0.764176 0.145625 0.143014
Si Si3 0.918179 0.564301 0.894010
Si Si4 0.546733 0.227225 0.413472
Si Si5 0.318531 0.797214 0.351290
Si Si6 0.243699 0.854512 0.704758
Si Si7 0.237377 0.487579 0.074458
Si Si8 0.971941 0.128037 0.900955
O O1 0.500000 0.943268 0.750000
O O2 0.612382 0.898710 0.714404
O O3 0.262307 0.954622 0.485412
O O4 0.223796 0.885399 0.532125
O O5 0.821111 0.149576 0.259092
O O6 0.000000 0.145091 0.250000
O O7 0.609428 0.101987 0.033640
O O8 0.584887 0.184902 0.007267
O O9 0.825132 0.541440 0.901439
O O10 0.703463 0.587102 0.715195
O O11 0.047503 0.525147 0.940922
O O12 0.750000 0.250000 0.500000
O O13 0.666618 0.215612 0.561586
O O14 0.315999 0.258470 0.272732
O O15 0.429054 0.183985 0.308513
O O16 0.148477 0.837194 0.224759
O O17 0.028585 0.854759 0.511805
O O18 0.500000 0.507481 0.250000
#
# Coordination Sequence:
#
# PCOD9270178 Si02
#       8
#     8   8   8   8   8   8   8   8
#     4  10  20  35  56  85 118 153 187 234 302 366
#     4  10  21  41  61  83 113 156 205 245 288 339
#     4  10  21  36  57  85 112 149 197 248 287 352
#     4  11  21  35  57  90 124 154 187 238 297 353
#     4  10  22  36  57  86 120 152 196 238 284 355
#     4  10  21  37  60  86 119 156 194 242 293 357
#     4  11  20  35  58  84 116 148 194 240 301 355
#     4  10  20  38  58  85 119 156 191 236 299 361
#
# _framework density 18.359380000000002
#
# number of rings (size 3 to 8) (size 9 to 14) (size 15 to 20)
#    0.000    1.750    2.500    2.250    0.000    3.000 
#    0.000   10.000    0.000    0.000    0.000    0.000 
#    0.000    0.000    0.000    0.000    0.000    0.000 
#
# Total GULP energy -178388.441240 kJ/mol
# GULP energy per Si atom -5574.638789 kJ/mol
# Density = 1.831759 g / cm^3
# Si number density = 18.359380 Si / 1000 Ang^3
#
#
#
# Elastic Constant Matrix: (Units=GPa)
#
#
# Indices 1 2 3 4 5 6 
#
# 1 84.7123 16.8120 44.1570 -0.0007 5.1910 -0.0003
# 2 16.8120 55.2231 19.2821 -0.0005 -4.5437 0.0000
# 3 44.1570 19.2821 92.9547 -0.0045 -9.7008 0.0013
# 4 -0.0007 -0.0005 -0.0045 35.9043 -0.0010 8.6268
# 5 5.1910 -4.5437 -9.7008 -0.0010 26.4124 -0.0007
# 6 -0.0003 0.0000 0.0013 8.6268 -0.0007 2.8259
#
#
#
# Elastic Compliance Matrix: (Units=1/GPa)
#
#
# Indices 1 2 3 4 5 6 
#
# 1 0.017096 -0.002894 -0.008239 -0.000007 -0.006884 0.000024
# 2 -0.002894 0.020109 -0.002471 -0.000002 0.003121 0.000007
# 3 -0.008239 -0.002471 0.015919 0.000013 0.007041 -0.000046
# 4 -0.000007 -0.000002 0.000013 0.104509 0.000001 -0.319045
# 5 -0.006884 0.003121 0.007041 0.000001 0.042337 0.000005
# 6 0.000024 0.000007 -0.000046 -0.319045 0.000005 1.327852
#
#
# Mechanical properties :
#
#
# Convention : Reuss Voigt Hill
#
# Bulk Modulus (GPa) = 38.58683 43.71027 41.14855
# Shear Modulus (GPa) = 3.19761 23.20444 13.20103
#
# Velocity S-wave (km/s) = 1.32116 3.55900 2.68439
# Velocity P-wave (km/s) = 4.83636 6.38345 5.66299
#
# Compressibility (1/GPa) = 0.02591558
#
# Stress axis : x y z
#
# Youngs Moduli (GPa) = 58.49472 49.72913 62.81729
#
# Poissons Ratio (x) = 0.14392 0.51756
# Poissons Ratio (y) = 0.16929 0.15521
# Poissons Ratio (z) = 0.48194 0.12287
#
# Static dielectric constant tensor:
#      x y z
#    x 1.624750 0.000000 -0.005950 
#    y 0.000000 1.643320 0.000000 
#    z -0.005950 0.000000 1.647630 
# 
# From -- ./inp_files/246007.got.cif
#   From: 2010.05.17/outbox.cif.g08.bks.cpg/sg15_124_cif.got.tgz:246007.got - 2010.06.03 18:47:42.
