data_PCOD9270581
_publ_section_title
;
Structure prediction by ZEFSAII (Michael W. Deem and Ramdas Pophale) SiO2 
 PCOD9270581
Probable space group: C 2/C
;
_chemical_formula_sum "Si O2"
_cell_formula_units_Z 48
_cell_length_a 16.752704
_cell_length_b 15.178322
_cell_length_c 11.836272
_cell_angle_alpha 90.000000
_cell_angle_beta 54.499075
_cell_angle_gamma 90.000000
_cell_volume 2450.217547
_symmetry_space_group_name_H-M "C 2/C"
_symmetry_group_IT_number 15
_symmetry_cell_setting 'monoclinic'
loop_
_space_group_symop_operation_xyz
x,y,z
-x,y,1/2-z
-x,-y,-z
x,-y,1/2+z
1/2+x,1/2+y,z
1/2-x,1/2+y,1/2-z
1/2-x,1/2-y,-z
1/2+x,1/2-y,1/2+z
loop_
_atom_site_type_symbol
_atom_site_label
_atom_site_fract_x
_atom_site_fract_y
_atom_site_fract_z
Si Si1 0.531969 0.917918 0.343502
Si Si2 0.324617 0.302557 0.101429
Si Si3 0.798200 0.704201 0.569842
Si Si4 0.551435 0.717173 0.387635
Si Si5 0.710284 0.630217 0.110485
Si Si6 0.154514 0.514389 0.918714
O O1 0.500000 0.951816 0.250000
O O2 0.545205 0.813586 0.335302
O O3 0.632608 0.956704 0.308554
O O4 0.436673 0.947452 0.491179
O O5 0.278451 0.313438 0.263809
O O6 0.284732 0.207262 0.091232
O O7 0.441731 0.307730 0.009749
O O8 0.293559 0.364933 0.021967
O O9 0.750000 0.750000 0.500000
O O10 0.879905 0.767558 0.559317
O O11 0.847081 0.607270 0.511909
O O12 0.607088 0.655102 0.253096
O O13 0.750280 0.538847 0.125376
#
# Coordination Sequence:
#
# PCOD9270581 Si02
#       6
#     8   8   8   8   8   8
#     4  10  20  35  60  91 124 150 200 260 309 362
#     4  10  20  37  63  88 118 160 204 254 314 363
#     4  10  24  42  58  87 125 169 206 251 312 378
#     4  10  20  38  64  91 119 156 208 258 316 364
#     4  10  20  35  63  93 123 153 201 261 309 368
#     4  10  22  37  56  93 123 158 205 255 306 363
#
# _framework density 19.590098000000001
#
# number of rings (size 3 to 8) (size 9 to 14) (size 15 to 20)
#    0.000    2.000    1.667    1.500    7.000    3.333 
#    0.000    0.833    3.667    0.000    0.000    0.000 
#    0.000    0.000    0.000    0.000    0.000    0.000 
#
# Total GULP energy -133689.272286 kJ/mol
# GULP energy per Si atom -5570.386345 kJ/mol
# Density = 1.954551 g / cm^3
# Si number density = 19.590098 Si / 1000 Ang^3
#
#
#
# Elastic Constant Matrix: (Units=GPa)
#
#
# Indices 1 2 3 4 5 6 
#
# 1 136.9369 33.7067 61.9535 0.0000 11.7128 0.0000
# 2 33.7067 52.0157 15.1149 0.0000 11.1576 0.0000
# 3 61.9535 15.1149 83.3960 0.0000 -3.6771 0.0000
# 4 0.0000 0.0000 0.0000 13.9072 0.0000 -13.1453
# 5 11.7128 11.1576 -3.6771 0.0000 35.6036 0.0000
# 6 0.0000 0.0000 0.0000 -13.1453 0.0000 40.0251
#
#
#
# Elastic Compliance Matrix: (Units=1/GPa)
#
#
# Indices 1 2 3 4 5 6 
#
# 1 0.012796 -0.004985 -0.008759 0.000000 -0.003552 0.000000
# 2 -0.004985 0.024002 -0.000910 0.000000 -0.005976 0.000000
# 3 -0.008759 -0.000910 0.018889 0.000000 0.005118 0.000000
# 4 0.000000 0.000000 0.000000 0.104276 0.000000 0.034247
# 5 -0.003552 -0.005976 0.005118 0.000000 0.031657 0.000000
# 6 0.000000 0.000000 0.000000 0.034247 0.000000 0.036232
#
#
# Mechanical properties :
#
#
# Convention : Reuss Voigt Hill
#
# Bulk Modulus (GPa) = 37.91109 54.87764 46.39437
# Shear Modulus (GPa) = 18.80023 28.67874 23.73949
#
# Velocity S-wave (km/s) = 3.10123 3.83030 3.48488
# Velocity P-wave (km/s) = 5.67606 6.90184 6.31874
#
# Compressibility (1/GPa) = 0.02637751
#
# Stress axis : x y z
#
# Youngs Moduli (GPa) = 78.14646 41.66382 52.94117
#
# Poissons Ratio (x) = 0.20769 0.46374
# Poissons Ratio (y) = 0.38956 0.04820
# Poissons Ratio (z) = 0.68452 0.03793
#
# Static dielectric constant tensor:
#      x y z
#    x 1.736420 0.000000 0.071020 
#    y 0.000000 1.706860 0.000000 
#    z 0.071020 0.000000 2.030720 
# 
# From -- ./inp_files/96825.got.cif
#   From: 2010.05.17/outbox.cif.g08.bks.cpg/sg15_49_cif.got.tgz:96825.got - 2010.06.03 18:47:42.
