data_PCOD9270776
_publ_section_title
;
Structure prediction by ZEFSAII (Michael W. Deem and Ramdas Pophale) SiO2 
 PCOD9270776
Probable space group: C 2/C
;
_chemical_formula_sum "Si O2"
_cell_formula_units_Z 56
_cell_length_a 24.392177
_cell_length_b 17.343368
_cell_length_c 17.565606
_cell_angle_alpha 90.000000
_cell_angle_beta 19.369765
_cell_angle_gamma 90.000000
_cell_volume 2464.589637
_symmetry_space_group_name_H-M "C 2/C"
_symmetry_group_IT_number 15
_symmetry_cell_setting 'monoclinic'
loop_
_space_group_symop_operation_xyz
x,y,z
-x,y,1/2-z
-x,-y,-z
x,-y,1/2+z
1/2+x,1/2+y,z
1/2-x,1/2+y,1/2-z
1/2-x,1/2-y,-z
1/2+x,1/2-y,1/2+z
loop_
_atom_site_type_symbol
_atom_site_label
_atom_site_fract_x
_atom_site_fract_y
_atom_site_fract_z
Si Si1 0.629653 0.335497 0.019317
Si Si2 0.310675 0.545203 0.360149
Si Si3 0.515287 0.182102 0.370094
Si Si4 0.220070 0.296224 0.186504
Si Si5 0.558578 0.167278 0.752047
Si Si6 0.000000 0.909818 0.750000
Si Si7 0.762678 0.879685 0.778826
Si Si8 0.000000 0.433321 0.750000
O O1 0.500000 0.366439 0.250000
O O2 0.541992 0.261499 0.094868
O O3 0.799216 0.312321 0.839815
O O4 0.678908 0.388592 0.883208
O O5 0.212990 0.619826 0.519623
O O6 0.435395 0.536071 0.265914
O O7 0.370535 0.574059 0.198774
O O8 0.171034 0.481031 0.531383
O O9 0.395380 0.164743 0.598504
O O10 0.498811 0.118374 0.327043
O O11 0.112978 0.280782 0.250499
O O12 0.252059 0.212263 0.181778
O O13 0.364886 0.353948 0.969587
O O14 0.500000 0.205733 0.750000
O O15 0.430047 0.103089 0.952249
#
# Coordination Sequence:
#
# PCOD9270776 Si02
#       8
#     8   8   8   8   8   4   8   4
#     4  11  23  44  70 105 135 168 231 287 355 392
#     4  10  22  42  64  97 136 182 223 271 332 413
#     4  11  25  44  73  99 136 179 225 294 339 412
#     4  10  22  36  62 104 133 177 222 274 358 391
#     4   9  17  34  57  86 131 168 214 260 328 397
#     4  10  24  39  64  97 148 170 234 282 328 418
#     4  10  20  35  64  97 137 172 217 281 334 410
#     4  12  24  47  72  93 134 184 244 268 342 412
#
# _framework density 22.721836
#
# number of rings (size 3 to 8) (size 9 to 14) (size 15 to 20)
#    0.000    1.714    4.286    0.429    5.000    4.000 
#    1.286    7.143    0.000    0.000    0.000    0.000 
#    0.000    0.000    0.000    0.000    0.000    0.000 
#
# Total GULP energy -156209.542256 kJ/mol
# GULP energy per Si atom -5578.912223 kJ/mol
# Density = 2.267012 g / cm^3
# Si number density = 22.721836 Si / 1000 Ang^3
#
#
#
# Elastic Constant Matrix: (Units=GPa)
#
#
# Indices 1 2 3 4 5 6 
#
# 1 191.1821 37.2416 73.0405 -0.0043 10.8118 0.0026
# 2 37.2416 41.8515 25.6953 -0.0005 6.9535 0.0000
# 3 73.0405 25.6953 135.3060 -0.0150 28.7739 0.0107
# 4 -0.0043 -0.0005 -0.0150 1.1965 0.0081 11.1483
# 5 10.8118 6.9535 28.7739 0.0081 43.4657 -0.0050
# 6 0.0026 0.0000 0.0107 11.1483 -0.0050 9.1300
#
#
#
# Elastic Compliance Matrix: (Units=1/GPa)
#
#
# Indices 1 2 3 4 5 6 
#
# 1 0.007346 -0.004689 -0.003313 0.000004 0.001116 -0.000003
# 2 -0.004689 0.030084 -0.002801 0.000006 -0.001792 -0.000004
# 3 -0.003313 -0.002801 0.010987 -0.000029 -0.006001 0.000021
# 4 0.000004 0.000006 -0.000029 -0.080539 0.000044 0.098343
# 5 0.001116 -0.001792 -0.006001 0.000044 0.026989 -0.000032
# 6 -0.000003 -0.000004 0.000021 0.098343 -0.000032 -0.010554
#
#
# Mechanical properties :
#
#
# Convention : Reuss Voigt Hill
#
# Bulk Modulus (GPa) = 37.29570 71.14382 54.21976
# Shear Modulus (GPa) = 336.61014 26.24924 181.42969
#
# Velocity S-wave (km/s) = 12.18464 3.40257 8.94547
# Velocity P-wave (km/s) = 14.64253 6.84218 11.42845
#
# Compressibility (1/GPa) = 0.02681274
#
# Stress axis : x y z
#
# Youngs Moduli (GPa) = 136.12043 33.24056 91.01747
#
# Poissons Ratio (x) = 0.15586 0.30150
# Poissons Ratio (y) = 0.63824 0.25492
# Poissons Ratio (z) = 0.45090 0.09310
#
# Static dielectric constant tensor:
#      x y z
#    x 1.933170 0.000000 -0.086550 
#    y 0.000000 1.846280 0.000000 
#    z -0.086550 0.000000 2.022190 
# 
# From -- ./inp_files/222944.got.cif
#   From: 2010.05.17/outbox.cif.g08.bks.cpg/sg15_112_cif.got.tgz:222944.got - 2010.06.03 18:47:42.
