data_PCOD9270913
_publ_section_title
;
Structure prediction by ZEFSAII (Michael W. Deem and Ramdas Pophale) SiO2 
 PCOD9270913
Probable space group: C 2/C
;
_chemical_formula_sum "Si O2"
_cell_formula_units_Z 56
_cell_length_a 24.771251
_cell_length_b 17.609903
_cell_length_c 22.520225
_cell_angle_alpha 90.000000
_cell_angle_beta 17.982186
_cell_angle_gamma 90.000000
_cell_volume 3032.802995
_symmetry_space_group_name_H-M "C 2/C"
_symmetry_group_IT_number 15
_symmetry_cell_setting 'monoclinic'
loop_
_space_group_symop_operation_xyz
x,y,z
-x,y,1/2-z
-x,-y,-z
x,-y,1/2+z
1/2+x,1/2+y,z
1/2-x,1/2+y,1/2-z
1/2-x,1/2-y,-z
1/2+x,1/2-y,1/2+z
loop_
_atom_site_type_symbol
_atom_site_label
_atom_site_fract_x
_atom_site_fract_y
_atom_site_fract_z
Si Si1 0.716728 0.664007 0.734856
Si Si2 0.953894 0.063287 0.499035
Si Si3 0.395202 0.171631 0.185965
Si Si4 0.149978 0.497183 0.742500
Si Si5 0.197609 0.019816 0.542975
Si Si6 0.161902 0.323108 0.619814
Si Si7 0.757000 0.513804 0.618086
O O1 0.693812 0.752235 0.743609
O O2 0.700261 0.599368 0.699565
O O3 0.920527 0.658320 0.538812
O O4 0.578845 0.639427 0.929357
O O5 0.769587 0.047590 0.659518
O O6 0.000000 0.000000 0.500000
O O7 0.111093 0.048127 0.288857
O O8 0.303739 0.089361 0.284662
O O9 0.419105 0.189736 0.230846
O O10 0.203103 0.511930 0.618390
O O11 0.939564 0.502472 0.961032
O O12 0.199667 0.109500 0.525673
O O13 0.275493 0.011605 0.527516
O O14 0.000000 0.991063 0.750000
O O15 0.250000 0.250000 0.500000
O O16 0.000000 0.349256 0.750000
#
# Coordination Sequence:
#
# PCOD9270913 Si02
#       7
#     8   8   8   8   8   8   8
#     4  10  22  35  51  75 107 148 195 225 273 317
#     4  10  22  37  54  76 105 150 194 231 272 319
#     4  10  21  33  51  73 106 148 184 233 268 317
#     4  10  21  37  55  80 111 145 184 226 281 325
#     4  11  19  31  54  79 108 140 173 225 275 330
#     4  11  20  30  44  72 107 147 186 220 266 318
#     4  10  20  36  55  79 111 143 182 229 270 332
#
# _framework density 18.464766999999998
#
# number of rings (size 3 to 8) (size 9 to 14) (size 15 to 20)
#    0.000    1.714    1.429    5.143    4.000    6.286 
#    0.000    0.000    0.000    0.000    0.000    0.000 
#    0.000    4.571    0.000    0.000    0.000    0.000 
#
# Total GULP energy -155939.198365 kJ/mol
# GULP energy per Si atom -5569.257084 kJ/mol
# Density = 1.842274 g / cm^3
# Si number density = 18.464767 Si / 1000 Ang^3
#
#
#
# Elastic Constant Matrix: (Units=GPa)
#
#
# Indices 1 2 3 4 5 6 
#
# 1 67.6549 13.5214 13.6998 0.0908 -2.8026 -0.1952
# 2 13.5214 22.1389 16.8530 0.2505 4.6234 -0.4527
# 3 13.6998 16.8530 79.8556 0.3299 2.0489 -0.7157
# 4 0.0908 0.2505 0.3299 -63.9585 -0.1642 187.4191
# 5 -2.8026 4.6234 2.0489 -0.1642 28.4902 0.3559
# 6 -0.1952 -0.4527 -0.7157 187.4191 0.3559 -363.8008
#
#
#
# Elastic Compliance Matrix: (Units=1/GPa)
#
#
# Indices 1 2 3 4 5 6 
#
# 1 0.017211 -0.010629 -0.000798 0.000008 0.003475 0.000013
# 2 -0.010629 0.062229 -0.011044 -0.000043 -0.010349 -0.000082
# 3 -0.000798 -0.011044 0.014974 0.000023 0.000637 -0.000003
# 4 0.000008 -0.000043 0.000023 0.030680 -0.000014 0.015806
# 5 0.003475 -0.010349 0.000637 -0.000014 0.037075 0.000039
# 6 0.000013 -0.000082 -0.000003 0.015806 0.000039 0.005394
#
#
# Mechanical properties :
#
#
# Convention : Reuss Voigt Hill
#
# Bulk Modulus (GPa) = 20.21466 28.64422 24.42944
# Shear Modulus (GPa) = 21.83432 -71.48215 -24.82392
#
# Velocity S-wave (km/s) = 3.44246 -6.22871 -3.67058
# Velocity P-wave (km/s) = 5.17418 6.01518 2.16913
#
# Compressibility (1/GPa) = 0.04946906
#
# Stress axis : x y z
#
# Youngs Moduli (GPa) = 58.10249 16.06972 66.78253
#
# Poissons Ratio (x) = 0.17081 0.05332
# Poissons Ratio (y) = 0.61760 0.73758
# Poissons Ratio (z) = 0.04639 0.17748
#
# Static dielectric constant tensor:
#      x y z
#    x 1.717410 -0.000030 0.032270 
#    y -0.000030 1.648690 -0.000010 
#    z 0.032270 -0.000010 1.746580 
# 
# From -- ./inp_files/255891.got.cif
#   From: 2010.05.17/outbox.cif.g08.bks.cpg/sg15_128_cif.got.tgz:255891.got - 2010.06.03 18:47:42.
