data_PCOD9270774
_publ_section_title
;
Structure prediction by ZEFSAII (Michael W. Deem and Ramdas Pophale) SiO2 
 PCOD9270774
Probable space group: C 2/C
;
_chemical_formula_sum "Si O2"
_cell_formula_units_Z 48
_cell_length_a 29.159469
_cell_length_b 8.292741
_cell_length_c 18.956782
_cell_angle_alpha 90.000000
_cell_angle_beta 154.770553
_cell_angle_gamma 90.000000
_cell_volume 1953.893468
_symmetry_space_group_name_H-M "C 2/C"
_symmetry_group_IT_number 15
_symmetry_cell_setting 'monoclinic'
loop_
_space_group_symop_operation_xyz
x,y,z
-x,y,1/2-z
-x,-y,-z
x,-y,1/2+z
1/2+x,1/2+y,z
1/2-x,1/2+y,1/2-z
1/2-x,1/2-y,-z
1/2+x,1/2-y,1/2+z
loop_
_atom_site_type_symbol
_atom_site_label
_atom_site_fract_x
_atom_site_fract_y
_atom_site_fract_z
Si Si1 0.529688 0.336451 0.405628
Si Si2 0.213790 0.736650 0.092185
Si Si3 0.786261 0.509361 0.519382
Si Si4 0.236107 0.536816 0.249758
Si Si5 0.500000 0.080860 0.250000
Si Si6 0.000000 0.921044 0.750000
Si Si7 0.666651 0.799288 0.789268
O O1 0.636389 0.425960 0.578900
O O2 0.555552 0.200523 0.383798
O O3 0.465682 0.467272 0.268798
O O4 0.454081 0.253014 0.357949
O O5 0.191689 0.582434 0.111759
O O6 0.276437 0.863204 0.230221
O O7 0.264993 0.663914 0.091446
O O8 0.103491 0.824055 0.918431
O O9 0.911156 0.515638 0.669346
O O10 0.735923 0.350882 0.412977
O O11 0.793324 0.457151 0.610956
O O12 0.184211 0.661831 0.232771
#
# Coordination Sequence:
#
# PCOD9270774 Si02
#       7
#     8   8   8   8   4   4   8
#     4   9  19  38  67  95 129 176 216 272 339 398
#     4  11  24  42  68  95 138 178 226 273 345 399
#     4  10  20  35  64  97 125 175 218 279 323 398
#     4  11  23  43  66  96 137 181 218 280 345 395
#     4   9  15  32  64  88 124 158 224 256 324 386
#     4   9  21  42  66 100 128 180 228 276 332 406
#     4  10  21  39  68 100 133 171 233 274 334 402
#
# _framework density 24.566334000000001
#
# number of rings (size 3 to 8) (size 9 to 14) (size 15 to 20)
#    0.000    2.000    1.667    1.500    7.000    0.667 
#    0.000    8.333    0.000    0.000    0.000    0.000 
#    0.000    0.000    0.000    0.000    0.000    0.000 
#
# Total GULP energy -134094.456078 kJ/mol
# GULP energy per Si atom -5587.269003 kJ/mol
# Density = 2.451042 g / cm^3
# Si number density = 24.566334 Si / 1000 Ang^3
#
#
#
# Elastic Constant Matrix: (Units=GPa)
#
#
# Indices 1 2 3 4 5 6 
#
# 1 102.6309 10.1127 23.7871 0.0000 -13.5484 0.0000
# 2 10.1127 105.2512 31.4323 0.0000 -13.0327 0.0000
# 3 23.7871 31.4323 62.1869 0.0000 -9.3357 0.0000
# 4 0.0000 0.0000 0.0000 48.7494 0.0000 -13.5207
# 5 -13.5484 -13.0327 -9.3357 0.0000 41.6801 0.0000
# 6 0.0000 0.0000 0.0000 -13.5207 0.0000 41.1751
#
#
#
# Elastic Compliance Matrix: (Units=1/GPa)
#
#
# Indices 1 2 3 4 5 6 
#
# 1 0.011003 0.000498 -0.004036 0.000000 0.002829 0.000000
# 2 0.000498 0.011432 -0.005596 0.000000 0.002483 0.000000
# 3 -0.004036 -0.005596 0.020689 0.000000 0.001572 0.000000
# 4 0.000000 0.000000 0.000000 0.022568 0.000000 0.007411
# 5 0.002829 0.002483 0.001572 0.000000 0.026040 0.000000
# 6 0.000000 0.000000 0.000000 0.007411 0.000000 0.026720
#
#
# Mechanical properties :
#
#
# Convention : Reuss Voigt Hill
#
# Bulk Modulus (GPa) = 40.23093 44.52593 42.37843
# Shear Modulus (GPa) = 34.48121 39.97004 37.22562
#
# Velocity S-wave (km/s) = 3.75052 4.03802 3.89692
# Velocity P-wave (km/s) = 5.93020 6.31703 6.12667
#
# Compressibility (1/GPa) = 0.02485650
#
# Stress axis : x y z
#
# Youngs Moduli (GPa) = 90.88072 87.47452 48.33484
#
# Poissons Ratio (x) = -0.04360 0.19509
# Poissons Ratio (y) = -0.04529 0.27049
# Poissons Ratio (z) = 0.36681 0.48952
#
# Static dielectric constant tensor:
#      x y z
#    x 1.922010 0.000000 -0.001090 
#    y 0.000000 2.042800 0.000000 
#    z -0.001090 0.000000 1.962010 
# 
# From -- ./inp_files/177032.got.cif
#   From: 2010.05.17/outbox.cif.g08.bks.cpg/sg15_89_cif.got.tgz:177032.got - 2010.06.03 18:47:42.
