data_PCOD9270373
_publ_section_title
;
Structure prediction by ZEFSAII (Michael W. Deem and Ramdas Pophale) SiO2 
 PCOD9270373
Probable space group: C 2/C
;
_chemical_formula_sum "Si O2"
_cell_formula_units_Z 48
_cell_length_a 22.067028
_cell_length_b 6.219565
_cell_length_c 30.700344
_cell_angle_alpha 90.000000
_cell_angle_beta 146.115530
_cell_angle_gamma 90.000000
_cell_volume 2349.133180
_symmetry_space_group_name_H-M "C 2/C"
_symmetry_group_IT_number 15
_symmetry_cell_setting 'monoclinic'
loop_
_space_group_symop_operation_xyz
x,y,z
-x,y,1/2-z
-x,-y,-z
x,-y,1/2+z
1/2+x,1/2+y,z
1/2-x,1/2+y,1/2-z
1/2-x,1/2-y,-z
1/2+x,1/2-y,1/2+z
loop_
_atom_site_type_symbol
_atom_site_label
_atom_site_fract_x
_atom_site_fract_y
_atom_site_fract_z
Si Si1 0.285798 0.063067 0.054543
Si Si2 0.383690 0.814480 0.342119
Si Si3 0.230619 0.851976 0.381854
Si Si4 0.365701 0.825967 0.023089
Si Si5 0.125791 0.976847 0.585198
Si Si6 0.765791 0.136154 0.191907
O O1 0.332391 0.184094 0.124735
O O2 0.360519 0.907846 0.070130
O O3 0.250000 0.250000 0.000000
O O4 0.182510 0.915093 0.006157
O O5 0.512340 0.852125 0.420856
O O6 0.361708 0.602640 0.357750
O O7 0.347022 0.766389 0.271200
O O8 0.313924 0.000758 0.323749
O O9 0.323428 0.707816 0.414458
O O10 0.286170 0.024980 0.447001
O O11 0.178457 0.978272 0.310079
O O12 0.191201 0.197519 0.620723
O O13 0.000000 0.000000 0.500000
#
# Coordination Sequence:
#
# PCOD9270373 Si02
#       6
#     8   8   8   8   8   8
#     4   9  19  37  60  89 109 147 198 255 295 348
#     4  11  22  37  56  88 118 162 189 241 306 361
#     4  10  20  35  58  86 113 153 191 250 294 351
#     4  10  20  37  63  85 116 148 204 248 300 355
#     4  11  21  35  58  86 117 152 199 244 294 364
#     4  11  22  37  55  84 126 155 197 240 303 372
#
# _framework density 20.433069
#
# number of rings (size 3 to 8) (size 9 to 14) (size 15 to 20)
#    0.000    1.667    1.667    4.000    0.000    4.000 
#    0.000    0.000    0.000   24.000    0.000    0.000 
#    0.000    0.000    0.000    0.000    0.000    0.000 
#
# Total GULP energy -133874.586937 kJ/mol
# GULP energy per Si atom -5578.107789 kJ/mol
# Density = 2.038656 g / cm^3
# Si number density = 20.433069 Si / 1000 Ang^3
#
#
#
# Elastic Constant Matrix: (Units=GPa)
#
#
# Indices 1 2 3 4 5 6 
#
# 1 48.7620 5.4100 7.1277 -0.0008 -21.3483 0.0031
# 2 5.4100 81.7127 22.8656 0.0075 -15.5448 0.0041
# 3 7.1277 22.8656 34.6640 0.0001 -18.8287 -0.0003
# 4 -0.0008 0.0075 0.0001 21.0571 0.0010 -19.9750
# 5 -21.3483 -15.5448 -18.8287 0.0010 23.6072 0.0014
# 6 0.0031 0.0041 -0.0003 -19.9750 0.0014 48.6196
#
#
#
# Elastic Compliance Matrix: (Units=1/GPa)
#
#
# Indices 1 2 3 4 5 6 
#
# 1 0.041159 0.002107 0.019616 -0.000010 0.054254 -0.000008
# 2 0.002107 0.015282 -0.007081 -0.000012 0.006321 -0.000007
# 3 0.019616 -0.007081 0.064556 -0.000003 0.064565 -0.000004
# 4 -0.000010 -0.000012 -0.000003 0.077818 -0.000025 0.031971
# 5 0.054254 0.006321 0.064565 -0.000025 0.147080 -0.000018
# 6 -0.000008 -0.000007 -0.000004 0.031971 -0.000018 0.033703
#
#
# Mechanical properties :
#
#
# Convention : Reuss Voigt Hill
#
# Bulk Modulus (GPa) = 6.65415 26.21615 16.43515
# Shear Modulus (GPa) = 12.48730 27.30582 19.89656
#
# Velocity S-wave (km/s) = 2.47479 3.65958 3.12387
# Velocity P-wave (km/s) = 3.38079 5.54210 4.59046
#
# Compressibility (1/GPa) = 0.15028219
#
# Stress axis : x y z
#
# Youngs Moduli (GPa) = 24.29582 65.43503 15.49054
#
# Poissons Ratio (x) = -0.13786 -0.30387
# Poissons Ratio (y) = -0.05119 0.10968
# Poissons Ratio (z) = -0.47659 0.46332
#
# Static dielectric constant tensor:
#      x y z
#    x 1.757070 0.000000 -0.055510 
#    y 0.000000 1.741210 0.000000 
#    z -0.055510 0.000000 1.705090 
# 
# From -- ./inp_files/217529.got.cif
#   From: 2010.05.17/outbox.cif.g08.bks.cpg/sg15_109_cif.got.tgz:217529.got - 2010.06.03 18:47:42.
