data_PCOD9270487
_publ_section_title
;
Structure prediction by ZEFSAII (Michael W. Deem and Ramdas Pophale) SiO2 
 PCOD9270487
Probable space group: C 2/C
;
_chemical_formula_sum "Si O2"
_cell_formula_units_Z 56
_cell_length_a 19.614363
_cell_length_b 8.071730
_cell_length_c 13.938630
_cell_angle_alpha 90.000000
_cell_angle_beta 72.575345
_cell_angle_gamma 90.000000
_cell_volume 2105.523448
_symmetry_space_group_name_H-M "C 2/C"
_symmetry_group_IT_number 15
_symmetry_cell_setting 'monoclinic'
loop_
_space_group_symop_operation_xyz
x,y,z
-x,y,1/2-z
-x,-y,-z
x,-y,1/2+z
1/2+x,1/2+y,z
1/2-x,1/2+y,1/2-z
1/2-x,1/2-y,-z
1/2+x,1/2-y,1/2+z
loop_
_atom_site_type_symbol
_atom_site_label
_atom_site_fract_x
_atom_site_fract_y
_atom_site_fract_z
Si Si1 0.017229 0.770378 0.856936
Si Si2 0.734408 0.941867 0.528838
Si Si3 0.901710 0.279284 0.852611
Si Si4 0.370680 0.582927 0.431060
Si Si5 0.313858 0.919546 0.652110
Si Si6 0.035675 0.382383 0.879004
Si Si7 0.668673 0.261215 0.746964
O O1 0.000000 0.764468 0.750000
O O2 0.018372 0.578971 0.890306
O O3 0.098127 0.840647 0.827487
O O4 0.951305 0.872790 0.927753
O O5 0.750000 0.750000 0.500000
O O6 0.660407 0.914684 0.613634
O O7 0.805640 0.040372 0.532062
O O8 0.716521 0.026576 0.436445
O O9 0.876244 0.090481 0.869074
O O10 0.937477 0.322331 0.737076
O O11 0.958101 0.298274 0.916533
O O12 0.346060 0.717047 0.360997
O O13 0.391436 0.842828 0.596077
O O14 0.330449 0.080096 0.708440
O O15 0.248658 0.826575 0.731261
#
# Coordination Sequence:
#
# PCOD9270487 Si02
#       7
#     8   8   8   8   8   8   8
#     4   9  16  33  52  78 113 137 184 239 280 319
#     4   9  20  38  57  83 115 154 191 233 292 344
#     4  10  20  35  59  88 110 151 196 230 285 354
#     4   9  19  34  58  82 110 152 189 232 284 342
#     4  10  21  36  56  84 117 152 189 241 287 332
#     4  10  21  33  57  88 110 147 193 242 282 332
#     4   9  20  31  54  83 110 147 188 240 275 329
#
# _framework density 26.596710999999999
#
# number of rings (size 3 to 8) (size 9 to 14) (size 15 to 20)
#    0.000    2.571    1.429    0.000   12.000    0.571 
#    0.000    0.714    0.000   13.714    0.000    0.000 
#    0.000    0.000    0.000    0.000    0.000    0.000 
#
# Total GULP energy -156370.592779 kJ/mol
# GULP energy per Si atom -5584.664028 kJ/mol
# Density = 2.653618 g / cm^3
# Si number density = 26.596711 Si / 1000 Ang^3
#
#
#
# Elastic Constant Matrix: (Units=GPa)
#
#
# Indices 1 2 3 4 5 6 
#
# 1 150.2255 20.3773 30.4661 0.0000 -39.7443 0.0000
# 2 20.3773 77.6166 31.1940 0.0000 -12.3936 0.0000
# 3 30.4661 31.1940 70.8355 0.0000 -29.6132 0.0000
# 4 0.0000 0.0000 0.0000 115.3145 0.0000 29.0367
# 5 -39.7443 -12.3936 -29.6132 0.0000 41.2705 0.0000
# 6 0.0000 0.0000 0.0000 29.0367 0.0000 62.2970
#
#
#
# Elastic Compliance Matrix: (Units=1/GPa)
#
#
# Indices 1 2 3 4 5 6 
#
# 1 0.009011 -0.001067 0.000126 0.000000 0.008447 0.000000
# 2 -0.001067 0.015784 -0.007057 0.000000 -0.001351 0.000000
# 3 0.000126 -0.007057 0.023335 0.000000 0.014746 0.000000
# 4 0.000000 0.000000 0.000000 0.009825 0.000000 -0.004579
# 5 0.008447 -0.001351 0.014746 0.000000 0.042541 0.000000
# 6 0.000000 0.000000 0.000000 -0.004579 0.000000 0.018187
#
#
# Mechanical properties :
#
#
# Convention : Reuss Voigt Hill
#
# Bulk Modulus (GPa) = 31.11962 51.41693 41.26827
# Shear Modulus (GPa) = 34.39005 58.21910 46.30457
#
# Velocity S-wave (km/s) = 3.59976 4.68371 4.17704
# Velocity P-wave (km/s) = 5.38550 6.97306 6.23005
#
# Compressibility (1/GPa) = 0.03213407
#
# Stress axis : x y z
#
# Youngs Moduli (GPa) = 110.97809 63.35353 42.85336
#
# Poissons Ratio (x) = 0.06763 -0.00540
# Poissons Ratio (y) = 0.11847 0.30241
# Poissons Ratio (z) = -0.01399 0.44708
#
# Static dielectric constant tensor:
#      x y z
#    x 1.024320 0.000000 0.129280 
#    y 0.000000 2.001430 0.000000 
#    z 0.129280 0.000000 2.190820 
# 
# From -- ./inp_files/213796.got.cif
#   From: 2010.05.17/outbox.cif.g08.bks.cpg/sg15_107_cif.got.tgz:213796.got - 2010.06.03 18:47:42.
