data_PCOD9270897
_publ_section_title
;
Structure prediction by ZEFSAII (Michael W. Deem and Ramdas Pophale) SiO2 
 PCOD9270897
Probable space group: C 2/C
;
_chemical_formula_sum "Si O2"
_cell_formula_units_Z 56
_cell_length_a 21.684583
_cell_length_b 21.497335
_cell_length_c 10.677415
_cell_angle_alpha 90.000000
_cell_angle_beta 33.731984
_cell_angle_gamma 90.000000
_cell_volume 2763.989228
_symmetry_space_group_name_H-M "C 2/C"
_symmetry_group_IT_number 15
_symmetry_cell_setting 'monoclinic'
loop_
_space_group_symop_operation_xyz
x,y,z
-x,y,1/2-z
-x,-y,-z
x,-y,1/2+z
1/2+x,1/2+y,z
1/2-x,1/2+y,1/2-z
1/2-x,1/2-y,-z
1/2+x,1/2-y,1/2+z
loop_
_atom_site_type_symbol
_atom_site_label
_atom_site_fract_x
_atom_site_fract_y
_atom_site_fract_z
Si Si1 0.360769 0.931462 0.742207
Si Si2 0.171064 0.324147 0.266116
Si Si3 0.638380 0.183728 0.092733
Si Si4 0.716010 0.148902 0.340452
Si Si5 0.619507 0.700405 0.228051
Si Si6 0.621567 0.730563 0.852697
Si Si7 0.103874 0.563485 0.737670
O O1 0.272778 0.896069 0.800485
O O2 0.471314 0.943481 0.471600
O O3 0.337053 0.997124 0.847742
O O4 0.390583 0.882123 0.799429
O O5 0.110953 0.305290 0.495129
O O6 0.130833 0.274855 0.229990
O O7 0.138846 0.394422 0.296037
O O8 0.303741 0.319306 0.018614
O O9 0.772427 0.187842 0.851640
O O10 0.603154 0.235763 0.249997
O O11 0.822466 0.169772 0.245471
O O12 0.656666 0.211407 0.385159
O O13 0.643023 0.106751 0.557584
O O14 0.489285 0.693004 0.428290
#
# Coordination Sequence:
#
# PCOD9270897 Si02
#       7
#     8   8   8   8   8   8   8
#     4  10  22  37  56  86 119 157 192 239 301 352
#     4  10  20  36  54  87 115 147 197 243 287 357
#     4  10  21  38  54  87 122 147 192 251 295 344
#     4  10  20  40  58  87 123 153 197 249 285 358
#     4  10  21  36  60  87 115 159 196 234 307 355
#     4  10  21  39  58  88 120 157 192 241 305 355
#     4  10  22  36  59  86 114 161 198 231 304 351
#
# _framework density 20.260570000000001
#
# number of rings (size 3 to 8) (size 9 to 14) (size 15 to 20)
#    0.000    2.000    1.429    2.143    2.000    5.143 
#    0.000    0.000    0.000    3.429    7.429    0.000 
#    0.000    0.000    0.000    0.000    0.000    0.000 
#
# Total GULP energy -156020.040531 kJ/mol
# GULP energy per Si atom -5572.144305 kJ/mol
# Density = 2.021446 g / cm^3
# Si number density = 20.260570 Si / 1000 Ang^3
#
#
#
# Elastic Constant Matrix: (Units=GPa)
#
#
# Indices 1 2 3 4 5 6 
#
# 1 71.7566 8.9116 17.1868 0.0001 4.3857 0.0000
# 2 8.9116 72.0967 -2.7737 0.0000 1.5665 0.0000
# 3 17.1868 -2.7737 75.9486 0.0001 2.2074 -0.0001
# 4 0.0001 0.0000 0.0001 22.9047 -0.0001 0.4808
# 5 4.3857 1.5665 2.2074 -0.0001 41.7567 0.0000
# 6 0.0000 0.0000 -0.0001 0.4808 0.0000 7.2325
#
#
#
# Elastic Compliance Matrix: (Units=1/GPa)
#
#
# Indices 1 2 3 4 5 6 
#
# 1 0.015087 -0.001969 -0.003447 0.000000 -0.001329 0.000000
# 2 -0.001969 0.014159 0.000974 0.000000 -0.000376 0.000000
# 3 -0.003447 0.000974 0.013995 0.000000 -0.000414 0.000000
# 4 0.000000 0.000000 0.000000 0.043720 0.000000 -0.002907
# 5 -0.001329 -0.000376 -0.000414 0.000000 0.024124 0.000000
# 6 0.000000 0.000000 0.000000 -0.002907 0.000000 0.138458
#
#
# Mechanical properties :
#
#
# Convention : Reuss Voigt Hill
#
# Bulk Modulus (GPa) = 29.10705 29.60569 29.35637
# Shear Modulus (GPa) = 18.52672 27.47726 23.00199
#
# Velocity S-wave (km/s) = 3.02722 3.68665 3.37309
# Velocity P-wave (km/s) = 5.15910 5.72416 5.44896
#
# Compressibility (1/GPa) = 0.03435594
#
# Stress axis : x y z
#
# Youngs Moduli (GPa) = 66.28040 70.62532 71.45638
#
# Poissons Ratio (x) = 0.13904 0.24635
# Poissons Ratio (y) = 0.13048 -0.06956
# Poissons Ratio (z) = 0.22850 -0.06876
#
# Static dielectric constant tensor:
#      x y z
#    x 1.904150 0.000000 -0.011920 
#    y 0.000000 1.698700 0.000000 
#    z -0.011920 0.000000 1.782190 
# 
# From -- ./inp_files/124143.got.cif
#   From: 2010.05.17/outbox.cif.g08.bks.cpg/sg15_63_cif.got.tgz:124143.got - 2010.06.03 18:47:42.
