data_PCOD9270091
_publ_section_title
;
Structure prediction by ZEFSAII (Michael W. Deem and Ramdas Pophale) SiO2 
 PCOD9270091
Probable space group: C 2/C
;
_chemical_formula_sum "Si O2"
_cell_formula_units_Z 60
_cell_length_a 8.121072
_cell_length_b 19.056784
_cell_length_c 18.643287
_cell_angle_alpha 90.000000
_cell_angle_beta 123.130489
_cell_angle_gamma 90.000000
_cell_volume 2416.200305
_symmetry_space_group_name_H-M "C 2/C"
_symmetry_group_IT_number 15
_symmetry_cell_setting 'monoclinic'
loop_
_space_group_symop_operation_xyz
x,y,z
-x,y,1/2-z
-x,-y,-z
x,-y,1/2+z
1/2+x,1/2+y,z
1/2-x,1/2+y,1/2-z
1/2-x,1/2-y,-z
1/2+x,1/2-y,1/2+z
loop_
_atom_site_type_symbol
_atom_site_label
_atom_site_fract_x
_atom_site_fract_y
_atom_site_fract_z
Si Si1 0.729814 0.393440 0.234846
Si Si2 0.250000 0.250000 0.000000
Si Si3 0.759756 0.109934 0.602007
Si Si4 0.772129 0.815996 0.557259
Si Si5 0.235755 0.020529 0.139176
Si Si6 0.241846 0.178729 0.154826
Si Si7 0.274381 0.257018 0.702166
Si Si8 0.755452 0.972286 0.516607
O O1 0.814672 0.377643 0.334166
O O2 0.493648 0.395217 0.173714
O O3 0.790278 0.467233 0.215532
O O4 0.777629 0.326498 0.197181
O O5 0.239203 0.329331 0.038082
O O6 0.265808 0.215117 0.084317
O O7 0.694265 0.034412 0.555863
O O8 0.750000 0.750000 0.500000
O O9 0.675730 0.790137 0.608892
O O10 0.006722 0.824676 0.612921
O O11 0.692927 0.892586 0.518921
O O12 0.309519 0.098850 0.168051
O O13 0.300174 0.991223 0.077651
O O14 0.995929 0.025125 0.078047
O O15 0.314531 0.219367 0.243518
O O16 0.500000 0.280845 0.750000
#
# Coordination Sequence:
#
# PCOD9270091 Si02
#       8
#     8   4   8   8   8   8   8   8
#     4  10  20  35  55  82 106 140 185 227 278 319
#     4  12  20  36  56  78 114 144 182 222 272 336
#     4  10  21  33  56  83 109 140 178 238 272 323
#     4  10  21  34  57  80 109 143 180 224 268 326
#     4   9  17  30  54  74 106 131 174 229 269 312
#     4  10  21  35  53  83 107 144 179 224 277 317
#     4  10  21  36  52  77 111 143 178 216 268 331
#     4   9  17  31  49  82 104 130 175 224 275 307
#
# _framework density 24.832377000000001
#
# number of rings (size 3 to 8) (size 9 to 14) (size 15 to 20)
#    0.000    2.133    2.667    0.800    5.600    0.000 
#    0.000    0.000    0.000    4.000    0.000    0.000 
#    0.000    0.000    0.000    0.000    0.000    0.000 
#
# Total GULP energy -167349.013849 kJ/mol
# GULP energy per Si atom -5578.300462 kJ/mol
# Density = 2.477586 g / cm^3
# Si number density = 24.832377 Si / 1000 Ang^3
#
#
#
# Elastic Constant Matrix: (Units=GPa)
#
#
# Indices 1 2 3 4 5 6 
#
# 1 65.5721 12.3067 28.3605 0.0000 -2.7200 0.0000
# 2 12.3067 231.9969 99.1703 0.0000 -30.4755 0.0000
# 3 28.3605 99.1703 173.0867 0.0000 -34.6279 0.0000
# 4 0.0000 0.0000 0.0000 21.8679 0.0000 6.4761
# 5 -2.7200 -30.4755 -34.6279 0.0000 36.9451 0.0000
# 6 0.0000 0.0000 0.0000 6.4761 0.0000 -0.6538
#
#
#
# Elastic Compliance Matrix: (Units=1/GPa)
#
#
# Indices 1 2 3 4 5 6 
#
# 1 0.016506 0.000279 -0.003169 0.000000 -0.001525 0.000000
# 2 0.000279 0.005839 -0.002983 0.000000 0.002041 0.000000
# 3 -0.003169 -0.002983 0.009190 0.000000 0.005920 0.000000
# 4 0.000000 0.000000 0.000000 0.011626 0.000000 0.115157
# 5 -0.001525 0.002041 0.005920 0.000000 0.034187 0.000000
# 6 0.000000 0.000000 0.000000 0.115157 0.000000 -0.388850
#
#
# Mechanical properties :
#
#
# Convention : Reuss Voigt Hill
#
# Bulk Modulus (GPa) = 50.53578 83.37008 66.95293
# Shear Modulus (GPa) = -17.05549 33.68639 8.31545
#
# Velocity S-wave (km/s) = -2.62358 3.68713 1.83191
# Velocity P-wave (km/s) = 3.34924 7.19532 5.61204
#
# Compressibility (1/GPa) = 0.01978796
#
# Stress axis : x y z
#
# Youngs Moduli (GPa) = 60.58563 171.27059 108.81384
#
# Poissons Ratio (x) = -0.04776 0.34488
# Poissons Ratio (y) = -0.01690 0.32455
# Poissons Ratio (z) = 0.19202 0.51083
#
# Static dielectric constant tensor:
#      x y z
#    x 2.233710 0.000000 0.096900 
#    y 0.000000 2.088790 0.000000 
#    z 0.096900 0.000000 1.962490 
# 
# From -- ./inp_files/197913.got.cif
#   From: 2010.05.17/outbox.cif.g08.bks.cpg/sg15_99_cif.got.tgz:197913.got - 2010.06.03 18:47:42.
