data_PCOD9270029
_publ_section_title
;
Structure prediction by ZEFSAII (Michael W. Deem and Ramdas Pophale) SiO2 
 PCOD9270029
Probable space group: C 2/C
;
_chemical_formula_sum "Si O2"
_cell_formula_units_Z 64
_cell_length_a 10.744839
_cell_length_b 28.190566
_cell_length_c 16.370836
_cell_angle_alpha 90.000000
_cell_angle_beta 35.918704
_cell_angle_gamma 90.000000
_cell_volume 2909.000793
_symmetry_space_group_name_H-M "C 2/C"
_symmetry_group_IT_number 15
_symmetry_cell_setting 'monoclinic'
loop_
_space_group_symop_operation_xyz
x,y,z
-x,y,1/2-z
-x,-y,-z
x,-y,1/2+z
1/2+x,1/2+y,z
1/2-x,1/2+y,1/2-z
1/2-x,1/2-y,-z
1/2+x,1/2-y,1/2+z
loop_
_atom_site_type_symbol
_atom_site_label
_atom_site_fract_x
_atom_site_fract_y
_atom_site_fract_z
Si Si1 0.852006 0.713926 0.539928
Si Si2 0.876475 0.099052 0.238403
Si Si3 0.214185 0.902873 0.314336
Si Si4 0.060073 0.645782 0.303812
Si Si5 0.579147 0.298279 0.339521
Si Si6 0.641304 0.469825 0.490019
Si Si7 0.461286 0.055107 0.539795
Si Si8 0.739484 0.436848 0.004461
O O1 0.633916 0.703648 0.604292
O O2 0.770425 0.714076 0.675823
O O3 0.996105 0.674521 0.418886
O O4 0.994471 0.760704 0.450379
O O5 0.797429 0.128538 0.200319
O O6 0.662710 0.080442 0.393620
O O7 0.000000 0.121777 0.250000
O O8 0.003894 0.053816 0.135156
O O9 0.159389 0.847364 0.336240
O O10 0.240196 0.925887 0.389208
O O11 0.402383 0.923201 0.157957
O O12 0.995857 0.925081 0.396264
O O13 0.000000 0.672442 0.250000
O O14 0.903790 0.600641 0.380502
O O15 0.500000 0.500000 0.500000
O O16 0.792508 0.509961 0.447009
O O17 0.261929 0.067816 0.588824
O O18 0.500000 0.000000 0.500000
#
# Coordination Sequence:
#
# PCOD9270029 Si02
#       8
#     8   8   8   8   8   8   8   8
#     4  10  22  35  59  92 132 162 204 260 344 409
#     4  11  24  41  57  84 124 169 216 261 320 388
#     4  11  21  37  60  91 127 164 212 269 331 388
#     4  11  22  37  63  94 125 166 215 272 328 391
#     4  10  21  36  57  93 135 166 197 266 345 408
#     4  10  21  36  56  82 118 166 212 263 314 374
#     4  11  22  35  57  82 113 165 215 263 315 379
#     4  10  20  35  54  81 121 163 207 262 321 383
#
# _framework density 22.000682000000001
#
# number of rings (size 3 to 8) (size 9 to 14) (size 15 to 20)
#    0.000    1.500    1.250    5.625    5.250    1.000 
#    0.000    4.375    0.000    0.000    0.000    9.625 
#    0.000    0.000    0.000    0.000    0.000    0.000 
#
# Total GULP energy -178317.350406 kJ/mol
# GULP energy per Si atom -5572.417200 kJ/mol
# Density = 2.195061 g / cm^3
# Si number density = 22.000682 Si / 1000 Ang^3
#
#
#
# Elastic Constant Matrix: (Units=GPa)
#
#
# Indices 1 2 3 4 5 6 
#
# 1 81.4641 4.8280 12.0781 0.0000 11.5855 0.0000
# 2 4.8280 125.9271 61.4892 0.0000 19.7594 0.0000
# 3 12.0781 61.4892 102.2183 0.0000 25.2967 0.0000
# 4 0.0000 0.0000 0.0000 32.4524 0.0000 3.9348
# 5 11.5855 19.7594 25.2967 0.0000 18.1214 0.0000
# 6 0.0000 0.0000 0.0000 3.9348 0.0000 22.4454
#
#
#
# Elastic Compliance Matrix: (Units=1/GPa)
#
#
# Indices 1 2 3 4 5 6 
#
# 1 0.013618 0.000895 0.000380 0.000000 -0.010213 0.000000
# 2 0.000895 0.011527 -0.005787 0.000000 -0.005063 0.000000
# 3 0.000380 -0.005787 0.017902 0.000000 -0.018924 0.000000
# 4 0.000000 0.000000 0.000000 0.031484 0.000000 -0.005519
# 5 -0.010213 -0.005063 -0.018924 0.000000 0.093650 0.000000
# 6 0.000000 0.000000 0.000000 -0.005519 0.000000 0.045520
#
#
# Mechanical properties :
#
#
# Convention : Reuss Voigt Hill
#
# Bulk Modulus (GPa) = 29.39121 51.82224 40.60673
# Shear Modulus (GPa) = 21.36144 30.01812 25.68978
#
# Velocity S-wave (km/s) = 3.11938 3.69781 3.42084
# Velocity P-wave (km/s) = 5.13442 6.46821 5.83952
#
# Compressibility (1/GPa) = 0.03402377
#
# Stress axis : x y z
#
# Youngs Moduli (GPa) = 73.43008 86.75425 55.85848
#
# Poissons Ratio (x) = -0.07763 -0.02123
# Poissons Ratio (y) = -0.06571 0.32324
# Poissons Ratio (z) = -0.02791 0.50203
#
# Static dielectric constant tensor:
#      x y z
#    x 2.013950 0.000000 0.173240 
#    y 0.000000 1.882690 0.000000 
#    z 0.173240 0.000000 2.023120 
# 
# From -- ./inp_files/201461.got.cif
#   From: 2010.05.17/outbox.cif.g08.bks.cpg/sg15_101_cif.got.tgz:201461.got - 2010.06.03 18:47:42.
