data_PCOD9270385
_publ_section_title
;
Structure prediction by ZEFSAII (Michael W. Deem and Ramdas Pophale) SiO2 
 PCOD9270385
Probable space group: C 2/C
;
_chemical_formula_sum "Si O2"
_cell_formula_units_Z 60
_cell_length_a 29.375040
_cell_length_b 20.911265
_cell_length_c 14.990723
_cell_angle_alpha 90.000000
_cell_angle_beta 159.569374
_cell_angle_gamma 90.000000
_cell_volume 3214.382887
_symmetry_space_group_name_H-M "C 2/C"
_symmetry_group_IT_number 15
_symmetry_cell_setting 'monoclinic'
loop_
_space_group_symop_operation_xyz
x,y,z
-x,y,1/2-z
-x,-y,-z
x,-y,1/2+z
1/2+x,1/2+y,z
1/2-x,1/2+y,1/2-z
1/2-x,1/2-y,-z
1/2+x,1/2-y,1/2+z
loop_
_atom_site_type_symbol
_atom_site_label
_atom_site_fract_x
_atom_site_fract_y
_atom_site_fract_z
Si Si1 0.015734 0.838123 0.477030
Si Si2 0.873892 0.289071 0.262794
Si Si3 0.801277 0.389920 0.992480
Si Si4 0.712695 0.890751 0.734538
Si Si5 0.499429 0.994640 0.392164
Si Si6 0.500000 0.629993 0.750000
Si Si7 0.266881 0.825348 0.542922
Si Si8 0.014045 0.359553 0.877098
O O1 0.027235 0.769572 0.545358
O O2 0.013434 0.829426 0.365145
O O3 0.869931 0.861430 0.230917
O O4 0.147462 0.879797 0.735553
O O5 0.886639 0.345813 0.215116
O O6 0.874715 0.323508 0.360796
O O7 0.750000 0.250000 0.000000
O O8 0.863426 0.460497 0.113744
O O9 0.816263 0.366298 0.918303
O O10 0.615063 0.947931 0.574763
O O11 0.866330 0.909505 0.013156
O O12 0.702383 0.841838 0.797614
O O13 0.500000 0.000000 0.500000
O O14 0.527914 0.064075 0.404838
O O15 0.250000 0.750000 0.500000
O O16 0.382933 0.847158 0.692758
O O17 0.000000 0.336924 0.750000
#
# Coordination Sequence:
#
# PCOD9270385 Si02
#       8
#     8   8   8   8   8   4   8   8
#     4   9  19  34  57  87 122 153 199 249 300 361
#     4  10  20  35  58  86 122 158 194 247 307 368
#     4  10  20  37  61  87 117 157 203 251 306 364
#     4  10  20  37  63  87 120 157 206 254 302 364
#     4  12  22  40  63  88 121 161 211 257 307 370
#     4   8  18  34  60  90 116 156 202 250 298 362
#     4  11  21  37  60  90 125 157 206 252 304 376
#     4  12  25  39  63  90 123 164 207 259 311 365
#
# _framework density 18.666101999999999
#
# number of rings (size 3 to 8) (size 9 to 14) (size 15 to 20)
#    0.000    1.600    4.000    1.200    0.933    2.133 
#    0.000    0.667    5.867    2.400    0.000    0.000 
#    0.000    0.000    0.000    0.000    0.000    0.000 
#
# Total GULP energy -167040.359500 kJ/mol
# GULP energy per Si atom -5568.011983 kJ/mol
# Density = 1.862362 g / cm^3
# Si number density = 18.666102 Si / 1000 Ang^3
#
#
#
# Elastic Constant Matrix: (Units=GPa)
#
#
# Indices 1 2 3 4 5 6 
#
# 1 97.8507 9.6527 38.6750 0.0000 -14.5051 0.0000
# 2 9.6527 68.7366 28.2454 0.0000 -4.6765 0.0000
# 3 38.6750 28.2454 114.6669 0.0000 -4.4946 0.0000
# 4 0.0000 0.0000 0.0000 24.8899 0.0000 -10.8609
# 5 -14.5051 -4.6765 -4.4946 0.0000 40.1105 0.0000
# 6 0.0000 0.0000 0.0000 -10.8609 0.0000 9.5224
#
#
#
# Elastic Compliance Matrix: (Units=1/GPa)
#
#
# Indices 1 2 3 4 5 6 
#
# 1 0.012412 0.000209 -0.004079 0.000000 0.004056 0.000000
# 2 0.000209 0.016274 -0.004020 0.000000 0.001523 0.000000
# 3 -0.004079 -0.004020 0.011059 0.000000 -0.000704 0.000000
# 4 0.000000 0.000000 0.000000 0.079984 0.000000 0.091227
# 5 0.004056 0.001523 -0.000704 0.000000 0.026497 0.000000
# 6 0.000000 0.000000 0.000000 0.091227 0.000000 0.209067
#
#
# Mechanical properties :
#
#
# Convention : Reuss Voigt Hill
#
# Bulk Modulus (GPa) = 41.72436 48.26671 44.99553
# Shear Modulus (GPa) = 13.19046 28.54995 20.87021
#
# Velocity S-wave (km/s) = 2.66118 3.91514 3.34740
# Velocity P-wave (km/s) = 5.64305 6.80822 6.25283
#
# Compressibility (1/GPa) = 0.02396682
#
# Stress axis : x y z
#
# Youngs Moduli (GPa) = 80.56398 61.44668 90.42247
#
# Poissons Ratio (x) = -0.01284 0.36883
# Poissons Ratio (y) = -0.01684 0.36346
# Poissons Ratio (z) = 0.32862 0.24699
#
# Static dielectric constant tensor:
#      x y z
#    x 1.650700 0.000000 0.000050 
#    y 0.000000 1.654210 0.000000 
#    z 0.000050 0.000000 1.729820 
# 
# From -- ./inp_files/183075.got.cif
#   From: 2010.05.17/outbox.cif.g08.bks.cpg/sg15_92_cif.got.tgz:183075.got - 2010.06.03 18:47:42.
