data_PCOD9270538
_publ_section_title
;
Structure prediction by ZEFSAII (Michael W. Deem and Ramdas Pophale) SiO2 
 PCOD9270538
Probable space group: C 2/C
;
_chemical_formula_sum "Si O2"
_cell_formula_units_Z 40
_cell_length_a 18.595716
_cell_length_b 5.092854
_cell_length_c 17.223827
_cell_angle_alpha 90.000000
_cell_angle_beta 83.845573
_cell_angle_gamma 90.000000
_cell_volume 1621.785866
_symmetry_space_group_name_H-M "C 2/C"
_symmetry_group_IT_number 15
_symmetry_cell_setting 'monoclinic'
loop_
_space_group_symop_operation_xyz
x,y,z
-x,y,1/2-z
-x,-y,-z
x,-y,1/2+z
1/2+x,1/2+y,z
1/2-x,1/2+y,1/2-z
1/2-x,1/2-y,-z
1/2+x,1/2-y,1/2+z
loop_
_atom_site_type_symbol
_atom_site_label
_atom_site_fract_x
_atom_site_fract_y
_atom_site_fract_z
Si Si1 0.190751 0.986499 0.094486
Si Si2 0.131029 0.216241 0.749439
Si Si3 0.243858 0.491099 0.154006
Si Si4 0.453748 0.257413 0.098351
Si Si5 0.407509 0.227063 0.516168
O O1 0.130557 0.954530 0.170736
O O2 0.250393 0.781040 0.118611
O O3 0.157487 0.868813 0.021015
O O4 0.222071 0.276109 0.093205
O O5 0.173134 0.478160 0.717312
O O6 0.188225 0.086875 0.802965
O O7 0.060826 0.260194 0.808781
O O8 0.532610 0.179271 0.058347
O O9 0.438947 0.552870 0.070765
O O10 0.400923 0.049184 0.060857
#
# Coordination Sequence:
#
# PCOD9270538 Si02
#       5
#     8   8   8   8   8
#     4  10  20  36  61  81 120 142 187 241 275 326
#     4  10  21  37  63  82 114 150 195 222 292 331
#     4  10  20  35  60  84 114 146 183 242 274 335
#     4  10  23  38  63  79 116 158 185 232 286 344
#     4  10  22  42  55  86 118 148 192 234 284 331
#
# _framework density 24.664169000000001
#
# number of rings (size 3 to 8) (size 9 to 14) (size 15 to 20)
#    1.200    0.800    2.000    1.200    2.800    0.800 
#    0.000    6.000    4.400    0.000    0.000    0.000 
#    0.000    0.000    0.000    0.000    0.000    0.000 
#
# Total GULP energy -111715.319247 kJ/mol
# GULP energy per Si atom -5585.765962 kJ/mol
# Density = 2.460803 g / cm^3
# Si number density = 24.664169 Si / 1000 Ang^3
#
#
#
# Elastic Constant Matrix: (Units=GPa)
#
#
# Indices 1 2 3 4 5 6 
#
# 1 27.2129 12.8838 36.7697 0.0000 -5.2888 0.0000
# 2 12.8838 78.1806 -38.0757 0.0000 -19.5464 0.0000
# 3 36.7697 -38.0757 65.6389 0.0000 -54.9521 0.0000
# 4 0.0000 0.0000 0.0000 15.0941 0.0000 -0.6666
# 5 -5.2888 -19.5464 -54.9521 0.0000 45.5304 0.0000
# 6 0.0000 0.0000 0.0000 -0.6666 0.0000 22.9682
#
#
#
# Elastic Compliance Matrix: (Units=1/GPa)
#
#
# Indices 1 2 3 4 5 6 
#
# 1 0.018642 0.009037 0.013435 0.000000 0.022260 0.000000
# 2 0.009037 0.004558 -0.009502 0.000000 -0.008462 0.000000
# 3 0.013435 -0.009502 -0.008441 0.000000 -0.012707 0.000000
# 4 0.000000 0.000000 0.000000 0.066336 0.000000 0.001925
# 5 0.022260 -0.008462 -0.012707 0.000000 0.005580 0.000000
# 6 0.000000 0.000000 0.000000 0.001925 0.000000 0.043594
#
#
# Mechanical properties :
#
#
# Convention : Reuss Voigt Hill
#
# Bulk Modulus (GPa) = 24.57140 21.57644 23.07392
# Shear Modulus (GPa) = 42.41044 27.34883 34.87963
#
# Velocity S-wave (km/s) = 4.15120 3.33355 3.76464
# Velocity P-wave (km/s) = 5.74114 4.85632 5.31717
#
# Compressibility (1/GPa) = 0.04069773
#
# Stress axis : x y z
#
# Youngs Moduli (GPa) = 53.64324 219.38054 -118.46254
#
# Poissons Ratio (x) = -1.98245 1.59157
# Poissons Ratio (y) = -0.48475 -1.12566
# Poissons Ratio (z) = -0.72071 2.08460
#
# Static dielectric constant tensor:
#      x y z
#    x 2.066390 0.000000 -0.101210 
#    y 0.000000 1.883270 0.000000 
#    z -0.101210 0.000000 2.003790 
# 
# From -- ./inp_files/170504.got.cif
#   From: 2010.05.17/outbox.cif.g08.bks.cpg/sg15_86_cif.got.tgz:170504.got - 2010.06.03 18:47:42.
