data_PCOD9270071
_publ_section_title
;
Structure prediction by ZEFSAII (Michael W. Deem and Ramdas Pophale) SiO2 
 PCOD9270071
Probable space group: C 2/C
;
_chemical_formula_sum "Si O2"
_cell_formula_units_Z 60
_cell_length_a 30.082697
_cell_length_b 17.660815
_cell_length_c 11.321255
_cell_angle_alpha 90.000000
_cell_angle_beta 146.814077
_cell_angle_gamma 90.000000
_cell_volume 3292.253390
_symmetry_space_group_name_H-M "C 2/C"
_symmetry_group_IT_number 15
_symmetry_cell_setting 'monoclinic'
loop_
_space_group_symop_operation_xyz
x,y,z
-x,y,1/2-z
-x,-y,-z
x,-y,1/2+z
1/2+x,1/2+y,z
1/2-x,1/2+y,1/2-z
1/2-x,1/2-y,-z
1/2+x,1/2-y,1/2+z
loop_
_atom_site_type_symbol
_atom_site_label
_atom_site_fract_x
_atom_site_fract_y
_atom_site_fract_z
Si Si1 0.188852 0.878001 0.809467
Si Si2 0.194311 0.842917 0.460958
Si Si3 0.801283 0.010239 0.381458
Si Si4 0.712922 0.138715 0.754095
Si Si5 0.052801 0.938369 0.687709
Si Si6 0.825199 0.771714 0.330722
Si Si7 0.404629 0.260773 0.063262
Si Si8 0.000000 0.817055 0.750000
O O1 0.210394 0.942845 0.763416
O O2 0.119278 0.906540 0.744160
O O3 0.148484 0.809628 0.647672
O O4 0.266789 0.858409 0.062054
O O5 0.195549 0.928981 0.505043
O O6 0.186363 0.828936 0.305028
O O7 0.278217 0.803875 0.689637
O O8 0.123527 0.796918 0.374022
O O9 0.735281 0.945337 0.258599
O O10 0.891676 0.974723 0.585286
O O11 0.779428 0.192528 0.839611
O O12 0.628086 0.175215 0.525606
O O13 0.004350 0.871411 0.644281
O O14 0.000000 0.000000 0.500000
O O15 0.919515 0.767190 0.566445
O O16 0.500000 0.268617 0.250000
#
# Coordination Sequence:
#
# PCOD9270071 Si02
#       8
#     8   8   8   8   8   8   8   4
#     4  10  21  35  53  82 112 147 178 219 273 336
#     4   9  21  37  56  77 108 142 186 220 273 325
#     4  10  20  35  55  78 108 145 179 219 275 326
#     4  10  21  38  56  82 111 146 183 224 276 330
#     4  11  22  30  50  82 120 144 170 220 272 327
#     4  10  20  36  54  80 108 147 179 223 266 325
#     4  10  22  37  59  82 108 145 185 231 273 322
#     4  12  20  32  52  80 114 140 180 214 262 328
#
# _framework density 18.224599000000001
#
# number of rings (size 3 to 8) (size 9 to 14) (size 15 to 20)
#    0.000    1.867    2.667    2.000    9.333    0.000 
#    0.000    0.000    1.467    0.800    0.000    0.000 
#    0.000    0.000    0.000    0.000    0.000    0.000 
#
# Total GULP energy -167438.812096 kJ/mol
# GULP energy per Si atom -5581.293737 kJ/mol
# Density = 1.818312 g / cm^3
# Si number density = 18.224599 Si / 1000 Ang^3
#
#
#
# Elastic Constant Matrix: (Units=GPa)
#
#
# Indices 1 2 3 4 5 6 
#
# 1 46.5744 4.6292 20.1848 0.0000 -3.7857 0.0000
# 2 4.6292 62.6531 25.8663 0.0000 6.8566 0.0000
# 3 20.1848 25.8663 65.2285 0.0000 7.9957 0.0000
# 4 0.0000 0.0000 0.0000 22.6727 0.0000 -0.3951
# 5 -3.7857 6.8566 7.9957 0.0000 30.0444 0.0000
# 6 0.0000 0.0000 0.0000 -0.3951 0.0000 24.4739
#
#
#
# Elastic Compliance Matrix: (Units=1/GPa)
#
#
# Indices 1 2 3 4 5 6 
#
# 1 0.025739 0.001279 -0.009132 0.000000 0.005381 0.000000
# 2 0.001279 0.019321 -0.007791 0.000000 -0.002175 0.000000
# 3 -0.009132 -0.007791 0.021883 0.000000 -0.005196 0.000000
# 4 0.000000 0.000000 0.000000 0.044118 0.000000 0.000712
# 5 0.005381 -0.002175 -0.005196 0.000000 0.035841 0.000000
# 6 0.000000 0.000000 0.000000 0.000712 0.000000 0.040871
#
#
# Mechanical properties :
#
#
# Convention : Reuss Voigt Hill
#
# Bulk Modulus (GPa) = 28.04584 30.64630 29.34607
# Shear Modulus (GPa) = 21.65007 23.68991 22.66999
#
# Velocity S-wave (km/s) = 3.45042 3.60931 3.53076
# Velocity P-wave (km/s) = 5.59430 5.84994 5.72355
#
# Compressibility (1/GPa) = 0.03565591
#
# Stress axis : x y z
#
# Youngs Moduli (GPa) = 38.85169 51.75741 45.69747
#
# Poissons Ratio (x) = -0.06622 0.41730
# Poissons Ratio (y) = -0.04971 0.35603
# Poissons Ratio (z) = 0.35479 0.40324
#
# Static dielectric constant tensor:
#      x y z
#    x 1.641100 0.000000 -0.024800 
#    y 0.000000 1.650230 0.000000 
#    z -0.024800 0.000000 1.641270 
# 
# From -- ./inp_files/98360.got.cif
#   From: 2010.05.17/outbox.cif.g08.bks.cpg/sg15_50_cif.got.tgz:98360.got - 2010.06.03 18:47:42.
