data_PCOD9270312
_publ_section_title
;
Structure prediction by ZEFSAII (Michael W. Deem and Ramdas Pophale) SiO2 
 PCOD9270312
Probable space group: C 2/C
;
_chemical_formula_sum "Si O2"
_cell_formula_units_Z 44
_cell_length_a 19.924651
_cell_length_b 8.597604
_cell_length_c 15.367456
_cell_angle_alpha 90.000000
_cell_angle_beta 135.611574
_cell_angle_gamma 90.000000
_cell_volume 1841.491227
_symmetry_space_group_name_H-M "C 2/C"
_symmetry_group_IT_number 15
_symmetry_cell_setting 'monoclinic'
loop_
_space_group_symop_operation_xyz
x,y,z
-x,y,1/2-z
-x,-y,-z
x,-y,1/2+z
1/2+x,1/2+y,z
1/2-x,1/2+y,1/2-z
1/2-x,1/2-y,-z
1/2+x,1/2-y,1/2+z
loop_
_atom_site_type_symbol
_atom_site_label
_atom_site_fract_x
_atom_site_fract_y
_atom_site_fract_z
Si Si1 0.504504 0.656611 0.882556
Si Si2 0.375444 0.554044 0.916028
Si Si3 0.665395 0.203419 0.355422
Si Si4 0.000000 0.540688 0.750000
Si Si5 0.238632 0.333261 0.724656
Si Si6 0.569529 0.003832 0.482618
O O1 0.450890 0.645898 0.926770
O O2 0.417767 0.665261 0.733687
O O3 0.560086 0.821074 0.935980
O O4 0.577707 0.514451 0.954245
O O5 0.343142 0.405509 0.828274
O O6 0.284596 0.667741 0.840204
O O7 0.750000 0.250000 0.500000
O O8 0.598361 0.054295 0.315075
O O9 0.707689 0.179143 0.297640
O O10 0.967828 0.610565 0.628221
O O11 0.173077 0.454623 0.611132
O O12 0.500000 0.000000 0.500000
#
# Coordination Sequence:
#
# PCOD9270312 Si02
#       6
#     8   8   8   4   8   8
#     4   9  20  37  59  89 120 162 205 256 306 374
#     4  10  20  35  57  92 118 156 210 251 314 369
#     4  10  22  36  58  94 120 160 214 255 304 366
#     4  10  22  36  64  86 126 164 206 264 304 368
#     4  11  22  37  64  92 121 165 206 262 311 381
#     4  11  19  40  62  90 120 161 211 248 315 374
#
# _framework density 23.893678999999999
#
# number of rings (size 3 to 8) (size 9 to 14) (size 15 to 20)
#    0.000    1.818    5.455    1.091   10.182    0.000 
#    0.000    0.000    4.000    1.091    0.000    0.000 
#    0.000    0.000    0.000    0.000    0.000    0.000 
#
# Total GULP energy -122692.243769 kJ/mol
# GULP energy per Si atom -5576.920171 kJ/mol
# Density = 2.383930 g / cm^3
# Si number density = 23.893679 Si / 1000 Ang^3
#
#
#
# Elastic Constant Matrix: (Units=GPa)
#
#
# Indices 1 2 3 4 5 6 
#
# 1 44.9668 -3.9323 20.5954 0.0000 -10.2986 0.0000
# 2 -3.9323 79.4401 46.8543 0.0000 13.0705 0.0000
# 3 20.5954 46.8543 230.4960 0.0000 5.7873 0.0000
# 4 0.0000 0.0000 0.0000 44.5608 0.0000 6.4648
# 5 -10.2986 13.0705 5.7873 0.0000 39.4193 0.0000
# 6 0.0000 0.0000 0.0000 6.4648 0.0000 23.6008
#
#
#
# Elastic Compliance Matrix: (Units=1/GPa)
#
#
# Indices 1 2 3 4 5 6 
#
# 1 0.025129 0.001835 -0.002778 0.000000 0.006364 0.000000
# 2 0.001835 0.015214 -0.003154 0.000000 -0.004102 0.000000
# 3 -0.002778 -0.003154 0.005239 0.000000 -0.000449 0.000000
# 4 0.000000 0.000000 0.000000 0.023370 0.000000 -0.006402
# 5 0.006364 -0.004102 -0.000449 0.000000 0.028457 0.000000
# 6 0.000000 0.000000 0.000000 -0.006402 0.000000 0.044125
#
#
# Mechanical properties :
#
#
# Convention : Reuss Voigt Hill
#
# Bulk Modulus (GPa) = 26.74570 53.54863 40.14716
# Shear Modulus (GPa) = 30.82798 40.94188 35.88493
#
# Velocity S-wave (km/s) = 3.59585 4.14394 3.87959
# Velocity P-wave (km/s) = 5.33462 6.73470 6.07513
#
# Compressibility (1/GPa) = 0.03738919
#
# Stress axis : x y z
#
# Youngs Moduli (GPa) = 39.79431 65.72931 190.87430
#
# Poissons Ratio (x) = -0.12064 0.53030
# Poissons Ratio (y) = -0.07304 0.60195
# Poissons Ratio (z) = 0.11056 0.20729
#
# Static dielectric constant tensor:
#      x y z
#    x 1.983320 0.000000 0.003190 
#    y 0.000000 2.049990 0.000000 
#    z 0.003190 0.000000 1.981270 
# 
# From -- ./inp_files/218725.got.cif
#   From: 2010.05.17/outbox.cif.g08.bks.cpg/sg15_110_cif.got.tgz:218725.got - 2010.06.03 18:47:42.
