data_PCOD9270041
_publ_section_title
;
Structure prediction by ZEFSAII (Michael W. Deem and Ramdas Pophale) SiO2 
 PCOD9270041
Probable space group: C 2/C
;
_chemical_formula_sum "Si O2"
_cell_formula_units_Z 40
_cell_length_a 17.155503
_cell_length_b 5.228496
_cell_length_c 17.094208
_cell_angle_alpha 90.000000
_cell_angle_beta 71.720014
_cell_angle_gamma 90.000000
_cell_volume 1455.929158
_symmetry_space_group_name_H-M "C 2/C"
_symmetry_group_IT_number 15
_symmetry_cell_setting 'monoclinic'
loop_
_space_group_symop_operation_xyz
x,y,z
-x,y,1/2-z
-x,-y,-z
x,-y,1/2+z
1/2+x,1/2+y,z
1/2-x,1/2+y,1/2-z
1/2-x,1/2-y,-z
1/2+x,1/2-y,1/2+z
loop_
_atom_site_type_symbol
_atom_site_label
_atom_site_fract_x
_atom_site_fract_y
_atom_site_fract_z
Si Si1 0.935222 0.706553 0.199804
Si Si2 0.993973 0.796211 0.595528
Si Si3 0.325548 0.136863 0.926807
Si Si4 0.290056 0.720337 0.651910
Si Si5 0.854961 0.279082 0.040309
O O1 0.955382 0.423862 0.162691
O O2 0.000000 0.737553 0.250000
O O3 0.835140 0.758776 0.222211
O O4 0.965354 0.931762 0.134204
O O5 0.090796 0.766680 0.571795
O O6 0.951722 0.744360 0.525539
O O7 0.306259 0.198916 0.842106
O O8 0.250000 0.250000 0.000000
O O9 0.335835 0.845539 0.955732
O O10 0.318018 0.464751 0.596180
O O11 0.323190 0.974884 0.598657
#
# Coordination Sequence:
#
# PCOD9270041 Si02
#       5
#     8   8   8   8   8
#     4  10  21  40  58  75 103 142 186 232 264 300
#     4  10  21  35  57  83 105 140 184 214 264 330
#     4  10  20  35  54  83 117 143 167 215 270 325
#     4   9  19  33  53  78 105 139 179 215 262 316
#     4   9  18  33  52  77 109 142 172 210 260 321
#
# _framework density 27.473862
#
# number of rings (size 3 to 8) (size 9 to 14) (size 15 to 20)
#    0.000    2.400    0.000    1.800    0.000    6.400 
#    0.000   14.000    0.000    0.000    0.000    0.000 
#    0.000    0.000    0.000    0.000    0.000    0.000 
#
# Total GULP energy -111640.305441 kJ/mol
# GULP energy per Si atom -5582.015272 kJ/mol
# Density = 2.741133 g / cm^3
# Si number density = 27.473862 Si / 1000 Ang^3
#
#
#
# Elastic Constant Matrix: (Units=GPa)
#
#
# Indices 1 2 3 4 5 6 
#
# 1 176.5987 -19.2532 47.2736 -0.0003 60.8802 -0.0003
# 2 -19.2532 135.2255 33.8240 0.0004 -13.5827 0.0000
# 3 47.2736 33.8240 77.6091 0.0003 47.7196 0.0004
# 4 -0.0003 0.0004 0.0003 37.9505 0.0001 5.9278
# 5 60.8802 -13.5827 47.7196 0.0001 62.4931 0.0000
# 6 -0.0003 0.0000 0.0004 5.9278 0.0000 29.9862
#
#
#
# Elastic Compliance Matrix: (Units=1/GPa)
#
#
# Indices 1 2 3 4 5 6 
#
# 1 0.008568 0.000693 -0.000908 0.000000 -0.007503 0.000000
# 2 0.000693 0.011844 -0.012728 0.000000 0.011618 0.000000
# 3 -0.000908 -0.012728 0.037970 0.000000 -0.030876 0.000000
# 4 0.000000 0.000000 0.000000 0.027190 0.000000 -0.005375
# 5 -0.007503 0.011618 -0.030876 0.000000 0.049413 0.000000
# 6 0.000000 0.000000 0.000000 -0.005375 0.000000 0.034411
#
#
# Mechanical properties :
#
#
# Convention : Reuss Voigt Hill
#
# Bulk Modulus (GPa) = 30.77211 57.01356 43.89283
# Shear Modulus (GPa) = 24.25864 47.92522 36.09193
#
# Velocity S-wave (km/s) = 2.97471 4.18112 3.62841
# Velocity P-wave (km/s) = 4.79826 6.64124 5.79350
#
# Compressibility (1/GPa) = 0.03249696
#
# Stress axis : x y z
#
# Youngs Moduli (GPa) = 116.71930 84.42830 26.33675
#
# Poissons Ratio (x) = -0.05853 0.02391
# Poissons Ratio (y) = -0.08092 0.33521
# Poissons Ratio (z) = 0.10595 1.07460
#
# Static dielectric constant tensor:
#      x y z
#    x 2.400320 0.000000 0.120630 
#    y 0.000000 2.142430 0.000000 
#    z 0.120630 0.000000 2.243960 
# 
# From -- ./inp_files/208065.got.cif
#   From: 2010.05.17/outbox.cif.g08.bks.cpg/sg15_105_cif.got.tgz:208065.got - 2010.06.03 18:47:42.
