data_PCOD9270959
_publ_section_title
;
Structure prediction by ZEFSAII (Michael W. Deem and Ramdas Pophale) SiO2 
 PCOD9270959
Probable space group: C 2/C
;
_chemical_formula_sum "Si O2"
_cell_formula_units_Z 48
_cell_length_a 9.138841
_cell_length_b 20.401003
_cell_length_c 11.389596
_cell_angle_alpha 90.000000
_cell_angle_beta 90.149191
_cell_angle_gamma 90.000000
_cell_volume 2123.486422
_symmetry_space_group_name_H-M "C 2/C"
_symmetry_group_IT_number 15
_symmetry_cell_setting 'monoclinic'
loop_
_space_group_symop_operation_xyz
x,y,z
-x,y,1/2-z
-x,-y,-z
x,-y,1/2+z
1/2+x,1/2+y,z
1/2-x,1/2+y,1/2-z
1/2-x,1/2-y,-z
1/2+x,1/2-y,1/2+z
loop_
_atom_site_type_symbol
_atom_site_label
_atom_site_fract_x
_atom_site_fract_y
_atom_site_fract_z
Si Si1 0.431703 0.028554 0.877376
Si Si2 0.101746 0.335110 0.658564
Si Si3 0.602146 0.717169 0.945169
Si Si4 0.893288 0.772525 0.647768
Si Si5 0.645800 0.129412 0.916753
Si Si6 0.156700 0.914623 0.293030
O O1 0.500000 0.007484 0.750000
O O2 0.484263 0.105298 0.883826
O O3 0.256873 0.035353 0.867857
O O4 0.500000 0.000000 0.000000
O O5 0.255856 0.308707 0.703423
O O6 0.152716 0.382408 0.554740
O O7 0.000000 0.370622 0.750000
O O8 0.994863 0.275152 0.616110
O O9 0.636144 0.655668 0.860132
O O10 0.750000 0.750000 0.000000
O O11 0.493712 0.693172 0.049827
O O12 0.830645 0.706529 0.591845
O O13 0.000000 0.751049 0.750000
O O14 0.754884 0.096607 0.827700
O O15 0.000000 0.939256 0.250000
#
# Coordination Sequence:
#
# PCOD9270959 Si02
#       6
#     8   8   8   8   8   8
#     4  10  23  43  65  86 111 150 201 256 318 383
#     4  11  21  32  50  81 120 160 196 233 277 337
#     4  11  20  31  51  82 118 158 199 239 288 353
#     4  11  20  32  50  79 119 157 193 233 279 344
#     4  10  20  36  56  79 112 154 194 233 289 359
#     4  11  20  36  62  89 117 157 206 258 304 360
#
# _framework density 22.604336
#
# number of rings (size 3 to 8) (size 9 to 14) (size 15 to 20)
#    0.000    1.333    0.000   11.000    0.000    0.667 
#    0.000    3.333    0.000    1.000    0.000    0.000 
#    0.000    0.000    0.000    0.000    0.000    0.000 
#
# Total GULP energy -133784.063905 kJ/mol
# GULP energy per Si atom -5574.335996 kJ/mol
# Density = 2.255289 g / cm^3
# Si number density = 22.604336 Si / 1000 Ang^3
#
#
#
# Elastic Constant Matrix: (Units=GPa)
#
#
# Indices 1 2 3 4 5 6 
#
# 1 170.3821 25.2054 44.9069 0.0000 8.4910 0.0000
# 2 25.2054 64.4753 20.6830 0.0000 11.6853 0.0000
# 3 44.9069 20.6830 126.9587 0.0000 -14.7500 0.0000
# 4 0.0000 0.0000 0.0000 1.3706 0.0000 12.0780
# 5 8.4910 11.6853 -14.7500 0.0000 50.3707 0.0000
# 6 0.0000 0.0000 0.0000 12.0780 0.0000 8.7914
#
#
#
# Elastic Compliance Matrix: (Units=1/GPa)
#
#
# Indices 1 2 3 4 5 6 
#
# 1 0.006792 -0.001658 -0.002299 0.000000 -0.001433 0.000000
# 2 -0.001658 0.017940 -0.002886 0.000000 -0.004727 0.000000
# 3 -0.002299 -0.002886 0.009609 0.000000 0.003871 0.000000
# 4 0.000000 0.000000 0.000000 -0.065692 0.000000 0.090250
# 5 -0.001433 -0.004727 0.003871 0.000000 0.022325 0.000000
# 6 0.000000 0.000000 0.000000 0.090250 0.000000 -0.010242
#
#
# Mechanical properties :
#
#
# Convention : Reuss Voigt Hill
#
# Bulk Modulus (GPa) = 48.40915 60.37852 54.39384
# Shear Modulus (GPa) = 3838.27533 30.17460 1934.22497
#
# Velocity S-wave (km/s) = 41.25182 3.65760 29.28387
# Velocity P-wave (km/s) = 47.85825 6.67880 34.16884
#
# Compressibility (1/GPa) = 0.02065725
#
# Stress axis : x y z
#
# Youngs Moduli (GPa) = 147.23787 55.74025 104.06396
#
# Poissons Ratio (x) = 0.09241 0.23922
# Poissons Ratio (y) = 0.24410 0.30028
# Poissons Ratio (z) = 0.33847 0.16084
#
# Static dielectric constant tensor:
#      x y z
#    x 1.742980 0.000000 -0.028920 
#    y 0.000000 1.911040 0.000000 
#    z -0.028920 0.000000 1.962840 
# 
# From -- ./inp_files/79298.got.cif
#   From: 2010.05.17/outbox.cif.g08.bks.cpg/sg15_40_cif.got.tgz:79298.got - 2010.06.03 18:47:42.
