data_PCOD9270185
_publ_section_title
;
Structure prediction by ZEFSAII (Michael W. Deem and Ramdas Pophale) SiO2 
 PCOD9270185
Probable space group: C 2/C
;
_chemical_formula_sum "Si O2"
_cell_formula_units_Z 64
_cell_length_a 30.596110
_cell_length_b 19.042478
_cell_length_c 19.657243
_cell_angle_alpha 90.000000
_cell_angle_beta 161.367624
_cell_angle_gamma 90.000000
_cell_volume 3659.115284
_symmetry_space_group_name_H-M "C 2/C"
_symmetry_group_IT_number 15
_symmetry_cell_setting 'monoclinic'
loop_
_space_group_symop_operation_xyz
x,y,z
-x,y,1/2-z
-x,-y,-z
x,-y,1/2+z
1/2+x,1/2+y,z
1/2-x,1/2+y,1/2-z
1/2-x,1/2-y,-z
1/2+x,1/2-y,1/2+z
loop_
_atom_site_type_symbol
_atom_site_label
_atom_site_fract_x
_atom_site_fract_y
_atom_site_fract_z
Si Si1 0.847418 0.452736 0.502162
Si Si2 0.873790 0.053902 0.703303
Si Si3 0.774950 0.312500 0.729096
Si Si4 0.860118 0.792135 0.118723
Si Si5 0.489976 0.118183 0.992826
Si Si6 0.182842 0.040839 0.150812
Si Si7 0.390066 0.189712 0.983365
Si Si8 0.282588 0.002847 0.652295
O O1 0.738203 0.449831 0.402296
O O2 0.788388 0.504465 0.357663
O O3 0.863277 0.374925 0.493974
O O4 0.000000 0.474275 0.750000
O O5 0.884750 0.133310 0.690804
O O6 0.817229 0.007310 0.557820
O O7 0.028259 0.032304 0.949032
O O8 0.698843 0.308177 0.543139
O O9 0.931083 0.329892 0.941282
O O10 0.716984 0.377440 0.687156
O O11 0.742789 0.239007 0.717052
O O12 0.991455 0.741872 0.315317
O O13 0.750000 0.750000 0.000000
O O14 0.604870 0.060317 0.183929
O O15 0.438118 0.157978 0.982832
O O16 0.368261 0.074340 0.779584
O O17 0.203945 0.005928 0.107700
#
# Coordination Sequence:
#
# PCOD9270185 Si02
#       8
#     8   8   8   8   8   8   8   8
#     4  12  26  40  59  90 126 165 203 252 304 369
#     4  12  23  38  60  90 122 162 199 257 311 354
#     4  11  22  33  58  83 125 161 195 240 305 371
#     4  12  20  33  52  87 128 156 186 237 309 382
#     4  10  20  35  56  85 120 164 204 243 286 369
#     4  11  23  41  58  89 124 162 208 249 306 364
#     4  12  22  36  55  91 127 160 189 244 317 378
#     4  10  20  37  63  84 120 158 216 246 293 369
#
# _framework density 17.490566000000001
#
# number of rings (size 3 to 8) (size 9 to 14) (size 15 to 20)
#    0.000    0.750    6.250    4.125    3.500    0.000 
#    0.000    0.000    0.000    0.000    3.250    1.750 
#    0.000    0.000    0.000    0.000    0.000    0.000 
#
# Total GULP energy -178755.111834 kJ/mol
# GULP energy per Si atom -5586.097245 kJ/mol
# Density = 1.745076 g / cm^3
# Si number density = 17.490566 Si / 1000 Ang^3
#
#
#
# Elastic Constant Matrix: (Units=GPa)
#
#
# Indices 1 2 3 4 5 6 
#
# 1 125.9461 44.1198 48.9097 0.0000 19.0587 0.0000
# 2 44.1198 83.2697 52.7000 0.0000 1.5322 0.0000
# 3 48.9097 52.7000 88.8940 0.0000 11.9815 0.0000
# 4 0.0000 0.0000 0.0000 32.1514 0.0000 4.1714
# 5 19.0587 1.5322 11.9815 0.0000 26.8880 0.0000
# 6 0.0000 0.0000 0.0000 4.1714 0.0000 25.3289
#
#
#
# Elastic Compliance Matrix: (Units=1/GPa)
#
#
# Indices 1 2 3 4 5 6 
#
# 1 0.011547 -0.004063 -0.003057 0.000000 -0.006592 0.000000
# 2 -0.004063 0.021115 -0.011180 0.000000 0.006658 0.000000
# 3 -0.003057 -0.011180 0.020407 0.000000 -0.006290 0.000000
# 4 0.000000 0.000000 0.000000 0.031782 0.000000 -0.005234
# 5 -0.006592 0.006658 -0.006290 0.000000 0.044287 0.000000
# 6 0.000000 0.000000 0.000000 -0.005234 0.000000 0.040343
#
#
# Mechanical properties :
#
#
# Convention : Reuss Voigt Hill
#
# Bulk Modulus (GPa) = 60.71309 65.50765 63.11037
# Shear Modulus (GPa) = 23.63298 27.03235 25.33267
#
# Velocity S-wave (km/s) = 3.67983 3.93560 3.80986
# Velocity P-wave (km/s) = 7.26926 7.62800 7.45079
#
# Compressibility (1/GPa) = 0.01647091
#
# Stress axis : x y z
#
# Youngs Moduli (GPa) = 86.59885 47.36023 49.00347
#
# Poissons Ratio (x) = 0.19241 0.14978
# Poissons Ratio (y) = 0.35182 0.54785
# Poissons Ratio (z) = 0.26469 0.52948
#
# Static dielectric constant tensor:
#      x y z
#    x 1.623760 0.000000 0.045670 
#    y 0.000000 1.594940 0.000000 
#    z 0.045670 0.000000 1.612850 
# 
# From -- ./inp_files/225889.got.cif
#   From: 2010.05.17/outbox.cif.g08.bks.cpg/sg15_113_cif.got.tgz:225889.got - 2010.06.03 18:47:42.
