data_PCOD9270705
_publ_section_title
;
Structure prediction by ZEFSAII (Michael W. Deem and Ramdas Pophale) SiO2 
 PCOD9270705
Probable space group: C 2/C
;
_chemical_formula_sum "Si O2"
_cell_formula_units_Z 44
_cell_length_a 24.038662
_cell_length_b 17.470765
_cell_length_c 15.013044
_cell_angle_alpha 90.000000
_cell_angle_beta 162.810577
_cell_angle_gamma 90.000000
_cell_volume 1863.352578
_symmetry_space_group_name_H-M "C 2/C"
_symmetry_group_IT_number 15
_symmetry_cell_setting 'monoclinic'
loop_
_space_group_symop_operation_xyz
x,y,z
-x,y,1/2-z
-x,-y,-z
x,-y,1/2+z
1/2+x,1/2+y,z
1/2-x,1/2+y,1/2-z
1/2-x,1/2-y,-z
1/2+x,1/2-y,1/2+z
loop_
_atom_site_type_symbol
_atom_site_label
_atom_site_fract_x
_atom_site_fract_y
_atom_site_fract_z
Si Si1 0.227763 0.295418 0.374211
Si Si2 0.279845 0.649024 0.627121
Si Si3 0.212698 0.321678 0.833857
Si Si4 0.791065 0.153293 0.259335
Si Si5 0.500000 0.431823 0.750000
Si Si6 0.824732 0.990446 0.300448
O O1 0.250000 0.250000 0.500000
O O2 0.295987 0.234308 0.402981
O O3 0.344878 0.373289 0.552111
O O4 0.009902 0.316469 0.025836
O O5 0.236841 0.628371 0.459273
O O6 0.210212 0.735421 0.532571
O O7 0.221568 0.586686 0.610197
O O8 0.506039 0.655850 0.977253
O O9 0.312586 0.348435 0.897877
O O10 0.709742 0.069456 0.114506
O O11 0.406833 0.477680 0.525311
O O12 0.000000 0.000000 0.500000
#
# Coordination Sequence:
#
# PCOD9270705 Si02
#       6
#     8   8   8   8   4   8
#     4  11  22  40  64  92 123 164 219 262 303 384
#     4   9  19  36  58  91 125 158 202 260 304 379
#     4  10  20  35  62  91 121 157 211 261 304 369
#     4  10  20  36  63  90 120 165 203 255 321 365
#     4  12  24  42  70  88 126 178 214 254 330 384
#     4  10  22  38  64  91 125 165 211 254 313 393
#
# _framework density 23.613351000000002
#
# number of rings (size 3 to 8) (size 9 to 14) (size 15 to 20)
#    0.000    1.818    0.000    6.000    5.091    0.000 
#    0.000    3.636   12.000    0.000    0.000    0.000 
#    0.000    0.000    0.000    0.000    0.000    0.000 
#
# Total GULP energy -122868.943067 kJ/mol
# GULP energy per Si atom -5584.951958 kJ/mol
# Density = 2.355961 g / cm^3
# Si number density = 23.613351 Si / 1000 Ang^3
#
#
#
# Elastic Constant Matrix: (Units=GPa)
#
#
# Indices 1 2 3 4 5 6 
#
# 1 82.3536 20.6726 -4.5788 0.0000 -23.4975 0.0000
# 2 20.6726 103.8588 -0.9681 0.0000 -5.7470 0.0000
# 3 -4.5788 -0.9681 62.8385 0.0000 -9.2302 0.0000
# 4 0.0000 0.0000 0.0000 0.8747 0.0000 -4.6776
# 5 -23.4975 -5.7470 -9.2302 0.0000 33.4311 0.0000
# 6 0.0000 0.0000 0.0000 -4.6776 0.0000 34.4951
#
#
#
# Elastic Compliance Matrix: (Units=1/GPa)
#
#
# Indices 1 2 3 4 5 6 
#
# 1 0.016323 -0.002568 0.002887 -0.000001 0.011828 0.000000
# 2 -0.002568 0.010135 -0.000042 0.000000 -0.000074 0.000000
# 3 0.002887 -0.000042 0.017115 -0.000002 0.006747 0.000000
# 4 -0.000001 0.000000 -0.000002 4.159034 -0.000002 0.563974
# 5 0.011828 -0.000074 0.006747 -0.000002 0.040076 0.000000
# 6 0.000000 0.000000 0.000000 0.563974 0.000000 0.105466
#
#
# Mechanical properties :
#
#
# Convention : Reuss Voigt Hill
#
# Bulk Modulus (GPa) = 22.66120 31.03360 26.84740
# Shear Modulus (GPa) = 1.14618 29.35521 15.25070
#
# Velocity S-wave (km/s) = 0.69746 3.52967 2.54412
# Velocity P-wave (km/s) = 3.20409 5.45733 4.47485
#
# Compressibility (1/GPa) = 0.04412830
#
# Stress axis : x y z
#
# Youngs Moduli (GPa) = 61.26427 98.66770 58.42944
#
# Poissons Ratio (x) = 0.25333 -0.16870
# Poissons Ratio (y) = 0.15730 0.00244
# Poissons Ratio (z) = -0.17689 0.00412
#
# Static dielectric constant tensor:
#      x y z
#    x 1.921790 0.000000 0.051700 
#    y 0.000000 2.005890 0.000000 
#    z 0.051700 0.000000 2.007780 
# 
# From -- ./inp_files/145426.got.cif
#   From: 2010.05.17/outbox.cif.g08.bks.cpg/sg15_73_cif.got.tgz:145426.got - 2010.06.03 18:47:42.
