data_PCOD9270481
_publ_section_title
;
Structure prediction by ZEFSAII (Michael W. Deem and Ramdas Pophale) SiO2 
 PCOD9270481
Probable space group: C 2/C
;
_chemical_formula_sum "Si O2"
_cell_formula_units_Z 52
_cell_length_a 9.346915
_cell_length_b 12.730041
_cell_length_c 22.407357
_cell_angle_alpha 90.000000
_cell_angle_beta 48.542825
_cell_angle_gamma 90.000000
_cell_volume 1998.167285
_symmetry_space_group_name_H-M "C 2/C"
_symmetry_group_IT_number 15
_symmetry_cell_setting 'monoclinic'
loop_
_space_group_symop_operation_xyz
x,y,z
-x,y,1/2-z
-x,-y,-z
x,-y,1/2+z
1/2+x,1/2+y,z
1/2-x,1/2+y,1/2-z
1/2-x,1/2-y,-z
1/2+x,1/2-y,1/2+z
loop_
_atom_site_type_symbol
_atom_site_label
_atom_site_fract_x
_atom_site_fract_y
_atom_site_fract_z
Si Si1 0.162636 0.128254 0.270374
Si Si2 0.000000 0.718534 0.250000
Si Si3 0.896110 0.637722 0.083142
Si Si4 0.687026 0.033913 0.514702
Si Si5 0.478004 0.843484 0.165947
Si Si6 0.883784 0.122633 0.567668
Si Si7 0.549126 0.398893 0.320912
O O1 0.329752 0.145310 0.273443
O O2 0.270813 0.145613 0.177867
O O3 0.014342 0.219058 0.328453
O O4 0.058144 0.017892 0.297149
O O5 0.060209 0.803647 0.181932
O O6 0.921528 0.753838 0.049265
O O7 0.093981 0.580844 0.047883
O O8 0.809756 0.564097 0.055166
O O9 0.521482 0.111258 0.588680
O O10 0.865626 0.065705 0.508401
O O11 0.660086 0.890550 0.149626
O O12 0.268599 0.868432 0.245617
O O13 0.997016 0.096552 0.596475
#
# Coordination Sequence:
#
# PCOD9270481 Si02
#       7
#     8   4   8   8   8   8   8
#     4  11  22  37  62  87 116 160 193 248 306 347
#     4  10  24  38  54  90 124 150 202 248 294 360
#     4  11  19  35  60  85 116 165 194 237 311 348
#     4   9  22  35  55  89 120 149 207 244 282 377
#     4   9  20  36  53  89 118 140 200 249 286 350
#     4  10  20  35  59  87 115 153 192 252 291 356
#     4  11  21  36  58  87 120 151 195 250 298 351
#
# _framework density 26.023847
#
# number of rings (size 3 to 8) (size 9 to 14) (size 15 to 20)
#    0.923    0.923    4.615    0.923    4.308    1.231 
#    0.000    0.000    0.000    6.462    0.000    0.000 
#    0.000    0.000    0.000    0.000    0.000    0.000 
#
# Total GULP energy -145154.982429 kJ/mol
# GULP energy per Si atom -5582.883940 kJ/mol
# Density = 2.596462 g / cm^3
# Si number density = 26.023847 Si / 1000 Ang^3
#
#
#
# Elastic Constant Matrix: (Units=GPa)
#
#
# Indices 1 2 3 4 5 6 
#
# 1 100.0838 30.3880 35.1038 0.0000 33.0664 0.0001
# 2 30.3880 103.6677 29.1735 0.0000 14.0464 0.0001
# 3 35.1038 29.1735 71.7598 -0.0001 12.4879 0.0001
# 4 0.0000 0.0000 -0.0001 39.6827 0.0000 21.0076
# 5 33.0664 14.0464 12.4879 0.0000 43.2142 0.0000
# 6 0.0001 0.0001 0.0001 21.0076 0.0000 16.6299
#
#
#
# Elastic Compliance Matrix: (Units=1/GPa)
#
#
# Indices 1 2 3 4 5 6 
#
# 1 0.015615 -0.001777 -0.005199 0.000000 -0.009868 0.000000
# 2 -0.001777 0.011332 -0.003510 0.000000 -0.001309 0.000000
# 3 -0.005199 -0.003510 0.017916 0.000000 -0.000058 0.000000
# 4 0.000000 0.000000 0.000000 0.076074 0.000000 -0.096100
# 5 -0.009868 -0.001309 -0.000058 0.000000 0.031134 0.000000
# 6 0.000000 0.000000 0.000000 -0.096100 0.000000 0.181530
#
#
# Mechanical properties :
#
#
# Convention : Reuss Voigt Hill
#
# Bulk Modulus (GPa) = 41.85624 51.64909 46.75266
# Shear Modulus (GPa) = 13.79169 31.96175 22.87672
#
# Velocity S-wave (km/s) = 2.30459 3.50833 2.96812
# Velocity P-wave (km/s) = 4.81666 6.02504 5.45442
#
# Compressibility (1/GPa) = 0.02389130
#
# Stress axis : x y z
#
# Youngs Moduli (GPa) = 64.04108 88.24360 55.81712
#
# Poissons Ratio (x) = 0.15682 0.29018
# Poissons Ratio (y) = 0.11381 0.19591
# Poissons Ratio (z) = 0.33294 0.30972
#
# Static dielectric constant tensor:
#      x y z
#    x 2.178930 0.000000 -0.004580 
#    y 0.000000 2.105040 0.000000 
#    z -0.004580 0.000000 2.035080 
# 
# From -- ./inp_files/238303.got.cif
#   From: 2010.05.17/outbox.cif.g08.bks.cpg/sg15_120_cif.got.tgz:238303.got - 2010.06.03 18:47:42.
