data_PCOD9270637
_publ_section_title
;
Structure prediction by ZEFSAII (Michael W. Deem and Ramdas Pophale) SiO2 
 PCOD9270637
Probable space group: C 2/C
;
_chemical_formula_sum "Si O2"
_cell_formula_units_Z 52
_cell_length_a 9.840778
_cell_length_b 27.110414
_cell_length_c 14.361592
_cell_angle_alpha 90.000000
_cell_angle_beta 39.751310
_cell_angle_gamma 90.000000
_cell_volume 2450.074159
_symmetry_space_group_name_H-M "C 2/C"
_symmetry_group_IT_number 15
_symmetry_cell_setting 'monoclinic'
loop_
_space_group_symop_operation_xyz
x,y,z
-x,y,1/2-z
-x,-y,-z
x,-y,1/2+z
1/2+x,1/2+y,z
1/2-x,1/2+y,1/2-z
1/2-x,1/2-y,-z
1/2+x,1/2-y,1/2+z
loop_
_atom_site_type_symbol
_atom_site_label
_atom_site_fract_x
_atom_site_fract_y
_atom_site_fract_z
Si Si1 0.500000 0.640020 0.750000
Si Si2 0.975067 0.447516 0.463335
Si Si3 0.902405 0.156098 0.200985
Si Si4 0.974992 0.051173 0.395810
Si Si5 0.825668 0.696602 0.924494
Si Si6 0.397070 0.442274 0.153328
Si Si7 0.033019 0.656273 0.003381
O O1 0.524901 0.603398 0.825803
O O2 0.280768 0.670298 0.880465
O O3 0.749697 0.441360 0.534418
O O4 0.000000 0.500000 0.500000
O O5 0.144005 0.442322 0.291371
O O6 0.036502 0.403419 0.500984
O O7 0.657577 0.174516 0.327630
O O8 0.000000 0.171285 0.250000
O O9 0.885366 0.096969 0.210420
O O10 0.094844 0.170154 0.029161
O O11 0.972233 0.057013 0.508317
O O12 0.041137 0.995625 0.337693
O O13 0.000000 0.698621 0.750000
O O14 0.946566 0.670682 0.946697
O O15 0.750000 0.750000 0.000000
#
# Coordination Sequence:
#
# PCOD9270637 Si02
#       7
#     4   8   8   8   8   8   8
#     4  10  22  38  58  82 132 174 222 246 332 372
#     4  11  20  32  56  79 121 166 217 260 319 370
#     4  10  20  35  61  89 120 156 206 258 327 376
#     4  11  20  34  51  80 120 161 221 269 313 365
#     4  11  23  40  70  99 127 152 203 277 335 389
#     4  10  23  32  49  79 119 170 222 262 303 379
#     4  10  21  37  60  91 123 166 211 254 315 396
#
# _framework density 21.223846999999999
#
# number of rings (size 3 to 8) (size 9 to 14) (size 15 to 20)
#    0.000    1.538    3.077    4.615    5.385    0.000 
#    0.000    2.308    0.000    3.692    0.000    0.000 
#    0.000    0.000    0.000    0.000    0.000    0.000 
#
# Total GULP energy -144923.881634 kJ/mol
# GULP energy per Si atom -5573.995447 kJ/mol
# Density = 2.117554 g / cm^3
# Si number density = 21.223847 Si / 1000 Ang^3
#
#
#
# Elastic Constant Matrix: (Units=GPa)
#
#
# Indices 1 2 3 4 5 6 
#
# 1 52.4453 1.8480 41.2106 0.0000 -8.3028 0.0000
# 2 1.8480 48.8499 9.7802 0.0000 -1.6135 0.0000
# 3 41.2106 9.7802 180.2916 0.0000 -32.1717 0.0000
# 4 0.0000 0.0000 0.0000 29.0208 0.0000 1.2566
# 5 -8.3028 -1.6135 -32.1717 0.0000 42.0910 0.0000
# 6 0.0000 0.0000 0.0000 1.2566 0.0000 12.2515
#
#
#
# Elastic Compliance Matrix: (Units=1/GPa)
#
#
# Indices 1 2 3 4 5 6 
#
# 1 0.023257 0.000185 -0.005218 0.000000 0.000607 0.000000
# 2 0.000185 0.020697 -0.001178 0.000000 -0.000070 0.000000
# 3 -0.005218 -0.001178 0.007656 0.000000 0.004777 0.000000
# 4 0.000000 0.000000 0.000000 0.034612 0.000000 -0.003550
# 5 0.000607 -0.000070 0.004777 0.000000 0.027526 0.000000
# 6 0.000000 0.000000 0.000000 -0.003550 0.000000 0.081987
#
#
# Mechanical properties :
#
#
# Convention : Reuss Voigt Hill
#
# Bulk Modulus (GPa) = 25.51740 43.02938 34.27339
# Shear Modulus (GPa) = 22.60205 31.92252 27.26229
#
# Velocity S-wave (km/s) = 3.26688 3.88246 3.58790
# Velocity P-wave (km/s) = 5.12631 6.35737 5.77474
#
# Compressibility (1/GPa) = 0.03918895
#
# Stress axis : x y z
#
# Youngs Moduli (GPa) = 42.99766 48.31548 130.62410
#
# Poissons Ratio (x) = -0.00893 0.68158
# Poissons Ratio (y) = -0.00795 0.15381
# Poissons Ratio (z) = 0.22436 0.05689
#
# Static dielectric constant tensor:
#      x y z
#    x 1.738750 0.000000 -0.008430 
#    y 0.000000 1.832950 0.000000 
#    z -0.008430 0.000000 1.890650 
# 
# From -- ./inp_files/201355.got.cif
#   From: 2010.05.17/outbox.cif.g08.bks.cpg/sg15_101_cif.got.tgz:201355.got - 2010.06.03 18:47:42.
