data_PCOD9270340
_publ_section_title
;
Structure prediction by ZEFSAII (Michael W. Deem and Ramdas Pophale) SiO2 
 PCOD9270340
Probable space group: C 2/C
;
_chemical_formula_sum "Si O2"
_cell_formula_units_Z 56
_cell_length_a 15.631108
_cell_length_b 11.010902
_cell_length_c 18.328653
_cell_angle_alpha 90.000000
_cell_angle_beta 62.136248
_cell_angle_gamma 90.000000
_cell_volume 2788.853377
_symmetry_space_group_name_H-M "C 2/C"
_symmetry_group_IT_number 15
_symmetry_cell_setting 'monoclinic'
loop_
_space_group_symop_operation_xyz
x,y,z
-x,y,1/2-z
-x,-y,-z
x,-y,1/2+z
1/2+x,1/2+y,z
1/2-x,1/2+y,1/2-z
1/2-x,1/2-y,-z
1/2+x,1/2-y,1/2+z
loop_
_atom_site_type_symbol
_atom_site_label
_atom_site_fract_x
_atom_site_fract_y
_atom_site_fract_z
Si Si1 0.819855 0.295586 0.359275
Si Si2 0.611860 0.457681 0.700619
Si Si3 0.489809 0.637488 0.534807
Si Si4 0.200378 0.831746 0.933902
Si Si5 0.373688 0.832480 0.498154
Si Si6 0.728835 0.933376 0.451152
Si Si7 0.191863 0.038671 0.818256
O O1 0.881427 0.187427 0.300729
O O2 0.721019 0.238258 0.433001
O O3 0.872264 0.342242 0.411181
O O4 0.784478 0.389940 0.312429
O O5 0.500000 0.496215 0.750000
O O6 0.669065 0.499910 0.605738
O O7 0.678463 0.505603 0.739929
O O8 0.500000 0.500000 0.500000
O O9 0.596695 0.672527 0.516228
O O10 0.458528 0.743725 0.491142
O O11 0.402341 0.621401 0.625927
O O12 0.227165 0.693089 0.908721
O O13 0.189090 0.915396 0.867626
O O14 0.271363 0.895038 0.963689
O O15 0.355903 0.970379 0.532591
#
# Coordination Sequence:
#
# PCOD9270340 Si02
#       7
#     8   8   8   8   8   8   8
#     4   9  19  34  56  78 107 145 188 225 284 331
#     4  11  24  35  58  84 114 146 190 238 279 342
#     4   9  19  31  57  83 109 141 189 239 279 331
#     4  10  20  35  58  82 111 150 191 235 286 338
#     4   9  17  34  56  81 108 144 185 240 277 330
#     4  10  21  37  56  83 113 151 191 233 289 347
#     4  10  20  36  55  80 113 148 183 235 285 337
#
# _framework density 20.079937000000001
#
# number of rings (size 3 to 8) (size 9 to 14) (size 15 to 20)
#    0.000    2.286    1.429    0.857   12.000    0.571 
#    0.000    0.000    0.000    0.857    0.000    0.000 
#    0.000    0.000    0.000    0.000    0.000    0.000 
#
# Total GULP energy -155894.296536 kJ/mol
# GULP energy per Si atom -5567.653448 kJ/mol
# Density = 2.003423 g / cm^3
# Si number density = 20.079937 Si / 1000 Ang^3
#
#
#
# Elastic Constant Matrix: (Units=GPa)
#
#
# Indices 1 2 3 4 5 6 
#
# 1 53.7867 38.4602 7.8509 0.0000 8.2399 0.0000
# 2 38.4602 120.1508 18.4635 0.0000 8.3752 0.0000
# 3 7.8509 18.4635 33.4544 0.0000 16.7577 0.0000
# 4 0.0000 0.0000 0.0000 23.8425 0.0000 2.2247
# 5 8.2399 8.3752 16.7577 0.0000 25.4991 0.0000
# 6 0.0000 0.0000 0.0000 2.2247 0.0000 34.1850
#
#
#
# Elastic Compliance Matrix: (Units=1/GPa)
#
#
# Indices 1 2 3 4 5 6 
#
# 1 0.024921 -0.007787 0.001792 0.000000 -0.006673 0.000000
# 2 -0.007787 0.011531 -0.005814 0.000000 0.002550 0.000000
# 3 0.001792 -0.005814 0.047723 0.000000 -0.030033 0.000000
# 4 0.000000 0.000000 0.000000 0.042198 0.000000 -0.002746
# 5 -0.006673 0.002550 -0.030033 0.000000 0.060273 0.000000
# 6 0.000000 0.000000 0.000000 -0.002746 0.000000 0.029431
#
#
# Mechanical properties :
#
#
# Convention : Reuss Voigt Hill
#
# Bulk Modulus (GPa) = 16.51318 37.43789 26.97553
# Shear Modulus (GPa) = 19.23942 26.21312 22.72627
#
# Velocity S-wave (km/s) = 3.09874 3.61700 3.36786
# Velocity P-wave (km/s) = 4.58743 6.01070 5.34664
#
# Compressibility (1/GPa) = 0.06055770
#
# Stress axis : x y z
#
# Youngs Moduli (GPa) = 40.12664 86.72035 20.95404
#
# Poissons Ratio (x) = 0.67533 -0.03755
# Poissons Ratio (y) = 0.31249 0.12182
# Poissons Ratio (z) = -0.07192 0.50418
#
# Static dielectric constant tensor:
#      x y z
#    x 1.743520 0.000000 0.007860 
#    y 0.000000 1.765940 0.000000 
#    z 0.007860 0.000000 1.729740 
# 
# From -- ./inp_files/203945.got.cif
#   From: 2010.05.17/outbox.cif.g08.bks.cpg/sg15_102_cif.got.tgz:203945.got - 2010.06.03 18:47:42.
