data_PCOD9270642
_publ_section_title
;
Structure prediction by ZEFSAII (Michael W. Deem and Ramdas Pophale) SiO2 
 PCOD9270642
Probable space group: C 2/C
;
_chemical_formula_sum "Si O2"
_cell_formula_units_Z 40
_cell_length_a 30.197810
_cell_length_b 8.247009
_cell_length_c 13.898124
_cell_angle_alpha 90.000000
_cell_angle_beta 148.082365
_cell_angle_gamma 90.000000
_cell_volume 1829.941018
_symmetry_space_group_name_H-M "C 2/C"
_symmetry_group_IT_number 15
_symmetry_cell_setting 'monoclinic'
loop_
_space_group_symop_operation_xyz
x,y,z
-x,y,1/2-z
-x,-y,-z
x,-y,1/2+z
1/2+x,1/2+y,z
1/2-x,1/2+y,1/2-z
1/2-x,1/2-y,-z
1/2+x,1/2-y,1/2+z
loop_
_atom_site_type_symbol
_atom_site_label
_atom_site_fract_x
_atom_site_fract_y
_atom_site_fract_z
Si Si1 0.712789 0.219759 0.080977
Si Si2 0.150751 0.989395 0.099111
Si Si3 0.155427 0.238375 0.793251
Si Si4 0.135303 0.602190 0.748632
Si Si5 0.505704 0.642592 0.931045
O O1 0.656093 0.352712 0.028573
O O2 0.785031 0.317958 0.157557
O O3 0.767135 0.104445 0.251611
O O4 0.658142 0.119394 0.903626
O O5 0.155162 0.893702 0.208740
O O6 0.064358 0.087264 0.951495
O O7 0.127379 0.415405 0.706147
O O8 0.091215 0.189679 0.759904
O O9 0.250000 0.250000 0.000000
O O10 0.055679 0.708604 0.572195
O O11 0.500000 0.500000 0.000000
#
# Coordination Sequence:
#
# PCOD9270642 Si02
#       5
#     8   8   8   8   8
#     4  10  20  35  61  90 120 162 203 253 309 366
#     4  10  20  38  59  90 125 158 205 256 309 372
#     4  11  20  37  65  91 120 161 209 256 313 375
#     4  10  20  37  63  88 121 162 207 252 310 375
#     4   9  21  38  60  87 123 160 202 253 310 370
#
# _framework density 21.858626000000001
#
# number of rings (size 3 to 8) (size 9 to 14) (size 15 to 20)
#    0.000    2.000    2.000    1.800    2.800    0.000 
#    0.000    4.000    4.400    0.000    0.000    0.000 
#    0.000    0.000    0.000    0.000    0.000    0.000 
#
# Total GULP energy -111701.173392 kJ/mol
# GULP energy per Si atom -5585.058670 kJ/mol
# Density = 2.180888 g / cm^3
# Si number density = 21.858626 Si / 1000 Ang^3
#
#
#
# Elastic Constant Matrix: (Units=GPa)
#
#
# Indices 1 2 3 4 5 6 
#
# 1 42.6256 0.7880 33.9644 0.0000 21.7022 0.0000
# 2 0.7880 89.4812 16.4633 0.0000 17.9632 0.0000
# 3 33.9644 16.4633 100.9020 0.0000 32.9176 0.0000
# 4 0.0000 0.0000 0.0000 20.8859 0.0000 8.2741
# 5 21.7022 17.9632 32.9176 0.0000 31.8359 0.0000
# 6 0.0000 0.0000 0.0000 8.2741 0.0000 45.9980
#
#
#
# Elastic Compliance Matrix: (Units=1/GPa)
#
#
# Indices 1 2 3 4 5 6 
#
# 1 0.041165 0.005760 -0.006913 0.000000 -0.024164 0.000000
# 2 0.005760 0.013420 -0.000569 0.000000 -0.010910 0.000000
# 3 -0.006913 -0.000569 0.016129 0.000000 -0.011643 0.000000
# 4 0.000000 0.000000 0.000000 0.051553 0.000000 -0.009273
# 5 -0.024164 -0.010910 -0.011643 0.000000 0.066078 0.000000
# 6 0.000000 0.000000 0.000000 -0.009273 0.000000 0.023408
#
#
# Mechanical properties :
#
#
# Convention : Reuss Voigt Hill
#
# Bulk Modulus (GPa) = 14.86576 37.27112 26.06844
# Shear Modulus (GPa) = 21.04208 31.86352 26.45280
#
# Velocity S-wave (km/s) = 3.10602 3.82214 3.48253
# Velocity P-wave (km/s) = 4.43607 6.04701 5.30307
#
# Compressibility (1/GPa) = 0.06726866
#
# Stress axis : x y z
#
# Youngs Moduli (GPa) = 24.29271 74.51713 62.00063
#
# Poissons Ratio (x) = -0.42924 0.42862
# Poissons Ratio (y) = -0.13993 0.03530
# Poissons Ratio (z) = 0.16794 0.04242
#
# Static dielectric constant tensor:
#      x y z
#    x 1.804590 0.000000 -0.003080 
#    y 0.000000 1.860520 0.000000 
#    z -0.003080 0.000000 1.838860 
# 
# From -- ./inp_files/180987.got.cif
#   From: 2010.05.17/outbox.cif.g08.bks.cpg/sg15_91_cif.got.tgz:180987.got - 2010.06.03 18:47:42.
