data_PCOD9270806
_publ_section_title
;
Structure prediction by ZEFSAII (Michael W. Deem and Ramdas Pophale) SiO2 
 PCOD9270806
Probable space group: C 2/C
;
_chemical_formula_sum "Si O2"
_cell_formula_units_Z 44
_cell_length_a 23.484984
_cell_length_b 14.313139
_cell_length_c 16.595533
_cell_angle_alpha 90.000000
_cell_angle_beta 22.489251
_cell_angle_gamma 90.000000
_cell_volume 2133.827317
_symmetry_space_group_name_H-M "C 2/C"
_symmetry_group_IT_number 15
_symmetry_cell_setting 'monoclinic'
loop_
_space_group_symop_operation_xyz
x,y,z
-x,y,1/2-z
-x,-y,-z
x,-y,1/2+z
1/2+x,1/2+y,z
1/2-x,1/2+y,1/2-z
1/2-x,1/2-y,-z
1/2+x,1/2-y,1/2+z
loop_
_atom_site_type_symbol
_atom_site_label
_atom_site_fract_x
_atom_site_fract_y
_atom_site_fract_z
Si Si1 0.454684 0.008426 0.716829
Si Si2 0.941002 0.331067 0.523082
Si Si3 0.286613 0.833834 0.890565
Si Si4 0.500000 0.534783 0.750000
Si Si5 0.739576 0.249749 0.385368
Si Si6 0.649922 0.613828 0.137956
O O1 0.500000 0.023776 0.750000
O O2 0.555063 0.063823 0.520322
O O3 0.421719 0.899863 0.745135
O O4 0.294454 0.057175 0.920537
O O5 0.837874 0.309068 0.733739
O O6 0.874882 0.268574 0.536690
O O7 0.110310 0.307880 0.327658
O O8 0.250000 0.750000 0.000000
O O9 0.140362 0.897556 0.070785
O O10 0.484582 0.459284 0.696830
O O11 0.652894 0.299121 0.572416
O O12 0.810425 0.153471 0.326741
#
# Coordination Sequence:
#
# PCOD9270806 Si02
#       6
#     8   8   8   4   8   8
#     4  10  20  40  66  92 123 165 210 267 333 391
#     4  11  23  39  65  98 131 167 218 268 329 397
#     4  11  27  43  63  85 127 183 225 267 320 394
#     4  10  22  42  62  84 124 168 228 266 322 378
#     4  10  20  35  67 101 131 155 204 265 337 400
#     4   9  18  36  64  97 124 159 193 265 337 392
#
# _framework density 20.620225000000001
#
# number of rings (size 3 to 8) (size 9 to 14) (size 15 to 20)
#    0.000    1.818    1.818    1.636    3.818    0.000 
#    0.000    2.727    0.000    0.000    0.000    0.000 
#    0.000    0.000    0.000    0.000    0.000    0.000 
#
# Total GULP energy -122509.308984 kJ/mol
# GULP energy per Si atom -5568.604954 kJ/mol
# Density = 2.057329 g / cm^3
# Si number density = 20.620225 Si / 1000 Ang^3
#
#
#
# Elastic Constant Matrix: (Units=GPa)
#
#
# Indices 1 2 3 4 5 6 
#
# 1 95.7618 43.3714 43.5701 0.0000 1.6061 0.0000
# 2 43.3714 93.6105 36.0867 0.0000 6.9124 0.0000
# 3 43.5701 36.0867 70.7847 0.0000 4.9144 0.0000
# 4 0.0000 0.0000 0.0000 23.3845 0.0000 -8.3389
# 5 1.6061 6.9124 4.9144 0.0000 39.6612 0.0000
# 6 0.0000 0.0000 0.0000 -8.3389 0.0000 31.9696
#
#
#
# Elastic Compliance Matrix: (Units=1/GPa)
#
#
# Indices 1 2 3 4 5 6 
#
# 1 0.015921 -0.004542 -0.007559 0.000000 0.001084 0.000000
# 2 -0.004542 0.014679 -0.004562 0.000000 -0.001809 0.000000
# 3 -0.007559 -0.004562 0.021212 0.000000 -0.001527 0.000000
# 4 0.000000 0.000000 0.000000 0.047149 0.000000 0.012298
# 5 0.001084 -0.001809 -0.001527 0.000000 0.025674 0.000000
# 6 0.000000 0.000000 0.000000 0.012298 0.000000 0.034488
#
#
# Mechanical properties :
#
#
# Convention : Reuss Voigt Hill
#
# Bulk Modulus (GPa) = 54.09816 56.24595 55.17206
# Shear Modulus (GPa) = 25.17459 28.14498 26.65978
#
# Velocity S-wave (km/s) = 3.49788 3.69849 3.59959
# Velocity P-wave (km/s) = 6.52733 6.75091 6.64006
#
# Compressibility (1/GPa) = 0.01848492
#
# Stress axis : x y z
#
# Youngs Moduli (GPa) = 62.80969 68.12251 47.14261
#
# Poissons Ratio (x) = 0.30944 0.35637
# Poissons Ratio (y) = 0.28531 0.21507
# Poissons Ratio (z) = 0.47480 0.31078
#
# Static dielectric constant tensor:
#      x y z
#    x 1.779400 0.000000 -0.039520 
#    y 0.000000 1.811790 0.000000 
#    z -0.039520 0.000000 1.751700 
# 
# From -- ./inp_files/168397.got.cif
#   From: 2010.05.17/outbox.cif.g08.bks.cpg/sg15_85_cif.got.tgz:168397.got - 2010.06.03 18:47:42.
