data_PCOD9270906
_publ_section_title
;
Structure prediction by ZEFSAII (Michael W. Deem and Ramdas Pophale) SiO2 
 PCOD9270906
Probable space group: C 2/C
;
_chemical_formula_sum "Si O2"
_cell_formula_units_Z 28
_cell_length_a 7.276073
_cell_length_b 12.471894
_cell_length_c 14.556916
_cell_angle_alpha 90.000000
_cell_angle_beta 56.486700
_cell_angle_gamma 90.000000
_cell_volume 1101.383793
_symmetry_space_group_name_H-M "C 2/C"
_symmetry_group_IT_number 15
_symmetry_cell_setting 'monoclinic'
loop_
_space_group_symop_operation_xyz
x,y,z
-x,y,1/2-z
-x,-y,-z
x,-y,1/2+z
1/2+x,1/2+y,z
1/2-x,1/2+y,1/2-z
1/2-x,1/2-y,-z
1/2+x,1/2-y,1/2+z
loop_
_atom_site_type_symbol
_atom_site_label
_atom_site_fract_x
_atom_site_fract_y
_atom_site_fract_z
Si Si1 0.884087 0.858605 0.661587
Si Si2 0.000000 0.955460 0.250000
Si Si3 0.467532 0.863921 0.105187
Si Si4 0.936839 0.400357 0.898262
O O1 0.027236 0.751045 0.629650
O O2 0.660246 0.864617 0.784412
O O3 0.783588 0.855963 0.587258
O O4 0.014830 0.963386 0.658995
O O5 0.787329 0.883597 0.298258
O O6 0.584918 0.970666 0.108524
O O7 0.469110 0.871380 0.994803
#
# Coordination Sequence:
#
# PCOD9270906 Si02
#       4
#     8   4   8   8
#     4  10  20  36  55  78 107 140 177 218 264 314
#     4  10  22  34  54  84 104 138 186 212 260 320
#     4  10  20  38  56  77 111 139 173 226 260 309
#     4   9  20  37  56  79 107 142 177 212 271 317
#
# _framework density 25.422563
#
# number of rings (size 3 to 8) (size 9 to 14) (size 15 to 20)
#    0.000    2.286    0.000    2.571    0.000    5.714 
#    0.000   18.571    0.000    0.000    0.000    0.000 
#    0.000    0.000    0.000    0.000    0.000    0.000 
#
# Total GULP energy -78352.692390 kJ/mol
# GULP energy per Si atom -5596.620885 kJ/mol
# Density = 2.536470 g / cm^3
# Si number density = 25.422563 Si / 1000 Ang^3
#
#
#
# Elastic Constant Matrix: (Units=GPa)
#
#
# Indices 1 2 3 4 5 6 
#
# 1 54.1093 5.9316 -4.7485 0.0000 1.4669 0.0000
# 2 5.9316 109.3157 26.2664 0.0000 12.4882 0.0000
# 3 -4.7485 26.2664 53.0126 0.0000 8.3713 0.0000
# 4 0.0000 0.0000 0.0000 9.3218 0.0000 11.9331
# 5 1.4669 12.4882 8.3713 0.0000 20.9293 0.0000
# 6 0.0000 0.0000 0.0000 11.9331 0.0000 -3.9647
#
#
#
# Elastic Compliance Matrix: (Units=1/GPa)
#
#
# Indices 1 2 3 4 5 6 
#
# 1 0.018921 -0.001498 0.002674 0.000000 -0.001502 0.000000
# 2 -0.001498 0.010900 -0.004829 0.000000 -0.004467 0.000000
# 3 0.002674 -0.004829 0.022491 0.000000 -0.006302 0.000000
# 4 0.000000 0.000000 0.000000 0.022105 0.000000 0.066532
# 5 -0.001502 -0.004467 -0.006302 0.000000 0.053071 0.000000
# 6 0.000000 0.000000 0.000000 0.066532 0.000000 -0.051973
#
#
# Mechanical properties :
#
#
# Convention : Reuss Voigt Hill
#
# Bulk Modulus (GPa) = 22.21949 30.14852 26.18400
# Shear Modulus (GPa) = 51.11325 17.85649 34.48487
#
# Velocity S-wave (km/s) = 4.48878 2.65313 3.68702
# Velocity P-wave (km/s) = 5.96863 4.61196 5.33361
#
# Compressibility (1/GPa) = 0.04500553
#
# Stress axis : x y z
#
# Youngs Moduli (GPa) = 52.85228 91.74490 44.46249
#
# Poissons Ratio (x) = 0.13739 -0.11889
# Poissons Ratio (y) = 0.07915 0.21472
# Poissons Ratio (z) = -0.14133 0.44306
#
# Static dielectric constant tensor:
#      x y z
#    x 1.930540 0.000000 0.011350 
#    y 0.000000 1.978690 0.000000 
#    z 0.011350 0.000000 2.012310 
# 
# From -- ./inp_files/75027.got.cif
#   From: 2010.05.17/outbox.cif.g08.bks.cpg/sg15_38_cif.got.tgz:75027.got - 2010.06.03 18:47:42.
