data_PCOD9270477
_publ_section_title
;
Structure prediction by ZEFSAII (Michael W. Deem and Ramdas Pophale) SiO2 
 PCOD9270477
Probable space group: C 2/C
;
_chemical_formula_sum "Si O2"
_cell_formula_units_Z 52
_cell_length_a 14.185447
_cell_length_b 30.559782
_cell_length_c 7.589808
_cell_angle_alpha 90.000000
_cell_angle_beta 51.767924
_cell_angle_gamma 90.000000
_cell_volume 2584.497389
_symmetry_space_group_name_H-M "C 2/C"
_symmetry_group_IT_number 15
_symmetry_cell_setting 'monoclinic'
loop_
_space_group_symop_operation_xyz
x,y,z
-x,y,1/2-z
-x,-y,-z
x,-y,1/2+z
1/2+x,1/2+y,z
1/2-x,1/2+y,1/2-z
1/2-x,1/2-y,-z
1/2+x,1/2-y,1/2+z
loop_
_atom_site_type_symbol
_atom_site_label
_atom_site_fract_x
_atom_site_fract_y
_atom_site_fract_z
Si Si1 0.021895 0.781315 0.511638
Si Si2 0.134806 0.062661 0.156311
Si Si3 0.733627 0.630765 0.290690
Si Si4 0.747636 0.990558 0.285204
Si Si5 0.382561 0.056938 0.266352
Si Si6 0.500000 0.645372 0.750000
Si Si7 0.261719 0.734084 0.284558
O O1 0.024911 0.825562 0.395391
O O2 0.147918 0.757606 0.329159
O O3 0.000000 0.787377 0.750000
O O4 0.901801 0.756639 0.579943
O O5 0.190094 0.107413 0.162875
O O6 0.000000 0.068169 0.250000
O O7 0.149055 0.026066 0.292901
O O8 0.215249 0.042191 0.910133
O O9 0.847812 0.604025 0.228761
O O10 0.623892 0.622511 0.554461
O O11 0.751545 0.682093 0.234880
O O12 0.720058 0.961086 0.484813
O O13 0.631641 0.020750 0.372044
O O14 0.500000 0.058047 0.250000
O O15 0.250000 0.750000 0.500000
#
# Coordination Sequence:
#
# PCOD9270477 Si02
#       7
#     8   8   8   8   8   4   8
#     4   9  19  38  63  83 110 156 205 239 305 359
#     4  10  20  35  59  86 120 153 192 242 298 353
#     4  10  23  37  56  90 121 145 198 246 297 353
#     4   9  20  37  58  84 113 158 201 232 291 361
#     4  10  20  39  57  85 118 157 197 242 291 350
#     4  10  22  40  58  84 122 156 196 250 296 364
#     4   9  19  40  60  84 115 155 198 244 295 363
#
# _framework density 20.119965000000001
#
# number of rings (size 3 to 8) (size 9 to 14) (size 15 to 20)
#    0.000    2.462    0.000    0.923    2.154    7.385 
#    6.923    3.077    0.000    0.000    0.000    0.000 
#    0.000    0.000    0.000    0.000    0.000    0.000 
#
# Total GULP energy -144805.881568 kJ/mol
# GULP energy per Si atom -5569.456983 kJ/mol
# Density = 2.007417 g / cm^3
# Si number density = 20.119965 Si / 1000 Ang^3
#
#
#
# Elastic Constant Matrix: (Units=GPa)
#
#
# Indices 1 2 3 4 5 6 
#
# 1 133.3530 36.1250 -0.1639 0.0000 -16.4836 0.0000
# 2 36.1250 59.1866 0.8787 0.0000 2.1471 0.0000
# 3 -0.1639 0.8787 23.7621 0.0000 6.5930 0.0000
# 4 0.0000 0.0000 0.0000 13.1292 0.0000 -31.7710
# 5 -16.4836 2.1471 6.5930 0.0000 29.1604 0.0000
# 6 0.0000 0.0000 0.0000 -31.7710 0.0000 -70.0368
#
#
#
# Elastic Compliance Matrix: (Units=1/GPa)
#
#
# Indices 1 2 3 4 5 6 
#
# 1 0.010008 -0.006320 -0.001489 0.000000 0.006459 0.000000
# 2 -0.006320 0.020935 0.000641 0.000000 -0.005259 0.000000
# 3 -0.001489 0.000641 0.045128 0.000000 -0.011092 0.000000
# 4 0.000000 0.000000 0.000000 0.036309 0.000000 -0.016471
# 5 0.006459 -0.005259 -0.011092 0.000000 0.040839 0.000000
# 6 0.000000 0.000000 0.000000 -0.016471 0.000000 -0.006806
#
#
# Mechanical properties :
#
#
# Convention : Reuss Voigt Hill
#
# Bulk Modulus (GPa) = 16.19875 32.22013 24.20944
# Shear Modulus (GPa) = 27.57465 6.41469 16.99467
#
# Velocity S-wave (km/s) = 3.70606 1.78750 2.90947
# Velocity P-wave (km/s) = 5.13631 4.50655 4.83170
#
# Compressibility (1/GPa) = 0.06173317
#
# Stress axis : x y z
#
# Youngs Moduli (GPa) = 99.92327 47.76748 22.15943
#
# Poissons Ratio (x) = 0.30191 0.03300
# Poissons Ratio (y) = 0.63156 -0.01421
# Poissons Ratio (z) = 0.14882 -0.03064
#
# Static dielectric constant tensor:
#      x y z
#    x 1.793240 0.000000 0.031450 
#    y 0.000000 1.693170 0.000000 
#    z 0.031450 0.000000 1.769490 
# 
# From -- ./inp_files/35088.got.cif
#   From: 2010.05.17/outbox.cif.g08.bks.cpg/sg15_18_cif.got.tgz:35088.got - 2010.06.03 18:47:42.
