data_PCOD9270207
_publ_section_title
;
Structure prediction by ZEFSAII (Michael W. Deem and Ramdas Pophale) SiO2 
 PCOD9270207
Probable space group: C 2/C
;
_chemical_formula_sum "Si O2"
_cell_formula_units_Z 60
_cell_length_a 11.752204
_cell_length_b 27.223805
_cell_length_c 10.148800
_cell_angle_alpha 90.000000
_cell_angle_beta 93.461601
_cell_angle_gamma 90.000000
_cell_volume 3241.079932
_symmetry_space_group_name_H-M "C 2/C"
_symmetry_group_IT_number 15
_symmetry_cell_setting 'monoclinic'
loop_
_space_group_symop_operation_xyz
x,y,z
-x,y,1/2-z
-x,-y,-z
x,-y,1/2+z
1/2+x,1/2+y,z
1/2-x,1/2+y,1/2-z
1/2-x,1/2-y,-z
1/2+x,1/2-y,1/2+z
loop_
_atom_site_type_symbol
_atom_site_label
_atom_site_fract_x
_atom_site_fract_y
_atom_site_fract_z
Si Si1 0.873244 0.658274 0.291551
Si Si2 0.699758 0.422525 0.776596
Si Si3 0.198772 0.792330 0.587235
Si Si4 0.136793 0.966850 0.275318
Si Si5 0.856656 0.885282 0.435815
Si Si6 0.000000 0.249348 0.250000
Si Si7 0.189714 0.298807 0.439189
Si Si8 0.884329 0.109413 0.504350
O O1 0.820592 0.604279 0.262106
O O2 0.787182 0.694803 0.209496
O O3 0.868334 0.672736 0.443566
O O4 0.000000 0.662882 0.250000
O O5 0.698019 0.481000 0.782867
O O6 0.619475 0.407000 0.648703
O O7 0.660938 0.399758 0.912809
O O8 0.250000 0.750000 0.500000
O O9 0.076078 0.781112 0.648420
O O10 0.188326 0.841191 0.498341
O O11 0.173022 0.931627 0.157901
O O12 0.156315 0.935777 0.409486
O O13 0.000000 0.976036 0.250000
O O14 0.784372 0.837237 0.394768
O O15 0.991249 0.877224 0.433107
O O16 0.905596 0.281824 0.169615
O O17 0.250000 0.250000 0.500000
#
# Coordination Sequence:
#
# PCOD9270207 Si02
#       8
#     8   8   8   8   8   4   8   8
#     4  10  22  41  61  86 121 161 206 254 299 366
#     4  10  20  35  61  84 116 157 200 246 303 373
#     4  11  24  39  62  92 123 164 208 257 308 375
#     4  10  20  35  56  89 122 153 192 255 313 358
#     4  10  21  35  58  87 123 153 197 247 307 363
#     4  12  24  40  66  88 126 166 210 254 318 366
#     4  11  22  39  61  89 121 160 203 250 305 370
#     4  10  21  34  59  89 121 157 197 250 304 369
#
# _framework density 18.512346999999998
#
# number of rings (size 3 to 8) (size 9 to 14) (size 15 to 20)
#    0.000    1.600    1.333    3.600    5.600    2.133 
#    0.000    0.667    1.467    4.800    0.000    0.000 
#    0.000    0.000    0.000    0.000    0.000    0.000 
#
# Total GULP energy -167450.304891 kJ/mol
# GULP energy per Si atom -5581.676830 kJ/mol
# Density = 1.847021 g / cm^3
# Si number density = 18.512347 Si / 1000 Ang^3
#
#
#
# Elastic Constant Matrix: (Units=GPa)
#
#
# Indices 1 2 3 4 5 6 
#
# 1 70.8782 37.0366 13.3280 0.0000 5.4324 0.0000
# 2 37.0366 136.4684 32.3946 0.0000 8.3759 0.0000
# 3 13.3280 32.3946 67.3687 0.0000 13.8165 0.0000
# 4 0.0000 0.0000 0.0000 26.9602 0.0000 1.7890
# 5 5.4324 8.3759 13.8165 0.0000 32.0246 0.0000
# 6 0.0000 0.0000 0.0000 1.7890 0.0000 28.2306
#
#
#
# Elastic Compliance Matrix: (Units=1/GPa)
#
#
# Indices 1 2 3 4 5 6 
#
# 1 0.016582 -0.004183 -0.001006 0.000000 -0.001285 0.000000
# 2 -0.004183 0.009334 -0.003627 0.000000 -0.000167 0.000000
# 3 -0.001006 -0.003627 0.018164 0.000000 -0.006717 0.000000
# 4 0.000000 0.000000 0.000000 0.037248 0.000000 -0.002360
# 5 -0.001285 -0.000167 -0.006717 0.000000 0.034386 0.000000
# 6 0.000000 0.000000 0.000000 -0.002360 0.000000 0.035572
#
#
# Mechanical properties :
#
#
# Convention : Reuss Voigt Hill
#
# Bulk Modulus (GPa) = 37.80682 48.91487 43.36085
# Shear Modulus (GPa) = 28.13213 30.24018 29.18616
#
# Velocity S-wave (km/s) = 3.90249 4.04606 3.97492
# Velocity P-wave (km/s) = 6.38535 6.95037 6.67384
#
# Compressibility (1/GPa) = 0.02645025
#
# Stress axis : x y z
#
# Youngs Moduli (GPa) = 60.30676 107.13575 55.05344
#
# Poissons Ratio (x) = 0.44811 0.05537
# Poissons Ratio (y) = 0.25224 0.19965
# Poissons Ratio (z) = 0.06065 0.38853
#
# Static dielectric constant tensor:
#      x y z
#    x 1.645370 0.000000 -0.023900 
#    y 0.000000 1.637570 0.000000 
#    z -0.023900 0.000000 1.671600 
# 
# From -- ./inp_files/34271.got.cif
#   From: 2010.05.17/outbox.cif.g08.bks.cpg/sg15_18_cif.got.tgz:34271.got - 2010.06.03 18:47:42.
