data_PCOD9270300
_publ_section_title
;
Structure prediction by ZEFSAII (Michael W. Deem and Ramdas Pophale) SiO2 
 PCOD9270300
Probable space group: C 2/C
;
_chemical_formula_sum "Si O2"
_cell_formula_units_Z 40
_cell_length_a 18.564703
_cell_length_b 13.890506
_cell_length_c 8.570396
_cell_angle_alpha 90.000000
_cell_angle_beta 115.123296
_cell_angle_gamma 90.000000
_cell_volume 2000.993380
_symmetry_space_group_name_H-M "C 2/C"
_symmetry_group_IT_number 15
_symmetry_cell_setting 'monoclinic'
loop_
_space_group_symop_operation_xyz
x,y,z
-x,y,1/2-z
-x,-y,-z
x,-y,1/2+z
1/2+x,1/2+y,z
1/2-x,1/2+y,1/2-z
1/2-x,1/2-y,-z
1/2+x,1/2-y,1/2+z
loop_
_atom_site_type_symbol
_atom_site_label
_atom_site_fract_x
_atom_site_fract_y
_atom_site_fract_z
Si Si1 0.053231 0.373963 0.931706
Si Si2 0.217832 0.208071 0.714605
Si Si3 0.647538 0.914675 0.314067
Si Si4 0.286124 0.875862 0.573733
Si Si5 0.557055 0.769466 0.438704
O O1 0.130046 0.332681 0.913135
O O2 0.000000 0.424265 0.750000
O O3 0.092049 0.431701 0.110892
O O4 0.997479 0.296399 0.964488
O O5 0.287872 0.166600 0.672249
O O6 0.233137 0.317700 0.787409
O O7 0.132153 0.205920 0.556051
O O8 0.223869 0.146362 0.880047
O O9 0.594517 0.868343 0.401304
O O10 0.693906 0.012417 0.391114
O O11 0.500000 0.730092 0.250000
#
# Coordination Sequence:
#
# PCOD9270300 Si02
#       5
#     8   8   8   8   8
#     4  10  20  35  57  88 127 158 182 242 303 377
#     4  10  21  39  58  86 124 162 199 244 295 360
#     4  10  23  37  59  91 124 159 200 248 293 359
#     4  10  22  37  59  91 120 160 202 240 301 355
#     4  10  21  38  59  93 122 158 191 250 310 358
#
# _framework density 19.990069999999999
#
# number of rings (size 3 to 8) (size 9 to 14) (size 15 to 20)
#    0.000    2.000    2.000    0.600    5.600    4.000 
#    0.000    0.000    0.000    1.200    0.000    0.000 
#    0.000    0.000    0.000    0.000    0.000    0.000 
#
# Total GULP energy -111603.572449 kJ/mol
# GULP energy per Si atom -5580.178622 kJ/mol
# Density = 1.994457 g / cm^3
# Si number density = 19.990070 Si / 1000 Ang^3
#
#
#
# Elastic Constant Matrix: (Units=GPa)
#
#
# Indices 1 2 3 4 5 6 
#
# 1 109.4487 40.9458 30.1255 0.0000 -0.2613 0.0000
# 2 40.9458 51.8172 32.4536 0.0000 13.0894 0.0000
# 3 30.1255 32.4536 135.0835 0.0000 46.4989 0.0000
# 4 0.0000 0.0000 0.0000 27.6519 0.0000 -2.2177
# 5 -0.2613 13.0894 46.4989 0.0000 36.5941 0.0000
# 6 0.0000 0.0000 0.0000 -2.2177 0.0000 10.3093
#
#
#
# Elastic Compliance Matrix: (Units=1/GPa)
#
#
# Indices 1 2 3 4 5 6 
#
# 1 0.014331 -0.011342 -0.003382 0.000000 0.008457 0.000000
# 2 -0.011342 0.031786 -0.002072 0.000000 -0.008818 0.000000
# 3 -0.003382 -0.002072 0.014945 0.000000 -0.018273 0.000000
# 4 0.000000 0.000000 0.000000 0.036799 0.000000 0.007916
# 5 0.008457 -0.008818 -0.018273 0.000000 0.053760 0.000000
# 6 0.000000 0.000000 0.000000 0.007916 0.000000 0.098703
#
#
# Mechanical properties :
#
#
# Convention : Reuss Voigt Hill
#
# Bulk Modulus (GPa) = 36.40340 55.93327 46.16833
# Shear Modulus (GPa) = 17.06056 27.76600 22.41328
#
# Velocity S-wave (km/s) = 2.92456 3.73096 3.35210
# Velocity P-wave (km/s) = 5.44558 6.82652 6.17477
#
# Compressibility (1/GPa) = 0.02746996
#
# Stress axis : x y z
#
# Youngs Moduli (GPa) = 69.77810 31.45995 66.91302
#
# Poissons Ratio (x) = 0.35683 0.22631
# Poissons Ratio (y) = 0.79146 0.13862
# Poissons Ratio (z) = 0.23600 0.06517
#
# Static dielectric constant tensor:
#      x y z
#    x 1.724510 0.000000 -0.013010 
#    y 0.000000 1.690990 0.000000 
#    z -0.013010 0.000000 1.790460 
# 
# From -- ./inp_files/55044.got.cif
#   From: 2010.05.17/outbox.cif.g08.bks.cpg/sg15_28_cif.got.tgz:55044.got - 2010.06.03 18:47:42.
