data_PCOD9270357
_publ_section_title
;
Structure prediction by ZEFSAII (Michael W. Deem and Ramdas Pophale) SiO2 
 PCOD9270357
Probable space group: C 2/C
;
_chemical_formula_sum "Si O2"
_cell_formula_units_Z 64
_cell_length_a 31.298467
_cell_length_b 18.815916
_cell_length_c 11.089043
_cell_angle_alpha 90.000000
_cell_angle_beta 26.063035
_cell_angle_gamma 90.000000
_cell_volume 2869.212567
_symmetry_space_group_name_H-M "C 2/C"
_symmetry_group_IT_number 15
_symmetry_cell_setting 'monoclinic'
loop_
_space_group_symop_operation_xyz
x,y,z
-x,y,1/2-z
-x,-y,-z
x,-y,1/2+z
1/2+x,1/2+y,z
1/2-x,1/2+y,1/2-z
1/2-x,1/2-y,-z
1/2+x,1/2-y,1/2+z
loop_
_atom_site_type_symbol
_atom_site_label
_atom_site_fract_x
_atom_site_fract_y
_atom_site_fract_z
Si Si1 0.098617 0.260727 0.401017
Si Si2 0.294324 0.893531 0.682053
Si Si3 0.542232 0.396113 0.987512
Si Si4 0.413564 0.964871 0.569552
Si Si5 0.744481 0.744948 0.803863
Si Si6 0.457944 0.105463 0.571961
Si Si7 0.140330 0.024083 0.428096
Si Si8 0.593211 0.633929 0.086390
O O1 0.048318 0.184319 0.519642
O O2 0.155822 0.273737 0.380355
O O3 0.029529 0.324699 0.537433
O O4 0.176340 0.259676 0.093670
O O5 0.325057 0.923577 0.733061
O O6 0.241245 0.817486 0.808473
O O7 0.391339 0.880236 0.357654
O O8 0.234137 0.953253 0.764198
O O9 0.448975 0.440502 0.268736
O O10 0.633373 0.436240 0.817695
O O11 0.552448 0.390243 0.819800
O O12 0.500000 0.963568 0.250000
O O13 0.446259 0.928202 0.611781
O O14 0.402838 0.047111 0.630602
O O15 0.682996 0.687447 0.882883
O O16 0.126900 0.940626 0.443852
O O17 0.500000 0.664331 0.250000
#
# Coordination Sequence:
#
# PCOD9270357 Si02
#       8
#     8   8   8   8   8   8   8   8
#     4   9  17  34  58  80 106 148 187 241 279 334
#     4  10  20  35  58  84 114 149 191 238 291 335
#     4  10  21  39  58  82 118 151 198 232 288 348
#     4   9  19  36  55  84 115 148 187 238 287 345
#     4   9  19  33  55  84 106 139 200 240 275 342
#     4   9  19  35  58  84 113 148 194 229 289 345
#     4  11  22  36  58  88 114 159 188 239 295 343
#     4  11  23  37  59  86 114 154 197 239 291 347
#
# _framework density 22.305771
#
# number of rings (size 3 to 8) (size 9 to 14) (size 15 to 20)
#    0.000    2.250    2.500    0.375    3.500    3.500 
#    2.250    0.000    2.750    1.500    0.000    0.000 
#    0.000    0.000    0.000    0.000    0.000    0.000 
#
# Total GULP energy -178581.429809 kJ/mol
# GULP energy per Si atom -5580.669682 kJ/mol
# Density = 2.225500 g / cm^3
# Si number density = 22.305771 Si / 1000 Ang^3
#
#
#
# Elastic Constant Matrix: (Units=GPa)
#
#
# Indices 1 2 3 4 5 6 
#
# 1 115.6567 51.9205 4.0382 0.0000 -18.1978 0.0000
# 2 51.9205 127.1581 2.5289 0.0000 -25.1794 0.0000
# 3 4.0382 2.5289 27.8407 0.0000 -0.0603 0.0000
# 4 0.0000 0.0000 0.0000 11.8204 0.0000 -16.7691
# 5 -18.1978 -25.1794 -0.0603 0.0000 22.6089 0.0000
# 6 0.0000 0.0000 0.0000 -16.7691 0.0000 12.8848
#
#
#
# Elastic Compliance Matrix: (Units=1/GPa)
#
#
# Indices 1 2 3 4 5 6 
#
# 1 0.011046 -0.003496 -0.001274 0.000000 0.004994 0.000000
# 2 -0.003496 0.011218 -0.000491 0.000000 0.009678 0.000000
# 3 -0.001274 -0.000491 0.036145 0.000000 -0.001476 0.000000
# 4 0.000000 0.000000 0.000000 -0.099960 0.000000 -0.130095
# 5 0.004994 0.009678 -0.001476 0.000000 0.059024 0.000000
# 6 0.000000 0.000000 0.000000 -0.130095 0.000000 -0.091703
#
#
# Mechanical properties :
#
#
# Convention : Reuss Voigt Hill
#
# Bulk Modulus (GPa) = 20.88247 43.07010 31.97628
# Shear Modulus (GPa) = -104.72027 23.60735 -40.55646
#
# Velocity S-wave (km/s) = -6.85927 3.25676 -4.26867
# Velocity P-wave (km/s) = 7.30414 5.78730 3.15100
#
# Compressibility (1/GPa) = 0.04788706
#
# Stress axis : x y z
#
# Youngs Moduli (GPa) = 90.53101 89.14342 27.66655
#
# Poissons Ratio (x) = 0.31165 0.03524
# Poissons Ratio (y) = 0.31650 0.01358
# Poissons Ratio (z) = 0.11532 0.04376
#
# Static dielectric constant tensor:
#      x y z
#    x 1.826880 0.000000 0.002500 
#    y 0.000000 1.820000 0.000000 
#    z 0.002500 0.000000 1.904530 
# 
# From -- ./inp_files/124267.got.cif
#   From: 2010.05.17/outbox.cif.g08.bks.cpg/sg15_63_cif.got.tgz:124267.got - 2010.06.03 18:47:42.
