data_PCOD9270196
_publ_section_title
;
Structure prediction by ZEFSAII (Michael W. Deem and Ramdas Pophale) SiO2 
 PCOD9270196
Probable space group: C 2/C
;
_chemical_formula_sum "Si O2"
_cell_formula_units_Z 52
_cell_length_a 15.168597
_cell_length_b 15.584007
_cell_length_c 11.298069
_cell_angle_alpha 90.000000
_cell_angle_beta 47.794972
_cell_angle_gamma 90.000000
_cell_volume 1978.326089
_symmetry_space_group_name_H-M "C 2/C"
_symmetry_group_IT_number 15
_symmetry_cell_setting 'monoclinic'
loop_
_space_group_symop_operation_xyz
x,y,z
-x,y,1/2-z
-x,-y,-z
x,-y,1/2+z
1/2+x,1/2+y,z
1/2-x,1/2+y,1/2-z
1/2-x,1/2-y,-z
1/2+x,1/2-y,1/2+z
loop_
_atom_site_type_symbol
_atom_site_label
_atom_site_fract_x
_atom_site_fract_y
_atom_site_fract_z
Si Si1 0.931949 0.326615 0.973892
Si Si2 0.638445 0.442919 0.106973
Si Si3 0.633549 0.631339 0.087078
Si Si4 0.304419 0.235891 0.796768
Si Si5 0.653755 0.007749 0.417466
Si Si6 0.000000 0.384959 0.250000
Si Si7 0.325937 0.146926 0.307710
O O1 0.886811 0.345950 0.883086
O O2 0.069724 0.296709 0.851950
O O3 0.839036 0.268363 0.129885
O O4 0.919676 0.421154 0.043636
O O5 0.500000 0.426302 0.250000
O O6 0.649369 0.534765 0.032417
O O7 0.719751 0.468408 0.147958
O O8 0.694276 0.367435 0.980479
O O9 0.500000 0.639990 0.250000
O O10 0.700308 0.669249 0.143521
O O11 0.682210 0.691365 0.941257
O O12 0.407843 0.179639 0.767150
O O13 0.583696 0.056116 0.589199
O O14 0.668101 0.064958 0.287188
#
# Coordination Sequence:
#
# PCOD9270196 Si02
#       7
#     8   8   8   8   8   4   8
#     4  10  21  33  57  90 119 156 196 254 309 352
#     4  10  21  36  53  83 124 160 202 236 298 368
#     4  10  21  36  56  86 117 160 202 247 301 349
#     4  11  21  36  58  86 122 151 204 258 299 350
#     4  11  20  32  56  84 123 154 193 252 304 364
#     4  12  20  32  58  92 116 154 196 252 314 348
#     4  10  20  35  56  87 121 157 195 243 307 361
#
# _framework density 26.284849999999999
#
# number of rings (size 3 to 8) (size 9 to 14) (size 15 to 20)
#    0.000    1.538    3.846    3.231    2.154    0.615 
#    0.000    1.538    0.000    0.923    0.000    0.000 
#    0.000    0.000    0.000    0.000    0.000    0.000 
#
# Total GULP energy -144901.842364 kJ/mol
# GULP energy per Si atom -5573.147783 kJ/mol
# Density = 2.622502 g / cm^3
# Si number density = 26.284850 Si / 1000 Ang^3
#
#
#
# Elastic Constant Matrix: (Units=GPa)
#
#
# Indices 1 2 3 4 5 6 
#
# 1 101.7758 44.7384 77.4379 0.0000 -3.0027 0.0000
# 2 44.7384 72.7737 31.7817 0.0000 18.1143 0.0000
# 3 77.4379 31.7817 163.5541 0.0000 1.1057 0.0000
# 4 0.0000 0.0000 0.0000 -21.3705 0.0000 1.1830
# 5 -3.0027 18.1143 1.1057 0.0000 50.8963 0.0000
# 6 0.0000 0.0000 0.0000 1.1830 0.0000 92.7109
#
#
#
# Elastic Compliance Matrix: (Units=1/GPa)
#
#
# Indices 1 2 3 4 5 6 
#
# 1 0.020408 -0.010468 -0.007663 0.000000 0.005096 0.000000
# 2 -0.010468 0.021952 0.000747 0.000000 -0.008447 0.000000
# 3 -0.007663 0.000747 0.009603 0.000000 -0.000927 0.000000
# 4 0.000000 0.000000 0.000000 -0.046760 0.000000 0.000597
# 5 0.005096 -0.008447 -0.000927 0.000000 0.022975 0.000000
# 6 0.000000 0.000000 0.000000 0.000597 0.000000 0.010779
#
#
# Mechanical properties :
#
#
# Convention : Reuss Voigt Hill
#
# Bulk Modulus (GPa) = 58.14867 71.77996 64.96432
# Shear Modulus (GPa) = 62.92877 36.72371 49.82624
#
# Velocity S-wave (km/s) = 4.89827 3.74189 4.35860
# Velocity P-wave (km/s) = 7.35943 6.78504 7.07807
#
# Compressibility (1/GPa) = 0.01719730
#
# Stress axis : x y z
#
# Youngs Moduli (GPa) = 49.00137 45.55290 104.13126
#
# Poissons Ratio (x) = 0.47684 0.79793
# Poissons Ratio (y) = 0.51294 -0.07784
# Poissons Ratio (z) = 0.37548 -0.03405
#
# Static dielectric constant tensor:
#      x y z
#    x 2.207610 0.000000 -0.020580 
#    y 0.000000 2.154740 0.000000 
#    z -0.020580 0.000000 2.057460 
# 
# From -- ./inp_files/107466.got.cif
#   From: 2010.05.17/outbox.cif.g08.bks.cpg/sg15_54_cif.got.tgz:107466.got - 2010.06.03 18:47:42.
