data_PCOD9270733
_publ_section_title
;
Structure prediction by ZEFSAII (Michael W. Deem and Ramdas Pophale) SiO2 
 PCOD9270733
Probable space group: C 2/C
;
_chemical_formula_sum "Si O2"
_cell_formula_units_Z 56
_cell_length_a 9.243825
_cell_length_b 23.317551
_cell_length_c 13.580227
_cell_angle_alpha 90.000000
_cell_angle_beta 75.571122
_cell_angle_gamma 90.000000
_cell_volume 2834.799410
_symmetry_space_group_name_H-M "C 2/C"
_symmetry_group_IT_number 15
_symmetry_cell_setting 'monoclinic'
loop_
_space_group_symop_operation_xyz
x,y,z
-x,y,1/2-z
-x,-y,-z
x,-y,1/2+z
1/2+x,1/2+y,z
1/2-x,1/2+y,1/2-z
1/2-x,1/2-y,-z
1/2+x,1/2-y,1/2+z
loop_
_atom_site_type_symbol
_atom_site_label
_atom_site_fract_x
_atom_site_fract_y
_atom_site_fract_z
Si Si1 0.500137 0.253754 0.052601
Si Si2 0.854218 0.152548 0.707538
Si Si3 0.409601 0.127462 0.040584
Si Si4 0.235222 0.244766 0.340206
Si Si5 0.326515 0.632083 0.257371
Si Si6 0.141067 0.564125 0.653443
Si Si7 0.369552 0.068293 0.355322
O O1 0.404051 0.307301 0.106951
O O2 0.414182 0.196151 0.039462
O O3 0.609480 0.238835 0.126387
O O4 0.605646 0.266083 0.941449
O O5 0.741279 0.192198 0.791064
O O6 0.778544 0.094396 0.685206
O O7 0.000000 0.142579 0.750000
O O8 0.271898 0.110463 0.134433
O O9 0.560685 0.102523 0.064938
O O10 0.392121 0.101301 0.936913
O O11 0.218651 0.197644 0.258744
O O12 0.500000 0.627433 0.250000
O O13 0.272847 0.598319 0.169382
O O14 0.163654 0.498054 0.619195
O O15 0.000000 0.565471 0.750000
O O16 0.500000 0.071280 0.250000
#
# Coordination Sequence:
#
# PCOD9270733 Si02
#       7
#     8   8   8   8   8   8   8
#     4  10  20  35  63  88 118 162 201 240 311 368
#     4  10  22  39  60  88 128 163 194 249 316 370
#     4  11  21  40  67  88 117 165 207 251 302 368
#     4  10  20  37  59  90 121 160 200 244 303 375
#     4  11  23  38  63  93 121 154 208 259 304 358
#     4  11  24  41  61  93 124 159 211 256 300 363
#     4   9  21  42  66  85 119 165 208 255 304 362
#
# _framework density 19.754484000000001
#
# number of rings (size 3 to 8) (size 9 to 14) (size 15 to 20)
#    0.000    1.714    2.857    1.286    2.000    2.857 
#    0.000    0.714    0.000    0.000    0.000    0.000 
#    0.000    0.000    0.000    0.000    0.000    0.000 
#
# Total GULP energy -156425.868168 kJ/mol
# GULP energy per Si atom -5586.638149 kJ/mol
# Density = 1.970952 g / cm^3
# Si number density = 19.754484 Si / 1000 Ang^3
#
#
#
# Elastic Constant Matrix: (Units=GPa)
#
#
# Indices 1 2 3 4 5 6 
#
# 1 54.7627 19.4298 10.2402 0.0000 3.0095 0.0000
# 2 19.4298 64.0157 -5.8882 0.0000 7.3617 0.0000
# 3 10.2402 -5.8882 63.8872 0.0000 1.3131 0.0000
# 4 0.0000 0.0000 0.0000 11.0791 0.0000 4.4443
# 5 3.0095 7.3617 1.3131 0.0000 21.9079 0.0000
# 6 0.0000 0.0000 0.0000 4.4443 0.0000 3.3504
#
#
#
# Elastic Compliance Matrix: (Units=1/GPa)
#
#
# Indices 1 2 3 4 5 6 
#
# 1 0.021471 -0.006844 -0.004064 0.000000 -0.000406 0.000000
# 2 -0.006844 0.018598 0.002924 0.000000 -0.005485 0.000000
# 3 -0.004064 0.002924 0.016603 0.000000 -0.001419 0.000000
# 4 0.000000 0.000000 0.000000 0.192910 0.000000 -0.255896
# 5 -0.000406 -0.005485 -0.001419 0.000000 0.047629 0.000000
# 6 0.000000 0.000000 0.000000 -0.255896 0.000000 0.637923
#
#
# Mechanical properties :
#
#
# Convention : Reuss Voigt Hill
#
# Bulk Modulus (GPa) = 24.56780 25.58101 25.07441
# Shear Modulus (GPa) = 5.18312 17.85972 11.52142
#
# Velocity S-wave (km/s) = 1.62156 3.01006 2.41764
# Velocity P-wave (km/s) = 3.99619 5.00582 4.52922
#
# Compressibility (1/GPa) = 0.04070368
#
# Stress axis : x y z
#
# Youngs Moduli (GPa) = 46.57431 53.76913 60.23149
#
# Poissons Ratio (x) = 0.36799 0.24478
# Poissons Ratio (y) = 0.31875 -0.17610
# Poissons Ratio (z) = 0.18927 -0.15721
#
# Static dielectric constant tensor:
#      x y z
#    x 1.695680 0.000000 -0.007810 
#    y 0.000000 1.683880 0.000000 
#    z -0.007810 0.000000 1.694270 
# 
# From -- ./inp_files/136472.got.cif
#   From: 2010.05.17/outbox.cif.g08.bks.cpg/sg15_69_cif.got.tgz:136472.got - 2010.06.03 18:47:42.
