data_PCOD9270162
_publ_section_title
;
Structure prediction by ZEFSAII (Michael W. Deem and Ramdas Pophale) SiO2 
 PCOD9270162
Probable space group: C 2/C
;
_chemical_formula_sum "Si O2"
_cell_formula_units_Z 64
_cell_length_a 22.613761
_cell_length_b 19.848767
_cell_length_c 27.227825
_cell_angle_alpha 90.000000
_cell_angle_beta 17.236946
_cell_angle_gamma 90.000000
_cell_volume 3621.479911
_symmetry_space_group_name_H-M "C 2/C"
_symmetry_group_IT_number 15
_symmetry_cell_setting 'monoclinic'
loop_
_space_group_symop_operation_xyz
x,y,z
-x,y,1/2-z
-x,-y,-z
x,-y,1/2+z
1/2+x,1/2+y,z
1/2-x,1/2+y,1/2-z
1/2-x,1/2-y,-z
1/2+x,1/2-y,1/2+z
loop_
_atom_site_type_symbol
_atom_site_label
_atom_site_fract_x
_atom_site_fract_y
_atom_site_fract_z
Si Si1 0.204666 0.177630 0.432203
Si Si2 0.965656 0.322471 0.051732
Si Si3 0.810424 0.539716 0.128606
Si Si4 0.945714 0.039780 0.493360
Si Si5 0.931655 0.538435 0.250325
Si Si6 0.843146 0.177535 0.793708
Si Si7 0.796154 0.961571 0.385838
Si Si8 0.896021 0.822386 0.086605
O O1 0.354108 0.115328 0.315547
O O2 0.310080 0.250051 0.344874
O O3 0.051565 0.175520 0.599121
O O4 0.070385 0.169658 0.489368
O O5 0.831220 0.330471 0.109038
O O6 0.810707 0.324863 0.219613
O O7 0.120529 0.383283 0.931831
O O8 0.069636 0.250075 0.965053
O O9 0.628236 0.533694 0.310907
O O10 0.750734 0.506172 0.124638
O O11 0.000000 0.500000 0.000000
O O12 0.911247 0.116800 0.536464
O O13 0.750865 0.006182 0.624526
O O14 0.000000 0.000000 0.500000
O O15 0.000000 0.516382 0.250000
O O16 0.113865 0.534806 0.068088
O O17 0.824779 0.115266 0.844867
O O18 0.000000 0.983659 0.250000
#
# Coordination Sequence:
#
# PCOD9270162 Si02
#       8
#     8   8   8   8   8   8   8   8
#     4  10  20  35  56  83 118 156 198 240 288 346
#     4  10  20  35  58  88 121 154 193 242 294 345
#     4  12  23  38  61  89 119 155 198 244 294 347
#     4  12  23  38  61  89 119 155 198 244 294 347
#     4  12  25  41  60  84 118 157 199 245 296 351
#     4  10  20  35  56  83 118 156 198 240 288 346
#     4  12  25  41  60  84 118 157 199 245 296 351
#     4  10  20  35  58  88 121 154 193 242 294 345
#
# _framework density 17.672332999999998
#
# number of rings (size 3 to 8) (size 9 to 14) (size 15 to 20)
#    0.000    1.000    2.500    6.000    0.000    2.500 
#    0.000    2.500    0.000    0.750    0.000    5.250 
#    0.000    0.000    0.000    0.000    0.000    0.000 
#
# Total GULP energy -179023.866353 kJ/mol
# GULP energy per Si atom -5594.495824 kJ/mol
# Density = 1.763211 g / cm^3
# Si number density = 17.672333 Si / 1000 Ang^3
#
#
#
# Elastic Constant Matrix: (Units=GPa)
#
#
# Indices 1 2 3 4 5 6 
#
# 1 121.8607 68.5131 82.9769 -0.0172 4.9897 0.0040
# 2 68.5131 123.5198 69.3004 -0.0943 0.3065 0.0087
# 3 82.9769 69.3004 173.1058 -0.0541 12.6247 -0.0528
# 4 -0.0172 -0.0943 -0.0541 35.4571 -0.0119 6.7619
# 5 4.9897 0.3065 12.6247 -0.0119 29.2753 -0.0038
# 6 0.0040 0.0087 -0.0528 6.7619 -0.0038 15.4886
#
#
#
# Elastic Compliance Matrix: (Units=1/GPa)
#
#
# Indices 1 2 3 4 5 6 
#
# 1 0.014480 -0.005353 -0.004772 -0.000012 -0.000354 -0.000012
# 2 -0.005353 0.012508 -0.002579 0.000033 0.001894 -0.000028
# 3 -0.004772 -0.002579 0.009329 -0.000003 -0.003183 0.000035
# 4 -0.000012 0.000033 -0.000003 0.030765 0.000014 -0.013431
# 5 -0.000354 0.001894 -0.003183 0.000014 0.035571 -0.000009
# 6 -0.000012 -0.000028 0.000035 -0.013431 -0.000009 0.070427
#
#
# Mechanical properties :
#
#
# Convention : Reuss Voigt Hill
#
# Bulk Modulus (GPa) = 91.68182 95.56300 93.62241
# Shear Modulus (GPa) = 24.73732 29.22393 26.98062
#
# Velocity S-wave (km/s) = 3.74542 4.07093 3.91156
# Velocity P-wave (km/s) = 8.40807 8.73435 8.57276
#
# Compressibility (1/GPa) = 0.01090729
#
# Stress axis : x y z
#
# Youngs Moduli (GPa) = 69.06313 79.95097 107.19532
#
# Poissons Ratio (x) = 0.42801 0.51150
# Poissons Ratio (y) = 0.36972 0.27649
# Poissons Ratio (z) = 0.32955 0.20621
#
# Static dielectric constant tensor:
#      x y z
#    x 1.602230 -0.000080 -0.005840 
#    y -0.000080 1.587530 0.000120 
#    z -0.005840 0.000120 1.583200 
# 
# From -- ./inp_files/70569.got.cif
#   From: 2010.05.17/outbox.cif.g08.bks.cpg/sg15_36_cif.got.tgz:70569.got - 2010.06.03 18:47:42.
