data_PCOD9270986
_publ_section_title
;
Structure prediction by ZEFSAII (Michael W. Deem and Ramdas Pophale) SiO2 
 PCOD9270986
Probable space group: C 2/C
;
_chemical_formula_sum "Si O2"
_cell_formula_units_Z 60
_cell_length_a 14.952804
_cell_length_b 25.891990
_cell_length_c 17.431297
_cell_angle_alpha 90.000000
_cell_angle_beta 149.804773
_cell_angle_gamma 90.000000
_cell_volume 3394.226450
_symmetry_space_group_name_H-M "C 2/C"
_symmetry_group_IT_number 15
_symmetry_cell_setting 'monoclinic'
loop_
_space_group_symop_operation_xyz
x,y,z
-x,y,1/2-z
-x,-y,-z
x,-y,1/2+z
1/2+x,1/2+y,z
1/2-x,1/2+y,1/2-z
1/2-x,1/2-y,-z
1/2+x,1/2-y,1/2+z
loop_
_atom_site_type_symbol
_atom_site_label
_atom_site_fract_x
_atom_site_fract_y
_atom_site_fract_z
Si Si1 0.879606 0.947942 0.923825
Si Si2 0.495901 0.952712 0.556193
Si Si3 0.179646 0.595710 0.934428
Si Si4 0.000000 0.756500 0.750000
Si Si5 0.543709 0.865695 0.093459
Si Si6 0.882976 0.733164 0.497523
Si Si7 0.882148 0.852877 0.455795
Si Si8 0.694881 0.021982 0.434576
O O1 0.691823 0.952073 0.739781
O O2 0.826927 0.948542 0.975166
O O3 0.972942 0.894960 0.964633
O O4 0.000000 0.000000 0.000000
O O5 0.447848 0.902622 0.472009
O O6 0.348049 0.958565 0.512536
O O7 0.500000 0.000000 0.500000
O O8 0.318602 0.631554 0.994067
O O9 0.251624 0.537618 0.984206
O O10 0.000000 0.596857 0.750000
O O11 0.114263 0.612218 0.969342
O O12 0.062318 0.726337 0.872096
O O13 0.824136 0.782223 0.653082
O O14 0.493409 0.807971 0.032651
O O15 0.719587 0.862604 0.276081
O O16 0.912047 0.791147 0.487596
O O17 0.500000 0.021773 0.250000
#
# Coordination Sequence:
#
# PCOD9270986 Si02
#       8
#     8   8   8   4   8   8   8   8
#     4  11  22  38  59  85 113 151 196 238 288 347
#     4  11  22  38  59  85 113 151 196 238 288 347
#     4   9  16  30  54  78 111 156 181 218 282 340
#     4  10  20  36  56  82 122 156 200 234 284 352
#     4  11  22  37  57  81 119 158 192 234 287 345
#     4  11  22  36  54  85 120 158 196 239 290 349
#     4  11  22  37  57  81 119 158 192 234 287 345
#     4   9  18  36  56  79 114 151 186 230 289 340
#
# _framework density 17.677074999999999
#
# number of rings (size 3 to 8) (size 9 to 14) (size 15 to 20)
#    0.000    1.600    4.000    2.400    3.733    0.000 
#    0.000    4.000    0.000    0.800    0.000    0.000 
#    0.000    0.000    0.000    0.000    0.000    0.000 
#
# Total GULP energy -167179.849059 kJ/mol
# GULP energy per Si atom -5572.661635 kJ/mol
# Density = 1.763684 g / cm^3
# Si number density = 17.677075 Si / 1000 Ang^3
#
#
#
# Elastic Constant Matrix: (Units=GPa)
#
#
# Indices 1 2 3 4 5 6 
#
# 1 123.7039 66.1374 20.1739 0.0000 -5.3550 0.0000
# 2 66.1374 127.3616 21.7015 0.0000 -3.0663 0.0000
# 3 20.1739 21.7015 53.9355 0.0000 1.4133 0.0000
# 4 0.0000 0.0000 0.0000 17.1390 0.0000 4.6030
# 5 -5.3550 -3.0663 1.4133 0.0000 23.7516 0.0000
# 6 0.0000 0.0000 0.0000 4.6030 0.0000 24.3460
#
#
#
# Elastic Compliance Matrix: (Units=1/GPa)
#
#
# Indices 1 2 3 4 5 6 
#
# 1 0.011485 -0.005556 -0.002113 0.000000 0.001998 0.000000
# 2 -0.005556 0.011157 -0.002420 0.000000 0.000332 0.000000
# 3 -0.002113 -0.002420 0.020357 0.000000 -0.002000 0.000000
# 4 0.000000 0.000000 0.000000 0.061468 0.000000 -0.011622
# 5 0.001998 0.000332 -0.002000 0.000000 0.042715 0.000000
# 6 0.000000 0.000000 0.000000 -0.011622 0.000000 0.043272
#
#
# Mechanical properties :
#
#
# Convention : Reuss Voigt Hill
#
# Bulk Modulus (GPa) = 43.81673 57.89183 50.85428
# Shear Modulus (GPa) = 22.91074 26.17986 24.54530
#
# Velocity S-wave (km/s) = 3.60400 3.85256 3.73035
# Velocity P-wave (km/s) = 6.49304 7.25330 6.88368
#
# Compressibility (1/GPa) = 0.02282233
#
# Stress axis : x y z
#
# Youngs Moduli (GPa) = 87.06700 89.62835 49.12337
#
# Poissons Ratio (x) = 0.49799 0.10379
# Poissons Ratio (y) = 0.48376 0.11886
# Poissons Ratio (z) = 0.18395 0.21687
#
# Static dielectric constant tensor:
#      x y z
#    x 1.596440 0.000000 0.006970 
#    y 0.000000 1.631220 0.000000 
#    z 0.006970 0.000000 1.655650 
# 
# From -- ./inp_files/42255.got.cif
#   From: 2010.05.17/outbox.cif.g08.bks.cpg/sg15_22_cif.got.tgz:42255.got - 2010.06.03 18:47:42.
