data_PCOD9270408
_publ_section_title
;
Structure prediction by ZEFSAII (Michael W. Deem and Ramdas Pophale) SiO2 
 PCOD9270408
Probable space group: C 2/C
;
_chemical_formula_sum "Si O2"
_cell_formula_units_Z 48
_cell_length_a 5.345505
_cell_length_b 23.122209
_cell_length_c 21.159035
_cell_angle_alpha 90.000000
_cell_angle_beta 59.032935
_cell_angle_gamma 90.000000
_cell_volume 2242.484334
_symmetry_space_group_name_H-M "C 2/C"
_symmetry_group_IT_number 15
_symmetry_cell_setting 'monoclinic'
loop_
_space_group_symop_operation_xyz
x,y,z
-x,y,1/2-z
-x,-y,-z
x,-y,1/2+z
1/2+x,1/2+y,z
1/2-x,1/2+y,1/2-z
1/2-x,1/2-y,-z
1/2+x,1/2-y,1/2+z
loop_
_atom_site_type_symbol
_atom_site_label
_atom_site_fract_x
_atom_site_fract_y
_atom_site_fract_z
Si Si1 0.284603 0.816536 0.977675
Si Si2 0.721115 0.364280 0.673437
Si Si3 0.171486 0.390682 0.288119
Si Si4 0.662669 0.123339 0.537245
Si Si5 0.912539 0.044775 0.408837
Si Si6 0.066173 0.513461 0.336983
O O1 0.508783 0.828985 0.890558
O O2 0.250000 0.750000 0.000000
O O3 0.435062 0.848805 0.017493
O O4 0.965372 0.841655 0.004490
O O5 0.500000 0.333618 0.750000
O O6 0.561450 0.394277 0.633723
O O7 0.835324 0.421903 0.695323
O O8 0.500000 0.368335 0.250000
O O9 0.000000 0.367634 0.250000
O O10 0.989817 0.380626 0.375337
O O11 0.184764 0.460776 0.281055
O O12 0.762102 0.062922 0.493193
O O13 0.291238 0.991217 0.611924
O O14 0.218883 0.015001 0.380511
#
# Coordination Sequence:
#
# PCOD9270408 Si02
#       6
#     8   8   8   8   8   8
#     4  11  23  44  68  94 121 169 214 269 335 382
#     4   9  20  36  60  92 127 156 204 265 320 366
#     4  12  26  40  61  94 130 180 218 251 308 379
#     4  11  22  45  64  89 127 166 210 269 319 386
#     4   9  19  35  58  88 118 163 202 247 318 366
#     4  10  20  35  58  88 129 163 208 247 307 371
#
# _framework density 21.404831000000001
#
# number of rings (size 3 to 8) (size 9 to 14) (size 15 to 20)
#    1.000    0.667    1.667    3.000    2.333    1.333 
#    0.000    2.500    0.000    2.000    0.000    0.000 
#    0.000    0.000    0.000    0.000    0.000    0.000 
#
# Total GULP energy -133966.991386 kJ/mol
# GULP energy per Si atom -5581.957974 kJ/mol
# Density = 2.135611 g / cm^3
# Si number density = 21.404831 Si / 1000 Ang^3
#
#
#
# Elastic Constant Matrix: (Units=GPa)
#
#
# Indices 1 2 3 4 5 6 
#
# 1 134.8978 -8.8754 18.2850 0.0000 -9.5605 0.0000
# 2 -8.8754 16.7311 -6.9804 0.0000 -7.6639 0.0000
# 3 18.2850 -6.9804 144.0635 0.0000 -11.3677 0.0000
# 4 0.0000 0.0000 0.0000 11.5741 0.0000 1.4932
# 5 -9.5605 -7.6639 -11.3677 0.0000 33.4354 0.0000
# 6 0.0000 0.0000 0.0000 1.4932 0.0000 1.6506
#
#
#
# Elastic Compliance Matrix: (Units=1/GPa)
#
#
# Indices 1 2 3 4 5 6 
#
# 1 0.008096 0.005676 -0.000480 0.000000 0.003453 0.000000
# 2 0.005676 0.073817 0.004439 0.000000 0.020052 0.000000
# 3 -0.000480 0.004439 0.007488 0.000000 0.003426 0.000000
# 4 0.000000 0.000000 0.000000 0.097816 0.000000 -0.088485
# 5 0.003453 0.020052 0.003426 0.000000 0.036657 0.000000
# 6 0.000000 0.000000 0.000000 -0.088485 0.000000 0.685876
#
#
# Mechanical properties :
#
#
# Convention : Reuss Voigt Hill
#
# Bulk Modulus (GPa) = 9.20218 33.39454 21.29836
# Shear Modulus (GPa) = 5.39547 28.88290 17.13919
#
# Velocity S-wave (km/s) = 1.58939 3.67735 2.83276
# Velocity P-wave (km/s) = 2.77068 5.80223 4.54656
#
# Compressibility (1/GPa) = 0.10866989
#
# Stress axis : x y z
#
# Youngs Moduli (GPa) = 123.51380 13.54706 133.55209
#
# Poissons Ratio (x) = -0.07690 0.06412
# Poissons Ratio (y) = -0.70108 -0.59278
# Poissons Ratio (z) = 0.05930 -0.06013
#
# Static dielectric constant tensor:
#      x y z
#    x 1.793540 0.000000 -0.000530 
#    y 0.000000 1.789060 0.000000 
#    z -0.000530 0.000000 1.817220 
# 
# From -- ./inp_files/185467.got.cif
#   From: 2010.05.17/outbox.cif.g08.bks.cpg/sg15_93_cif.got.tgz:185467.got - 2010.06.03 18:47:42.
