data_PCOD9270783
_publ_section_title
;
Structure prediction by ZEFSAII (Michael W. Deem and Ramdas Pophale) SiO2 
 PCOD9270783
Probable space group: C 2/C
;
_chemical_formula_sum "Si O2"
_cell_formula_units_Z 64
_cell_length_a 6.431212
_cell_length_b 29.759285
_cell_length_c 17.711409
_cell_angle_alpha 90.000000
_cell_angle_beta 83.260512
_cell_angle_gamma 90.000000
_cell_volume 3366.332744
_symmetry_space_group_name_H-M "C 2/C"
_symmetry_group_IT_number 15
_symmetry_cell_setting 'monoclinic'
loop_
_space_group_symop_operation_xyz
x,y,z
-x,y,1/2-z
-x,-y,-z
x,-y,1/2+z
1/2+x,1/2+y,z
1/2-x,1/2+y,1/2-z
1/2-x,1/2-y,-z
1/2+x,1/2-y,1/2+z
loop_
_atom_site_type_symbol
_atom_site_label
_atom_site_fract_x
_atom_site_fract_y
_atom_site_fract_z
Si Si1 0.465727 0.707855 0.661741
Si Si2 0.205589 0.482045 0.449073
Si Si3 0.701913 0.875248 0.103127
Si Si4 0.677125 0.172599 0.954437
Si Si5 0.186996 0.283212 0.934883
Si Si6 0.591646 0.544047 0.410030
Si Si7 0.402775 0.967705 0.334766
Si Si8 0.473260 0.634225 0.450266
O O1 0.500000 0.706501 0.750000
O O2 0.326664 0.665473 0.638125
O O3 0.684478 0.703951 0.606299
O O4 0.354870 0.753211 0.636733
O O5 0.367062 0.520194 0.417140
O O6 0.331699 0.454108 0.505824
O O7 0.000000 0.500000 0.500000
O O8 0.102075 0.460392 0.381111
O O9 0.468862 0.857788 0.093453
O O10 0.717774 0.920581 0.150889
O O11 0.799660 0.885158 0.016191
O O12 0.522438 0.195703 0.020836
O O13 0.841932 0.148188 0.001367
O O14 0.361484 0.322089 0.919493
O O15 0.250000 0.250000 0.000000
O O16 0.756720 0.510233 0.363637
O O17 0.556517 0.595867 0.390333
O O18 0.500000 0.975439 0.250000
#
# Coordination Sequence:
#
# PCOD9270783 Si02
#       8
#     8   8   8   8   8   8   8   8
#     4  11  24  38  58  90 128 162 195 246 313 373
#     4   9  18  35  61  82 116 152 196 247 294 354
#     4  10  21  37  54  91 124 157 202 241 299 378
#     4  10  20  36  66  88 121 160 194 250 300 364
#     4  11  20  40  60  92 119 152 211 251 301 365
#     4  10  20  38  59  88 114 158 206 252 292 349
#     4  11  24  37  56  88 129 163 197 244 309 368
#     4  10  20  35  65  90 112 155 212 258 293 349
#
# _framework density 19.011786000000001
#
# number of rings (size 3 to 8) (size 9 to 14) (size 15 to 20)
#    0.000    1.750    3.750    3.375    1.750    4.500 
#    0.000    0.000    0.000    4.500    0.000    0.000 
#    0.000    0.000    0.000    0.000    0.000    0.000 
#
# Total GULP energy -178306.933984 kJ/mol
# GULP energy per Si atom -5572.091687 kJ/mol
# Density = 1.896851 g / cm^3
# Si number density = 19.011786 Si / 1000 Ang^3
#
#
#
# Elastic Constant Matrix: (Units=GPa)
#
#
# Indices 1 2 3 4 5 6 
#
# 1 81.2985 43.6028 15.1595 0.0000 3.4178 0.0000
# 2 43.6028 142.1460 46.3796 0.0000 -2.5752 0.0000
# 3 15.1595 46.3796 74.4325 0.0000 2.8604 0.0000
# 4 0.0000 0.0000 0.0000 15.3344 0.0000 -3.9918
# 5 3.4178 -2.5752 2.8604 0.0000 12.4713 0.0000
# 6 0.0000 0.0000 0.0000 -3.9918 0.0000 10.8409
#
#
#
# Elastic Compliance Matrix: (Units=1/GPa)
#
#
# Indices 1 2 3 4 5 6 
#
# 1 0.015038 -0.004733 0.000083 0.000000 -0.005118 0.000000
# 2 -0.004733 0.010441 -0.005725 0.000000 0.004766 0.000000
# 3 0.000083 -0.005725 0.017183 0.000000 -0.005146 0.000000
# 4 0.000000 0.000000 0.000000 0.072126 0.000000 0.026558
# 5 -0.005118 0.004766 -0.005146 0.000000 0.083751 0.000000
# 6 0.000000 0.000000 0.000000 0.026558 0.000000 0.102023
#
#
# Mechanical properties :
#
#
# Convention : Reuss Voigt Hill
#
# Bulk Modulus (GPa) = 45.63583 56.46231 51.04907
# Shear Modulus (GPa) = 15.21525 20.57833 17.89679
#
# Velocity S-wave (km/s) = 2.83204 3.29355 3.07148
# Velocity P-wave (km/s) = 5.89491 6.65029 6.28396
#
# Compressibility (1/GPa) = 0.02191261
#
# Stress axis : x y z
#
# Youngs Moduli (GPa) = 66.49680 95.77495 58.19589
#
# Poissons Ratio (x) = 0.45327 -0.00482
# Poissons Ratio (y) = 0.31471 0.33319
# Poissons Ratio (z) = -0.00551 0.54834
#
# Static dielectric constant tensor:
#      x y z
#    x 1.515650 0.000000 -0.079090 
#    y 0.000000 1.752000 0.000000 
#    z -0.079090 0.000000 1.646380 
# 
# From -- ./inp_files/186734.got.cif
#   From: 2010.05.17/outbox.cif.g08.bks.cpg/sg15_94_cif.got.tgz:186734.got - 2010.06.03 18:47:42.
