data_PCOD9270569
_publ_section_title
;
Structure prediction by ZEFSAII (Michael W. Deem and Ramdas Pophale) SiO2 
 PCOD9270569
Probable space group: C 2/C
;
_chemical_formula_sum "Si O2"
_cell_formula_units_Z 56
_cell_length_a 20.652563
_cell_length_b 13.351278
_cell_length_c 20.797637
_cell_angle_alpha 90.000000
_cell_angle_beta 25.827454
_cell_angle_gamma 90.000000
_cell_volume 2498.393931
_symmetry_space_group_name_H-M "C 2/C"
_symmetry_group_IT_number 15
_symmetry_cell_setting 'monoclinic'
loop_
_space_group_symop_operation_xyz
x,y,z
-x,y,1/2-z
-x,-y,-z
x,-y,1/2+z
1/2+x,1/2+y,z
1/2-x,1/2+y,1/2-z
1/2-x,1/2-y,-z
1/2+x,1/2-y,1/2+z
loop_
_atom_site_type_symbol
_atom_site_label
_atom_site_fract_x
_atom_site_fract_y
_atom_site_fract_z
Si Si1 0.941930 0.441178 0.875667
Si Si2 0.104895 0.557869 0.356838
Si Si3 0.689844 0.721614 0.472724
Si Si4 0.000000 0.762466 0.750000
Si Si5 0.706377 0.142085 0.466599
Si Si6 0.500000 0.711600 0.750000
Si Si7 0.155851 0.748144 0.377566
Si Si8 0.612976 0.347119 0.898900
O O1 0.068397 0.466059 0.815935
O O2 0.000000 0.449868 0.750000
O O3 0.872032 0.333875 0.958128
O O4 0.819309 0.525091 0.000640
O O5 0.076586 0.675992 0.395767
O O6 0.281736 0.559270 0.213763
O O7 0.000000 0.500000 0.500000
O O8 0.596394 0.657961 0.608870
O O9 0.864973 0.730032 0.332899
O O10 0.654792 0.678492 0.434675
O O11 0.902108 0.694484 0.884798
O O12 0.122754 0.828422 0.676228
O O13 0.658277 0.188827 0.441691
O O14 0.322845 0.745784 0.201761
O O15 0.060320 0.848186 0.461695
#
# Coordination Sequence:
#
# PCOD9270569 Si02
#       8
#     8   8   8   4   8   4   8   8
#     4  12  22  37  60  95 127 170 208 261 323 381
#     4  10  21  38  60  90 124 165 215 268 310 381
#     4  11  20  36  53  85 124 164 214 253 305 385
#     4  10  24  42  64  96 122 158 216 278 324 404
#     4  11  22  41  67  91 123 163 214 266 335 386
#     4  10  22  32  52  78 120 172 210 246 302 364
#     4  10  20  36  64  90 118 166 214 261 314 383
#     4  10  20  35  60  90 118 166 215 262 309 379
#
# _framework density 22.414400000000001
#
# number of rings (size 3 to 8) (size 9 to 14) (size 15 to 20)
#    0.857    0.571    4.286    2.571    2.000    0.571 
#    0.000    0.000    0.000    0.857    0.000    0.000 
#    0.000    0.000    0.000    0.000    0.000    0.000 
#
# Total GULP energy -155910.729180 kJ/mol
# GULP energy per Si atom -5568.240328 kJ/mol
# Density = 2.236338 g / cm^3
# Si number density = 22.414400 Si / 1000 Ang^3
#
#
#
# Elastic Constant Matrix: (Units=GPa)
#
#
# Indices 1 2 3 4 5 6 
#
# 1 111.6228 5.0943 31.5204 0.0009 14.0782 -0.0002
# 2 5.0943 54.2043 23.3250 0.0012 -8.1059 -0.0005
# 3 31.5204 23.3250 114.1609 0.0030 -1.4640 -0.0012
# 4 0.0009 0.0012 0.0030 16.7873 -0.0008 1.1741
# 5 14.0782 -8.1059 -1.4640 -0.0008 41.9676 0.0003
# 6 -0.0002 -0.0005 -0.0012 1.1741 0.0003 15.2119
#
#
#
# Elastic Compliance Matrix: (Units=1/GPa)
#
#
# Indices 1 2 3 4 5 6 
#
# 1 0.010216 -0.000287 -0.002808 0.000000 -0.003581 0.000000
# 2 -0.000287 0.020848 -0.004129 -0.000001 0.003979 0.000000
# 3 -0.002808 -0.004129 0.010385 -0.000001 0.000507 0.000001
# 4 0.000000 -0.000001 -0.000001 0.059892 0.000001 -0.004623
# 5 -0.003581 0.003979 0.000507 0.000001 0.025815 0.000000
# 6 0.000000 0.000000 0.000001 -0.004623 0.000000 0.066095
#
#
# Mechanical properties :
#
#
# Convention : Reuss Voigt Hill
#
# Bulk Modulus (GPa) = 37.03695 44.42972 40.73334
# Shear Modulus (GPa) = 23.07334 29.46323 26.26828
#
# Velocity S-wave (km/s) = 3.21190 3.62951 3.42707
# Velocity P-wave (km/s) = 5.50588 6.11796 5.81997
#
# Compressibility (1/GPa) = 0.02700006
#
# Stress axis : x y z
#
# Youngs Moduli (GPa) = 97.88205 47.96720 96.29248
#
# Poissons Ratio (x) = 0.01378 0.27039
# Poissons Ratio (y) = 0.02812 0.39761
# Poissons Ratio (z) = 0.27485 0.19806
#
# Static dielectric constant tensor:
#      x y z
#    x 1.844180 0.000000 0.013580 
#    y 0.000000 1.912040 0.000000 
#    z 0.013580 0.000000 1.893360 
# 
# From -- ./inp_files/282194.got.cif
#   From: 2010.05.17/outbox.cif.g08.bks.cpg/sg15_142_cif.got.tgz:282194.got - 2010.06.03 18:47:42.
