data_PCOD9270640
_publ_section_title
;
Structure prediction by ZEFSAII (Michael W. Deem and Ramdas Pophale) SiO2 
 PCOD9270640
Probable space group: C 2/C
;
_chemical_formula_sum "Si O2"
_cell_formula_units_Z 56
_cell_length_a 24.528265
_cell_length_b 20.894109
_cell_length_c 8.094278
_cell_angle_alpha 90.000000
_cell_angle_beta 37.634776
_cell_angle_gamma 90.000000
_cell_volume 2533.051670
_symmetry_space_group_name_H-M "C 2/C"
_symmetry_group_IT_number 15
_symmetry_cell_setting 'monoclinic'
loop_
_space_group_symop_operation_xyz
x,y,z
-x,y,1/2-z
-x,-y,-z
x,-y,1/2+z
1/2+x,1/2+y,z
1/2-x,1/2+y,1/2-z
1/2-x,1/2-y,-z
1/2+x,1/2-y,1/2+z
loop_
_atom_site_type_symbol
_atom_site_label
_atom_site_fract_x
_atom_site_fract_y
_atom_site_fract_z
Si Si1 0.570182 0.024634 0.193072
Si Si2 0.966442 0.729846 0.602547
Si Si3 0.090622 0.865855 0.598882
Si Si4 0.135626 0.730938 0.994846
Si Si5 0.856029 0.610164 0.983811
Si Si6 0.282773 0.681201 0.989319
Si Si7 0.730129 0.894748 0.178568
O O1 0.500000 0.064564 0.250000
O O2 0.500000 0.000000 0.500000
O O3 0.601120 0.955229 0.057454
O O4 0.662777 0.063810 0.957345
O O5 0.942094 0.797687 0.744346
O O6 0.919158 0.731791 0.539754
O O7 0.070004 0.719767 0.308182
O O8 0.925102 0.668303 0.790708
O O9 0.146635 0.848544 0.301871
O O10 0.163606 0.901852 0.540980
O O11 0.000000 0.899301 0.750000
O O12 0.176954 0.799696 0.929694
O O13 0.209829 0.677649 0.786600
O O14 0.793269 0.632671 0.281663
O O15 0.805643 0.597876 0.925930
O O16 0.250000 0.750000 0.000000
#
# Coordination Sequence:
#
# PCOD9270640 Si02
#       7
#     8   8   8   8   8   8   8
#     4  12  26  45  70 103 132 171 220 270 336 402
#     4  10  20  36  59  93 134 172 208 261 333 408
#     4  12  24  39  61  93 131 173 222 278 325 383
#     4  10  20  35  61  89 131 175 212 257 330 405
#     4  11  24  41  64  95 137 174 211 267 341 399
#     4  12  22  36  60  97 127 168 218 275 332 385
#     4  11  24  43  63  91 139 178 220 268 331 397
#
# _framework density 22.10772
#
# number of rings (size 3 to 8) (size 9 to 14) (size 15 to 20)
#    0.000    0.857    5.714    1.714    4.000    4.000 
#    0.000    0.000    0.000    3.429    0.000    0.000 
#    0.000    0.000    0.000    0.000    0.000    0.000 
#
# Total GULP energy -156122.672602 kJ/mol
# GULP energy per Si atom -5575.809736 kJ/mol
# Density = 2.205740 g / cm^3
# Si number density = 22.107720 Si / 1000 Ang^3
#
#
#
# Elastic Constant Matrix: (Units=GPa)
#
#
# Indices 1 2 3 4 5 6 
#
# 1 114.9230 14.6358 28.7392 0.0000 -25.9084 0.0000
# 2 14.6358 33.4538 14.7809 0.0000 -2.7696 0.0000
# 3 28.7392 14.7809 119.3192 0.0000 -8.1394 0.0000
# 4 0.0000 0.0000 0.0000 34.6397 0.0000 0.0610
# 5 -25.9084 -2.7696 -8.1394 0.0000 38.2767 0.0000
# 6 0.0000 0.0000 0.0000 0.0610 0.0000 14.3149
#
#
#
# Elastic Compliance Matrix: (Units=1/GPa)
#
#
# Indices 1 2 3 4 5 6 
#
# 1 0.011154 -0.003521 -0.001779 0.000000 0.006917 0.000000
# 2 -0.003521 0.032817 -0.003265 0.000000 -0.000703 0.000000
# 3 -0.001779 -0.003265 0.009250 0.000000 0.000527 0.000000
# 4 0.000000 0.000000 0.000000 0.028869 0.000000 -0.000123
# 5 0.006917 -0.000703 0.000527 0.000000 0.030869 0.000000
# 6 0.000000 0.000000 0.000000 -0.000123 0.000000 0.069858
#
#
# Mechanical properties :
#
#
# Convention : Reuss Voigt Hill
#
# Bulk Modulus (GPa) = 27.70795 42.66754 35.18774
# Shear Modulus (GPa) = 23.58760 31.41561 27.50160
#
# Velocity S-wave (km/s) = 3.26995 3.77374 3.53084
# Velocity P-wave (km/s) = 5.17852 6.19111 5.70732
#
# Compressibility (1/GPa) = 0.03609073
#
# Stress axis : x y z
#
# Youngs Moduli (GPa) = 89.65360 30.47205 108.11210
#
# Poissons Ratio (x) = 0.10730 0.19228
# Poissons Ratio (y) = 0.31570 0.35299
# Poissons Ratio (z) = 0.15945 0.09949
#
# Static dielectric constant tensor:
#      x y z
#    x 2.016470 0.000000 -0.033190 
#    y 0.000000 1.833760 0.000000 
#    z -0.033190 0.000000 1.856430 
# 
# From -- ./inp_files/70829.got.cif
#   From: 2010.05.17/outbox.cif.g08.bks.cpg/sg15_36_cif.got.tgz:70829.got - 2010.06.03 18:47:42.
