data_PCOD9270370
_publ_section_title
;
Structure prediction by ZEFSAII (Michael W. Deem and Ramdas Pophale) SiO2 
 PCOD9270370
Probable space group: C 2/C
;
_chemical_formula_sum "Si O2"
_cell_formula_units_Z 64
_cell_length_a 23.006675
_cell_length_b 20.572948
_cell_length_c 11.692466
_cell_angle_alpha 90.000000
_cell_angle_beta 139.323018
_cell_angle_gamma 90.000000
_cell_volume 3607.170846
_symmetry_space_group_name_H-M "C 2/C"
_symmetry_group_IT_number 15
_symmetry_cell_setting 'monoclinic'
loop_
_space_group_symop_operation_xyz
x,y,z
-x,y,1/2-z
-x,-y,-z
x,-y,1/2+z
1/2+x,1/2+y,z
1/2-x,1/2+y,1/2-z
1/2-x,1/2-y,-z
1/2+x,1/2-y,1/2+z
loop_
_atom_site_type_symbol
_atom_site_label
_atom_site_fract_x
_atom_site_fract_y
_atom_site_fract_z
Si Si1 0.405007 0.460221 0.272088
Si Si2 0.149958 0.303593 0.752148
Si Si3 0.730874 0.423316 0.628154
Si Si4 0.584504 0.394868 0.802066
Si Si5 0.967958 0.720576 0.078145
Si Si6 0.717744 0.807183 0.114801
Si Si7 0.792041 0.062329 0.818735
Si Si8 0.430154 0.364105 0.969921
O O1 0.427932 0.531308 0.260784
O O2 0.370520 0.460898 0.350561
O O3 0.491241 0.415670 0.394291
O O4 0.325337 0.434162 0.072463
O O5 0.189372 0.372381 0.769154
O O6 0.199098 0.243841 0.758573
O O7 0.042353 0.300731 0.597063
O O8 0.180047 0.297376 0.930160
O O9 0.754593 0.495316 0.710989
O O10 0.659126 0.389145 0.603876
O O11 0.500000 0.374066 0.750000
O O12 0.590274 0.354439 0.694814
O O13 0.668044 0.401058 0.011174
O O14 0.000000 0.695125 0.250000
O O15 0.862697 0.705587 0.916175
O O16 0.967982 0.798225 0.077794
O O17 0.742931 0.881770 0.174646
#
# Coordination Sequence:
#
# PCOD9270370 Si02
#       8
#     8   8   8   8   8   8   8   8
#     4  11  19  32  51  78 115 146 178 226 275 329
#     4  10  20  35  58  86 112 141 183 235 283 325
#     4  11  21  33  55  83 112 143 186 227 281 330
#     4  11  22  32  46  79 115 153 183 210 273 343
#     4  10  21  35  58  84 108 140 185 233 284 326
#     4  10  20  37  57  84 114 144 183 235 280 323
#     4  11  21  35  54  79 113 152 185 227 273 330
#     4  12  20  33  51  81 116 148 177 225 277 339
#
# _framework density 17.742436000000001
#
# number of rings (size 3 to 8) (size 9 to 14) (size 15 to 20)
#    0.000    1.250    5.000    3.750    1.750    0.000 
#    0.000    1.250    0.000    0.000    0.000    0.000 
#    0.000    0.000    0.000    0.000    0.000    0.000 
#
# Total GULP energy -178362.608959 kJ/mol
# GULP energy per Si atom -5573.831530 kJ/mol
# Density = 1.770205 g / cm^3
# Si number density = 17.742436 Si / 1000 Ang^3
#
#
#
# Elastic Constant Matrix: (Units=GPa)
#
#
# Indices 1 2 3 4 5 6 
#
# 1 103.6345 44.4801 28.6689 0.0000 20.7735 0.0000
# 2 44.4801 57.4131 9.2246 0.0000 17.1735 0.0000
# 3 28.6689 9.2246 25.9165 0.0000 -2.0660 0.0000
# 4 0.0000 0.0000 0.0000 21.4726 0.0000 -2.3923
# 5 20.7735 17.1735 -2.0660 0.0000 29.2790 0.0000
# 6 0.0000 0.0000 0.0000 -2.3923 0.0000 19.2786
#
#
#
# Elastic Compliance Matrix: (Units=1/GPa)
#
#
# Indices 1 2 3 4 5 6 
#
# 1 0.022576 -0.010521 -0.022138 0.000000 -0.011409 0.000000
# 2 -0.010521 0.028097 0.000924 0.000000 -0.008951 0.000000
# 3 -0.022138 0.000924 0.064317 0.000000 0.019704 0.000000
# 4 0.000000 0.000000 0.000000 0.047224 0.000000 0.005860
# 5 -0.011409 -0.008951 0.019704 0.000000 0.048889 0.000000
# 6 0.000000 0.000000 0.000000 0.005860 0.000000 0.052598
#
#
# Mechanical properties :
#
#
# Convention : Reuss Voigt Hill
#
# Bulk Modulus (GPa) = 19.41015 39.07902 29.24458
# Shear Modulus (GPa) = 14.52032 20.97874 17.74953
#
# Velocity S-wave (km/s) = 2.86386 3.44234 3.16634
# Velocity P-wave (km/s) = 4.67967 6.15412 5.46683
#
# Compressibility (1/GPa) = 0.05151945
#
# Stress axis : x y z
#
# Youngs Moduli (GPa) = 44.29489 35.59041 15.54806
#
# Poissons Ratio (x) = 0.37444 0.34421
# Poissons Ratio (y) = 0.46602 -0.01436
# Poissons Ratio (z) = 0.98061 -0.03288
#
# Static dielectric constant tensor:
#      x y z
#    x 1.653860 0.000000 -0.013040 
#    y 0.000000 1.619430 0.000000 
#    z -0.013040 0.000000 1.638190 
# 
# From -- ./inp_files/107304.got.cif
#   From: 2010.05.17/outbox.cif.g08.bks.cpg/sg15_54_cif.got.tgz:107304.got - 2010.06.03 18:47:42.
