data_PCOD9270558
_publ_section_title
;
Structure prediction by ZEFSAII (Michael W. Deem and Ramdas Pophale) SiO2 
 PCOD9270558
Probable space group: C 2/C
;
_chemical_formula_sum "Si O2"
_cell_formula_units_Z 56
_cell_length_a 30.272793
_cell_length_b 10.941362
_cell_length_c 9.168179
_cell_angle_alpha 90.000000
_cell_angle_beta 106.061273
_cell_angle_gamma 90.000000
_cell_volume 2918.200678
_symmetry_space_group_name_H-M "C 2/C"
_symmetry_group_IT_number 15
_symmetry_cell_setting 'monoclinic'
loop_
_space_group_symop_operation_xyz
x,y,z
-x,y,1/2-z
-x,-y,-z
x,-y,1/2+z
1/2+x,1/2+y,z
1/2-x,1/2+y,1/2-z
1/2-x,1/2-y,-z
1/2+x,1/2-y,1/2+z
loop_
_atom_site_type_symbol
_atom_site_label
_atom_site_fract_x
_atom_site_fract_y
_atom_site_fract_z
Si Si1 0.389112 0.347649 0.703627
Si Si2 0.033981 0.955738 0.155632
Si Si3 0.112793 0.777065 0.119467
Si Si4 0.337880 0.080236 0.167660
Si Si5 0.812353 0.953272 0.173802
Si Si6 0.263836 0.636581 0.338219
Si Si7 0.834703 0.335044 0.333712
O O1 0.434522 0.428572 0.768099
O O2 0.391319 0.269737 0.558139
O O3 0.348034 0.445447 0.647082
O O4 0.373684 0.264354 0.826048
O O5 0.000000 0.912059 0.250000
O O6 0.068678 0.850633 0.136748
O O7 0.000000 0.000000 0.000000
O O8 0.121894 0.650206 0.209231
O O9 0.156342 0.862117 0.203433
O O10 0.289867 0.136974 0.181209
O O11 0.335333 0.939383 0.212125
O O12 0.341728 0.105733 0.999107
O O13 0.776322 0.026155 0.240372
O O14 0.788841 0.889382 0.014936
O O15 0.286919 0.759107 0.295705
#
# Coordination Sequence:
#
# PCOD9270558 Si02
#       7
#     8   8   8   8   8   8   8
#     4  10  22  39  63  93 128 162 203 259 327 381
#     4  11  23  40  70 105 128 153 197 263 337 402
#     4  11  22  38  61  92 129 164 203 262 320 378
#     4  12  25  39  61  84 130 174 226 261 313 369
#     4  10  20  35  60  88 125 162 213 263 319 360
#     4  11  22  38  60  88 124 173 224 271 308 368
#     4  11  25  41  59  88 124 176 217 266 308 376
#
# _framework density 19.189907000000002
#
# number of rings (size 3 to 8) (size 9 to 14) (size 15 to 20)
#    0.000    1.143    4.286    2.143    4.000    0.000 
#    0.000    3.571    0.000    1.714    0.000    0.000 
#    0.000    0.000    0.000    0.000    0.000    0.000 
#
# Total GULP energy -156507.086059 kJ/mol
# GULP energy per Si atom -5589.538788 kJ/mol
# Density = 1.914623 g / cm^3
# Si number density = 19.189907 Si / 1000 Ang^3
#
#
#
# Elastic Constant Matrix: (Units=GPa)
#
#
# Indices 1 2 3 4 5 6 
#
# 1 98.1930 33.5102 36.5856 0.0000 -1.5577 0.0000
# 2 33.5102 86.1772 14.2721 0.0000 -1.6207 0.0000
# 3 36.5856 14.2721 51.3471 0.0000 -3.2068 0.0000
# 4 0.0000 0.0000 0.0000 36.4961 0.0000 -6.3619
# 5 -1.5577 -1.6207 -3.2068 0.0000 29.2298 0.0000
# 6 0.0000 0.0000 0.0000 -6.3619 0.0000 28.6954
#
#
#
# Elastic Compliance Matrix: (Units=1/GPa)
#
#
# Indices 1 2 3 4 5 6 
#
# 1 0.015275 -0.004341 -0.009707 0.000000 -0.000492 0.000000
# 2 -0.004341 0.013400 -0.000604 0.000000 0.000445 0.000000
# 3 -0.009707 -0.000604 0.026708 0.000000 0.002379 0.000000
# 4 0.000000 0.000000 0.000000 0.028502 0.000000 0.006319
# 5 -0.000492 0.000445 0.002379 0.000000 0.034471 0.000000
# 6 0.000000 0.000000 0.000000 0.006319 0.000000 0.036250
#
#
# Mechanical properties :
#
#
# Convention : Reuss Voigt Hill
#
# Bulk Modulus (GPa) = 38.34538 44.93926 41.64232
# Shear Modulus (GPa) = 25.96003 28.97421 27.46712
#
# Velocity S-wave (km/s) = 3.68203 3.88992 3.78740
# Velocity P-wave (km/s) = 6.17267 6.60638 6.39321
#
# Compressibility (1/GPa) = 0.02607876
#
# Stress axis : x y z
#
# Youngs Moduli (GPa) = 65.46807 74.62452 37.44128
#
# Poissons Ratio (x) = 0.32395 0.36346
# Poissons Ratio (y) = 0.28421 0.02261
# Poissons Ratio (z) = 0.63553 0.04506
#
# Static dielectric constant tensor:
#      x y z
#    x 1.635130 0.000000 -0.008380 
#    y 0.000000 1.697740 0.000000 
#    z -0.008380 0.000000 1.642180 
# 
# From -- ./inp_files/65519.got.cif
#   From: 2010.05.17/outbox.cif.g08.bks.cpg/sg15_33_cif.got.tgz:65519.got - 2010.06.03 18:47:42.
