data_PCOD9270947
_publ_section_title
;
Structure prediction by ZEFSAII (Michael W. Deem and Ramdas Pophale) SiO2 
 PCOD9270947
Probable space group: C 2/C
;
_chemical_formula_sum "Si O2"
_cell_formula_units_Z 44
_cell_length_a 5.329306
_cell_length_b 25.280659
_cell_length_c 13.932867
_cell_angle_alpha 90.000000
_cell_angle_beta 71.772018
_cell_angle_gamma 90.000000
_cell_volume 1782.955794
_symmetry_space_group_name_H-M "C 2/C"
_symmetry_group_IT_number 15
_symmetry_cell_setting 'monoclinic'
loop_
_space_group_symop_operation_xyz
x,y,z
-x,y,1/2-z
-x,-y,-z
x,-y,1/2+z
1/2+x,1/2+y,z
1/2-x,1/2+y,1/2-z
1/2-x,1/2-y,-z
1/2+x,1/2-y,1/2+z
loop_
_atom_site_type_symbol
_atom_site_label
_atom_site_fract_x
_atom_site_fract_y
_atom_site_fract_z
Si Si1 0.196583 0.706801 0.817980
Si Si2 0.698383 0.994533 0.066909
Si Si3 0.498982 0.104750 0.129077
Si Si4 0.000000 0.151856 0.250000
Si Si5 0.062882 0.194266 0.442952
Si Si6 0.641813 0.120422 0.571117
O O1 0.500000 0.715047 0.750000
O O2 0.139260 0.744435 0.918178
O O3 0.000000 0.714470 0.750000
O O4 0.125411 0.647911 0.861762
O O5 0.680154 0.936266 0.116957
O O6 0.630653 0.048196 0.130955
O O7 0.500000 0.000000 0.000000
O O8 0.000000 0.000000 0.000000
O O9 0.689792 0.154929 0.090347
O O10 0.261564 0.117586 0.229611
O O11 0.363325 0.102788 0.039222
O O12 0.057977 0.185681 0.149383
O O13 0.862335 0.167957 0.543821
#
# Coordination Sequence:
#
# PCOD9270947 Si02
#       6
#     8   8   8   4   8   8
#     4  12  28  45  64  96 140 177 218 277 335 393
#     4  10  20  40  64  96 127 164 214 276 322 384
#     4  10  21  37  68  95 131 169 224 275 328 392
#     4  10  20  36  56 102 124 170 208 276 328 370
#     4  11  21  41  67  92 131 170 226 271 324 391
#     4  10  24  42  68  94 128 176 226 263 335 400
#
# _framework density 24.678121000000001
#
# number of rings (size 3 to 8) (size 9 to 14) (size 15 to 20)
#    0.000    1.455    2.727    2.182    5.091    0.727 
#    1.636    1.818    0.000    0.000    0.000    0.000 
#    0.000    0.000    0.000    0.000    0.000    0.000 
#
# Total GULP energy -122684.090561 kJ/mol
# GULP energy per Si atom -5576.549571 kJ/mol
# Density = 2.462195 g / cm^3
# Si number density = 24.678121 Si / 1000 Ang^3
#
#
#
# Elastic Constant Matrix: (Units=GPa)
#
#
# Indices 1 2 3 4 5 6 
#
# 1 99.1544 16.3951 25.2612 0.0000 -29.1907 0.0000
# 2 16.3951 185.5283 21.8092 0.0000 -30.2057 0.0000
# 3 25.2612 21.8092 51.6104 0.0000 -5.7209 0.0000
# 4 0.0000 0.0000 0.0000 7.5196 0.0000 3.8913
# 5 -29.1907 -30.2057 -5.7209 0.0000 41.7523 0.0000
# 6 0.0000 0.0000 0.0000 3.8913 0.0000 19.9349
#
#
#
# Elastic Compliance Matrix: (Units=1/GPa)
#
#
# Indices 1 2 3 4 5 6 
#
# 1 0.014510 0.001116 -0.006457 0.000000 0.010067 0.000000
# 2 0.001116 0.006434 -0.002704 0.000000 0.005064 0.000000
# 3 -0.006457 -0.002704 0.023316 0.000000 -0.003276 0.000000
# 4 0.000000 0.000000 0.000000 0.147929 0.000000 -0.028876
# 5 0.010067 0.005064 -0.003276 0.000000 0.034204 0.000000
# 6 0.000000 0.000000 0.000000 -0.028876 0.000000 0.055800
#
#
# Mechanical properties :
#
#
# Convention : Reuss Voigt Hill
#
# Bulk Modulus (GPa) = 35.50024 51.46933 43.48479
# Shear Modulus (GPa) = 16.25108 32.02986 24.14047
#
# Velocity S-wave (km/s) = 2.56895 3.60655 3.13103
# Velocity P-wave (km/s) = 4.81829 6.18421 5.54348
#
# Compressibility (1/GPa) = 0.02816882
#
# Stress axis : x y z
#
# Youngs Moduli (GPa) = 68.92023 155.43153 42.88913
#
# Poissons Ratio (x) = -0.17343 0.27696
# Poissons Ratio (y) = -0.07690 0.11595
# Poissons Ratio (z) = 0.44505 0.42021
#
# Static dielectric constant tensor:
#      x y z
#    x 2.106770 0.000000 0.099890 
#    y 0.000000 2.041910 0.000000 
#    z 0.099890 0.000000 2.008140 
# 
# From -- ./inp_files/129391.got.cif
#   From: 2010.05.17/outbox.cif.g08.bks.cpg/sg15_65_cif.got.tgz:129391.got - 2010.06.03 18:47:42.
