data_PCOD9270992
_publ_section_title
;
Structure prediction by ZEFSAII (Michael W. Deem and Ramdas Pophale) SiO2 
 PCOD9270992
Probable space group: C 2/C
;
_chemical_formula_sum "Si O2"
_cell_formula_units_Z 52
_cell_length_a 15.075790
_cell_length_b 10.586130
_cell_length_c 26.725707
_cell_angle_alpha 90.000000
_cell_angle_beta 28.118208
_cell_angle_gamma 90.000000
_cell_volume 2010.188325
_symmetry_space_group_name_H-M "C 2/C"
_symmetry_group_IT_number 15
_symmetry_cell_setting 'monoclinic'
loop_
_space_group_symop_operation_xyz
x,y,z
-x,y,1/2-z
-x,-y,-z
x,-y,1/2+z
1/2+x,1/2+y,z
1/2-x,1/2+y,1/2-z
1/2-x,1/2-y,-z
1/2+x,1/2-y,1/2+z
loop_
_atom_site_type_symbol
_atom_site_label
_atom_site_fract_x
_atom_site_fract_y
_atom_site_fract_z
Si Si1 0.072393 0.322703 0.901792
Si Si2 0.840446 0.495346 0.366099
Si Si3 0.000000 0.264278 0.750000
Si Si4 0.533621 0.625254 0.838774
Si Si5 0.613370 0.274450 0.489463
Si Si6 0.490028 0.378413 0.812252
Si Si7 0.542837 0.927640 0.366247
O O1 0.979390 0.229036 0.907166
O O2 0.039818 0.280573 0.974252
O O3 0.300921 0.326184 0.780693
O O4 0.011322 0.467151 0.924600
O O5 0.835427 0.637299 0.347782
O O6 0.644508 0.422618 0.466740
O O7 0.000000 0.434823 0.250000
O O8 0.933399 0.483063 0.373842
O O9 0.048031 0.190158 0.776714
O O10 0.430730 0.493176 0.878142
O O11 0.737445 0.577137 0.754954
O O12 0.505943 0.210749 0.588574
O O13 0.826316 0.224001 0.392585
O O14 0.500000 0.428200 0.750000
#
# Coordination Sequence:
#
# PCOD9270992 Si02
#       7
#     8   8   4   8   8   8   8
#     4  10  20  36  56  84 113 146 191 226 268 341
#     4  10  20  38  60  82 109 152 184 230 269 338
#     4  10  22  38  58  80 110 144 200 232 268 332
#     4  11  20  38  60  82 109 153 194 228 277 334
#     4  11  21  37  56  89 115 143 186 230 288 328
#     4   9  19  34  59  81 112 151 190 229 273 336
#     4  11  22  36  59  86 116 144 181 241 281 322
#
# _framework density 25.868221999999999
#
# number of rings (size 3 to 8) (size 9 to 14) (size 15 to 20)
#    0.462    1.231    2.308    4.154    0.000    0.000 
#    0.000    3.077    0.000    0.000    0.000    0.000 
#    0.000    0.000    0.000    0.000    0.000    0.000 
#
# Total GULP energy -145467.528898 kJ/mol
# GULP energy per Si atom -5594.904958 kJ/mol
# Density = 2.580934 g / cm^3
# Si number density = 25.868222 Si / 1000 Ang^3
#
#
#
# Elastic Constant Matrix: (Units=GPa)
#
#
# Indices 1 2 3 4 5 6 
#
# 1 119.3495 34.0129 20.5119 0.0002 30.9527 0.0000
# 2 34.0129 85.3353 -5.1885 0.0000 1.5698 0.0002
# 3 20.5119 -5.1885 67.2308 -0.0002 4.6516 0.0003
# 4 0.0002 0.0000 -0.0002 22.1475 -0.0005 3.4699
# 5 30.9527 1.5698 4.6516 -0.0005 38.1218 0.0000
# 6 0.0000 0.0002 0.0003 3.4699 0.0000 35.6405
#
#
#
# Elastic Compliance Matrix: (Units=1/GPa)
#
#
# Indices 1 2 3 4 5 6 
#
# 1 0.013103 -0.005265 -0.003714 0.000000 -0.009969 0.000000
# 2 -0.005265 0.013903 0.002444 0.000000 0.003404 0.000000
# 3 -0.003714 0.002444 0.016130 0.000000 0.000947 0.000000
# 4 0.000000 0.000000 0.000000 0.045851 0.000001 -0.004464
# 5 -0.009969 0.003404 0.000947 0.000001 0.034070 0.000000
# 6 0.000000 0.000000 0.000000 -0.004464 0.000000 0.028493
#
#
# Mechanical properties :
#
#
# Convention : Reuss Voigt Hill
#
# Bulk Modulus (GPa) = 33.26091 41.17645 37.21868
# Shear Modulus (GPa) = 28.62987 34.02060 31.32523
#
# Velocity S-wave (km/s) = 3.33041 3.63043 3.48365
# Velocity P-wave (km/s) = 5.26066 5.79014 5.53174
#
# Compressibility (1/GPa) = 0.03006532
#
# Stress axis : x y z
#
# Youngs Moduli (GPa) = 76.31896 71.92713 61.99469
#
# Poissons Ratio (x) = 0.37870 0.23026
# Poissons Ratio (y) = 0.40182 -0.15150
# Poissons Ratio (z) = 0.28347 -0.17577
#
# Static dielectric constant tensor:
#      x y z
#    x 1.976610 0.000000 -0.015830 
#    y 0.000000 2.096350 0.000000 
#    z -0.015830 0.000000 2.029290 
# 
# From -- ./inp_files/315952.got.cif
#   From: 2010.05.17/outbox.cif.g08.bks.cpg/sg15_158_cif.got.tgz:315952.got - 2010.06.03 18:47:42.
