data_PCOD9270414
_publ_section_title
;
Structure prediction by ZEFSAII (Michael W. Deem and Ramdas Pophale) SiO2 
 PCOD9270414
Probable space group: C 2/C
;
_chemical_formula_sum "Si O2"
_cell_formula_units_Z 64
_cell_length_a 9.597460
_cell_length_b 19.146591
_cell_length_c 20.173853
_cell_angle_alpha 90.000000
_cell_angle_beta 57.132645
_cell_angle_gamma 90.000000
_cell_volume 3113.718214
_symmetry_space_group_name_H-M "C 2/C"
_symmetry_group_IT_number 15
_symmetry_cell_setting 'monoclinic'
loop_
_space_group_symop_operation_xyz
x,y,z
-x,y,1/2-z
-x,-y,-z
x,-y,1/2+z
1/2+x,1/2+y,z
1/2-x,1/2+y,1/2-z
1/2-x,1/2-y,-z
1/2+x,1/2-y,1/2+z
loop_
_atom_site_type_symbol
_atom_site_label
_atom_site_fract_x
_atom_site_fract_y
_atom_site_fract_z
Si Si1 0.936060 0.098595 0.017358
Si Si2 0.141864 0.100174 0.761723
Si Si3 0.264541 0.325195 0.127491
Si Si4 0.940771 0.999669 0.902927
Si Si5 0.549795 0.146929 0.874018
Si Si6 0.769400 0.243554 0.091452
Si Si7 0.103212 0.570507 0.462005
Si Si8 0.992301 0.699166 0.082323
O O1 0.838476 0.165507 0.067532
O O2 0.950968 0.043340 0.072191
O O3 0.116997 0.126660 0.949092
O O4 0.866799 0.062516 0.968210
O O5 0.199542 0.148254 0.807851
O O6 0.312126 0.088503 0.678088
O O7 0.000000 0.129980 0.750000
O O8 0.054129 0.033551 0.817594
O O9 0.335673 0.246899 0.103093
O O10 0.078290 0.335093 0.150937
O O11 0.794420 0.951963 0.913479
O O12 0.662125 0.214378 0.863550
O O13 0.440523 0.120164 0.963911
O O14 0.575360 0.232850 0.126465
O O15 0.860553 0.286931 0.009039
O O16 0.000000 0.500000 0.500000
O O17 0.054014 0.618142 0.411525
#
# Coordination Sequence:
#
# PCOD9270414 Si02
#       8
#     8   8   8   8   8   8   8   8
#     4   9  18  34  59  89 123 156 202 257 307 361
#     4  11  23  40  60  82 122 167 207 248 318 388
#     4  10  20  37  61  90 119 152 210 262 309 360
#     4  10  20  35  58  89 122 167 204 253 307 374
#     4  11  22  36  62  90 117 162 208 263 306 373
#     4   9  18  33  57  88 122 154 198 244 312 355
#     4  11  21  34  59  91 127 157 209 253 307 365
#     4   9  19  33  56  90 123 155 192 256 300 360
#
# _framework density 20.554203000000001
#
# number of rings (size 3 to 8) (size 9 to 14) (size 15 to 20)
#    0.000    2.000    1.250    2.625    1.750    5.500 
#    0.000    0.000    5.500    0.000    3.250    0.000 
#    0.000    0.000    0.000    0.000    0.000    0.000 
#
# Total GULP energy -178461.230522 kJ/mol
# GULP energy per Si atom -5576.913454 kJ/mol
# Density = 2.050742 g / cm^3
# Si number density = 20.554203 Si / 1000 Ang^3
#
#
#
# Elastic Constant Matrix: (Units=GPa)
#
#
# Indices 1 2 3 4 5 6 
#
# 1 153.6039 42.3277 33.5518 0.0000 -4.1676 0.0000
# 2 42.3277 102.9190 14.8056 0.0000 -0.9911 0.0000
# 3 33.5518 14.8056 52.1240 0.0000 -4.5468 0.0000
# 4 0.0000 0.0000 0.0000 22.6226 0.0000 0.9822
# 5 -4.1676 -0.9911 -4.5468 0.0000 29.3724 0.0000
# 6 0.0000 0.0000 0.0000 0.9822 0.0000 32.3170
#
#
#
# Elastic Compliance Matrix: (Units=1/GPa)
#
#
# Indices 1 2 3 4 5 6 
#
# 1 0.008261 -0.002746 -0.004504 0.000000 0.000382 0.000000
# 2 -0.002746 0.011043 -0.001390 0.000000 -0.000232 0.000000
# 3 -0.004504 -0.001390 0.022726 0.000000 0.002832 0.000000
# 4 0.000000 0.000000 0.000000 0.044262 0.000000 -0.001345
# 5 0.000382 -0.000232 0.002832 0.000000 0.034530 0.000000
# 6 0.000000 0.000000 0.000000 -0.001345 0.000000 0.030984
#
#
# Mechanical properties :
#
#
# Convention : Reuss Voigt Hill
#
# Bulk Modulus (GPa) = 40.40226 54.44635 47.42431
# Shear Modulus (GPa) = 28.19485 31.39319 29.79402
#
# Velocity S-wave (km/s) = 3.70771 3.91236 3.81141
# Velocity P-wave (km/s) = 6.16673 6.85240 6.51859
#
# Compressibility (1/GPa) = 0.02475109
#
# Stress axis : x y z
#
# Youngs Moduli (GPa) = 121.04796 90.55213 44.00220
#
# Poissons Ratio (x) = 0.24865 0.19820
# Poissons Ratio (y) = 0.33239 0.06114
# Poissons Ratio (z) = 0.54524 0.12582
#
# Static dielectric constant tensor:
#      x y z
#    x 1.775150 0.000000 0.024730 
#    y 0.000000 1.740360 0.000000 
#    z 0.024730 0.000000 1.775980 
# 
# From -- ./inp_files/233854.got.cif
#   From: 2010.05.17/outbox.cif.g08.bks.cpg/sg15_117_cif.got.tgz:233854.got - 2010.06.03 18:47:42.
