data_PCOD9270656
_publ_section_title
;
Structure prediction by ZEFSAII (Michael W. Deem and Ramdas Pophale) SiO2 
 PCOD9270656
Probable space group: C 2/C
;
_chemical_formula_sum "Si O2"
_cell_formula_units_Z 40
_cell_length_a 14.309289
_cell_length_b 13.731673
_cell_length_c 8.262934
_cell_angle_alpha 90.000000
_cell_angle_beta 74.751086
_cell_angle_gamma 90.000000
_cell_volume 1566.425068
_symmetry_space_group_name_H-M "C 2/C"
_symmetry_group_IT_number 15
_symmetry_cell_setting 'monoclinic'
loop_
_space_group_symop_operation_xyz
x,y,z
-x,y,1/2-z
-x,-y,-z
x,-y,1/2+z
1/2+x,1/2+y,z
1/2-x,1/2+y,1/2-z
1/2-x,1/2-y,-z
1/2+x,1/2-y,1/2+z
loop_
_atom_site_type_symbol
_atom_site_label
_atom_site_fract_x
_atom_site_fract_y
_atom_site_fract_z
Si Si1 0.803321 0.503893 0.705565
Si Si2 0.633394 0.186868 0.489093
Si Si3 0.367859 0.405452 0.538172
Si Si4 0.500000 0.479669 0.750000
Si Si5 0.730062 0.779537 0.290533
Si Si6 0.500000 0.079265 0.750000
O O1 0.810591 0.412502 0.583676
O O2 0.715915 0.477760 0.863127
O O3 0.783651 0.610789 0.644775
O O4 0.907668 0.514812 0.745242
O O5 0.672815 0.226175 0.642770
O O6 0.661478 0.254581 0.324758
O O7 0.527314 0.148042 0.584796
O O8 0.453980 0.413318 0.631777
O O9 0.417081 0.450531 0.358649
O O10 0.320226 0.298940 0.570677
#
# Coordination Sequence:
#
# PCOD9270656 Si02
#       6
#     8   8   8   4   8   4
#     4  10  21  38  64  94 134 173 217 275 321 398
#     4   9  19  36  60  91 125 168 226 261 318 391
#     4  10  23  43  72  96 136 172 222 276 332 392
#     4  10  24  45  67 104 132 170 224 283 331 382
#     4   9  20  39  66  93 123 177 217 267 333 393
#     4  10  20  35  61  92 130 174 216 255 335 394
#
# _framework density 25.535854
#
# number of rings (size 3 to 8) (size 9 to 14) (size 15 to 20)
#    0.000    2.400    0.000    0.600   14.000    3.200 
#    7.200    2.000    0.000    0.000    0.000    0.000 
#    0.000    0.000    0.000    0.000    0.000    0.000 
#
# Total GULP energy -111872.844958 kJ/mol
# GULP energy per Si atom -5593.642248 kJ/mol
# Density = 2.547773 g / cm^3
# Si number density = 25.535854 Si / 1000 Ang^3
#
#
#
# Elastic Constant Matrix: (Units=GPa)
#
#
# Indices 1 2 3 4 5 6 
#
# 1 90.0563 22.2515 6.2937 0.0000 -12.5303 0.0000
# 2 22.2515 153.4484 29.5126 0.0000 -7.2963 0.0000
# 3 6.2937 29.5126 98.2988 0.0000 -33.3446 0.0000
# 4 0.0000 0.0000 0.0000 41.9994 0.0000 3.2991
# 5 -12.5303 -7.2963 -33.3446 0.0000 49.4651 0.0000
# 6 0.0000 0.0000 0.0000 3.2991 0.0000 35.3180
#
#
#
# Elastic Compliance Matrix: (Units=1/GPa)
#
#
# Indices 1 2 3 4 5 6 
#
# 1 0.011942 -0.001745 0.000905 0.000000 0.003378 0.000000
# 2 -0.001745 0.007181 -0.002379 0.000000 -0.000986 0.000000
# 3 0.000905 -0.002379 0.013986 0.000000 0.009307 0.000000
# 4 0.000000 0.000000 0.000000 0.023986 0.000000 -0.002241
# 5 0.003378 -0.000986 0.009307 0.000000 0.027200 0.000000
# 6 0.000000 0.000000 0.000000 -0.002241 0.000000 0.028523
#
#
# Mechanical properties :
#
#
# Convention : Reuss Voigt Hill
#
# Bulk Modulus (GPa) = 37.49328 50.87992 44.18660
# Shear Modulus (GPa) = 39.01795 44.27287 41.64541
#
# Velocity S-wave (km/s) = 3.91316 4.16835 4.04277
# Velocity P-wave (km/s) = 5.92719 6.56773 6.25566
#
# Compressibility (1/GPa) = 0.02667144
#
# Stress axis : x y z
#
# Youngs Moduli (GPa) = 83.73727 139.26589 71.49890
#
# Poissons Ratio (x) = 0.24305 -0.06472
# Poissons Ratio (y) = 0.14614 0.17007
# Poissons Ratio (z) = -0.07580 0.33127
#
# Static dielectric constant tensor:
#      x y z
#    x 2.078250 0.000000 0.061540 
#    y 0.000000 1.972320 0.000000 
#    z 0.061540 0.000000 2.096590 
# 
# From -- ./inp_files/46962.got.cif
#   From: 2010.05.17/outbox.cif.g08.bks.cpg/sg15_24_cif.got.tgz:46962.got - 2010.06.03 18:47:42.
