data_PCOD9270736
_publ_section_title
;
Structure prediction by ZEFSAII (Michael W. Deem and Ramdas Pophale) SiO2 
 PCOD9270736
Probable space group: C 2/C
;
_chemical_formula_sum "Si O2"
_cell_formula_units_Z 64
_cell_length_a 9.047853
_cell_length_b 19.216282
_cell_length_c 19.772911
_cell_angle_alpha 90.000000
_cell_angle_beta 112.389881
_cell_angle_gamma 90.000000
_cell_volume 3178.671562
_symmetry_space_group_name_H-M "C 2/C"
_symmetry_group_IT_number 15
_symmetry_cell_setting 'monoclinic'
loop_
_space_group_symop_operation_xyz
x,y,z
-x,y,1/2-z
-x,-y,-z
x,-y,1/2+z
1/2+x,1/2+y,z
1/2-x,1/2+y,1/2-z
1/2-x,1/2-y,-z
1/2+x,1/2-y,1/2+z
loop_
_atom_site_type_symbol
_atom_site_label
_atom_site_fract_x
_atom_site_fract_y
_atom_site_fract_z
Si Si1 0.642497 0.438865 0.828777
Si Si2 0.816985 0.433024 0.304308
Si Si3 0.676889 0.342727 0.160866
Si Si4 0.207336 0.217596 0.382066
Si Si5 0.485444 0.781489 0.032968
Si Si6 0.361776 0.516702 0.529523
Si Si7 0.813172 0.843262 0.092383
Si Si8 0.853267 0.584029 0.580922
O O1 0.500000 0.434577 0.750000
O O2 0.769809 0.488470 0.813938
O O3 0.698484 0.361204 0.856358
O O4 0.600996 0.478622 0.892145
O O5 0.732586 0.399072 0.225371
O O6 0.750579 0.385559 0.353848
O O7 0.007893 0.428726 0.340467
O O8 0.791756 0.275184 0.177035
O O9 0.493847 0.320766 0.139721
O O10 0.705375 0.381852 0.094561
O O11 0.374208 0.234571 0.449760
O O12 0.069364 0.233499 0.413503
O O13 0.674633 0.786893 0.054297
O O14 0.423579 0.858248 0.043083
O O15 0.500000 0.500000 0.500000
O O16 0.330730 0.597882 0.537676
O O17 0.202725 0.481775 0.471001
#
# Coordination Sequence:
#
# PCOD9270736 Si02
#       8
#     8   8   8   8   8   8   8   8
#     4  11  24  40  62  92 128 167 206 264 324 380
#     4  10  22  38  62  90 123 162 210 258 313 378
#     4  11  21  39  60  92 124 166 207 258 310 382
#     4  10  22  39  63  85 129 163 216 256 321 378
#     4   9  20  38  60  92 118 165 210 263 303 384
#     4  11  21  37  63  95 127 159 208 266 319 370
#     4  10  21  35  63  88 121 160 208 257 315 360
#     4  10  20  35  63  90 120 160 208 261 305 371
#
# _framework density 20.134198000000001
#
# number of rings (size 3 to 8) (size 9 to 14) (size 15 to 20)
#    0.000    1.750    2.500    2.250    1.750    5.000 
#    0.000    0.000    0.000    3.000    0.000    0.000 
#    0.000    0.000    0.000    0.000    0.000    0.000 
#
# Total GULP energy -178521.366635 kJ/mol
# GULP energy per Si atom -5578.792707 kJ/mol
# Density = 2.008837 g / cm^3
# Si number density = 20.134198 Si / 1000 Ang^3
#
#
#
# Elastic Constant Matrix: (Units=GPa)
#
#
# Indices 1 2 3 4 5 6 
#
# 1 107.5356 31.6723 44.3315 0.0000 11.3312 0.0000
# 2 31.6723 99.3975 26.1305 0.0000 -0.4180 0.0000
# 3 44.3315 26.1305 68.2061 0.0000 13.0228 0.0000
# 4 0.0000 0.0000 0.0000 28.1062 0.0000 -3.5139
# 5 11.3312 -0.4180 13.0228 0.0000 26.0846 0.0000
# 6 0.0000 0.0000 0.0000 -3.5139 0.0000 24.8526
#
#
#
# Elastic Compliance Matrix: (Units=1/GPa)
#
#
# Indices 1 2 3 4 5 6 
#
# 1 0.013210 -0.002300 -0.007298 0.000000 -0.002132 0.000000
# 2 -0.002300 0.011745 -0.003572 0.000000 0.002971 0.000000
# 3 -0.007298 -0.003572 0.022305 0.000000 -0.008023 0.000000
# 4 0.000000 0.000000 0.000000 0.036220 0.000000 0.005121
# 5 -0.002132 0.002971 -0.008023 0.000000 0.043316 0.000000
# 6 0.000000 0.000000 0.000000 0.005121 0.000000 0.040961
#
#
# Mechanical properties :
#
#
# Convention : Reuss Voigt Hill
#
# Bulk Modulus (GPa) = 47.79966 53.26755 50.53361
# Shear Modulus (GPa) = 24.86706 27.34235 26.10471
#
# Velocity S-wave (km/s) = 3.51816 3.68911 3.60465
# Velocity P-wave (km/s) = 6.34786 6.68279 6.51748
#
# Compressibility (1/GPa) = 0.02092065
#
# Stress axis : x y z
#
# Youngs Moduli (GPa) = 75.70198 85.14308 44.83276
#
# Poissons Ratio (x) = 0.19580 0.32718
# Poissons Ratio (y) = 0.17409 0.16015
# Poissons Ratio (z) = 0.55246 0.30414
#
# Static dielectric constant tensor:
#      x y z
#    x 1.748800 0.000000 0.015340 
#    y 0.000000 1.740210 0.000000 
#    z 0.015340 0.000000 1.753380 
# 
# From -- ./inp_files/233878.got.cif
#   From: 2010.05.17/outbox.cif.g08.bks.cpg/sg15_117_cif.got.tgz:233878.got - 2010.06.03 18:47:42.
