data_PCOD9270780
_publ_section_title
;
Structure prediction by ZEFSAII (Michael W. Deem and Ramdas Pophale) SiO2 
 PCOD9270780
Probable space group: C 2/C
;
_chemical_formula_sum "Si O2"
_cell_formula_units_Z 52
_cell_length_a 20.775837
_cell_length_b 7.552176
_cell_length_c 18.159717
_cell_angle_alpha 90.000000
_cell_angle_beta 138.002367
_cell_angle_gamma 90.000000
_cell_volume 1906.473075
_symmetry_space_group_name_H-M "C 2/C"
_symmetry_group_IT_number 15
_symmetry_cell_setting 'monoclinic'
loop_
_space_group_symop_operation_xyz
x,y,z
-x,y,1/2-z
-x,-y,-z
x,-y,1/2+z
1/2+x,1/2+y,z
1/2-x,1/2+y,1/2-z
1/2-x,1/2-y,-z
1/2+x,1/2-y,1/2+z
loop_
_atom_site_type_symbol
_atom_site_label
_atom_site_fract_x
_atom_site_fract_y
_atom_site_fract_z
Si Si1 0.371982 0.726639 0.865202
Si Si2 0.786008 0.400564 0.653393
Si Si3 0.669070 0.218422 0.744057
Si Si4 0.311530 0.510418 0.627275
Si Si5 0.500000 0.692149 0.250000
Si Si6 0.574662 0.287717 0.510776
Si Si7 0.097908 0.421108 0.454166
O O1 0.346747 0.863033 0.779511
O O2 0.266993 0.649450 0.788992
O O3 0.468764 0.628319 0.922330
O O4 0.392607 0.816894 0.961011
O O5 0.825148 0.598706 0.676239
O O6 0.669613 0.390705 0.563715
O O7 0.810739 0.223966 0.628263
O O8 0.679725 0.417638 0.784655
O O9 0.598097 0.225566 0.614378
O O10 0.406585 0.435078 0.670678
O O11 0.205601 0.446619 0.512146
O O12 0.523699 0.817919 0.339624
O O13 0.566512 0.117146 0.451390
#
# Coordination Sequence:
#
# PCOD9270780 Si02
#       7
#     8   8   8   8   4   8   8
#     4  10  20  35  65 100 132 164 201 259 332 396
#     4  10  22  40  63  98 139 164 204 269 330 393
#     4  10  21  40  66  99 135 173 197 262 343 396
#     4  10  24  44  66  94 130 168 223 277 319 383
#     4  12  24  42  70  86 122 190 234 266 320 380
#     4  10  20  36  62 100 141 161 207 264 321 400
#     4  10  21  40  64  95 129 176 214 269 327 379
#
# _framework density 27.275496
#
# number of rings (size 3 to 8) (size 9 to 14) (size 15 to 20)
#    0.000    1.846    1.538    1.846    8.615    0.615 
#    5.538    0.769    0.000    5.538    0.000    0.000 
#    0.000    0.000    0.000    0.000    0.000    0.000 
#
# Total GULP energy -145221.361350 kJ/mol
# GULP energy per Si atom -5585.436975 kJ/mol
# Density = 2.721342 g / cm^3
# Si number density = 27.275496 Si / 1000 Ang^3
#
#
#
# Elastic Constant Matrix: (Units=GPa)
#
#
# Indices 1 2 3 4 5 6 
#
# 1 82.3661 16.5220 59.2147 0.0000 38.3649 0.0000
# 2 16.5220 99.0921 35.0490 0.0000 11.2018 0.0000
# 3 59.2147 35.0490 167.0080 0.0000 27.2766 0.0000
# 4 0.0000 0.0000 0.0000 18.9810 0.0000 -11.1527
# 5 38.3649 11.2018 27.2766 0.0000 79.0098 0.0000
# 6 0.0000 0.0000 0.0000 -11.1527 0.0000 -5.8084
#
#
#
# Elastic Compliance Matrix: (Units=1/GPa)
#
#
# Indices 1 2 3 4 5 6 
#
# 1 0.019887 -0.000433 -0.005715 0.000000 -0.007622 0.000000
# 2 -0.000433 0.010958 -0.002042 0.000000 -0.000639 0.000000
# 3 -0.005715 -0.002042 0.008417 0.000000 0.000159 0.000000
# 4 0.000000 0.000000 0.000000 0.024755 0.000000 -0.047533
# 5 -0.007622 -0.000639 0.000159 0.000000 0.016393 0.000000
# 6 0.000000 0.000000 0.000000 -0.047533 0.000000 -0.080897
#
#
# Mechanical properties :
#
#
# Convention : Reuss Voigt Hill
#
# Bulk Modulus (GPa) = 43.70318 63.33748 53.52033
# Shear Modulus (GPa) = 212.57282 34.28183 123.42732
#
# Velocity S-wave (km/s) = 8.83768 3.54909 6.73427
# Velocity P-wave (km/s) = 10.96345 6.32981 8.95164
#
# Compressibility (1/GPa) = 0.02288163
#
# Stress axis : x y z
#
# Youngs Moduli (GPa) = 50.28437 91.25568 118.80988
#
# Poissons Ratio (x) = 0.03948 0.67906
# Poissons Ratio (y) = 0.02175 0.24262
# Poissons Ratio (z) = 0.28740 0.18635
#
# Static dielectric constant tensor:
#      x y z
#    x 2.251600 0.000000 -0.045760 
#    y 0.000000 2.318290 0.000000 
#    z -0.045760 0.000000 2.068710 
# 
# From -- ./inp_files/255086.got.cif
#   From: 2010.05.17/outbox.cif.g08.bks.cpg/sg15_128_cif.got.tgz:255086.got - 2010.06.03 18:47:42.
