data_PCOD9270614
_publ_section_title
;
Structure prediction by ZEFSAII (Michael W. Deem and Ramdas Pophale) SiO2 
 PCOD9270614
Probable space group: C 2/C
;
_chemical_formula_sum "Si O2"
_cell_formula_units_Z 48
_cell_length_a 20.018946
_cell_length_b 27.504035
_cell_length_c 9.920457
_cell_angle_alpha 90.000000
_cell_angle_beta 25.570910
_cell_angle_gamma 90.000000
_cell_volume 2357.646703
_symmetry_space_group_name_H-M "C 2/C"
_symmetry_group_IT_number 15
_symmetry_cell_setting 'monoclinic'
loop_
_space_group_symop_operation_xyz
x,y,z
-x,y,1/2-z
-x,-y,-z
x,-y,1/2+z
1/2+x,1/2+y,z
1/2-x,1/2+y,1/2-z
1/2-x,1/2-y,-z
1/2+x,1/2-y,1/2+z
loop_
_atom_site_type_symbol
_atom_site_label
_atom_site_fract_x
_atom_site_fract_y
_atom_site_fract_z
Si Si1 0.827430 0.273852 0.045205
Si Si2 0.789736 0.305875 0.401101
Si Si3 0.649934 0.592300 0.575996
Si Si4 0.612662 0.512353 0.171539
Si Si5 0.860878 0.316739 0.686430
Si Si6 0.943145 0.115181 0.201259
O O1 0.804292 0.309612 0.212146
O O2 0.706616 0.229812 0.269250
O O3 0.823868 0.301553 0.909674
O O4 0.000000 0.252417 0.750000
O O5 0.750000 0.250000 0.500000
O O6 0.649142 0.340242 0.694771
O O7 0.954739 0.319718 0.162464
O O8 0.500000 0.593439 0.750000
O O9 0.711016 0.536384 0.466770
O O10 0.772086 0.633648 0.315497
O O11 0.585256 0.603660 0.843449
O O12 0.500000 0.517789 0.250000
O O13 0.500000 0.500000 0.500000
O O14 0.668790 0.567316 0.093220
O O15 0.000000 0.125420 0.250000
#
# Coordination Sequence:
#
# PCOD9270614 Si02
#       6
#     8   8   8   8   8   8
#     4   9  20  37  54  73 105 145 186 218 260 330
#     4  11  25  35  50  80 111 143 184 226 275 317
#     4  10  20  35  61  84 108 144 183 223 274 329
#     4   8  16  33  55  83 106 136 181 225 266 324
#     4  10  21  36  55  76 108 142 182 222 275 324
#     4  10  21  37  59  81 111 144 184 228 273 320
#
# _framework density 20.359283999999999
#
# number of rings (size 3 to 8) (size 9 to 14) (size 15 to 20)
#    0.000    2.333    0.000    1.500   11.667    0.000 
#    0.000    0.833    0.000    0.000    0.000   14.000 
#    0.000    0.000    0.000    0.000    0.000    0.000 
#
# Total GULP energy -133873.686565 kJ/mol
# GULP energy per Si atom -5578.070274 kJ/mol
# Density = 2.031295 g / cm^3
# Si number density = 20.359284 Si / 1000 Ang^3
#
#
#
# Elastic Constant Matrix: (Units=GPa)
#
#
# Indices 1 2 3 4 5 6 
#
# 1 68.2837 -3.6606 -0.7658 -0.0016 4.2354 0.0007
# 2 -3.6606 138.6048 20.3658 0.0016 -34.5145 0.0006
# 3 -0.7658 20.3658 32.0412 -0.0026 -13.2311 0.0034
# 4 -0.0016 0.0016 -0.0026 14.2551 0.0012 -4.9025
# 5 4.2354 -34.5145 -13.2311 0.0012 28.5584 -0.0019
# 6 0.0007 0.0006 0.0034 -4.9025 -0.0019 21.0774
#
#
#
# Elastic Compliance Matrix: (Units=1/GPa)
#
#
# Indices 1 2 3 4 5 6 
#
# 1 0.014796 -0.000193 -0.000651 0.000002 -0.002729 0.000000
# 2 -0.000193 0.010403 -0.001748 -0.000002 0.011791 0.000001
# 3 -0.000651 -0.001748 0.038918 0.000005 0.016015 -0.000004
# 4 0.000002 -0.000002 0.000005 0.076250 -0.000003 0.017735
# 5 -0.002729 0.011791 0.016015 -0.000003 0.057091 0.000002
# 6 0.000000 0.000001 -0.000004 0.017735 0.000002 0.051569
#
#
# Mechanical properties :
#
#
# Convention : Reuss Voigt Hill
#
# Bulk Modulus (GPa) = 16.96798 30.08982 23.52890
# Shear Modulus (GPa) = 18.25784 27.64421 22.95102
#
# Velocity S-wave (km/s) = 2.99788 3.68886 3.36117
# Velocity P-wave (km/s) = 4.50948 5.74065 5.16190
#
# Compressibility (1/GPa) = 0.05893453
#
# Stress axis : x y z
#
# Youngs Moduli (GPa) = 67.58386 96.12981 25.69476
#
# Poissons Ratio (x) = 0.01858 0.01672
# Poissons Ratio (y) = 0.01306 0.04490
# Poissons Ratio (z) = 0.04397 0.16800
#
# Static dielectric constant tensor:
#      x y z
#    x 1.774530 0.000000 0.016270 
#    y 0.000000 1.786950 0.000000 
#    z 0.016270 0.000000 1.708270 
# 
# From -- ./inp_files/80523.got.cif
#   From: 2010.05.17/outbox.cif.g08.bks.cpg/sg15_41_cif.got.tgz:80523.got - 2010.06.03 18:47:42.
