data_PCOD9270292
_publ_section_title
;
Structure prediction by ZEFSAII (Michael W. Deem and Ramdas Pophale) SiO2 
 PCOD9270292
Probable space group: C 2/C
;
_chemical_formula_sum "Si O2"
_cell_formula_units_Z 64
_cell_length_a 8.623681
_cell_length_b 16.319362
_cell_length_c 24.607243
_cell_angle_alpha 90.000000
_cell_angle_beta 117.350531
_cell_angle_gamma 90.000000
_cell_volume 3075.924306
_symmetry_space_group_name_H-M "C 2/C"
_symmetry_group_IT_number 15
_symmetry_cell_setting 'monoclinic'
loop_
_space_group_symop_operation_xyz
x,y,z
-x,y,1/2-z
-x,-y,-z
x,-y,1/2+z
1/2+x,1/2+y,z
1/2-x,1/2+y,1/2-z
1/2-x,1/2-y,-z
1/2+x,1/2-y,1/2+z
loop_
_atom_site_type_symbol
_atom_site_label
_atom_site_fract_x
_atom_site_fract_y
_atom_site_fract_z
Si Si1 0.322183 0.672407 0.183908
Si Si2 0.884223 0.948950 0.904702
Si Si3 0.755923 0.028031 0.501904
Si Si4 0.518317 0.733752 0.119034
Si Si5 0.024081 0.389793 0.050094
Si Si6 0.319739 0.278936 0.251939
Si Si7 0.231957 0.992922 0.334857
Si Si8 0.829247 0.954216 0.293704
O O1 0.500000 0.661469 0.250000
O O2 0.365578 0.729756 0.139658
O O3 0.184839 0.706978 0.204667
O O4 0.265619 0.587204 0.148527
O O5 0.942073 0.858158 0.895562
O O6 0.053406 0.005684 0.944507
O O7 0.785166 0.995337 0.840090
O O8 0.775930 0.946159 0.942730
O O9 0.647027 0.943527 0.488842
O O10 0.654223 0.096523 0.520272
O O11 0.490423 0.798457 0.066119
O O12 0.680898 0.762663 0.182223
O O13 0.123870 0.437928 0.114371
O O14 0.500000 0.289971 0.250000
O O15 0.276074 0.359944 0.279808
O O16 0.248029 0.994339 0.272733
O O17 0.039901 0.959680 0.319632
#
# Coordination Sequence:
#
# PCOD9270292 Si02
#       8
#     8   8   8   8   8   8   8   8
#     4  10  20  35  57  87 126 158 198 244 306 383
#     4  11  23  44  66  88 122 174 218 246 305 389
#     4  10  25  43  64  87 122 175 216 254 304 370
#     4  11  22  39  63  93 123 159 208 265 308 365
#     4  11  22  41  63  92 129 155 209 274 309 351
#     4  11  22  35  58  96 128 157 197 252 318 382
#     4  11  18  38  65  89 120 171 197 242 324 382
#     4  11  18  35  65  89 116 165 202 242 310 387
#
# _framework density 20.806754000000002
#
# number of rings (size 3 to 8) (size 9 to 14) (size 15 to 20)
#    0.000    1.250    6.250    0.750    1.750    2.000 
#    0.000    0.625    0.000    0.000    0.000    0.000 
#    0.000    0.000    0.000    0.000    0.000    0.000 
#
# Total GULP energy -178713.661843 kJ/mol
# GULP energy per Si atom -5584.801933 kJ/mol
# Density = 2.075940 g / cm^3
# Si number density = 20.806754 Si / 1000 Ang^3
#
#
#
# Elastic Constant Matrix: (Units=GPa)
#
#
# Indices 1 2 3 4 5 6 
#
# 1 43.3401 9.5107 22.9786 0.0000 -28.2314 0.0000
# 2 9.5107 77.9991 9.0144 0.0000 -22.6276 0.0000
# 3 22.9786 9.0144 87.2850 0.0000 -35.1283 0.0000
# 4 0.0000 0.0000 0.0000 28.5372 0.0000 -7.3094
# 5 -28.2314 -22.6276 -35.1283 0.0000 29.2400 0.0000
# 6 0.0000 0.0000 0.0000 -7.3094 0.0000 16.2779
#
#
#
# Elastic Compliance Matrix: (Units=1/GPa)
#
#
# Indices 1 2 3 4 5 6 
#
# 1 0.122627 0.038622 0.045318 0.000000 0.202730 0.000000
# 2 0.038622 0.030974 0.021854 0.000000 0.087515 0.000000
# 3 0.045318 0.021854 0.041985 0.000000 0.111107 0.000000
# 4 0.000000 0.000000 0.000000 0.039596 0.000000 0.017780
# 5 0.202730 0.087515 0.111107 0.000000 0.431143 0.000000
# 6 0.000000 0.000000 0.000000 0.017780 0.000000 0.069417
#
#
# Mechanical properties :
#
#
# Convention : Reuss Voigt Hill
#
# Bulk Modulus (GPa) = 2.45595 32.40352 17.42973
# Shear Modulus (GPa) = 7.57717 25.95238 16.76478
#
# Velocity S-wave (km/s) = 1.91039 3.53555 2.84163
# Velocity P-wave (km/s) = 2.45948 5.68104 4.37740
#
# Compressibility (1/GPa) = 0.40717524
#
# Stress axis : x y z
#
# Youngs Moduli (GPa) = 8.15480 32.28552 23.81813
#
# Poissons Ratio (x) = -1.24694 -1.07940
# Poissons Ratio (y) = -0.31496 -0.52053
# Poissons Ratio (z) = -0.36956 -0.70557
#
# Static dielectric constant tensor:
#      x y z
#    x 1.766150 0.000000 -0.001780 
#    y 0.000000 1.764920 0.000000 
#    z -0.001780 0.000000 1.760250 
# 
# From -- ./inp_files/288814.got.cif
#   From: 2010.05.17/outbox.cif.g08.bks.cpg/sg15_145_cif.got.tgz:288814.got - 2010.06.03 18:47:42.
