data_PCOD9270137
_publ_section_title
;
Structure prediction by ZEFSAII (Michael W. Deem and Ramdas Pophale) SiO2 
 PCOD9270137
Probable space group: C 2/C
;
_chemical_formula_sum "Si O2"
_cell_formula_units_Z 44
_cell_length_a 6.059328
_cell_length_b 29.775754
_cell_length_c 11.139993
_cell_angle_alpha 90.000000
_cell_angle_beta 85.712518
_cell_angle_gamma 90.000000
_cell_volume 2004.264651
_symmetry_space_group_name_H-M "C 2/C"
_symmetry_group_IT_number 15
_symmetry_cell_setting 'monoclinic'
loop_
_space_group_symop_operation_xyz
x,y,z
-x,y,1/2-z
-x,-y,-z
x,-y,1/2+z
1/2+x,1/2+y,z
1/2-x,1/2+y,1/2-z
1/2-x,1/2-y,-z
1/2+x,1/2-y,1/2+z
loop_
_atom_site_type_symbol
_atom_site_label
_atom_site_fract_x
_atom_site_fract_y
_atom_site_fract_z
Si Si1 0.308877 0.433149 0.475084
Si Si2 0.591645 0.108349 0.363347
Si Si3 0.843071 0.019531 0.358576
Si Si4 0.135925 0.858196 0.433429
Si Si5 0.139470 0.772824 0.125144
Si Si6 0.500000 0.168940 0.750000
O O1 0.211308 0.476397 0.410942
O O2 0.491506 0.457131 0.552975
O O3 0.455028 0.395277 0.405023
O O4 0.116960 0.406303 0.548983
O O5 0.500000 0.133113 0.250000
O O6 0.701197 0.061220 0.318219
O O7 0.771846 0.133876 0.436072
O O8 0.000000 0.000546 0.250000
O O9 0.346377 0.861170 0.339484
O O10 0.031042 0.809471 0.420647
O O11 0.342506 0.799526 0.177110
O O12 0.000000 0.752620 0.250000
O O13 0.250000 0.750000 0.000000
#
# Coordination Sequence:
#
# PCOD9270137 Si02
#       6
#     8   8   8   8   8   4
#     4  10  21  37  56  86 119 166 222 269 318 381
#     4  11  21  38  60  87 133 175 215 274 330 385
#     4  10  20  35  56  80 119 170 221 270 321 375
#     4  10  23  40  66  95 128 169 219 270 328 393
#     4  10  23  46  74 103 138 171 217 271 335 413
#     4  10  22  46  70  94 134 166 208 268 328 400
#
# _framework density 21.953188999999998
#
# number of rings (size 3 to 8) (size 9 to 14) (size 15 to 20)
#    0.000    1.818    1.818    1.636    0.000    6.545 
#    0.000    9.091    2.000    0.000    0.000    0.000 
#    0.000    0.000    0.000    0.000    0.000    0.000 
#
# Total GULP energy -122606.356083 kJ/mol
# GULP energy per Si atom -5573.016186 kJ/mol
# Density = 2.190322 g / cm^3
# Si number density = 21.953189 Si / 1000 Ang^3
#
#
#
# Elastic Constant Matrix: (Units=GPa)
#
#
# Indices 1 2 3 4 5 6 
#
# 1 72.0061 15.6889 22.8029 0.0000 -4.1260 0.0000
# 2 15.6889 54.1439 41.8715 0.0000 -3.8702 0.0000
# 3 22.8029 41.8715 99.2679 0.0000 -4.4733 0.0000
# 4 0.0000 0.0000 0.0000 23.3095 0.0000 28.5364
# 5 -4.1260 -3.8702 -4.4733 0.0000 51.3539 0.0000
# 6 0.0000 0.0000 0.0000 28.5364 0.0000 -208.4105
#
#
#
# Elastic Compliance Matrix: (Units=1/GPa)
#
#
# Indices 1 2 3 4 5 6 
#
# 1 0.015242 -0.002491 -0.002413 0.000000 0.000827 0.000000
# 2 -0.002491 0.027876 -0.011144 0.000000 0.000930 0.000000
# 3 -0.002413 -0.011144 0.015342 0.000000 0.000303 0.000000
# 4 0.000000 0.000000 0.000000 0.036742 0.000000 0.005031
# 5 0.000827 0.000930 0.000303 0.000000 0.019636 0.000000
# 6 0.000000 0.000000 0.000000 0.005031 0.000000 -0.004109
#
#
# Mechanical properties :
#
#
# Convention : Reuss Voigt Hill
#
# Bulk Modulus (GPa) = 37.93152 42.90494 40.41823
# Shear Modulus (GPa) = 32.97881 -17.07911 7.94985
#
# Velocity S-wave (km/s) = 3.88007 -2.79225 1.90503
# Velocity P-wave (km/s) = 6.11467 3.03162 4.82596
#
# Compressibility (1/GPa) = 0.02636330
#
# Stress axis : x y z
#
# Youngs Moduli (GPa) = 65.60777 35.87367 65.17954
#
# Poissons Ratio (x) = 0.08937 0.15729
# Poissons Ratio (y) = 0.16345 0.72635
# Poissons Ratio (z) = 0.15832 0.39977
#
# Static dielectric constant tensor:
#      x y z
#    x 1.739610 0.000000 -0.041130 
#    y 0.000000 1.791520 0.000000 
#    z -0.041130 0.000000 1.860160 
# 
# From -- ./inp_files/73864.got.cif
#   From: 2010.05.17/outbox.cif.g08.bks.cpg/sg15_37_cif.got.tgz:73864.got - 2010.06.03 18:47:42.
