data_PCOD9270387
_publ_section_title
;
Structure prediction by ZEFSAII (Michael W. Deem and Ramdas Pophale) SiO2 
 PCOD9270387
Probable space group: C 2/C
;
_chemical_formula_sum "Si O2"
_cell_formula_units_Z 40
_cell_length_a 4.875562
_cell_length_b 24.374313
_cell_length_c 16.057999
_cell_angle_alpha 90.000000
_cell_angle_beta 77.251259
_cell_angle_gamma 90.000000
_cell_volume 1861.262905
_symmetry_space_group_name_H-M "C 2/C"
_symmetry_group_IT_number 15
_symmetry_cell_setting 'monoclinic'
loop_
_space_group_symop_operation_xyz
x,y,z
-x,y,1/2-z
-x,-y,-z
x,-y,1/2+z
1/2+x,1/2+y,z
1/2-x,1/2+y,1/2-z
1/2-x,1/2-y,-z
1/2+x,1/2-y,1/2+z
loop_
_atom_site_type_symbol
_atom_site_label
_atom_site_fract_x
_atom_site_fract_y
_atom_site_fract_z
Si Si1 0.189122 0.715166 0.307037
Si Si2 0.865508 0.816442 0.405737
Si Si3 0.232976 0.662362 0.483387
Si Si4 0.405151 0.439331 0.347191
Si Si5 0.173356 0.541538 0.546193
O O1 0.500000 0.727245 0.250000
O O2 0.214370 0.681585 0.390526
O O3 0.000000 0.685334 0.250000
O O4 0.005146 0.768690 0.343309
O O5 0.531558 0.817337 0.442706
O O6 0.993403 0.813850 0.490036
O O7 0.963247 0.875010 0.361937
O O8 0.240141 0.596468 0.489877
O O9 0.500000 0.456475 0.250000
O O10 0.559319 0.471686 0.413013
O O11 0.070531 0.443288 0.372056
O O12 0.000000 0.500000 0.500000
#
# Coordination Sequence:
#
# PCOD9270387 Si02
#       5
#     8   8   8   8   8
#     4  12  23  35  54  83 115 146 180 223 270 326
#     4  10  20  36  58  80 109 146 182 223 275 331
#     4  10  21  38  57  78 109 149 187 222 269 333
#     4  10  20  35  58  87 110 134 181 240 280 312
#     4  10  21  38  59  80 110 149 186 224 275 334
#
# _framework density 21.490784000000001
#
# number of rings (size 3 to 8) (size 9 to 14) (size 15 to 20)
#    0.000    1.600    0.000    5.400    0.000    3.200 
#    0.000    3.000    0.000    0.000    0.000    0.000 
#    0.000    0.000    0.000    0.000    0.000    0.000 
#
# Total GULP energy -111700.285250 kJ/mol
# GULP energy per Si atom -5585.014262 kJ/mol
# Density = 2.144187 g / cm^3
# Si number density = 21.490784 Si / 1000 Ang^3
#
#
#
# Elastic Constant Matrix: (Units=GPa)
#
#
# Indices 1 2 3 4 5 6 
#
# 1 98.2295 -8.0540 -1.1292 0.0000 -1.3201 0.0000
# 2 -8.0540 34.6178 3.7355 0.0000 -0.7651 0.0000
# 3 -1.1292 3.7355 80.9187 0.0000 6.4609 0.0000
# 4 0.0000 0.0000 0.0000 10.6660 0.0000 5.7866
# 5 -1.3201 -0.7651 6.4609 0.0000 36.3493 0.0000
# 6 0.0000 0.0000 0.0000 5.7866 0.0000 19.8043
#
#
#
# Elastic Compliance Matrix: (Units=1/GPa)
#
#
# Indices 1 2 3 4 5 6 
#
# 1 0.010385 0.002426 -0.000001 0.000000 0.000428 0.000000
# 2 0.002426 0.029625 -0.001411 0.000000 0.000962 0.000000
# 3 -0.000001 -0.001411 0.012604 0.000000 -0.002270 0.000000
# 4 0.000000 0.000000 0.000000 0.111418 0.000000 -0.032555
# 5 0.000428 0.000962 -0.002270 0.000000 0.027950 0.000000
# 6 0.000000 0.000000 0.000000 -0.032555 0.000000 0.060006
#
#
# Mechanical properties :
#
#
# Convention : Reuss Voigt Hill
#
# Bulk Modulus (GPa) = 18.30100 22.54116 20.42108
# Shear Modulus (GPa) = 18.64460 27.97817 23.31139
#
# Velocity S-wave (km/s) = 2.94864 3.61206 3.29708
# Velocity P-wave (km/s) = 4.48630 5.28275 4.90073
#
# Compressibility (1/GPa) = 0.05464181
#
# Stress axis : x y z
#
# Youngs Moduli (GPa) = 96.29394 33.75557 79.33718
#
# Poissons Ratio (x) = -0.08188 0.00010
# Poissons Ratio (y) = -0.23358 0.11191
# Poissons Ratio (z) = 0.00012 0.04761
#
# Static dielectric constant tensor:
#      x y z
#    x 1.784590 0.000000 0.029270 
#    y 0.000000 1.822150 0.000000 
#    z 0.029270 0.000000 1.778830 
# 
# From -- ./inp_files/73075.got.cif
#   From: 2010.05.17/outbox.cif.g08.bks.cpg/sg15_37_cif.got.tgz:73075.got - 2010.06.03 18:47:42.
