data_PCOD9270869
_publ_section_title
;
Structure prediction by ZEFSAII (Michael W. Deem and Ramdas Pophale) SiO2 
 PCOD9270869
Probable space group: C 2/C
;
_chemical_formula_sum "Si O2"
_cell_formula_units_Z 56
_cell_length_a 18.635380
_cell_length_b 18.910352
_cell_length_c 16.510085
_cell_angle_alpha 90.000000
_cell_angle_beta 147.804242
_cell_angle_gamma 90.000000
_cell_volume 3100.005735
_symmetry_space_group_name_H-M "C 2/C"
_symmetry_group_IT_number 15
_symmetry_cell_setting 'monoclinic'
loop_
_space_group_symop_operation_xyz
x,y,z
-x,y,1/2-z
-x,-y,-z
x,-y,1/2+z
1/2+x,1/2+y,z
1/2-x,1/2+y,1/2-z
1/2-x,1/2-y,-z
1/2+x,1/2-y,1/2+z
loop_
_atom_site_type_symbol
_atom_site_label
_atom_site_fract_x
_atom_site_fract_y
_atom_site_fract_z
Si Si1 0.606063 0.333793 0.603280
Si Si2 0.757798 0.923167 0.094077
Si Si3 0.864996 0.777293 0.170208
Si Si4 0.965930 0.028642 0.377852
Si Si5 0.098684 0.288297 0.630580
Si Si6 0.800568 0.059569 0.445240
Si Si7 0.979343 0.439170 0.915260
O O1 0.577519 0.391232 0.646100
O O2 0.747220 0.293507 0.750451
O O3 0.487488 0.277250 0.482869
O O4 0.626334 0.378375 0.538014
O O5 0.809666 0.844891 0.166407
O O6 0.849754 0.982370 0.224709
O O7 0.775257 0.922160 0.013978
O O8 0.605371 0.934884 0.975412
O O9 0.898716 0.718505 0.268985
O O10 0.000000 0.794944 0.250000
O O11 0.750000 0.750000 0.000000
O O12 0.000000 0.000000 0.500000
O O13 0.103205 0.009217 0.462710
O O14 0.032290 0.363949 0.550469
O O15 0.660531 0.048131 0.265245
O O16 0.000000 0.500000 0.000000
#
# Coordination Sequence:
#
# PCOD9270869 Si02
#       7
#     8   8   8   8   8   8   8
#     4  10  21  36  54  80 112 143 184 223 265 323
#     4  12  21  35  57  81 112 149 183 223 270 324
#     4  12  22  33  50  79 116 149 175 211 264 329
#     4  10  20  36  54  77 110 146 185 227 263 314
#     4  11  21  34  51  76 107 145 183 217 263 322
#     4  10  21  36  55  83 112 145 182 219 268 326
#     4  11  23  38  54  80 113 145 181 226 272 324
#
# _framework density 18.064484
#
# number of rings (size 3 to 8) (size 9 to 14) (size 15 to 20)
#    0.000    1.143    0.000   11.143    0.000    1.143 
#    0.000    0.000    0.000    0.000    0.000   18.000 
#    0.000    0.000    0.000    0.000    0.000    0.000 
#
# Total GULP energy -156403.598371 kJ/mol
# GULP energy per Si atom -5585.842799 kJ/mol
# Density = 1.802337 g / cm^3
# Si number density = 18.064484 Si / 1000 Ang^3
#
#
#
# Elastic Constant Matrix: (Units=GPa)
#
#
# Indices 1 2 3 4 5 6 
#
# 1 55.8378 35.6879 21.1892 -0.0002 29.0159 -0.0001
# 2 35.6879 125.9645 66.0491 -0.0001 11.2125 -0.0001
# 3 21.1892 66.0491 105.5605 -0.0001 24.9402 -0.0001
# 4 -0.0002 -0.0001 -0.0001 31.2767 -0.0001 -4.9108
# 5 29.0159 11.2125 24.9402 -0.0001 37.6279 -0.0001
# 6 -0.0001 -0.0001 -0.0001 -4.9108 -0.0001 26.4483
#
#
#
# Elastic Compliance Matrix: (Units=1/GPa)
#
#
# Indices 1 2 3 4 5 6 
#
# 1 0.039174 -0.012006 0.007043 0.000000 -0.031299 0.000000
# 2 -0.012006 0.015580 -0.009994 0.000000 0.011240 0.000000
# 3 0.007043 -0.009994 0.017657 0.000000 -0.014157 0.000000
# 4 0.000000 0.000000 0.000000 0.032933 0.000000 0.006115
# 5 -0.031299 0.011240 -0.014157 0.000000 0.056746 0.000000
# 6 0.000000 0.000000 0.000000 0.006115 0.000000 0.038945
#
#
# Mechanical properties :
#
#
# Convention : Reuss Voigt Hill
#
# Bulk Modulus (GPa) = 23.53018 59.24612 41.38815
# Shear Modulus (GPa) = 20.39871 30.03303 25.21587
#
# Velocity S-wave (km/s) = 3.36403 4.08186 3.74020
# Velocity P-wave (km/s) = 5.30498 7.42183 6.45083
#
# Compressibility (1/GPa) = 0.04249860
#
# Stress axis : x y z
#
# Youngs Moduli (GPa) = 25.52722 64.18463 56.63352
#
# Poissons Ratio (x) = 0.77059 -0.39890
# Poissons Ratio (y) = 0.30648 0.56599
# Poissons Ratio (z) = -0.17980 0.64146
#
# Static dielectric constant tensor:
#      x y z
#    x 1.639350 0.000000 0.011770 
#    y 0.000000 1.805160 0.000000 
#    z 0.011770 0.000000 1.634570 
# 
# From -- ./inp_files/215772.got.cif
#   From: 2010.05.17/outbox.cif.g08.bks.cpg/sg15_108_cif.got.tgz:215772.got - 2010.06.03 18:47:42.
