data_PCOD9270129
_publ_section_title
;
Structure prediction by ZEFSAII (Michael W. Deem and Ramdas Pophale) SiO2 
 PCOD9270129
Probable space group: C 2/C
;
_chemical_formula_sum "Si O2"
_cell_formula_units_Z 56
_cell_length_a 20.907197
_cell_length_b 11.795062
_cell_length_c 12.396113
_cell_angle_alpha 90.000000
_cell_angle_beta 56.256390
_cell_angle_gamma 90.000000
_cell_volume 2541.910805
_symmetry_space_group_name_H-M "C 2/C"
_symmetry_group_IT_number 15
_symmetry_cell_setting 'monoclinic'
loop_
_space_group_symop_operation_xyz
x,y,z
-x,y,1/2-z
-x,-y,-z
x,-y,1/2+z
1/2+x,1/2+y,z
1/2-x,1/2+y,1/2-z
1/2-x,1/2-y,-z
1/2+x,1/2-y,1/2+z
loop_
_atom_site_type_symbol
_atom_site_label
_atom_site_fract_x
_atom_site_fract_y
_atom_site_fract_z
Si Si1 0.538746 0.883604 0.603986
Si Si2 0.299103 0.859399 0.979075
Si Si3 0.971252 0.615592 0.616113
Si Si4 0.688762 0.522421 0.745185
Si Si5 0.859221 0.796147 0.807603
Si Si6 0.687264 0.722965 0.902483
Si Si7 0.335595 0.938408 0.711663
O O1 0.500000 0.840877 0.750000
O O2 0.626341 0.842165 0.517456
O O3 0.500033 0.844560 0.528652
O O4 0.472039 0.021892 0.884834
O O5 0.337083 0.896183 0.832108
O O6 0.250000 0.750000 0.000000
O O7 0.242111 0.945507 0.092348
O O8 0.933544 0.717943 0.716477
O O9 0.897880 0.536899 0.652531
O O10 0.635764 0.419154 0.755178
O O11 0.662108 0.636419 0.830824
O O12 0.748249 0.478564 0.778897
O O13 0.780449 0.737642 0.832932
O O14 0.845787 0.806477 0.948817
O O15 0.659110 0.844794 0.886558
#
# Coordination Sequence:
#
# PCOD9270129 Si02
#       7
#     8   8   8   8   8   8   8
#     4  11  24  39  62  92 133 177 219 274 342 407
#     4  12  23  39  61  97 139 175 221 284 345 398
#     4  11  23  41  59  93 134 176 228 279 340 411
#     4  11  21  37  58  93 134 175 227 280 347 403
#     4  10  22  36  59  86 136 179 223 286 347 408
#     4  10  20  35  55  92 127 181 223 282 347 405
#     4  11  21  33  59  86 133 173 218 281 334 403
#
# _framework density 22.030671000000002
#
# number of rings (size 3 to 8) (size 9 to 14) (size 15 to 20)
#    0.000    1.143    5.714    0.857    8.000    0.000 
#    0.000    0.000    0.000    0.000    0.000   12.000 
#    0.000    0.000    0.000    0.000    0.000    0.000 
#
# Total GULP energy -156193.546410 kJ/mol
# GULP energy per Si atom -5578.340943 kJ/mol
# Density = 2.198053 g / cm^3
# Si number density = 22.030671 Si / 1000 Ang^3
#
#
#
# Elastic Constant Matrix: (Units=GPa)
#
#
# Indices 1 2 3 4 5 6 
#
# 1 65.5648 14.9384 2.4679 0.0000 -4.2690 0.0000
# 2 14.9384 68.5117 15.9140 0.0000 -6.2754 0.0000
# 3 2.4679 15.9140 108.3918 0.0000 9.9655 0.0000
# 4 0.0000 0.0000 0.0000 12.6472 0.0000 -6.5596
# 5 -4.2690 -6.2754 9.9655 0.0000 26.3947 0.0000
# 6 0.0000 0.0000 0.0000 -6.5596 0.0000 40.5881
#
#
#
# Elastic Compliance Matrix: (Units=1/GPa)
#
#
# Indices 1 2 3 4 5 6 
#
# 1 0.016134 -0.003339 -0.000046 0.000000 0.001833 0.000000
# 2 -0.003339 0.016359 -0.002728 0.000000 0.004379 0.000000
# 3 -0.000046 -0.002728 0.010036 0.000000 -0.004445 0.000000
# 4 0.000000 0.000000 0.000000 0.086303 0.000000 0.013948
# 5 0.001833 0.004379 -0.004445 0.000000 0.040902 0.000000
# 6 0.000000 0.000000 0.000000 0.013948 0.000000 0.026892
#
#
# Mechanical properties :
#
#
# Convention : Reuss Voigt Hill
#
# Bulk Modulus (GPa) = 33.00075 34.34543 33.67309
# Shear Modulus (GPa) = 22.83587 29.86920 26.35254
#
# Velocity S-wave (km/s) = 3.22304 3.68611 3.46233
# Velocity P-wave (km/s) = 5.37240 5.80864 5.59477
#
# Compressibility (1/GPa) = 0.03030235
#
# Stress axis : x y z
#
# Youngs Moduli (GPa) = 61.98096 61.12805 99.64014
#
# Poissons Ratio (x) = 0.20413 0.00454
# Poissons Ratio (y) = 0.20698 0.27186
# Poissons Ratio (z) = 0.00282 0.16678
#
# Static dielectric constant tensor:
#      x y z
#    x 1.745210 0.000000 0.081120 
#    y 0.000000 1.889560 0.000000 
#    z 0.081120 0.000000 1.932390 
# 
# From -- ./inp_files/122396.got.cif
#   From: 2010.05.17/outbox.cif.g08.bks.cpg/sg15_62_cif.got.tgz:122396.got - 2010.06.03 18:47:42.
