data_PCOD9270048
_publ_section_title
;
Structure prediction by ZEFSAII (Michael W. Deem and Ramdas Pophale) SiO2 
 PCOD9270048
Probable space group: C 2/C
;
_chemical_formula_sum "Si O2"
_cell_formula_units_Z 56
_cell_length_a 10.517175
_cell_length_b 9.797733
_cell_length_c 28.925650
_cell_angle_alpha 90.000000
_cell_angle_beta 112.987477
_cell_angle_gamma 90.000000
_cell_volume 2743.937344
_symmetry_space_group_name_H-M "C 2/C"
_symmetry_group_IT_number 15
_symmetry_cell_setting 'monoclinic'
loop_
_space_group_symop_operation_xyz
x,y,z
-x,y,1/2-z
-x,-y,-z
x,-y,1/2+z
1/2+x,1/2+y,z
1/2-x,1/2+y,1/2-z
1/2-x,1/2-y,-z
1/2+x,1/2-y,1/2+z
loop_
_atom_site_type_symbol
_atom_site_label
_atom_site_fract_x
_atom_site_fract_y
_atom_site_fract_z
Si Si1 0.884959 0.207534 0.772810
Si Si2 0.025862 0.766289 0.112446
Si Si3 0.812395 0.549017 0.504972
Si Si4 0.058523 0.180896 0.515607
Si Si5 0.204769 0.289289 0.063293
Si Si6 0.605254 0.964052 0.224022
Si Si7 0.449416 0.038261 0.886642
O O1 0.745057 0.123598 0.745034
O O2 0.864415 0.372671 0.768187
O O3 0.000000 0.175304 0.750000
O O4 0.935466 0.174074 0.832263
O O5 0.860849 0.740757 0.089032
O O6 0.056475 0.848483 0.069867
O O7 0.098844 0.619012 0.118131
O O8 0.880645 0.665385 0.482448
O O9 0.662472 0.592848 0.500301
O O10 0.805462 0.409614 0.476114
O O11 0.912628 0.546604 0.563314
O O12 0.907901 0.182390 0.470868
O O13 0.155322 0.356869 0.104166
O O14 0.500000 0.928762 0.250000
O O15 0.532318 0.934467 0.164653
#
# Coordination Sequence:
#
# PCOD9270048 Si02
#       7
#     8   8   8   8   8   8   8
#     4  10  23  44  63  91 125 157 206 264 312 361
#     4  11  21  36  63  84 113 157 197 237 297 358
#     4  10  20  35  57  82 121 154 187 237 287 349
#     4  10  20  35  54  85 118 152 193 234 278 351
#     4  11  20  38  56  85 119 155 190 230 295 351
#     4  10  23  42  65  91 120 158 208 261 311 365
#     4  10  20  39  60  80 117 156 191 243 300 347
#
# _framework density 20.408629999999999
#
# number of rings (size 3 to 8) (size 9 to 14) (size 15 to 20)
#    0.000    1.714    2.857    2.143    2.000    1.143 
#    0.000    4.286    0.000    0.000    0.000    0.000 
#    0.000    0.000    0.000    0.000    0.000    0.000 
#
# Total GULP energy -156434.431966 kJ/mol
# GULP energy per Si atom -5586.943999 kJ/mol
# Density = 2.036218 g / cm^3
# Si number density = 20.408630 Si / 1000 Ang^3
#
#
#
# Elastic Constant Matrix: (Units=GPa)
#
#
# Indices 1 2 3 4 5 6 
#
# 1 84.8803 21.9401 43.9697 0.0000 -16.5605 0.0000
# 2 21.9401 32.9978 16.3755 0.0000 0.2360 0.0000
# 3 43.9697 16.3755 140.6788 0.0000 -36.2972 0.0000
# 4 0.0000 0.0000 0.0000 8.9411 0.0000 0.4893
# 5 -16.5605 0.2360 -36.2972 0.0000 28.6365 0.0000
# 6 0.0000 0.0000 0.0000 0.4893 0.0000 32.8853
#
#
#
# Elastic Compliance Matrix: (Units=1/GPa)
#
#
# Indices 1 2 3 4 5 6 
#
# 1 0.016974 -0.010181 -0.002327 0.000000 0.006951 0.000000
# 2 -0.010181 0.039375 -0.004464 0.000000 -0.011870 0.000000
# 3 -0.002327 -0.004464 0.011914 0.000000 0.013792 0.000000
# 4 0.000000 0.000000 0.000000 0.111935 0.000000 -0.001666
# 5 0.006951 -0.011870 0.013792 0.000000 0.056520 0.000000
# 6 0.000000 0.000000 0.000000 -0.001666 0.000000 0.030433
#
#
# Mechanical properties :
#
#
# Convention : Reuss Voigt Hill
#
# Bulk Modulus (GPa) = 29.13839 47.01418 38.07629
# Shear Modulus (GPa) = 15.99822 25.84401 20.92112
#
# Velocity S-wave (km/s) = 2.80285 3.56241 3.20521
# Velocity P-wave (km/s) = 4.97826 6.32514 5.69169
#
# Compressibility (1/GPa) = 0.03431899
#
# Stress axis : x y z
#
# Youngs Moduli (GPa) = 58.91192 25.39705 83.93586
#
# Poissons Ratio (x) = 0.25857 0.19531
# Poissons Ratio (y) = 0.59980 0.37468
# Poissons Ratio (z) = 0.13708 0.11337
#
# Static dielectric constant tensor:
#      x y z
#    x 1.713930 0.000000 -0.017970 
#    y 0.000000 1.743270 0.000000 
#    z -0.017970 0.000000 1.714840 
# 
# From -- ./inp_files/292060.got.cif
#   From: 2010.05.17/outbox.cif.g08.bks.cpg/sg15_147_cif.got.tgz:292060.got - 2010.06.03 18:47:42.
