data_PCOD9270878
_publ_section_title
;
Structure prediction by ZEFSAII (Michael W. Deem and Ramdas Pophale) SiO2 
 PCOD9270878
Probable space group: C 2/C
;
_chemical_formula_sum "Si O2"
_cell_formula_units_Z 52
_cell_length_a 18.906961
_cell_length_b 7.694254
_cell_length_c 14.228463
_cell_angle_alpha 90.000000
_cell_angle_beta 72.601737
_cell_angle_gamma 90.000000
_cell_volume 1975.186593
_symmetry_space_group_name_H-M "C 2/C"
_symmetry_group_IT_number 15
_symmetry_cell_setting 'monoclinic'
loop_
_space_group_symop_operation_xyz
x,y,z
-x,y,1/2-z
-x,-y,-z
x,-y,1/2+z
1/2+x,1/2+y,z
1/2-x,1/2+y,1/2-z
1/2-x,1/2-y,-z
1/2+x,1/2-y,1/2+z
loop_
_atom_site_type_symbol
_atom_site_label
_atom_site_fract_x
_atom_site_fract_y
_atom_site_fract_z
Si Si1 0.845228 0.166598 0.085984
Si Si2 0.540929 0.746573 0.830176
Si Si3 0.156334 0.522785 0.521128
Si Si4 0.000000 0.500000 0.000000
Si Si5 0.685831 0.157426 0.193866
Si Si6 0.682551 0.527299 0.085787
Si Si7 0.568037 0.342373 0.776066
O O1 0.831241 0.331202 0.027492
O O2 0.772411 0.124881 0.178299
O O3 0.905595 0.236374 0.136591
O O4 0.850587 0.013466 0.005871
O O5 0.500000 0.797905 0.750000
O O6 0.623993 0.825866 0.797701
O O7 0.546119 0.537829 0.821354
O O8 0.494975 0.832628 0.930437
O O9 0.161103 0.489027 0.630318
O O10 0.234473 0.601874 0.455346
O O11 0.077383 0.583320 0.516569
O O12 0.681964 0.343921 0.142791
O O13 0.629506 0.639868 0.171636
O O14 0.500000 0.256875 0.750000
#
# Coordination Sequence:
#
# PCOD9270878 Si02
#       7
#     8   8   8   4   8   8   8
#     4   9  18  34  60  82 106 142 182 235 278 319
#     4  10  20  36  54  81 109 142 192 226 267 335
#     4   9  18  34  56  84 106 142 192 220 270 328
#     4  12  22  32  58  82 110 152 180 228 278 320
#     4   8  15  34  58  78 105 140 190 229 254 324
#     4   8  17  34  56  81 107 141 187 227 261 330
#     4  10  21  35  57  84 109 144 183 230 286 336
#
# _framework density 26.326626000000001
#
# number of rings (size 3 to 8) (size 9 to 14) (size 15 to 20)
#    0.000    2.769    1.538    1.846    4.308    0.615 
#    0.000    0.769    0.000    3.692    0.000    0.000 
#    0.000    0.000    0.000    0.000    0.000    0.000 
#
# Total GULP energy -144814.687387 kJ/mol
# GULP energy per Si atom -5569.795669 kJ/mol
# Density = 2.626671 g / cm^3
# Si number density = 26.326626 Si / 1000 Ang^3
#
#
#
# Elastic Constant Matrix: (Units=GPa)
#
#
# Indices 1 2 3 4 5 6 
#
# 1 83.5572 -5.9206 26.0991 0.0000 2.5588 0.0000
# 2 -5.9206 80.6410 8.6540 0.0000 -4.4955 0.0000
# 3 26.0991 8.6540 30.2093 0.0000 -6.3042 0.0000
# 4 0.0000 0.0000 0.0000 4.4313 0.0000 8.9876
# 5 2.5588 -4.4955 -6.3042 0.0000 43.7566 0.0000
# 6 0.0000 0.0000 0.0000 8.9876 0.0000 -0.2551
#
#
#
# Elastic Compliance Matrix: (Units=1/GPa)
#
#
# Indices 1 2 3 4 5 6 
#
# 1 0.017431 0.002881 -0.016533 0.000000 -0.003105 0.000000
# 2 0.002881 0.013298 -0.006236 0.000000 0.000299 0.000000
# 3 -0.016533 -0.006236 0.050767 0.000000 0.007640 0.000000
# 4 0.000000 0.000000 0.000000 0.003114 0.000000 0.109729
# 5 -0.003105 0.000299 0.007640 0.000000 0.024167 0.000000
# 6 0.000000 0.000000 0.000000 0.109729 0.000000 -0.054101
#
#
# Mechanical properties :
#
#
# Convention : Reuss Voigt Hill
#
# Bulk Modulus (GPa) = 23.96927 28.00805 25.98866
# Shear Modulus (GPa) = 46.14333 20.62490 33.38412
#
# Velocity S-wave (km/s) = 4.19110 2.80201 3.56487
# Velocity P-wave (km/s) = 5.70480 4.59675 5.18048
#
# Compressibility (1/GPa) = 0.04172008
#
# Stress axis : x y z
#
# Youngs Moduli (GPa) = 57.36867 75.19902 19.69797
#
# Poissons Ratio (x) = -0.21664 0.32566
# Poissons Ratio (y) = -0.16527 0.12284
# Poissons Ratio (z) = 0.94847 0.46894
#
# Static dielectric constant tensor:
#      x y z
#    x 2.224780 0.000000 0.040250 
#    y 0.000000 2.065980 0.000000 
#    z 0.040250 0.000000 2.197970 
# 
# From -- ./inp_files/160385.got.cif
#   From: 2010.05.17/outbox.cif.g08.bks.cpg/sg15_81_cif.got.tgz:160385.got - 2010.06.03 18:47:42.
