data_PCOD9270782
_publ_section_title
;
Structure prediction by ZEFSAII (Michael W. Deem and Ramdas Pophale) SiO2 
 PCOD9270782
Probable space group: C 2/C
;
_chemical_formula_sum "Si O2"
_cell_formula_units_Z 56
_cell_length_a 16.170992
_cell_length_b 5.120047
_cell_length_c 33.795915
_cell_angle_alpha 90.000000
_cell_angle_beta 117.635332
_cell_angle_gamma 90.000000
_cell_volume 2478.952499
_symmetry_space_group_name_H-M "C 2/C"
_symmetry_group_IT_number 15
_symmetry_cell_setting 'monoclinic'
loop_
_space_group_symop_operation_xyz
x,y,z
-x,y,1/2-z
-x,-y,-z
x,-y,1/2+z
1/2+x,1/2+y,z
1/2-x,1/2+y,1/2-z
1/2-x,1/2-y,-z
1/2+x,1/2-y,1/2+z
loop_
_atom_site_type_symbol
_atom_site_label
_atom_site_fract_x
_atom_site_fract_y
_atom_site_fract_z
Si Si1 0.691183 0.359806 0.243552
Si Si2 0.569645 0.384995 0.655215
Si Si3 0.959301 0.280454 0.583402
Si Si4 0.353011 0.530712 0.177793
Si Si5 0.058764 0.524621 0.339368
Si Si6 0.152136 0.595701 0.606133
Si Si7 0.065619 0.249799 0.008616
O O1 0.729933 0.068300 0.252161
O O2 0.611166 0.400012 0.193364
O O3 0.658884 0.458067 0.279141
O O4 0.487498 0.507254 0.610149
O O5 0.537149 0.135584 0.673309
O O6 0.646389 0.303528 0.640339
O O7 0.060441 0.413860 0.594576
O O8 0.909770 0.438989 0.607592
O O9 0.903838 0.251956 0.530355
O O10 0.390886 0.817915 0.177689
O O11 0.252762 0.528254 0.133727
O O12 0.421041 0.307187 0.175018
O O13 0.139182 0.726839 0.560417
O O14 0.000000 0.500000 0.000000
O O15 0.000000 0.000000 0.000000
#
# Coordination Sequence:
#
# PCOD9270782 Si02
#       7
#     8   8   8   8   8   8   8
#     4  12  26  43  68 101 125 162 220 275 318 374
#     4  11  22  44  69  91 130 172 214 263 323 380
#     4  10  21  43  68  96 130 170 220 263 319 384
#     4  12  25  45  64  95 134 166 216 265 321 384
#     4  11  26  44  63  92 134 175 206 259 323 388
#     4  10  22  39  70  98 126 170 214 273 322 368
#     4  10  20  35  65 101 125 159 219 270 313 376
#
# _framework density 22.590188000000001
#
# number of rings (size 3 to 8) (size 9 to 14) (size 15 to 20)
#    0.000    1.143    4.286    1.714    4.000    0.571 
#    2.571    1.429    0.000    0.000    0.000    0.000 
#    0.000    0.000    0.000    0.000    0.000    0.000 
#
# Total GULP energy -156319.533770 kJ/mol
# GULP energy per Si atom -5582.840492 kJ/mol
# Density = 2.253877 g / cm^3
# Si number density = 22.590188 Si / 1000 Ang^3
#
#
#
# Elastic Constant Matrix: (Units=GPa)
#
#
# Indices 1 2 3 4 5 6 
#
# 1 33.2764 4.8575 16.6350 0.0000 -11.0113 0.0000
# 2 4.8575 81.9330 -11.9642 0.0000 -4.8266 0.0002
# 3 16.6350 -11.9642 81.6591 -0.0002 -15.4383 0.0001
# 4 0.0000 0.0000 -0.0002 29.2233 0.0000 -6.4526
# 5 -11.0113 -4.8266 -15.4383 0.0000 29.5891 0.0000
# 6 0.0000 0.0002 0.0001 -6.4526 0.0000 35.6446
#
#
#
# Elastic Compliance Matrix: (Units=1/GPa)
#
#
# Indices 1 2 3 4 5 6 
#
# 1 0.036736 -0.002442 -0.005915 0.000000 0.010186 0.000000
# 2 -0.002442 0.012934 0.002906 0.000000 0.002718 0.000000
# 3 -0.005915 0.002906 0.015033 0.000000 0.006116 0.000000
# 4 0.000000 0.000000 0.000000 0.035644 0.000000 0.006452
# 5 0.010186 0.002718 0.006116 0.000000 0.041221 0.000000
# 6 0.000000 0.000000 0.000000 0.006452 0.000000 0.029223
#
#
# Mechanical properties :
#
#
# Convention : Reuss Voigt Hill
#
# Bulk Modulus (GPa) = 18.58694 23.99170 21.28932
# Shear Modulus (GPa) = 25.04672 31.38074 28.21373
#
# Velocity S-wave (km/s) = 3.33339 3.73115 3.53786
# Velocity P-wave (km/s) = 4.80220 5.40420 5.11207
#
# Compressibility (1/GPa) = 0.05380122
#
# Stress axis : x y z
#
# Youngs Moduli (GPa) = 27.22159 77.31366 66.51926
#
# Poissons Ratio (x) = 0.18877 0.39349
# Poissons Ratio (y) = 0.06647 -0.19332
# Poissons Ratio (z) = 0.16103 -0.22469
#
# Static dielectric constant tensor:
#      x y z
#    x 1.868860 0.000000 0.007760 
#    y 0.000000 1.904840 0.000000 
#    z 0.007760 0.000000 1.846460 
# 
# From -- ./inp_files/314913.got.cif
#   From: 2010.05.17/outbox.cif.g08.bks.cpg/sg15_158_cif.got.tgz:314913.got - 2010.06.03 18:47:42.
