data_PCOD9270268
_publ_section_title
;
Structure prediction by ZEFSAII (Michael W. Deem and Ramdas Pophale) SiO2 
 PCOD9270268
Probable space group: C 2/C
;
_chemical_formula_sum "Si O2"
_cell_formula_units_Z 60
_cell_length_a 16.828443
_cell_length_b 33.795222
_cell_length_c 5.322745
_cell_angle_alpha 90.000000
_cell_angle_beta 92.081109
_cell_angle_gamma 90.000000
_cell_volume 3025.160036
_symmetry_space_group_name_H-M "C 2/C"
_symmetry_group_IT_number 15
_symmetry_cell_setting 'monoclinic'
loop_
_space_group_symop_operation_xyz
x,y,z
-x,y,1/2-z
-x,-y,-z
x,-y,1/2+z
1/2+x,1/2+y,z
1/2-x,1/2+y,1/2-z
1/2-x,1/2-y,-z
1/2+x,1/2-y,1/2+z
loop_
_atom_site_type_symbol
_atom_site_label
_atom_site_fract_x
_atom_site_fract_y
_atom_site_fract_z
Si Si1 0.719857 0.102598 0.674582
Si Si2 0.257556 0.813599 0.401227
Si Si3 0.178422 0.741836 0.183435
Si Si4 0.579709 0.813421 0.420182
Si Si5 0.000000 0.026640 0.750000
Si Si6 0.411660 0.982759 0.956365
Si Si7 0.377700 0.105888 0.337538
Si Si8 0.674534 0.473328 0.298358
O O1 0.770224 0.141524 0.610546
O O2 0.649524 0.104471 0.455847
O O3 0.764829 0.061897 0.652605
O O4 0.692631 0.105580 0.961682
O O5 0.187085 0.782321 0.338499
O O6 0.293153 0.796811 0.661718
O O7 0.337628 0.814191 0.233683
O O8 0.250000 0.750000 0.000000
O O9 0.094288 0.727768 0.068965
O O10 0.500000 0.812504 0.250000
O O11 0.577739 0.853399 0.587648
O O12 0.913902 0.046388 0.724837
O O13 0.000000 0.000000 0.500000
O O14 0.372247 0.995279 0.214978
O O15 0.418224 0.936136 0.907020
O O16 0.500000 0.000000 0.000000
O O17 0.682138 0.503251 0.535301
#
# Coordination Sequence:
#
# PCOD9270268 Si02
#       8
#     8   8   8   8   4   8   8   8
#     4  11  22  37  58  86 117 149 199 241 294 341
#     4   9  19  36  57  86 110 152 185 239 293 356
#     4   9  17  36  60  80 109 144 188 227 298 358
#     4  10  21  35  57  86 116 148 196 244 295 342
#     4   8  16  32  54  80 110 138 180 224 280 342
#     4  10  22  38  52  68  99 153 204 239 303 341
#     4  11  23  38  54  81 114 152 202 255 286 341
#     4  10  20  35  57  85 114 153 191 241 291 344
#
# _framework density 19.833659999999998
#
# number of rings (size 3 to 8) (size 9 to 14) (size 15 to 20)
#    0.000    2.133    1.333    1.600    1.867    3.733 
#    2.400    0.000    0.000    4.800    1.733    0.000 
#    0.000    0.000    0.000    0.000    0.000    0.000 
#
# Total GULP energy -167037.801354 kJ/mol
# GULP energy per Si atom -5567.926712 kJ/mol
# Density = 1.978852 g / cm^3
# Si number density = 19.833660 Si / 1000 Ang^3
#
#
#
# Elastic Constant Matrix: (Units=GPa)
#
#
# Indices 1 2 3 4 5 6 
#
# 1 66.5734 44.5732 10.0089 0.0000 23.5765 0.0000
# 2 44.5732 110.1527 18.0053 0.0000 18.0462 0.0000
# 3 10.0089 18.0053 96.5205 0.0000 6.8417 0.0000
# 4 0.0000 0.0000 0.0000 31.5576 0.0000 3.2186
# 5 23.5765 18.0462 6.8417 0.0000 32.9044 0.0000
# 6 0.0000 0.0000 0.0000 3.2186 0.0000 17.2629
#
#
#
# Elastic Compliance Matrix: (Units=1/GPa)
#
#
# Indices 1 2 3 4 5 6 
#
# 1 0.025196 -0.007929 -0.000165 0.000000 -0.013670 0.000000
# 2 -0.007929 0.012687 -0.001476 0.000000 -0.000970 0.000000
# 3 -0.000165 -0.001476 0.010745 0.000000 -0.001307 0.000000
# 4 0.000000 0.000000 0.000000 0.032302 0.000000 -0.006023
# 5 -0.013670 -0.000970 -0.001307 0.000000 0.040990 0.000000
# 6 0.000000 0.000000 0.000000 -0.006023 0.000000 0.059051
#
#
# Mechanical properties :
#
#
# Convention : Reuss Voigt Hill
#
# Bulk Modulus (GPa) = 33.91028 46.49126 40.20077
# Shear Modulus (GPa) = 23.81640 29.72225 26.76932
#
# Velocity S-wave (km/s) = 3.46903 3.87534 3.67780
# Velocity P-wave (km/s) = 5.76021 6.59666 6.19257
#
# Compressibility (1/GPa) = 0.02948958
#
# Stress axis : x y z
#
# Youngs Moduli (GPa) = 39.68931 78.82174 93.06233
#
# Poissons Ratio (x) = 0.62497 0.01532
# Poissons Ratio (y) = 0.31469 0.13733
# Poissons Ratio (z) = 0.00653 0.11632
#
# Static dielectric constant tensor:
#      x y z
#    x 1.620070 0.000000 0.024470 
#    y 0.000000 1.741980 0.000000 
#    z 0.024470 0.000000 1.808130 
# 
# From -- ./inp_files/12028.got.cif
#   From: 2010.05.17/outbox.cif.g08.bks.cpg/sg15_7_cif.got.tgz:12028.got - 2010.06.03 18:47:42.
