data_PCOD9270275
_publ_section_title
;
Structure prediction by ZEFSAII (Michael W. Deem and Ramdas Pophale) SiO2 
 PCOD9270275
Probable space group: C 2/C
;
_chemical_formula_sum "Si O2"
_cell_formula_units_Z 56
_cell_length_a 9.193939
_cell_length_b 10.117562
_cell_length_c 27.952476
_cell_angle_alpha 90.000000
_cell_angle_beta 100.161824
_cell_angle_gamma 90.000000
_cell_volume 2559.358741
_symmetry_space_group_name_H-M "C 2/C"
_symmetry_group_IT_number 15
_symmetry_cell_setting 'monoclinic'
loop_
_space_group_symop_operation_xyz
x,y,z
-x,y,1/2-z
-x,-y,-z
x,-y,1/2+z
1/2+x,1/2+y,z
1/2-x,1/2+y,1/2-z
1/2-x,1/2-y,-z
1/2+x,1/2-y,1/2+z
loop_
_atom_site_type_symbol
_atom_site_label
_atom_site_fract_x
_atom_site_fract_y
_atom_site_fract_z
Si Si1 0.013456 0.184803 0.998053
Si Si2 0.819488 0.590425 0.038145
Si Si3 0.211587 0.170971 0.127780
Si Si4 0.621818 0.683375 0.715111
Si Si5 0.868494 0.867962 0.388156
Si Si6 0.426429 0.187641 0.584199
Si Si7 0.171355 0.570455 0.266947
O O1 0.097028 0.326526 0.997015
O O2 0.934436 0.167111 0.943276
O O3 0.147714 0.080783 0.012056
O O4 0.917249 0.205289 0.040322
O O5 0.810547 0.678615 0.085954
O O6 0.896188 0.454863 0.057892
O O7 0.298418 0.149736 0.181841
O O8 0.085444 0.282611 0.117321
O O9 0.135437 0.026674 0.116434
O O10 0.500000 0.675426 0.750000
O O11 0.562923 0.680151 0.657484
O O12 0.728919 0.558559 0.727102
O O13 0.704824 0.822043 0.728165
O O14 0.701364 0.810428 0.383196
O O15 0.000000 0.533704 0.250000
#
# Coordination Sequence:
#
# PCOD9270275 Si02
#       7
#     8   8   8   8   8   8   8
#     4  10  20  35  57  85 125 161 199 251 290 364
#     4   9  20  35  57  86 124 162 203 243 299 358
#     4   9  21  39  59  86 122 154 199 255 309 369
#     4  10  24  43  64  95 126 162 215 266 323 384
#     4  10  22  38  59  85 123 157 203 250 312 362
#     4  10  20  37  57  89 119 161 204 243 299 372
#     4  10  23  43  68  93 125 166 209 268 329 382
#
# _framework density 21.880481
#
# number of rings (size 3 to 8) (size 9 to 14) (size 15 to 20)
#    0.000    2.286    0.000    0.857    4.000   12.571 
#    0.000    0.000    0.000    0.000    0.000    0.000 
#    0.000    0.000    0.000    0.000    0.000    0.000 
#
# Total GULP energy -156152.812645 kJ/mol
# GULP energy per Si atom -5576.886166 kJ/mol
# Density = 2.183068 g / cm^3
# Si number density = 21.880481 Si / 1000 Ang^3
#
#
#
# Elastic Constant Matrix: (Units=GPa)
#
#
# Indices 1 2 3 4 5 6 
#
# 1 85.0599 35.7173 30.8492 0.0000 3.0226 0.0000
# 2 35.7173 75.1148 8.5544 0.0000 9.3691 0.0000
# 3 30.8492 8.5544 101.7727 0.0000 9.9591 0.0000
# 4 0.0000 0.0000 0.0000 28.1088 0.0000 3.0524
# 5 3.0226 9.3691 9.9591 0.0000 40.7972 0.0000
# 6 0.0000 0.0000 0.0000 3.0524 0.0000 38.8068
#
#
#
# Elastic Compliance Matrix: (Units=1/GPa)
#
#
# Indices 1 2 3 4 5 6 
#
# 1 0.016504 -0.007533 -0.004527 0.000000 0.001612 0.000000
# 2 -0.007533 0.017219 0.001197 0.000000 -0.003688 0.000000
# 3 -0.004527 0.001197 0.011363 0.000000 -0.002713 0.000000
# 4 0.000000 0.000000 0.000000 0.035883 0.000000 -0.002822
# 5 0.001612 -0.003688 -0.002713 0.000000 0.025901 0.000000
# 6 0.000000 0.000000 0.000000 -0.002822 0.000000 0.025991
#
#
# Mechanical properties :
#
#
# Convention : Reuss Voigt Hill
#
# Bulk Modulus (GPa) = 42.81007 45.79882 44.30444
# Shear Modulus (GPa) = 30.79298 33.99766 32.39532
#
# Velocity S-wave (km/s) = 3.75550 3.94609 3.85198
# Velocity P-wave (km/s) = 6.19782 6.46057 6.33056
#
# Compressibility (1/GPa) = 0.02335899
#
# Stress axis : x y z
#
# Youngs Moduli (GPa) = 60.58977 58.07595 88.00458
#
# Poissons Ratio (x) = 0.43751 0.39843
# Poissons Ratio (y) = 0.45645 -0.10535
# Poissons Ratio (z) = 0.27431 -0.06953
#
# Static dielectric constant tensor:
#      x y z
#    x 1.855540 0.000000 0.013130 
#    y 0.000000 1.820810 0.000000 
#    z 0.013130 0.000000 1.821670 
# 
# From -- ./inp_files/288082.got.cif
#   From: 2010.05.17/outbox.cif.g08.bks.cpg/sg15_145_cif.got.tgz:288082.got - 2010.06.03 18:47:42.
