data_PCOD9270054
_publ_section_title
;
Structure prediction by ZEFSAII (Michael W. Deem and Ramdas Pophale) SiO2 
 PCOD9270054
Probable space group: C 2/C
;
_chemical_formula_sum "Si O2"
_cell_formula_units_Z 56
_cell_length_a 21.229564
_cell_length_b 18.475106
_cell_length_c 8.038149
_cell_angle_alpha 90.000000
_cell_angle_beta 117.004156
_cell_angle_gamma 90.000000
_cell_volume 2808.981621
_symmetry_space_group_name_H-M "C 2/C"
_symmetry_group_IT_number 15
_symmetry_cell_setting 'monoclinic'
loop_
_space_group_symop_operation_xyz
x,y,z
-x,y,1/2-z
-x,-y,-z
x,-y,1/2+z
1/2+x,1/2+y,z
1/2-x,1/2+y,1/2-z
1/2-x,1/2-y,-z
1/2+x,1/2-y,1/2+z
loop_
_atom_site_type_symbol
_atom_site_label
_atom_site_fract_x
_atom_site_fract_y
_atom_site_fract_z
Si Si1 0.681724 0.545737 0.263791
Si Si2 0.771393 0.323990 0.796853
Si Si3 0.699200 0.394097 0.152933
Si Si4 0.935907 0.873204 0.054120
Si Si5 0.016453 0.740159 0.577346
Si Si6 0.331050 0.195724 0.724536
Si Si7 0.874138 0.767333 0.249979
O O1 0.742785 0.594838 0.250840
O O2 0.694282 0.460705 0.272435
O O3 0.679415 0.575510 0.448089
O O4 0.610927 0.564177 0.078131
O O5 0.706267 0.272462 0.776218
O O6 0.810513 0.290396 0.683878
O O7 0.824668 0.316446 0.017868
O O8 0.778568 0.362986 0.239961
O O9 0.648915 0.327474 0.141258
O O10 0.889365 0.816821 0.108552
O O11 0.000000 0.897116 0.250000
O O12 0.966155 0.823932 0.942168
O O13 0.087976 0.696474 0.623269
O O14 0.000000 0.729864 0.750000
O O15 0.946871 0.727362 0.384049
#
# Coordination Sequence:
#
# PCOD9270054 Si02
#       7
#     8   8   8   8   8   8   8
#     4  11  20  38  56  76 112 153 182 225 273 327
#     4   9  17  32  58  80 108 138 188 228 276 324
#     4  10  22  37  58  83 114 146 192 224 273 332
#     4  10  22  35  52  84 118 141 183 226 279 334
#     4  11  18  33  58  82 109 146 182 225 278 321
#     4   9  17  33  55  85 107 141 186 232 267 330
#     4  10  20  35  54  87 113 140 182 234 275 332
#
# _framework density 19.936050000000002
#
# number of rings (size 3 to 8) (size 9 to 14) (size 15 to 20)
#    0.000    2.000    2.857    2.571    0.000    0.571 
#    2.571    7.143    0.000    0.857    0.000    0.000 
#    0.000    0.000    0.000    0.000    0.000    0.000 
#
# Total GULP energy -156341.146481 kJ/mol
# GULP energy per Si atom -5583.612374 kJ/mol
# Density = 1.989068 g / cm^3
# Si number density = 19.936050 Si / 1000 Ang^3
#
#
#
# Elastic Constant Matrix: (Units=GPa)
#
#
# Indices 1 2 3 4 5 6 
#
# 1 73.7944 1.5023 22.7701 0.0000 12.8657 0.0000
# 2 1.5023 36.8838 16.8626 0.0000 10.0433 0.0000
# 3 22.7701 16.8626 77.4666 0.0000 15.3168 0.0000
# 4 0.0000 0.0000 0.0000 20.7505 0.0000 -2.3166
# 5 12.8657 10.0433 15.3168 0.0000 29.1854 0.0000
# 6 0.0000 0.0000 0.0000 -2.3166 0.0000 25.0761
#
#
#
# Elastic Compliance Matrix: (Units=1/GPa)
#
#
# Indices 1 2 3 4 5 6 
#
# 1 0.015765 0.002803 -0.004105 0.000000 -0.005760 0.000000
# 2 0.002803 0.032252 -0.006032 0.000000 -0.009169 0.000000
# 3 -0.004105 -0.006032 0.016358 0.000000 -0.004699 0.000000
# 4 0.000000 0.000000 0.000000 0.048694 0.000000 0.004499
# 5 -0.005760 -0.009169 -0.004699 0.000000 0.042424 0.000000
# 6 0.000000 0.000000 0.000000 0.004499 0.000000 0.040294
#
#
# Mechanical properties :
#
#
# Convention : Reuss Voigt Hill
#
# Bulk Modulus (GPa) = 20.11777 30.04609 25.08193
# Shear Modulus (GPa) = 22.02415 24.80305 23.41360
#
# Velocity S-wave (km/s) = 3.32737 3.53105 3.43072
# Velocity P-wave (km/s) = 4.98747 5.63279 5.31993
#
# Compressibility (1/GPa) = 0.04970730
#
# Stress axis : x y z
#
# Youngs Moduli (GPa) = 63.43167 31.00567 61.13392
#
# Poissons Ratio (x) = -0.08691 0.25097
# Poissons Ratio (y) = -0.17780 0.36873
# Poissons Ratio (z) = 0.26040 0.18701
#
# Static dielectric constant tensor:
#      x y z
#    x 1.762750 0.000000 -0.018670 
#    y 0.000000 1.663100 0.000000 
#    z -0.018670 0.000000 1.754220 
# 
# From -- ./inp_files/56706.got.cif
#   From: 2010.05.17/outbox.cif.g08.bks.cpg/sg15_29_cif.got.tgz:56706.got - 2010.06.03 18:47:42.
