data_PCOD9270681
_publ_section_title
;
Structure prediction by ZEFSAII (Michael W. Deem and Ramdas Pophale) SiO2 
 PCOD9270681
Probable space group: C 2/C
;
_chemical_formula_sum "Si O2"
_cell_formula_units_Z 48
_cell_length_a 11.140128
_cell_length_b 14.816414
_cell_length_c 14.295463
_cell_angle_alpha 90.000000
_cell_angle_beta 83.270409
_cell_angle_gamma 90.000000
_cell_volume 2343.305870
_symmetry_space_group_name_H-M "C 2/C"
_symmetry_group_IT_number 15
_symmetry_cell_setting 'monoclinic'
loop_
_space_group_symop_operation_xyz
x,y,z
-x,y,1/2-z
-x,-y,-z
x,-y,1/2+z
1/2+x,1/2+y,z
1/2-x,1/2+y,1/2-z
1/2-x,1/2-y,-z
1/2+x,1/2-y,1/2+z
loop_
_atom_site_type_symbol
_atom_site_label
_atom_site_fract_x
_atom_site_fract_y
_atom_site_fract_z
Si Si1 0.569555 0.868802 0.613264
Si Si2 0.381701 0.476063 0.202486
Si Si3 0.186782 0.836128 0.552337
Si Si4 0.707840 0.461284 0.986693
Si Si5 0.993137 0.835508 0.424419
Si Si6 0.183743 0.413933 0.802153
O O1 0.665803 0.910313 0.533380
O O2 0.546038 0.763989 0.597953
O O3 0.633004 0.879860 0.708023
O O4 0.439806 0.918677 0.626846
O O5 0.500000 0.505006 0.250000
O O6 0.357239 0.531061 0.109013
O O7 0.411939 0.376241 0.159818
O O8 0.261876 0.496235 0.274048
O O9 0.250000 0.750000 0.500000
O O10 0.053110 0.831899 0.521961
O O11 0.224217 0.843553 0.657027
O O12 0.228652 0.935535 0.514413
O O13 0.615681 0.406821 0.060352
#
# Coordination Sequence:
#
# PCOD9270681 Si02
#       6
#     8   8   8   8   8   8
#     4  10  22  38  62  87 125 158 197 246 303 366
#     4  10  20  35  62  85 117 153 200 254 290 351
#     4  11  21  38  59  87 120 158 203 248 298 351
#     4  10  22  38  60  91 119 158 203 247 297 361
#     4  11  21  38  63  91 116 159 206 244 301 358
#     4  10  21  39  56  87 119 158 198 245 303 351
#
# _framework density 20.483881
#
# number of rings (size 3 to 8) (size 9 to 14) (size 15 to 20)
#    0.000    1.667    1.667    4.500    2.333    0.667 
#    0.000    0.000    0.000    4.000    0.000    0.000 
#    0.000    0.000    0.000    0.000    0.000    0.000 
#
# Total GULP energy -133774.923721 kJ/mol
# GULP energy per Si atom -5573.955155 kJ/mol
# Density = 2.043726 g / cm^3
# Si number density = 20.483881 Si / 1000 Ang^3
#
#
#
# Elastic Constant Matrix: (Units=GPa)
#
#
# Indices 1 2 3 4 5 6 
#
# 1 125.0356 69.6802 42.2221 0.0000 8.9265 0.0000
# 2 69.6802 128.6435 19.8397 0.0000 -24.8219 0.0000
# 3 42.2221 19.8397 36.5153 0.0000 8.5148 0.0000
# 4 0.0000 0.0000 0.0000 9.7167 0.0000 2.5962
# 5 8.9265 -24.8219 8.5148 0.0000 42.2034 0.0000
# 6 0.0000 0.0000 0.0000 2.5962 0.0000 41.3643
#
#
#
# Elastic Compliance Matrix: (Units=1/GPa)
#
#
# Indices 1 2 3 4 5 6 
#
# 1 0.018465 -0.008833 -0.015142 0.000000 -0.006046 0.000000
# 2 -0.008833 0.014609 -0.000172 0.000000 0.010495 0.000000
# 3 -0.015142 -0.000172 0.046449 0.000000 -0.006270 0.000000
# 4 0.000000 0.000000 0.000000 0.104671 0.000000 -0.006570
# 5 -0.006046 0.010495 -0.006270 0.000000 0.032411 0.000000
# 6 0.000000 0.000000 0.000000 -0.006570 0.000000 0.024588
#
#
# Mechanical properties :
#
#
# Convention : Reuss Voigt Hill
#
# Bulk Modulus (GPa) = 32.01967 61.51982 46.76974
# Shear Modulus (GPa) = 16.67246 29.22037 22.94642
#
# Velocity S-wave (km/s) = 2.85604 3.78101 3.35060
# Velocity P-wave (km/s) = 5.15185 7.01141 6.15229
#
# Compressibility (1/GPa) = 0.03123080
#
# Stress axis : x y z
#
# Youngs Moduli (GPa) = 54.15731 68.44938 21.52892
#
# Poissons Ratio (x) = 0.60460 0.32598
# Poissons Ratio (y) = 0.47836 0.00370
# Poissons Ratio (z) = 0.82003 0.01176
#
# Static dielectric constant tensor:
#      x y z
#    x 1.773500 0.000000 0.014870 
#    y 0.000000 1.696190 0.000000 
#    z 0.014870 0.000000 1.833770 
# 
# From -- ./inp_files/143541.got.cif
#   From: 2010.05.17/outbox.cif.g08.bks.cpg/sg15_72_cif.got.tgz:143541.got - 2010.06.03 18:47:42.
