data_PCOD9270030
_publ_section_title
;
Structure prediction by ZEFSAII (Michael W. Deem and Ramdas Pophale) SiO2 
 PCOD9270030
Probable space group: C 2/C
;
_chemical_formula_sum "Si O2"
_cell_formula_units_Z 32
_cell_length_a 9.595523
_cell_length_b 21.276340
_cell_length_c 7.766541
_cell_angle_alpha 90.000000
_cell_angle_beta 46.603486
_cell_angle_gamma 90.000000
_cell_volume 1152.121952
_symmetry_space_group_name_H-M "C 2/C"
_symmetry_group_IT_number 15
_symmetry_cell_setting 'monoclinic'
loop_
_space_group_symop_operation_xyz
x,y,z
-x,y,1/2-z
-x,-y,-z
x,-y,1/2+z
1/2+x,1/2+y,z
1/2-x,1/2+y,1/2-z
1/2-x,1/2-y,-z
1/2+x,1/2-y,1/2+z
loop_
_atom_site_type_symbol
_atom_site_label
_atom_site_fract_x
_atom_site_fract_y
_atom_site_fract_z
Si Si1 0.364246 0.233255 0.700004
Si Si2 0.763970 0.567059 0.617723
Si Si3 0.504791 0.361401 0.555030
Si Si4 0.000000 0.541075 0.750000
Si Si5 0.000000 0.333504 0.750000
O O1 0.500000 0.223402 0.750000
O O2 0.337619 0.308682 0.701700
O O3 0.182241 0.188072 0.880953
O O4 0.457627 0.211421 0.444165
O O5 0.558469 0.583870 0.874977
O O6 0.829869 0.501646 0.477611
O O7 0.907270 0.575014 0.663621
O O8 0.824522 0.617459 0.422305
O O9 0.500000 0.389534 0.750000
#
# Coordination Sequence:
#
# PCOD9270030 Si02
#       5
#     8   8   8   4   4
#     4  10  20  35  54  81 123 152 184 225 272 337
#     4   9  19  34  59  83 109 144 195 235 287 335
#     4  10  20  35  56  86 118 155 186 226 280 343
#     4   9  18  38  58  84 104 146 192 251 282 328
#     4   9  20  32  56  90 112 148 186 229 272 348
#
# _framework density 27.774836000000001
#
# number of rings (size 3 to 8) (size 9 to 14) (size 15 to 20)
#    0.000    2.500    0.000    3.000    7.000    4.000 
#    0.000    1.250    0.000    0.000    0.000    0.000 
#    0.000    0.000    0.000    0.000    0.000    0.000 
#
# Total GULP energy -89388.353442 kJ/mol
# GULP energy per Si atom -5586.772090 kJ/mol
# Density = 2.771162 g / cm^3
# Si number density = 27.774836 Si / 1000 Ang^3
#
#
#
# Elastic Constant Matrix: (Units=GPa)
#
#
# Indices 1 2 3 4 5 6 
#
# 1 50.7803 13.8081 19.8136 0.0000 19.0587 0.0000
# 2 13.8081 85.4982 25.7548 0.0000 9.1440 0.0000
# 3 19.8136 25.7548 219.0172 0.0000 39.3277 0.0000
# 4 0.0000 0.0000 0.0000 57.4472 0.0000 -10.0521
# 5 19.0587 9.1440 39.3277 0.0000 47.8868 0.0000
# 6 0.0000 0.0000 0.0000 -10.0521 0.0000 16.7620
#
#
#
# Elastic Compliance Matrix: (Units=1/GPa)
#
#
# Indices 1 2 3 4 5 6 
#
# 1 0.023844 -0.002840 -0.000254 0.000000 -0.008739 0.000000
# 2 -0.002840 0.012538 -0.001162 0.000000 -0.000310 0.000000
# 3 -0.000254 -0.001162 0.005475 0.000000 -0.004173 0.000000
# 4 0.000000 0.000000 0.000000 0.019448 0.000000 0.011663
# 5 -0.008739 -0.000310 -0.004173 0.000000 0.027847 0.000000
# 6 0.000000 0.000000 0.000000 0.011663 0.000000 0.066653
#
#
# Mechanical properties :
#
#
# Convention : Reuss Voigt Hill
#
# Bulk Modulus (GPa) = 29.98900 52.67208 41.33054
# Shear Modulus (GPa) = 28.50128 44.14717 36.32422
#
# Velocity S-wave (km/s) = 3.20684 3.99114 3.62029
# Velocity P-wave (km/s) = 4.95302 6.34382 5.69106
#
# Compressibility (1/GPa) = 0.03334556
#
# Stress axis : x y z
#
# Youngs Moduli (GPa) = 41.93968 79.75830 182.65391
#
# Poissons Ratio (x) = 0.22649 0.04638
# Poissons Ratio (y) = 0.11910 0.21221
# Poissons Ratio (z) = 0.01065 0.09267
#
# Static dielectric constant tensor:
#      x y z
#    x 2.361280 0.000000 -0.153950 
#    y 0.000000 2.125900 0.000000 
#    z -0.153950 0.000000 2.190260 
# 
# From -- ./inp_files/31262.got.cif
#   From: 2010.05.17/outbox.cif.g08.bks.cpg/sg15_16_cif.got.tgz:31262.got - 2010.06.03 18:47:42.
