data_PCOD9270007
_publ_section_title
;
Structure prediction by ZEFSAII (Michael W. Deem and Ramdas Pophale) SiO2 
 PCOD9270007
Probable space group: C 2/C
;
_chemical_formula_sum "Si O2"
_cell_formula_units_Z 56
_cell_length_a 25.110925
_cell_length_b 12.078338
_cell_length_c 21.052849
_cell_angle_alpha 90.000000
_cell_angle_beta 29.066571
_cell_angle_gamma 90.000000
_cell_volume 3102.137690
_symmetry_space_group_name_H-M "C 2/C"
_symmetry_group_IT_number 15
_symmetry_cell_setting 'monoclinic'
loop_
_space_group_symop_operation_xyz
x,y,z
-x,y,1/2-z
-x,-y,-z
x,-y,1/2+z
1/2+x,1/2+y,z
1/2-x,1/2+y,1/2-z
1/2-x,1/2-y,-z
1/2+x,1/2-y,1/2+z
loop_
_atom_site_type_symbol
_atom_site_label
_atom_site_fract_x
_atom_site_fract_y
_atom_site_fract_z
Si Si1 0.476470 0.166503 0.007796
Si Si2 0.275584 0.450243 0.328430
Si Si3 0.080518 0.102601 0.403521
Si Si4 0.380451 0.376368 0.347859
Si Si5 0.166602 0.633982 0.142904
Si Si6 0.744113 0.787854 0.700013
Si Si7 0.473552 0.033182 0.418187
O O1 0.347340 0.170131 0.155809
O O2 0.521990 0.124488 0.029071
O O3 0.517446 0.287922 0.946823
O O4 0.502783 0.078266 0.926002
O O5 0.329800 0.554423 0.237980
O O6 0.355888 0.415460 0.301902
O O7 0.264532 0.345354 0.292078
O O8 0.149859 0.470764 0.479718
O O9 0.144462 0.150405 0.398078
O O10 0.000000 0.000000 0.500000
O O11 0.500000 0.407645 0.250000
O O12 0.273397 0.417436 0.498154
O O13 0.371763 0.241883 0.356646
O O14 0.211694 0.678237 0.163094
O O15 0.062090 0.561503 0.272020
#
# Coordination Sequence:
#
# PCOD9270007 Si02
#       7
#     8   8   8   8   8   8   8
#     4  10  20  36  54  85 124 159 194 242 296 363
#     4  11  22  36  60  87 121 160 196 247 299 362
#     4  12  23  34  58  91 124 161 200 248 306 363
#     4  10  23  38  56  86 120 151 198 255 303 351
#     4   9  22  35  58  82 112 159 193 242 305 353
#     4  10  20  35  53  85 122 153 192 242 299 360
#     4  10  20  36  59  83 120 160 196 238 299 371
#
# _framework density 18.052068999999999
#
# number of rings (size 3 to 8) (size 9 to 14) (size 15 to 20)
#    0.000    1.714    4.286    0.000    8.000    0.000 
#    0.000    0.000    0.000    0.857    0.000    0.000 
#    0.000    0.000    0.000    0.000    0.000    0.000 
#
# Total GULP energy -156007.456812 kJ/mol
# GULP energy per Si atom -5571.694886 kJ/mol
# Density = 1.801098 g / cm^3
# Si number density = 18.052069 Si / 1000 Ang^3
#
#
#
# Elastic Constant Matrix: (Units=GPa)
#
#
# Indices 1 2 3 4 5 6 
#
# 1 63.2477 20.5418 37.1512 0.0000 -25.2790 0.0000
# 2 20.5418 95.2017 37.0722 0.0000 -4.7802 0.0000
# 3 37.1512 37.0722 106.1894 0.0000 -12.8214 0.0000
# 4 0.0000 0.0000 0.0000 29.9574 0.0000 -1.4702
# 5 -25.2790 -4.7802 -12.8214 0.0000 28.8050 0.0000
# 6 0.0000 0.0000 0.0000 -1.4702 0.0000 17.5808
#
#
#
# Elastic Compliance Matrix: (Units=1/GPa)
#
#
# Indices 1 2 3 4 5 6 
#
# 1 0.029645 -0.002645 -0.006721 0.000000 0.022585 0.000000
# 2 -0.002645 0.012393 -0.003628 0.000000 -0.001880 0.000000
# 3 -0.006721 -0.003628 0.012946 0.000000 -0.000738 0.000000
# 4 0.000000 0.000000 0.000000 0.033518 0.000000 0.002803
# 5 0.022585 -0.001880 -0.000738 0.000000 0.053897 0.000000
# 6 0.000000 0.000000 0.000000 0.002803 0.000000 0.057115
#
#
# Mechanical properties :
#
#
# Convention : Reuss Voigt Hill
#
# Bulk Modulus (GPa) = 34.48831 50.46325 42.47578
# Shear Modulus (GPa) = 21.26144 26.59354 23.92749
#
# Velocity S-wave (km/s) = 3.43561 3.84234 3.64465
# Velocity P-wave (km/s) = 5.90629 6.90650 6.42588
#
# Compressibility (1/GPa) = 0.02899533
#
# Stress axis : x y z
#
# Youngs Moduli (GPa) = 33.73269 80.68925 77.24355
#
# Poissons Ratio (x) = 0.21344 0.51916
# Poissons Ratio (y) = 0.08923 0.28025
# Poissons Ratio (z) = 0.22672 0.29275
#
# Static dielectric constant tensor:
#      x y z
#    x 1.632150 0.000000 -0.026490 
#    y 0.000000 1.625110 0.000000 
#    z -0.026490 0.000000 1.659920 
# 
# From -- ./inp_files/117496.got.cif
#   From: 2010.05.17/outbox.cif.g08.bks.cpg/sg15_59_cif.got.tgz:117496.got - 2010.06.03 18:47:42.
