data_PCOD9270316
_publ_section_title
;
Structure prediction by ZEFSAII (Michael W. Deem and Ramdas Pophale) SiO2 
 PCOD9270316
Probable space group: C 2/C
;
_chemical_formula_sum "Si O2"
_cell_formula_units_Z 60
_cell_length_a 5.733809
_cell_length_b 23.059628
_cell_length_c 22.548470
_cell_angle_alpha 90.000000
_cell_angle_beta 99.901155
_cell_angle_gamma 90.000000
_cell_volume 2936.942880
_symmetry_space_group_name_H-M "C 2/C"
_symmetry_group_IT_number 15
_symmetry_cell_setting 'monoclinic'
loop_
_space_group_symop_operation_xyz
x,y,z
-x,y,1/2-z
-x,-y,-z
x,-y,1/2+z
1/2+x,1/2+y,z
1/2-x,1/2+y,1/2-z
1/2-x,1/2-y,-z
1/2+x,1/2-y,1/2+z
loop_
_atom_site_type_symbol
_atom_site_label
_atom_site_fract_x
_atom_site_fract_y
_atom_site_fract_z
Si Si1 0.814562 0.476519 0.363370
Si Si2 0.941741 0.381137 0.049591
Si Si3 0.140181 0.166843 0.107991
Si Si4 0.000000 0.562950 0.750000
Si Si5 0.872845 0.608059 0.405013
Si Si6 0.563156 0.388793 0.184796
Si Si7 0.703357 0.285699 0.380938
Si Si8 0.070902 0.205123 0.522325
O O1 0.820955 0.541613 0.386059
O O2 0.568219 0.440147 0.356738
O O3 0.990956 0.438874 0.412581
O O4 0.880209 0.475480 0.296116
O O5 0.689239 0.352934 0.053958
O O6 0.117854 0.330344 0.079280
O O7 0.934508 0.388049 0.978205
O O8 0.389348 0.131055 0.119088
O O9 0.176950 0.229260 0.141220
O O10 0.884859 0.139525 0.115553
O O11 0.094818 0.182918 0.036974
O O12 0.842755 0.604457 0.700859
O O13 0.500000 0.400668 0.250000
O O14 0.456693 0.326506 0.166173
O O15 0.541861 0.262796 0.427497
O O16 0.250000 0.250000 0.500000
#
# Coordination Sequence:
#
# PCOD9270316 Si02
#       8
#     8   8   8   4   8   8   8   8
#     4  10  22  39  63  89 119 162 208 264 310 366
#     4  10  20  35  57  93 127 161 201 256 308 368
#     4  11  23  37  58  90 128 170 207 239 294 373
#     4  10  20  42  66  90 112 154 214 266 328 370
#     4  11  24  40  58  92 133 171 206 244 302 378
#     4   9  21  39  63  91 113 146 204 267 321 366
#     4  11  19  35  60  88 122 160 201 250 313 365
#     4  11  19  32  54  89 127 163 202 238 297 379
#
# _framework density 20.429406
#
# number of rings (size 3 to 8) (size 9 to 14) (size 15 to 20)
#    0.000    1.600    2.667    3.200    1.867    0.000 
#    0.000    2.000    1.467    0.000    0.000    0.000 
#    0.000    0.000    0.000    0.000    0.000    0.000 
#
# Total GULP energy -167074.126052 kJ/mol
# GULP energy per Si atom -5569.137535 kJ/mol
# Density = 2.038291 g / cm^3
# Si number density = 20.429406 Si / 1000 Ang^3
#
#
#
# Elastic Constant Matrix: (Units=GPa)
#
#
# Indices 1 2 3 4 5 6 
#
# 1 91.5241 63.4030 26.4056 0.0000 22.1210 0.0000
# 2 63.4030 166.6612 38.8228 0.0000 25.1589 0.0000
# 3 26.4056 38.8228 32.7862 0.0000 17.0904 0.0000
# 4 0.0000 0.0000 0.0000 21.9568 0.0000 3.2500
# 5 22.1210 25.1589 17.0904 0.0000 26.4625 0.0000
# 6 0.0000 0.0000 0.0000 3.2500 0.0000 18.8943
#
#
#
# Elastic Compliance Matrix: (Units=1/GPa)
#
#
# Indices 1 2 3 4 5 6 
#
# 1 0.016995 -0.004244 -0.005065 0.000000 -0.006901 0.000000
# 2 -0.004244 0.009441 -0.007435 0.000000 -0.000627 0.000000
# 3 -0.005065 -0.007435 0.056520 0.000000 -0.025199 0.000000
# 4 0.000000 0.000000 0.000000 0.046734 0.000000 -0.008039
# 5 -0.006901 -0.000627 -0.025199 0.000000 0.060429 0.000000
# 6 0.000000 0.000000 0.000000 -0.008039 0.000000 0.054309
#
#
# Mechanical properties :
#
#
# Convention : Reuss Voigt Hill
#
# Bulk Modulus (GPa) = 20.21510 60.91491 40.56500
# Shear Modulus (GPa) = 16.98342 24.28539 20.63441
#
# Velocity S-wave (km/s) = 2.88639 3.45156 3.18155
# Velocity P-wave (km/s) = 4.58530 6.76508 5.77890
#
# Compressibility (1/GPa) = 0.04946797
#
# Stress axis : x y z
#
# Youngs Moduli (GPa) = 58.83975 105.91851 17.69297
#
# Poissons Ratio (x) = 0.44950 0.08962
# Poissons Ratio (y) = 0.24971 0.13154
# Poissons Ratio (z) = 0.29805 0.78749
#
# Static dielectric constant tensor:
#      x y z
#    x 1.993460 0.000000 0.035380 
#    y 0.000000 1.743970 0.000000 
#    z 0.035380 0.000000 1.734130 
# 
# From -- ./inp_files/261737.got.cif
#   From: 2010.05.17/outbox.cif.g08.bks.cpg/sg15_131_cif.got.tgz:261737.got - 2010.06.03 18:47:42.
