data_PCOD9270019
_publ_section_title
;
Structure prediction by ZEFSAII (Michael W. Deem and Ramdas Pophale) SiO2 
 PCOD9270019
Probable space group: C 2/C
;
_chemical_formula_sum "Si O2"
_cell_formula_units_Z 40
_cell_length_a 14.336239
_cell_length_b 5.203760
_cell_length_c 23.768392
_cell_angle_alpha 90.000000
_cell_angle_beta 71.344742
_cell_angle_gamma 90.000000
_cell_volume 1680.015694
_symmetry_space_group_name_H-M "C 2/C"
_symmetry_group_IT_number 15
_symmetry_cell_setting 'monoclinic'
loop_
_space_group_symop_operation_xyz
x,y,z
-x,y,1/2-z
-x,-y,-z
x,-y,1/2+z
1/2+x,1/2+y,z
1/2-x,1/2+y,1/2-z
1/2-x,1/2-y,-z
1/2+x,1/2-y,1/2+z
loop_
_atom_site_type_symbol
_atom_site_label
_atom_site_fract_x
_atom_site_fract_y
_atom_site_fract_z
Si Si1 0.985460 0.253940 0.041804
Si Si2 0.761682 0.670511 0.817060
Si Si3 0.827428 0.945663 0.957321
Si Si4 0.382985 0.331984 0.254888
Si Si5 0.284876 0.668716 0.080791
O O1 0.073472 0.214000 0.068848
O O2 0.881317 0.273802 0.093384
O O3 0.000000 0.500000 0.000000
O O4 0.000000 0.000000 0.000000
O O5 0.658085 0.667677 0.802338
O O6 0.824844 0.921329 0.791003
O O7 0.740330 0.600759 0.886225
O O8 0.829899 0.426432 0.787309
O O9 0.799790 0.125181 0.910696
O O10 0.750000 0.750000 0.000000
O O11 0.829528 0.146176 0.009474
O O12 0.500000 0.336840 0.250000
#
# Coordination Sequence:
#
# PCOD9270019 Si02
#       5
#     8   8   8   8   8
#     4  10  20  35  54  78 115 159 196 238 286 336
#     4  10  23  40  65  94 123 158 204 259 308 371
#     4  10  20  36  58  81 124 166 198 242 291 348
#     4  10  22  44  67  91 123 157 200 259 322 372
#     4  10  22  37  55  89 122 158 205 246 294 358
#
# _framework density 23.809298999999999
#
# number of rings (size 3 to 8) (size 9 to 14) (size 15 to 20)
#    0.000    2.000    2.000    0.600    2.800    1.600 
#    0.000    0.000    0.000    0.000    0.000    0.000 
#    0.000    0.000    0.000    0.000    0.000    0.000 
#
# Total GULP energy -111354.398079 kJ/mol
# GULP energy per Si atom -5567.719904 kJ/mol
# Density = 2.375511 g / cm^3
# Si number density = 23.809299 Si / 1000 Ang^3
#
#
#
# Elastic Constant Matrix: (Units=GPa)
#
#
# Indices 1 2 3 4 5 6 
#
# 1 171.3004 16.6900 8.6200 -0.0001 22.1889 -0.0003
# 2 16.6900 124.6398 9.1893 -0.0014 13.2648 -0.0004
# 3 8.6200 9.1893 66.5250 -0.0001 20.6553 -0.0001
# 4 -0.0001 -0.0014 -0.0001 40.9926 -0.0003 5.5491
# 5 22.1889 13.2648 20.6553 -0.0003 12.0841 -0.0002
# 6 -0.0003 -0.0004 -0.0001 5.5491 -0.0002 38.8512
#
#
#
# Elastic Compliance Matrix: (Units=1/GPa)
#
#
# Indices 1 2 3 4 5 6 
#
# 1 0.010093 0.001968 0.010324 0.000000 -0.038340 0.000000
# 2 0.001968 0.009975 0.006156 0.000000 -0.025085 0.000000
# 3 0.010324 0.006156 0.044383 0.000000 -0.101578 0.000000
# 4 0.000000 0.000000 0.000000 0.024876 0.000001 -0.003553
# 5 -0.038340 -0.025085 -0.101578 0.000001 0.354314 0.000001
# 6 0.000000 0.000000 0.000000 -0.003553 0.000001 0.026247
#
#
# Mechanical properties :
#
#
# Convention : Reuss Voigt Hill
#
# Bulk Modulus (GPa) = 9.86714 47.94043 28.90379
# Shear Modulus (GPa) = 10.71183 40.24996 25.48090
#
# Velocity S-wave (km/s) = 2.12339 4.11605 3.27495
# Velocity P-wave (km/s) = 3.18825 6.53973 5.14456
#
# Compressibility (1/GPa) = 0.10134646
#
# Stress axis : x y z
#
# Youngs Moduli (GPa) = 99.08196 100.24600 22.53128
#
# Poissons Ratio (x) = -0.19725 -0.23262
# Poissons Ratio (y) = -0.19496 -0.13870
# Poissons Ratio (z) = -1.02297 -0.61709
#
# Static dielectric constant tensor:
#      x y z
#    x 2.589510 0.000000 0.412620 
#    y 0.000000 1.854940 0.000000 
#    z 0.412620 0.000000 2.219600 
# 
# From -- ./inp_files/271640.got.cif
#   From: 2010.05.17/outbox.cif.g08.bks.cpg/sg15_136_cif.got.tgz:271640.got - 2010.06.03 18:47:42.
