data_PCOD9270542
_publ_section_title
;
Structure prediction by ZEFSAII (Michael W. Deem and Ramdas Pophale) SiO2 
 PCOD9270542
Probable space group: C 2/C
;
_chemical_formula_sum "Si O2"
_cell_formula_units_Z 40
_cell_length_a 8.473782
_cell_length_b 27.239449
_cell_length_c 10.563679
_cell_angle_alpha 90.000000
_cell_angle_beta 123.905034
_cell_angle_gamma 90.000000
_cell_volume 2023.716528
_symmetry_space_group_name_H-M "C 2/C"
_symmetry_group_IT_number 15
_symmetry_cell_setting 'monoclinic'
loop_
_space_group_symop_operation_xyz
x,y,z
-x,y,1/2-z
-x,-y,-z
x,-y,1/2+z
1/2+x,1/2+y,z
1/2-x,1/2+y,1/2-z
1/2-x,1/2-y,-z
1/2+x,1/2-y,1/2+z
loop_
_atom_site_type_symbol
_atom_site_label
_atom_site_fract_x
_atom_site_fract_y
_atom_site_fract_z
Si Si1 0.591676 0.690919 0.494146
Si Si2 0.668920 0.419028 0.987219
Si Si3 0.256986 0.566275 0.267750
Si Si4 0.204826 0.283553 0.676166
Si Si5 0.500000 0.984306 0.250000
Si Si6 0.000000 0.353451 0.750000
O O1 0.624565 0.633349 0.531327
O O2 0.725303 0.701530 0.432092
O O3 0.380639 0.705540 0.349924
O O4 0.649371 0.726660 0.634488
O O5 0.720410 0.411362 0.862179
O O6 0.469363 0.447959 0.901921
O O7 0.839535 0.449876 0.119986
O O8 0.111347 0.521169 0.205400
O O9 0.175437 0.608635 0.322791
O O10 0.031552 0.317111 0.646473
#
# Coordination Sequence:
#
# PCOD9270542 Si02
#       6
#     8   8   8   8   4   4
#     4  10  20  38  58  87 114 166 194 243 290 362
#     4  11  20  41  61  84 124 159 198 244 303 359
#     4  10  21  39  62  86 118 162 200 237 310 364
#     4  10  20  35  60  85 119 154 206 235 294 351
#     4  11  24  34  66  96 112 148 208 263 292 340
#     4  11  18  36  62  86 114 164 200 239 286 364
#
# _framework density 19.765612999999998
#
# number of rings (size 3 to 8) (size 9 to 14) (size 15 to 20)
#    0.000    1.600    4.000    2.400    0.000    4.000 
#    0.000    0.000    0.000    0.000    0.000    0.000 
#    0.000    0.000    0.000    0.000    0.000    0.000 
#
# Total GULP energy -111453.092888 kJ/mol
# GULP energy per Si atom -5572.654644 kJ/mol
# Density = 1.972063 g / cm^3
# Si number density = 19.765613 Si / 1000 Ang^3
#
#
#
# Elastic Constant Matrix: (Units=GPa)
#
#
# Indices 1 2 3 4 5 6 
#
# 1 97.7905 42.9799 42.1814 0.0000 22.0893 0.0000
# 2 42.9799 145.1703 63.0323 0.0000 18.1189 0.0000
# 3 42.1814 63.0323 57.9830 0.0000 17.9894 0.0000
# 4 0.0000 0.0000 0.0000 24.5074 0.0000 -6.1541
# 5 22.0893 18.1189 17.9894 0.0000 15.3283 0.0000
# 6 0.0000 0.0000 0.0000 -6.1541 0.0000 30.1343
#
#
#
# Elastic Compliance Matrix: (Units=1/GPa)
#
#
# Indices 1 2 3 4 5 6 
#
# 1 0.017019 0.000345 -0.007894 0.000000 -0.015668 0.000000
# 2 0.000345 0.013090 -0.014980 0.000000 0.001612 0.000000
# 3 -0.007894 -0.014980 0.047573 0.000000 -0.026748 0.000000
# 4 0.000000 0.000000 0.000000 0.043010 0.000000 0.008784
# 5 -0.015668 0.001612 -0.026748 0.000000 0.117304 0.000000
# 6 0.000000 0.000000 0.000000 0.008784 0.000000 0.034979
#
#
# Mechanical properties :
#
#
# Convention : Reuss Voigt Hill
#
# Bulk Modulus (GPa) = 30.65501 66.37012 48.51257
# Shear Modulus (GPa) = 15.20187 24.17734 19.68961
#
# Velocity S-wave (km/s) = 2.77629 3.50123 3.15962
# Velocity P-wave (km/s) = 5.08133 7.07080 6.15696
#
# Compressibility (1/GPa) = 0.03262109
#
# Stress axis : x y z
#
# Youngs Moduli (GPa) = 58.75850 76.39633 21.02047
#
# Poissons Ratio (x) = -0.02632 0.16594
# Poissons Ratio (y) = -0.02025 0.31489
# Poissons Ratio (z) = 0.46386 1.14443
#
# Static dielectric constant tensor:
#      x y z
#    x 1.716630 0.000000 0.017790 
#    y 0.000000 1.736280 0.000000 
#    z 0.017790 0.000000 1.683800 
# 
# From -- ./inp_files/23669.got.cif
#   From: 2010.05.17/outbox.cif.g08.bks.cpg/sg15_12_cif.got.tgz:23669.got - 2010.06.03 18:47:42.
