data_PCOD9270757
_publ_section_title
;
Structure prediction by ZEFSAII (Michael W. Deem and Ramdas Pophale) SiO2 
 PCOD9270757
Probable space group: C 2/C
;
_chemical_formula_sum "Si O2"
_cell_formula_units_Z 48
_cell_length_a 20.036201
_cell_length_b 11.096602
_cell_length_c 25.986343
_cell_angle_alpha 90.000000
_cell_angle_beta 160.964071
_cell_angle_gamma 90.000000
_cell_volume 1884.441211
_symmetry_space_group_name_H-M "C 2/C"
_symmetry_group_IT_number 15
_symmetry_cell_setting 'monoclinic'
loop_
_space_group_symop_operation_xyz
x,y,z
-x,y,1/2-z
-x,-y,-z
x,-y,1/2+z
1/2+x,1/2+y,z
1/2-x,1/2+y,1/2-z
1/2-x,1/2-y,-z
1/2+x,1/2-y,1/2+z
loop_
_atom_site_type_symbol
_atom_site_label
_atom_site_fract_x
_atom_site_fract_y
_atom_site_fract_z
Si Si1 0.137647 0.014360 0.422047
Si Si2 0.154762 0.686899 0.659370
Si Si3 0.000000 0.228097 0.250000
Si Si4 0.500000 0.298498 0.250000
Si Si5 0.915375 0.730617 0.009117
Si Si6 0.552448 0.998070 0.169284
Si Si7 0.638006 0.399613 0.028927
O O1 0.376410 0.026033 0.582825
O O2 0.084125 0.016510 0.442117
O O3 0.045154 0.134796 0.329107
O O4 0.061263 0.892128 0.339671
O O5 0.130817 0.673294 0.580605
O O6 0.386841 0.685604 0.848981
O O7 0.037486 0.590585 0.609398
O O8 0.052744 0.816764 0.595835
O O9 0.811550 0.309275 0.131802
O O10 0.698291 0.227331 0.374839
O O11 0.000207 0.628662 0.109758
O O12 0.762242 0.972848 0.351734
#
# Coordination Sequence:
#
# PCOD9270757 Si02
#       7
#     8   8   4   4   8   8   8
#     4  10  20  35  64 102 136 181 226 278 341 401
#     4  12  25  44  69 104 142 181 224 282 355 412
#     4  11  18  30  58  99 144 180 216 273 346 413
#     4   9  24  48  70  95 126 182 248 279 326 407
#     4  11  27  48  71  96 133 184 235 289 343 403
#     4  11  22  42  66 100 145 180 229 277 336 415
#     4  12  21  34  65 105 142 182 219 282 346 412
#
# _framework density 25.471741999999999
#
# number of rings (size 3 to 8) (size 9 to 14) (size 15 to 20)
#    0.000    1.000    5.000    2.000    0.000    2.667 
#    3.000    0.000    0.000    0.000    0.000    0.000 
#    0.000    0.000    0.000    0.000    0.000    0.000 
#
# Total GULP energy -134549.761675 kJ/mol
# GULP energy per Si atom -5606.240070 kJ/mol
# Density = 2.541377 g / cm^3
# Si number density = 25.471742 Si / 1000 Ang^3
#
#
#
# Elastic Constant Matrix: (Units=GPa)
#
#
# Indices 1 2 3 4 5 6 
#
# 1 118.1335 22.3495 41.5463 0.0050 -7.8188 -0.0037
# 2 22.3495 45.6763 15.2187 0.0145 7.3230 -0.0048
# 3 41.5463 15.2187 117.1922 0.0660 10.6803 -0.0167
# 4 0.0050 0.0145 0.0660 23.5625 -0.0200 20.4648
# 5 -7.8188 7.3230 10.6803 -0.0200 56.8346 -0.0024
# 6 -0.0037 -0.0048 -0.0167 20.4648 -0.0024 15.4363
#
#
#
# Elastic Compliance Matrix: (Units=1/GPa)
#
#
# Indices 1 2 3 4 5 6 
#
# 1 0.010717 -0.004525 -0.003458 -0.000095 0.002707 0.000123
# 2 -0.004525 0.025129 -0.001330 0.000119 -0.003610 -0.000153
# 3 -0.003458 -0.001330 0.010133 0.000243 -0.002208 -0.000313
# 4 -0.000095 0.000119 0.000243 -0.280190 -0.000157 0.371465
# 5 0.002707 -0.003610 -0.002208 -0.000157 0.018847 0.000208
# 6 0.000123 -0.000153 -0.000313 0.371465 0.000208 -0.427691
#
#
# Mechanical properties :
#
#
# Convention : Reuss Voigt Hill
#
# Bulk Modulus (GPa) = 36.56108 48.80346 42.68227
# Shear Modulus (GPa) = -8.12598 32.62584 12.24993
#
# Velocity S-wave (km/s) = -1.78805 3.58280 2.19537
# Velocity P-wave (km/s) = 3.18150 6.02633 4.81864
#
# Compressibility (1/GPa) = 0.02735149
#
# Stress axis : x y z
#
# Youngs Moduli (GPa) = 93.31380 39.79396 98.68986
#
# Poissons Ratio (x) = 0.18008 0.34128
# Poissons Ratio (y) = 0.42228 0.13127
# Poissons Ratio (z) = 0.32269 0.05293
#
# Static dielectric constant tensor:
#      x y z
#    x 1.954600 0.000000 0.011770 
#    y 0.000000 1.974810 -0.000030 
#    z 0.011770 -0.000030 2.015570 
# 
# From -- ./inp_files/300995.got.cif
#   From: 2010.05.17/outbox.cif.g08.bks.cpg/sg15_151_cif.got.tgz:300995.got - 2010.06.03 18:47:42.
