data_PCOD9270305
_publ_section_title
;
Structure prediction by ZEFSAII (Michael W. Deem and Ramdas Pophale) SiO2 
 PCOD9270305
Probable space group: C 2/C
;
_chemical_formula_sum "Si O2"
_cell_formula_units_Z 56
_cell_length_a 20.398166
_cell_length_b 6.855347
_cell_length_c 24.087593
_cell_angle_alpha 90.000000
_cell_angle_beta 123.735602
_cell_angle_gamma 90.000000
_cell_volume 2801.129919
_symmetry_space_group_name_H-M "C 2/C"
_symmetry_group_IT_number 15
_symmetry_cell_setting 'monoclinic'
loop_
_space_group_symop_operation_xyz
x,y,z
-x,y,1/2-z
-x,-y,-z
x,-y,1/2+z
1/2+x,1/2+y,z
1/2-x,1/2+y,1/2-z
1/2-x,1/2-y,-z
1/2+x,1/2-y,1/2+z
loop_
_atom_site_type_symbol
_atom_site_label
_atom_site_fract_x
_atom_site_fract_y
_atom_site_fract_z
Si Si1 0.479420 0.029007 0.584990
Si Si2 0.135736 0.402556 0.226576
Si Si3 0.158504 0.809219 0.951270
Si Si4 0.752478 0.242608 0.318589
Si Si5 0.512865 0.722332 0.521638
Si Si6 0.821095 0.874049 0.660543
Si Si7 0.327459 0.410846 0.421856
O O1 0.469727 0.815531 0.553740
O O2 0.551886 0.043342 0.660986
O O3 0.399866 0.124058 0.571084
O O4 0.503098 0.155236 0.541504
O O5 0.195043 0.307617 0.209125
O O6 0.182078 0.595425 0.268646
O O7 0.125014 0.241473 0.270099
O O8 0.144825 0.906987 0.885138
O O9 0.250000 0.750000 0.000000
O O10 0.145725 0.930813 0.001648
O O11 0.715143 0.430394 0.330717
O O12 0.809504 0.116606 0.385416
O O13 0.500000 0.500000 0.500000
O O14 0.606610 0.719666 0.577733
O O15 0.750751 0.718319 0.618467
#
# Coordination Sequence:
#
# PCOD9270305 Si02
#       7
#     8   8   8   8   8   8   8
#     4  10  22  37  58  86 122 158 203 259 312 376
#     4  11  22  36  59  90 123 160 202 257 326 385
#     4   9  20  41  62  82 116 162 211 258 314 382
#     4  11  21  35  59  92 123 160 203 262 319 386
#     4  10  20  35  57  90 119 153 198 258 320 370
#     4  10  21  38  60  86 121 164 207 257 313 386
#     4   9  20  36  60  89 117 155 206 254 320 381
#
# _framework density 19.991931999999998
#
# number of rings (size 3 to 8) (size 9 to 14) (size 15 to 20)
#    0.000    2.000    1.429    1.714    2.000    6.857 
#    0.000    7.143    0.000    5.143    0.000    0.000 
#    0.000    0.000    0.000    0.000    0.000    0.000 
#
# Total GULP energy -156155.127738 kJ/mol
# GULP energy per Si atom -5576.968848 kJ/mol
# Density = 1.994643 g / cm^3
# Si number density = 19.991932 Si / 1000 Ang^3
#
#
#
# Elastic Constant Matrix: (Units=GPa)
#
#
# Indices 1 2 3 4 5 6 
#
# 1 69.5590 22.1316 45.6870 0.0000 -3.3119 0.0000
# 2 22.1316 100.8120 54.5693 0.0000 -18.6732 0.0000
# 3 45.6870 54.5693 110.7694 0.0000 -9.8053 0.0000
# 4 0.0000 0.0000 0.0000 26.5236 0.0000 0.5764
# 5 -3.3119 -18.6732 -9.8053 0.0000 31.8279 0.0000
# 6 0.0000 0.0000 0.0000 0.5764 0.0000 18.7596
#
#
#
# Elastic Compliance Matrix: (Units=1/GPa)
#
#
# Indices 1 2 3 4 5 6 
#
# 1 0.019725 0.000014 -0.008183 0.000000 -0.000460 0.000000
# 2 0.000014 0.014762 -0.006694 0.000000 0.006600 0.000000
# 3 -0.008183 -0.006694 0.015706 0.000000 0.000060 0.000000
# 4 0.000000 0.000000 0.000000 0.037728 0.000000 -0.001159
# 5 -0.000460 0.006600 0.000060 0.000000 0.035262 0.000000
# 6 0.000000 0.000000 0.000000 -0.001159 0.000000 0.053342
#
#
# Mechanical properties :
#
#
# Convention : Reuss Voigt Hill
#
# Bulk Modulus (GPa) = 48.85989 58.43514 53.64751
# Shear Modulus (GPa) = 23.46620 26.00572 24.73596
#
# Velocity S-wave (km/s) = 3.42977 3.61059 3.52134
# Velocity P-wave (km/s) = 6.33856 6.83188 6.58984
#
# Compressibility (1/GPa) = 0.02046669
#
# Stress axis : x y z
#
# Youngs Moduli (GPa) = 50.69794 67.73959 63.67010
#
# Poissons Ratio (x) = -0.00095 0.52102
# Poissons Ratio (y) = -0.00071 0.42621
# Poissons Ratio (z) = 0.41487 0.45345
#
# Static dielectric constant tensor:
#      x y z
#    x 1.816110 0.000000 0.018450 
#    y 0.000000 1.709040 0.000000 
#    z 0.018450 0.000000 1.757200 
# 
# From -- ./inp_files/301702.got.cif
#   From: 2010.05.17/outbox.cif.g08.bks.cpg/sg15_151_cif.got.tgz:301702.got - 2010.06.03 18:47:42.
