data_PCOD9270924
_publ_section_title
;
Structure prediction by ZEFSAII (Michael W. Deem and Ramdas Pophale) SiO2 
 PCOD9270924
Probable space group: C 2/C
;
_chemical_formula_sum "Si O2"
_cell_formula_units_Z 60
_cell_length_a 20.830105
_cell_length_b 24.875720
_cell_length_c 11.317004
_cell_angle_alpha 90.000000
_cell_angle_beta 26.751229
_cell_angle_gamma 90.000000
_cell_volume 2639.517699
_symmetry_space_group_name_H-M "C 2/C"
_symmetry_group_IT_number 15
_symmetry_cell_setting 'monoclinic'
loop_
_space_group_symop_operation_xyz
x,y,z
-x,y,1/2-z
-x,-y,-z
x,-y,1/2+z
1/2+x,1/2+y,z
1/2-x,1/2+y,1/2-z
1/2-x,1/2-y,-z
1/2+x,1/2-y,1/2+z
loop_
_atom_site_type_symbol
_atom_site_label
_atom_site_fract_x
_atom_site_fract_y
_atom_site_fract_z
Si Si1 0.744476 0.948902 0.206309
Si Si2 0.476138 0.775125 0.110785
Si Si3 0.374653 0.371948 0.555719
Si Si4 0.038821 0.938090 0.460333
Si Si5 0.500000 0.013909 0.750000
Si Si6 0.260395 0.242506 0.176681
Si Si7 0.449249 0.100655 0.633245
Si Si8 0.231433 0.443286 0.606251
O O1 0.891253 0.935676 0.027763
O O2 0.685429 0.898497 0.231709
O O3 0.629167 0.977243 0.485381
O O4 0.761710 0.994811 0.079393
O O5 0.369056 0.754040 0.388055
O O6 0.389705 0.768132 0.127765
O O7 0.489192 0.839707 0.106786
O O8 0.631852 0.748015 0.885914
O O9 0.500000 0.364304 0.250000
O O10 0.421816 0.397680 0.602773
O O11 0.292947 0.317741 0.712953
O O12 0.274419 0.415219 0.657831
O O13 0.170114 0.923246 0.158685
O O14 0.000000 0.000000 0.500000
O O15 0.440373 0.055936 0.750392
O O16 0.570944 0.073745 0.350856
#
# Coordination Sequence:
#
# PCOD9270924 Si02
#       8
#     8   8   8   8   4   8   8   8
#     4  11  21  33  53  85 121 154 197 244 282 353
#     4  10  22  38  68  90 118 154 197 265 317 373
#     4  10  21  38  61  82 116 165 206 239 298 377
#     4  11  22  35  54  81 120 162 200 245 295 347
#     4  10  20  36  56  84 120 156 194 234 298 354
#     4  10  21  42  63  92 116 151 205 258 320 371
#     4  11  21  35  60  89 116 157 200 247 306 362
#     4  10  20  36  55  82 115 160 206 236 289 369
#
# _framework density 22.731425000000002
#
# number of rings (size 3 to 8) (size 9 to 14) (size 15 to 20)
#    0.000    1.600    2.667    4.000    1.867    2.133 
#    0.000    0.667    4.400    0.000    0.000    0.000 
#    0.000    0.000    0.000    0.000    0.000    0.000 
#
# Total GULP energy -167203.428557 kJ/mol
# GULP energy per Si atom -5573.447619 kJ/mol
# Density = 2.267969 g / cm^3
# Si number density = 22.731425 Si / 1000 Ang^3
#
#
#
# Elastic Constant Matrix: (Units=GPa)
#
#
# Indices 1 2 3 4 5 6 
#
# 1 143.9387 29.8797 32.6276 -0.0027 -53.0954 -0.0001
# 2 29.8797 31.2059 1.7546 -0.0035 -12.3299 0.0022
# 3 32.6276 1.7546 52.9001 -0.0074 -5.3306 0.0014
# 4 -0.0027 -0.0035 -0.0074 40.3621 0.0062 5.8434
# 5 -53.0954 -12.3299 -5.3306 0.0062 34.5172 0.0015
# 6 -0.0001 0.0022 0.0014 5.8434 0.0015 49.9351
#
#
#
# Elastic Compliance Matrix: (Units=1/GPa)
#
#
# Indices 1 2 3 4 5 6 
#
# 1 0.021596 -0.008850 -0.010155 -0.000006 0.028489 0.000001
# 2 -0.008850 0.040939 0.004269 0.000004 0.001669 -0.000002
# 3 -0.010155 0.004269 0.023978 0.000006 -0.010393 -0.000001
# 4 -0.000006 0.000004 0.000006 0.025203 -0.000011 -0.002949
# 5 0.028489 0.001669 -0.010393 -0.000011 0.071785 -0.000001
# 6 0.000001 -0.000002 -0.000001 -0.002949 -0.000001 0.020371
#
#
# Mechanical properties :
#
#
# Convention : Reuss Voigt Hill
#
# Bulk Modulus (GPa) = 17.53171 39.61871 28.57521
# Shear Modulus (GPa) = 19.81309 35.88172 27.84740
#
# Velocity S-wave (km/s) = 2.95552 3.97735 3.50389
# Velocity P-wave (km/s) = 4.40183 6.20962 5.38217
#
# Compressibility (1/GPa) = 0.05703950
#
# Stress axis : x y z
#
# Youngs Moduli (GPa) = 46.30575 24.42662 41.70439
#
# Poissons Ratio (x) = 0.21618 0.42352
# Poissons Ratio (y) = 0.40982 -0.17804
# Poissons Ratio (z) = 0.47025 -0.10428
#
# Static dielectric constant tensor:
#      x y z
#    x 1.982890 0.000000 -0.067800 
#    y 0.000000 1.773760 0.000000 
#    z -0.067800 0.000000 1.940050 
# 
# From -- ./inp_files/92057.got.cif
#   From: 2010.05.17/outbox.cif.g08.bks.cpg/sg15_47_cif.got.tgz:92057.got - 2010.06.03 18:47:42.
