data_PCOD9270107
_publ_section_title
;
Structure prediction by ZEFSAII (Michael W. Deem and Ramdas Pophale) SiO2 
 PCOD9270107
Probable space group: C 2/C
;
_chemical_formula_sum "Si O2"
_cell_formula_units_Z 40
_cell_length_a 25.783385
_cell_length_b 7.931082
_cell_length_c 22.398514
_cell_angle_alpha 90.000000
_cell_angle_beta 159.058936
_cell_angle_gamma 90.000000
_cell_volume 1637.024525
_symmetry_space_group_name_H-M "C 2/C"
_symmetry_group_IT_number 15
_symmetry_cell_setting 'monoclinic'
loop_
_space_group_symop_operation_xyz
x,y,z
-x,y,1/2-z
-x,-y,-z
x,-y,1/2+z
1/2+x,1/2+y,z
1/2-x,1/2+y,1/2-z
1/2-x,1/2-y,-z
1/2+x,1/2-y,1/2+z
loop_
_atom_site_type_symbol
_atom_site_label
_atom_site_fract_x
_atom_site_fract_y
_atom_site_fract_z
Si Si1 0.116000 0.130135 0.597474
Si Si2 0.501441 0.087852 0.611487
Si Si3 0.328171 0.739872 0.718215
Si Si4 0.081170 0.047189 0.940072
Si Si5 0.790588 0.745583 0.474678
O O1 0.060176 0.308590 0.511464
O O2 0.210928 0.175137 0.757163
O O3 0.158148 0.028354 0.583313
O O4 0.000000 0.000000 0.500000
O O5 0.641822 0.198038 0.782124
O O6 0.378168 0.101778 0.531335
O O7 0.560858 0.900921 0.661777
O O8 0.183282 0.800458 0.530672
O O9 0.420331 0.600062 0.783010
O O10 0.096682 0.899261 0.911076
O O11 0.750000 0.750000 0.500000
#
# Coordination Sequence:
#
# PCOD9270107 Si02
#       5
#     8   8   8   8   8
#     4   9  19  34  53  81 117 149 179 218 271 334
#     4  10  21  35  58  86 109 145 189 228 280 335
#     4  10  20  35  55  84 119 146 179 228 277 335
#     4   9  21  36  56  85 113 148 189 224 274 338
#     4  10  21  40  60  80 107 144 191 238 278 326
#
# _framework density 24.434576
#
# number of rings (size 3 to 8) (size 9 to 14) (size 15 to 20)
#    0.000    2.400    0.000    1.200    0.000   16.000 
#    0.000    1.000    0.000   12.000    0.000    0.000 
#    0.000    0.000    0.000    0.000    0.000    0.000 
#
# Total GULP energy -111608.510999 kJ/mol
# GULP energy per Si atom -5580.425550 kJ/mol
# Density = 2.437896 g / cm^3
# Si number density = 24.434576 Si / 1000 Ang^3
#
#
#
# Elastic Constant Matrix: (Units=GPa)
#
#
# Indices 1 2 3 4 5 6 
#
# 1 167.4203 30.1249 16.9070 0.0001 19.8465 0.0001
# 2 30.1249 81.6196 -10.4126 0.0001 14.8163 0.0001
# 3 16.9070 -10.4126 47.9024 0.0002 22.4387 0.0001
# 4 0.0001 0.0001 0.0002 25.5294 0.0001 21.9951
# 5 19.8465 14.8163 22.4387 0.0001 31.7226 0.0001
# 6 0.0001 0.0001 0.0001 21.9951 0.0001 27.2422
#
#
#
# Elastic Compliance Matrix: (Units=1/GPa)
#
#
# Indices 1 2 3 4 5 6 
#
# 1 0.006836 -0.002544 -0.002271 0.000000 -0.001482 0.000000
# 2 -0.002544 0.017321 0.011526 0.000000 -0.014651 0.000000
# 3 -0.002271 0.011526 0.038942 0.000000 -0.031507 0.000000
# 4 0.000000 0.000000 0.000000 0.128686 0.000000 -0.103900
# 5 -0.001482 -0.014651 -0.031507 0.000000 0.061580 0.000000
# 6 0.000000 0.000000 0.000000 -0.103900 0.000000 0.120595
#
#
# Mechanical properties :
#
#
# Convention : Reuss Voigt Hill
#
# Bulk Modulus (GPa) = 13.06855 41.13122 27.09988
# Shear Modulus (GPa) = 12.95186 34.25371 23.60279
#
# Velocity S-wave (km/s) = 2.30481 3.74820 3.11136
# Velocity P-wave (km/s) = 3.52744 5.96672 4.90125
#
# Compressibility (1/GPa) = 0.07651960
#
# Stress axis : x y z
#
# Youngs Moduli (GPa) = 146.28961 57.73383 25.67937
#
# Poissons Ratio (x) = 0.14686 0.05833
# Poissons Ratio (y) = 0.37213 -0.29598
# Poissons Ratio (z) = 0.33229 -0.66543
#
# Static dielectric constant tensor:
#      x y z
#    x 2.015060 0.000000 -0.039590 
#    y 0.000000 2.049620 0.000000 
#    z -0.039590 0.000000 1.971040 
# 
# From -- ./inp_files/116560.got.cif
#   From: 2010.05.17/outbox.cif.g08.bks.cpg/sg15_59_cif.got.tgz:116560.got - 2010.06.03 18:47:42.
