data_PCOD9270121
_publ_section_title
;
Structure prediction by ZEFSAII (Michael W. Deem and Ramdas Pophale) SiO2 
 PCOD9270121
Probable space group: C 2/C
;
_chemical_formula_sum "Si O2"
_cell_formula_units_Z 52
_cell_length_a 11.347130
_cell_length_b 18.021585
_cell_length_c 10.162919
_cell_angle_alpha 90.000000
_cell_angle_beta 103.008459
_cell_angle_gamma 90.000000
_cell_volume 2024.914099
_symmetry_space_group_name_H-M "C 2/C"
_symmetry_group_IT_number 15
_symmetry_cell_setting 'monoclinic'
loop_
_space_group_symop_operation_xyz
x,y,z
-x,y,1/2-z
-x,-y,-z
x,-y,1/2+z
1/2+x,1/2+y,z
1/2-x,1/2+y,1/2-z
1/2-x,1/2-y,-z
1/2+x,1/2-y,1/2+z
loop_
_atom_site_type_symbol
_atom_site_label
_atom_site_fract_x
_atom_site_fract_y
_atom_site_fract_z
Si Si1 0.289546 0.712478 0.189896
Si Si2 0.000000 0.392490 0.750000
Si Si3 0.665748 0.445661 0.090051
Si Si4 0.000000 0.875283 0.250000
Si Si5 0.641802 0.249542 0.374262
Si Si6 0.893176 0.399367 0.994860
Si Si7 0.000000 0.675162 0.750000
Si Si8 0.950964 0.907139 0.875274
O O1 0.198634 0.764475 0.246692
O O2 0.394112 0.769035 0.178863
O O3 0.360461 0.657123 0.307401
O O4 0.199085 0.665661 0.077224
O O5 0.914032 0.332247 0.654157
O O6 0.062578 0.431391 0.637734
O O7 0.613940 0.420944 0.219843
O O8 0.802948 0.442033 0.073602
O O9 0.621543 0.530540 0.063959
O O10 0.579998 0.394772 0.976430
O O11 0.052051 0.817483 0.372150
O O12 0.750000 0.250000 0.500000
O O13 0.004111 0.373840 0.117505
O O14 0.000000 0.938987 0.750000
#
# Coordination Sequence:
#
# PCOD9270121 Si02
#       8
#     8   4   8   4   8   8   4   8
#     4  11  21  37  62  94 132 177 215 267 337 397
#     4   9  22  38  58  86 130 174 218 259 320 403
#     4  11  23  39  67  96 131 166 215 278 333 387
#     4  11  22  37  56  97 134 158 212 263 322 391
#     4  10  20  35  55  86 129 171 207 256 319 386
#     4  11  23  41  65  97 137 181 221 277 335 398
#     4  12  22  35  66 103 142 168 226 270 332 416
#     4  11  21  41  66  99 126 163 219 273 331 403
#
# _framework density 25.680101000000001
#
# number of rings (size 3 to 8) (size 9 to 14) (size 15 to 20)
#    0.000    1.231    3.077    3.231    0.000    4.923 
#    0.000    0.000    0.000    9.231    0.000    0.000 
#    0.000    0.000    0.000    0.000    0.000    0.000 
#
# Total GULP energy -144807.356168 kJ/mol
# GULP energy per Si atom -5569.513699 kJ/mol
# Density = 2.562165 g / cm^3
# Si number density = 25.680101 Si / 1000 Ang^3
#
#
#
# Elastic Constant Matrix: (Units=GPa)
#
#
# Indices 1 2 3 4 5 6 
#
# 1 97.3452 21.5895 25.1667 0.0000 -17.9023 0.0000
# 2 21.5895 42.2921 6.9920 0.0000 -4.7980 0.0000
# 3 25.1667 6.9920 120.7809 0.0000 4.2496 0.0000
# 4 0.0000 0.0000 0.0000 9.8636 0.0000 -13.5438
# 5 -17.9023 -4.7980 4.2496 0.0000 51.8542 0.0000
# 6 0.0000 0.0000 0.0000 -13.5438 0.0000 -8.7234
#
#
#
# Elastic Compliance Matrix: (Units=1/GPa)
#
#
# Indices 1 2 3 4 5 6 
#
# 1 0.012956 -0.005727 -0.002514 0.000000 0.004149 0.000000
# 2 -0.005727 0.026689 -0.000370 0.000000 0.000523 0.000000
# 3 -0.002514 -0.000370 0.008882 0.000000 -0.001630 0.000000
# 4 0.000000 0.000000 0.000000 0.032371 0.000000 -0.050259
# 5 0.004149 0.000523 -0.001630 0.000000 0.020899 0.000000
# 6 0.000000 0.000000 0.000000 -0.050259 0.000000 -0.036602
#
#
# Mechanical properties :
#
#
# Convention : Reuss Voigt Hill
#
# Bulk Modulus (GPa) = 31.94444 40.87939 36.41191
# Shear Modulus (GPa) = 53.84841 24.37687 39.11264
#
# Velocity S-wave (km/s) = 4.58415 3.08433 3.90689
# Velocity P-wave (km/s) = 6.36283 5.35139 5.87891
#
# Compressibility (1/GPa) = 0.03130435
#
# Stress axis : x y z
#
# Youngs Moduli (GPa) = 77.18464 37.46816 112.58649
#
# Poissons Ratio (x) = 0.21460 0.28304
# Poissons Ratio (y) = 0.44207 0.04166
# Poissons Ratio (z) = 0.19404 0.01386
#
# Static dielectric constant tensor:
#      x y z
#    x 2.097530 0.000000 -0.007340 
#    y 0.000000 2.013180 0.000000 
#    z -0.007340 0.000000 1.867100 
# 
# From -- ./inp_files/89123.got.cif
#   From: 2010.05.17/outbox.cif.g08.bks.cpg/sg15_45_cif.got.tgz:89123.got - 2010.06.03 18:47:42.
