data_PCOD9270814
_publ_section_title
;
Structure prediction by ZEFSAII (Michael W. Deem and Ramdas Pophale) SiO2 
 PCOD9270814
Probable space group: C 2/C
;
_chemical_formula_sum "Si O2"
_cell_formula_units_Z 48
_cell_length_a 20.487568
_cell_length_b 8.131523
_cell_length_c 21.409237
_cell_angle_alpha 90.000000
_cell_angle_beta 141.068248
_cell_angle_gamma 90.000000
_cell_volume 2241.277813
_symmetry_space_group_name_H-M "C 2/C"
_symmetry_group_IT_number 15
_symmetry_cell_setting 'monoclinic'
loop_
_space_group_symop_operation_xyz
x,y,z
-x,y,1/2-z
-x,-y,-z
x,-y,1/2+z
1/2+x,1/2+y,z
1/2-x,1/2+y,1/2-z
1/2-x,1/2-y,-z
1/2+x,1/2-y,1/2+z
loop_
_atom_site_type_symbol
_atom_site_label
_atom_site_fract_x
_atom_site_fract_y
_atom_site_fract_z
Si Si1 0.560116 0.427552 0.735595
Si Si2 0.188180 0.350388 0.735422
Si Si3 0.665874 0.755015 0.856232
Si Si4 0.594923 0.698857 0.932267
Si Si5 0.472134 0.312736 0.461116
Si Si6 0.111113 0.709882 0.659341
O O1 0.500000 0.353800 0.750000
O O2 0.643885 0.560396 0.824804
O O3 0.473246 0.535280 0.633382
O O4 0.606836 0.294784 0.723666
O O5 0.144651 0.330861 0.772900
O O6 0.140531 0.217718 0.651597
O O7 0.154457 0.528353 0.689041
O O8 0.310558 0.319467 0.824033
O O9 0.596832 0.790696 0.866415
O O10 0.782754 0.809727 0.960807
O O11 0.542012 0.759684 0.956292
O O12 0.500000 0.500000 0.500000
O O13 0.498751 0.214899 0.543483
#
# Coordination Sequence:
#
# PCOD9270814 Si02
#       6
#     8   8   8   8   8   8
#     4  10  21  42  65  89 127 171 205 260 319 373
#     4  12  25  40  66  94 126 167 210 264 309 374
#     4  10  20  38  62  97 121 166 213 252 313 374
#     4  10  20  35  68  91 126 164 211 253 309 381
#     4  12  22  40  65  93 125 169 208 260 317 371
#     4  12  25  42  62  94 127 161 216 261 317 374
#
# _framework density 21.416353999999998
#
# number of rings (size 3 to 8) (size 9 to 14) (size 15 to 20)
#    0.000    1.000    5.000    2.500    0.000    0.000 
#    3.000    0.000    0.000    4.000    0.000    0.000 
#    0.000    0.000    0.000    0.000    0.000    0.000 
#
# Total GULP energy -133765.668313 kJ/mol
# GULP energy per Si atom -5573.569513 kJ/mol
# Density = 2.136761 g / cm^3
# Si number density = 21.416354 Si / 1000 Ang^3
#
#
#
# Elastic Constant Matrix: (Units=GPa)
#
#
# Indices 1 2 3 4 5 6 
#
# 1 78.8043 9.4872 2.5577 0.0000 -9.9965 0.0000
# 2 9.4872 71.2455 28.7927 0.0000 -3.5954 0.0000
# 3 2.5577 28.7927 108.4537 0.0000 -1.0126 0.0000
# 4 0.0000 0.0000 0.0000 17.1688 0.0000 -0.6055
# 5 -9.9965 -3.5954 -1.0126 0.0000 35.2099 0.0000
# 6 0.0000 0.0000 0.0000 -0.6055 0.0000 29.7662
#
#
#
# Elastic Compliance Matrix: (Units=1/GPa)
#
#
# Indices 1 2 3 4 5 6 
#
# 1 0.013344 -0.001658 0.000159 0.000000 0.003624 0.000000
# 2 -0.001658 0.016007 -0.004201 0.000000 0.001043 0.000000
# 3 0.000159 -0.004201 0.010331 0.000000 -0.000087 0.000000
# 4 0.000000 0.000000 0.000000 0.058287 0.000000 0.001186
# 5 0.003624 0.001043 -0.000087 0.000000 0.029534 0.000000
# 6 0.000000 0.000000 0.000000 0.001186 0.000000 0.033619
#
#
# Mechanical properties :
#
#
# Convention : Reuss Voigt Hill
#
# Bulk Modulus (GPa) = 35.35750 37.79763 36.57756
# Shear Modulus (GPa) = 27.48019 30.94006 29.21012
#
# Velocity S-wave (km/s) = 3.58598 3.80504 3.69713
# Velocity P-wave (km/s) = 5.80440 6.08208 5.94486
#
# Compressibility (1/GPa) = 0.02828254
#
# Stress axis : x y z
#
# Youngs Moduli (GPa) = 74.94101 62.47214 96.79420
#
# Poissons Ratio (x) = 0.10361 -0.01543
# Poissons Ratio (y) = 0.12429 0.40661
# Poissons Ratio (z) = -0.01195 0.26243
#
# Static dielectric constant tensor:
#      x y z
#    x 1.799770 0.000000 0.004330 
#    y 0.000000 1.769800 0.000000 
#    z 0.004330 0.000000 1.841000 
# 
# From -- ./inp_files/252027.got.cif
#   From: 2010.05.17/outbox.cif.g08.bks.cpg/sg15_127_cif.got.tgz:252027.got - 2010.06.03 18:47:42.
