data_PCOD9270245
_publ_section_title
;
Structure prediction by ZEFSAII (Michael W. Deem and Ramdas Pophale) SiO2 
 PCOD9270245
Probable space group: C 2/C
;
_chemical_formula_sum "Si O2"
_cell_formula_units_Z 64
_cell_length_a 22.779599
_cell_length_b 11.323876
_cell_length_c 16.249717
_cell_angle_alpha 90.000000
_cell_angle_beta 59.765810
_cell_angle_gamma 90.000000
_cell_volume 3621.495060
_symmetry_space_group_name_H-M "C 2/C"
_symmetry_group_IT_number 15
_symmetry_cell_setting 'monoclinic'
loop_
_space_group_symop_operation_xyz
x,y,z
-x,y,1/2-z
-x,-y,-z
x,-y,1/2+z
1/2+x,1/2+y,z
1/2-x,1/2+y,1/2-z
1/2-x,1/2-y,-z
1/2+x,1/2-y,1/2+z
loop_
_atom_site_type_symbol
_atom_site_label
_atom_site_fract_x
_atom_site_fract_y
_atom_site_fract_z
Si Si1 0.475397 0.341993 0.172925
Si Si2 0.868414 0.363776 0.757330
Si Si3 0.862282 0.596018 0.670293
Si Si4 0.405381 0.287608 0.537852
Si Si5 0.722168 0.272650 0.310854
Si Si6 0.141693 0.006813 0.819925
Si Si7 0.192151 0.342862 0.522403
Si Si8 0.229723 0.454271 0.887460
O O1 0.500000 0.356610 0.250000
O O2 0.432080 0.221217 0.197516
O O3 0.424348 0.446068 0.181353
O O4 0.535157 0.330955 0.063907
O O5 0.881676 0.499284 0.723963
O O6 0.806324 0.305788 0.746703
O O7 0.850600 0.358334 0.865299
O O8 0.919382 0.684389 0.595499
O O9 0.797597 0.676684 0.742329
O O10 0.832157 0.510700 0.620816
O O11 0.375017 0.397657 0.609533
O O12 0.351696 0.220706 0.517298
O O13 0.672408 0.384205 0.350432
O O14 0.720752 0.185918 0.389912
O O15 0.200901 0.978412 0.712023
O O16 0.250000 0.250000 0.500000
O O17 0.225542 0.467170 0.471643
#
# Coordination Sequence:
#
# PCOD9270245 Si02
#       8
#     8   8   8   8   8   8   8   8
#     4  11  22  38  56  81 111 146 191 241 269 322
#     4  10  20  36  55  81 113 140 187 232 278 324
#     4   9  18  32  56  82 107 142 176 230 275 335
#     4  11  21  36  59  82 110 150 195 224 281 335
#     4   9  17  34  57  81 114 143 175 231 279 340
#     4  10  20  35  57  83 112 148 188 229 274 341
#     4  11  21  32  56  86 111 145 181 235 285 333
#     4   9  18  32  55  83 113 138 180 223 283 341
#
# _framework density 17.672260000000001
#
# number of rings (size 3 to 8) (size 9 to 14) (size 15 to 20)
#    0.000    2.000    2.500    3.375    3.500    0.500 
#    0.000    0.625    2.750    0.750    0.000    0.000 
#    0.000    0.000    0.000    0.000    0.000    0.000 
#
# Total GULP energy -178239.323671 kJ/mol
# GULP energy per Si atom -5569.978865 kJ/mol
# Density = 1.763204 g / cm^3
# Si number density = 17.672260 Si / 1000 Ang^3
#
#
#
# Elastic Constant Matrix: (Units=GPa)
#
#
# Indices 1 2 3 4 5 6 
#
# 1 49.9733 25.0275 19.0735 0.0000 1.1393 0.0000
# 2 25.0275 115.0712 51.4528 0.0000 14.2876 0.0000
# 3 19.0735 51.4528 81.3035 0.0000 -7.2174 0.0000
# 4 0.0000 0.0000 0.0000 23.5636 0.0000 7.7203
# 5 1.1393 14.2876 -7.2174 0.0000 12.7244 0.0000
# 6 0.0000 0.0000 0.0000 7.7203 0.0000 16.7857
#
#
#
# Elastic Compliance Matrix: (Units=1/GPa)
#
#
# Indices 1 2 3 4 5 6 
#
# 1 0.023009 -0.003700 -0.003022 0.000000 0.000380 0.000000
# 2 -0.003700 0.019431 -0.014044 0.000000 -0.029453 0.000000
# 3 -0.003022 -0.014044 0.024556 0.000000 0.029968 0.000000
# 4 0.000000 0.000000 0.000000 0.049968 0.000000 -0.022982
# 5 0.000380 -0.029453 0.029968 0.000000 0.128625 0.000000
# 6 0.000000 0.000000 0.000000 -0.022982 0.000000 0.070145
#
#
# Mechanical properties :
#
#
# Convention : Reuss Voigt Hill
#
# Bulk Modulus (GPa) = 39.27078 48.60617 43.93848
# Shear Modulus (GPa) = 13.67037 20.66771 17.16904
#
# Velocity S-wave (km/s) = 2.78429 3.42351 3.12031
# Velocity P-wave (km/s) = 5.71020 6.57199 6.15619
#
# Compressibility (1/GPa) = 0.02546422
#
# Stress axis : x y z
#
# Youngs Moduli (GPa) = 43.46196 51.46291 40.72245
#
# Poissons Ratio (x) = 0.19041 0.12308
# Poissons Ratio (y) = 0.16081 0.57189
# Poissons Ratio (z) = 0.13136 0.72273
#
# Static dielectric constant tensor:
#      x y z
#    x 1.626640 0.000000 0.017030 
#    y 0.000000 1.627700 0.000000 
#    z 0.017030 0.000000 1.589420 
# 
# From -- ./inp_files/219103.got.cif
#   From: 2010.05.17/outbox.cif.g08.bks.cpg/sg15_110_cif.got.tgz:219103.got - 2010.06.03 18:47:42.
