data_PCOD9270367
_publ_section_title
;
Structure prediction by ZEFSAII (Michael W. Deem and Ramdas Pophale) SiO2 
 PCOD9270367
Probable space group: C 2/C
;
_chemical_formula_sum "Si O2"
_cell_formula_units_Z 40
_cell_length_a 8.870085
_cell_length_b 25.372411
_cell_length_c 8.065250
_cell_angle_alpha 90.000000
_cell_angle_beta 73.722877
_cell_angle_gamma 90.000000
_cell_volume 1742.373121
_symmetry_space_group_name_H-M "C 2/C"
_symmetry_group_IT_number 15
_symmetry_cell_setting 'monoclinic'
loop_
_space_group_symop_operation_xyz
x,y,z
-x,y,1/2-z
-x,-y,-z
x,-y,1/2+z
1/2+x,1/2+y,z
1/2-x,1/2+y,1/2-z
1/2-x,1/2-y,-z
1/2+x,1/2-y,1/2+z
loop_
_atom_site_type_symbol
_atom_site_label
_atom_site_fract_x
_atom_site_fract_y
_atom_site_fract_z
Si Si1 0.150921 0.149422 0.321678
Si Si2 0.179365 0.319838 0.059281
Si Si3 0.013196 0.758416 0.438236
Si Si4 0.324224 0.937094 0.368618
Si Si5 0.685531 0.047276 0.237357
O O1 0.217401 0.095067 0.375688
O O2 0.000000 0.138382 0.250000
O O3 0.105430 0.195696 0.463143
O O4 0.275117 0.168600 0.147337
O O5 0.314062 0.283529 0.093024
O O6 0.200322 0.374958 0.149069
O O7 0.015318 0.289507 0.071712
O O8 0.000000 0.744569 0.250000
O O9 0.500000 0.944252 0.250000
O O10 0.308539 0.944605 0.568754
O O11 0.244065 0.989260 0.319183
O O12 0.500000 0.051761 0.250000
#
# Coordination Sequence:
#
# PCOD9270367 Si02
#       5
#     8   8   8   8   8
#     4   9  20  40  59  82 121 155 186 240 299 352
#     4   9  21  38  55  83 121 155 192 240 295 351
#     4  10  21  37  59  86 114 154 200 242 293 350
#     4  10  20  35  58  85 116 152 193 241 289 343
#     4  10  20  36  58  86 116 151 195 239 289 346
#
# _framework density 22.957197000000001
#
# number of rings (size 3 to 8) (size 9 to 14) (size 15 to 20)
#    0.000    2.400    0.000    2.400    0.000   11.200 
#    0.000   10.000    0.000    0.000    0.000    0.000 
#    0.000    0.000    0.000    0.000    0.000    0.000 
#
# Total GULP energy -111415.310983 kJ/mol
# GULP energy per Si atom -5570.765549 kJ/mol
# Density = 2.290495 g / cm^3
# Si number density = 22.957197 Si / 1000 Ang^3
#
#
#
# Elastic Constant Matrix: (Units=GPa)
#
#
# Indices 1 2 3 4 5 6 
#
# 1 18.3489 34.2731 7.2179 0.0000 2.0666 0.0000
# 2 34.2731 184.5632 26.1301 0.0000 8.8166 0.0000
# 3 7.2179 26.1301 62.6825 0.0000 5.4417 0.0000
# 4 0.0000 0.0000 0.0000 38.0514 0.0000 -2.7065
# 5 2.0666 8.8166 5.4417 0.0000 24.9245 0.0000
# 6 0.0000 0.0000 0.0000 -2.7065 0.0000 34.1875
#
#
#
# Elastic Compliance Matrix: (Units=1/GPa)
#
#
# Indices 1 2 3 4 5 6 
#
# 1 0.084127 -0.015110 -0.003309 0.000000 -0.000908 0.000000
# 2 -0.015110 0.008531 -0.001695 0.000000 -0.001395 0.000000
# 3 -0.003309 -0.001695 0.017293 0.000000 -0.002902 0.000000
# 4 0.000000 0.000000 0.000000 0.026429 0.000000 0.002092
# 5 -0.000908 -0.001395 -0.002902 0.000000 0.041323 0.000000
# 6 0.000000 0.000000 0.000000 0.002092 0.000000 0.029416
#
#
# Mechanical properties :
#
#
# Convention : Reuss Voigt Hill
#
# Bulk Modulus (GPa) = 14.34286 44.53743 29.44014
# Shear Modulus (GPa) = 18.47814 32.63092 25.55453
#
# Velocity S-wave (km/s) = 2.84015 3.77421 3.33999
# Velocity P-wave (km/s) = 4.12510 6.19961 5.26553
#
# Compressibility (1/GPa) = 0.06972111
#
# Stress axis : x y z
#
# Youngs Moduli (GPa) = 11.88674 117.22234 57.82674
#
# Poissons Ratio (x) = 1.77128 0.19138
# Poissons Ratio (y) = 0.17961 0.09802
# Poissons Ratio (z) = 0.03934 0.19871
#
# Static dielectric constant tensor:
#      x y z
#    x 1.909900 0.000000 -0.030950 
#    y 0.000000 2.098600 0.000000 
#    z -0.030950 0.000000 1.858730 
# 
# From -- ./inp_files/24442.got.cif
#   From: 2010.05.17/outbox.cif.g08.bks.cpg/sg15_13_cif.got.tgz:24442.got - 2010.06.03 18:47:42.
