data_PCOD9270603
_publ_section_title
;
Structure prediction by ZEFSAII (Michael W. Deem and Ramdas Pophale) SiO2 
 PCOD9270603
Probable space group: C 2/C
;
_chemical_formula_sum "Si O2"
_cell_formula_units_Z 64
_cell_length_a 15.772429
_cell_length_b 15.214329
_cell_length_c 18.893833
_cell_angle_alpha 90.000000
_cell_angle_beta 37.883386
_cell_angle_gamma 90.000000
_cell_volume 2784.067072
_symmetry_space_group_name_H-M "C 2/C"
_symmetry_group_IT_number 15
_symmetry_cell_setting 'monoclinic'
loop_
_space_group_symop_operation_xyz
x,y,z
-x,y,1/2-z
-x,-y,-z
x,-y,1/2+z
1/2+x,1/2+y,z
1/2-x,1/2+y,1/2-z
1/2-x,1/2-y,-z
1/2+x,1/2-y,1/2+z
loop_
_atom_site_type_symbol
_atom_site_label
_atom_site_fract_x
_atom_site_fract_y
_atom_site_fract_z
Si Si1 0.403450 0.140371 0.533165
Si Si2 0.362314 0.319710 0.888903
Si Si3 0.031456 0.723971 0.156038
Si Si4 0.690746 0.467521 0.316103
Si Si5 0.797971 0.610358 0.136803
Si Si6 0.255272 0.724754 0.762116
Si Si7 0.386022 0.479766 0.974917
Si Si8 0.152571 0.904934 0.124043
O O1 0.429395 0.163836 0.434642
O O2 0.537510 0.100826 0.480437
O O3 0.368707 0.229135 0.599804
O O4 0.262484 0.086109 0.614625
O O5 0.500000 0.289623 0.750000
O O6 0.280288 0.381011 0.886039
O O7 0.409594 0.384607 0.922016
O O8 0.250000 0.250000 0.000000
O O9 0.131320 0.804274 0.111928
O O10 0.000000 0.675358 0.250000
O O11 0.892710 0.768738 0.218187
O O12 0.759203 0.543588 0.224890
O O13 0.755947 0.372383 0.261224
O O14 0.691670 0.479399 0.399683
O O15 0.531286 0.472657 0.396163
O O16 0.766401 0.704677 0.194047
O O17 0.307891 0.538429 0.969254
O O18 0.000000 0.934255 0.250000
#
# Coordination Sequence:
#
# PCOD9270603 Si02
#       8
#     8   8   8   8   8   8   8   8
#     4  11  24  38  66  95 146 181 226 295 381 441
#     4  12  27  51  78 112 151 203 265 320 378 453
#     4  10  20  35  60  97 129 174 226 283 349 439
#     4  11  24  46  72 107 140 190 253 318 370 452
#     4  11  28  44  71 109 148 195 252 311 389 458
#     4  11  23  42  67  99 141 184 242 298 376 446
#     4  11  24  43  79 100 140 188 256 309 372 449
#     4  11  20  38  65 102 131 181 234 290 362 449
#
# _framework density 22.987952
#
# number of rings (size 3 to 8) (size 9 to 14) (size 15 to 20)
#    0.000    1.000    5.000    1.500    5.250    2.500 
#    0.000    0.000    0.000    0.000    0.000    0.000 
#    0.000    0.000    0.000    0.000    0.000    0.000 
#
# Total GULP energy -178589.382405 kJ/mol
# GULP energy per Si atom -5580.918200 kJ/mol
# Density = 2.293563 g / cm^3
# Si number density = 22.987952 Si / 1000 Ang^3
#
#
#
# Elastic Constant Matrix: (Units=GPa)
#
#
# Indices 1 2 3 4 5 6 
#
# 1 107.5302 8.4420 37.3785 -0.0001 11.3733 0.0000
# 2 8.4420 76.1173 28.7547 0.0000 18.7300 0.0000
# 3 37.3785 28.7547 107.5856 -0.0002 11.7470 0.0000
# 4 -0.0001 0.0000 -0.0002 33.4028 0.0001 6.5556
# 5 11.3733 18.7300 11.7470 0.0001 42.9817 0.0000
# 6 0.0000 0.0000 0.0000 6.5556 0.0000 25.6094
#
#
#
# Elastic Compliance Matrix: (Units=1/GPa)
#
#
# Indices 1 2 3 4 5 6 
#
# 1 0.010755 0.000734 -0.003698 0.000000 -0.002155 0.000000
# 2 0.000734 0.016024 -0.003870 0.000000 -0.006119 0.000000
# 3 -0.003698 -0.003870 0.011671 0.000000 -0.000525 0.000000
# 4 0.000000 0.000000 0.000000 0.031521 0.000000 -0.008069
# 5 -0.002155 -0.006119 -0.000525 0.000000 0.026646 0.000000
# 6 0.000000 0.000000 0.000000 -0.008069 0.000000 0.041114
#
#
# Mechanical properties :
#
#
# Convention : Reuss Voigt Hill
#
# Bulk Modulus (GPa) = 40.34804 48.93153 44.63979
# Shear Modulus (GPa) = 31.31677 34.84264 33.07970
#
# Velocity S-wave (km/s) = 3.69496 3.89741 3.79753
# Velocity P-wave (km/s) = 5.98277 6.44865 6.22007
#
# Compressibility (1/GPa) = 0.02478435
#
# Stress axis : x y z
#
# Youngs Moduli (GPa) = 92.97672 62.40719 85.68093
#
# Poissons Ratio (x) = -0.04583 0.31682
# Poissons Ratio (y) = -0.06828 0.33156
# Poissons Ratio (z) = 0.34380 0.24150
#
# Static dielectric constant tensor:
#      x y z
#    x 1.860910 0.000000 -0.003090 
#    y 0.000000 1.939650 0.000000 
#    z -0.003090 0.000000 2.059230 
# 
# From -- ./inp_files/206438.got.cif
#   From: 2010.05.17/outbox.cif.g08.bks.cpg/sg15_104_cif.got.tgz:206438.got - 2010.06.03 18:47:42.
