data_PCOD9270960
_publ_section_title
;
Structure prediction by ZEFSAII (Michael W. Deem and Ramdas Pophale) SiO2 
 PCOD9270960
Probable space group: C 2/C
;
_chemical_formula_sum "Si O2"
_cell_formula_units_Z 36
_cell_length_a 14.000705
_cell_length_b 10.050622
_cell_length_c 20.526123
_cell_angle_alpha 90.000000
_cell_angle_beta 44.590220
_cell_angle_gamma 90.000000
_cell_volume 2027.712479
_symmetry_space_group_name_H-M "C 2/C"
_symmetry_group_IT_number 15
_symmetry_cell_setting 'monoclinic'
loop_
_space_group_symop_operation_xyz
x,y,z
-x,y,1/2-z
-x,-y,-z
x,-y,1/2+z
1/2+x,1/2+y,z
1/2-x,1/2+y,1/2-z
1/2-x,1/2-y,-z
1/2+x,1/2-y,1/2+z
loop_
_atom_site_type_symbol
_atom_site_label
_atom_site_fract_x
_atom_site_fract_y
_atom_site_fract_z
Si Si1 0.362598 0.369840 0.197485
Si Si2 0.662654 0.653225 0.346027
Si Si3 0.000000 0.982397 0.750000
Si Si4 0.362428 0.638006 0.437769
Si Si5 0.158186 0.154982 0.500776
O O1 0.307170 0.499633 0.186851
O O2 0.255725 0.253746 0.260312
O O3 0.414145 0.426657 0.242197
O O4 0.498809 0.322616 0.094427
O O5 0.504510 0.674096 0.404108
O O6 0.683425 0.674808 0.412405
O O7 0.903453 0.894377 0.843142
O O8 0.250000 0.750000 0.500000
O O9 0.315583 0.498206 0.491860
O O10 0.250000 0.250000 0.500000
#
# Coordination Sequence:
#
# PCOD9270960 Si02
#       5
#     8   8   4   8   8
#     4  10  20  36  56  80 108 144 183 225 270 324
#     4  10  21  37  57  81 111 145 181 224 273 323
#     4   8  18  36  54  76 110 144 180 224 272 322
#     4  10  21  36  56  82 110 143 183 230 272 317
#     4  10  21  38  58  80 110 147 182 222 272 328
#
# _framework density 17.753996000000001
#
# number of rings (size 3 to 8) (size 9 to 14) (size 15 to 20)
#    0.000    2.667    0.000    5.333    0.000    8.889 
#    0.000    3.333    0.000    0.000    0.000    0.000 
#    0.000    0.000    0.000    0.000    0.000    0.000 
#
# Total GULP energy -100433.596689 kJ/mol
# GULP energy per Si atom -5579.644261 kJ/mol
# Density = 1.771359 g / cm^3
# Si number density = 17.753996 Si / 1000 Ang^3
#
#
#
# Elastic Constant Matrix: (Units=GPa)
#
#
# Indices 1 2 3 4 5 6 
#
# 1 53.4317 42.7223 25.5424 0.0000 6.2811 0.0000
# 2 42.7223 114.2790 69.5698 0.0000 -35.2048 0.0000
# 3 25.5424 69.5698 81.7420 0.0000 -5.1920 0.0000
# 4 0.0000 0.0000 0.0000 44.2091 0.0000 -13.4082
# 5 6.2811 -35.2048 -5.1920 0.0000 31.7291 0.0000
# 6 0.0000 0.0000 0.0000 -13.4082 0.0000 29.1029
#
#
#
# Elastic Compliance Matrix: (Units=1/GPa)
#
#
# Indices 1 2 3 4 5 6 
#
# 1 0.097228 -0.112263 0.056619 0.000000 -0.134543 0.000000
# 2 -0.112263 0.169809 -0.097073 0.000000 0.194749 0.000000
# 3 0.056619 -0.097073 0.070338 0.000000 -0.107406 0.000000
# 4 0.000000 0.000000 0.000000 0.026294 0.000000 0.012114
# 5 -0.134543 0.194749 -0.107406 0.000000 0.256658 0.000000
# 6 0.000000 0.000000 0.000000 0.012114 0.000000 0.039942
#
#
# Mechanical properties :
#
#
# Convention : Reuss Voigt Hill
#
# Bulk Modulus (GPa) = 31.30945 58.34686 44.82815
# Shear Modulus (GPa) = 5.12111 28.44945 16.78528
#
# Velocity S-wave (km/s) = 1.70022 4.00737 3.07813
# Velocity P-wave (km/s) = 4.63980 7.37207 6.15935
#
# Compressibility (1/GPa) = 0.03193924
#
# Stress axis : x y z
#
# Youngs Moduli (GPa) = 10.28515 5.88896 14.21713
#
# Poissons Ratio (x) = 0.66111 -0.80496
# Poissons Ratio (y) = 1.15464 1.38011
# Poissons Ratio (z) = -0.58233 0.57166
#
# Static dielectric constant tensor:
#      x y z
#    x 1.601540 0.000000 0.015810 
#    y 0.000000 1.589280 0.000000 
#    z 0.015810 0.000000 1.604960 
# 
# From -- ./inp_files/150280.got.cif
#   From: 2010.05.17/outbox.cif.g08.bks.cpg/sg15_76_cif.got.tgz:150280.got - 2010.06.03 18:47:42.
