data_PCOD9270691
_publ_section_title
;
Structure prediction by ZEFSAII (Michael W. Deem and Ramdas Pophale) SiO2 
 PCOD9270691
Probable space group: C 2/C
;
_chemical_formula_sum "Si O2"
_cell_formula_units_Z 40
_cell_length_a 9.984034
_cell_length_b 24.956156
_cell_length_c 7.202659
_cell_angle_alpha 90.000000
_cell_angle_beta 72.870101
_cell_angle_gamma 90.000000
_cell_volume 1715.025825
_symmetry_space_group_name_H-M "C 2/C"
_symmetry_group_IT_number 15
_symmetry_cell_setting 'monoclinic'
loop_
_space_group_symop_operation_xyz
x,y,z
-x,y,1/2-z
-x,-y,-z
x,-y,1/2+z
1/2+x,1/2+y,z
1/2-x,1/2+y,1/2-z
1/2-x,1/2-y,-z
1/2+x,1/2-y,1/2+z
loop_
_atom_site_type_symbol
_atom_site_label
_atom_site_fract_x
_atom_site_fract_y
_atom_site_fract_z
Si Si1 0.000000 0.824462 0.250000
Si Si2 0.000000 0.501040 0.750000
Si Si3 0.233813 0.254683 0.226857
Si Si4 0.845074 0.423550 0.530549
Si Si5 0.815124 0.866479 0.615086
Si Si6 0.945183 0.336581 0.979349
O O1 0.870014 0.786685 0.246326
O O2 0.956660 0.862008 0.440764
O O3 0.943087 0.459744 0.621749
O O4 0.134656 0.540178 0.658458
O O5 0.209738 0.194238 0.304420
O O6 0.108459 0.288350 0.372994
O O7 0.250000 0.250000 0.000000
O O8 0.708421 0.407016 0.704337
O O9 0.929348 0.368194 0.474643
O O10 0.688390 0.874062 0.517818
O O11 0.000000 0.321729 0.750000
#
# Coordination Sequence:
#
# PCOD9270691 Si02
#       6
#     4   4   8   8   8   8
#     4  10  22  41  60  80 128 170 203 248 314 370
#     4  10  20  35  62  88 116 150 211 272 316 368
#     4  11  25  36  60  91 122 172 211 253 297 384
#     4  10  20  36  60  91 115 156 202 265 321 365
#     4  10  21  36  57  84 124 163 201 246 309 378
#     4   9  18  37  57  81 125 161 195 249 316 367
#
# _framework density 23.323263000000001
#
# number of rings (size 3 to 8) (size 9 to 14) (size 15 to 20)
#    0.000    2.000    3.000    2.400   14.000    0.800 
#    0.000    0.000    0.000    1.200    0.000    0.000 
#    0.000    0.000    0.000    0.000    0.000    0.000 
#
# Total GULP energy -111568.119747 kJ/mol
# GULP energy per Si atom -5578.405987 kJ/mol
# Density = 2.327018 g / cm^3
# Si number density = 23.323263 Si / 1000 Ang^3
#
#
#
# Elastic Constant Matrix: (Units=GPa)
#
#
# Indices 1 2 3 4 5 6 
#
# 1 17.4113 8.2078 16.4022 0.0000 -5.7469 0.0000
# 2 8.2078 91.3039 53.4961 0.0000 -20.1473 0.0000
# 3 16.4022 53.4961 150.7880 0.0000 -22.4683 0.0000
# 4 0.0000 0.0000 0.0000 49.4855 0.0000 -6.9746
# 5 -5.7469 -20.1473 -22.4683 0.0000 35.1572 0.0000
# 6 0.0000 0.0000 0.0000 -6.9746 0.0000 8.2865
#
#
#
# Elastic Compliance Matrix: (Units=1/GPa)
#
#
# Indices 1 2 3 4 5 6 
#
# 1 0.065507 -0.001089 -0.005788 0.000000 0.006385 0.000000
# 2 -0.001089 0.014797 -0.004304 0.000000 0.005551 0.000000
# 3 -0.005788 -0.004304 0.009151 0.000000 0.002436 0.000000
# 4 0.000000 0.000000 0.000000 0.022928 0.000000 0.019298
# 5 0.006385 0.005551 0.002436 0.000000 0.034225 0.000000
# 6 0.000000 0.000000 0.000000 0.019298 0.000000 0.136921
#
#
# Mechanical properties :
#
#
# Convention : Reuss Voigt Hill
#
# Bulk Modulus (GPa) = 14.90443 46.19060 30.54752
# Shear Modulus (GPa) = 15.23202 30.67899 22.95550
#
# Velocity S-wave (km/s) = 2.55832 3.63075 3.14065
# Velocity P-wave (km/s) = 3.88985 6.11752 5.12615
#
# Compressibility (1/GPa) = 0.06709413
#
# Stress axis : x y z
#
# Youngs Moduli (GPa) = 15.26553 67.58120 109.27324
#
# Poissons Ratio (x) = 0.07357 0.63247
# Poissons Ratio (y) = 0.01662 0.47032
# Poissons Ratio (z) = 0.08836 0.29088
#
# Static dielectric constant tensor:
#      x y z
#    x 1.962550 0.000000 0.021550 
#    y 0.000000 1.869070 0.000000 
#    z 0.021550 0.000000 2.180360 
# 
# From -- ./inp_files/31774.got.cif
#   From: 2010.05.17/outbox.cif.g08.bks.cpg/sg15_16_cif.got.tgz:31774.got - 2010.06.03 18:47:42.
