data_PCOD9270907
_publ_section_title
;
Structure prediction by ZEFSAII (Michael W. Deem and Ramdas Pophale) SiO2 
 PCOD9270907
Probable space group: C 2/C
;
_chemical_formula_sum "Si O2"
_cell_formula_units_Z 60
_cell_length_a 14.013254
_cell_length_b 12.949971
_cell_length_c 15.691923
_cell_angle_alpha 90.000000
_cell_angle_beta 55.777299
_cell_angle_gamma 90.000000
_cell_volume 2354.587261
_symmetry_space_group_name_H-M "C 2/C"
_symmetry_group_IT_number 15
_symmetry_cell_setting 'monoclinic'
loop_
_space_group_symop_operation_xyz
x,y,z
-x,y,1/2-z
-x,-y,-z
x,-y,1/2+z
1/2+x,1/2+y,z
1/2-x,1/2+y,1/2-z
1/2-x,1/2-y,-z
1/2+x,1/2-y,1/2+z
loop_
_atom_site_type_symbol
_atom_site_label
_atom_site_fract_x
_atom_site_fract_y
_atom_site_fract_z
Si Si1 0.551072 0.134375 0.851082
Si Si2 0.401492 0.169567 0.472990
Si Si3 0.363468 0.084163 0.197033
Si Si4 0.616182 0.354561 0.819042
Si Si5 0.369047 0.376101 0.006793
Si Si6 0.166882 0.904179 0.021100
Si Si7 0.500000 0.511243 0.750000
Si Si8 0.189544 0.654884 0.456251
O O1 0.600707 0.239857 0.788509
O O2 0.605129 0.030208 0.787510
O O3 0.579528 0.139311 0.938111
O O4 0.411970 0.137499 0.923309
O O5 0.518934 0.149842 0.361045
O O6 0.298775 0.101822 0.485792
O O7 0.364200 0.288367 0.489987
O O8 0.245024 0.132739 0.290871
O O9 0.333143 0.080944 0.111182
O O10 0.505983 0.363807 0.936149
O O11 0.583553 0.441608 0.766829
O O12 0.344592 0.495944 0.035358
O O13 0.309312 0.359552 0.944168
O O14 0.324590 0.271852 0.073723
O O15 0.080009 0.926773 0.143855
#
# Coordination Sequence:
#
# PCOD9270907 Si02
#       8
#     8   8   8   8   8   8   4   8
#     4  10  20  36  55  78 110 140 175 227 268 315
#     4  10  21  35  55  82 108 142 187 215 262 327
#     4  11  20  34  54  78 108 142 176 218 271 319
#     4  10  21  33  54  82 106 139 178 218 267 322
#     4   9  17  32  51  77 106 135 176 220 261 305
#     4  10  20  36  58  80 107 146 180 223 265 314
#     4  10  20  38  58  78 106 140 180 220 270 320
#     4   9  17  31  55  78 100 136 180 218 258 313
#
# _framework density 25.482174000000001
#
# number of rings (size 3 to 8) (size 9 to 14) (size 15 to 20)
#    0.000    2.133    0.000    5.600    0.000    3.200 
#    0.000   12.000    0.000    2.400    0.000    0.000 
#    0.000    0.000    0.000    0.000    0.000    0.000 
#
# Total GULP energy -167742.905805 kJ/mol
# GULP energy per Si atom -5591.430194 kJ/mol
# Density = 2.542418 g / cm^3
# Si number density = 25.482174 Si / 1000 Ang^3
#
#
#
# Elastic Constant Matrix: (Units=GPa)
#
#
# Indices 1 2 3 4 5 6 
#
# 1 81.6814 22.9305 35.0442 0.0000 -41.4556 0.0000
# 2 22.9305 148.5363 31.0696 0.0000 -19.5242 0.0000
# 3 35.0442 31.0696 124.4105 0.0000 -45.0526 0.0000
# 4 0.0000 0.0000 0.0000 14.5462 0.0000 -17.2380
# 5 -41.4556 -19.5242 -45.0526 0.0000 48.9612 0.0000
# 6 0.0000 0.0000 0.0000 -17.2380 0.0000 37.7610
#
#
#
# Elastic Compliance Matrix: (Units=1/GPa)
#
#
# Indices 1 2 3 4 5 6 
#
# 1 0.021681 -0.001077 0.000981 0.000000 0.018831 0.000000
# 2 -0.001077 0.007264 -0.001188 0.000000 0.000892 0.000000
# 3 0.000981 -0.001188 0.012279 0.000000 0.011656 0.000000
# 4 0.000000 0.000000 0.000000 0.149768 0.000000 0.068369
# 5 0.018831 0.000892 0.011656 0.000000 0.047449 0.000000
# 6 0.000000 0.000000 0.000000 0.068369 0.000000 0.057693
#
#
# Mechanical properties :
#
#
# Convention : Reuss Voigt Hill
#
# Bulk Modulus (GPa) = 25.86865 59.19075 42.52970
# Shear Modulus (GPa) = 16.04681 37.95927 27.00304
#
# Velocity S-wave (km/s) = 2.51216 3.86377 3.25881
# Velocity P-wave (km/s) = 4.31141 6.57143 5.55752
#
# Compressibility (1/GPa) = 0.03865683
#
# Stress axis : x y z
#
# Youngs Moduli (GPa) = 46.12257 137.65915 81.43911
#
# Poissons Ratio (x) = 0.14827 -0.07988
# Poissons Ratio (y) = 0.04968 0.09673
# Poissons Ratio (z) = -0.04524 0.16351
#
# Static dielectric constant tensor:
#      x y z
#    x 1.983320 0.000000 0.041580 
#    y 0.000000 2.016270 0.000000 
#    z 0.041580 0.000000 2.085520 
# 
# From -- ./inp_files/298757.got.cif
#   From: 2010.05.17/outbox.cif.g08.bks.cpg/sg15_150_cif.got.tgz:298757.got - 2010.06.03 18:47:42.
