data_PCOD9270742
_publ_section_title
;
Structure prediction by ZEFSAII (Michael W. Deem and Ramdas Pophale) SiO2 
 PCOD9270742
Probable space group: C 2/C
;
_chemical_formula_sum "Si O2"
_cell_formula_units_Z 40
_cell_length_a 8.831520
_cell_length_b 30.124385
_cell_length_c 8.853097
_cell_angle_alpha 90.000000
_cell_angle_beta 87.360220
_cell_angle_gamma 90.000000
_cell_volume 2352.814920
_symmetry_space_group_name_H-M "C 2/C"
_symmetry_group_IT_number 15
_symmetry_cell_setting 'monoclinic'
loop_
_space_group_symop_operation_xyz
x,y,z
-x,y,1/2-z
-x,-y,-z
x,-y,1/2+z
1/2+x,1/2+y,z
1/2-x,1/2+y,1/2-z
1/2-x,1/2-y,-z
1/2+x,1/2-y,1/2+z
loop_
_atom_site_type_symbol
_atom_site_label
_atom_site_fract_x
_atom_site_fract_y
_atom_site_fract_z
Si Si1 0.519291 0.364636 0.068858
Si Si2 0.203054 0.699035 0.990259
Si Si3 0.000000 0.345595 0.750000
Si Si4 0.707434 0.112078 0.487027
Si Si5 0.464060 0.547149 0.429435
Si Si6 0.500000 0.847326 0.250000
O O1 0.500000 0.365579 0.250000
O O2 0.644817 0.330019 0.016593
O O3 0.354808 0.356157 0.001807
O O4 0.560292 0.413841 0.006620
O O5 0.108905 0.683678 0.846448
O O6 0.250000 0.750000 0.000000
O O7 0.098149 0.684657 0.134229
O O8 0.111966 0.375477 0.845106
O O9 0.791795 0.064563 0.468986
O O10 0.600614 0.121771 0.635038
O O11 0.500000 0.547240 0.250000
O O12 0.500000 0.500000 0.500000
#
# Coordination Sequence:
#
# PCOD9270742 Si02
#       6
#     8   8   4   8   8   4
#     4  10  20  38  61  85 115 156 205 236 293 352
#     4  11  23  36  58  82 120 158 203 247 292 358
#     4  10  22  38  56  87 124 156 191 248 312 334
#     4   9  21  37  64  85 118 158 191 247 295 357
#     4  10  20  35  63  92 113 147 202 243 288 353
#     4  10  20  40  56  87 120 158 193 250 310 334
#
# _framework density 17.000912
#
# number of rings (size 3 to 8) (size 9 to 14) (size 15 to 20)
#    1.200    0.800    2.000    1.800    1.400    1.600 
#    0.000    4.000    0.000   20.400    0.000    0.000 
#    0.000    0.000    0.000    0.000    0.000    0.000 
#
# Total GULP energy -111358.461217 kJ/mol
# GULP energy per Si atom -5567.923061 kJ/mol
# Density = 1.696222 g / cm^3
# Si number density = 17.000912 Si / 1000 Ang^3
#
#
#
# Elastic Constant Matrix: (Units=GPa)
#
#
# Indices 1 2 3 4 5 6 
#
# 1 133.9467 69.9448 59.4745 0.0000 9.0543 0.0000
# 2 69.9448 151.6958 62.9180 0.0000 -6.8465 0.0000
# 3 59.4745 62.9180 118.0173 0.0000 0.5196 0.0000
# 4 0.0000 0.0000 0.0000 4.0764 0.0000 2.2660
# 5 9.0543 -6.8465 0.5196 0.0000 25.5693 0.0000
# 6 0.0000 0.0000 0.0000 2.2660 0.0000 28.1763
#
#
#
# Elastic Compliance Matrix: (Units=1/GPa)
#
#
# Indices 1 2 3 4 5 6 
#
# 1 0.011534 -0.004040 -0.003636 0.000000 -0.005092 0.000000
# 2 -0.004040 0.010023 -0.003326 0.000000 0.004182 0.000000
# 3 -0.003636 -0.003326 0.012079 0.000000 0.000152 0.000000
# 4 0.000000 0.000000 0.000000 0.256796 0.000000 -0.020652
# 5 -0.005092 0.004182 0.000152 0.000000 0.042029 0.000000
# 6 0.000000 0.000000 0.000000 -0.020652 0.000000 0.037152
#
#
# Mechanical properties :
#
#
# Convention : Reuss Voigt Hill
#
# Bulk Modulus (GPa) = 85.97748 87.59270 86.78509
# Shear Modulus (GPa) = 12.64241 25.65257 19.14749
#
# Velocity S-wave (km/s) = 2.72992 3.88866 3.35962
# Velocity P-wave (km/s) = 7.78580 8.47328 8.13680
#
# Compressibility (1/GPa) = 0.01163095
#
# Stress axis : x y z
#
# Youngs Moduli (GPa) = 86.70051 99.76929 82.79174
#
# Poissons Ratio (x) = 0.40304 0.30106
# Poissons Ratio (y) = 0.35025 0.27538
# Poissons Ratio (z) = 0.31528 0.33185
#
# Static dielectric constant tensor:
#      x y z
#    x 1.582460 0.000000 0.003520 
#    y 0.000000 1.538280 0.000000 
#    z 0.003520 0.000000 1.583890 
# 
# From -- ./inp_files/24489.got.cif
#   From: 2010.05.17/outbox.cif.g08.bks.cpg/sg15_13_cif.got.tgz:24489.got - 2010.06.03 18:47:42.
