data_PCOD9270670
_publ_section_title
;
Structure prediction by ZEFSAII (Michael W. Deem and Ramdas Pophale) SiO2 
 PCOD9270670
Probable space group: C 2/C
;
_chemical_formula_sum "Si O2"
_cell_formula_units_Z 52
_cell_length_a 19.595223
_cell_length_b 12.846154
_cell_length_c 20.534857
_cell_angle_alpha 90.000000
_cell_angle_beta 151.286517
_cell_angle_gamma 90.000000
_cell_volume 2483.390654
_symmetry_space_group_name_H-M "C 2/C"
_symmetry_group_IT_number 15
_symmetry_cell_setting 'monoclinic'
loop_
_space_group_symop_operation_xyz
x,y,z
-x,y,1/2-z
-x,-y,-z
x,-y,1/2+z
1/2+x,1/2+y,z
1/2-x,1/2+y,1/2-z
1/2-x,1/2-y,-z
1/2+x,1/2-y,1/2+z
loop_
_atom_site_type_symbol
_atom_site_label
_atom_site_fract_x
_atom_site_fract_y
_atom_site_fract_z
Si Si1 0.217042 0.755226 0.251346
Si Si2 0.000000 0.440481 0.250000
Si Si3 0.521980 0.549256 0.589989
Si Si4 0.204665 0.548502 0.320526
Si Si5 0.372342 0.198206 0.534294
Si Si6 0.922453 0.412911 0.395324
Si Si7 0.122866 0.848211 0.738830
O O1 0.088066 0.836291 0.137085
O O2 0.180412 0.660772 0.267638
O O3 0.346009 0.832007 0.378960
O O4 0.286382 0.707107 0.243425
O O5 0.908331 0.511297 0.221491
O O6 0.900287 0.366032 0.123106
O O7 0.500000 0.500000 0.500000
O O8 0.361402 0.552383 0.481528
O O9 0.612927 0.469386 0.710443
O O10 0.189312 0.464696 0.248511
O O11 0.460126 0.139940 0.551064
O O12 0.210360 0.188030 0.375581
O O13 0.460826 0.306021 0.609064
O O14 0.000000 0.500000 0.500000
#
# Coordination Sequence:
#
# PCOD9270670 Si02
#       7
#     8   4   8   8   8   8   8
#     4  11  21  35  65 100 131 171 210 280 350 399
#     4  10  26  50  64  90 138 188 240 264 336 402
#     4  12  22  40  65 104 142 166 223 285 352 405
#     4  11  24  42  66  92 135 183 223 280 331 410
#     4  10  23  40  67  94 132 179 219 278 333 410
#     4  10  20  35  61  94 130 162 217 273 341 394
#     4  11  23  40  68 107 138 163 227 286 354 398
#
# _framework density 20.939114
#
# number of rings (size 3 to 8) (size 9 to 14) (size 15 to 20)
#    0.000    1.231    3.077    2.769    8.615    0.615 
#    0.000    0.769    0.000    0.000    0.000    0.000 
#    0.000    0.000    0.000    0.000    0.000    0.000 
#
# Total GULP energy -145205.005299 kJ/mol
# GULP energy per Si atom -5584.807896 kJ/mol
# Density = 2.089146 g / cm^3
# Si number density = 20.939114 Si / 1000 Ang^3
#
#
#
# Elastic Constant Matrix: (Units=GPa)
#
#
# Indices 1 2 3 4 5 6 
#
# 1 86.4884 45.1093 17.8343 -0.0001 -0.7610 0.0000
# 2 45.1093 124.6631 27.3858 -0.0006 5.0906 -0.0002
# 3 17.8343 27.3858 92.5989 -0.0008 4.9400 -0.0003
# 4 -0.0001 -0.0006 -0.0008 44.4191 -0.0003 6.5929
# 5 -0.7610 5.0906 4.9400 -0.0003 19.5324 0.0000
# 6 0.0000 -0.0002 -0.0003 6.5929 0.0000 35.2334
#
#
#
# Elastic Compliance Matrix: (Units=1/GPa)
#
#
# Indices 1 2 3 4 5 6 
#
# 1 0.014496 -0.005023 -0.001425 0.000000 0.002234 0.000000
# 2 -0.005023 0.010370 -0.001971 0.000000 -0.002400 0.000000
# 3 -0.001425 -0.001971 0.011792 0.000000 -0.002524 0.000000
# 4 0.000000 0.000000 0.000000 0.023156 0.000000 -0.004333
# 5 0.002234 -0.002400 -0.002524 0.000000 0.052548 0.000000
# 6 0.000000 0.000000 0.000000 -0.004333 0.000000 0.029193
#
#
# Mechanical properties :
#
#
# Convention : Reuss Voigt Hill
#
# Bulk Modulus (GPa) = 50.46134 53.82322 52.14228
# Shear Modulus (GPa) = 30.30286 34.06504 32.18395
#
# Velocity S-wave (km/s) = 3.80832 4.03781 3.92474
# Velocity P-wave (km/s) = 6.59463 6.89195 6.74493
#
# Compressibility (1/GPa) = 0.01981715
#
# Stress axis : x y z
#
# Youngs Moduli (GPa) = 68.98516 96.42798 84.80679
#
# Poissons Ratio (x) = 0.48440 0.12088
# Poissons Ratio (y) = 0.34654 0.16720
# Poissons Ratio (z) = 0.09833 0.19011
#
# Static dielectric constant tensor:
#      x y z
#    x 1.749610 0.000000 0.034740 
#    y 0.000000 1.767560 0.000000 
#    z 0.034740 0.000000 1.845190 
# 
# From -- ./inp_files/252766.got.cif
#   From: 2010.05.17/outbox.cif.g08.bks.cpg/sg15_127_cif.got.tgz:252766.got - 2010.06.03 18:47:42.
