data_PCOD9270756
_publ_section_title
;
Structure prediction by ZEFSAII (Michael W. Deem and Ramdas Pophale) SiO2 
 PCOD9270756
Probable space group: C 2/C
;
_chemical_formula_sum "Si O2"
_cell_formula_units_Z 60
_cell_length_a 8.848264
_cell_length_b 25.514455
_cell_length_c 21.872246
_cell_angle_alpha 90.000000
_cell_angle_beta 40.028758
_cell_angle_gamma 90.000000
_cell_volume 3175.885927
_symmetry_space_group_name_H-M "C 2/C"
_symmetry_group_IT_number 15
_symmetry_cell_setting 'monoclinic'
loop_
_space_group_symop_operation_xyz
x,y,z
-x,y,1/2-z
-x,-y,-z
x,-y,1/2+z
1/2+x,1/2+y,z
1/2-x,1/2+y,1/2-z
1/2-x,1/2-y,-z
1/2+x,1/2-y,1/2+z
loop_
_atom_site_type_symbol
_atom_site_label
_atom_site_fract_x
_atom_site_fract_y
_atom_site_fract_z
Si Si1 0.730155 0.988241 0.064190
Si Si2 0.815660 0.697636 0.943686
Si Si3 0.318536 0.347450 0.751450
Si Si4 0.500000 0.074054 0.750000
Si Si5 0.304412 0.265350 0.259762
Si Si6 0.105963 0.838642 0.378898
Si Si7 0.952979 0.899297 0.926319
Si Si8 0.185663 0.394427 0.571346
O O1 0.586317 0.961036 0.164935
O O2 0.630353 0.044496 0.076278
O O3 0.782330 0.947695 0.993660
O O4 0.000000 0.000000 0.000000
O O5 0.703797 0.688654 0.910829
O O6 0.093585 0.698555 0.849158
O O7 0.750000 0.750000 0.000000
O O8 0.713940 0.650449 0.014218
O O9 0.500000 0.341297 0.750000
O O10 0.301518 0.291474 0.723039
O O11 0.417712 0.393537 0.677575
O O12 0.053871 0.362612 0.850584
O O13 0.715595 0.114301 0.694734
O O14 0.500000 0.258654 0.250000
O O15 0.404118 0.294283 0.169208
O O16 0.860483 0.866645 0.469741
O O17 0.160247 0.895025 0.913369
#
# Coordination Sequence:
#
# PCOD9270756 Si02
#       8
#     8   8   8   4   8   8   8   8
#     4  10  20  35  64 102 122 163 204 264 310 363
#     4  11  20  37  62  89 124 165 202 255 317 380
#     4  12  26  41  61  90 130 171 209 268 325 379
#     4  12  18  36  66  98 130 160 210 258 320 380
#     4  12  25  40  62  91 125 170 214 260 319 380
#     4  11  22  41  63  92 132 165 212 263 313 388
#     4  10  20  39  64  92 125 160 213 256 315 378
#     4  10  23  40  63  98 122 162 215 261 314 372
#
# _framework density 18.892365000000002
#
# number of rings (size 3 to 8) (size 9 to 14) (size 15 to 20)
#    0.000    1.067    6.667    2.000    5.600    1.600 
#    0.000    0.667    0.000    4.000    0.000    0.000 
#    0.000    0.000    0.000    0.000    0.000    0.000 
#
# Total GULP energy -167357.512563 kJ/mol
# GULP energy per Si atom -5578.583752 kJ/mol
# Density = 1.884937 g / cm^3
# Si number density = 18.892365 Si / 1000 Ang^3
#
#
#
# Elastic Constant Matrix: (Units=GPa)
#
#
# Indices 1 2 3 4 5 6 
#
# 1 48.5948 18.4413 36.7625 0.0001 -10.8612 0.0000
# 2 18.4413 92.0377 33.3202 0.0000 -7.0799 0.0000
# 3 36.7625 33.3202 130.4028 -0.0001 -11.0672 0.0000
# 4 0.0001 0.0000 -0.0001 36.7778 0.0000 1.6902
# 5 -10.8612 -7.0799 -11.0672 0.0000 21.6452 0.0000
# 6 0.0000 0.0000 0.0000 1.6902 0.0000 18.7137
#
#
#
# Elastic Compliance Matrix: (Units=1/GPa)
#
#
# Indices 1 2 3 4 5 6 
#
# 1 0.028849 -0.002603 -0.006598 0.000000 0.010251 0.000000
# 2 -0.002603 0.012334 -0.002285 0.000000 0.001560 0.000000
# 3 -0.006598 -0.002285 0.010211 0.000000 0.001163 0.000000
# 4 0.000000 0.000000 0.000000 0.027304 0.000000 -0.002466
# 5 0.010251 0.001560 0.001163 0.000000 0.052448 0.000000
# 6 0.000000 0.000000 0.000000 -0.002466 0.000000 0.053659
#
#
# Mechanical properties :
#
#
# Convention : Reuss Voigt Hill
#
# Bulk Modulus (GPa) = 35.18484 49.78703 42.48594
# Shear Modulus (GPa) = 23.01485 27.59478 25.30481
#
# Velocity S-wave (km/s) = 3.49407 3.82597 3.66378
# Velocity P-wave (km/s) = 5.91120 6.77699 6.35885
#
# Compressibility (1/GPa) = 0.02842133
#
# Stress axis : x y z
#
# Youngs Moduli (GPa) = 34.66379 81.07651 97.93210
#
# Poissons Ratio (x) = 0.21106 0.64612
# Poissons Ratio (y) = 0.09024 0.22381
# Poissons Ratio (z) = 0.22870 0.18529
#
# Static dielectric constant tensor:
#      x y z
#    x 1.664030 0.000000 0.037660 
#    y 0.000000 1.700510 0.000000 
#    z 0.037660 0.000000 1.706760 
# 
# From -- ./inp_files/234550.got.cif
#   From: 2010.05.17/outbox.cif.g08.bks.cpg/sg15_118_cif.got.tgz:234550.got - 2010.06.03 18:47:42.
