data_PCOD9270018
_publ_section_title
;
Structure prediction by ZEFSAII (Michael W. Deem and Ramdas Pophale) SiO2 
 PCOD9270018
Probable space group: C 2/C
;
_chemical_formula_sum "Si O2"
_cell_formula_units_Z 60
_cell_length_a 30.706486
_cell_length_b 11.885023
_cell_length_c 30.047737
_cell_angle_alpha 90.000000
_cell_angle_beta 18.438111
_cell_angle_gamma 90.000000
_cell_volume 3468.277314
_symmetry_space_group_name_H-M "C 2/C"
_symmetry_group_IT_number 15
_symmetry_cell_setting 'monoclinic'
loop_
_space_group_symop_operation_xyz
x,y,z
-x,y,1/2-z
-x,-y,-z
x,-y,1/2+z
1/2+x,1/2+y,z
1/2-x,1/2+y,1/2-z
1/2-x,1/2-y,-z
1/2+x,1/2-y,1/2+z
loop_
_atom_site_type_symbol
_atom_site_label
_atom_site_fract_x
_atom_site_fract_y
_atom_site_fract_z
Si Si1 0.843113 0.955453 0.774692
Si Si2 0.684466 0.533553 0.855092
Si Si3 0.393587 0.690789 0.490345
Si Si4 0.547048 0.117575 0.410911
Si Si5 0.264085 0.833550 0.542919
Si Si6 0.000000 0.733516 0.750000
Si Si7 0.406345 0.100420 0.031747
Si Si8 0.077041 0.875934 0.369793
O O1 0.757636 0.938236 0.902616
O O2 0.757637 0.893357 0.817749
O O3 0.985790 0.890468 0.642822
O O4 0.869870 0.077068 0.728571
O O5 0.811288 0.449199 0.733883
O O6 0.677170 0.597633 0.814695
O O7 0.681687 0.626676 0.896427
O O8 0.553193 0.453550 0.991017
O O9 0.294460 0.729045 0.546870
O O10 0.460180 0.805423 0.445789
O O11 0.536732 0.125373 0.474601
O O12 0.544729 0.244964 0.397460
O O13 0.440616 0.030932 0.491953
O O14 0.120363 0.807707 0.657049
O O15 0.401031 0.837449 0.379459
#
# Coordination Sequence:
#
# PCOD9270018 Si02
#       8
#     8   8   8   8   8   4   8   8
#     4  10  20  36  52  76 110 154 182 231 279 337
#     4  10  21  34  51  70 103 154 196 235 271 318
#     4  10  20  35  54  78 112 152 187 224 284 348
#     4  11  22  32  48  73 103 150 202 247 263 314
#     4  10  20  35  59  88 120 151 176 230 299 364
#     4  10  20  36  58  92 122 142 174 234 306 380
#     4  10  22  30  48  74 104 145 199 236 278 306
#     4  10  21  35  49  71 106 151 202 234 274 320
#
# _framework density 17.299655000000001
#
# number of rings (size 3 to 8) (size 9 to 14) (size 15 to 20)
#    0.000    1.867    4.000    0.000    5.600    0.000 
#    0.000    0.000    0.000    0.000    0.000    0.000 
#    0.000   36.267    0.000    0.000    0.000    0.000 
#
# Total GULP energy -167053.573140 kJ/mol
# GULP energy per Si atom -5568.452438 kJ/mol
# Density = 1.726028 g / cm^3
# Si number density = 17.299655 Si / 1000 Ang^3
#
#
#
# Elastic Constant Matrix: (Units=GPa)
#
#
# Indices 1 2 3 4 5 6 
#
# 1 70.2463 33.4645 34.7884 -0.0002 4.5306 0.0002
# 2 33.4645 115.6246 21.0695 0.0014 10.8904 -0.0002
# 3 34.7884 21.0695 69.7717 0.0031 5.3855 -0.0008
# 4 -0.0002 0.0014 0.0031 20.4526 -0.0002 5.5301
# 5 4.5306 10.8904 5.3855 -0.0002 34.7867 -0.0003
# 6 0.0002 -0.0002 -0.0008 5.5301 -0.0003 19.8436
#
#
#
# Elastic Compliance Matrix: (Units=1/GPa)
#
#
# Indices 1 2 3 4 5 6 
#
# 1 0.020800 -0.004376 -0.009055 0.000002 0.000063 -0.000001
# 2 -0.004376 0.010287 -0.000729 -0.000001 -0.002538 0.000000
# 3 -0.009055 -0.000729 0.019188 -0.000003 -0.001563 0.000002
# 4 0.000002 -0.000001 -0.000003 0.052878 0.000001 -0.014736
# 5 0.000063 -0.002538 -0.001563 0.000001 0.029775 0.000000
# 6 -0.000001 0.000000 0.000002 -0.014736 0.000000 0.054501
#
#
# Mechanical properties :
#
#
# Convention : Reuss Voigt Hill
#
# Bulk Modulus (GPa) = 45.54418 48.25416 46.89917
# Shear Modulus (GPa) = 22.41485 26.10458 24.25972
#
# Velocity S-wave (km/s) = 3.60346 3.88875 3.74882
# Velocity P-wave (km/s) = 6.61038 6.93664 6.77547
#
# Compressibility (1/GPa) = 0.02195670
#
# Stress axis : x y z
#
# Youngs Moduli (GPa) = 48.07595 97.20986 52.11659
#
# Poissons Ratio (x) = 0.42540 0.47189
# Poissons Ratio (y) = 0.21039 0.03797
# Poissons Ratio (z) = 0.43530 0.07083
#
# Static dielectric constant tensor:
#      x y z
#    x 1.625650 0.000000 -0.006290 
#    y 0.000000 1.581350 0.000000 
#    z -0.006290 0.000000 1.679170 
# 
# From -- ./inp_files/320268.got.cif
#   From: 2010.05.17/outbox.cif.g08.bks.cpg/sg15_161_cif.got.tgz:320268.got - 2010.06.03 18:47:42.
