data_PCOD9270585
_publ_section_title
;
Structure prediction by ZEFSAII (Michael W. Deem and Ramdas Pophale) SiO2 
 PCOD9270585
Probable space group: C 2/C
;
_chemical_formula_sum "Si O2"
_cell_formula_units_Z 60
_cell_length_a 14.747582
_cell_length_b 12.895605
_cell_length_c 15.905229
_cell_angle_alpha 90.000000
_cell_angle_beta 71.367933
_cell_angle_gamma 90.000000
_cell_volume 2866.307773
_symmetry_space_group_name_H-M "C 2/C"
_symmetry_group_IT_number 15
_symmetry_cell_setting 'monoclinic'
loop_
_space_group_symop_operation_xyz
x,y,z
-x,y,1/2-z
-x,-y,-z
x,-y,1/2+z
1/2+x,1/2+y,z
1/2-x,1/2+y,1/2-z
1/2-x,1/2-y,-z
1/2+x,1/2-y,1/2+z
loop_
_atom_site_type_symbol
_atom_site_label
_atom_site_fract_x
_atom_site_fract_y
_atom_site_fract_z
Si Si1 0.000000 0.192408 0.750000
Si Si2 0.689840 0.180939 0.251964
Si Si3 0.389380 0.973899 0.257743
Si Si4 0.129376 0.312040 0.098716
Si Si5 0.147825 0.111615 0.579916
Si Si6 0.449652 0.091854 0.566261
Si Si7 0.233538 0.887357 0.590631
Si Si8 0.313277 0.735759 0.076679
O O1 0.089921 0.255594 0.766304
O O2 0.050464 0.126504 0.660758
O O3 0.710543 0.151111 0.342444
O O4 0.788679 0.223861 0.182749
O O5 0.671298 0.075202 0.205510
O O6 0.500000 0.994517 0.250000
O O7 0.356417 0.875846 0.320188
O O8 0.386381 0.956043 0.159221
O O9 0.144669 0.191184 0.108110
O O10 0.026753 0.339865 0.092567
O O11 0.201211 0.359412 0.008638
O O12 0.210959 0.214112 0.582215
O O13 0.148871 0.131123 0.479029
O O14 0.199773 0.006305 0.593693
O O15 0.387357 0.172481 0.532848
O O16 0.500000 0.000000 0.500000
#
# Coordination Sequence:
#
# PCOD9270585 Si02
#       8
#     4   8   8   8   8   8   8   8
#     4  10  24  40  64  96 132 166 218 274 314 398
#     4  11  21  39  67  95 127 168 216 267 329 379
#     4  10  20  35  60  92 123 156 207 270 315 370
#     4  10  23  40  61  93 131 161 217 263 315 389
#     4  10  22  42  61  93 130 168 208 262 327 385
#     4  11  22  37  65  97 121 166 217 272 325 377
#     4  11  23  41  64  88 129 178 207 261 323 394
#     4  10  22  38  65  92 129 160 216 272 318 381
#
# _framework density 20.932853000000001
#
# number of rings (size 3 to 8) (size 9 to 14) (size 15 to 20)
#    0.000    1.600    0.667    4.000    3.733    3.200 
#    6.000    0.667    0.000    0.000    0.000    0.000 
#    0.000    0.000    0.000    0.000    0.000    0.000 
#
# Total GULP energy -167125.195039 kJ/mol
# GULP energy per Si atom -5570.839835 kJ/mol
# Density = 2.088521 g / cm^3
# Si number density = 20.932853 Si / 1000 Ang^3
#
#
#
# Elastic Constant Matrix: (Units=GPa)
#
#
# Indices 1 2 3 4 5 6 
#
# 1 62.2793 41.0705 28.5529 0.0000 -0.5253 0.0000
# 2 41.0705 87.8428 42.2524 0.0000 -4.6633 0.0000
# 3 28.5529 42.2524 129.1872 0.0000 -5.5077 0.0000
# 4 0.0000 0.0000 0.0000 27.7560 0.0000 -5.5439
# 5 -0.5253 -4.6633 -5.5077 0.0000 27.3310 0.0000
# 6 0.0000 0.0000 0.0000 -5.5439 0.0000 37.7914
#
#
#
# Elastic Compliance Matrix: (Units=1/GPa)
#
#
# Indices 1 2 3 4 5 6 
#
# 1 0.023680 -0.010216 -0.001964 0.000000 -0.001684 0.000000
# 2 -0.010216 0.017972 -0.003528 0.000000 0.002159 0.000000
# 3 -0.001964 -0.003528 0.009382 0.000000 0.001251 0.000000
# 4 0.000000 0.000000 0.000000 0.037116 0.000000 0.005445
# 5 -0.001684 0.002159 0.001251 0.000000 0.037177 0.000000
# 6 0.000000 0.000000 0.000000 0.005445 0.000000 0.027260
#
#
# Mechanical properties :
#
#
# Convention : Reuss Voigt Hill
#
# Bulk Modulus (GPa) = 50.97480 55.89566 53.43523
# Shear Modulus (GPa) = 26.24089 29.73792 27.98940
#
# Velocity S-wave (km/s) = 3.54443 3.77322 3.66061
# Velocity P-wave (km/s) = 6.41522 6.76337 6.59160
#
# Compressibility (1/GPa) = 0.01961754
#
# Stress axis : x y z
#
# Youngs Moduli (GPa) = 42.22946 55.64190 106.58649
#
# Poissons Ratio (x) = 0.56845 0.20936
# Poissons Ratio (y) = 0.43142 0.37604
# Poissons Ratio (z) = 0.08295 0.19630
#
# Static dielectric constant tensor:
#      x y z
#    x 1.796020 0.000000 0.056520 
#    y 0.000000 1.779970 0.000000 
#    z 0.056520 0.000000 1.909660 
# 
# From -- ./inp_files/204424.got.cif
#   From: 2010.05.17/outbox.cif.g08.bks.cpg/sg15_103_cif.got.tgz:204424.got - 2010.06.03 18:47:42.
