data_PCOD9270595
_publ_section_title
;
Structure prediction by ZEFSAII (Michael W. Deem and Ramdas Pophale) SiO2 
 PCOD9270595
Probable space group: C 2/C
;
_chemical_formula_sum "Si O2"
_cell_formula_units_Z 64
_cell_length_a 10.755786
_cell_length_b 26.223194
_cell_length_c 11.459944
_cell_angle_alpha 90.000000
_cell_angle_beta 88.864891
_cell_angle_gamma 90.000000
_cell_volume 3231.655084
_symmetry_space_group_name_H-M "C 2/C"
_symmetry_group_IT_number 15
_symmetry_cell_setting 'monoclinic'
loop_
_space_group_symop_operation_xyz
x,y,z
-x,y,1/2-z
-x,-y,-z
x,-y,1/2+z
1/2+x,1/2+y,z
1/2-x,1/2+y,1/2-z
1/2-x,1/2-y,-z
1/2+x,1/2-y,1/2+z
loop_
_atom_site_type_symbol
_atom_site_label
_atom_site_fract_x
_atom_site_fract_y
_atom_site_fract_z
Si Si1 0.547404 0.086926 0.923877
Si Si2 0.370815 0.051033 0.319381
Si Si3 0.146023 0.660968 0.215558
Si Si4 0.382302 0.650201 0.663914
Si Si5 0.595646 0.198783 0.975966
Si Si6 0.703306 0.242185 0.745008
Si Si7 0.890373 0.770192 0.979842
Si Si8 0.202481 0.442620 0.194522
O O1 0.535977 0.148368 0.920193
O O2 0.411783 0.066681 0.892576
O O3 0.646077 0.071178 0.822857
O O4 0.589930 0.066050 0.049060
O O5 0.500000 0.037770 0.250000
O O6 0.316399 0.102658 0.263272
O O7 0.279229 0.003277 0.312837
O O8 0.215034 0.707072 0.274300
O O9 0.000000 0.661465 0.250000
O O10 0.171373 0.673630 0.079476
O O11 0.500000 0.650737 0.750000
O O12 0.281620 0.691826 0.710647
O O13 0.408986 0.673901 0.534205
O O14 0.315687 0.595299 0.665117
O O15 0.667640 0.231044 0.878774
O O16 0.493663 0.234850 0.037758
O O17 0.593217 0.254789 0.656162
O O18 0.750000 0.750000 0.000000
#
# Coordination Sequence:
#
# PCOD9270595 Si02
#       8
#     8   8   8   8   8   8   8   8
#     4  10  20  35  60  95 118 144 194 251 310 352
#     4  10  21  36  58  92 120 147 188 252 319 358
#     4  10  21  35  53  83 121 155 186 239 308 358
#     4  11  23  39  58  86 122 163 207 240 293 364
#     4  11  20  34  57  85 119 152 191 243 297 359
#     4  11  20  35  57  86 117 157 199 245 293 354
#     4  10  21  34  54  83 119 154 196 240 292 352
#     4  11  21  36  62  87 118 154 197 251 299 354
#
# _framework density 19.804093000000002
#
# number of rings (size 3 to 8) (size 9 to 14) (size 15 to 20)
#    0.000    1.500    2.500    5.250    1.750    2.000 
#    0.000    0.000    0.000    2.250    0.000    0.000 
#    0.000    0.000    0.000    0.000    0.000    0.000 
#
# Total GULP energy -178304.244474 kJ/mol
# GULP energy per Si atom -5572.007640 kJ/mol
# Density = 1.975902 g / cm^3
# Si number density = 19.804093 Si / 1000 Ang^3
#
#
#
# Elastic Constant Matrix: (Units=GPa)
#
#
# Indices 1 2 3 4 5 6 
#
# 1 31.1747 39.1975 11.2682 0.0000 0.0167 0.0000
# 2 39.1975 177.5096 26.8286 0.0000 -3.0480 0.0000
# 3 11.2682 26.8286 84.4034 0.0000 -3.6601 0.0000
# 4 0.0000 0.0000 0.0000 21.9796 0.0000 1.8709
# 5 0.0167 -3.0480 -3.6601 0.0000 18.2296 0.0000
# 6 0.0000 0.0000 0.0000 1.8709 0.0000 22.7143
#
#
#
# Elastic Compliance Matrix: (Units=1/GPa)
#
#
# Indices 1 2 3 4 5 6 
#
# 1 0.045211 -0.009554 -0.003097 0.000000 -0.002261 0.000000
# 2 -0.009554 0.007944 -0.001202 0.000000 0.001096 0.000000
# 3 -0.003097 -0.001202 0.012746 0.000000 0.002361 0.000000
# 4 0.000000 0.000000 0.000000 0.045818 0.000000 -0.003774
# 5 -0.002261 0.001096 0.002361 0.000000 0.055515 0.000000
# 6 0.000000 0.000000 0.000000 -0.003774 0.000000 0.044336
#
#
# Mechanical properties :
#
#
# Convention : Reuss Voigt Hill
#
# Bulk Modulus (GPa) = 26.18200 49.74179 37.96190
# Shear Modulus (GPa) = 19.84069 26.97090 23.40580
#
# Velocity S-wave (km/s) = 3.16863 3.69438 3.44156
# Velocity P-wave (km/s) = 5.16102 6.58554 5.91631
#
# Compressibility (1/GPa) = 0.03819418
#
# Stress axis : x y z
#
# Youngs Moduli (GPa) = 22.11856 125.88549 78.45744
#
# Poissons Ratio (x) = 1.20273 0.24298
# Poissons Ratio (y) = 0.21132 0.09430
# Poissons Ratio (z) = 0.06850 0.15131
#
# Static dielectric constant tensor:
#      x y z
#    x 1.857510 0.000000 0.091600 
#    y 0.000000 1.743620 0.000000 
#    z 0.091600 0.000000 1.861860 
# 
# From -- ./inp_files/91774.got.cif
#   From: 2010.05.17/outbox.cif.g08.bks.cpg/sg15_46_cif.got.tgz:91774.got - 2010.06.03 18:47:42.
