data_PCOD9270412
_publ_section_title
;
Structure prediction by ZEFSAII (Michael W. Deem and Ramdas Pophale) SiO2 
 PCOD9270412
Probable space group: C 2/C
;
_chemical_formula_sum "Si O2"
_cell_formula_units_Z 64
_cell_length_a 30.515215
_cell_length_b 21.165833
_cell_length_c 14.631274
_cell_angle_alpha 90.000000
_cell_angle_beta 160.827012
_cell_angle_gamma 90.000000
_cell_volume 3103.597346
_symmetry_space_group_name_H-M "C 2/C"
_symmetry_group_IT_number 15
_symmetry_cell_setting 'monoclinic'
loop_
_space_group_symop_operation_xyz
x,y,z
-x,y,1/2-z
-x,-y,-z
x,-y,1/2+z
1/2+x,1/2+y,z
1/2-x,1/2+y,1/2-z
1/2-x,1/2-y,-z
1/2+x,1/2-y,1/2+z
loop_
_atom_site_type_symbol
_atom_site_label
_atom_site_fract_x
_atom_site_fract_y
_atom_site_fract_z
Si Si1 0.499975 0.633005 0.139957
Si Si2 0.269879 0.415728 0.518639
Si Si3 0.221798 0.822089 0.809764
Si Si4 0.539631 0.122160 0.080793
Si Si5 0.862837 0.143002 0.539491
Si Si6 0.318327 0.438366 0.132696
Si Si7 0.994911 0.721938 0.630905
Si Si8 0.022921 0.270380 0.694683
O O1 0.500000 0.623246 0.250000
O O2 0.652945 0.619257 0.411351
O O3 0.456240 0.705796 0.033108
O O4 0.405834 0.589317 0.889512
O O5 0.318137 0.377476 0.701867
O O6 0.323867 0.486630 0.631105
O O7 0.108143 0.408857 0.202756
O O8 0.242065 0.853917 0.750179
O O9 0.109386 0.769344 0.586529
O O10 0.353257 0.787648 0.103020
O O11 0.661428 0.075690 0.338213
O O12 0.547961 0.176569 0.172278
O O13 0.568904 0.161441 0.044756
O O14 0.855050 0.096180 0.609004
O O15 0.000000 0.133411 0.750000
O O16 0.866843 0.215250 0.583974
O O17 0.000000 0.717928 0.750000
O O18 0.000000 0.298064 0.750000
#
# Coordination Sequence:
#
# PCOD9270412 Si02
#       8
#     8   8   8   8   8   8   8   8
#     4  11  25  41  62  91 119 152 197 252 303 346
#     4  11  24  42  60  84 121 165 204 236 285 353
#     4   9  18  36  60  84 114 157 199 239 293 358
#     4  11  23  39  62  89 122 159 193 242 300 352
#     4   9  19  36  61  90 117 153 198 246 299 351
#     4  12  25  40  60  89 122 159 204 244 284 347
#     4  10  20  35  58  89 120 147 190 249 306 355
#     4   9  19  35  59  88 116 149 194 245 302 357
#
# _framework density 20.621231000000002
#
# number of rings (size 3 to 8) (size 9 to 14) (size 15 to 20)
#    0.000    2.000    0.000    5.250    0.000   10.500 
#    0.000    0.625    0.000    4.500    0.000    0.000 
#    0.000    0.000    0.000    0.000    0.000    0.000 
#
# Total GULP energy -178469.993501 kJ/mol
# GULP energy per Si atom -5577.187297 kJ/mol
# Density = 2.057430 g / cm^3
# Si number density = 20.621231 Si / 1000 Ang^3
#
#
#
# Elastic Constant Matrix: (Units=GPa)
#
#
# Indices 1 2 3 4 5 6 
#
# 1 100.8340 43.2605 15.1260 0.0000 -8.0355 0.0000
# 2 43.2605 90.2656 4.4810 0.0000 -6.2232 0.0000
# 3 15.1260 4.4810 63.2383 0.0000 6.8365 0.0000
# 4 0.0000 0.0000 0.0000 35.1037 0.0000 -7.2720
# 5 -8.0355 -6.2232 6.8365 0.0000 23.7355 0.0000
# 6 0.0000 0.0000 0.0000 -7.2720 0.0000 10.4855
#
#
#
# Elastic Compliance Matrix: (Units=1/GPa)
#
#
# Indices 1 2 3 4 5 6 
#
# 1 0.013239 -0.005923 -0.003162 0.000000 0.003840 0.000000
# 2 -0.005923 0.014015 0.000251 0.000000 0.001597 0.000000
# 3 -0.003162 0.000251 0.017196 0.000000 -0.005957 0.000000
# 4 0.000000 0.000000 0.000000 0.033266 0.000000 0.023071
# 5 0.003840 0.001597 -0.005957 0.000000 0.045565 0.000000
# 6 0.000000 0.000000 0.000000 0.023071 0.000000 0.111370
#
#
# Mechanical properties :
#
#
# Convention : Reuss Voigt Hill
#
# Bulk Modulus (GPa) = 37.33963 42.23033 39.78498
# Shear Modulus (GPa) = 19.13902 26.62965 22.88433
#
# Velocity S-wave (km/s) = 3.04981 3.59746 3.33490
# Velocity P-wave (km/s) = 5.52707 6.14648 5.84498
#
# Compressibility (1/GPa) = 0.02678120
#
# Stress axis : x y z
#
# Youngs Moduli (GPa) = 75.53579 71.35341 58.15388
#
# Poissons Ratio (x) = 0.42263 0.18388
# Poissons Ratio (y) = 0.44741 -0.01460
# Poissons Ratio (z) = 0.23884 -0.01791
#
# Static dielectric constant tensor:
#      x y z
#    x 1.765420 0.000000 0.010880 
#    y 0.000000 1.725990 0.000000 
#    z 0.010880 0.000000 1.834900 
# 
# From -- ./inp_files/183171.got.cif
#   From: 2010.05.17/outbox.cif.g08.bks.cpg/sg15_92_cif.got.tgz:183171.got - 2010.06.03 18:47:42.
