data_PCOD9270444
_publ_section_title
;
Structure prediction by ZEFSAII (Michael W. Deem and Ramdas Pophale) SiO2 
 PCOD9270444
Probable space group: C 2/C
;
_chemical_formula_sum "Si O2"
_cell_formula_units_Z 48
_cell_length_a 16.195388
_cell_length_b 9.276413
_cell_length_c 20.521190
_cell_angle_alpha 90.000000
_cell_angle_beta 39.430469
_cell_angle_gamma 90.000000
_cell_volume 1958.142812
_symmetry_space_group_name_H-M "C 2/C"
_symmetry_group_IT_number 15
_symmetry_cell_setting 'monoclinic'
loop_
_space_group_symop_operation_xyz
x,y,z
-x,y,1/2-z
-x,-y,-z
x,-y,1/2+z
1/2+x,1/2+y,z
1/2-x,1/2+y,1/2-z
1/2-x,1/2-y,-z
1/2+x,1/2-y,1/2+z
loop_
_atom_site_type_symbol
_atom_site_label
_atom_site_fract_x
_atom_site_fract_y
_atom_site_fract_z
Si Si1 0.823186 0.896212 0.581473
Si Si2 0.386638 0.296862 0.868863
Si Si3 0.700580 0.998667 0.541254
Si Si4 0.586657 0.267181 0.856927
Si Si5 0.178382 0.074562 0.807518
Si Si6 0.540083 0.791109 0.796659
O O1 0.809216 0.905624 0.513289
O O2 0.905443 0.775363 0.569219
O O3 0.863984 0.044194 0.592251
O O4 0.674360 0.871091 0.695664
O O5 0.500000 0.330642 0.750000
O O6 0.335690 0.134379 0.889799
O O7 0.453048 0.279199 0.900066
O O8 0.276368 0.419354 0.937398
O O9 0.573302 0.900539 0.610578
O O10 0.676595 0.134882 0.782516
O O11 0.663004 0.413236 0.788974
O O12 0.085895 0.178227 0.822900
O O13 0.500000 0.727138 0.750000
#
# Coordination Sequence:
#
# PCOD9270444 Si02
#       6
#     8   8   8   8   8   8
#     4   8  17  33  56  81 110 152 190 220 271 342
#     4  11  22  35  58  83 114 144 189 234 278 335
#     4  10  20  35  59  81 109 153 186 224 282 336
#     4   9  19  33  56  85 112 149 190 231 276 333
#     4   9  17  31  56  84 113 149 188 233 276 325
#     4   9  16  31  55  82 112 146 186 225 274 332
#
# _framework density 24.513024000000001
#
# number of rings (size 3 to 8) (size 9 to 14) (size 15 to 20)
#    1.000    1.667    0.000    3.500    0.000    1.333 
#    0.000    0.833    3.667    6.000    0.000    0.000 
#    0.000    0.000    0.000    0.000    0.000    0.000 
#
# Total GULP energy -133787.713296 kJ/mol
# GULP energy per Si atom -5574.488054 kJ/mol
# Density = 2.445723 g / cm^3
# Si number density = 24.513024 Si / 1000 Ang^3
#
#
#
# Elastic Constant Matrix: (Units=GPa)
#
#
# Indices 1 2 3 4 5 6 
#
# 1 97.8059 4.5741 -5.3157 0.0000 -20.0683 0.0000
# 2 4.5741 59.5986 -1.2902 0.0000 -4.3346 0.0000
# 3 -5.3157 -1.2902 76.9108 0.0000 -5.6361 0.0000
# 4 0.0000 0.0000 0.0000 2.9685 0.0000 -28.9290
# 5 -20.0683 -4.3346 -5.6361 0.0000 18.3055 0.0000
# 6 0.0000 0.0000 0.0000 -28.9290 0.0000 33.7544
#
#
#
# Elastic Compliance Matrix: (Units=1/GPa)
#
#
# Indices 1 2 3 4 5 6 
#
# 1 0.013506 0.000134 0.002070 0.000000 0.015475 0.000000
# 2 0.000134 0.017101 0.000618 0.000000 0.004386 0.000000
# 3 0.002070 0.000618 0.013640 0.000000 0.006615 0.000000
# 4 0.000000 0.000000 0.000000 -0.045819 0.000000 -0.039269
# 5 0.015475 0.004386 0.006615 0.000000 0.074669 0.000000
# 6 0.000000 0.000000 0.000000 -0.039269 0.000000 -0.004030
#
#
# Mechanical properties :
#
#
# Convention : Reuss Voigt Hill
#
# Bulk Modulus (GPa) = 20.04435 25.58351 22.81393
# Shear Modulus (GPa) = 62.45675 26.76217 44.60946
#
# Velocity S-wave (km/s) = 5.05315 3.30775 4.27057
# Velocity P-wave (km/s) = 6.49927 5.00476 5.80035
#
# Compressibility (1/GPa) = 0.04988936
#
# Stress axis : x y z
#
# Youngs Moduli (GPa) = 74.04167 58.47601 73.31243
#
# Poissons Ratio (x) = -0.00782 -0.15174
# Poissons Ratio (y) = -0.00990 -0.04527
# Poissons Ratio (z) = -0.15325 -0.03611
#
# Static dielectric constant tensor:
#      x y z
#    x 2.084880 0.000000 0.025090 
#    y 0.000000 1.946800 0.000000 
#    z 0.025090 0.000000 1.974260 
# 
# From -- ./inp_files/298741.got.cif
#   From: 2010.05.17/outbox.cif.g08.bks.cpg/sg15_150_cif.got.tgz:298741.got - 2010.06.03 18:47:42.
