data_PCOD9270063
_publ_section_title
;
Structure prediction by ZEFSAII (Michael W. Deem and Ramdas Pophale) SiO2 
 PCOD9270063
Probable space group: C 2/C
;
_chemical_formula_sum "Si O2"
_cell_formula_units_Z 56
_cell_length_a 28.412609
_cell_length_b 14.927618
_cell_length_c 8.821366
_cell_angle_alpha 90.000000
_cell_angle_beta 135.507429
_cell_angle_gamma 90.000000
_cell_volume 2622.055981
_symmetry_space_group_name_H-M "C 2/C"
_symmetry_group_IT_number 15
_symmetry_cell_setting 'monoclinic'
loop_
_space_group_symop_operation_xyz
x,y,z
-x,y,1/2-z
-x,-y,-z
x,-y,1/2+z
1/2+x,1/2+y,z
1/2-x,1/2+y,1/2-z
1/2-x,1/2-y,-z
1/2+x,1/2-y,1/2+z
loop_
_atom_site_type_symbol
_atom_site_label
_atom_site_fract_x
_atom_site_fract_y
_atom_site_fract_z
Si Si1 0.650992 0.330946 0.269504
Si Si2 0.030515 0.082255 0.984233
Si Si3 0.848346 0.885037 0.906057
Si Si4 0.672436 0.216827 0.826689
Si Si5 0.937023 0.216900 0.192238
Si Si6 0.695389 0.949845 0.546733
Si Si7 0.190021 0.626314 0.369283
O O1 0.628673 0.382590 0.368338
O O2 0.729626 0.355384 0.428402
O O3 0.653370 0.222209 0.297476
O O4 0.601115 0.346728 0.015676
O O5 0.107952 0.065538 0.118361
O O6 0.027583 0.164743 0.090649
O O7 0.000000 0.100644 0.750000
O O8 0.000000 0.000000 0.000000
O O9 0.853453 0.779754 0.867692
O O10 0.775153 0.928906 0.733130
O O11 0.626986 0.239781 0.869562
O O12 0.750000 0.250000 0.000000
O O13 0.672814 0.110361 0.849022
O O14 0.000000 0.264039 0.250000
O O15 0.674795 0.914461 0.666613
O O16 0.675681 0.051111 0.462617
#
# Coordination Sequence:
#
# PCOD9270063 Si02
#       7
#     8   8   8   8   8   8   8
#     4  10  21  41  59  93 128 174 217 255 332 392
#     4  11  24  40  58  88 128 171 212 255 308 373
#     4   9  21  36  59  84 124 174 207 260 316 387
#     4   9  19  37  58  86 126 163 212 262 322 380
#     4  11  22  39  65  87 123 175 216 257 312 397
#     4  10  20  35  54  92 119 158 216 269 324 367
#     4  10  22  34  60  89 131 162 212 274 322 383
#
# _framework density 21.357285000000001
#
# number of rings (size 3 to 8) (size 9 to 14) (size 15 to 20)
#    0.000    2.000    1.429    1.286    4.000    6.857 
#    0.000    1.429    0.000    0.857    0.000    0.000 
#    0.000    0.000    0.000    0.000    0.000    0.000 
#
# Total GULP energy -155903.141860 kJ/mol
# GULP energy per Si atom -5567.969352 kJ/mol
# Density = 2.130867 g / cm^3
# Si number density = 21.357285 Si / 1000 Ang^3
#
#
#
# Elastic Constant Matrix: (Units=GPa)
#
#
# Indices 1 2 3 4 5 6 
#
# 1 108.8197 9.4740 7.9176 0.0000 -3.7326 0.0000
# 2 9.4740 84.8187 19.3243 0.0000 -16.4230 0.0000
# 3 7.9176 19.3243 89.5964 0.0000 -26.3275 0.0000
# 4 0.0000 0.0000 0.0000 22.3202 0.0000 -6.2520
# 5 -3.7326 -16.4230 -26.3275 0.0000 22.5525 0.0000
# 6 0.0000 0.0000 0.0000 -6.2520 0.0000 22.6667
#
#
#
# Elastic Compliance Matrix: (Units=1/GPa)
#
#
# Indices 1 2 3 4 5 6 
#
# 1 0.009314 -0.000862 -0.000561 0.000000 0.000258 0.000000
# 2 -0.000862 0.013805 0.000016 0.000000 0.009930 0.000000
# 3 -0.000561 0.000016 0.017023 0.000000 0.019791 0.000000
# 4 0.000000 0.000000 0.000000 0.048554 0.000000 0.013392
# 5 0.000258 0.009930 0.019791 0.000000 0.074719 0.000000
# 6 0.000000 0.000000 0.000000 0.013392 0.000000 0.047811
#
#
# Mechanical properties :
#
#
# Convention : Reuss Voigt Hill
#
# Bulk Modulus (GPa) = 26.78965 39.62963 33.20964
# Shear Modulus (GPa) = 22.07671 29.94247 26.00959
#
# Velocity S-wave (km/s) = 3.21859 3.74836 3.49353
# Velocity P-wave (km/s) = 5.13646 6.10979 5.64414
#
# Compressibility (1/GPa) = 0.03732785
#
# Stress axis : x y z
#
# Youngs Moduli (GPa) = 107.36190 72.43734 58.74467
#
# Poissons Ratio (x) = 0.06248 0.03296
# Poissons Ratio (y) = 0.09260 -0.00097
# Poissons Ratio (z) = 0.06024 -0.00119
#
# Static dielectric constant tensor:
#      x y z
#    x 1.653360 0.000000 0.097980 
#    y 0.000000 0.553160 0.000000 
#    z 0.097980 0.000000 1.810530 
# 
# From -- ./inp_files/69973.got.cif
#   From: 2010.05.17/outbox.cif.g08.bks.cpg/sg15_35_cif.got.tgz:69973.got - 2010.06.03 18:47:42.
