data_PCOD9270476
_publ_section_title
;
Structure prediction by ZEFSAII (Michael W. Deem and Ramdas Pophale) SiO2 
 PCOD9270476
Probable space group: C 2/C
;
_chemical_formula_sum "Si O2"
_cell_formula_units_Z 40
_cell_length_a 17.085056
_cell_length_b 6.619594
_cell_length_c 21.206886
_cell_angle_alpha 90.000000
_cell_angle_beta 37.513111
_cell_angle_gamma 90.000000
_cell_volume 1460.499031
_symmetry_space_group_name_H-M "C 2/C"
_symmetry_group_IT_number 15
_symmetry_cell_setting 'monoclinic'
loop_
_space_group_symop_operation_xyz
x,y,z
-x,y,1/2-z
-x,-y,-z
x,-y,1/2+z
1/2+x,1/2+y,z
1/2-x,1/2+y,1/2-z
1/2-x,1/2-y,-z
1/2+x,1/2-y,1/2+z
loop_
_atom_site_type_symbol
_atom_site_label
_atom_site_fract_x
_atom_site_fract_y
_atom_site_fract_z
Si Si1 0.545522 0.664503 0.285221
Si Si2 0.377280 0.857724 0.567775
Si Si3 0.139673 0.491278 0.552693
Si Si4 0.120616 0.760458 0.293062
Si Si5 0.742163 0.498919 0.892018
O O1 0.500000 0.558042 0.250000
O O2 0.427531 0.794980 0.386627
O O3 0.599158 0.496659 0.297133
O O4 0.650253 0.833347 0.197856
O O5 0.310901 0.969767 0.549738
O O6 0.386799 0.624969 0.537428
O O7 0.500000 0.000000 0.500000
O O8 0.336771 0.815310 0.665765
O O9 0.233786 0.443007 0.550631
O O10 0.019762 0.337981 0.629337
O O11 0.225023 0.680311 0.176303
#
# Coordination Sequence:
#
# PCOD9270476 Si02
#       5
#     8   8   8   8   8
#     4   9  18  34  59  85 110 149 198 238 282 347
#     4  10  22  37  56  87 121 154 190 244 295 343
#     4   9  19  38  58  82 116 155 191 242 290 344
#     4  10  20  35  59  86 116 149 194 244 289 345
#     4  10  20  36  60  82 115 157 199 232 288 352
#
# _framework density 27.387899999999998
#
# number of rings (size 3 to 8) (size 9 to 14) (size 15 to 20)
#    0.000    2.400    0.000    3.600    2.800    0.800 
#    0.000    4.000    0.000   14.400    0.000    0.000 
#    0.000    0.000    0.000    0.000    0.000    0.000 
#
# Total GULP energy -111849.871752 kJ/mol
# GULP energy per Si atom -5592.493588 kJ/mol
# Density = 2.732556 g / cm^3
# Si number density = 27.387900 Si / 1000 Ang^3
#
#
#
# Elastic Constant Matrix: (Units=GPa)
#
#
# Indices 1 2 3 4 5 6 
#
# 1 170.3836 50.3342 66.6693 0.0009 42.0395 -0.0026
# 2 50.3342 95.9137 68.4751 0.0020 24.5369 -0.0056
# 3 66.6693 68.4751 108.5989 0.0003 46.3614 -0.0011
# 4 0.0009 0.0020 0.0003 54.0125 0.0001 -3.5052
# 5 42.0395 24.5369 46.3614 0.0001 49.3886 0.0002
# 6 -0.0026 -0.0056 -0.0011 -3.5052 0.0002 49.1903
#
#
#
# Elastic Compliance Matrix: (Units=1/GPa)
#
#
# Indices 1 2 3 4 5 6 
#
# 1 0.008256 -0.001660 -0.002293 0.000000 -0.004051 0.000000
# 2 -0.001660 0.019567 -0.012969 -0.000001 0.003866 0.000002
# 3 -0.002293 -0.012969 0.025380 0.000000 -0.015430 -0.000001
# 4 0.000000 -0.000001 0.000000 0.018600 0.000000 0.001325
# 5 -0.004051 0.003866 -0.015430 0.000000 0.036259 0.000000
# 6 0.000000 0.000002 -0.000001 0.001325 0.000000 0.020424
#
#
# Mechanical properties :
#
#
# Convention : Reuss Voigt Hill
#
# Bulk Modulus (GPa) = 51.65132 82.87259 67.26196
# Shear Modulus (GPa) = 29.62402 43.14610 36.38506
#
# Velocity S-wave (km/s) = 3.29241 3.97340 3.64883
# Velocity P-wave (km/s) = 5.77524 7.16764 6.50878
#
# Compressibility (1/GPa) = 0.01936059
#
# Stress axis : x y z
#
# Youngs Moduli (GPa) = 121.12498 51.10669 39.40099
#
# Poissons Ratio (x) = 0.08481 0.09033
# Poissons Ratio (y) = 0.20101 0.51099
# Poissons Ratio (z) = 0.27770 0.66280
#
# Static dielectric constant tensor:
#      x y z
#    x 2.143190 0.000000 -0.063470 
#    y 0.000000 2.120800 0.000000 
#    z -0.063470 0.000000 2.219230 
# 
# From -- ./inp_files/141827.got.cif
#   From: 2010.05.17/outbox.cif.g08.bks.cpg/sg15_71_cif.got.tgz:141827.got - 2010.06.03 18:47:42.
