data_PCOD9270010
_publ_section_title
;
Structure prediction by ZEFSAII (Michael W. Deem and Ramdas Pophale) SiO2 
 PCOD9270010
Probable space group: C 2/C
;
_chemical_formula_sum "Si O2"
_cell_formula_units_Z 52
_cell_length_a 17.317911
_cell_length_b 18.962945
_cell_length_c 8.708922
_cell_angle_alpha 90.000000
_cell_angle_beta 63.166089
_cell_angle_gamma 90.000000
_cell_volume 2552.029768
_symmetry_space_group_name_H-M "C 2/C"
_symmetry_group_IT_number 15
_symmetry_cell_setting 'monoclinic'
loop_
_space_group_symop_operation_xyz
x,y,z
-x,y,1/2-z
-x,-y,-z
x,-y,1/2+z
1/2+x,1/2+y,z
1/2-x,1/2+y,1/2-z
1/2-x,1/2-y,-z
1/2+x,1/2-y,1/2+z
loop_
_atom_site_type_symbol
_atom_site_label
_atom_site_fract_x
_atom_site_fract_y
_atom_site_fract_z
Si Si1 0.500000 0.683344 0.750000
Si Si2 0.577884 0.303032 0.484814
Si Si3 0.165412 0.262382 0.181094
Si Si4 0.243091 0.634504 0.812173
Si Si5 0.570340 0.453485 0.582136
Si Si6 0.811832 0.020111 0.256351
Si Si7 0.182917 0.847899 0.944301
O O1 0.469580 0.725284 0.624525
O O2 0.411647 0.643515 0.886409
O O3 0.591884 0.255403 0.621881
O O4 0.670782 0.332550 0.343663
O O5 0.533669 0.377162 0.569835
O O6 0.168866 0.337451 0.265169
O O7 0.169642 0.208566 0.321095
O O8 0.250000 0.250000 0.000000
O O9 0.254106 0.550158 0.817917
O O10 0.249060 0.665855 0.979345
O O11 0.500000 0.490273 0.750000
O O12 0.601474 0.494086 0.407094
O O13 0.657198 0.448886 0.609076
O O14 0.782382 0.082961 0.173950
#
# Coordination Sequence:
#
# PCOD9270010 Si02
#       7
#     4   8   8   8   8   8   8
#     4  10  22  34  50  80 110 140 184 226 260 324
#     4   9  19  33  47  69  98 137 184 219 263 304
#     4  10  20  35  54  69  94 146 193 226 263 310
#     4   9  20  34  47  69 101 144 188 221 261 304
#     4  11  20  29  43  67 104 142 184 208 248 306
#     4  11  20  31  46  70 103 143 184 211 258 296
#     4  11  20  34  53  74 111 145 181 220 268 310
#
# _framework density 20.375938000000001
#
# number of rings (size 3 to 8) (size 9 to 14) (size 15 to 20)
#    0.000    1.846    3.077    1.846    1.077    0.000 
#    0.000    0.000    0.000    0.000    0.000    0.000 
#    0.000    0.000    0.000  144.000    0.462    0.077 
#
# Total GULP energy -144773.365873 kJ/mol
# GULP energy per Si atom -5568.206380 kJ/mol
# Density = 2.032956 g / cm^3
# Si number density = 20.375938 Si / 1000 Ang^3
#
#
#
# Elastic Constant Matrix: (Units=GPa)
#
#
# Indices 1 2 3 4 5 6 
#
# 1 66.6691 26.1225 38.6504 0.0000 43.7573 0.0000
# 2 26.1225 67.0351 28.5355 0.0000 25.5401 0.0000
# 3 38.6504 28.5355 111.1196 0.0000 43.1890 0.0000
# 4 0.0000 0.0000 0.0000 23.1946 0.0000 6.0268
# 5 43.7573 25.5401 43.1890 0.0000 55.3837 0.0000
# 6 0.0000 0.0000 0.0000 6.0268 0.0000 16.0841
#
#
#
# Elastic Compliance Matrix: (Units=1/GPa)
#
#
# Indices 1 2 3 4 5 6 
#
# 1 0.031961 -0.003202 -0.001512 0.000000 -0.022596 0.000000
# 2 -0.003202 0.018738 -0.001898 0.000000 -0.004631 0.000000
# 3 -0.001512 -0.001898 0.013213 0.000000 -0.008233 0.000000
# 4 0.000000 0.000000 0.000000 0.047764 0.000000 -0.017897
# 5 -0.022596 -0.004631 -0.008233 0.000000 0.044464 0.000000
# 6 0.000000 0.000000 0.000000 -0.017897 0.000000 0.068879
#
#
# Mechanical properties :
#
#
# Convention : Reuss Voigt Hill
#
# Bulk Modulus (GPa) = 19.72915 47.93785 33.83350
# Shear Modulus (GPa) = 19.59706 29.03349 24.31528
#
# Velocity S-wave (km/s) = 3.10461 3.77887 3.45821
# Velocity P-wave (km/s) = 4.74922 6.52821 5.70844
#
# Compressibility (1/GPa) = 0.05068641
#
# Stress axis : x y z
#
# Youngs Moduli (GPa) = 31.28779 53.36839 75.68369
#
# Poissons Ratio (x) = 0.17089 0.11446
# Poissons Ratio (y) = 0.10019 0.14367
# Poissons Ratio (z) = 0.04732 0.10131
#
# Static dielectric constant tensor:
#      x y z
#    x 1.831640 0.000000 0.011260 
#    y 0.000000 1.783980 0.000000 
#    z 0.011260 0.000000 1.787450 
# 
# From -- ./inp_files/48467.got.cif
#   From: 2010.05.17/outbox.cif.g08.bks.cpg/sg15_25_cif.got.tgz:48467.got - 2010.06.03 18:47:42.
