data_PCOD9270174
_publ_section_title
;
Structure prediction by ZEFSAII (Michael W. Deem and Ramdas Pophale) SiO2 
 PCOD9270174
Probable space group: C 2/C
;
_chemical_formula_sum "Si O2"
_cell_formula_units_Z 40
_cell_length_a 25.769601
_cell_length_b 11.481885
_cell_length_c 8.763406
_cell_angle_alpha 90.000000
_cell_angle_beta 52.122252
_cell_angle_gamma 90.000000
_cell_volume 2046.672504
_symmetry_space_group_name_H-M "C 2/C"
_symmetry_group_IT_number 15
_symmetry_cell_setting 'monoclinic'
loop_
_space_group_symop_operation_xyz
x,y,z
-x,y,1/2-z
-x,-y,-z
x,-y,1/2+z
1/2+x,1/2+y,z
1/2-x,1/2+y,1/2-z
1/2-x,1/2-y,-z
1/2+x,1/2-y,1/2+z
loop_
_atom_site_type_symbol
_atom_site_label
_atom_site_fract_x
_atom_site_fract_y
_atom_site_fract_z
Si Si1 0.798832 0.854125 0.438453
Si Si2 0.423713 0.384863 0.057102
Si Si3 0.815045 0.671353 0.853961
Si Si4 0.424849 0.642213 0.197304
Si Si5 0.268969 0.987379 0.684119
O O1 0.750000 0.750000 0.500000
O O2 0.872301 0.821875 0.261093
O O3 0.781325 0.906683 0.632114
O O4 0.775473 0.950133 0.360296
O O5 0.420338 0.519935 0.115605
O O6 0.496921 0.334611 0.945575
O O7 0.406173 0.376342 0.909780
O O8 0.877095 0.756780 0.722906
O O9 0.801325 0.583199 0.737871
O O10 0.750000 0.750000 0.000000
O O11 0.820183 0.591906 0.997635
#
# Coordination Sequence:
#
# PCOD9270174 Si02
#       5
#     8   8   8   8   8
#     4  11  20  34  56  80 108 141 179 228 272 320
#     4  10  20  35  56  85 111 140 185 227 282 340
#     4  11  21  37  58  83 117 151 185 234 283 329
#     4  10  21  36  57  82 115 145 175 233 288 328
#     4  10  22  34  55  86 112 144 190 224 273 344
#
# _framework density 19.543918000000001
#
# number of rings (size 3 to 8) (size 9 to 14) (size 15 to 20)
#    0.000    1.600    0.000    7.200    0.000    1.600 
#    0.000    0.000    0.000   21.600    0.000    0.000 
#    0.000    0.000    0.000    0.000    0.000    0.000 
#
# Total GULP energy -111697.378132 kJ/mol
# GULP energy per Si atom -5584.868907 kJ/mol
# Density = 1.949943 g / cm^3
# Si number density = 19.543918 Si / 1000 Ang^3
#
#
#
# Elastic Constant Matrix: (Units=GPa)
#
#
# Indices 1 2 3 4 5 6 
#
# 1 46.4371 22.2069 16.9231 0.0000 -4.6296 0.0000
# 2 22.2069 63.4367 19.2660 0.0000 -10.8243 0.0000
# 3 16.9231 19.2660 73.1430 0.0000 -9.9710 0.0000
# 4 0.0000 0.0000 0.0000 26.0430 0.0000 -4.8787
# 5 -4.6296 -10.8243 -9.9710 0.0000 36.4082 0.0000
# 6 0.0000 0.0000 0.0000 -4.8787 0.0000 33.0430
#
#
#
# Elastic Compliance Matrix: (Units=1/GPa)
#
#
# Indices 1 2 3 4 5 6 
#
# 1 0.026938 -0.008211 -0.004088 0.000000 -0.000136 0.000000
# 2 -0.008211 0.020220 -0.002855 0.000000 0.004185 0.000000
# 3 -0.004088 -0.002855 0.015772 0.000000 0.002951 0.000000
# 4 0.000000 0.000000 0.000000 0.039490 0.000000 0.005831
# 5 -0.000136 0.004185 0.002951 0.000000 0.029501 0.000000
# 6 0.000000 0.000000 0.000000 0.005831 0.000000 0.031124
#
#
# Mechanical properties :
#
#
# Convention : Reuss Voigt Hill
#
# Bulk Modulus (GPa) = 30.65673 33.31209 31.98441
# Shear Modulus (GPa) = 24.48233 27.40689 25.94461
#
# Velocity S-wave (km/s) = 3.54317 3.74882 3.64744
# Velocity P-wave (km/s) = 5.69726 5.98498 5.84289
#
# Compressibility (1/GPa) = 0.03261927
#
# Stress axis : x y z
#
# Youngs Moduli (GPa) = 37.12273 49.45689 63.40311
#
# Poissons Ratio (x) = 0.40611 0.25920
# Poissons Ratio (y) = 0.30483 0.18104
# Poissons Ratio (z) = 0.15176 0.14122
#
# Static dielectric constant tensor:
#      x y z
#    x 1.704630 0.000000 0.009670 
#    y 0.000000 2.554190 0.000000 
#    z 0.009670 0.000000 1.746770 
# 
# From -- ./inp_files/46056.got.cif
#   From: 2010.05.17/outbox.cif.g08.bks.cpg/sg15_24_cif.got.tgz:46056.got - 2010.06.03 18:47:42.
