data_PCOD9270343
_publ_section_title
;
Structure prediction by ZEFSAII (Michael W. Deem and Ramdas Pophale) SiO2 
 PCOD9270343
Probable space group: C 2/C
;
_chemical_formula_sum "Si O2"
_cell_formula_units_Z 64
_cell_length_a 21.855425
_cell_length_b 17.609631
_cell_length_c 22.726279
_cell_angle_alpha 90.000000
_cell_angle_beta 154.953752
_cell_angle_gamma 90.000000
_cell_volume 3702.858182
_symmetry_space_group_name_H-M "C 2/C"
_symmetry_group_IT_number 15
_symmetry_cell_setting 'monoclinic'
loop_
_space_group_symop_operation_xyz
x,y,z
-x,y,1/2-z
-x,-y,-z
x,-y,1/2+z
1/2+x,1/2+y,z
1/2-x,1/2+y,1/2-z
1/2-x,1/2-y,-z
1/2+x,1/2-y,1/2+z
loop_
_atom_site_type_symbol
_atom_site_label
_atom_site_fract_x
_atom_site_fract_y
_atom_site_fract_z
Si Si1 0.536361 0.925456 0.717765
Si Si2 0.358249 0.613622 0.747589
Si Si3 0.888213 0.832746 0.862416
Si Si4 0.420464 0.953560 0.346800
Si Si5 0.800647 0.704161 0.986127
Si Si6 0.784560 0.462597 0.840929
Si Si7 0.660829 0.646505 0.044210
Si Si8 0.285861 0.681354 0.813496
O O1 0.500000 0.957312 0.750000
O O2 0.416227 0.861442 0.599573
O O3 0.689193 0.882197 0.850654
O O4 0.549074 0.991510 0.681063
O O5 0.325507 0.664405 0.662005
O O6 0.269780 0.535393 0.669923
O O7 0.311602 0.656826 0.767339
O O8 0.527265 0.598074 0.903743
O O9 0.843457 0.904000 0.783337
O O10 0.834873 0.853617 0.881822
O O11 0.799459 0.760162 0.762808
O O12 0.058302 0.816446 0.019162
O O13 0.575195 0.926227 0.506447
O O14 0.313710 0.883399 0.244164
O O15 0.344253 0.003972 0.331252
O O16 0.868240 0.767805 0.002443
O O17 0.750000 0.750000 0.000000
#
# Coordination Sequence:
#
# PCOD9270343 Si02
#       8
#     8   8   8   8   8   8   8   8
#     4  12  24  39  56  81 112 163 205 240 281 339
#     4  10  22  36  53  82 115 160 193 242 292 342
#     4  11  21  35  57  87 117 149 186 238 301 358
#     4  10  21  37  56  80 116 153 193 242 295 347
#     4  12  23  39  53  78 116 162 208 237 272 334
#     4  10  20  35  58  82 116 153 193 240 299 354
#     4  11  23  33  54  77 120 152 198 241 282 342
#     4  10  22  34  57  85 117 150 191 237 302 361
#
# _framework density 17.283946
#
# number of rings (size 3 to 8) (size 9 to 14) (size 15 to 20)
#    0.000    1.250    5.000    1.500    3.500    1.500 
#    0.000    0.000    0.000    0.000    0.000    3.500 
#    0.000    0.000    0.000    0.000    0.000    0.000 
#
# Total GULP energy -178619.394501 kJ/mol
# GULP energy per Si atom -5581.856078 kJ/mol
# Density = 1.724461 g / cm^3
# Si number density = 17.283946 Si / 1000 Ang^3
#
#
#
# Elastic Constant Matrix: (Units=GPa)
#
#
# Indices 1 2 3 4 5 6 
#
# 1 61.1536 31.7730 28.7489 -0.0033 -6.2166 -0.0006
# 2 31.7730 68.5551 55.1595 -0.0180 -0.8080 -0.0061
# 3 28.7489 55.1595 111.1100 -0.0073 9.1430 -0.0042
# 4 -0.0033 -0.0180 -0.0073 32.8428 -0.0023 -0.0918
# 5 -6.2166 -0.8080 9.1430 -0.0023 15.3916 0.0000
# 6 -0.0006 -0.0061 -0.0042 -0.0918 0.0000 31.6869
#
#
#
# Elastic Compliance Matrix: (Units=1/GPa)
#
#
# Indices 1 2 3 4 5 6 
#
# 1 0.023030 -0.008436 -0.002628 -0.000002 0.010420 -0.000002
# 2 -0.008436 0.028588 -0.012462 0.000012 0.005496 0.000004
# 3 -0.002628 -0.012462 0.016831 -0.000004 -0.011713 0.000000
# 4 -0.000002 0.000012 -0.000004 0.030448 0.000007 0.000088
# 5 0.010420 0.005496 -0.011713 0.000007 0.076426 0.000000
# 6 -0.000002 0.000004 0.000000 0.000088 0.000000 0.031559
#
#
# Mechanical properties :
#
#
# Convention : Reuss Voigt Hill
#
# Bulk Modulus (GPa) = 46.73673 52.46463 49.60068
# Shear Modulus (GPa) = 19.15215 24.32674 21.73945
#
# Velocity S-wave (km/s) = 3.33241 3.75570 3.55037
# Velocity P-wave (km/s) = 6.47347 7.01623 6.75031
#
# Compressibility (1/GPa) = 0.02139645
#
# Stress axis : x y z
#
# Youngs Moduli (GPa) = 43.42104 34.97929 59.41567
#
# Poissons Ratio (x) = 0.29509 0.15616
# Poissons Ratio (y) = 0.36631 0.74043
# Poissons Ratio (z) = 0.11412 0.43591
#
# Static dielectric constant tensor:
#      x y z
#    x 1.574480 0.000000 -0.000730 
#    y 0.000000 1.579190 0.000000 
#    z -0.000730 0.000000 1.618940 
# 
# From -- ./inp_files/282247.got.cif
#   From: 2010.05.17/outbox.cif.g08.bks.cpg/sg15_142_cif.got.tgz:282247.got - 2010.06.03 18:47:42.
