data_PCOD9270214
_publ_section_title
;
Structure prediction by ZEFSAII (Michael W. Deem and Ramdas Pophale) SiO2 
 PCOD9270214
Probable space group: C 2/C
;
_chemical_formula_sum "Si O2"
_cell_formula_units_Z 64
_cell_length_a 29.396431
_cell_length_b 8.883802
_cell_length_c 16.832109
_cell_angle_alpha 90.000000
_cell_angle_beta 128.025629
_cell_angle_gamma 90.000000
_cell_volume 3462.679611
_symmetry_space_group_name_H-M "C 2/C"
_symmetry_group_IT_number 15
_symmetry_cell_setting 'monoclinic'
loop_
_space_group_symop_operation_xyz
x,y,z
-x,y,1/2-z
-x,-y,-z
x,-y,1/2+z
1/2+x,1/2+y,z
1/2-x,1/2+y,1/2-z
1/2-x,1/2-y,-z
1/2+x,1/2-y,1/2+z
loop_
_atom_site_type_symbol
_atom_site_label
_atom_site_fract_x
_atom_site_fract_y
_atom_site_fract_z
Si Si1 0.724645 0.290503 0.359223
Si Si2 0.148122 0.953467 0.827340
Si Si3 0.135422 0.454968 0.822565
Si Si4 0.810479 0.716549 0.518958
Si Si5 0.067358 0.183100 0.809613
Si Si6 0.713737 0.360504 0.164591
Si Si7 0.652963 0.672376 0.047400
Si Si8 0.651096 0.179820 0.708498
O O1 0.704863 0.442552 0.381234
O O2 0.687572 0.156159 0.355577
O O3 0.706580 0.311812 0.247637
O O4 0.791973 0.254059 0.433700
O O5 0.150666 0.855810 0.909662
O O6 0.148680 0.833739 0.757015
O O7 0.094394 0.066041 0.775025
O O8 0.159826 0.568585 0.915105
O O9 0.084242 0.349874 0.798241
O O10 0.119735 0.554674 0.728161
O O11 0.750000 0.750000 0.500000
O O12 0.803218 0.732292 0.417287
O O13 0.000000 0.163529 0.750000
O O14 0.103244 0.156048 0.929281
O O15 0.679576 0.514466 0.108647
O O16 0.782563 0.377625 0.225690
O O17 0.633282 0.774299 0.100830
#
# Coordination Sequence:
#
# PCOD9270214 Si02
#       8
#     8   8   8   8   8   8   8   8
#     4  10  21  32  55  90 121 155 176 227 304 367
#     4  10  20  35  59  82 120 149 191 235 295 350
#     4  10  22  38  57  85 122 153 190 240 300 349
#     4  11  19  32  56  91 123 146 182 229 294 364
#     4  11  26  43  59  79 113 159 216 255 280 327
#     4  11  19  32  56  93 133 145 181 228 293 377
#     4  11  21  35  60  89 123 156 190 231 296 354
#     4  10  20  35  56  93 123 149 180 230 301 365
#
# _framework density 18.482796
#
# number of rings (size 3 to 8) (size 9 to 14) (size 15 to 20)
#    0.000    1.500    6.250    0.000    1.750    2.000 
#    0.000    3.750    0.000    0.000    0.000    0.000 
#    0.000    0.000    0.000    0.000    0.000    0.000 
#
# Total GULP energy -178697.911131 kJ/mol
# GULP energy per Si atom -5584.309723 kJ/mol
# Density = 1.844073 g / cm^3
# Si number density = 18.482796 Si / 1000 Ang^3
#
#
#
# Elastic Constant Matrix: (Units=GPa)
#
#
# Indices 1 2 3 4 5 6 
#
# 1 57.1454 27.7598 47.5944 0.0000 0.5306 0.0000
# 2 27.7598 99.1004 34.0411 0.0000 -0.8882 0.0000
# 3 47.5944 34.0411 74.6528 0.0000 -3.9718 0.0000
# 4 0.0000 0.0000 0.0000 16.2601 0.0000 -5.0787
# 5 0.5306 -0.8882 -3.9718 0.0000 32.0362 0.0000
# 6 0.0000 0.0000 0.0000 -5.0787 0.0000 18.0329
#
#
#
# Elastic Compliance Matrix: (Units=1/GPa)
#
#
# Indices 1 2 3 4 5 6 
#
# 1 0.038342 -0.002739 -0.023388 0.000000 -0.003611 0.000000
# 2 -0.002739 0.012164 -0.003805 0.000000 -0.000089 0.000000
# 3 -0.023388 -0.003805 0.030256 0.000000 0.004033 0.000000
# 4 0.000000 0.000000 0.000000 0.067432 0.000000 0.018991
# 5 -0.003611 -0.000089 0.004033 0.000000 0.031772 0.000000
# 6 0.000000 0.000000 0.000000 0.018991 0.000000 0.060803
#
#
# Mechanical properties :
#
#
# Convention : Reuss Voigt Hill
#
# Bulk Modulus (GPa) = 47.85160 49.96549 48.90854
# Shear Modulus (GPa) = 16.25486 21.36606 18.81046
#
# Velocity S-wave (km/s) = 2.96878 3.40368 3.19365
# Velocity P-wave (km/s) = 6.13984 6.52219 6.33390
#
# Compressibility (1/GPa) = 0.02089794
#
# Stress axis : x y z
#
# Youngs Moduli (GPa) = 26.08085 82.20734 33.05125
#
# Poissons Ratio (x) = 0.22516 0.77300
# Poissons Ratio (y) = 0.07143 0.12577
# Poissons Ratio (z) = 0.60998 0.31283
#
# Static dielectric constant tensor:
#      x y z
#    x 1.635290 0.000000 -0.047600 
#    y 0.000000 1.683310 0.000000 
#    z -0.047600 0.000000 1.646340 
# 
# From -- ./inp_files/224642.got.cif
#   From: 2010.05.17/outbox.cif.g08.bks.cpg/sg15_113_cif.got.tgz:224642.got - 2010.06.03 18:47:42.
