data_PCOD9270607
_publ_section_title
;
Structure prediction by ZEFSAII (Michael W. Deem and Ramdas Pophale) SiO2 
 PCOD9270607
Probable space group: C 2/C
;
_chemical_formula_sum "Si O2"
_cell_formula_units_Z 52
_cell_length_a 8.289013
_cell_length_b 27.501682
_cell_length_c 11.393719
_cell_angle_alpha 90.000000
_cell_angle_beta 115.368432
_cell_angle_gamma 90.000000
_cell_volume 2346.875752
_symmetry_space_group_name_H-M "C 2/C"
_symmetry_group_IT_number 15
_symmetry_cell_setting 'monoclinic'
loop_
_space_group_symop_operation_xyz
x,y,z
-x,y,1/2-z
-x,-y,-z
x,-y,1/2+z
1/2+x,1/2+y,z
1/2-x,1/2+y,1/2-z
1/2-x,1/2-y,-z
1/2+x,1/2-y,1/2+z
loop_
_atom_site_type_symbol
_atom_site_label
_atom_site_fract_x
_atom_site_fract_y
_atom_site_fract_z
Si Si1 0.003138 0.903481 0.064397
Si Si2 0.276970 0.570742 0.098276
Si Si3 0.000000 0.982844 0.250000
Si Si4 0.788720 0.619783 0.177529
Si Si5 0.942312 0.349946 0.045828
Si Si6 0.767269 0.821269 0.281270
Si Si7 0.288736 0.709228 0.219556
O O1 0.061567 0.947627 0.164925
O O2 0.058834 0.853642 0.144254
O O3 0.797116 0.903824 0.963465
O O4 0.100371 0.909364 0.969029
O O5 0.343067 0.516568 0.147085
O O6 0.292861 0.595435 0.230738
O O7 0.088666 0.593152 0.994823
O O8 0.732091 0.676053 0.171570
O O9 0.000000 0.615071 0.250000
O O10 0.844596 0.335524 0.136349
O O11 0.146852 0.337066 0.133162
O O12 0.837371 0.317784 0.915922
O O13 0.782099 0.763469 0.285699
O O14 0.500000 0.710539 0.250000
#
# Coordination Sequence:
#
# PCOD9270607 Si02
#       7
#     8   8   4   8   8   8   8
#     4  11  24  44  71  98 137 175 230 284 336 412
#     4  10  21  43  74  93 128 177 227 280 340 407
#     4  12  24  42  76 102 124 178 232 286 354 394
#     4  11  24  43  66 101 141 180 223 282 339 401
#     4   9  19  33  59  99 133 159 229 278 315 395
#     4  10  20  35  60  98 135 174 219 276 329 391
#     4  11  20  35  67  98 129 181 229 265 331 400
#
# _framework density 22.157115000000001
#
# number of rings (size 3 to 8) (size 9 to 14) (size 15 to 20)
#    0.000    1.538    3.077    3.692    3.231    2.462 
#    1.385    3.846    0.000    0.000    0.000    0.000 
#    0.000    0.000    0.000    0.000    0.000    0.000 
#
# Total GULP energy -144980.494218 kJ/mol
# GULP energy per Si atom -5576.172855 kJ/mol
# Density = 2.210668 g / cm^3
# Si number density = 22.157115 Si / 1000 Ang^3
#
#
#
# Elastic Constant Matrix: (Units=GPa)
#
#
# Indices 1 2 3 4 5 6 
#
# 1 76.4525 21.9108 33.2373 0.0000 3.5716 0.0000
# 2 21.9108 87.7456 30.6527 0.0000 10.3629 0.0000
# 3 33.2373 30.6527 102.1233 0.0000 18.4391 0.0000
# 4 0.0000 0.0000 0.0000 60.2470 0.0000 15.7844
# 5 3.5716 10.3629 18.4391 0.0000 39.8692 0.0000
# 6 0.0000 0.0000 0.0000 15.7844 0.0000 20.2621
#
#
#
# Elastic Compliance Matrix: (Units=1/GPa)
#
#
# Indices 1 2 3 4 5 6 
#
# 1 0.015737 -0.002476 -0.004627 0.000000 0.001374 0.000000
# 2 -0.002476 0.013225 -0.002819 0.000000 -0.001912 0.000000
# 3 -0.004627 -0.002819 0.013024 0.000000 -0.004877 0.000000
# 4 0.000000 0.000000 0.000000 0.020855 0.000000 -0.016246
# 5 0.001374 -0.001912 -0.004877 0.000000 0.027711 0.000000
# 6 0.000000 0.000000 0.000000 -0.016246 0.000000 0.062009
#
#
# Mechanical properties :
#
#
# Convention : Reuss Voigt Hill
#
# Bulk Modulus (GPa) = 45.15757 48.65809 46.90783
# Shear Modulus (GPa) = 27.81103 36.11037 31.96070
#
# Velocity S-wave (km/s) = 3.54669 4.04139 3.80209
# Velocity P-wave (km/s) = 6.09892 6.61704 6.36326
#
# Compressibility (1/GPa) = 0.02214468
#
# Stress axis : x y z
#
# Youngs Moduli (GPa) = 63.54550 75.61301 76.77877
#
# Poissons Ratio (x) = 0.18718 0.35523
# Poissons Ratio (y) = 0.15731 0.21641
# Poissons Ratio (z) = 0.29400 0.21313
#
# Static dielectric constant tensor:
#      x y z
#    x 1.883760 0.000000 0.015410 
#    y 0.000000 1.817180 0.000000 
#    z 0.015410 0.000000 1.838200 
# 
# From -- ./inp_files/81501.got.cif
#   From: 2010.05.17/outbox.cif.g08.bks.cpg/sg15_41_cif.got.tgz:81501.got - 2010.06.03 18:47:42.
