data_PCOD9270045
_publ_section_title
;
Structure prediction by ZEFSAII (Michael W. Deem and Ramdas Pophale) SiO2 
 PCOD9270045
Probable space group: C 2/C
;
_chemical_formula_sum "Si O2"
_cell_formula_units_Z 56
_cell_length_a 14.497938
_cell_length_b 8.967029
_cell_length_c 17.589157
_cell_angle_alpha 90.000000
_cell_angle_beta 88.747957
_cell_angle_gamma 90.000000
_cell_volume 2286.104808
_symmetry_space_group_name_H-M "C 2/C"
_symmetry_group_IT_number 15
_symmetry_cell_setting 'monoclinic'
loop_
_space_group_symop_operation_xyz
x,y,z
-x,y,1/2-z
-x,-y,-z
x,-y,1/2+z
1/2+x,1/2+y,z
1/2-x,1/2+y,1/2-z
1/2-x,1/2-y,-z
1/2+x,1/2-y,1/2+z
loop_
_atom_site_type_symbol
_atom_site_label
_atom_site_fract_x
_atom_site_fract_y
_atom_site_fract_z
Si Si1 0.073312 0.724645 0.045207
Si Si2 0.301839 0.708522 0.403708
Si Si3 0.850100 0.151036 0.245947
Si Si4 0.412619 0.761129 0.637484
Si Si5 0.586118 0.421228 0.904290
Si Si6 0.841303 0.804132 0.293014
Si Si7 0.732480 0.994960 0.517569
O O1 0.122378 0.783988 0.122251
O O2 0.152906 0.623293 0.005053
O O3 0.983465 0.645995 0.084530
O O4 0.044900 0.836848 0.977419
O O5 0.365194 0.716137 0.329222
O O6 0.193955 0.715951 0.381770
O O7 0.316490 0.854397 0.453081
O O8 0.301487 0.555718 0.450896
O O9 0.922229 0.160600 0.176412
O O10 0.757861 0.229957 0.217127
O O11 0.834945 0.975899 0.265819
O O12 0.441091 0.591919 0.612733
O O13 0.407765 0.771534 0.728478
O O14 0.695683 0.435052 0.921547
#
# Coordination Sequence:
#
# PCOD9270045 Si02
#       7
#     8   8   8   8   8   8   8
#     4  12  21  33  58  86 115 148 197 240 285 360
#     4   9  20  38  57  78 118 152 189 243 299 338
#     4  10  20  35  58  84 111 148 191 245 289 339
#     4   9  21  38  53  80 117 159 182 233 301 360
#     4  10  20  35  54  85 111 141 198 244 289 337
#     4  10  21  36  59  85 115 151 193 240 293 341
#     4  10  20  35  56  85 110 146 199 245 286 341
#
# _framework density 24.495816000000001
#
# number of rings (size 3 to 8) (size 9 to 14) (size 15 to 20)
#    0.000    2.000    1.429    3.000    2.000    0.571 
#    0.000    0.000    0.000    0.000    0.000    0.000 
#    0.000    0.000    0.000    0.000    0.000    0.000 
#
# Total GULP energy -156258.143243 kJ/mol
# GULP energy per Si atom -5580.647973 kJ/mol
# Density = 2.444006 g / cm^3
# Si number density = 24.495816 Si / 1000 Ang^3
#
#
#
# Elastic Constant Matrix: (Units=GPa)
#
#
# Indices 1 2 3 4 5 6 
#
# 1 52.8473 10.6652 -5.2052 0.0000 -6.5801 0.0000
# 2 10.6652 27.0460 27.6722 0.0000 2.4647 0.0000
# 3 -5.2052 27.6722 196.3001 0.0000 -7.7154 0.0000
# 4 0.0000 0.0000 0.0000 26.7025 0.0000 5.6823
# 5 -6.5801 2.4647 -7.7154 0.0000 28.7105 0.0000
# 6 0.0000 0.0000 0.0000 5.6823 0.0000 8.2200
#
#
#
# Elastic Compliance Matrix: (Units=1/GPa)
#
#
# Indices 1 2 3 4 5 6 
#
# 1 0.022481 -0.012129 0.002577 0.000000 0.006886 0.000000
# 2 -0.012129 0.050595 -0.007816 0.000000 -0.009224 0.000000
# 3 0.002577 -0.007816 0.006381 0.000000 0.002976 0.000000
# 4 0.000000 0.000000 0.000000 0.043909 0.000000 -0.030353
# 5 0.006886 -0.009224 0.002976 0.000000 0.038000 0.000000
# 6 0.000000 0.000000 0.000000 -0.030353 0.000000 0.142637
#
#
# Mechanical properties :
#
#
# Convention : Reuss Voigt Hill
#
# Bulk Modulus (GPa) = 22.36138 38.05087 30.20612
# Shear Modulus (GPa) = 14.13835 28.93068 21.53452
#
# Velocity S-wave (km/s) = 2.40505 3.44036 2.96820
# Velocity P-wave (km/s) = 4.10619 5.59900 4.90967
#
# Compressibility (1/GPa) = 0.04471997
#
# Stress axis : x y z
#
# Youngs Moduli (GPa) = 44.48121 19.76486 156.70493
#
# Poissons Ratio (x) = 0.23973 -0.40376
# Poissons Ratio (y) = 0.53951 1.22487
# Poissons Ratio (z) = -0.11461 0.15449
#
# Static dielectric constant tensor:
#      x y z
#    x 1.940890 0.000000 -0.001780 
#    y 0.000000 1.969170 0.000000 
#    z -0.001780 0.000000 2.021800 
# 
# From -- ./inp_files/209529.got.cif
#   From: 2010.05.17/outbox.cif.g08.bks.cpg/sg15_105_cif.got.tgz:209529.got - 2010.06.03 18:47:42.
