data_PCOD9270134
_publ_section_title
;
Structure prediction by ZEFSAII (Michael W. Deem and Ramdas Pophale) SiO2 
 PCOD9270134
Probable space group: C 2/C
;
_chemical_formula_sum "Si O2"
_cell_formula_units_Z 36
_cell_length_a 8.363589
_cell_length_b 6.755821
_cell_length_c 27.983946
_cell_angle_alpha 90.000000
_cell_angle_beta 54.365722
_cell_angle_gamma 90.000000
_cell_volume 1285.103203
_symmetry_space_group_name_H-M "C 2/C"
_symmetry_group_IT_number 15
_symmetry_cell_setting 'monoclinic'
loop_
_space_group_symop_operation_xyz
x,y,z
-x,y,1/2-z
-x,-y,-z
x,-y,1/2+z
1/2+x,1/2+y,z
1/2-x,1/2+y,1/2-z
1/2-x,1/2-y,-z
1/2+x,1/2-y,1/2+z
loop_
_atom_site_type_symbol
_atom_site_label
_atom_site_fract_x
_atom_site_fract_y
_atom_site_fract_z
Si Si1 0.909477 0.472843 0.590160
Si Si2 0.025265 0.094639 0.197703
Si Si3 0.500000 0.039836 0.750000
Si Si4 0.850076 0.918070 0.631509
Si Si5 0.715860 0.480826 0.519059
O O1 0.750803 0.345030 0.646851
O O2 0.900145 0.685931 0.617146
O O3 0.816145 0.501424 0.553704
O O4 0.137215 0.409572 0.543727
O O5 0.000000 0.970610 0.250000
O O6 0.898864 0.290059 0.233591
O O7 0.950360 0.004467 0.162502
O O8 0.625202 0.932472 0.687288
O O9 0.979936 0.010727 0.565313
O O10 0.750000 0.250000 0.500000
#
# Coordination Sequence:
#
# PCOD9270134 Si02
#       5
#     8   8   4   8   8
#     4   9  17  33  60  81 106 150 187 224 286 334
#     4   9  22  35  52  80 112 144 187 231 279 329
#     4  10  24  34  50  82 116 142 184 228 270 330
#     4  10  20  35  56  79 111 147 184 231 280 335
#     4   8  16  33  57  86 110 139 188 236 275 331
#
# _framework density 28.013311999999999
#
# number of rings (size 3 to 8) (size 9 to 14) (size 15 to 20)
#    0.667    2.222    0.000    0.000    4.667    1.778 
#    0.000    1.111    0.000   45.333    0.000    0.000 
#    0.000    0.000    0.000    0.000    0.000    0.000 
#
# Total GULP energy -100213.122453 kJ/mol
# GULP energy per Si atom -5567.395692 kJ/mol
# Density = 2.794955 g / cm^3
# Si number density = 28.013312 Si / 1000 Ang^3
#
#
#
# Elastic Constant Matrix: (Units=GPa)
#
#
# Indices 1 2 3 4 5 6 
#
# 1 62.5634 7.4209 25.0176 0.0000 -0.7094 0.0000
# 2 7.4209 60.5563 59.0504 0.0000 -14.7926 0.0000
# 3 25.0176 59.0504 234.3158 0.0000 -45.5324 0.0000
# 4 0.0000 0.0000 0.0000 62.8092 0.0000 -6.1766
# 5 -0.7094 -14.7926 -45.5324 0.0000 50.1770 0.0000
# 6 0.0000 0.0000 0.0000 -6.1766 0.0000 20.8834
#
#
#
# Elastic Compliance Matrix: (Units=1/GPa)
#
#
# Indices 1 2 3 4 5 6 
#
# 1 0.016827 -0.000537 -0.001998 0.000000 -0.001734 0.000000
# 2 -0.000537 0.022039 -0.005143 0.000000 0.001823 0.000000
# 3 -0.001998 -0.005143 0.006650 0.000000 0.004490 0.000000
# 4 0.000000 0.000000 0.000000 0.016398 0.000000 0.004850
# 5 -0.001734 0.001823 0.004490 0.000000 0.024517 0.000000
# 6 0.000000 0.000000 0.000000 0.004850 0.000000 0.049319
#
#
# Mechanical properties :
#
#
# Convention : Reuss Voigt Hill
#
# Bulk Modulus (GPa) = 33.15624 60.04592 46.60108
# Shear Modulus (GPa) = 31.02531 44.50369 37.76450
#
# Velocity S-wave (km/s) = 3.33155 3.99013 3.67562
# Velocity P-wave (km/s) = 5.16339 6.53525 5.88940
#
# Compressibility (1/GPa) = 0.03016023
#
# Stress axis : x y z
#
# Youngs Moduli (GPa) = 59.42893 45.37319 150.38718
#
# Poissons Ratio (x) = 0.02437 0.30049
# Poissons Ratio (y) = 0.03192 0.77337
# Poissons Ratio (z) = 0.11874 0.23333
#
# Static dielectric constant tensor:
#      x y z
#    x 2.351360 0.000000 -0.145330 
#    y 0.000000 2.328200 0.000000 
#    z -0.145330 0.000000 2.361470 
# 
# From -- ./inp_files/235469.got.cif
#   From: 2010.05.17/outbox.cif.g08.bks.cpg/sg15_118_cif.got.tgz:235469.got - 2010.06.03 18:47:42.
