data_PCOD9270643
_publ_section_title
;
Structure prediction by ZEFSAII (Michael W. Deem and Ramdas Pophale) SiO2 
 PCOD9270643
Probable space group: C 2/C
;
_chemical_formula_sum "Si O2"
_cell_formula_units_Z 56
_cell_length_a 16.798148
_cell_length_b 9.716973
_cell_length_c 26.419941
_cell_angle_alpha 90.000000
_cell_angle_beta 41.232523
_cell_angle_gamma 90.000000
_cell_volume 2842.407846
_symmetry_space_group_name_H-M "C 2/C"
_symmetry_group_IT_number 15
_symmetry_cell_setting 'monoclinic'
loop_
_space_group_symop_operation_xyz
x,y,z
-x,y,1/2-z
-x,-y,-z
x,-y,1/2+z
1/2+x,1/2+y,z
1/2-x,1/2+y,1/2-z
1/2-x,1/2-y,-z
1/2+x,1/2-y,1/2+z
loop_
_atom_site_type_symbol
_atom_site_label
_atom_site_fract_x
_atom_site_fract_y
_atom_site_fract_z
Si Si1 0.039255 0.709126 0.021096
Si Si2 0.676228 0.614828 0.832463
Si Si3 0.943767 0.298420 0.198319
Si Si4 0.500000 0.033580 0.250000
Si Si5 0.712418 0.571584 0.702567
Si Si6 0.000000 0.074042 0.250000
Si Si7 0.012939 0.574335 0.927684
Si Si8 0.747741 0.355637 0.865926
O O1 0.940084 0.797918 0.097246
O O2 0.066090 0.564006 0.035995
O O3 0.989807 0.660830 0.989425
O O4 0.156591 0.798440 0.951477
O O5 0.797617 0.709368 0.771751
O O6 0.664119 0.550542 0.782268
O O7 0.697750 0.492493 0.862555
O O8 0.969652 0.436650 0.217398
O O9 0.987730 0.328309 0.120763
O O10 0.007835 0.175366 0.197708
O O11 0.618100 0.116861 0.178837
O O12 0.618765 0.514730 0.706059
O O13 0.849001 0.516471 0.634024
O O14 0.733696 0.733896 0.683481
#
# Coordination Sequence:
#
# PCOD9270643 Si02
#       8
#     8   8   8   4   8   4   8   8
#     4  10  20  35  61  90 121 152 203 258 298 356
#     4  10  21  35  64  90 119 160 208 253 299 365
#     4   9  20  37  63  86 116 161 204 248 298 369
#     4   9  19  36  60  80 119 153 202 242 302 365
#     4  10  22  34  61  88 118 157 204 257 294 363
#     4  11  21  36  60  94 119 149 208 260 302 353
#     4   9  20  38  61  87 120 158 204 248 309 352
#     4  10  21  38  57  87 119 160 198 253 308 362
#
# _framework density 19.701606000000002
#
# number of rings (size 3 to 8) (size 9 to 14) (size 15 to 20)
#    0.000    2.286    0.000    1.714   12.000    0.000 
#    0.000    0.714    9.429   15.429    0.000    0.000 
#    0.000    0.000    0.000    0.000    0.000    0.000 
#
# Total GULP energy -156171.024905 kJ/mol
# GULP energy per Si atom -5577.536604 kJ/mol
# Density = 1.965676 g / cm^3
# Si number density = 19.701606 Si / 1000 Ang^3
#
#
#
# Elastic Constant Matrix: (Units=GPa)
#
#
# Indices 1 2 3 4 5 6 
#
# 1 68.0134 7.8747 24.3688 0.0000 -1.8511 0.0000
# 2 7.8747 51.5984 19.4877 0.0000 -5.5270 0.0001
# 3 24.3688 19.4877 97.4732 0.0000 5.5327 0.0000
# 4 0.0000 0.0000 0.0000 26.5274 0.0000 -3.3948
# 5 -1.8511 -5.5270 5.5327 0.0000 23.3435 0.0000
# 6 0.0000 0.0001 0.0000 -3.3948 0.0000 18.0838
#
#
#
# Elastic Compliance Matrix: (Units=1/GPa)
#
#
# Indices 1 2 3 4 5 6 
#
# 1 0.016294 -0.000737 -0.004044 0.000000 0.002076 0.000000
# 2 -0.000737 0.021871 -0.004540 0.000000 0.006196 0.000000
# 3 -0.004044 -0.004540 0.012424 0.000000 -0.004340 0.000000
# 4 0.000000 0.000000 0.000000 0.038625 0.000000 0.007251
# 5 0.002076 0.006196 -0.004340 0.000000 0.045499 0.000000
# 6 0.000000 0.000000 0.000000 0.007251 0.000000 0.056659
#
#
# Mechanical properties :
#
#
# Convention : Reuss Voigt Hill
#
# Bulk Modulus (GPa) = 31.30167 35.61636 33.45902
# Shear Modulus (GPa) = 22.65894 24.61455 23.63674
#
# Velocity S-wave (km/s) = 3.39500 3.53847 3.46748
# Velocity P-wave (km/s) = 5.59378 5.90013 5.74900
#
# Compressibility (1/GPa) = 0.03194718
#
# Stress axis : x y z
#
# Youngs Moduli (GPa) = 61.37317 45.72189 80.48719
#
# Poissons Ratio (x) = 0.03369 0.32549
# Poissons Ratio (y) = 0.04523 0.36543
# Poissons Ratio (z) = 0.24819 0.20759
#
# Static dielectric constant tensor:
#      x y z
#    x 1.733530 0.000000 -0.009190 
#    y 0.000000 1.734430 0.000000 
#    z -0.009190 0.000000 1.683660 
# 
# From -- ./inp_files/298530.got.cif
#   From: 2010.05.17/outbox.cif.g08.bks.cpg/sg15_150_cif.got.tgz:298530.got - 2010.06.03 18:47:42.
