data_PCOD9270267
_publ_section_title
;
Structure prediction by ZEFSAII (Michael W. Deem and Ramdas Pophale) SiO2 
 PCOD9270267
Probable space group: C 2/C
;
_chemical_formula_sum "Si O2"
_cell_formula_units_Z 48
_cell_length_a 9.409612
_cell_length_b 14.534051
_cell_length_c 32.596976
_cell_angle_alpha 90.000000
_cell_angle_beta 153.795008
_cell_angle_gamma 90.000000
_cell_volume 1968.561846
_symmetry_space_group_name_H-M "C 2/C"
_symmetry_group_IT_number 15
_symmetry_cell_setting 'monoclinic'
loop_
_space_group_symop_operation_xyz
x,y,z
-x,y,1/2-z
-x,-y,-z
x,-y,1/2+z
1/2+x,1/2+y,z
1/2-x,1/2+y,1/2-z
1/2-x,1/2-y,-z
1/2+x,1/2-y,1/2+z
loop_
_atom_site_type_symbol
_atom_site_label
_atom_site_fract_x
_atom_site_fract_y
_atom_site_fract_z
Si Si1 0.223968 0.953800 0.847489
Si Si2 0.388076 0.757793 0.099385
Si Si3 0.401669 0.944703 0.769919
Si Si4 0.181869 0.901747 0.546949
Si Si5 0.315789 0.834307 0.243081
Si Si6 0.404981 0.853533 0.429614
O O1 0.384234 0.042102 0.909483
O O2 0.000000 0.980540 0.750000
O O3 0.523373 0.895356 0.908806
O O4 0.955792 0.917188 0.808863
O O5 0.598257 0.776749 0.194111
O O6 0.565921 0.795308 0.104782
O O7 0.082127 0.825048 0.027252
O O8 0.206715 0.666496 0.036703
O O9 0.500000 0.918149 0.750000
O O10 0.648322 0.899740 0.865094
O O11 0.407792 0.057318 0.774419
O O12 0.000000 0.000000 0.500000
O O13 0.500000 0.802230 0.250000
O O14 0.934486 0.831757 0.137168
#
# Coordination Sequence:
#
# PCOD9270267 Si02
#       6
#     8   8   8   8   8   8
#     4   9  17  34  60  81 113 159 201 239 302 370
#     4  11  21  35  59  88 115 151 202 251 302 357
#     4   9  18  34  55  80 110 150 199 241 299 363
#     4  11  18  33  57  83 113 149 195 253 296 359
#     4  10  20  37  58  79 112 156 195 242 298 365
#     4  10  20  35  57  85 113 149 197 242 295 364
#
# _framework density 24.383282999999999
#
# number of rings (size 3 to 8) (size 9 to 14) (size 15 to 20)
#    0.000    2.000    3.333    2.500    0.000    0.667 
#    0.000    9.167    0.000    0.000    0.000    0.000 
#    0.000    0.000    0.000    0.000    0.000    0.000 
#
# Total GULP energy -134385.934963 kJ/mol
# GULP energy per Si atom -5599.413957 kJ/mol
# Density = 2.432779 g / cm^3
# Si number density = 24.383283 Si / 1000 Ang^3
#
#
#
# Elastic Constant Matrix: (Units=GPa)
#
#
# Indices 1 2 3 4 5 6 
#
# 1 166.0081 -15.8508 28.2442 -0.0010 9.2221 0.0023
# 2 -15.8508 41.1241 -3.5079 -0.0036 -1.8903 0.0025
# 3 28.2442 -3.5079 56.3141 -0.0051 -5.9409 0.0067
# 4 -0.0010 -0.0036 -0.0051 31.1435 -0.0015 -1.1103
# 5 9.2221 -1.8903 -5.9409 -0.0015 41.5887 0.0045
# 6 0.0023 0.0025 0.0067 -1.1103 0.0045 7.8298
#
#
#
# Elastic Compliance Matrix: (Units=1/GPa)
#
#
# Indices 1 2 3 4 5 6 
#
# 1 0.006954 0.002288 -0.003551 0.000000 -0.001945 0.000001
# 2 0.002288 0.025274 0.000502 0.000003 0.000713 -0.000009
# 3 -0.003551 0.000502 0.019956 0.000003 0.003661 -0.000018
# 4 0.000000 0.000003 0.000003 0.032273 0.000001 0.004576
# 5 -0.001945 0.000713 0.003661 0.000001 0.025032 -0.000017
# 6 0.000001 -0.000009 -0.000018 0.004576 -0.000017 0.128366
#
#
# Mechanical properties :
#
#
# Convention : Reuss Voigt Hill
#
# Bulk Modulus (GPa) = 19.73808 31.24636 25.49222
# Shear Modulus (GPa) = 19.51113 33.08313 26.29713
#
# Velocity S-wave (km/s) = 2.83182 3.68747 3.28760
# Velocity P-wave (km/s) = 4.33645 5.56528 4.98885
#
# Compressibility (1/GPa) = 0.05066350
#
# Stress axis : x y z
#
# Youngs Moduli (GPa) = 143.79274 39.56602 50.11069
#
# Poissons Ratio (x) = -0.09054 0.17793
# Poissons Ratio (y) = -0.32903 -0.02515
# Poissons Ratio (z) = 0.51056 -0.01986
#
# Static dielectric constant tensor:
#      x y z
#    x 1.926140 0.000000 -0.017210 
#    y 0.000000 2.015090 0.000000 
#    z -0.017210 0.000000 1.880650 
# 
# From -- ./inp_files/308839.got.cif
#   From: 2010.05.17/outbox.cif.g08.bks.cpg/sg15_155_cif.got.tgz:308839.got - 2010.06.03 18:47:42.
