data_PCOD9270621
_publ_section_title
;
Structure prediction by ZEFSAII (Michael W. Deem and Ramdas Pophale) SiO2 
 PCOD9270621
Probable space group: C 2/C
;
_chemical_formula_sum "Si O2"
_cell_formula_units_Z 28
_cell_length_a 8.910073
_cell_length_b 10.432485
_cell_length_c 10.361439
_cell_angle_alpha 90.000000
_cell_angle_beta 88.193798
_cell_angle_gamma 90.000000
_cell_volume 962.660772
_symmetry_space_group_name_H-M "C 2/C"
_symmetry_group_IT_number 15
_symmetry_cell_setting 'monoclinic'
loop_
_space_group_symop_operation_xyz
x,y,z
-x,y,1/2-z
-x,-y,-z
x,-y,1/2+z
1/2+x,1/2+y,z
1/2-x,1/2+y,1/2-z
1/2-x,1/2-y,-z
1/2+x,1/2-y,1/2+z
loop_
_atom_site_type_symbol
_atom_site_label
_atom_site_fract_x
_atom_site_fract_y
_atom_site_fract_z
Si Si1 0.500000 0.303814 0.250000
Si Si2 0.842148 0.043275 0.149497
Si Si3 0.624750 0.286470 0.608408
Si Si4 0.389072 0.153438 0.491952
O O1 0.369561 0.407299 0.218016
O O2 0.479605 0.210840 0.370122
O O3 0.807854 0.150565 0.262398
O O4 0.708132 0.032250 0.049585
O O5 0.999035 0.099421 0.086482
O O6 0.750000 0.250000 0.500000
O O7 0.501790 0.169183 0.607345
O O8 0.250000 0.250000 0.500000
#
# Coordination Sequence:
#
# PCOD9270621 Si02
#       4
#     4   8   8   8
#     4  10  20  38  64  84 120 158 190 248 296 340
#     4   9  21  35  56  91 114 149 206 235 282 359
#     4   9  17  32  56  81 114 150 185 238 288 333
#     4  10  20  35  61  87 112 155 198 236 292 350
#
# _framework density 29.086048999999999
#
# number of rings (size 3 to 8) (size 9 to 14) (size 15 to 20)
#    0.000    2.857    0.000    1.714    0.000   10.286 
#    0.000    0.000    0.000  126.857    0.000    0.000 
#    0.000    0.000    0.000    0.000    0.000    0.000 
#
# Total GULP energy -78038.251039 kJ/mol
# GULP energy per Si atom -5574.160789 kJ/mol
# Density = 2.901985 g / cm^3
# Si number density = 29.086049 Si / 1000 Ang^3
#
#
#
# Elastic Constant Matrix: (Units=GPa)
#
#
# Indices 1 2 3 4 5 6 
#
# 1 130.0519 32.0668 38.3192 0.0000 -2.4209 0.0000
# 2 32.0668 98.4059 20.6632 0.0000 -0.6808 0.0000
# 3 38.3192 20.6632 139.9667 0.0000 -11.4425 0.0000
# 4 0.0000 0.0000 0.0000 29.1216 0.0000 -3.5190
# 5 -2.4209 -0.6808 -11.4425 0.0000 71.1223 0.0000
# 6 0.0000 0.0000 0.0000 -3.5190 0.0000 41.9674
#
#
#
# Elastic Compliance Matrix: (Units=1/GPa)
#
#
# Indices 1 2 3 4 5 6 
#
# 1 0.008909 -0.002467 -0.002079 0.000000 -0.000055 0.000000
# 2 -0.002467 0.011172 -0.000985 0.000000 -0.000135 0.000000
# 3 -0.002079 -0.000985 0.007957 0.000000 0.001200 0.000000
# 4 0.000000 0.000000 0.000000 0.034690 0.000000 0.002909
# 5 -0.000055 -0.000135 0.001200 0.000000 0.014250 0.000000
# 6 0.000000 0.000000 0.000000 0.002909 0.000000 0.024072
#
#
# Mechanical properties :
#
#
# Convention : Reuss Voigt Hill
#
# Bulk Modulus (GPa) = 58.90773 61.16920 60.03846
# Shear Modulus (GPa) = 42.45501 46.93396 44.69449
#
# Velocity S-wave (km/s) = 3.82466 4.02135 3.92424
# Velocity P-wave (km/s) = 6.30880 6.52976 6.42023
#
# Compressibility (1/GPa) = 0.01697570
#
# Stress axis : x y z
#
# Youngs Moduli (GPa) = 112.24403 89.51147 125.66992
#
# Poissons Ratio (x) = 0.22082 0.26132
# Poissons Ratio (y) = 0.27690 0.12378
# Poissons Ratio (z) = 0.23340 0.08817
#
# Static dielectric constant tensor:
#      x y z
#    x 2.405280 0.000000 0.083780 
#    y 0.000000 2.441600 0.000000 
#    z 0.083780 0.000000 2.488100 
# 
# From -- ./inp_files/75104.got.cif
#   From: 2010.05.17/outbox.cif.g08.bks.cpg/sg15_38_cif.got.tgz:75104.got - 2010.06.03 18:47:42.
