data_PCOD9270270
_publ_section_title
;
Structure prediction by ZEFSAII (Michael W. Deem and Ramdas Pophale) SiO2 
 PCOD9270270
Probable space group: C 2/C
;
_chemical_formula_sum "Si O2"
_cell_formula_units_Z 48
_cell_length_a 14.166344
_cell_length_b 28.992920
_cell_length_c 8.340159
_cell_angle_alpha 90.000000
_cell_angle_beta 134.502673
_cell_angle_gamma 90.000000
_cell_volume 2443.127957
_symmetry_space_group_name_H-M "C 2/C"
_symmetry_group_IT_number 15
_symmetry_cell_setting 'monoclinic'
loop_
_space_group_symop_operation_xyz
x,y,z
-x,y,1/2-z
-x,-y,-z
x,-y,1/2+z
1/2+x,1/2+y,z
1/2-x,1/2+y,1/2-z
1/2-x,1/2-y,-z
1/2+x,1/2-y,1/2+z
loop_
_atom_site_type_symbol
_atom_site_label
_atom_site_fract_x
_atom_site_fract_y
_atom_site_fract_z
Si Si1 0.949413 0.163469 0.509799
Si Si2 0.359375 0.977552 0.174125
Si Si3 0.228926 0.844875 0.209126
Si Si4 0.858676 0.570843 0.023546
Si Si5 0.142917 0.907392 0.832348
Si Si6 0.140510 0.742883 0.506246
O O1 0.884869 0.116946 0.368504
O O2 0.862419 0.209453 0.398713
O O3 0.000000 0.158241 0.750000
O O4 0.080592 0.172146 0.562456
O O5 0.500000 0.970169 0.250000
O O6 0.369747 0.957534 0.367348
O O7 0.237519 0.951168 0.945700
O O8 0.326572 0.031790 0.116907
O O9 0.263296 0.886347 0.374424
O O10 0.325561 0.802334 0.351822
O O11 0.223915 0.869554 0.032478
O O12 0.000000 0.589882 0.250000
O O13 0.000000 0.915913 0.750000
O O14 0.250000 0.750000 0.500000
O O15 0.000000 0.737884 0.250000
#
# Coordination Sequence:
#
# PCOD9270270 Si02
#       6
#     8   8   8   8   8   8
#     4  10  20  36  58  82 108 149 187 232 279 331
#     4  10  20  37  57  86 116 146 189 235 277 331
#     4  10  20  38  57  82 113 151 188 228 284 331
#     4  10  20  35  57  85 116 151 184 232 284 330
#     4   9  21  40  58  79 119 150 186 231 281 335
#     4  11  20  37  58  85 115 144 192 233 277 332
#
# _framework density 19.646943
#
# number of rings (size 3 to 8) (size 9 to 14) (size 15 to 20)
#    0.000    2.000    3.333    2.500    0.000    3.333 
#    6.000    8.333    0.000    0.000    0.000    0.000 
#    0.000    0.000    0.000    0.000    0.000    0.000 
#
# Total GULP energy -133814.504865 kJ/mol
# GULP energy per Si atom -5575.604369 kJ/mol
# Density = 1.960223 g / cm^3
# Si number density = 19.646943 Si / 1000 Ang^3
#
#
#
# Elastic Constant Matrix: (Units=GPa)
#
#
# Indices 1 2 3 4 5 6 
#
# 1 33.8806 27.8013 1.9057 0.0000 15.1989 0.0000
# 2 27.8013 84.9176 27.1694 0.0000 15.7773 0.0000
# 3 1.9057 27.1694 69.0425 0.0000 13.2026 0.0000
# 4 0.0000 0.0000 0.0000 35.3858 0.0000 1.6434
# 5 15.1989 15.7773 13.2026 0.0000 27.1318 0.0000
# 6 0.0000 0.0000 0.0000 1.6434 0.0000 19.3616
#
#
#
# Elastic Compliance Matrix: (Units=1/GPa)
#
#
# Indices 1 2 3 4 5 6 
#
# 1 0.053328 -0.015822 0.009601 0.000000 -0.025345 0.000000
# 2 -0.015822 0.019046 -0.007316 0.000000 0.001348 0.000000
# 3 0.009601 -0.007316 0.019089 0.000000 -0.010413 0.000000
# 4 0.000000 0.000000 0.000000 0.028372 0.000000 -0.002408
# 5 -0.025345 0.001348 -0.010413 0.000000 0.055338 0.000000
# 6 0.000000 0.000000 0.000000 -0.002408 0.000000 0.051853
#
#
# Mechanical properties :
#
#
# Convention : Reuss Voigt Hill
#
# Bulk Modulus (GPa) = 15.53056 33.51039 24.52048
# Shear Modulus (GPa) = 18.14457 25.10678 21.62567
#
# Velocity S-wave (km/s) = 3.04226 3.57865 3.32130
# Velocity P-wave (km/s) = 4.50139 5.84542 5.21687
#
# Compressibility (1/GPa) = 0.06438916
#
# Stress axis : x y z
#
# Youngs Moduli (GPa) = 18.75181 52.50310 52.38611
#
# Poissons Ratio (x) = 0.83070 -0.50295
# Poissons Ratio (y) = 0.29669 0.38326
# Poissons Ratio (z) = -0.18003 0.38412
#
# Static dielectric constant tensor:
#      x y z
#    x 1.604460 0.000000 0.055950 
#    y 0.000000 1.700440 0.000000 
#    z 0.055950 0.000000 1.663890 
# 
# From -- ./inp_files/44654.got.cif
#   From: 2010.05.17/outbox.cif.g08.bks.cpg/sg15_23_cif.got.tgz:44654.got - 2010.06.03 18:47:42.
