data_PCOD9270465
_publ_section_title
;
Structure prediction by ZEFSAII (Michael W. Deem and Ramdas Pophale) SiO2 
 PCOD9270465
Probable space group: C 2/C
;
_chemical_formula_sum "Si O2"
_cell_formula_units_Z 44
_cell_length_a 19.575910
_cell_length_b 4.841086
_cell_length_c 22.413593
_cell_angle_alpha 90.000000
_cell_angle_beta 126.062452
_cell_angle_gamma 90.000000
_cell_volume 1717.076166
_symmetry_space_group_name_H-M "C 2/C"
_symmetry_group_IT_number 15
_symmetry_cell_setting 'monoclinic'
loop_
_space_group_symop_operation_xyz
x,y,z
-x,y,1/2-z
-x,-y,-z
x,-y,1/2+z
1/2+x,1/2+y,z
1/2-x,1/2+y,1/2-z
1/2-x,1/2-y,-z
1/2+x,1/2-y,1/2+z
loop_
_atom_site_type_symbol
_atom_site_label
_atom_site_fract_x
_atom_site_fract_y
_atom_site_fract_z
Si Si1 0.650444 0.428574 0.013468
Si Si2 0.185796 0.918045 0.295018
Si Si3 0.395622 0.120760 0.803765
Si Si4 0.500000 0.095532 0.750000
Si Si5 0.845021 0.676168 0.611153
Si Si6 0.624306 0.095870 0.576479
O O1 0.752760 0.461187 0.060658
O O2 0.604772 0.706576 0.010730
O O3 0.629885 0.212238 0.055057
O O4 0.629470 0.294444 0.939467
O O5 0.130373 0.680651 0.234467
O O6 0.280794 0.820215 0.355231
O O7 0.182946 0.175941 0.247893
O O8 0.162608 0.070418 0.345941
O O9 0.462716 0.239738 0.790072
O O10 0.425573 0.118675 0.887210
O O11 0.415907 0.974598 0.675797
#
# Coordination Sequence:
#
# PCOD9270465 Si02
#       6
#     8   8   8   4   8   8
#     4  10  22  38  62  87 118 151 191 239 287 341
#     4  10  20  35  59  85 115 150 193 243 283 330
#     4  11  22  36  56  86 117 151 193 239 289 342
#     4  10  22  40  60  84 116 154 194 240 286 342
#     4   9  21  40  61  89 117 153 195 235 286 343
#     4  11  20  36  58  86 116 153 191 238 290 340
#
# _framework density 25.624956999999998
#
# number of rings (size 3 to 8) (size 9 to 14) (size 15 to 20)
#    0.000    1.818    0.000    5.455    0.000   12.364 
#    0.000    1.818    0.000    0.000    0.000    0.000 
#    0.000    0.000    0.000    0.000    0.000    0.000 
#
# Total GULP energy -122715.448156 kJ/mol
# GULP energy per Si atom -5577.974916 kJ/mol
# Density = 2.556663 g / cm^3
# Si number density = 25.624957 Si / 1000 Ang^3
#
#
#
# Elastic Constant Matrix: (Units=GPa)
#
#
# Indices 1 2 3 4 5 6 
#
# 1 71.4333 -7.7197 44.8739 0.0003 -28.8139 0.0000
# 2 -7.7197 75.2001 -3.8658 0.0010 -5.8620 -0.0014
# 3 44.8739 -3.8658 96.6286 0.0000 -13.6023 -0.0014
# 4 0.0003 0.0010 0.0000 25.4000 0.0003 -11.4450
# 5 -28.8139 -5.8620 -13.6023 0.0003 55.1078 0.0011
# 6 0.0000 -0.0014 -0.0014 -11.4450 0.0011 3.4839
#
#
#
# Elastic Compliance Matrix: (Units=1/GPa)
#
#
# Indices 1 2 3 4 5 6 
#
# 1 0.024953 0.002901 -0.009937 0.000007 0.010903 0.000016
# 2 0.002901 0.013801 -0.000388 -0.000003 0.002889 -0.000006
# 3 -0.009937 -0.000388 0.014722 -0.000006 -0.001603 -0.000014
# 4 0.000007 -0.000003 -0.000006 -0.081978 0.000007 -0.269307
# 5 0.010903 0.002889 -0.001603 0.000007 0.023758 0.000018
# 6 0.000016 -0.000006 -0.000014 -0.269307 0.000018 -0.597674
#
#
# Mechanical properties :
#
#
# Convention : Reuss Voigt Hill
#
# Bulk Modulus (GPa) = 25.88901 34.42655 30.15778
# Shear Modulus (GPa) = -8.70031 30.79658 11.04813
#
# Velocity S-wave (km/s) = -1.84462 3.47049 2.07866
# Velocity P-wave (km/s) = 2.36393 5.43351 4.18994
#
# Compressibility (1/GPa) = 0.03862643
#
# Stress axis : x y z
#
# Youngs Moduli (GPa) = 40.07566 72.45934 67.92327
#
# Poissons Ratio (x) = -0.21017 0.67497
# Poissons Ratio (y) = -0.11624 0.02637
# Poissons Ratio (z) = 0.39824 0.02813
#
# Static dielectric constant tensor:
#      x y z
#    x 2.208620 0.000000 0.040880 
#    y 0.000000 1.984780 0.000000 
#    z 0.040880 0.000000 2.010680 
# 
# From -- ./inp_files/250880.got.cif
#   From: 2010.05.17/outbox.cif.g08.bks.cpg/sg15_126_cif.got.tgz:250880.got - 2010.06.03 18:47:42.
