data_PCOD9270967
_publ_section_title
;
Structure prediction by ZEFSAII (Michael W. Deem and Ramdas Pophale) SiO2 
 PCOD9270967
Probable space group: C 2/C
;
_chemical_formula_sum "Si O2"
_cell_formula_units_Z 36
_cell_length_a 9.925502
_cell_length_b 13.153027
_cell_length_c 20.198393
_cell_angle_alpha 90.000000
_cell_angle_beta 35.390728
_cell_angle_gamma 90.000000
_cell_volume 1527.163420
_symmetry_space_group_name_H-M "C 2/C"
_symmetry_group_IT_number 15
_symmetry_cell_setting 'monoclinic'
loop_
_space_group_symop_operation_xyz
x,y,z
-x,y,1/2-z
-x,-y,-z
x,-y,1/2+z
1/2+x,1/2+y,z
1/2-x,1/2+y,1/2-z
1/2-x,1/2-y,-z
1/2+x,1/2-y,1/2+z
loop_
_atom_site_type_symbol
_atom_site_label
_atom_site_fract_x
_atom_site_fract_y
_atom_site_fract_z
Si Si1 0.598018 0.177330 0.844170
Si Si2 0.000000 0.293145 0.750000
Si Si3 0.667255 0.350607 0.993447
Si Si4 0.034763 0.537194 0.412689
Si Si5 0.228016 0.266104 0.897129
O O1 0.467762 0.229333 0.834366
O O2 0.846498 0.225004 0.762218
O O3 0.626183 0.055289 0.831547
O O4 0.434879 0.202517 0.973990
O O5 0.182213 0.355557 0.633993
O O6 0.771967 0.439990 0.994057
O O7 0.750000 0.250000 0.000000
O O8 0.401954 0.331416 0.082544
O O9 0.000000 0.500000 0.500000
O O10 0.193935 0.638025 0.360204
#
# Coordination Sequence:
#
# PCOD9270967 Si02
#       5
#     8   4   8   8   8
#     4   9  17  32  53  80 110 147 187 233 286 344
#     4  10  20  36  56  80 118 146 186 242 288 344
#     4   9  18  35  59  81 112 150 188 236 292 340
#     4   9  17  32  56  83 106 144 195 232 287 353
#     4   8  16  32  55  80 109 147 185 232 290 340
#
# _framework density 23.573115000000001
#
# number of rings (size 3 to 8) (size 9 to 14) (size 15 to 20)
#    0.000    3.111    0.000    1.333    0.000    0.889 
#    4.000    3.333   19.556    0.000    0.000    0.000 
#    0.000    0.000    0.000    0.000    0.000    0.000 
#
# Total GULP energy -100389.124522 kJ/mol
# GULP energy per Si atom -5577.173585 kJ/mol
# Density = 2.351946 g / cm^3
# Si number density = 23.573115 Si / 1000 Ang^3
#
#
#
# Elastic Constant Matrix: (Units=GPa)
#
#
# Indices 1 2 3 4 5 6 
#
# 1 173.2282 71.4282 31.7012 0.0003 -44.6652 0.0001
# 2 71.4282 88.6723 23.1181 0.0017 -14.6987 0.0000
# 3 31.7012 23.1181 75.1450 0.0034 -18.7293 0.0001
# 4 0.0003 0.0017 0.0034 16.9759 -0.0006 -1.7426
# 5 -44.6652 -14.6987 -18.7293 -0.0006 42.3616 0.0000
# 6 0.0001 0.0000 0.0001 -1.7426 0.0000 49.0620
#
#
#
# Elastic Compliance Matrix: (Units=1/GPa)
#
#
# Indices 1 2 3 4 5 6 
#
# 1 0.011275 -0.007516 -0.000147 0.000001 0.009215 0.000000
# 2 -0.007516 0.017599 -0.003031 -0.000001 -0.003159 0.000000
# 3 -0.000147 -0.003031 0.015735 -0.000003 0.005750 0.000000
# 4 0.000001 -0.000001 -0.000003 0.059122 0.000000 0.002100
# 5 0.009215 -0.003159 0.005750 0.000000 0.034769 0.000000
# 6 0.000000 0.000000 0.000000 0.002100 0.000000 0.020457
#
#
# Mechanical properties :
#
#
# Convention : Reuss Voigt Hill
#
# Bulk Modulus (GPa) = 43.06578 65.50452 54.28515
# Shear Modulus (GPa) = 26.58365 35.73310 31.15837
#
# Velocity S-wave (km/s) = 3.36178 3.89760 3.63957
# Velocity P-wave (km/s) = 5.77732 6.93565 6.38282
#
# Compressibility (1/GPa) = 0.02322029
#
# Stress axis : x y z
#
# Youngs Moduli (GPa) = 88.69228 56.82248 63.55146
#
# Poissons Ratio (x) = 0.42710 0.00937
# Poissons Ratio (y) = 0.66665 0.19259
# Poissons Ratio (z) = 0.01307 0.17220
#
# Static dielectric constant tensor:
#      x y z
#    x 1.749560 0.000000 0.165130 
#    y 0.000000 1.935570 0.000000 
#    z 0.165130 0.000000 1.860330 
# 
# From -- ./inp_files/178244.got.cif
#   From: 2010.05.17/outbox.cif.g08.bks.cpg/sg15_90_cif.got.tgz:178244.got - 2010.06.03 18:47:42.
