data_PCOD9270526
_publ_section_title
;
Structure prediction by ZEFSAII (Michael W. Deem and Ramdas Pophale) SiO2 
 PCOD9270526
Probable space group: C 2/C
;
_chemical_formula_sum "Si O2"
_cell_formula_units_Z 56
_cell_length_a 21.188927
_cell_length_b 15.678410
_cell_length_c 8.001830
_cell_angle_alpha 90.000000
_cell_angle_beta 117.339802
_cell_angle_gamma 90.000000
_cell_volume 2361.343595
_symmetry_space_group_name_H-M "C 2/C"
_symmetry_group_IT_number 15
_symmetry_cell_setting 'monoclinic'
loop_
_space_group_symop_operation_xyz
x,y,z
-x,y,1/2-z
-x,-y,-z
x,-y,1/2+z
1/2+x,1/2+y,z
1/2-x,1/2+y,1/2-z
1/2-x,1/2-y,-z
1/2+x,1/2-y,1/2+z
loop_
_atom_site_type_symbol
_atom_site_label
_atom_site_fract_x
_atom_site_fract_y
_atom_site_fract_z
Si Si1 0.332508 0.714320 0.301791
Si Si2 0.341409 0.046890 0.167871
Si Si3 0.203972 0.135973 0.900922
Si Si4 0.749543 0.625242 0.592073
Si Si5 0.929418 0.960935 0.275147
Si Si6 0.947332 0.550764 0.559126
Si Si7 0.524481 0.644335 0.095161
O O1 0.309819 0.703685 0.467682
O O2 0.308219 0.801385 0.186535
O O3 0.417791 0.708396 0.403548
O O4 0.292943 0.643806 0.132917
O O5 0.292386 0.964089 0.153712
O O6 0.400949 0.015191 0.111714
O O7 0.385360 0.091142 0.371447
O O8 0.284957 0.109280 0.021980
O O9 0.198786 0.141303 0.692365
O O10 0.147827 0.061205 0.884339
O O11 0.000000 0.968320 0.250000
O O12 0.952939 0.878797 0.410882
O O13 0.931668 0.054187 0.357277
O O14 0.000000 0.599811 0.750000
O O15 0.000000 0.500000 0.500000
O O16 0.500000 0.665839 0.250000
#
# Coordination Sequence:
#
# PCOD9270526 Si02
#       7
#     8   8   8   8   8   8   8
#     4  11  24  42  62  88 136 184 208 273 340 392
#     4  11  20  38  63  98 123 161 224 275 329 389
#     4  12  23  39  70  95 134 176 224 275 328 397
#     4  11  25  41  61  98 133 165 224 273 331 403
#     4  10  20  35  59  95 127 164 222 273 310 376
#     4   9  19  36  62  89 125 157 201 282 340 381
#     4  10  20  36  59  88 128 169 219 265 325 383
#
# _framework density 23.715311
#
# number of rings (size 3 to 8) (size 9 to 14) (size 15 to 20)
#    0.000    1.429    2.857    3.000    2.000    0.000 
#    0.000    2.143    3.143    1.714    0.000    0.000 
#    0.000    0.000    0.000    0.000    0.000    0.000 
#
# Total GULP energy -156044.216778 kJ/mol
# GULP energy per Si atom -5573.007742 kJ/mol
# Density = 2.366133 g / cm^3
# Si number density = 23.715311 Si / 1000 Ang^3
#
#
#
# Elastic Constant Matrix: (Units=GPa)
#
#
# Indices 1 2 3 4 5 6 
#
# 1 133.0543 15.9007 44.9675 0.0000 3.2605 0.0000
# 2 15.9007 42.3212 9.7592 0.0000 6.0782 0.0000
# 3 44.9675 9.7592 75.9551 0.0000 10.1346 0.0000
# 4 0.0000 0.0000 0.0000 20.2671 0.0000 2.9827
# 5 3.2605 6.0782 10.1346 0.0000 53.5606 0.0000
# 6 0.0000 0.0000 0.0000 2.9827 0.0000 16.7412
#
#
#
# Elastic Compliance Matrix: (Units=1/GPa)
#
#
# Indices 1 2 3 4 5 6 
#
# 1 0.009649 -0.002464 -0.005493 0.000000 0.000732 0.000000
# 2 -0.002464 0.025241 -0.001459 0.000000 -0.002438 0.000000
# 3 -0.005493 -0.001459 0.016967 0.000000 -0.002710 0.000000
# 4 0.000000 0.000000 0.000000 0.050670 0.000000 -0.009028
# 5 0.000732 -0.002438 -0.002710 0.000000 0.019415 0.000000
# 6 0.000000 0.000000 0.000000 -0.009028 0.000000 0.061341
#
#
# Mechanical properties :
#
#
# Convention : Reuss Voigt Hill
#
# Bulk Modulus (GPa) = 30.28061 43.62063 36.95062
# Shear Modulus (GPa) = 23.46050 30.16066 26.81058
#
# Velocity S-wave (km/s) = 3.14866 3.57007 3.36596
# Velocity P-wave (km/s) = 5.10047 5.95208 5.54266
#
# Compressibility (1/GPa) = 0.03302444
#
# Stress axis : x y z
#
# Youngs Moduli (GPa) = 103.63999 39.61786 58.93761
#
# Poissons Ratio (x) = 0.09760 0.32377
# Poissons Ratio (y) = 0.25532 0.08601
# Poissons Ratio (z) = 0.56934 0.05782
#
# Static dielectric constant tensor:
#      x y z
#    x 1.880430 0.000000 -0.077920 
#    y 0.000000 1.906510 0.000000 
#    z -0.077920 0.000000 2.037980 
# 
# From -- ./inp_files/56716.got.cif
#   From: 2010.05.17/outbox.cif.g08.bks.cpg/sg15_29_cif.got.tgz:56716.got - 2010.06.03 18:47:42.
