data_PCOD9270413
_publ_section_title
;
Structure prediction by ZEFSAII (Michael W. Deem and Ramdas Pophale) SiO2 
 PCOD9270413
Probable space group: C 2/C
;
_chemical_formula_sum "Si O2"
_cell_formula_units_Z 64
_cell_length_a 29.663657
_cell_length_b 13.773909
_cell_length_c 20.516614
_cell_angle_alpha 90.000000
_cell_angle_beta 159.137989
_cell_angle_gamma 90.000000
_cell_volume 2985.259839
_symmetry_space_group_name_H-M "C 2/C"
_symmetry_group_IT_number 15
_symmetry_cell_setting 'monoclinic'
loop_
_space_group_symop_operation_xyz
x,y,z
-x,y,1/2-z
-x,-y,-z
x,-y,1/2+z
1/2+x,1/2+y,z
1/2-x,1/2+y,1/2-z
1/2-x,1/2-y,-z
1/2+x,1/2-y,1/2+z
loop_
_atom_site_type_symbol
_atom_site_label
_atom_site_fract_x
_atom_site_fract_y
_atom_site_fract_z
Si Si1 0.616320 0.538902 0.731451
Si Si2 0.269497 0.797699 0.193636
Si Si3 0.010232 0.126487 0.187032
Si Si4 0.360320 0.396937 0.853420
Si Si5 0.098845 0.329803 0.263874
Si Si6 0.626678 0.902938 0.618632
Si Si7 0.510301 0.115902 0.439588
Si Si8 0.613056 0.034344 0.351390
O O1 0.560040 0.457553 0.705972
O O2 0.639736 0.491501 0.692150
O O3 0.505581 0.617214 0.570509
O O4 0.752467 0.570576 0.941000
O O5 0.290848 0.683040 0.215120
O O6 0.321662 0.839091 0.195672
O O7 0.367743 0.817365 0.385392
O O8 0.133444 0.841825 0.024172
O O9 0.000000 0.099612 0.250000
O O10 0.097662 0.223814 0.295872
O O11 0.272350 0.405958 0.797448
O O12 0.131394 0.422654 0.351708
O O13 0.954482 0.344186 0.044056
O O14 0.590232 0.862412 0.639480
O O15 0.571219 0.010653 0.537311
O O16 0.438406 0.102464 0.275604
O O17 0.500000 0.030798 0.250000
#
# Coordination Sequence:
#
# PCOD9270413 Si02
#       8
#     8   8   8   8   8   8   8   8
#     4  11  25  39  56  89 122 161 207 252 299 377
#     4  11  22  39  62  90 122 160 204 257 304 355
#     4  12  24  35  59  93 129 157 191 250 311 370
#     4  11  22  39  61  84 121 162 202 255 312 361
#     4  10  20  35  58  89 120 157 197 241 301 374
#     4   9  17  36  59  83 115 156 199 244 301 357
#     4   9  20  37  61  87 112 157 214 251 284 367
#     4  11  23  40  63  87 124 168 201 248 315 367
#
# _framework density 21.438669999999998
#
# number of rings (size 3 to 8) (size 9 to 14) (size 15 to 20)
#    0.000    1.500    2.500    4.125    1.750    3.000 
#    0.000    0.625    0.000    0.750    0.000    0.000 
#    0.000    0.000    0.000    0.000    0.000    0.000 
#
# Total GULP energy -178616.806268 kJ/mol
# GULP energy per Si atom -5581.775196 kJ/mol
# Density = 2.138987 g / cm^3
# Si number density = 21.438670 Si / 1000 Ang^3
#
#
#
# Elastic Constant Matrix: (Units=GPa)
#
#
# Indices 1 2 3 4 5 6 
#
# 1 57.5450 4.5977 39.7738 0.0000 9.6375 0.0000
# 2 4.5977 14.4770 3.2728 0.0000 3.2819 0.0000
# 3 39.7738 3.2728 145.7403 0.0000 17.6683 0.0000
# 4 0.0000 0.0000 0.0000 15.5037 0.0000 2.1902
# 5 9.6375 3.2819 17.6683 0.0000 33.9069 0.0000
# 6 0.0000 0.0000 0.0000 2.1902 0.0000 14.8753
#
#
#
# Elastic Compliance Matrix: (Units=1/GPa)
#
#
# Indices 1 2 3 4 5 6 
#
# 1 0.022121 -0.005111 -0.005572 0.000000 -0.002889 0.000000
# 2 -0.005111 0.071895 0.000478 0.000000 -0.005755 0.000000
# 3 -0.005572 0.000478 0.008737 0.000000 -0.003015 0.000000
# 4 0.000000 0.000000 0.000000 0.065871 0.000000 -0.009699
# 5 -0.002889 -0.005755 -0.003015 0.000000 0.032442 0.000000
# 6 0.000000 0.000000 0.000000 -0.009699 0.000000 0.068654
#
#
# Mechanical properties :
#
#
# Convention : Reuss Voigt Hill
#
# Bulk Modulus (GPa) = 12.14421 34.78342 23.46382
# Shear Modulus (GPa) = 15.74421 24.19838 19.97129
#
# Velocity S-wave (km/s) = 2.71289 3.36330 3.05545
# Velocity P-wave (km/s) = 3.93573 5.59841 4.83902
#
# Compressibility (1/GPa) = 0.08234374
#
# Stress axis : x y z
#
# Youngs Moduli (GPa) = 45.20546 13.90918 114.45616
#
# Poissons Ratio (x) = 0.07109 0.63775
# Poissons Ratio (y) = 0.23103 -0.05471
# Poissons Ratio (z) = 0.25189 -0.00665
#
# Static dielectric constant tensor:
#      x y z
#    x 1.791560 0.000000 0.007490 
#    y 0.000000 1.832290 0.000000 
#    z 0.007490 0.000000 1.817520 
# 
# From -- ./inp_files/259453.got.cif
#   From: 2010.05.17/outbox.cif.g08.bks.cpg/sg15_130_cif.got.tgz:259453.got - 2010.06.03 18:47:42.
