data_PCOD9270695
_publ_section_title
;
Structure prediction by ZEFSAII (Michael W. Deem and Ramdas Pophale) SiO2 
 PCOD9270695
Probable space group: C 2/C
;
_chemical_formula_sum "Si O2"
_cell_formula_units_Z 56
_cell_length_a 10.116960
_cell_length_b 17.168425
_cell_length_c 15.581826
_cell_angle_alpha 90.000000
_cell_angle_beta 110.121932
_cell_angle_gamma 90.000000
_cell_volume 2541.248582
_symmetry_space_group_name_H-M "C 2/C"
_symmetry_group_IT_number 15
_symmetry_cell_setting 'monoclinic'
loop_
_space_group_symop_operation_xyz
x,y,z
-x,y,1/2-z
-x,-y,-z
x,-y,1/2+z
1/2+x,1/2+y,z
1/2-x,1/2+y,1/2-z
1/2-x,1/2-y,-z
1/2+x,1/2-y,1/2+z
loop_
_atom_site_type_symbol
_atom_site_label
_atom_site_fract_x
_atom_site_fract_y
_atom_site_fract_z
Si Si1 0.639281 0.597944 0.034735
Si Si2 0.350114 0.552561 0.180737
Si Si3 0.336043 0.423956 0.472865
Si Si4 0.453721 0.900380 0.838340
Si Si5 0.330381 0.776763 0.603923
Si Si6 0.025984 0.425960 0.357993
Si Si7 0.765496 0.883859 0.136512
O O1 0.478058 0.622006 0.981946
O O2 0.716055 0.597033 0.959996
O O3 0.644804 0.509029 0.067690
O O4 0.723758 0.656542 0.113615
O O5 0.500000 0.578425 0.250000
O O6 0.211917 0.594938 0.185093
O O7 0.329555 0.460029 0.196576
O O8 0.345656 0.564938 0.077341
O O9 0.181640 0.395516 0.413585
O O10 0.500000 0.899992 0.750000
O O11 0.527380 0.821974 0.888066
O O12 0.513733 0.983351 0.886449
O O13 0.250000 0.750000 0.500000
O O14 0.337803 0.700267 0.664084
O O15 0.000000 0.425184 0.250000
O O16 0.897903 0.380967 0.374035
#
# Coordination Sequence:
#
# PCOD9270695 Si02
#       7
#     8   8   8   8   8   8   8
#     4   9  19  33  58  89 117 159 207 252 305 371
#     4  10  23  38  61  97 123 156 209 265 311 361
#     4  10  20  35  62  89 124 157 206 265 317 348
#     4  10  22  37  64  89 121 163 213 260 309 368
#     4  10  20  37  61  91 121 161 207 250 306 391
#     4  10  21  38  62  95 121 157 210 269 309 364
#     4   9  21  36  61  86 126 158 198 256 312 377
#
# _framework density 22.036411000000001
#
# number of rings (size 3 to 8) (size 9 to 14) (size 15 to 20)
#    0.000    2.286    1.429    0.000    6.000    9.143 
#    0.000    2.143    3.143    0.000    0.000    0.000 
#    0.000    0.000    0.000    0.000    0.000    0.000 
#
# Total GULP energy -156200.705419 kJ/mol
# GULP energy per Si atom -5578.596622 kJ/mol
# Density = 2.198625 g / cm^3
# Si number density = 22.036411 Si / 1000 Ang^3
#
#
#
# Elastic Constant Matrix: (Units=GPa)
#
#
# Indices 1 2 3 4 5 6 
#
# 1 197.4014 43.5880 57.6834 0.0000 31.3430 0.0000
# 2 43.5880 84.0554 22.2463 0.0000 10.6627 0.0000
# 3 57.6834 22.2463 77.5833 0.0000 16.4727 0.0000
# 4 0.0000 0.0000 0.0000 12.0015 0.0000 3.4839
# 5 31.3430 10.6627 16.4727 0.0000 39.9765 0.0000
# 6 0.0000 0.0000 0.0000 3.4839 0.0000 20.6360
#
#
#
# Elastic Compliance Matrix: (Units=1/GPa)
#
#
# Indices 1 2 3 4 5 6 
#
# 1 0.007297 -0.002277 -0.004040 0.000000 -0.003449 0.000000
# 2 -0.002277 0.013747 -0.002027 0.000000 -0.001046 0.000000
# 3 -0.004040 -0.002027 0.017191 0.000000 -0.003376 0.000000
# 4 0.000000 0.000000 0.000000 0.087617 0.000000 -0.014792
# 5 -0.003449 -0.001046 -0.003376 0.000000 0.029389 0.000000
# 6 0.000000 0.000000 0.000000 -0.014792 0.000000 0.050956
#
#
# Mechanical properties :
#
#
# Convention : Reuss Voigt Hill
#
# Bulk Modulus (GPa) = 46.40974 67.34171 56.87573
# Shear Modulus (GPa) = 21.73286 30.22428 25.97857
#
# Velocity S-wave (km/s) = 3.14383 3.70748 3.43723
# Velocity P-wave (km/s) = 5.85529 6.99663 6.45125
#
# Compressibility (1/GPa) = 0.02154720
#
# Stress axis : x y z
#
# Youngs Moduli (GPa) = 137.04713 72.74407 58.17016
#
# Poissons Ratio (x) = 0.16565 0.23500
# Poissons Ratio (y) = 0.31207 0.11789
# Poissons Ratio (z) = 0.55366 0.14742
#
# Static dielectric constant tensor:
#      x y z
#    x 1.830880 0.000000 0.015360 
#    y 0.000000 1.946730 0.000000 
#    z 0.015360 0.000000 1.846710 
# 
# From -- ./inp_files/191048.got.cif
#   From: 2010.05.17/outbox.cif.g08.bks.cpg/sg15_96_cif.got.tgz:191048.got - 2010.06.03 18:47:42.
