data_PCOD9270332
_publ_section_title
;
Structure prediction by ZEFSAII (Michael W. Deem and Ramdas Pophale) SiO2 
 PCOD9270332
Probable space group: C 2/C
;
_chemical_formula_sum "Si O2"
_cell_formula_units_Z 28
_cell_length_a 16.972691
_cell_length_b 4.995871
_cell_length_c 14.522686
_cell_angle_alpha 90.000000
_cell_angle_beta 54.292372
_cell_angle_gamma 90.000000
_cell_volume 999.926356
_symmetry_space_group_name_H-M "C 2/C"
_symmetry_group_IT_number 15
_symmetry_cell_setting 'monoclinic'
loop_
_space_group_symop_operation_xyz
x,y,z
-x,y,1/2-z
-x,-y,-z
x,-y,1/2+z
1/2+x,1/2+y,z
1/2-x,1/2+y,1/2-z
1/2-x,1/2-y,-z
1/2+x,1/2-y,1/2+z
loop_
_atom_site_type_symbol
_atom_site_label
_atom_site_fract_x
_atom_site_fract_y
_atom_site_fract_z
Si Si1 0.183493 0.103930 0.273980
Si Si2 0.837155 0.562850 0.880869
Si Si3 0.879477 0.832438 0.494922
Si Si4 0.000000 0.168589 0.750000
O O1 0.265619 0.321209 0.246351
O O2 0.155619 0.175144 0.188287
O O3 0.104770 0.148673 0.407946
O O4 0.724433 0.475892 0.952899
O O5 0.912845 0.366091 0.778172
O O6 0.866847 0.473317 0.964927
O O7 0.957709 0.958292 0.371846
#
# Coordination Sequence:
#
# PCOD9270332 Si02
#       4
#     8   8   8   4
#     4  10  20  35  58  81 108 148 184 223 272 321
#     4   8  16  31  53  82 107 147 180 227 272 323
#     4   8  16  31  53  82 107 147 180 227 272 323
#     4   8  14  30  54  80 110 146 178 228 272 324
#
# _framework density 28.002058999999999
#
# number of rings (size 3 to 8) (size 9 to 14) (size 15 to 20)
#    1.714    1.714    0.000    0.000    0.000    2.286 
#    0.000    0.000    0.000   56.571    0.000    0.000 
#    0.000    0.000    0.000    0.000    0.000    0.000 
#
# Total GULP energy -78100.827530 kJ/mol
# GULP energy per Si atom -5578.630538 kJ/mol
# Density = 2.793833 g / cm^3
# Si number density = 28.002059 Si / 1000 Ang^3
#
#
#
# Elastic Constant Matrix: (Units=GPa)
#
#
# Indices 1 2 3 4 5 6 
#
# 1 107.9141 37.8063 66.6915 0.0010 25.5996 0.0003
# 2 37.8063 70.7484 5.4410 0.0107 -1.9281 0.0035
# 3 66.6915 5.4410 258.9019 -0.0032 -5.6242 -0.0011
# 4 0.0010 0.0107 -0.0032 43.0011 -0.0017 8.1887
# 5 25.5996 -1.9281 -5.6242 -0.0017 60.2028 0.0006
# 6 0.0003 0.0035 -0.0011 8.1887 0.0006 36.0715
#
#
#
# Elastic Compliance Matrix: (Units=1/GPa)
#
#
# Indices 1 2 3 4 5 6 
#
# 1 0.016969 -0.008949 -0.004355 0.000001 -0.007909 0.000000
# 2 -0.008949 0.018887 0.002008 -0.000004 0.004598 -0.000001
# 3 -0.004355 0.002008 0.004994 0.000000 0.002383 0.000000
# 4 0.000001 -0.000004 0.000000 0.024306 0.000000 -0.005518
# 5 -0.007909 0.004598 0.002383 0.000000 0.020343 -0.000001
# 6 0.000000 -0.000001 0.000000 -0.005518 -0.000001 0.028975
#
#
# Mechanical properties :
#
#
# Convention : Reuss Voigt Hill
#
# Bulk Modulus (GPa) = 54.76597 73.04912 63.90755
# Shear Modulus (GPa) = 34.92774 49.69679 42.31226
#
# Velocity S-wave (km/s) = 3.53558 4.21735 3.89143
# Velocity P-wave (km/s) = 6.02225 7.06105 6.56224
#
# Compressibility (1/GPa) = 0.01825951
#
# Stress axis : x y z
#
# Youngs Moduli (GPa) = 58.93015 52.94533 200.24724
#
# Poissons Ratio (x) = 0.47379 0.87206
# Poissons Ratio (y) = 0.52734 -0.40211
# Poissons Ratio (z) = 0.25664 -0.10632
#
# Static dielectric constant tensor:
#      x y z
#    x 2.170690 0.000000 -0.010380 
#    y 0.000000 2.300220 0.000000 
#    z -0.010380 0.000000 2.200660 
# 
# From -- ./inp_files/108907.got.cif
#   From: 2010.05.17/outbox.cif.g08.bks.cpg/sg15_55_cif.got.tgz:108907.got - 2010.06.03 18:47:42.
