data_PCOD9270349
_publ_section_title
;
Structure prediction by ZEFSAII (Michael W. Deem and Ramdas Pophale) SiO2 
 PCOD9270349
Probable space group: C 2/C
;
_chemical_formula_sum "Si O2"
_cell_formula_units_Z 44
_cell_length_a 8.884118
_cell_length_b 23.742756
_cell_length_c 13.640312
_cell_angle_alpha 90.000000
_cell_angle_beta 58.588358
_cell_angle_gamma 90.000000
_cell_volume 2455.530015
_symmetry_space_group_name_H-M "C 2/C"
_symmetry_group_IT_number 15
_symmetry_cell_setting 'monoclinic'
loop_
_space_group_symop_operation_xyz
x,y,z
-x,y,1/2-z
-x,-y,-z
x,-y,1/2+z
1/2+x,1/2+y,z
1/2-x,1/2+y,1/2-z
1/2-x,1/2-y,-z
1/2+x,1/2-y,1/2+z
loop_
_atom_site_type_symbol
_atom_site_label
_atom_site_fract_x
_atom_site_fract_y
_atom_site_fract_z
Si Si1 0.422359 0.163329 0.910012
Si Si2 0.752154 0.786140 0.226225
Si Si3 0.000000 0.137319 0.750000
Si Si4 0.924475 0.552405 0.166171
Si Si5 0.346747 0.064719 0.605011
Si Si6 0.211601 0.161383 0.180991
O O1 0.324081 0.185727 0.847233
O O2 0.597624 0.201972 0.858486
O O3 0.508658 0.101020 0.882282
O O4 0.290305 0.165536 0.044993
O O5 0.926045 0.820478 0.193009
O O6 0.770628 0.719737 0.210613
O O7 0.164245 0.098354 0.665489
O O8 0.828020 0.495496 0.163139
O O9 0.797465 0.606512 0.200986
O O10 0.000000 0.547146 0.250000
O O11 0.076003 0.559600 0.031205
O O12 0.000000 0.158922 0.250000
#
# Coordination Sequence:
#
# PCOD9270349 Si02
#       6
#     8   8   4   8   8   8
#     4   9  19  38  58  82 108 155 187 229 286 335
#     4  10  20  35  58  83 111 150 189 231 282 330
#     4  10  22  36  60  86 110 146 198 240 264 346
#     4  10  23  40  60  82 118 154 181 242 297 332
#     4   9  21  42  59  84 113 147 199 235 282 344
#     4  11  22  36  57  86 118 147 191 230 282 349
#
# _framework density 17.918738999999999
#
# number of rings (size 3 to 8) (size 9 to 14) (size 15 to 20)
#    0.000    2.182    1.818    0.545    7.636    1.455 
#    0.000    3.636    0.000    0.000    0.000    0.000 
#    0.000    0.000    0.000    0.000    0.000    0.000 
#
# Total GULP energy -122601.396735 kJ/mol
# GULP energy per Si atom -5572.790761 kJ/mol
# Density = 1.787796 g / cm^3
# Si number density = 17.918739 Si / 1000 Ang^3
#
#
#
# Elastic Constant Matrix: (Units=GPa)
#
#
# Indices 1 2 3 4 5 6 
#
# 1 98.8973 82.5185 39.9642 0.0000 -5.7687 0.0000
# 2 82.5185 172.4263 54.7914 0.0000 0.9000 0.0000
# 3 39.9642 54.7914 69.4260 0.0000 -8.8787 0.0000
# 4 0.0000 0.0000 0.0000 22.6410 0.0000 -1.5131
# 5 -5.7687 0.9000 -8.8787 0.0000 24.6995 0.0000
# 6 0.0000 0.0000 0.0000 -1.5131 0.0000 24.6995
#
#
#
# Elastic Compliance Matrix: (Units=1/GPa)
#
#
# Indices 1 2 3 4 5 6 
#
# 1 0.018130 -0.007336 -0.004267 0.000000 0.002968 0.000000
# 2 -0.007336 0.010872 -0.004850 0.000000 -0.003853 0.000000
# 3 -0.004267 -0.004850 0.021575 0.000000 0.006935 0.000000
# 4 0.000000 0.000000 0.000000 0.044349 0.000000 0.002717
# 5 0.002968 -0.003853 0.006935 0.000000 0.043813 0.000000
# 6 0.000000 0.000000 0.000000 0.002717 0.000000 0.040653
#
#
# Mechanical properties :
#
#
# Convention : Reuss Voigt Hill
#
# Bulk Modulus (GPa) = 56.59208 77.25530 66.92369
# Shear Modulus (GPa) = 22.91602 25.30635 24.11119
#
# Velocity S-wave (km/s) = 3.58003 3.76211 3.67220
# Velocity P-wave (km/s) = 6.98140 7.87903 7.44376
#
# Compressibility (1/GPa) = 0.01767032
#
# Stress axis : x y z
#
# Youngs Moduli (GPa) = 55.15698 91.98256 46.35090
#
# Poissons Ratio (x) = 0.67479 0.19779
# Poissons Ratio (y) = 0.40464 0.22479
# Poissons Ratio (z) = 0.23536 0.44609
#
# Static dielectric constant tensor:
#      x y z
#    x 1.602250 0.000000 -0.004250 
#    y 0.000000 1.636330 0.000000 
#    z -0.004250 0.000000 1.620750 
# 
# From -- ./inp_files/134294.got.cif
#   From: 2010.05.17/outbox.cif.g08.bks.cpg/sg15_68_cif.got.tgz:134294.got - 2010.06.03 18:47:42.
