data_PCOD9270425
_publ_section_title
;
Structure prediction by ZEFSAII (Michael W. Deem and Ramdas Pophale) SiO2 
 PCOD9270425
Probable space group: C 2/C
;
_chemical_formula_sum "Si O2"
_cell_formula_units_Z 40
_cell_length_a 11.842481
_cell_length_b 28.577264
_cell_length_c 8.354834
_cell_angle_alpha 90.000000
_cell_angle_beta 38.834239
_cell_angle_gamma 90.000000
_cell_volume 1773.032884
_symmetry_space_group_name_H-M "C 2/C"
_symmetry_group_IT_number 15
_symmetry_cell_setting 'monoclinic'
loop_
_space_group_symop_operation_xyz
x,y,z
-x,y,1/2-z
-x,-y,-z
x,-y,1/2+z
1/2+x,1/2+y,z
1/2-x,1/2+y,1/2-z
1/2-x,1/2-y,-z
1/2+x,1/2-y,1/2+z
loop_
_atom_site_type_symbol
_atom_site_label
_atom_site_fract_x
_atom_site_fract_y
_atom_site_fract_z
Si Si1 0.751571 0.610237 0.137861
Si Si2 0.880961 0.403526 0.135606
Si Si3 0.318745 0.705031 0.143117
Si Si4 0.745614 0.693689 0.649333
Si Si5 0.553452 0.449643 0.374767
O O1 0.757326 0.666588 0.151548
O O2 0.561497 0.589005 0.400539
O O3 0.803529 0.596528 0.901705
O O4 0.906001 0.590154 0.084722
O O5 0.835473 0.353062 0.112312
O O6 0.764581 0.440534 0.166224
O O7 0.306008 0.760578 0.181896
O O8 0.529270 0.692433 0.899198
O O9 0.221431 0.698860 0.077769
O O10 0.500000 0.444952 0.250000
O O11 0.500000 0.500000 0.500000
#
# Coordination Sequence:
#
# PCOD9270425 Si02
#       5
#     8   8   8   8   8
#     4  11  24  42  65  95 132 172 214 265 323 385
#     4  11  24  42  65  95 132 172 214 265 323 385
#     4  10  20  35  58  90 128 173 219 265 318 380
#     4  10  20  35  58  90 128 173 219 265 318 380
#     4  12  26  46  72  98 128 168 214 270 329 386
#
# _framework density 22.560213999999998
#
# number of rings (size 3 to 8) (size 9 to 14) (size 15 to 20)
#    0.000    1.200    2.000    4.200    0.000    6.400 
#    0.000    0.000    0.000    0.000    0.000    0.000 
#    0.000    0.000    0.000    0.000    0.000    0.000 
#
# Total GULP energy -111921.359836 kJ/mol
# GULP energy per Si atom -5596.067992 kJ/mol
# Density = 2.250887 g / cm^3
# Si number density = 22.560214 Si / 1000 Ang^3
#
#
#
# Elastic Constant Matrix: (Units=GPa)
#
#
# Indices 1 2 3 4 5 6 
#
# 1 79.3727 5.9131 -4.4594 0.0000 -19.0898 0.0000
# 2 5.9131 86.4196 -13.7112 0.0000 -4.2124 0.0000
# 3 -4.4594 -13.7112 27.3313 0.0000 -6.9267 0.0000
# 4 0.0000 0.0000 0.0000 27.3478 0.0000 4.9402
# 5 -19.0898 -4.2124 -6.9267 0.0000 35.5503 0.0000
# 6 0.0000 0.0000 0.0000 4.9402 0.0000 19.3561
#
#
#
# Elastic Compliance Matrix: (Units=1/GPa)
#
#
# Indices 1 2 3 4 5 6 
#
# 1 0.015029 0.000178 0.004831 0.000000 0.009033 0.000000
# 2 0.000178 0.012857 0.007247 0.000000 0.003031 0.000000
# 3 0.004831 0.007247 0.044063 0.000000 0.012038 0.000000
# 4 0.000000 0.000000 0.000000 0.038333 0.000000 -0.009784
# 5 0.009033 0.003031 0.012038 0.000000 0.035684 0.000000
# 6 0.000000 0.000000 0.000000 -0.009784 0.000000 0.054160
#
#
# Mechanical properties :
#
#
# Convention : Reuss Voigt Hill
#
# Bulk Modulus (GPa) = 10.36673 18.73429 14.55051
# Shear Modulus (GPa) = 24.06525 30.14290 27.10408
#
# Velocity S-wave (km/s) = 3.26960 3.65925 3.46990
# Velocity P-wave (km/s) = 4.34267 5.11621 4.74523
#
# Compressibility (1/GPa) = 0.09646247
#
# Stress axis : x y z
#
# Youngs Moduli (GPa) = 66.53618 77.77968 22.69479
#
# Poissons Ratio (x) = -0.01388 -0.10964
# Poissons Ratio (y) = -0.01187 -0.16447
# Poissons Ratio (z) = -0.32144 -0.56369
#
# Static dielectric constant tensor:
#      x y z
#    x 1.826840 0.000000 -0.011100 
#    y 0.000000 1.812690 0.000000 
#    z -0.011100 0.000000 1.833300 
# 
# From -- ./inp_files/35001.got.cif
#   From: 2010.05.17/outbox.cif.g08.bks.cpg/sg15_18_cif.got.tgz:35001.got - 2010.06.03 18:47:42.
