data_PCOD9270218
_publ_section_title
;
Structure prediction by ZEFSAII (Michael W. Deem and Ramdas Pophale) SiO2 
 PCOD9270218
Probable space group: C 2/C
;
_chemical_formula_sum "Si O2"
_cell_formula_units_Z 36
_cell_length_a 8.159398
_cell_length_b 29.714790
_cell_length_c 7.987544
_cell_angle_alpha 90.000000
_cell_angle_beta 115.096663
_cell_angle_gamma 90.000000
_cell_volume 1753.789013
_symmetry_space_group_name_H-M "C 2/C"
_symmetry_group_IT_number 15
_symmetry_cell_setting 'monoclinic'
loop_
_space_group_symop_operation_xyz
x,y,z
-x,y,1/2-z
-x,-y,-z
x,-y,1/2+z
1/2+x,1/2+y,z
1/2-x,1/2+y,1/2-z
1/2-x,1/2-y,-z
1/2+x,1/2-y,1/2+z
loop_
_atom_site_type_symbol
_atom_site_label
_atom_site_fract_x
_atom_site_fract_y
_atom_site_fract_z
Si Si1 0.809299 0.483621 0.067353
Si Si2 0.945256 0.597734 0.417922
Si Si3 0.630026 0.198073 0.138583
Si Si4 0.000000 0.251342 0.250000
Si Si5 0.691315 0.430438 0.312530
O O1 0.678254 0.458595 0.137048
O O2 0.000000 0.488118 0.250000
O O3 0.736274 0.530325 0.966540
O O4 0.845466 0.446890 0.938448
O O5 0.131982 0.600498 0.605655
O O6 0.000000 0.592373 0.250000
O O7 0.843425 0.644796 0.382085
O O8 0.500000 0.203068 0.250000
O O9 0.825639 0.221828 0.229544
O O10 0.542313 0.219141 0.933177
O O11 0.500000 0.406712 0.250000
#
# Coordination Sequence:
#
# PCOD9270218 Si02
#       5
#     8   8   8   4   8
#     4  10  20  35  57  75 115 159 196 240 295 348
#     4  10  21  39  57  81 118 154 194 241 296 355
#     4  10  22  42  66  95 125 162 201 253 310 368
#     4  10  22  42  70  92 126 158 208 246 316 372
#     4  11  21  35  54  85 114 155 201 243 294 342
#
# _framework density 20.526983999999999
#
# number of rings (size 3 to 8) (size 9 to 14) (size 15 to 20)
#    0.000    1.778    0.000    6.000    4.667    0.000 
#   10.000    1.111    0.000    0.000    0.000    0.000 
#    0.000    0.000    0.000    0.000    0.000    0.000 
#
# Total GULP energy -100409.089783 kJ/mol
# GULP energy per Si atom -5578.282766 kJ/mol
# Density = 2.048026 g / cm^3
# Si number density = 20.526984 Si / 1000 Ang^3
#
#
#
# Elastic Constant Matrix: (Units=GPa)
#
#
# Indices 1 2 3 4 5 6 
#
# 1 60.5599 -0.0231 16.9192 0.0000 1.0614 0.0000
# 2 -0.0231 79.4433 32.0089 0.0000 1.0110 0.0000
# 3 16.9192 32.0089 73.1339 0.0000 -11.8076 0.0000
# 4 0.0000 0.0000 0.0000 6.4880 0.0000 -0.0654
# 5 1.0614 1.0110 -11.8076 0.0000 20.1959 0.0000
# 6 0.0000 0.0000 0.0000 -0.0654 0.0000 12.2398
#
#
#
# Elastic Compliance Matrix: (Units=1/GPa)
#
#
# Indices 1 2 3 4 5 6 
#
# 1 0.018294 0.002515 -0.006083 0.000000 -0.004644 0.000000
# 2 0.002515 0.016132 -0.008607 0.000000 -0.005972 0.000000
# 3 -0.006083 -0.008607 0.020946 0.000000 0.012997 0.000000
# 4 0.000000 0.000000 0.000000 0.154139 0.000000 0.000823
# 5 -0.004644 -0.005972 0.012997 0.000000 0.057657 0.000000
# 6 0.000000 0.000000 0.000000 0.000823 0.000000 0.081705
#
#
# Mechanical properties :
#
#
# Convention : Reuss Voigt Hill
#
# Bulk Modulus (GPa) = 32.23318 34.54970 33.39144
# Shear Modulus (GPa) = 13.03568 18.73355 15.88462
#
# Velocity S-wave (km/s) = 2.52276 3.02425 2.78482
# Velocity P-wave (km/s) = 4.92165 5.39099 5.16166
#
# Compressibility (1/GPa) = 0.03102394
#
# Stress axis : x y z
#
# Youngs Moduli (GPa) = 54.66158 61.98832 47.74161
#
# Poissons Ratio (x) = -0.15592 0.29041
# Poissons Ratio (y) = -0.13749 0.41090
# Poissons Ratio (z) = 0.33251 0.53351
#
# Static dielectric constant tensor:
#      x y z
#    x 1.847440 0.000000 -0.001610 
#    y 0.000000 1.697850 0.000000 
#    z -0.001610 0.000000 1.792330 
# 
# From -- ./inp_files/24299.got.cif
#   From: 2010.05.17/outbox.cif.g08.bks.cpg/sg15_13_cif.got.tgz:24299.got - 2010.06.03 18:47:42.
