data_PCOD9270712
_publ_section_title
;
Structure prediction by ZEFSAII (Michael W. Deem and Ramdas Pophale) SiO2 
 PCOD9270712
Probable space group: C 2/C
;
_chemical_formula_sum "Si O2"
_cell_formula_units_Z 48
_cell_length_a 22.172177
_cell_length_b 8.461448
_cell_length_c 19.635646
_cell_angle_alpha 90.000000
_cell_angle_beta 41.099780
_cell_angle_gamma 90.000000
_cell_volume 2421.640411
_symmetry_space_group_name_H-M "C 2/C"
_symmetry_group_IT_number 15
_symmetry_cell_setting 'monoclinic'
loop_
_space_group_symop_operation_xyz
x,y,z
-x,y,1/2-z
-x,-y,-z
x,-y,1/2+z
1/2+x,1/2+y,z
1/2-x,1/2+y,1/2-z
1/2-x,1/2-y,-z
1/2+x,1/2-y,1/2+z
loop_
_atom_site_type_symbol
_atom_site_label
_atom_site_fract_x
_atom_site_fract_y
_atom_site_fract_z
Si Si1 0.125157 0.940040 0.346494
Si Si2 0.068728 0.901283 0.033596
Si Si3 0.215752 0.273052 0.238523
Si Si4 0.606046 0.605181 0.130123
Si Si5 0.901828 0.438975 0.058320
Si Si6 0.712772 0.841346 0.946885
O O1 0.194089 0.795281 0.292589
O O2 0.040983 0.902877 0.370454
O O3 0.092535 0.978369 0.451416
O O4 0.172557 0.100943 0.282263
O O5 0.104031 0.969120 0.074321
O O6 0.095711 0.727731 0.984642
O O7 0.148965 0.400044 0.327822
O O8 0.242812 0.297227 0.137498
O O9 0.500000 0.619940 0.250000
O O10 0.695216 0.573992 0.102584
O O11 0.643148 0.765840 0.060985
O O12 0.846967 0.556815 0.055569
O O13 0.000000 0.500000 0.000000
#
# Coordination Sequence:
#
# PCOD9270712 Si02
#       6
#     8   8   8   8   8   8
#     4  10  20  35  62  94 125 161 206 266 330 380
#     4  10  22  40  61  90 129 171 210 262 323 387
#     4  11  20  37  64  95 129 159 207 278 325 390
#     4  11  25  43  67  88 134 187 223 262 318 401
#     4  11  25  40  68 101 132 163 212 283 338 389
#     4  11  24  43  64 101 129 174 227 264 330 397
#
# _framework density 19.821273999999999
#
# number of rings (size 3 to 8) (size 9 to 14) (size 15 to 20)
#    0.000    1.333    3.333    2.000    7.000    0.667 
#    0.000    0.833    0.000    0.000    0.000    0.000 
#    0.000    0.000    0.000    0.000    0.000    0.000 
#
# Total GULP energy -133677.406762 kJ/mol
# GULP energy per Si atom -5569.891948 kJ/mol
# Density = 1.977616 g / cm^3
# Si number density = 19.821274 Si / 1000 Ang^3
#
#
#
# Elastic Constant Matrix: (Units=GPa)
#
#
# Indices 1 2 3 4 5 6 
#
# 1 137.2495 24.7068 48.1229 -0.0001 -13.6820 0.0000
# 2 24.7068 47.3007 25.8514 -0.0005 -0.3525 0.0003
# 3 48.1229 25.8514 109.0154 -0.0001 -9.2157 0.0001
# 4 -0.0001 -0.0005 -0.0001 27.7853 0.0002 0.8685
# 5 -13.6820 -0.3525 -9.2157 0.0002 27.5598 -0.0001
# 6 0.0000 0.0003 0.0001 0.8685 -0.0001 33.5863
#
#
#
# Elastic Compliance Matrix: (Units=1/GPa)
#
#
# Indices 1 2 3 4 5 6 
#
# 1 0.009275 -0.003153 -0.003047 0.000000 0.003546 0.000000
# 2 -0.003153 0.025435 -0.004883 0.000000 -0.002873 0.000000
# 3 -0.003047 -0.004883 0.011879 0.000000 0.002397 0.000000
# 4 0.000000 0.000000 0.000000 0.036019 0.000000 -0.000931
# 5 0.003546 -0.002873 0.002397 0.000000 0.038810 0.000000
# 6 0.000000 0.000000 0.000000 -0.000931 0.000000 0.029798
#
#
# Mechanical properties :
#
#
# Convention : Reuss Voigt Hill
#
# Bulk Modulus (GPa) = 40.94361 54.54755 47.74558
# Shear Modulus (GPa) = 27.54466 30.77857 29.16162
#
# Velocity S-wave (km/s) = 3.73185 3.94484 3.83982
# Velocity P-wave (km/s) = 6.26659 6.95187 6.61810
#
# Compressibility (1/GPa) = 0.02442384
#
# Stress axis : x y z
#
# Youngs Moduli (GPa) = 107.81187 39.31527 84.18548
#
# Poissons Ratio (x) = 0.12397 0.25651
# Poissons Ratio (y) = 0.33995 0.41104
# Poissons Ratio (z) = 0.32850 0.19196
#
# Static dielectric constant tensor:
#      x y z
#    x 1.731410 0.000000 -0.007200 
#    y 0.000000 1.723240 0.000000 
#    z -0.007200 0.000000 1.802790 
# 
# From -- ./inp_files/176978.got.cif
#   From: 2010.05.17/outbox.cif.g08.bks.cpg/sg15_89_cif.got.tgz:176978.got - 2010.06.03 18:47:42.
