data_PCOD9270930
_publ_section_title
;
Structure prediction by ZEFSAII (Michael W. Deem and Ramdas Pophale) SiO2 
 PCOD9270930
Probable space group: C 2/C
;
_chemical_formula_sum "Si O2"
_cell_formula_units_Z 60
_cell_length_a 20.553656
_cell_length_b 15.962844
_cell_length_c 13.653256
_cell_angle_alpha 90.000000
_cell_angle_beta 143.131829
_cell_angle_gamma 90.000000
_cell_volume 2687.629417
_symmetry_space_group_name_H-M "C 2/C"
_symmetry_group_IT_number 15
_symmetry_cell_setting 'monoclinic'
loop_
_space_group_symop_operation_xyz
x,y,z
-x,y,1/2-z
-x,-y,-z
x,-y,1/2+z
1/2+x,1/2+y,z
1/2-x,1/2+y,1/2-z
1/2-x,1/2-y,-z
1/2+x,1/2-y,1/2+z
loop_
_atom_site_type_symbol
_atom_site_label
_atom_site_fract_x
_atom_site_fract_y
_atom_site_fract_z
Si Si1 0.233475 0.649528 0.115310
Si Si2 0.194843 0.331952 0.215136
Si Si3 0.872631 0.089288 0.584965
Si Si4 0.440788 0.413875 0.952671
Si Si5 0.500000 0.289464 0.750000
Si Si6 0.454229 0.178042 0.496236
Si Si7 0.793228 0.910424 0.503183
Si Si8 0.148839 0.804038 0.260226
O O1 0.262819 0.744024 0.184848
O O2 0.348019 0.602331 0.262129
O O3 0.207073 0.636444 0.969475
O O4 0.132548 0.616717 0.056724
O O5 0.255014 0.405114 0.345368
O O6 0.240456 0.329873 0.160447
O O7 0.068540 0.341803 0.084639
O O8 0.869291 0.098889 0.464886
O O9 0.848401 0.169586 0.623202
O O10 0.000000 0.068415 0.750000
O O11 0.809603 0.007823 0.545503
O O12 0.500000 0.500000 0.000000
O O13 0.543125 0.352330 0.087809
O O14 0.482803 0.237040 0.627443
O O15 0.398662 0.351919 0.633900
O O16 0.382273 0.213617 0.318475
#
# Coordination Sequence:
#
# PCOD9270930 Si02
#       8
#     8   8   8   8   4   8   8   8
#     4  11  21  34  55  86 118 154 198 249 310 358
#     4  11  21  35  55  85 121 160 193 241 307 358
#     4  10  22  35  59  85 117 153 196 249 301 359
#     4  11  21  37  61  87 116 152 197 254 304 361
#     4  12  18  30  52  90 122 148 188 244 322 364
#     4  11  22  35  56  81 125 158 196 248 302 366
#     4  12  20  32  55  90 122 152 188 249 315 369
#     4  10  20  36  55  84 119 150 200 241 296 357
#
# _framework density 22.324506
#
# number of rings (size 3 to 8) (size 9 to 14) (size 15 to 20)
#    0.000    1.067    6.000    3.600    0.000    0.000 
#    0.000    2.667    0.000    8.800    0.000    0.000 
#    0.000    0.000    0.000    0.000    0.000    0.000 
#
# Total GULP energy -167189.110458 kJ/mol
# GULP energy per Si atom -5572.970349 kJ/mol
# Density = 2.227369 g / cm^3
# Si number density = 22.324506 Si / 1000 Ang^3
#
#
#
# Elastic Constant Matrix: (Units=GPa)
#
#
# Indices 1 2 3 4 5 6 
#
# 1 158.4031 12.1780 31.9516 0.0000 11.9741 0.0000
# 2 12.1780 23.9885 -0.7106 0.0000 -2.9874 0.0000
# 3 31.9516 -0.7106 52.7980 0.0000 10.5355 0.0000
# 4 0.0000 0.0000 0.0000 16.0000 0.0000 1.4163
# 5 11.9741 -2.9874 10.5355 0.0000 46.8510 0.0000
# 6 0.0000 0.0000 0.0000 1.4163 0.0000 20.8183
#
#
#
# Elastic Compliance Matrix: (Units=1/GPa)
#
#
# Indices 1 2 3 4 5 6 
#
# 1 0.007616 -0.004149 -0.004422 0.000000 -0.001217 0.000000
# 2 -0.004149 0.044281 0.002441 0.000000 0.003335 0.000000
# 3 -0.004422 0.002441 0.022397 0.000000 -0.003751 0.000000
# 4 0.000000 0.000000 0.000000 0.062879 0.000000 -0.004278
# 5 -0.001217 0.003335 -0.003751 0.000000 0.022711 0.000000
# 6 0.000000 0.000000 0.000000 -0.004278 0.000000 0.048326
#
#
# Mechanical properties :
#
#
# Convention : Reuss Voigt Hill
#
# Bulk Modulus (GPa) = 16.11999 35.78085 25.95042
# Shear Modulus (GPa) = 20.73426 29.51856 25.12641
#
# Velocity S-wave (km/s) = 3.05087 3.64022 3.35850
# Velocity P-wave (km/s) = 4.43248 5.80781 5.16612
#
# Compressibility (1/GPa) = 0.06203478
#
# Stress axis : x y z
#
# Youngs Moduli (GPa) = 131.30437 22.58329 44.64801
#
# Poissons Ratio (x) = 0.09369 0.19743
# Poissons Ratio (y) = 0.54476 -0.10900
# Poissons Ratio (z) = 0.58062 -0.05513
#
# Static dielectric constant tensor:
#      x y z
#    x 1.951390 0.000000 -0.115460 
#    y 0.000000 1.862690 0.000000 
#    z -0.115460 0.000000 1.958600 
# 
# From -- ./inp_files/168644.got.cif
#   From: 2010.05.17/outbox.cif.g08.bks.cpg/sg15_85_cif.got.tgz:168644.got - 2010.06.03 18:47:42.
