data_PCOD9270497
_publ_section_title
;
Structure prediction by ZEFSAII (Michael W. Deem and Ramdas Pophale) SiO2 
 PCOD9270497
Probable space group: C 2/C
;
_chemical_formula_sum "Si O2"
_cell_formula_units_Z 52
_cell_length_a 7.542028
_cell_length_b 25.025850
_cell_length_c 13.272923
_cell_angle_alpha 90.000000
_cell_angle_beta 67.506895
_cell_angle_gamma 90.000000
_cell_volume 2314.624485
_symmetry_space_group_name_H-M "C 2/C"
_symmetry_group_IT_number 15
_symmetry_cell_setting 'monoclinic'
loop_
_space_group_symop_operation_xyz
x,y,z
-x,y,1/2-z
-x,-y,-z
x,-y,1/2+z
1/2+x,1/2+y,z
1/2-x,1/2+y,1/2-z
1/2-x,1/2-y,-z
1/2+x,1/2-y,1/2+z
loop_
_atom_site_type_symbol
_atom_site_label
_atom_site_fract_x
_atom_site_fract_y
_atom_site_fract_z
Si Si1 0.206162 0.722412 0.164183
Si Si2 0.497328 0.216007 0.007671
Si Si3 0.627204 0.979726 0.379046
Si Si4 0.500000 0.935581 0.750000
Si Si5 0.366467 0.383561 0.627828
Si Si6 0.500000 0.109422 0.750000
Si Si7 0.695027 0.669156 0.938943
Si Si8 0.500000 0.524266 0.250000
O O1 0.362982 0.767947 0.115012
O O2 0.311250 0.672681 0.195469
O O3 0.000000 0.738567 0.250000
O O4 0.141669 0.702315 0.066320
O O5 0.340313 0.174541 0.003148
O O6 0.384438 0.270822 0.060856
O O7 0.551341 0.927912 0.335748
O O8 0.500000 0.000000 0.500000
O O9 0.611291 0.026999 0.301140
O O10 0.855847 0.983224 0.340419
O O11 0.651880 0.903477 0.650998
O O12 0.514986 0.366960 0.509684
O O13 0.454650 0.431683 0.672372
O O14 0.318476 0.144721 0.822414
#
# Coordination Sequence:
#
# PCOD9270497 Si02
#       8
#     8   8   8   4   8   4   8   4
#     4  10  20  35  60  86 122 162 206 247 315 376
#     4   9  22  40  56  89 128 166 201 257 315 361
#     4  10  22  41  62  87 124 159 197 262 317 375
#     4   9  20  38  60  88 114 152 198 248 324 369
#     4  10  20  35  59  89 114 154 205 258 298 377
#     4  11  24  40  63  92 122 168 215 250 320 383
#     4  10  22  40  60  88 124 164 211 257 307 374
#     4  10  22  38  61  92 116 154 207 248 326 366
#
# _framework density 22.465845000000002
#
# number of rings (size 3 to 8) (size 9 to 14) (size 15 to 20)
#    0.000    2.154    0.769    0.923    4.308    2.462 
#    0.000    7.692    0.000    0.000    0.000    0.000 
#    0.000    0.000    0.000    0.000    0.000    0.000 
#
# Total GULP energy -144739.113911 kJ/mol
# GULP energy per Si atom -5566.888997 kJ/mol
# Density = 2.241471 g / cm^3
# Si number density = 22.465845 Si / 1000 Ang^3
#
#
#
# Elastic Constant Matrix: (Units=GPa)
#
#
# Indices 1 2 3 4 5 6 
#
# 1 38.4000 14.5029 16.9340 0.0000 -22.6709 0.0000
# 2 14.5029 67.6035 40.5772 0.0000 -15.7851 0.0000
# 3 16.9340 40.5772 109.6272 0.0000 -40.5729 0.0000
# 4 0.0000 0.0000 0.0000 6.7984 0.0000 -4.4486
# 5 -22.6709 -15.7851 -40.5729 0.0000 46.7486 0.0000
# 6 0.0000 0.0000 0.0000 -4.4486 0.0000 45.4193
#
#
#
# Elastic Compliance Matrix: (Units=1/GPa)
#
#
# Indices 1 2 3 4 5 6 
#
# 1 0.038262 -0.005705 0.003471 0.000000 0.019641 0.000000
# 2 -0.005705 0.019875 -0.007389 0.000000 -0.002469 0.000000
# 3 0.003471 -0.007389 0.016235 0.000000 0.013278 0.000000
# 4 0.000000 0.000000 0.000000 0.157167 0.000000 0.015394
# 5 0.019641 -0.002469 0.013278 0.000000 0.041607 0.000000
# 6 0.000000 0.000000 0.000000 0.015394 0.000000 0.023525
#
#
# Mechanical properties :
#
#
# Convention : Reuss Voigt Hill
#
# Bulk Modulus (GPa) = 18.14086 39.96210 29.05148
# Shear Modulus (GPa) = 14.95702 29.36768 22.16235
#
# Velocity S-wave (km/s) = 2.58305 3.61946 3.14425
# Velocity P-wave (km/s) = 4.12172 5.94087 5.11285
#
# Compressibility (1/GPa) = 0.05512419
#
# Stress axis : x y z
#
# Youngs Moduli (GPa) = 26.13585 50.31569 61.59589
#
# Poissons Ratio (x) = 0.28706 -0.21377
# Poissons Ratio (y) = 0.14911 0.45511
# Poissons Ratio (z) = -0.09070 0.37176
#
# Static dielectric constant tensor:
#      x y z
#    x 4.794810 0.000000 -0.626480 
#    y 0.000000 1.827750 0.000000 
#    z -0.626480 0.000000 2.011990 
# 
# From -- ./inp_files/138198.got.cif
#   From: 2010.05.17/outbox.cif.g08.bks.cpg/sg15_70_cif.got.tgz:138198.got - 2010.06.03 18:47:42.
