data_PCOD9270319
_publ_section_title
;
Structure prediction by ZEFSAII (Michael W. Deem and Ramdas Pophale) SiO2 
 PCOD9270319
Probable space group: C 2/C
;
_chemical_formula_sum "Si O2"
_cell_formula_units_Z 52
_cell_length_a 12.065818
_cell_length_b 29.165707
_cell_length_c 8.683662
_cell_angle_alpha 90.000000
_cell_angle_beta 54.661685
_cell_angle_gamma 90.000000
_cell_volume 2492.813536
_symmetry_space_group_name_H-M "C 2/C"
_symmetry_group_IT_number 15
_symmetry_cell_setting 'monoclinic'
loop_
_space_group_symop_operation_xyz
x,y,z
-x,y,1/2-z
-x,-y,-z
x,-y,1/2+z
1/2+x,1/2+y,z
1/2-x,1/2+y,1/2-z
1/2-x,1/2-y,-z
1/2+x,1/2-y,1/2+z
loop_
_atom_site_type_symbol
_atom_site_label
_atom_site_fract_x
_atom_site_fract_y
_atom_site_fract_z
Si Si1 0.154044 0.530470 0.588518
Si Si2 0.340057 0.188537 0.570774
Si Si3 0.391089 0.629802 0.206790
Si Si4 0.162299 0.365725 0.133893
Si Si5 0.395719 0.709310 0.973500
Si Si6 0.500000 0.878064 0.750000
Si Si7 0.267339 0.055411 0.317947
O O1 0.177526 0.579579 0.651028
O O2 0.168890 0.539279 0.395717
O O3 0.250843 0.489914 0.566716
O O4 0.000000 0.516062 0.750000
O O5 0.283154 0.164870 0.769650
O O6 0.378332 0.241298 0.566359
O O7 0.240084 0.191773 0.504062
O O8 0.462267 0.155600 0.420018
O O9 0.500000 0.619372 0.250000
O O10 0.250552 0.642421 0.409202
O O11 0.361588 0.585755 0.124864
O O12 0.435975 0.671690 0.064946
O O13 0.000000 0.356965 0.250000
O O14 0.500000 0.715232 0.750000
O O15 0.626988 0.910452 0.684823
#
# Coordination Sequence:
#
# PCOD9270319 Si02
#       7
#     8   8   8   8   8   4   8
#     4  10  20  35  57  96 127 154 208 256 318 382
#     4  11  23  38  63  91 127 158 213 264 317 369
#     4  11  24  45  62  89 133 173 217 257 315 382
#     4  10  23  40  65  96 129 163 209 263 320 380
#     4  11  24  41  62  92 122 168 219 259 313 378
#     4  12  20  38  64  92 130 156 206 270 320 366
#     4  11  23  36  62  92 124 165 204 262 318 373
#
# _framework density 20.859963
#
# number of rings (size 3 to 8) (size 9 to 14) (size 15 to 20)
#    0.000    1.231    3.077    4.154    2.154    1.231 
#    0.000    3.077    0.000    1.846    0.000    0.000 
#    0.000    0.000    0.000    0.000    0.000    0.000 
#
# Total GULP energy -145272.762675 kJ/mol
# GULP energy per Si atom -5587.413949 kJ/mol
# Density = 2.081248 g / cm^3
# Si number density = 20.859963 Si / 1000 Ang^3
#
#
#
# Elastic Constant Matrix: (Units=GPa)
#
#
# Indices 1 2 3 4 5 6 
#
# 1 82.8896 47.4611 -7.4822 0.0000 9.9353 0.0000
# 2 47.4611 132.9024 18.3816 0.0000 25.7957 0.0000
# 3 -7.4822 18.3816 34.5800 0.0000 5.1358 0.0000
# 4 0.0000 0.0000 0.0000 22.1790 0.0000 2.1695
# 5 9.9353 25.7957 5.1358 0.0000 26.0154 0.0000
# 6 0.0000 0.0000 0.0000 2.1695 0.0000 -0.2839
#
#
#
# Elastic Compliance Matrix: (Units=1/GPa)
#
#
# Indices 1 2 3 4 5 6 
#
# 1 0.016754 -0.006788 0.007401 0.000000 -0.001129 0.000000
# 2 -0.006788 0.012548 -0.006877 0.000000 -0.008492 0.000000
# 3 0.007401 -0.006877 0.034597 0.000000 -0.002837 0.000000
# 4 0.000000 0.000000 0.000000 0.025800 0.000000 0.197175
# 5 -0.001129 -0.008492 -0.002837 0.000000 0.047850 0.000000
# 6 0.000000 0.000000 0.000000 0.197175 0.000000 -2.015705
#
#
# Mechanical properties :
#
#
# Convention : Reuss Voigt Hill
#
# Bulk Modulus (GPa) = 19.46635 40.78811 30.12723
# Shear Modulus (GPa) = -2.70489 22.38286 9.83899
#
# Velocity S-wave (km/s) = -1.13996 3.27923 2.17415
# Velocity P-wave (km/s) = 2.76035 5.82525 4.55813
#
# Compressibility (1/GPa) = 0.05137069
#
# Stress axis : x y z
#
# Youngs Moduli (GPa) = 59.68696 79.69604 28.90424
#
# Poissons Ratio (x) = 0.54094 -0.21392
# Poissons Ratio (y) = 0.40513 0.19879
# Poissons Ratio (z) = -0.44174 0.54810
#
# Static dielectric constant tensor:
#      x y z
#    x 1.788770 0.000000 -0.020520 
#    y 0.000000 1.734350 0.000000 
#    z -0.020520 0.000000 1.776480 
# 
# From -- ./inp_files/34114.got.cif
#   From: 2010.05.17/outbox.cif.g08.bks.cpg/sg15_18_cif.got.tgz:34114.got - 2010.06.03 18:47:42.
