data_PCOD9270400
_publ_section_title
;
Structure prediction by ZEFSAII (Michael W. Deem and Ramdas Pophale) SiO2 
 PCOD9270400
Probable space group: C 2/C
;
_chemical_formula_sum "Si O2"
_cell_formula_units_Z 52
_cell_length_a 21.562413
_cell_length_b 21.673399
_cell_length_c 8.151151
_cell_angle_alpha 90.000000
_cell_angle_beta 38.465980
_cell_angle_gamma 90.000000
_cell_volume 2369.564370
_symmetry_space_group_name_H-M "C 2/C"
_symmetry_group_IT_number 15
_symmetry_cell_setting 'monoclinic'
loop_
_space_group_symop_operation_xyz
x,y,z
-x,y,1/2-z
-x,-y,-z
x,-y,1/2+z
1/2+x,1/2+y,z
1/2-x,1/2+y,1/2-z
1/2-x,1/2-y,-z
1/2+x,1/2-y,1/2+z
loop_
_atom_site_type_symbol
_atom_site_label
_atom_site_fract_x
_atom_site_fract_y
_atom_site_fract_z
Si Si1 0.500000 0.169925 0.250000
Si Si2 0.542770 0.336429 0.972428
Si Si3 0.500000 0.971776 0.250000
Si Si4 0.754162 0.404713 0.579395
Si Si5 0.000000 0.084174 0.250000
Si Si6 0.143708 0.717088 0.708966
Si Si7 0.719642 0.467455 0.311131
Si Si8 0.109557 0.425803 0.736890
O O1 0.401433 0.202535 0.519293
O O2 0.455871 0.129549 0.195919
O O3 0.648908 0.369648 0.780545
O O4 0.488212 0.377170 0.945144
O O5 0.565038 0.271431 0.830624
O O6 0.500000 0.330232 0.250000
O O7 0.421985 0.932729 0.512725
O O8 0.436047 0.015029 0.263658
O O9 0.834991 0.348871 0.422682
O O10 0.769301 0.441236 0.375058
O O11 0.737371 0.460381 0.741140
O O12 0.898180 0.045436 0.441522
O O13 0.250000 0.750000 0.500000
O O14 0.775698 0.427947 0.053025
#
# Coordination Sequence:
#
# PCOD9270400 Si02
#       8
#     4   8   4   8   4   8   8   8
#     4  11  20  38  65  89 116 166 212 259 340 380
#     4  10  22  43  70  91 130 182 234 280 336 398
#     4   9  20  34  53  86 123 166 206 243 320 394
#     4  10  23  37  65  94 135 177 219 275 344 408
#     4  10  26  42  66 105 139 178 226 290 338 410
#     4  10  21  42  66  91 121 176 228 275 328 401
#     4  11  22  39  61  99 140 171 216 278 342 411
#     4  10  20  35  58  87 128 167 204 262 318 401
#
# _framework density 21.944963000000001
#
# number of rings (size 3 to 8) (size 9 to 14) (size 15 to 20)
#    0.000    1.846    2.308    0.923    7.538    1.231 
#    0.000    0.769    3.385    6.462    0.000    0.000 
#    0.000    0.000    0.000    0.000    0.000    0.000 
#
# Total GULP energy -144780.547527 kJ/mol
# GULP energy per Si atom -5568.482597 kJ/mol
# Density = 2.189501 g / cm^3
# Si number density = 21.944963 Si / 1000 Ang^3
#
#
#
# Elastic Constant Matrix: (Units=GPa)
#
#
# Indices 1 2 3 4 5 6 
#
# 1 58.1194 34.0801 32.3479 0.0000 -0.4121 0.0000
# 2 34.0801 128.8247 48.0213 0.0000 6.4815 0.0000
# 3 32.3479 48.0213 143.5366 0.0000 1.0631 0.0000
# 4 0.0000 0.0000 0.0000 33.3346 0.0000 5.1724
# 5 -0.4121 6.4815 1.0631 0.0000 29.0314 0.0000
# 6 0.0000 0.0000 0.0000 5.1724 0.0000 16.9413
#
#
#
# Elastic Compliance Matrix: (Units=1/GPa)
#
#
# Indices 1 2 3 4 5 6 
#
# 1 0.021784 -0.004572 -0.003390 0.000000 0.001454 0.000000
# 2 -0.004572 0.009931 -0.002276 0.000000 -0.002199 0.000000
# 3 -0.003390 -0.002276 0.008491 0.000000 0.000149 0.000000
# 4 0.000000 0.000000 0.000000 0.031491 0.000000 -0.009615
# 5 0.001454 -0.002199 0.000149 0.000000 0.034952 0.000000
# 6 0.000000 0.000000 0.000000 -0.009615 0.000000 0.061963
#
#
# Mechanical properties :
#
#
# Convention : Reuss Voigt Hill
#
# Bulk Modulus (GPa) = 50.68538 62.15326 56.41932
# Shear Modulus (GPa) = 25.55382 30.26355 27.90869
#
# Velocity S-wave (km/s) = 3.41611 3.71761 3.57004
# Velocity P-wave (km/s) = 6.22145 6.84188 6.53903
#
# Compressibility (1/GPa) = 0.01972955
#
# Stress axis : x y z
#
# Youngs Moduli (GPa) = 45.90427 100.69452 117.76850
#
# Poissons Ratio (x) = 0.46041 0.39929
# Poissons Ratio (y) = 0.20989 0.26802
# Poissons Ratio (z) = 0.15564 0.22916
#
# Static dielectric constant tensor:
#      x y z
#    x 1.864870 0.000000 0.023760 
#    y 0.000000 1.903970 0.000000 
#    z 0.023760 0.000000 1.828630 
# 
# From -- ./inp_files/63377.got.cif
#   From: 2010.05.17/outbox.cif.g08.bks.cpg/sg15_32_cif.got.tgz:63377.got - 2010.06.03 18:47:42.
