data_PCOD9270764
_publ_section_title
;
Structure prediction by ZEFSAII (Michael W. Deem and Ramdas Pophale) SiO2 
 PCOD9270764
Probable space group: C 2/C
;
_chemical_formula_sum "Si O2"
_cell_formula_units_Z 56
_cell_length_a 30.838115
_cell_length_b 9.015870
_cell_length_c 21.930662
_cell_angle_alpha 90.000000
_cell_angle_beta 28.382589
_cell_angle_gamma 90.000000
_cell_volume 2898.457857
_symmetry_space_group_name_H-M "C 2/C"
_symmetry_group_IT_number 15
_symmetry_cell_setting 'monoclinic'
loop_
_space_group_symop_operation_xyz
x,y,z
-x,y,1/2-z
-x,-y,-z
x,-y,1/2+z
1/2+x,1/2+y,z
1/2-x,1/2+y,1/2-z
1/2-x,1/2-y,-z
1/2+x,1/2-y,1/2+z
loop_
_atom_site_type_symbol
_atom_site_label
_atom_site_fract_x
_atom_site_fract_y
_atom_site_fract_z
Si Si1 0.132880 0.511050 0.372538
Si Si2 0.140848 0.401695 0.155194
Si Si3 0.957083 0.610735 0.141642
Si Si4 0.714019 0.308635 0.767249
Si Si5 0.979660 0.842232 0.843302
Si Si6 0.217600 0.288808 0.942316
Si Si7 0.475908 0.561426 0.962265
O O1 0.088968 0.544388 0.361967
O O2 0.192367 0.650596 0.316761
O O3 0.194827 0.365535 0.290787
O O4 0.056130 0.468615 0.516953
O O5 0.101802 0.554603 0.229022
O O6 0.217406 0.331648 0.105077
O O7 0.055050 0.287949 0.257740
O O8 0.186141 0.403802 0.032808
O O9 0.970319 0.785558 0.117552
O O10 0.725344 0.357884 0.683226
O O11 0.629914 0.390274 0.902738
O O12 0.000000 0.907880 0.750000
O O13 0.989904 0.948794 0.888997
O O14 0.875656 0.783006 0.968243
O O15 0.500000 0.500000 0.000000
#
# Coordination Sequence:
#
# PCOD9270764 Si02
#       7
#     8   8   8   8   8   8   8
#     4  10  22  35  58  84 124 158 197 261 310 373
#     4  10  20  39  64  87 120 163 209 259 318 369
#     4  10  22  39  56  89 123 165 203 257 319 367
#     4  11  21  37  57  91 120 153 205 256 308 370
#     4  10  22  41  64  91 125 167 209 258 314 384
#     4  10  20  35  64  92 117 159 212 258 306 386
#     4  11  25  38  62  92 126 171 206 257 325 383
#
# _framework density 19.320619000000001
#
# number of rings (size 3 to 8) (size 9 to 14) (size 15 to 20)
#    0.000    1.714    1.429    2.571    8.000    0.000 
#    0.000    5.000    0.000   12.000    0.000    0.000 
#    0.000    0.000    0.000    0.000    0.000    0.000 
#
# Total GULP energy -156277.231541 kJ/mol
# GULP energy per Si atom -5581.329698 kJ/mol
# Density = 1.927664 g / cm^3
# Si number density = 19.320619 Si / 1000 Ang^3
#
#
#
# Elastic Constant Matrix: (Units=GPa)
#
#
# Indices 1 2 3 4 5 6 
#
# 1 69.5767 34.1340 31.9528 -0.0006 -2.3046 0.0002
# 2 34.1340 59.0893 37.4023 -0.0025 9.7357 0.0004
# 3 31.9528 37.4023 83.8527 -0.0016 20.3173 0.0003
# 4 -0.0006 -0.0025 -0.0016 31.3797 0.0006 0.8367
# 5 -2.3046 9.7357 20.3173 0.0006 45.3419 -0.0001
# 6 0.0002 0.0004 0.0003 0.8367 -0.0001 29.2676
#
#
#
# Elastic Compliance Matrix: (Units=1/GPa)
#
#
# Indices 1 2 3 4 5 6 
#
# 1 0.022016 -0.010411 -0.005113 -0.000001 0.005646 0.000000
# 2 -0.010411 0.028511 -0.008008 0.000002 -0.003063 0.000000
# 3 -0.005113 -0.008008 0.019174 0.000000 -0.007132 0.000000
# 4 -0.000001 0.000002 0.000000 0.031892 -0.000001 -0.000912
# 5 0.005646 -0.003063 -0.007132 -0.000001 0.026195 0.000000
# 6 0.000000 0.000000 0.000000 -0.000912 0.000000 0.034194
#
#
# Mechanical properties :
#
#
# Convention : Reuss Voigt Hill
#
# Bulk Modulus (GPa) = 44.17738 46.61079 45.39408
# Shear Modulus (GPa) = 23.08485 28.46648 25.77566
#
# Velocity S-wave (km/s) = 3.46038 3.84262 3.65650
# Velocity P-wave (km/s) = 6.23544 6.62306 6.43217
#
# Compressibility (1/GPa) = 0.02263602
#
# Stress axis : x y z
#
# Youngs Moduli (GPa) = 45.42235 35.07372 52.15353
#
# Poissons Ratio (x) = 0.36517 0.26667
# Poissons Ratio (y) = 0.47291 0.41765
# Poissons Ratio (z) = 0.23225 0.28087
#
# Static dielectric constant tensor:
#      x y z
#    x 1.702220 0.000000 0.001270 
#    y 0.000000 1.658700 0.000000 
#    z 0.001270 0.000000 1.697450 
# 
# From -- ./inp_files/258974.got.cif
#   From: 2010.05.17/outbox.cif.g08.bks.cpg/sg15_130_cif.got.tgz:258974.got - 2010.06.03 18:47:42.
