data_PCOD9270484
_publ_section_title
;
Structure prediction by ZEFSAII (Michael W. Deem and Ramdas Pophale) SiO2 
 PCOD9270484
Probable space group: C 2/C
;
_chemical_formula_sum "Si O2"
_cell_formula_units_Z 48
_cell_length_a 14.117045
_cell_length_b 22.334192
_cell_length_c 9.539738
_cell_angle_alpha 90.000000
_cell_angle_beta 38.991271
_cell_angle_gamma 90.000000
_cell_volume 1892.520429
_symmetry_space_group_name_H-M "C 2/C"
_symmetry_group_IT_number 15
_symmetry_cell_setting 'monoclinic'
loop_
_space_group_symop_operation_xyz
x,y,z
-x,y,1/2-z
-x,-y,-z
x,-y,1/2+z
1/2+x,1/2+y,z
1/2-x,1/2+y,1/2-z
1/2-x,1/2-y,-z
1/2+x,1/2-y,1/2+z
loop_
_atom_site_type_symbol
_atom_site_label
_atom_site_fract_x
_atom_site_fract_y
_atom_site_fract_z
Si Si1 0.784947 0.489740 0.661844
Si Si2 0.960113 0.411837 0.641017
Si Si3 0.629032 0.198743 0.424547
Si Si4 0.531350 0.707573 0.563730
Si Si5 0.261311 0.387110 0.970798
Si Si6 0.074100 0.904956 0.438292
O O1 0.804628 0.446041 0.774903
O O2 0.821760 0.447261 0.486184
O O3 0.635414 0.530212 0.821554
O O4 0.912305 0.539405 0.528760
O O5 0.963336 0.355664 0.536196
O O6 0.000000 0.390563 0.750000
O O7 0.536554 0.257466 0.492610
O O8 0.677548 0.173417 0.520309
O O9 0.790096 0.202972 0.160816
O O10 0.500000 0.737264 0.750000
O O11 0.443614 0.643993 0.662299
O O12 0.412896 0.398653 0.702394
O O13 0.309990 0.385711 0.073733
#
# Coordination Sequence:
#
# PCOD9270484 Si02
#       6
#     8   8   8   8   8   8
#     4  10  20  35  59  87 119 160 199 235 303 355
#     4  10  21  35  57  85 121 155 195 247 295 352
#     4  10  23  40  62  85 121 157 199 253 301 349
#     4  11  24  40  62  89 118 157 205 249 302 357
#     4   9  20  41  58  90 123 156 195 252 296 354
#     4  10  21  37  62  87 124 156 201 242 298 360
#
# _framework density 25.363002000000002
#
# number of rings (size 3 to 8) (size 9 to 14) (size 15 to 20)
#    0.000    2.000    0.000    2.500    4.667    0.667 
#    6.000    0.000    0.000    0.000    0.000    0.000 
#    0.000    0.000    0.000    0.000    0.000    0.000 
#
# Total GULP energy -134029.985126 kJ/mol
# GULP energy per Si atom -5584.582714 kJ/mol
# Density = 2.530528 g / cm^3
# Si number density = 25.363002 Si / 1000 Ang^3
#
#
#
# Elastic Constant Matrix: (Units=GPa)
#
#
# Indices 1 2 3 4 5 6 
#
# 1 112.4680 30.9361 13.1483 0.0000 -2.8965 0.0000
# 2 30.9361 88.5010 7.3481 0.0000 -18.5566 0.0000
# 3 13.1483 7.3481 47.4447 0.0000 -21.1404 0.0000
# 4 0.0000 0.0000 0.0000 8.7742 0.0000 29.6077
# 5 -2.8965 -18.5566 -21.1404 0.0000 39.1214 0.0000
# 6 0.0000 0.0000 0.0000 29.6077 0.0000 -61.5394
#
#
#
# Elastic Compliance Matrix: (Units=1/GPa)
#
#
# Indices 1 2 3 4 5 6 
#
# 1 0.010321 -0.003950 -0.003613 0.000000 -0.003062 0.000000
# 2 -0.003950 0.014090 0.002318 0.000000 0.007644 0.000000
# 3 -0.003613 0.002318 0.029096 0.000000 0.016555 0.000000
# 4 0.000000 0.000000 0.000000 0.043442 0.000000 0.020901
# 5 -0.003062 0.007644 0.016555 0.000000 0.037906 0.000000
# 6 0.000000 0.000000 0.000000 0.020901 0.000000 -0.006194
#
#
# Mechanical properties :
#
#
# Convention : Reuss Voigt Hill
#
# Bulk Modulus (GPa) = 23.24575 39.03095 31.13835
# Shear Modulus (GPa) = 32.57527 10.40334 21.48931
#
# Velocity S-wave (km/s) = 3.58769 2.02748 2.91395
# Velocity P-wave (km/s) = 5.13294 4.57201 4.86057
#
# Compressibility (1/GPa) = 0.04301861
#
# Stress axis : x y z
#
# Youngs Moduli (GPa) = 96.88589 70.97103 34.36914
#
# Poissons Ratio (x) = 0.28033 0.12417
# Poissons Ratio (y) = 0.38269 -0.07968
# Poissons Ratio (z) = 0.35003 -0.16453
#
# Static dielectric constant tensor:
#      x y z
#    x 2.073290 0.000000 -0.020650 
#    y 0.000000 2.027440 0.000000 
#    z -0.020650 0.000000 2.050370 
# 
# From -- ./inp_files/99957.got.cif
#   From: 2010.05.17/outbox.cif.g08.bks.cpg/sg15_50_cif.got.tgz:99957.got - 2010.06.03 18:47:42.
