data_PCOD9270386
_publ_section_title
;
Structure prediction by ZEFSAII (Michael W. Deem and Ramdas Pophale) SiO2 
 PCOD9270386
Probable space group: C 2/C
;
_chemical_formula_sum "Si O2"
_cell_formula_units_Z 48
_cell_length_a 25.231197
_cell_length_b 8.650182
_cell_length_c 20.700800
_cell_angle_alpha 90.000000
_cell_angle_beta 29.009894
_cell_angle_gamma 90.000000
_cell_volume 2191.072386
_symmetry_space_group_name_H-M "C 2/C"
_symmetry_group_IT_number 15
_symmetry_cell_setting 'monoclinic'
loop_
_space_group_symop_operation_xyz
x,y,z
-x,y,1/2-z
-x,-y,-z
x,-y,1/2+z
1/2+x,1/2+y,z
1/2-x,1/2+y,1/2-z
1/2-x,1/2-y,-z
1/2+x,1/2-y,1/2+z
loop_
_atom_site_type_symbol
_atom_site_label
_atom_site_fract_x
_atom_site_fract_y
_atom_site_fract_z
Si Si1 0.804856 0.279014 0.040989
Si Si2 0.640950 0.934430 0.634592
Si Si3 0.784960 0.050274 0.168574
Si Si4 0.907957 0.630573 0.701948
Si Si5 0.371431 0.235817 0.072062
Si Si6 0.749275 0.387504 0.589931
O O1 0.714410 0.178751 0.099694
O O2 0.751891 0.441273 0.119237
O O3 0.841400 0.174235 0.060950
O O4 0.890199 0.332680 0.894976
O O5 0.563912 0.024593 0.765930
O O6 0.717526 0.066505 0.518541
O O7 0.687742 0.958377 0.234395
O O8 0.866715 0.913018 0.098812
O O9 0.723558 0.145489 0.289006
O O10 0.859938 0.791607 0.780797
O O11 0.010277 0.661484 0.547355
O O12 0.341469 0.213735 0.028106
#
# Coordination Sequence:
#
# PCOD9270386 Si02
#       6
#     8   8   8   8   8   8
#     4   8  16  34  59  77 109 156 179 220 288 336
#     4   8  16  33  60  79 112 149 180 225 288 331
#     4  10  21  39  56  82 114 151 189 234 286 331
#     4  10  20  35  58  87 108 145 194 231 283 339
#     4  11  22  36  58  80 114 150 190 240 277 337
#     4   9  18  34  56  83 113 147 181 229 288 327
#
# _framework density 21.907080000000001
#
# number of rings (size 3 to 8) (size 9 to 14) (size 15 to 20)
#    1.000    1.667    0.000    2.000    0.000    0.667 
#    0.000   14.167    3.667    0.000    0.000    0.000 
#    0.000    0.000    0.000    0.000    0.000    0.000 
#
# Total GULP energy -133602.509757 kJ/mol
# GULP energy per Si atom -5566.771240 kJ/mol
# Density = 2.185722 g / cm^3
# Si number density = 21.907080 Si / 1000 Ang^3
#
#
#
# Elastic Constant Matrix: (Units=GPa)
#
#
# Indices 1 2 3 4 5 6 
#
# 1 15.1082 10.1636 0.5806 -0.0004 6.7739 0.0002
# 2 10.1636 108.1583 23.1271 -0.0015 12.4187 0.0013
# 3 0.5806 23.1271 58.1474 -0.0006 11.5441 0.0005
# 4 -0.0004 -0.0015 -0.0006 32.1274 0.0004 12.3929
# 5 6.7739 12.4187 11.5441 0.0004 23.7251 -0.0003
# 6 0.0002 0.0013 0.0005 12.3929 -0.0003 33.0310
#
#
#
# Elastic Compliance Matrix: (Units=1/GPa)
#
#
# Indices 1 2 3 4 5 6 
#
# 1 0.080332 -0.006270 0.006192 0.000002 -0.022667 -0.000001
# 2 -0.006270 0.010895 -0.003868 0.000001 -0.002031 -0.000001
# 3 0.006192 -0.003868 0.020615 0.000001 -0.009774 -0.000001
# 4 0.000002 0.000001 0.000001 0.036393 -0.000002 -0.013654
# 5 -0.022667 -0.002031 -0.009774 -0.000002 0.054440 0.000002
# 6 -0.000001 -0.000001 -0.000001 -0.013654 0.000002 0.035398
#
#
# Mechanical properties :
#
#
# Convention : Reuss Voigt Hill
#
# Bulk Modulus (GPa) = 9.62000 27.68403 18.65201
# Shear Modulus (GPa) = 17.81807 27.61288 22.71548
#
# Velocity S-wave (km/s) = 2.85502 3.55414 3.22359
# Velocity P-wave (km/s) = 3.90755 5.43204 4.73160
#
# Compressibility (1/GPa) = 0.10395013
#
# Stress axis : x y z
#
# Youngs Moduli (GPa) = 12.44832 91.78463 48.50941
#
# Poissons Ratio (x) = 0.57550 -0.30036
# Poissons Ratio (y) = 0.07805 0.18761
# Poissons Ratio (z) = -0.07708 0.35498
#
# Static dielectric constant tensor:
#      x y z
#    x 1.846700 0.000000 0.025360 
#    y 0.000000 1.815840 0.000000 
#    z 0.025360 0.000000 1.784630 
# 
# From -- ./inp_files/257139.got.cif
#   From: 2010.05.17/outbox.cif.g08.bks.cpg/sg15_129_cif.got.tgz:257139.got - 2010.06.03 18:47:42.
