data_PCOD9270909
_publ_section_title
;
Structure prediction by ZEFSAII (Michael W. Deem and Ramdas Pophale) SiO2 
 PCOD9270909
Probable space group: C 2/C
;
_chemical_formula_sum "Si O2"
_cell_formula_units_Z 40
_cell_length_a 13.089030
_cell_length_b 13.905652
_cell_length_c 18.271844
_cell_angle_alpha 90.000000
_cell_angle_beta 36.977253
_cell_angle_gamma 90.000000
_cell_volume 2000.392975
_symmetry_space_group_name_H-M "C 2/C"
_symmetry_group_IT_number 15
_symmetry_cell_setting 'monoclinic'
loop_
_space_group_symop_operation_xyz
x,y,z
-x,y,1/2-z
-x,-y,-z
x,-y,1/2+z
1/2+x,1/2+y,z
1/2-x,1/2+y,1/2-z
1/2-x,1/2-y,-z
1/2+x,1/2-y,1/2+z
loop_
_atom_site_type_symbol
_atom_site_label
_atom_site_fract_x
_atom_site_fract_y
_atom_site_fract_z
Si Si1 0.795144 0.513359 0.616361
Si Si2 0.676614 0.607972 0.832994
Si Si3 0.792206 0.084474 0.103830
Si Si4 0.337824 0.148180 0.464300
Si Si5 0.778974 0.323587 0.702627
O O1 0.733739 0.578711 0.718935
O O2 0.748993 0.570546 0.568925
O O3 0.727641 0.406200 0.674054
O O4 0.000000 0.500000 0.500000
O O5 0.738439 0.523191 0.850423
O O6 0.746352 0.714455 0.807692
O O7 0.473385 0.600297 0.960172
O O8 0.655694 0.106026 0.120198
O O9 0.797243 0.150390 0.173867
O O10 0.250000 0.250000 0.500000
O O11 0.519781 0.167345 0.396113
#
# Coordination Sequence:
#
# PCOD9270909 Si02
#       5
#     8   8   8   8   8
#     4   9  21  35  53  83 112 141 181 226 274 330
#     4  10  20  36  55  78 112 147 180 224 275 332
#     4  10  21  34  53  85 109 141 187 228 270 324
#     4  11  19  34  57  87 111 140 184 234 270 315
#     4  10  20  36  56  80 112 149 180 224 277 327
#
# _framework density 19.99607
#
# number of rings (size 3 to 8) (size 9 to 14) (size 15 to 20)
#    0.000    2.000    2.000    1.800    2.800    0.800 
#    0.000    1.000    0.000    0.000   31.200    0.000 
#    0.000    0.000    0.000    0.000    0.000    0.000 
#
# Total GULP energy -111466.749501 kJ/mol
# GULP energy per Si atom -5573.337475 kJ/mol
# Density = 1.995056 g / cm^3
# Si number density = 19.996070 Si / 1000 Ang^3
#
#
#
# Elastic Constant Matrix: (Units=GPa)
#
#
# Indices 1 2 3 4 5 6 
#
# 1 45.9539 44.4350 17.7497 -0.0003 24.1290 0.0001
# 2 44.4350 172.9463 53.3460 -0.0005 28.4644 0.0002
# 3 17.7497 53.3460 125.7487 -0.0011 26.8995 0.0005
# 4 -0.0003 -0.0005 -0.0011 12.2713 0.0005 -2.1660
# 5 24.1290 28.4644 26.8995 0.0005 20.5765 -0.0002
# 6 0.0001 0.0002 0.0005 -2.1660 -0.0002 26.7409
#
#
#
# Elastic Compliance Matrix: (Units=1/GPa)
#
#
# Indices 1 2 3 4 5 6 
#
# 1 0.070614 -0.007301 0.012053 0.000006 -0.088462 0.000000
# 2 -0.007301 0.008406 -0.002609 0.000000 0.000344 0.000000
# 3 0.012053 -0.002609 0.013340 0.000003 -0.027964 0.000000
# 4 0.000006 0.000000 0.000003 0.082673 -0.000012 0.006696
# 5 -0.088462 0.000344 -0.027964 -0.000012 0.188415 0.000001
# 6 0.000000 0.000000 0.000000 0.006696 0.000001 0.037938
#
#
# Mechanical properties :
#
#
# Convention : Reuss Voigt Hill
#
# Bulk Modulus (GPa) = 10.34704 63.96782 37.15743
# Shear Modulus (GPa) = 11.64646 27.19230 19.41938
#
# Velocity S-wave (km/s) = 2.41599 3.69166 3.11972
# Velocity P-wave (km/s) = 3.60118 7.08737 5.62135
#
# Compressibility (1/GPa) = 0.09664601
#
# Stress axis : x y z
#
# Youngs Moduli (GPa) = 14.16155 118.95945 74.96390
#
# Poissons Ratio (x) = 0.86854 -0.90357
# Poissons Ratio (y) = 0.10339 0.19559
# Poissons Ratio (z) = -0.17069 0.31038
#
# Static dielectric constant tensor:
#      x y z
#    x 1.725130 0.000000 -0.012310 
#    y 0.000000 1.755900 0.000000 
#    z -0.012310 0.000000 1.766980 
# 
# From -- ./inp_files/85640.got.cif
#   From: 2010.05.17/outbox.cif.g08.bks.cpg/sg15_43_cif.got.tgz:85640.got - 2010.06.03 18:47:42.
