data_PCOD9270299
_publ_section_title
;
Structure prediction by ZEFSAII (Michael W. Deem and Ramdas Pophale) SiO2 
 PCOD9270299
Probable space group: C 2/C
;
_chemical_formula_sum "Si O2"
_cell_formula_units_Z 48
_cell_length_a 7.965404
_cell_length_b 12.516194
_cell_length_c 22.489016
_cell_angle_alpha 90.000000
_cell_angle_beta 65.262675
_cell_angle_gamma 90.000000
_cell_volume 2036.334637
_symmetry_space_group_name_H-M "C 2/C"
_symmetry_group_IT_number 15
_symmetry_cell_setting 'monoclinic'
loop_
_space_group_symop_operation_xyz
x,y,z
-x,y,1/2-z
-x,-y,-z
x,-y,1/2+z
1/2+x,1/2+y,z
1/2-x,1/2+y,1/2-z
1/2-x,1/2-y,-z
1/2+x,1/2-y,1/2+z
loop_
_atom_site_type_symbol
_atom_site_label
_atom_site_fract_x
_atom_site_fract_y
_atom_site_fract_z
Si Si1 0.760571 0.077971 0.432005
Si Si2 0.970710 0.636769 0.321059
Si Si3 0.784135 0.818312 0.229571
Si Si4 0.835290 0.977288 0.801451
Si Si5 0.446981 0.208173 0.856529
Si Si6 0.120016 0.510820 0.065103
O O1 0.851524 0.194093 0.406197
O O2 0.772714 0.029468 0.495865
O O3 0.855194 0.002181 0.368146
O O4 0.538776 0.073039 0.449820
O O5 0.019222 0.761166 0.310419
O O6 0.155653 0.593595 0.324610
O O7 0.000000 0.594395 0.250000
O O8 0.821558 0.586656 0.387677
O O9 0.816541 0.930780 0.255991
O O10 0.675991 0.821991 0.183297
O O11 0.649801 0.763612 0.299594
O O12 0.000000 0.908764 0.750000
O O13 0.458096 0.099851 0.894144
#
# Coordination Sequence:
#
# PCOD9270299 Si02
#       6
#     8   8   8   8   8   8
#     4  10  20  35  57  88 126 166 212 263 316 381
#     4  11  21  38  59  89 122 160 207 265 313 376
#     4  11  21  34  60  90 120 160 214 262 320 370
#     4  11  21  38  59  89 122 160 207 265 313 376
#     4  11  19  36  60  90 122 166 216 264 314 386
#     4  10  20  35  57  88 126 166 212 263 316 381
#
# _framework density 23.571764000000002
#
# number of rings (size 3 to 8) (size 9 to 14) (size 15 to 20)
#    0.000    1.333    6.667    3.000    0.000    0.000 
#    0.000    0.000    0.000   15.000    0.000    0.000 
#    0.000    0.000    0.000    0.000    0.000    0.000 
#
# Total GULP energy -133658.214715 kJ/mol
# GULP energy per Si atom -5569.092280 kJ/mol
# Density = 2.351811 g / cm^3
# Si number density = 23.571764 Si / 1000 Ang^3
#
#
#
# Elastic Constant Matrix: (Units=GPa)
#
#
# Indices 1 2 3 4 5 6 
#
# 1 32.7664 -0.9181 -2.8203 0.0000 1.6359 0.0000
# 2 -0.9181 107.7550 -0.1073 0.0000 0.9001 0.0000
# 3 -2.8203 -0.1073 117.5611 0.0000 0.4794 0.0000
# 4 0.0000 0.0000 0.0000 32.4094 0.0000 1.4832
# 5 1.6359 0.9001 0.4794 0.0000 22.9860 0.0000
# 6 0.0000 0.0000 0.0000 1.4832 0.0000 28.7393
#
#
#
# Elastic Compliance Matrix: (Units=1/GPa)
#
#
# Indices 1 2 3 4 5 6 
#
# 1 0.030702 0.000281 0.000746 0.000000 -0.002212 0.000000
# 2 0.000281 0.009286 0.000017 0.000000 -0.000384 0.000000
# 3 0.000746 0.000017 0.008525 0.000000 -0.000232 0.000000
# 4 0.000000 0.000000 0.000000 0.030928 0.000000 -0.001596
# 5 -0.002212 -0.000384 -0.000232 0.000000 0.043682 0.000000
# 6 0.000000 0.000000 0.000000 -0.001596 0.000000 0.034878
#
#
# Mechanical properties :
#
#
# Convention : Reuss Voigt Hill
#
# Bulk Modulus (GPa) = 19.76312 27.82125 23.79218
# Shear Modulus (GPa) = 28.93845 34.28881 31.61363
#
# Velocity S-wave (km/s) = 3.50762 3.81813 3.66617
# Velocity P-wave (km/s) = 4.98066 5.59159 5.29495
#
# Compressibility (1/GPa) = 0.05059929
#
# Stress axis : x y z
#
# Youngs Moduli (GPa) = 32.57165 107.68983 117.30115
#
# Poissons Ratio (x) = -0.03024 -0.08748
# Poissons Ratio (y) = -0.00915 -0.00197
# Poissons Ratio (z) = -0.02429 -0.00181
#
# Static dielectric constant tensor:
#      x y z
#    x 2.024720 0.000000 -0.032560 
#    y 0.000000 1.978660 0.000000 
#    z -0.032560 0.000000 2.140500 
# 
# From -- ./inp_files/236523.got.cif
#   From: 2010.05.17/outbox.cif.g08.bks.cpg/sg15_119_cif.got.tgz:236523.got - 2010.06.03 18:47:42.
