data_PCOD9270873
_publ_section_title
;
Structure prediction by ZEFSAII (Michael W. Deem and Ramdas Pophale) SiO2 
 PCOD9270873
Probable space group: C 2/C
;
_chemical_formula_sum "Si O2"
_cell_formula_units_Z 48
_cell_length_a 9.320720
_cell_length_b 20.670326
_cell_length_c 16.807034
_cell_angle_alpha 90.000000
_cell_angle_beta 140.035742
_cell_angle_gamma 90.000000
_cell_volume 2079.851315
_symmetry_space_group_name_H-M "C 2/C"
_symmetry_group_IT_number 15
_symmetry_cell_setting 'monoclinic'
loop_
_space_group_symop_operation_xyz
x,y,z
-x,y,1/2-z
-x,-y,-z
x,-y,1/2+z
1/2+x,1/2+y,z
1/2-x,1/2+y,1/2-z
1/2-x,1/2-y,-z
1/2+x,1/2-y,1/2+z
loop_
_atom_site_type_symbol
_atom_site_label
_atom_site_fract_x
_atom_site_fract_y
_atom_site_fract_z
Si Si1 0.991164 0.942957 0.648573
Si Si2 0.348968 0.686158 0.496615
Si Si3 0.029943 0.617618 0.941170
Si Si4 0.754208 0.754081 0.192937
Si Si5 0.096305 0.636159 0.156915
Si Si6 0.907422 0.917265 0.299639
O O1 0.781606 0.902032 0.527884
O O2 0.000000 0.941531 0.750000
O O3 0.226315 0.911091 0.729028
O O4 0.978729 0.017819 0.619919
O O5 0.250000 0.750000 0.500000
O O6 0.399104 0.711746 0.431541
O O7 0.530785 0.645166 0.621343
O O8 0.138332 0.638852 0.399441
O O9 0.901759 0.683544 0.862536
O O10 0.853563 0.568073 0.827315
O O11 0.037390 0.619632 0.040660
O O12 0.801195 0.708894 0.288996
O O13 0.000000 0.762410 0.250000
O O14 0.000000 0.904623 0.250000
#
# Coordination Sequence:
#
# PCOD9270873 Si02
#       6
#     8   8   8   8   8   8
#     4   9  23  35  52  84 111 153 179 220 286 328
#     4  11  19  34  58  84 109 141 186 237 276 319
#     4  11  20  35  57  83 118 139 182 233 276 335
#     4  10  21  34  57  85 109 146 186 228 281 321
#     4  10  20  36  54  79 116 141 186 227 272 336
#     4  11  20  33  58  84 111 143 184 231 280 324
#
# _framework density 23.078572000000001
#
# number of rings (size 3 to 8) (size 9 to 14) (size 15 to 20)
#    0.000    1.667    3.333    2.500    2.333    2.667 
#    0.000    0.833    0.000    0.000    0.000    0.000 
#    0.000    0.000    0.000    0.000    0.000    0.000 
#
# Total GULP energy -133747.660769 kJ/mol
# GULP energy per Si atom -5572.819199 kJ/mol
# Density = 2.302604 g / cm^3
# Si number density = 23.078572 Si / 1000 Ang^3
#
#
#
# Elastic Constant Matrix: (Units=GPa)
#
#
# Indices 1 2 3 4 5 6 
#
# 1 8.6961 16.9929 25.0454 -0.0001 6.8135 0.0000
# 2 16.9929 110.8594 61.1200 0.0001 13.1720 0.0000
# 3 25.0454 61.1200 177.5980 0.0004 24.2423 0.0008
# 4 -0.0001 0.0001 0.0004 35.2933 0.0000 1.6391
# 5 6.8135 13.1720 24.2423 0.0000 22.4582 0.0002
# 6 0.0000 0.0000 0.0008 1.6391 0.0002 13.4436
#
#
#
# Elastic Compliance Matrix: (Units=1/GPa)
#
#
# Indices 1 2 3 4 5 6 
#
# 1 0.254811 -0.021618 -0.023072 0.000001 -0.039722 0.000002
# 2 -0.021618 0.013120 -0.001538 0.000000 0.000524 0.000000
# 3 -0.023072 -0.001538 0.009775 0.000000 -0.002650 -0.000001
# 4 0.000001 0.000000 0.000000 0.028495 0.000000 -0.003474
# 5 -0.039722 0.000524 -0.002650 0.000000 0.059132 -0.000001
# 6 0.000002 0.000000 -0.000001 -0.003474 -0.000001 0.074808
#
#
# Mechanical properties :
#
#
# Convention : Reuss Voigt Hill
#
# Bulk Modulus (GPa) = 5.39813 55.94110 30.66961
# Shear Modulus (GPa) = 8.41257 27.17205 17.79231
#
# Velocity S-wave (km/s) = 1.91131 3.43501 2.77960
# Velocity P-wave (km/s) = 2.68606 6.32648 4.86000
#
# Compressibility (1/GPa) = 0.18524951
#
# Stress axis : x y z
#
# Youngs Moduli (GPa) = 3.92447 76.22033 102.29697
#
# Poissons Ratio (x) = 1.64775 2.36022
# Poissons Ratio (y) = 0.08484 0.15733
# Poissons Ratio (z) = 0.09055 0.11723
#
# Static dielectric constant tensor:
#      x y z
#    x 1.907970 0.000000 0.007290 
#    y 0.000000 1.962830 0.000000 
#    z 0.007290 0.000000 1.930580 
# 
# From -- ./inp_files/88766.got.cif
#   From: 2010.05.17/outbox.cif.g08.bks.cpg/sg15_45_cif.got.tgz:88766.got - 2010.06.03 18:47:42.
