data_PCOD9270423
_publ_section_title
;
Structure prediction by ZEFSAII (Michael W. Deem and Ramdas Pophale) SiO2 
 PCOD9270423
Probable space group: C 2/C
;
_chemical_formula_sum "Si O2"
_cell_formula_units_Z 56
_cell_length_a 8.609254
_cell_length_b 22.365005
_cell_length_c 16.347098
_cell_angle_alpha 90.000000
_cell_angle_beta 132.023474
_cell_angle_gamma 90.000000
_cell_volume 2338.236148
_symmetry_space_group_name_H-M "C 2/C"
_symmetry_group_IT_number 15
_symmetry_cell_setting 'monoclinic'
loop_
_space_group_symop_operation_xyz
x,y,z
-x,y,1/2-z
-x,-y,-z
x,-y,1/2+z
1/2+x,1/2+y,z
1/2-x,1/2+y,1/2-z
1/2-x,1/2-y,-z
1/2+x,1/2-y,1/2+z
loop_
_atom_site_type_symbol
_atom_site_label
_atom_site_fract_x
_atom_site_fract_y
_atom_site_fract_z
Si Si1 0.727149 0.263510 0.372875
Si Si2 0.955798 0.863137 0.101622
Si Si3 0.790010 0.019068 0.377049
Si Si4 0.612879 0.853194 0.505703
Si Si5 0.947480 0.856863 0.911287
Si Si6 0.373644 0.904674 0.278821
Si Si7 0.074258 0.446921 0.965906
O O1 0.500000 0.270561 0.250000
O O2 0.659582 0.299897 0.431419
O O3 0.950534 0.298651 0.437480
O O4 0.786381 0.196486 0.367864
O O5 0.795684 0.915814 0.069338
O O6 0.165525 0.868940 0.227274
O O7 0.022062 0.869626 0.030907
O O8 0.844742 0.080305 0.349618
O O9 0.622891 0.033358 0.390204
O O10 0.714500 0.966302 0.290748
O O11 0.000000 0.000000 0.500000
O O12 0.532171 0.901226 0.409366
O O13 0.580885 0.890325 0.578016
O O14 0.852676 0.839446 0.572048
O O15 0.500000 0.874065 0.250000
O O16 0.000000 0.500000 0.000000
#
# Coordination Sequence:
#
# PCOD9270423 Si02
#       7
#     8   8   8   8   8   8   8
#     4  11  23  40  60  95 129 165 221 281 329 389
#     4  10  21  37  62  87 123 168 218 263 322 390
#     4  11  21  39  61  91 128 170 215 263 334 406
#     4  11  23  38  64  95 127 170 223 277 327 385
#     4  11  22  41  65  88 129 177 215 265 340 401
#     4  12  20  36  65  95 125 164 226 273 317 387
#     4  10  20  35  58  90 125 161 202 270 332 377
#
# _framework density 23.949677999999999
#
# number of rings (size 3 to 8) (size 9 to 14) (size 15 to 20)
#    0.000    1.143    5.714    2.571    0.000    0.571 
#    0.000    0.000    0.000    0.000    0.000    0.000 
#    0.000    0.000    0.000    0.000    0.000    0.000 
#
# Total GULP energy -156075.718826 kJ/mol
# GULP energy per Si atom -5574.132815 kJ/mol
# Density = 2.389517 g / cm^3
# Si number density = 23.949678 Si / 1000 Ang^3
#
#
#
# Elastic Constant Matrix: (Units=GPa)
#
#
# Indices 1 2 3 4 5 6 
#
# 1 113.5928 28.2264 14.8909 0.0000 34.4290 0.0000
# 2 28.2264 137.5191 19.6296 0.0000 24.2257 0.0000
# 3 14.8909 19.6296 44.6857 0.0000 22.5755 0.0000
# 4 0.0000 0.0000 0.0000 -13.5341 0.0000 34.6110
# 5 34.4290 24.2257 22.5755 0.0000 32.1956 0.0000
# 6 0.0000 0.0000 0.0000 34.6110 0.0000 18.7592
#
#
#
# Elastic Compliance Matrix: (Units=1/GPa)
#
#
# Indices 1 2 3 4 5 6 
#
# 1 0.013564 -0.000361 0.004381 0.000000 -0.017305 0.000000
# 2 -0.000361 0.008410 -0.000886 0.000000 -0.005321 0.000000
# 3 0.004381 -0.000886 0.036141 0.000000 -0.029361 0.000000
# 4 0.000000 0.000000 0.000000 -0.012921 0.000000 0.023840
# 5 -0.017305 -0.005321 -0.029361 0.000000 0.074157 0.000000
# 6 0.000000 0.000000 0.000000 0.023840 0.000000 0.009322
#
#
# Mechanical properties :
#
#
# Convention : Reuss Voigt Hill
#
# Bulk Modulus (GPa) = 15.53196 46.81013 31.17104
# Shear Modulus (GPa) = 34.75509 23.02088 28.88798
#
# Velocity S-wave (km/s) = 3.81356 3.10372 3.47680
# Velocity P-wave (km/s) = 5.08825 5.69488 5.40009
#
# Compressibility (1/GPa) = 0.06438339
#
# Stress axis : x y z
#
# Youngs Moduli (GPa) = 73.72564 118.91255 27.66959
#
# Poissons Ratio (x) = 0.04291 -0.12123
# Poissons Ratio (y) = 0.02661 0.02451
# Poissons Ratio (z) = -0.32302 0.10534
#
# Static dielectric constant tensor:
#      x y z
#    x 1.977600 0.000000 -0.038430 
#    y 0.000000 1.991390 0.000000 
#    z -0.038430 0.000000 1.967220 
# 
# From -- ./inp_files/233936.got.cif
#   From: 2010.05.17/outbox.cif.g08.bks.cpg/sg15_117_cif.got.tgz:233936.got - 2010.06.03 18:47:42.
