data_PCOD9270563
_publ_section_title
;
Structure prediction by ZEFSAII (Michael W. Deem and Ramdas Pophale) SiO2 
 PCOD9270563
Probable space group: C 2/C
;
_chemical_formula_sum "Si O2"
_cell_formula_units_Z 40
_cell_length_a 7.571402
_cell_length_b 18.045230
_cell_length_c 11.565943
_cell_angle_alpha 90.000000
_cell_angle_beta 97.695527
_cell_angle_gamma 90.000000
_cell_volume 1565.996004
_symmetry_space_group_name_H-M "C 2/C"
_symmetry_group_IT_number 15
_symmetry_cell_setting 'monoclinic'
loop_
_space_group_symop_operation_xyz
x,y,z
-x,y,1/2-z
-x,-y,-z
x,-y,1/2+z
1/2+x,1/2+y,z
1/2-x,1/2+y,1/2-z
1/2-x,1/2-y,-z
1/2+x,1/2-y,1/2+z
loop_
_atom_site_type_symbol
_atom_site_label
_atom_site_fract_x
_atom_site_fract_y
_atom_site_fract_z
Si Si1 0.500000 0.146040 0.750000
Si Si2 0.725924 0.417043 0.663030
Si Si3 0.169739 0.760620 0.619926
Si Si4 0.587020 0.070012 0.077060
Si Si5 0.500000 0.687684 0.750000
Si Si6 0.171882 0.079586 0.609447
O O1 0.524469 0.199572 0.642147
O O2 0.328439 0.095156 0.717942
O O3 0.609584 0.343686 0.641971
O O4 0.799418 0.437601 0.795855
O O5 0.635521 0.491925 0.608476
O O6 0.902599 0.394196 0.604735
O O7 0.250000 0.750000 0.500000
O O8 0.329243 0.739285 0.722522
O O9 0.730018 0.101186 0.999564
O O10 0.500000 0.000000 0.000000
O O11 0.517183 0.633057 0.640961
#
# Coordination Sequence:
#
# PCOD9270563 Si02
#       6
#     4   8   8   8   4   8
#     4  10  22  38  58  84 120 160 200 246 308 368
#     4  10  20  35  60  89 115 154 208 244 293 369
#     4  11  24  42  60  87 126 162 197 251 308 362
#     4   9  17  32  58  88 115 150 198 251 293 347
#     4  10  24  40  58  88 124 156 198 250 308 360
#     4  10  20  38  60  85 116 155 199 250 299 353
#
# _framework density 25.542849
#
# number of rings (size 3 to 8) (size 9 to 14) (size 15 to 20)
#    0.000    2.000    0.000    4.800    0.000    7.200 
#    0.000    7.000    0.000    0.000    0.000    0.000 
#    0.000    0.000    0.000    0.000    0.000    0.000 
#
# Total GULP energy -111772.837236 kJ/mol
# GULP energy per Si atom -5588.641862 kJ/mol
# Density = 2.548471 g / cm^3
# Si number density = 25.542849 Si / 1000 Ang^3
#
#
#
# Elastic Constant Matrix: (Units=GPa)
#
#
# Indices 1 2 3 4 5 6 
#
# 1 62.0493 29.8591 20.7971 0.0000 -6.3863 0.0000
# 2 29.8591 162.5138 44.2861 0.0000 4.8410 0.0000
# 3 20.7971 44.2861 130.2279 0.0000 -29.0932 0.0000
# 4 0.0000 0.0000 0.0000 20.9368 0.0000 -13.8259
# 5 -6.3863 4.8410 -29.0932 0.0000 50.2427 0.0000
# 6 0.0000 0.0000 0.0000 -13.8259 0.0000 23.2373
#
#
#
# Elastic Compliance Matrix: (Units=1/GPa)
#
#
# Indices 1 2 3 4 5 6 
#
# 1 0.018240 -0.002992 -0.001508 0.000000 0.001733 0.000000
# 2 -0.002992 0.007509 -0.002667 0.000000 -0.002648 0.000000
# 3 -0.001508 -0.002667 0.010155 0.000000 0.005946 0.000000
# 4 0.000000 0.000000 0.000000 0.078675 0.000000 0.046811
# 5 0.001733 -0.002648 0.005946 0.000000 0.023822 0.000000
# 6 0.000000 0.000000 0.000000 0.046811 0.000000 0.070886
#
#
# Mechanical properties :
#
#
# Convention : Reuss Voigt Hill
#
# Bulk Modulus (GPa) = 46.36313 60.51952 53.44133
# Shear Modulus (GPa) = 21.66275 36.20660 28.93467
#
# Velocity S-wave (km/s) = 2.91537 3.76903 3.36935
# Velocity P-wave (km/s) = 5.43351 6.53342 6.00869
#
# Compressibility (1/GPa) = 0.02156886
#
# Stress axis : x y z
#
# Youngs Moduli (GPa) = 54.82498 133.17732 98.47347
#
# Poissons Ratio (x) = 0.39845 0.14852
# Poissons Ratio (y) = 0.16403 0.26266
# Poissons Ratio (z) = 0.08269 0.35523
#
# Static dielectric constant tensor:
#      x y z
#    x 1.978330 0.000000 -0.033540 
#    y 0.000000 2.002930 0.000000 
#    z -0.033540 0.000000 2.038530 
# 
# From -- ./inp_files/76772.got.cif
#   From: 2010.05.17/outbox.cif.g08.bks.cpg/sg15_39_cif.got.tgz:76772.got - 2010.06.03 18:47:42.
