data_PCOD9270246
_publ_section_title
;
Structure prediction by ZEFSAII (Michael W. Deem and Ramdas Pophale) SiO2 
 PCOD9270246
Probable space group: C 2/C
;
_chemical_formula_sum "Si O2"
_cell_formula_units_Z 48
_cell_length_a 12.887285
_cell_length_b 20.571743
_cell_length_c 14.796291
_cell_angle_alpha 90.000000
_cell_angle_beta 137.948892
_cell_angle_gamma 90.000000
_cell_volume 2627.399658
_symmetry_space_group_name_H-M "C 2/C"
_symmetry_group_IT_number 15
_symmetry_cell_setting 'monoclinic'
loop_
_space_group_symop_operation_xyz
x,y,z
-x,y,1/2-z
-x,-y,-z
x,-y,1/2+z
1/2+x,1/2+y,z
1/2-x,1/2+y,1/2-z
1/2-x,1/2-y,-z
1/2+x,1/2-y,1/2+z
loop_
_atom_site_type_symbol
_atom_site_label
_atom_site_fract_x
_atom_site_fract_y
_atom_site_fract_z
Si Si1 0.721021 0.297787 0.565185
Si Si2 0.678106 0.937009 0.335280
Si Si3 0.313695 0.580768 0.729612
Si Si4 0.321167 0.441908 0.030042
Si Si5 0.685457 0.789263 0.373617
Si Si6 0.132015 0.772518 0.182574
O O1 0.750000 0.250000 0.500000
O O2 0.731970 0.372963 0.545257
O O3 0.838465 0.280597 0.721481
O O4 0.540046 0.281906 0.468520
O O5 0.500000 0.940731 0.250000
O O6 0.710722 0.940257 0.248586
O O7 0.734679 0.865426 0.403748
O O8 0.762223 0.996276 0.438011
O O9 0.491865 0.558351 0.854761
O O10 0.266852 0.557847 0.599558
O O11 0.322463 0.659260 0.740040
O O12 0.500000 0.787429 0.250000
O O13 0.750000 0.750000 0.500000
O O14 0.754097 0.759757 0.326434
#
# Coordination Sequence:
#
# PCOD9270246 Si02
#       6
#     8   8   8   8   8   8
#     4  11  20  34  57  85 115 145 186 228 283 335
#     4  10  22  38  57  81 115 146 181 232 283 324
#     4   9  19  38  58  76 111 153 181 225 283 328
#     4  10  20  37  57  82 112 147 188 225 275 339
#     4  10  21  41  60  81 113 148 189 230 278 331
#     4  10  20  35  57  83 112 149 184 232 281 329
#
# _framework density 18.269013000000001
#
# number of rings (size 3 to 8) (size 9 to 14) (size 15 to 20)
#    0.000    2.000    1.667    2.000    0.000    2.000 
#    6.000    0.000    0.000    0.000    0.000    0.000 
#    0.000    0.000    0.000    0.000    0.000    0.000 
#
# Total GULP energy -133885.202921 kJ/mol
# GULP energy per Si atom -5578.550122 kJ/mol
# Density = 1.822743 g / cm^3
# Si number density = 18.269013 Si / 1000 Ang^3
#
#
#
# Elastic Constant Matrix: (Units=GPa)
#
#
# Indices 1 2 3 4 5 6 
#
# 1 131.6487 37.4726 25.7388 0.0000 -10.5631 0.0000
# 2 37.4726 93.3347 49.2454 0.0000 -18.2419 0.0000
# 3 25.7388 49.2454 59.7563 0.0000 -17.7805 0.0000
# 4 0.0000 0.0000 0.0000 33.4302 0.0000 -5.1214
# 5 -10.5631 -18.2419 -17.7805 0.0000 19.3783 0.0000
# 6 0.0000 0.0000 0.0000 -5.1214 0.0000 20.5933
#
#
#
# Elastic Compliance Matrix: (Units=1/GPa)
#
#
# Indices 1 2 3 4 5 6 
#
# 1 0.008672 -0.002597 -0.001260 0.000000 0.001126 0.000000
# 2 -0.002597 0.020069 -0.014058 0.000000 0.004577 0.000000
# 3 -0.001260 -0.014058 0.034005 0.000000 0.017280 0.000000
# 4 0.000000 0.000000 0.000000 0.031098 0.000000 0.007734
# 5 0.001126 0.004577 0.017280 0.000000 0.072382 0.000000
# 6 0.000000 0.000000 0.000000 0.007734 0.000000 0.050483
#
#
# Mechanical properties :
#
#
# Convention : Reuss Voigt Hill
#
# Bulk Modulus (GPa) = 37.15408 56.62815 46.89111
# Shear Modulus (GPa) = 19.11976 26.16590 22.64283
#
# Velocity S-wave (km/s) = 3.23858 3.78862 3.52435
# Velocity P-wave (km/s) = 5.86224 7.08536 6.50262
#
# Compressibility (1/GPa) = 0.02691495
#
# Stress axis : x y z
#
# Youngs Moduli (GPa) = 115.31605 49.82893 29.40778
#
# Poissons Ratio (x) = 0.12938 0.03706
# Poissons Ratio (y) = 0.29942 0.41342
# Poissons Ratio (z) = 0.14532 0.70051
#
# Static dielectric constant tensor:
#      x y z
#    x 1.643600 0.000000 0.005030 
#    y 0.000000 1.609680 0.000000 
#    z 0.005030 0.000000 1.465490 
# 
# From -- ./inp_files/32662.got.cif
#   From: 2010.05.17/outbox.cif.g08.bks.cpg/sg15_17_cif.got.tgz:32662.got - 2010.06.03 18:47:42.
