data_PCOD9270104
_publ_section_title
;
Structure prediction by ZEFSAII (Michael W. Deem and Ramdas Pophale) SiO2 
 PCOD9270104
Probable space group: C 2/C
;
_chemical_formula_sum "Si O2"
_cell_formula_units_Z 56
_cell_length_a 20.887092
_cell_length_b 19.497213
_cell_length_c 9.498680
_cell_angle_alpha 90.000000
_cell_angle_beta 45.869588
_cell_angle_gamma 90.000000
_cell_volume 2776.457926
_symmetry_space_group_name_H-M "C 2/C"
_symmetry_group_IT_number 15
_symmetry_cell_setting 'monoclinic'
loop_
_space_group_symop_operation_xyz
x,y,z
-x,y,1/2-z
-x,-y,-z
x,-y,1/2+z
1/2+x,1/2+y,z
1/2-x,1/2+y,1/2-z
1/2-x,1/2-y,-z
1/2+x,1/2-y,1/2+z
loop_
_atom_site_type_symbol
_atom_site_label
_atom_site_fract_x
_atom_site_fract_y
_atom_site_fract_z
Si Si1 0.149769 0.276298 0.645448
Si Si2 0.958257 0.939458 0.661073
Si Si3 0.208744 0.976781 0.045252
Si Si4 0.670141 0.017923 0.391700
Si Si5 0.547592 0.850197 0.035953
Si Si6 0.577963 0.882817 0.527214
Si Si7 0.056789 0.133970 0.795568
O O1 0.250000 0.250000 0.500000
O O2 0.131551 0.330013 0.545854
O O3 0.087154 0.210571 0.718604
O O4 0.123691 0.308082 0.836917
O O5 0.000000 0.940623 0.750000
O O6 0.990498 0.872403 0.529371
O O7 0.855322 0.957377 0.840704
O O8 0.000000 0.000000 0.500000
O O9 0.145286 0.912626 0.183905
O O10 0.292721 0.993154 0.014798
O O11 0.245387 0.962199 0.833843
O O12 0.595515 0.076995 0.500206
O O13 0.632828 0.946966 0.388337
O O14 0.500000 0.823825 0.250000
O O15 0.471868 0.852686 0.031256
O O16 0.500000 0.910261 0.750000
O O17 0.000000 0.106626 0.750000
#
# Coordination Sequence:
#
# PCOD9270104 Si02
#       7
#     8   8   8   8   8   8   8
#     4  11  24  43  65  89 120 164 214 258 312 382
#     4  10  20  35  55  83 121 161 201 244 296 362
#     4  11  21  34  57  92 121 152 198 253 304 360
#     4  12  21  35  59  88 120 153 195 256 312 352
#     4  11  23  40  60  88 121 158 204 257 308 368
#     4  10  21  40  61  84 115 158 203 244 302 381
#     4  11  21  39  61  84 120 166 204 248 306 373
#
# _framework density 20.169582999999999
#
# number of rings (size 3 to 8) (size 9 to 14) (size 15 to 20)
#    0.000    1.143    0.000   10.714    0.000    0.571 
#    0.000    0.714    0.000    0.000    0.000    0.000 
#    0.000    0.000    0.000    0.000    0.000    0.000 
#
# Total GULP energy -156226.212196 kJ/mol
# GULP energy per Si atom -5579.507578 kJ/mol
# Density = 2.012368 g / cm^3
# Si number density = 20.169583 Si / 1000 Ang^3
#
#
#
# Elastic Constant Matrix: (Units=GPa)
#
#
# Indices 1 2 3 4 5 6 
#
# 1 87.7334 25.1816 37.3551 0.0000 5.4854 0.0000
# 2 25.1816 70.3160 22.2615 0.0000 -11.9530 0.0000
# 3 37.3551 22.2615 90.7763 0.0000 15.1764 0.0000
# 4 0.0000 0.0000 0.0000 30.1483 0.0000 -9.5587
# 5 5.4854 -11.9530 15.1764 0.0000 36.9041 0.0000
# 6 0.0000 0.0000 0.0000 -9.5587 0.0000 16.3429
#
#
#
# Elastic Compliance Matrix: (Units=1/GPa)
#
#
# Indices 1 2 3 4 5 6 
#
# 1 0.014687 -0.003989 -0.004816 0.000000 -0.001495 0.000000
# 2 -0.003989 0.018412 -0.004263 0.000000 0.008310 0.000000
# 3 -0.004816 -0.004263 0.015199 0.000000 -0.006916 0.000000
# 4 0.000000 0.000000 0.000000 0.040721 0.000000 0.023817
# 5 -0.001495 0.008310 -0.006916 0.000000 0.032855 0.000000
# 6 0.000000 0.000000 0.000000 0.023817 0.000000 0.075119
#
#
# Mechanical properties :
#
#
# Convention : Reuss Voigt Hill
#
# Bulk Modulus (GPa) = 45.12020 46.49135 45.80577
# Shear Modulus (GPa) = 21.69044 27.61423 24.65233
#
# Velocity S-wave (km/s) = 3.28289 3.70415 3.49987
# Velocity P-wave (km/s) = 6.06538 6.43386 6.25234
#
# Compressibility (1/GPa) = 0.02216302
#
# Stress axis : x y z
#
# Youngs Moduli (GPa) = 68.08732 54.31143 65.79226
#
# Poissons Ratio (x) = 0.21666 0.31683
# Poissons Ratio (y) = 0.27162 0.28047
# Poissons Ratio (z) = 0.32788 0.23153
#
# Static dielectric constant tensor:
#      x y z
#    x 1.750830 0.000000 -0.017070 
#    y 0.000000 1.755440 0.000000 
#    z -0.017070 0.000000 1.740880 
# 
# From -- ./inp_files/57792.got.cif
#   From: 2010.05.17/outbox.cif.g08.bks.cpg/sg15_29_cif.got.tgz:57792.got - 2010.06.03 18:47:42.
