data_PCOD9270966
_publ_section_title
;
Structure prediction by ZEFSAII (Michael W. Deem and Ramdas Pophale) SiO2 
 PCOD9270966
Probable space group: C 2/C
;
_chemical_formula_sum "Si O2"
_cell_formula_units_Z 36
_cell_length_a 16.089890
_cell_length_b 7.098831
_cell_length_c 14.107404
_cell_angle_alpha 90.000000
_cell_angle_beta 105.987168
_cell_angle_gamma 90.000000
_cell_volume 1549.018239
_symmetry_space_group_name_H-M "C 2/C"
_symmetry_group_IT_number 15
_symmetry_cell_setting 'monoclinic'
loop_
_space_group_symop_operation_xyz
x,y,z
-x,y,1/2-z
-x,-y,-z
x,-y,1/2+z
1/2+x,1/2+y,z
1/2-x,1/2+y,1/2-z
1/2-x,1/2-y,-z
1/2+x,1/2-y,1/2+z
loop_
_atom_site_type_symbol
_atom_site_label
_atom_site_fract_x
_atom_site_fract_y
_atom_site_fract_z
Si Si1 0.407149 0.375450 0.216093
Si Si2 0.140599 0.385801 0.160368
Si Si3 0.799823 0.957702 0.348035
Si Si4 0.253256 0.468476 0.035273
Si Si5 0.500000 0.980158 0.750000
O O1 0.500000 0.475937 0.250000
O O2 0.369362 0.340578 0.309201
O O3 0.335088 0.478676 0.132422
O O4 0.431499 0.169585 0.183324
O O5 0.159916 0.166838 0.145343
O O6 0.212424 0.444215 0.260407
O O7 0.167763 0.493996 0.072412
O O8 0.049042 0.412825 0.182057
O O9 0.774461 0.915696 0.447623
O O10 0.250000 0.250000 0.000000
#
# Coordination Sequence:
#
# PCOD9270966 Si02
#       5
#     8   8   8   8   4
#     4   9  21  37  58  80 119 146 183 235 282 321
#     4  10  20  36  59  84 111 151 185 234 282 330
#     4  10  20  38  61  79 114 150 191 226 284 338
#     4   9  18  36  59  83 109 150 190 228 277 338
#     4  10  20  36  56  80 118 144 184 232 284 324
#
# _framework density 23.240528000000001
#
# number of rings (size 3 to 8) (size 9 to 14) (size 15 to 20)
#    0.667    1.778    0.000    4.000    1.556    0.889 
#    0.000   20.000    0.000    0.000    0.000    0.000 
#    0.000    0.000    0.000    0.000    0.000    0.000 
#
# Total GULP energy -100394.995637 kJ/mol
# GULP energy per Si atom -5577.499758 kJ/mol
# Density = 2.318763 g / cm^3
# Si number density = 23.240528 Si / 1000 Ang^3
#
#
#
# Elastic Constant Matrix: (Units=GPa)
#
#
# Indices 1 2 3 4 5 6 
#
# 1 163.4995 34.4797 69.3430 0.0000 -65.9469 0.0000
# 2 34.4797 58.5418 15.4865 0.0000 -25.5174 0.0000
# 3 69.3430 15.4865 135.6575 0.0000 -57.2521 0.0000
# 4 0.0000 0.0000 0.0000 25.4166 0.0000 -16.5716
# 5 -65.9469 -25.5174 -57.2521 0.0000 49.2706 0.0000
# 6 0.0000 0.0000 0.0000 -16.5716 0.0000 55.2578
#
#
#
# Elastic Compliance Matrix: (Units=1/GPa)
#
#
# Indices 1 2 3 4 5 6 
#
# 1 0.013435 0.000370 0.001492 0.000000 0.019908 0.000000
# 2 0.000370 0.023582 0.004871 0.000000 0.018368 0.000000
# 3 0.001492 0.004871 0.015621 0.000000 0.022670 0.000000
# 4 0.000000 0.000000 0.000000 0.048907 0.000000 0.014667
# 5 0.019908 0.018368 0.022670 0.000000 0.082797 0.000000
# 6 0.000000 0.000000 0.000000 0.014667 0.000000 0.022496
#
#
# Mechanical properties :
#
#
# Convention : Reuss Voigt Hill
#
# Bulk Modulus (GPa) = 15.12805 66.25747 40.69276
# Shear Modulus (GPa) = 23.21187 41.88164 32.54676
#
# Velocity S-wave (km/s) = 3.16376 4.24971 3.74629
# Velocity P-wave (km/s) = 4.45750 7.25613 6.02166
#
# Compressibility (1/GPa) = 0.06610236
#
# Stress axis : x y z
#
# Youngs Moduli (GPa) = 74.43157 42.40568 64.01822
#
# Poissons Ratio (x) = -0.01568 -0.09551
# Poissons Ratio (y) = -0.02752 -0.31182
# Poissons Ratio (z) = -0.11105 -0.20655
#
# Static dielectric constant tensor:
#      x y z
#    x 1.891850 0.000000 -0.042920 
#    y 0.000000 2.008240 0.000000 
#    z -0.042920 0.000000 1.852460 
# 
# From -- ./inp_files/150367.got.cif
#   From: 2010.05.17/outbox.cif.g08.bks.cpg/sg15_76_cif.got.tgz:150367.got - 2010.06.03 18:47:42.
