data_PCOD9270794
_publ_section_title
;
Structure prediction by ZEFSAII (Michael W. Deem and Ramdas Pophale) SiO2 
 PCOD9270794
Probable space group: C 2/C
;
_chemical_formula_sum "Si O2"
_cell_formula_units_Z 44
_cell_length_a 22.244207
_cell_length_b 19.113763
_cell_length_c 8.193536
_cell_angle_alpha 90.000000
_cell_angle_beta 36.894850
_cell_angle_gamma 90.000000
_cell_volume 2091.403390
_symmetry_space_group_name_H-M "C 2/C"
_symmetry_group_IT_number 15
_symmetry_cell_setting 'monoclinic'
loop_
_space_group_symop_operation_xyz
x,y,z
-x,y,1/2-z
-x,-y,-z
x,-y,1/2+z
1/2+x,1/2+y,z
1/2-x,1/2+y,1/2-z
1/2-x,1/2-y,-z
1/2+x,1/2-y,1/2+z
loop_
_atom_site_type_symbol
_atom_site_label
_atom_site_fract_x
_atom_site_fract_y
_atom_site_fract_z
Si Si1 0.532191 0.576315 0.868951
Si Si2 0.000000 0.828124 0.750000
Si Si3 0.252299 0.083254 0.273490
Si Si4 0.841535 0.280833 0.694639
Si Si5 0.648634 0.008838 0.681080
Si Si6 0.526899 0.118193 0.367100
O O1 0.500000 0.589681 0.750000
O O2 0.651789 0.582309 0.594085
O O3 0.500000 0.500000 0.000000
O O4 0.496253 0.627837 0.090458
O O5 0.098253 0.779966 0.524278
O O6 0.294240 0.161267 0.178272
O O7 0.330114 0.033415 0.199963
O O8 0.250642 0.045728 0.102605
O O9 0.923535 0.323773 0.624993
O O10 0.750000 0.250000 0.000000
O O11 0.608455 0.942983 0.664050
O O12 0.566540 0.071328 0.864356
O O13 0.500000 0.149378 0.250000
#
# Coordination Sequence:
#
# PCOD9270794 Si02
#       6
#     8   4   8   8   8   8
#     4  12  26  46  73 104 135 185 239 291 354 415
#     4  12  26  50  74  96 148 182 232 300 348 420
#     4  11  22  42  66  99 137 172 234 282 348 421
#     4  11  24  44  67  97 140 192 222 277 363 418
#     4  10  20  35  66 100 134 169 216 296 354 392
#     4  10  20  37  64 101 138 172 226 281 349 422
#
# _framework density 21.038506000000002
#
# number of rings (size 3 to 8) (size 9 to 14) (size 15 to 20)
#    0.000    1.091    4.545    2.182    0.000    0.727 
#    3.273    0.909    0.000    0.000    0.000    0.000 
#    0.000    0.000    0.000    0.000    0.000    0.000 
#
# Total GULP energy -122666.894798 kJ/mol
# GULP energy per Si atom -5575.767945 kJ/mol
# Density = 2.099062 g / cm^3
# Si number density = 21.038506 Si / 1000 Ang^3
#
#
#
# Elastic Constant Matrix: (Units=GPa)
#
#
# Indices 1 2 3 4 5 6 
#
# 1 59.5591 33.6121 7.5143 0.0000 9.4687 0.0000
# 2 33.6121 137.1643 74.9328 0.0000 10.6253 0.0000
# 3 7.5143 74.9328 96.5608 0.0000 7.5350 0.0000
# 4 0.0000 0.0000 0.0000 51.2329 0.0000 8.5834
# 5 9.4687 10.6253 7.5350 0.0000 27.4441 0.0000
# 6 0.0000 0.0000 0.0000 8.5834 0.0000 22.3145
#
#
#
# Elastic Compliance Matrix: (Units=1/GPa)
#
#
# Indices 1 2 3 4 5 6 
#
# 1 0.021162 -0.007093 0.004305 0.000000 -0.005737 0.000000
# 2 -0.007093 0.015171 -0.011193 0.000000 -0.000353 0.000000
# 3 0.004305 -0.011193 0.018890 0.000000 -0.002338 0.000000
# 4 0.000000 0.000000 0.000000 0.020863 0.000000 -0.008025
# 5 -0.005737 -0.000353 -0.002338 0.000000 0.039196 0.000000
# 6 0.000000 0.000000 0.000000 -0.008025 0.000000 0.047901
#
#
# Mechanical properties :
#
#
# Convention : Reuss Voigt Hill
#
# Bulk Modulus (GPa) = 36.68345 58.37806 47.53075
# Shear Modulus (GPa) = 24.97098 32.01331 28.49215
#
# Velocity S-wave (km/s) = 3.44891 3.90507 3.68405
# Velocity P-wave (km/s) = 5.77357 6.93839 6.38261
#
# Compressibility (1/GPa) = 0.02726025
#
# Stress axis : x y z
#
# Youngs Moduli (GPa) = 47.25432 65.91471 52.93833
#
# Poissons Ratio (x) = 0.46756 -0.22793
# Poissons Ratio (y) = 0.33520 0.59256
# Poissons Ratio (z) = -0.20345 0.73782
#
# Static dielectric constant tensor:
#      x y z
#    x 1.901420 0.000000 0.056320 
#    y 0.000000 1.739180 0.000000 
#    z 0.056320 0.000000 1.825760 
# 
# From -- ./inp_files/39318.got.cif
#   From: 2010.05.17/outbox.cif.g08.bks.cpg/sg15_20_cif.got.tgz:39318.got - 2010.06.03 18:47:42.
