data_PCOD9270598
_publ_section_title
;
Structure prediction by ZEFSAII (Michael W. Deem and Ramdas Pophale) SiO2 
 PCOD9270598
Probable space group: C 2/C
;
_chemical_formula_sum "Si O2"
_cell_formula_units_Z 60
_cell_length_a 14.820705
_cell_length_b 18.825430
_cell_length_c 13.029759
_cell_angle_alpha 90.000000
_cell_angle_beta 125.590420
_cell_angle_gamma 90.000000
_cell_volume 2956.286339
_symmetry_space_group_name_H-M "C 2/C"
_symmetry_group_IT_number 15
_symmetry_cell_setting 'monoclinic'
loop_
_space_group_symop_operation_xyz
x,y,z
-x,y,1/2-z
-x,-y,-z
x,-y,1/2+z
1/2+x,1/2+y,z
1/2-x,1/2+y,1/2-z
1/2-x,1/2-y,-z
1/2+x,1/2-y,1/2+z
loop_
_atom_site_type_symbol
_atom_site_label
_atom_site_fract_x
_atom_site_fract_y
_atom_site_fract_z
Si Si1 0.258462 0.370805 0.188224
Si Si2 0.772673 0.451759 0.135818
Si Si3 0.000000 0.369209 0.250000
Si Si4 0.632271 0.498111 0.349948
Si Si5 0.495360 0.147111 0.976008
Si Si6 0.937524 0.250624 0.612485
Si Si7 0.760160 0.295593 0.638686
Si Si8 0.293780 0.076951 0.305566
O O1 0.283362 0.396902 0.320346
O O2 0.326933 0.419476 0.155971
O O3 0.126684 0.385479 0.087609
O O4 0.269875 0.286595 0.180362
O O5 0.809282 0.519568 0.226640
O O6 0.886232 0.415160 0.171607
O O7 0.685245 0.478240 0.993390
O O8 0.002999 0.328597 0.142239
O O9 0.500000 0.503490 0.250000
O O10 0.695604 0.548991 0.311487
O O11 0.505471 0.208394 0.069672
O O12 0.592534 0.091085 0.058815
O O13 0.858617 0.306811 0.621542
O O14 0.854750 0.199458 0.498447
O O15 0.000000 0.216818 0.750000
O O16 0.762597 0.349221 0.732287
#
# Coordination Sequence:
#
# PCOD9270598 Si02
#       8
#     8   8   4   8   8   8   8   8
#     4   9  23  41  62  95 131 168 216 272 323 394
#     4  10  23  38  64  95 125 171 213 267 324 394
#     4  10  20  38  68  90 132 164 204 268 334 392
#     4  11  25  45  63  89 132 180 224 258 323 404
#     4  10  20  38  64  99 130 159 216 269 339 380
#     4  10  20  35  60  95 133 162 203 268 326 393
#     4  10  22  40  61  97 130 163 213 267 339 384
#     4  11  23  40  67  95 127 167 216 285 325 389
#
# _framework density 20.295733999999999
#
# number of rings (size 3 to 8) (size 9 to 14) (size 15 to 20)
#    0.000    1.867    2.667    0.000    7.467    4.267 
#    2.400    0.667   13.200    0.000    0.000    0.000 
#    0.000    0.000    0.000    0.000    0.000    0.000 
#
# Total GULP energy -167359.575061 kJ/mol
# GULP energy per Si atom -5578.652502 kJ/mol
# Density = 2.024954 g / cm^3
# Si number density = 20.295734 Si / 1000 Ang^3
#
#
#
# Elastic Constant Matrix: (Units=GPa)
#
#
# Indices 1 2 3 4 5 6 
#
# 1 102.1366 40.1383 47.5604 0.0000 -0.6454 0.0000
# 2 40.1383 98.5312 50.6890 0.0000 -15.7907 0.0000
# 3 47.5604 50.6890 136.2474 0.0000 -16.2725 0.0000
# 4 0.0000 0.0000 0.0000 19.1492 0.0000 -9.5514
# 5 -0.6454 -15.7907 -16.2725 0.0000 31.8284 0.0000
# 6 0.0000 0.0000 0.0000 -9.5514 0.0000 21.7065
#
#
#
# Elastic Compliance Matrix: (Units=1/GPa)
#
#
# Indices 1 2 3 4 5 6 
#
# 1 0.012970 -0.004083 -0.003428 0.000000 -0.003515 0.000000
# 2 -0.004083 0.014357 -0.003275 0.000000 0.005366 0.000000
# 3 -0.003428 -0.003275 0.010174 0.000000 0.003507 0.000000
# 4 0.000000 0.000000 0.000000 0.066906 0.000000 0.029440
# 5 -0.003515 0.005366 0.003507 0.000000 0.035802 0.000000
# 6 0.000000 0.000000 0.000000 0.029440 0.000000 0.059024
#
#
# Mechanical properties :
#
#
# Convention : Reuss Voigt Hill
#
# Bulk Modulus (GPa) = 62.78505 68.18784 65.48644
# Shear Modulus (GPa) = 22.11270 27.77197 24.94234
#
# Velocity S-wave (km/s) = 3.30438 3.70315 3.50943
# Velocity P-wave (km/s) = 6.74987 7.20795 6.98267
#
# Compressibility (1/GPa) = 0.01592736
#
# Stress axis : x y z
#
# Youngs Moduli (GPa) = 77.10376 69.65123 98.29353
#
# Poissons Ratio (x) = 0.28440 0.33696
# Poissons Ratio (y) = 0.31483 0.32194
# Poissons Ratio (z) = 0.26432 0.22813
#
# Static dielectric constant tensor:
#      x y z
#    x 1.764950 0.000000 0.009490 
#    y 0.000000 1.722730 0.000000 
#    z 0.009490 0.000000 1.776100 
# 
# From -- ./inp_files/99822.got.cif
#   From: 2010.05.17/outbox.cif.g08.bks.cpg/sg15_50_cif.got.tgz:99822.got - 2010.06.03 18:47:42.
