data_PCOD9270431
_publ_section_title
;
Structure prediction by ZEFSAII (Michael W. Deem and Ramdas Pophale) SiO2 
 PCOD9270431
Probable space group: C 2/C
;
_chemical_formula_sum "Si O2"
_cell_formula_units_Z 40
_cell_length_a 11.570100
_cell_length_b 19.610246
_cell_length_c 12.727413
_cell_angle_alpha 90.000000
_cell_angle_beta 38.782032
_cell_angle_gamma 90.000000
_cell_volume 1808.772209
_symmetry_space_group_name_H-M "C 2/C"
_symmetry_group_IT_number 15
_symmetry_cell_setting 'monoclinic'
loop_
_space_group_symop_operation_xyz
x,y,z
-x,y,1/2-z
-x,-y,-z
x,-y,1/2+z
1/2+x,1/2+y,z
1/2-x,1/2+y,1/2-z
1/2-x,1/2-y,-z
1/2+x,1/2-y,1/2+z
loop_
_atom_site_type_symbol
_atom_site_label
_atom_site_fract_x
_atom_site_fract_y
_atom_site_fract_z
Si Si1 0.107597 0.562168 0.475172
Si Si2 0.000000 0.914911 0.750000
Si Si3 0.522554 0.151133 0.342809
Si Si4 0.101434 0.191273 0.999113
Si Si5 0.000000 0.348733 0.250000
Si Si6 0.736886 0.783501 0.324014
O O1 0.311698 0.543922 0.370080
O O2 0.123461 0.613665 0.366076
O O3 0.008169 0.601466 0.642096
O O4 0.000000 0.500000 0.500000
O O5 0.024147 0.865820 0.631567
O O6 0.500000 0.111370 0.250000
O O7 0.328516 0.173346 0.530978
O O8 0.642719 0.217978 0.232113
O O9 0.314790 0.196687 0.886562
O O10 0.143943 0.175474 0.846116
O O11 0.953266 0.252515 0.093122
#
# Coordination Sequence:
#
# PCOD9270431 Si02
#       6
#     8   4   8   8   4   8
#     4  11  24  45  68  94 126 173 224 272 332 381
#     4  10  22  43  64  92 128 165 218 280 314 392
#     4  11  22  41  64  94 132 176 214 266 324 393
#     4  10  20  35  58  92 130 160 206 260 320 380
#     4  10  22  41  62  90 128 163 214 278 312 384
#     4  10  21  37  60  96 130 171 212 261 321 397
#
# _framework density 22.114449
#
# number of rings (size 3 to 8) (size 9 to 14) (size 15 to 20)
#    0.000    1.600    4.000    0.600    1.400    2.400 
#    0.000    6.000    2.200    0.000    0.000    0.000 
#    0.000    0.000    0.000    0.000    0.000    0.000 
#
# Total GULP energy -111551.522804 kJ/mol
# GULP energy per Si atom -5577.576140 kJ/mol
# Density = 2.206412 g / cm^3
# Si number density = 22.114449 Si / 1000 Ang^3
#
#
#
# Elastic Constant Matrix: (Units=GPa)
#
#
# Indices 1 2 3 4 5 6 
#
# 1 102.7039 36.5356 60.2037 0.0023 16.0900 -0.0010
# 2 36.5356 41.1289 33.4977 0.0046 -3.3511 -0.0026
# 3 60.2037 33.4977 145.5138 0.0056 11.1513 -0.0040
# 4 0.0023 0.0046 0.0056 8.8565 -0.0026 -2.6784
# 5 16.0900 -3.3511 11.1513 -0.0026 44.5039 0.0016
# 6 -0.0010 -0.0026 -0.0040 -2.6784 0.0016 39.5688
#
#
#
# Elastic Compliance Matrix: (Units=1/GPa)
#
#
# Indices 1 2 3 4 5 6 
#
# 1 0.017614 -0.013087 -0.003784 0.000003 -0.006405 0.000000
# 2 -0.013087 0.040384 -0.004565 -0.000012 0.008916 0.000001
# 3 -0.003784 -0.004565 0.009594 -0.000003 -0.001380 0.000000
# 4 0.000003 -0.000012 -0.000003 0.115271 0.000006 0.007803
# 5 -0.006405 0.008916 -0.001380 0.000006 0.025803 0.000000
# 6 0.000000 0.000001 0.000000 0.007803 0.000000 0.025801
#
#
# Mechanical properties :
#
#
# Convention : Reuss Voigt Hill
#
# Bulk Modulus (GPa) = 40.45309 61.09117 50.77213
# Shear Modulus (GPa) = 17.50837 29.19316 23.35077
#
# Velocity S-wave (km/s) = 2.81680 3.63725 3.25300
# Velocity P-wave (km/s) = 5.37694 6.73234 6.09245
#
# Compressibility (1/GPa) = 0.02471999
#
# Stress axis : x y z
#
# Youngs Moduli (GPa) = 56.77407 24.76247 104.22736
#
# Poissons Ratio (x) = 0.32406 0.39438
# Poissons Ratio (y) = 0.74298 0.47584
# Poissons Ratio (z) = 0.21483 0.11305
#
# Static dielectric constant tensor:
#      x y z
#    x 1.917810 0.000000 0.009200 
#    y 0.000000 1.811390 0.000000 
#    z 0.009200 0.000000 1.884770 
# 
# From -- ./inp_files/30226.got.cif
#   From: 2010.05.17/outbox.cif.g08.bks.cpg/sg15_16_cif.got.tgz:30226.got - 2010.06.03 18:47:42.
