data_PCOD9270668
_publ_section_title
;
Structure prediction by ZEFSAII (Michael W. Deem and Ramdas Pophale) SiO2 
 PCOD9270668
Probable space group: C 2/C
;
_chemical_formula_sum "Si O2"
_cell_formula_units_Z 60
_cell_length_a 20.636600
_cell_length_b 18.563558
_cell_length_c 11.262139
_cell_angle_alpha 90.000000
_cell_angle_beta 43.290612
_cell_angle_gamma 90.000000
_cell_volume 2958.379105
_symmetry_space_group_name_H-M "C 2/C"
_symmetry_group_IT_number 15
_symmetry_cell_setting 'monoclinic'
loop_
_space_group_symop_operation_xyz
x,y,z
-x,y,1/2-z
-x,-y,-z
x,-y,1/2+z
1/2+x,1/2+y,z
1/2-x,1/2+y,1/2-z
1/2-x,1/2-y,-z
1/2+x,1/2-y,1/2+z
loop_
_atom_site_type_symbol
_atom_site_label
_atom_site_fract_x
_atom_site_fract_y
_atom_site_fract_z
Si Si1 0.500000 0.115147 0.750000
Si Si2 0.230280 0.804065 0.753235
Si Si3 0.900114 0.787524 0.129305
Si Si4 0.251618 0.003512 0.441281
Si Si5 0.595769 0.759187 0.255881
Si Si6 0.168285 0.545904 0.419359
Si Si7 0.606668 0.365130 0.118996
Si Si8 0.602586 0.617654 0.083700
O O1 0.424474 0.167157 0.785647
O O2 0.559235 0.068569 0.578347
O O3 0.316057 0.766008 0.706355
O O4 0.188608 0.749731 0.711069
O O5 0.268860 0.880918 0.657696
O O6 0.142985 0.824276 0.954114
O O7 0.893865 0.809082 0.273082
O O8 0.890899 0.860020 0.062295
O O9 0.000711 0.753947 0.958889
O O10 0.306324 0.997789 0.493913
O O11 0.186188 0.933401 0.512151
O O12 0.309712 0.012268 0.239696
O O13 0.181221 0.071552 0.541687
O O14 0.602149 0.693453 0.154484
O O15 0.500000 0.393332 0.250000
O O16 0.500000 0.584212 0.250000
#
# Coordination Sequence:
#
# PCOD9270668 Si02
#       8
#     4   8   8   8   8   8   8   8
#     4  12  24  44  68  96 128 168 230 284 326 390
#     4  11  22  39  65  96 130 172 217 276 335 391
#     4  11  21  38  61  96 132 165 219 274 332 388
#     4  11  24  42  63  95 131 178 220 262 335 397
#     4  11  20  37  65  98 123 161 217 275 329 374
#     4  11  25  43  68  94 131 176 221 277 327 399
#     4  11  23  39  61  91 135 179 213 266 332 404
#     4  10  20  35  61  94 125 158 207 266 319 388
#
# _framework density 20.281376000000002
#
# number of rings (size 3 to 8) (size 9 to 14) (size 15 to 20)
#    0.000    1.067    6.000    1.600    1.867    1.600 
#    0.000    4.000    0.000    0.000    0.000    0.000 
#    0.000    0.000    0.000    0.000    0.000    0.000 
#
# Total GULP energy -167601.987924 kJ/mol
# GULP energy per Si atom -5586.732931 kJ/mol
# Density = 2.023521 g / cm^3
# Si number density = 20.281376 Si / 1000 Ang^3
#
#
#
# Elastic Constant Matrix: (Units=GPa)
#
#
# Indices 1 2 3 4 5 6 
#
# 1 69.1352 22.3140 26.8794 0.0000 8.8512 0.0000
# 2 22.3140 48.4825 32.4180 0.0000 1.6043 0.0000
# 3 26.8794 32.4180 142.5690 0.0000 13.0811 0.0000
# 4 0.0000 0.0000 0.0000 19.0633 0.0000 11.8297
# 5 8.8512 1.6043 13.0811 0.0000 25.0333 0.0000
# 6 0.0000 0.0000 0.0000 11.8297 0.0000 54.3037
#
#
#
# Elastic Compliance Matrix: (Units=1/GPa)
#
#
# Indices 1 2 3 4 5 6 
#
# 1 0.017964 -0.007254 -0.001258 0.000000 -0.005230 0.000000
# 2 -0.007254 0.027300 -0.005162 0.000000 0.003513 0.000000
# 3 -0.001258 -0.005162 0.008775 0.000000 -0.003810 0.000000
# 4 0.000000 0.000000 0.000000 0.060657 0.000000 -0.013214
# 5 -0.005230 0.003513 -0.003810 0.000000 0.043561 0.000000
# 6 0.000000 0.000000 0.000000 -0.013214 0.000000 0.021293
#
#
# Mechanical properties :
#
#
# Convention : Reuss Voigt Hill
#
# Bulk Modulus (GPa) = 37.46561 47.04548 42.25554
# Shear Modulus (GPa) = 23.17009 31.58509 27.37759
#
# Velocity S-wave (km/s) = 3.38365 3.95060 3.67807
# Velocity P-wave (km/s) = 5.81193 6.63750 6.23839
#
# Compressibility (1/GPa) = 0.02669115
#
# Stress axis : x y z
#
# Youngs Moduli (GPa) = 55.66628 36.62972 113.96496
#
# Poissons Ratio (x) = 0.26571 0.14332
# Poissons Ratio (y) = 0.40381 0.58832
# Poissons Ratio (z) = 0.07001 0.18909
#
# Static dielectric constant tensor:
#      x y z
#    x 1.736650 0.000000 0.010350 
#    y 0.000000 1.698380 0.000000 
#    z 0.010350 0.000000 1.733230 
# 
# From -- ./inp_files/113773.got.cif
#   From: 2010.05.17/outbox.cif.g08.bks.cpg/sg15_57_cif.got.tgz:113773.got - 2010.06.03 18:47:42.
