data_PCOD9270147
_publ_section_title
;
Structure prediction by ZEFSAII (Michael W. Deem and Ramdas Pophale) SiO2 
 PCOD9270147
Probable space group: C 2/C
;
_chemical_formula_sum "Si O2"
_cell_formula_units_Z 48
_cell_length_a 19.698761
_cell_length_b 12.081957
_cell_length_c 19.689033
_cell_angle_alpha 90.000000
_cell_angle_beta 158.285393
_cell_angle_gamma 90.000000
_cell_volume 1733.736448
_symmetry_space_group_name_H-M "C 2/C"
_symmetry_group_IT_number 15
_symmetry_cell_setting 'monoclinic'
loop_
_space_group_symop_operation_xyz
x,y,z
-x,y,1/2-z
-x,-y,-z
x,-y,1/2+z
1/2+x,1/2+y,z
1/2-x,1/2+y,1/2-z
1/2-x,1/2-y,-z
1/2+x,1/2-y,1/2+z
loop_
_atom_site_type_symbol
_atom_site_label
_atom_site_fract_x
_atom_site_fract_y
_atom_site_fract_z
Si Si1 0.827761 0.590745 0.015084
Si Si2 0.552488 0.161971 0.580538
Si Si3 0.543441 0.510904 0.647926
Si Si4 0.202464 0.173263 0.572367
Si Si5 0.000000 0.232846 0.750000
Si Si6 0.729177 0.381879 0.696184
Si Si7 0.000000 0.384416 0.250000
O O1 0.710088 0.570924 0.838676
O O2 0.670560 0.649691 0.914265
O O3 0.989284 0.681468 0.175942
O O4 0.896185 0.472000 0.104362
O O5 0.691766 0.111502 0.765811
O O6 0.400279 0.223603 0.487940
O O7 0.676034 0.254920 0.660174
O O8 0.439995 0.105012 0.415213
O O9 0.447891 0.409599 0.598211
O O10 0.626081 0.450266 0.659324
O O11 0.375863 0.588515 0.470094
O O12 0.357472 0.188175 0.660290
#
# Coordination Sequence:
#
# PCOD9270147 Si02
#       7
#     8   8   8   8   4   8   4
#     4  10  20  36  55  77 109 140 184 228 272 327
#     4   9  19  38  56  81 116 144 180 231 277 332
#     4  10  20  35  56  82 109 144 186 228 273 331
#     4  10  21  36  57  81 113 150 186 228 276 325
#     4   9  20  36  54  77 106 144 176 229 282 316
#     4   9  19  35  56  80 110 145 180 224 281 329
#     4  11  22  36  58  83 108 152 192 227 276 324
#
# _framework density 27.685869
#
# number of rings (size 3 to 8) (size 9 to 14) (size 15 to 20)
#    0.000    2.333    0.000    2.000    0.000    2.667 
#    0.000    3.333    0.000    0.000    0.000    0.000 
#    0.000    0.000    0.000    0.000    0.000    0.000 
#
# Total GULP energy -134179.914926 kJ/mol
# GULP energy per Si atom -5590.829789 kJ/mol
# Density = 2.762285 g / cm^3
# Si number density = 27.685869 Si / 1000 Ang^3
#
#
#
# Elastic Constant Matrix: (Units=GPa)
#
#
# Indices 1 2 3 4 5 6 
#
# 1 67.2353 19.6898 22.7928 -0.0012 18.1534 -0.0008
# 2 19.6898 59.5573 61.2706 0.0042 -14.0316 0.0031
# 3 22.7928 61.2706 198.6075 0.0020 -3.8840 0.0012
# 4 -0.0012 0.0042 0.0020 69.9381 0.0017 2.8667
# 5 18.1534 -14.0316 -3.8840 0.0017 41.6424 0.0006
# 6 -0.0008 0.0031 0.0012 2.8667 0.0006 22.8988
#
#
#
# Elastic Compliance Matrix: (Units=1/GPa)
#
#
# Indices 1 2 3 4 5 6 
#
# 1 0.021245 -0.010654 0.000598 0.000001 -0.012796 0.000002
# 2 -0.010654 0.032596 -0.008543 -0.000002 0.014831 -0.000004
# 3 0.000598 -0.008543 0.007554 0.000000 -0.002435 0.000001
# 4 0.000001 -0.000002 0.000000 0.014372 -0.000002 -0.001799
# 5 -0.012796 0.014831 -0.002435 -0.000002 0.034362 -0.000003
# 6 0.000002 -0.000004 0.000001 -0.001799 -0.000003 0.043896
#
#
# Mechanical properties :
#
#
# Convention : Reuss Voigt Hill
#
# Bulk Modulus (GPa) = 41.32588 59.21184 50.26886
# Shear Modulus (GPa) = 25.08927 41.67232 33.38080
#
# Velocity S-wave (km/s) = 3.01360 3.88388 3.47608
# Velocity P-wave (km/s) = 5.20271 6.44563 5.85723
#
# Compressibility (1/GPa) = 0.02419791
#
# Stress axis : x y z
#
# Youngs Moduli (GPa) = 47.06981 30.67879 132.37430
#
# Poissons Ratio (x) = 0.32685 -0.07921
# Poissons Ratio (y) = 0.50147 1.13089
# Poissons Ratio (z) = -0.02816 0.26209
#
# Static dielectric constant tensor:
#      x y z
#    x 2.197740 0.000000 -0.002610 
#    y 0.000000 2.149740 -0.000010 
#    z -0.002610 -0.000010 2.234330 
# 
# From -- ./inp_files/61284.got.cif
#   From: 2010.05.17/outbox.cif.g08.bks.cpg/sg15_31_cif.got.tgz:61284.got - 2010.06.03 18:47:42.
