data_PCOD9270935
_publ_section_title
;
Structure prediction by ZEFSAII (Michael W. Deem and Ramdas Pophale) SiO2 
 PCOD9270935
Probable space group: C 2/C
;
_chemical_formula_sum "Si O2"
_cell_formula_units_Z 56
_cell_length_a 24.917011
_cell_length_b 11.397966
_cell_length_c 22.125965
_cell_angle_alpha 90.000000
_cell_angle_beta 152.688490
_cell_angle_gamma 90.000000
_cell_volume 2883.204779
_symmetry_space_group_name_H-M "C 2/C"
_symmetry_group_IT_number 15
_symmetry_cell_setting 'monoclinic'
loop_
_space_group_symop_operation_xyz
x,y,z
-x,y,1/2-z
-x,-y,-z
x,-y,1/2+z
1/2+x,1/2+y,z
1/2-x,1/2+y,1/2-z
1/2-x,1/2-y,-z
1/2+x,1/2-y,1/2+z
loop_
_atom_site_type_symbol
_atom_site_label
_atom_site_fract_x
_atom_site_fract_y
_atom_site_fract_z
Si Si1 0.468209 0.036368 0.651088
Si Si2 0.883569 0.960031 0.468907
Si Si3 0.522135 0.313866 0.704494
Si Si4 0.073154 0.114334 0.624222
Si Si5 0.388759 0.950820 0.319079
Si Si6 0.763041 0.080040 0.146547
Si Si7 0.097451 0.663088 0.081977
O O1 0.500000 0.991874 0.750000
O O2 0.497043 0.175758 0.680074
O O3 0.545055 0.992029 0.671764
O O4 0.334945 0.025538 0.495693
O O5 0.927502 0.911901 0.448331
O O6 0.745871 0.942397 0.333066
O O7 0.937284 0.883977 0.575599
O O8 0.947797 0.087520 0.530218
O O9 0.500000 0.357368 0.750000
O O10 0.650080 0.342754 0.806965
O O11 0.107254 0.249974 0.649010
O O12 0.163757 0.024050 0.746723
O O13 0.468935 0.840324 0.421250
O O14 0.386388 0.034497 0.374377
O O15 0.696399 0.162643 0.128933
#
# Coordination Sequence:
#
# PCOD9270935 Si02
#       7
#     8   8   8   8   8   8   8
#     4  10  23  37  58  85 115 158 193 240 293 346
#     4  10  20  36  55  86 117 148 190 239 290 351
#     4  10  23  36  58  86 116 159 197 237 294 346
#     4  10  21  37  58  84 120 153 190 237 299 346
#     4  10  21  36  57  87 114 147 193 234 295 347
#     4  10  21  39  56  90 121 149 198 243 287 350
#     4  10  21  38  60  87 117 158 187 241 296 351
#
# _framework density 19.422830999999999
#
# number of rings (size 3 to 8) (size 9 to 14) (size 15 to 20)
#    0.000    2.000    1.429    1.714    6.000    2.286 
#    0.000    0.000    0.000    4.286    0.000    0.000 
#    0.000    0.000    0.000    0.000    0.000    0.000 
#
# Total GULP energy -155922.548048 kJ/mol
# GULP energy per Si atom -5568.662430 kJ/mol
# Density = 1.937862 g / cm^3
# Si number density = 19.422831 Si / 1000 Ang^3
#
#
#
# Elastic Constant Matrix: (Units=GPa)
#
#
# Indices 1 2 3 4 5 6 
#
# 1 108.9306 14.2864 54.5238 0.0000 3.1893 0.0000
# 2 14.2864 35.3065 10.3306 0.0000 11.2238 0.0000
# 3 54.5238 10.3306 121.0555 0.0000 15.3668 0.0000
# 4 0.0000 0.0000 0.0000 11.8717 0.0000 0.2073
# 5 3.1893 11.2238 15.3668 0.0000 40.1696 0.0000
# 6 0.0000 0.0000 0.0000 0.2073 0.0000 21.0758
#
#
#
# Elastic Compliance Matrix: (Units=1/GPa)
#
#
# Indices 1 2 3 4 5 6 
#
# 1 0.012425 -0.004135 -0.005534 0.000000 0.002286 0.000000
# 2 -0.004135 0.032769 0.000196 0.000000 -0.008903 0.000000
# 3 -0.005534 0.000196 0.011233 0.000000 -0.003913 0.000000
# 4 0.000000 0.000000 0.000000 0.084248 0.000000 -0.000829
# 5 0.002286 -0.008903 -0.003913 0.000000 0.028697 0.000000
# 6 0.000000 0.000000 0.000000 -0.000829 0.000000 0.047456
#
#
# Mechanical properties :
#
#
# Convention : Reuss Voigt Hill
#
# Bulk Modulus (GPa) = 26.67929 47.06379 36.87154
# Shear Modulus (GPa) = 20.13945 27.03354 23.58649
#
# Velocity S-wave (km/s) = 3.22358 3.73479 3.48856
# Velocity P-wave (km/s) = 5.25558 6.54843 5.93730
#
# Compressibility (1/GPa) = 0.03748225
#
# Stress axis : x y z
#
# Youngs Moduli (GPa) = 80.48020 30.51623 89.02339
#
# Poissons Ratio (x) = 0.12619 0.49263
# Poissons Ratio (y) = 0.33281 -0.01747
# Poissons Ratio (z) = 0.44535 -0.00599
#
# Static dielectric constant tensor:
#      x y z
#    x 1.681060 0.000000 0.029600 
#    y 0.000000 1.883260 0.000000 
#    z 0.029600 0.000000 1.760230 
# 
# From -- ./inp_files/255482.got.cif
#   From: 2010.05.17/outbox.cif.g08.bks.cpg/sg15_128_cif.got.tgz:255482.got - 2010.06.03 18:47:42.
