data_PCOD9270556
_publ_section_title
;
Structure prediction by ZEFSAII (Michael W. Deem and Ramdas Pophale) SiO2 
 PCOD9270556
Probable space group: C 2/C
;
_chemical_formula_sum "Si O2"
_cell_formula_units_Z 64
_cell_length_a 18.333503
_cell_length_b 15.066417
_cell_length_c 15.001342
_cell_angle_alpha 90.000000
_cell_angle_beta 133.535549
_cell_angle_gamma 90.000000
_cell_volume 3003.944418
_symmetry_space_group_name_H-M "C 2/C"
_symmetry_group_IT_number 15
_symmetry_cell_setting 'monoclinic'
loop_
_space_group_symop_operation_xyz
x,y,z
-x,y,1/2-z
-x,-y,-z
x,-y,1/2+z
1/2+x,1/2+y,z
1/2-x,1/2+y,1/2-z
1/2-x,1/2-y,-z
1/2+x,1/2-y,1/2+z
loop_
_atom_site_type_symbol
_atom_site_label
_atom_site_fract_x
_atom_site_fract_y
_atom_site_fract_z
Si Si1 0.359763 0.718398 0.479851
Si Si2 0.573752 0.896983 0.064659
Si Si3 0.876405 0.505669 0.642987
Si Si4 0.886021 0.624982 0.305182
Si Si5 0.188330 0.851276 0.741225
Si Si6 0.912034 0.689463 0.741285
Si Si7 0.760585 0.033316 0.645009
Si Si8 0.364686 0.289357 0.183360
O O1 0.394759 0.810096 0.465848
O O2 0.367360 0.651620 0.402342
O O3 0.399717 0.695115 0.611412
O O4 0.242614 0.737635 0.402555
O O5 0.542289 0.862924 0.135088
O O6 0.678726 0.949510 0.154132
O O7 0.476874 0.928049 0.928533
O O8 0.842994 0.440054 0.693566
O O9 0.854807 0.609565 0.642433
O O10 0.814539 0.475856 0.503623
O O11 0.000000 0.496548 0.750000
O O12 0.805497 0.654791 0.311215
O O13 0.924529 0.715520 0.290027
O O14 0.152713 0.768833 0.771350
O O15 0.180240 0.943375 0.786001
O O16 0.000000 0.722021 0.750000
O O17 0.836828 0.115435 0.700706
#
# Coordination Sequence:
#
# PCOD9270556 Si02
#       8
#     8   8   8   8   8   8   8   8
#     4   8  16  34  54  79 113 154 188 231 295 339
#     4  10  20  35  60  88 120 148 187 249 304 352
#     4  11  22  35  58  96 125 152 189 243 305 357
#     4  11  21  34  59  95 123 148 189 244 309 360
#     4  10  22  37  59  82 116 163 204 239 282 355
#     4  10  24  43  59  80 118 164 205 246 293 346
#     4  11  21  36  60  89 122 154 196 241 294 354
#     4   9  18  32  56  85 118 153 185 238 293 351
#
# _framework density 21.305320999999999
#
# number of rings (size 3 to 8) (size 9 to 14) (size 15 to 20)
#    0.000    2.000    1.250    4.500    3.500    1.500 
#    0.000    0.000    2.750    1.500    0.000    0.000 
#    0.000    0.000    0.000    0.000    0.000    0.000 
#
# Total GULP energy -178376.330923 kJ/mol
# GULP energy per Si atom -5574.260341 kJ/mol
# Density = 2.125683 g / cm^3
# Si number density = 21.305321 Si / 1000 Ang^3
#
#
#
# Elastic Constant Matrix: (Units=GPa)
#
#
# Indices 1 2 3 4 5 6 
#
# 1 90.4822 31.2376 16.1188 0.0000 -25.8716 0.0000
# 2 31.2376 131.5348 35.6785 0.0000 -13.3353 0.0000
# 3 16.1188 35.6785 51.3771 0.0000 -17.9992 0.0000
# 4 0.0000 0.0000 0.0000 26.5469 0.0000 -2.7098
# 5 -25.8716 -13.3353 -17.9992 0.0000 23.0827 0.0000
# 6 0.0000 0.0000 0.0000 -2.7098 0.0000 41.3617
#
#
#
# Elastic Compliance Matrix: (Units=1/GPa)
#
#
# Indices 1 2 3 4 5 6 
#
# 1 0.017346 -0.003094 0.003978 0.000000 0.020757 0.000000
# 2 -0.003094 0.009923 -0.007054 0.000000 -0.003236 0.000000
# 3 0.003978 -0.007054 0.031987 0.000000 0.025326 0.000000
# 4 0.000000 0.000000 0.000000 0.037923 0.000000 0.002485
# 5 0.020757 -0.003236 0.025326 0.000000 0.084467 0.000000
# 6 0.000000 0.000000 0.000000 0.002485 0.000000 0.024340
#
#
# Mechanical properties :
#
#
# Convention : Reuss Voigt Hill
#
# Bulk Modulus (GPa) = 21.31416 48.82931 35.07173
# Shear Modulus (GPa) = 21.37094 30.88889 26.12991
#
# Velocity S-wave (km/s) = 3.17058 3.81178 3.50587
# Velocity P-wave (km/s) = 4.84038 6.50703 5.73458
#
# Compressibility (1/GPa) = 0.04691718
#
# Stress axis : x y z
#
# Youngs Moduli (GPa) = 57.64863 100.78008 31.26294
#
# Poissons Ratio (x) = 0.31184 -0.12438
# Poissons Ratio (y) = 0.17838 0.22051
# Poissons Ratio (z) = -0.22935 0.71085
#
# Static dielectric constant tensor:
#      x y z
#    x 1.811250 0.000000 0.025050 
#    y 0.000000 1.815410 0.000000 
#    z 0.025050 0.000000 1.881460 
# 
# From -- ./inp_files/162280.got.cif
#   From: 2010.05.17/outbox.cif.g08.bks.cpg/sg15_82_cif.got.tgz:162280.got - 2010.06.03 18:47:42.
