data_PCOD9270685
_publ_section_title
;
Structure prediction by ZEFSAII (Michael W. Deem and Ramdas Pophale) SiO2 
 PCOD9270685
Probable space group: C 2/C
;
_chemical_formula_sum "Si O2"
_cell_formula_units_Z 44
_cell_length_a 9.775187
_cell_length_b 11.916600
_cell_length_c 18.951985
_cell_angle_alpha 90.000000
_cell_angle_beta 74.510242
_cell_angle_gamma 90.000000
_cell_volume 2127.473594
_symmetry_space_group_name_H-M "C 2/C"
_symmetry_group_IT_number 15
_symmetry_cell_setting 'monoclinic'
loop_
_space_group_symop_operation_xyz
x,y,z
-x,y,1/2-z
-x,-y,-z
x,-y,1/2+z
1/2+x,1/2+y,z
1/2-x,1/2+y,1/2-z
1/2-x,1/2-y,-z
1/2+x,1/2-y,1/2+z
loop_
_atom_site_type_symbol
_atom_site_label
_atom_site_fract_x
_atom_site_fract_y
_atom_site_fract_z
Si Si1 0.128372 0.944564 0.842603
Si Si2 0.304868 0.622659 0.409648
Si Si3 0.597758 0.808761 0.672899
Si Si4 0.000000 0.910672 0.250000
Si Si5 0.285355 0.873737 0.413528
Si Si6 0.529112 0.979650 0.913348
O O1 0.241660 0.844309 0.832180
O O2 0.969131 0.906425 0.881183
O O3 0.185833 0.038439 0.888091
O O4 0.114330 0.009343 0.770667
O O5 0.276831 0.748394 0.385804
O O6 0.261271 0.625192 0.498185
O O7 0.196562 0.539039 0.385980
O O8 0.500000 0.857788 0.750000
O O9 0.566668 0.676257 0.683676
O O10 0.546362 0.867912 0.608057
O O11 0.446897 0.919459 0.386439
O O12 0.500000 0.000000 0.000000
#
# Coordination Sequence:
#
# PCOD9270685 Si02
#       6
#     8   8   8   4   8   8
#     4  11  22  37  59  84 111 155 199 234 296 351
#     4  10  20  35  62  87 116 145 198 239 289 363
#     4   9  22  42  56  82 125 152 197 253 301 356
#     4  10  24  38  58  84 120 158 198 250 294 350
#     4   9  20  38  56  88 120 151 182 245 300 342
#     4   9  18  36  63  87 116 158 193 239 304 357
#
# _framework density 20.681806999999999
#
# number of rings (size 3 to 8) (size 9 to 14) (size 15 to 20)
#    0.545    1.818    0.000    1.636    2.545    1.455 
#    3.273    0.000    0.000   16.364    0.000    0.000 
#    0.000    0.000    0.000    0.000    0.000    0.000 
#
# Total GULP energy -122632.515258 kJ/mol
# GULP energy per Si atom -5574.205239 kJ/mol
# Density = 2.063473 g / cm^3
# Si number density = 20.681807 Si / 1000 Ang^3
#
#
#
# Elastic Constant Matrix: (Units=GPa)
#
#
# Indices 1 2 3 4 5 6 
#
# 1 159.4196 33.3379 23.2139 0.0000 -31.8586 0.0000
# 2 33.3379 43.4008 21.2831 0.0000 -13.6442 0.0000
# 3 23.2139 21.2831 33.2451 0.0000 -6.2220 0.0000
# 4 0.0000 0.0000 0.0000 28.6338 0.0000 -0.1178
# 5 -31.8586 -13.6442 -6.2220 0.0000 22.0281 0.0000
# 6 0.0000 0.0000 0.0000 -0.1178 0.0000 24.4602
#
#
#
# Elastic Compliance Matrix: (Units=1/GPa)
#
#
# Indices 1 2 3 4 5 6 
#
# 1 0.009467 -0.002146 -0.003086 0.000000 0.011491 0.000000
# 2 -0.002146 0.040009 -0.021177 0.000000 0.015696 0.000000
# 3 -0.003086 -0.021177 0.044874 0.000000 -0.004905 0.000000
# 4 0.000000 0.000000 0.000000 0.034924 0.000000 0.000168
# 5 0.011491 0.015696 -0.004905 0.000000 0.070353 0.000000
# 6 0.000000 0.000000 0.000000 0.000168 0.000000 0.040884
#
#
# Mechanical properties :
#
#
# Convention : Reuss Voigt Hill
#
# Bulk Modulus (GPa) = 24.07820 43.52613 33.80216
# Shear Modulus (GPa) = 16.27748 25.57313 20.92531
#
# Velocity S-wave (km/s) = 2.80847 3.52021 3.18429
# Velocity P-wave (km/s) = 4.71001 6.13301 5.46800
#
# Compressibility (1/GPa) = 0.04153135
#
# Stress axis : x y z
#
# Youngs Moduli (GPa) = 105.62555 24.99443 22.28484
#
# Poissons Ratio (x) = 0.05365 0.06877
# Poissons Ratio (y) = 0.22671 0.47192
# Poissons Ratio (z) = 0.32596 0.52930
#
# Static dielectric constant tensor:
#      x y z
#    x 1.815760 0.000000 0.024680 
#    y 0.000000 1.729980 0.000000 
#    z 0.024680 0.000000 1.767110 
# 
# From -- ./inp_files/230216.got.cif
#   From: 2010.05.17/outbox.cif.g08.bks.cpg/sg15_116_cif.got.tgz:230216.got - 2010.06.03 18:47:42.
