data_PCOD9270390
_publ_section_title
;
Structure prediction by ZEFSAII (Michael W. Deem and Ramdas Pophale) SiO2 
 PCOD9270390
Probable space group: C 2/C
;
_chemical_formula_sum "Si O2"
_cell_formula_units_Z 52
_cell_length_a 10.903766
_cell_length_b 14.100012
_cell_length_c 15.353981
_cell_angle_alpha 90.000000
_cell_angle_beta 66.023764
_cell_angle_gamma 90.000000
_cell_volume 2156.886637
_symmetry_space_group_name_H-M "C 2/C"
_symmetry_group_IT_number 15
_symmetry_cell_setting 'monoclinic'
loop_
_space_group_symop_operation_xyz
x,y,z
-x,y,1/2-z
-x,-y,-z
x,-y,1/2+z
1/2+x,1/2+y,z
1/2-x,1/2+y,1/2-z
1/2-x,1/2-y,-z
1/2+x,1/2-y,1/2+z
loop_
_atom_site_type_symbol
_atom_site_label
_atom_site_fract_x
_atom_site_fract_y
_atom_site_fract_z
Si Si1 0.873778 0.819981 0.662337
Si Si2 0.814693 0.441149 0.899855
Si Si3 0.584300 0.966737 0.893153
Si Si4 0.181613 0.735356 0.350584
Si Si5 0.734764 0.860256 0.402960
Si Si6 0.400112 0.588415 0.502973
Si Si7 0.500000 0.301618 0.250000
O O1 0.765658 0.900542 0.660171
O O2 0.831339 0.779114 0.768603
O O3 0.846193 0.730612 0.607422
O O4 0.019645 0.863628 0.600336
O O5 0.972991 0.458453 0.850106
O O6 0.740259 0.533552 0.959643
O O7 0.808986 0.449530 0.144162
O O8 0.644561 0.865625 0.899963
O O9 0.295066 0.868748 0.986224
O O10 0.500000 0.000000 0.000000
O O11 0.136680 0.824573 0.421215
O O12 0.093030 0.744541 0.288506
O O13 0.893804 0.855009 0.341213
O O14 0.500000 0.500000 0.500000
#
# Coordination Sequence:
#
# PCOD9270390 Si02
#       7
#     8   8   8   8   8   8   4
#     4  10  21  37  62  88 119 156 196 255 300 352
#     4  10  20  37  60  85 114 157 200 241 298 356
#     4  10  21  37  57  83 117 154 194 242 294 357
#     4  11  22  38  59  90 119 153 200 247 303 359
#     4  10  20  35  58  87 116 151 196 244 295 353
#     4  10  21  38  62  90 121 155 200 252 297 354
#     4  10  20  36  62  84 112 150 192 252 294 344
#
# _framework density 24.108823999999998
#
# number of rings (size 3 to 8) (size 9 to 14) (size 15 to 20)
#    0.000    1.846    0.000    6.000    0.000    6.154 
#    0.000    6.923    0.000    7.385    0.000    0.000 
#    0.000    0.000    0.000    0.000    0.000    0.000 
#
# Total GULP energy -145063.190503 kJ/mol
# GULP energy per Si atom -5579.353481 kJ/mol
# Density = 2.405395 g / cm^3
# Si number density = 24.108824 Si / 1000 Ang^3
#
#
#
# Elastic Constant Matrix: (Units=GPa)
#
#
# Indices 1 2 3 4 5 6 
#
# 1 47.3460 27.8091 13.2911 0.0000 -12.3370 0.0000
# 2 27.8091 129.5856 31.6294 0.0000 -11.8475 0.0000
# 3 13.2911 31.6294 106.3950 0.0000 -14.9216 0.0000
# 4 0.0000 0.0000 0.0000 -2.1544 0.0000 -37.5471
# 5 -12.3370 -11.8475 -14.9216 0.0000 31.2212 0.0000
# 6 0.0000 0.0000 0.0000 -37.5471 0.0000 19.9286
#
#
#
# Elastic Compliance Matrix: (Units=1/GPa)
#
#
# Indices 1 2 3 4 5 6 
#
# 1 0.026231 -0.004699 -0.000725 0.000000 0.008235 0.000000
# 2 -0.004699 0.009295 -0.002082 0.000000 0.000676 0.000000
# 3 -0.000725 -0.002082 0.010673 0.000000 0.004025 0.000000
# 4 0.000000 0.000000 0.000000 -0.013718 0.000000 -0.025846
# 5 0.008235 0.000676 0.004025 0.000000 0.037464 0.000000
# 6 0.000000 0.000000 0.000000 -0.025846 0.000000 0.001483
#
#
# Mechanical properties :
#
#
# Convention : Reuss Voigt Hill
#
# Bulk Modulus (GPa) = 32.06423 47.64286 39.85354
# Shear Modulus (GPa) = 51.63485 23.83890 37.73688
#
# Velocity S-wave (km/s) = 4.63292 3.14794 3.96064
# Velocity P-wave (km/s) = 6.47667 5.74606 6.12227
#
# Compressibility (1/GPa) = 0.03118740
#
# Stress axis : x y z
#
# Youngs Moduli (GPa) = 38.12335 107.58256 93.69699
#
# Poissons Ratio (x) = 0.50556 0.06791
# Poissons Ratio (y) = 0.17915 0.19503
# Poissons Ratio (z) = 0.02763 0.22393
#
# Static dielectric constant tensor:
#      x y z
#    x 2.017870 0.000000 0.002380 
#    y 0.000000 1.986890 0.000000 
#    z 0.002380 0.000000 1.991970 
# 
# From -- ./inp_files/244164.got.cif
#   From: 2010.05.17/outbox.cif.g08.bks.cpg/sg15_123_cif.got.tgz:244164.got - 2010.06.03 18:47:42.
