data_PCOD9270915
_publ_section_title
;
Structure prediction by ZEFSAII (Michael W. Deem and Ramdas Pophale) SiO2 
 PCOD9270915
Probable space group: C 2/C
;
_chemical_formula_sum "Si O2"
_cell_formula_units_Z 64
_cell_length_a 24.164473
_cell_length_b 21.260298
_cell_length_c 9.591515
_cell_angle_alpha 90.000000
_cell_angle_beta 137.970038
_cell_angle_gamma 90.000000
_cell_volume 3299.110619
_symmetry_space_group_name_H-M "C 2/C"
_symmetry_group_IT_number 15
_symmetry_cell_setting 'monoclinic'
loop_
_space_group_symop_operation_xyz
x,y,z
-x,y,1/2-z
-x,-y,-z
x,-y,1/2+z
1/2+x,1/2+y,z
1/2-x,1/2+y,1/2-z
1/2-x,1/2-y,-z
1/2+x,1/2-y,1/2+z
loop_
_atom_site_type_symbol
_atom_site_label
_atom_site_fract_x
_atom_site_fract_y
_atom_site_fract_z
Si Si1 0.635112 0.617581 0.352276
Si Si2 0.181805 0.799741 0.420876
Si Si3 0.156453 0.681645 0.912295
Si Si4 0.056137 0.007134 0.738220
Si Si5 0.286071 0.950260 0.980345
Si Si6 0.262846 0.560770 0.434061
Si Si7 0.091873 0.214772 0.474520
Si Si8 0.649418 0.715845 0.173837
O O1 0.580902 0.564278 0.323000
O O2 0.711159 0.579407 0.430668
O O3 0.654293 0.670288 0.502725
O O4 0.600677 0.658751 0.158597
O O5 0.250000 0.750000 0.500000
O O6 0.232254 0.865019 0.530727
O O7 0.141774 0.782709 0.494687
O O8 0.111940 0.798896 0.171000
O O9 0.110241 0.714731 0.955170
O O10 0.132111 0.720528 0.727644
O O11 0.147163 0.606394 0.885047
O O12 0.253790 0.697270 0.119371
O O13 0.000000 0.038043 0.750000
O O14 0.140873 0.042277 0.868725
O O15 0.000000 0.000000 0.500000
O O16 0.262027 0.954305 0.772433
O O17 0.292500 0.018938 0.063520
O O18 0.000000 0.198682 0.250000
#
# Coordination Sequence:
#
# PCOD9270915 Si02
#       8
#     8   8   8   8   8   8   8   8
#     4   9  19  35  50  72 110 153 188 219 273 322
#     4  12  23  37  58  85 110 145 195 246 278 326
#     4   9  17  37  57  77 108 148 182 228 298 324
#     4  11  23  34  48  69 111 161 193 216 261 327
#     4  10  20  36  55  80 108 143 190 236 275 329
#     4  11  23  35  52  80 108 146 195 237 271 328
#     4  11  23  35  56  85 116 150 186 233 286 340
#     4   9  17  34  58  76 101 144 190 234 273 327
#
# _framework density 19.399166999999998
#
# number of rings (size 3 to 8) (size 9 to 14) (size 15 to 20)
#    0.000    1.750    3.750    2.625    7.000    0.000 
#    0.000    2.500    0.000    0.000    0.000    3.500 
#    0.000    0.000    0.000    0.000    0.000    0.000 
#
# Total GULP energy -178290.306958 kJ/mol
# GULP energy per Si atom -5571.572092 kJ/mol
# Density = 1.935501 g / cm^3
# Si number density = 19.399167 Si / 1000 Ang^3
#
#
#
# Elastic Constant Matrix: (Units=GPa)
#
#
# Indices 1 2 3 4 5 6 
#
# 1 25.3834 9.8995 10.7970 0.0000 -19.2360 0.0000
# 2 9.8995 100.7658 10.9609 0.0000 -8.3225 0.0000
# 3 10.7970 10.9609 78.6184 0.0000 -32.6591 0.0000
# 4 0.0000 0.0000 0.0000 15.6363 0.0000 -6.1444
# 5 -19.2360 -8.3225 -32.6591 0.0000 31.2701 0.0000
# 6 0.0000 0.0000 0.0000 -6.1444 0.0000 1.6315
#
#
#
# Elastic Compliance Matrix: (Units=1/GPa)
#
#
# Indices 1 2 3 4 5 6 
#
# 1 0.088266 -0.004711 0.018670 0.000000 0.072543 0.000000
# 2 -0.004711 0.010410 -0.001514 0.000000 -0.001709 0.000000
# 3 0.018670 -0.001514 0.026443 0.000000 0.038699 0.000000
# 4 0.000000 0.000000 0.000000 -0.133258 0.000000 -0.501863
# 5 0.072543 -0.001709 0.038699 0.000000 0.116568 0.000000
# 6 0.000000 0.000000 0.000000 -0.501863 0.000000 -1.277139
#
#
# Mechanical properties :
#
#
# Convention : Reuss Voigt Hill
#
# Bulk Modulus (GPa) = 6.66627 29.78695 18.22661
# Shear Modulus (GPa) = -4.37217 21.24828 8.43805
#
# Velocity S-wave (km/s) = -1.50289 3.31315 2.08786
# Velocity P-wave (km/s) = 0.65746 5.47942 3.90233
#
# Compressibility (1/GPa) = 0.15000893
#
# Stress axis : x y z
#
# Youngs Moduli (GPa) = 11.32941 96.05777 37.81724
#
# Poissons Ratio (x) = 0.45252 -0.70605
# Poissons Ratio (y) = 0.05337 0.05727
# Poissons Ratio (z) = -0.21152 0.14546
#
# Static dielectric constant tensor:
#      x y z
#    x 1.726840 0.000000 -0.016550 
#    y 0.000000 1.773080 0.000000 
#    z -0.016550 0.000000 1.682020 
# 
# From -- ./inp_files/67442.got.cif
#   From: 2010.05.17/outbox.cif.g08.bks.cpg/sg15_34_cif.got.tgz:67442.got - 2010.06.03 18:47:42.
