data_PCOD9270964
_publ_section_title
;
Structure prediction by ZEFSAII (Michael W. Deem and Ramdas Pophale) SiO2 
 PCOD9270964
Probable space group: C 2/C
;
_chemical_formula_sum "Si O2"
_cell_formula_units_Z 60
_cell_length_a 13.586424
_cell_length_b 9.315824
_cell_length_c 23.987955
_cell_angle_alpha 90.000000
_cell_angle_beta 88.904819
_cell_angle_gamma 90.000000
_cell_volume 3035.570485
_symmetry_space_group_name_H-M "C 2/C"
_symmetry_group_IT_number 15
_symmetry_cell_setting 'monoclinic'
loop_
_space_group_symop_operation_xyz
x,y,z
-x,y,1/2-z
-x,-y,-z
x,-y,1/2+z
1/2+x,1/2+y,z
1/2-x,1/2+y,1/2-z
1/2-x,1/2-y,-z
1/2+x,1/2-y,1/2+z
loop_
_atom_site_type_symbol
_atom_site_label
_atom_site_fract_x
_atom_site_fract_y
_atom_site_fract_z
Si Si1 0.894964 0.922729 0.506052
Si Si2 0.743833 0.933280 0.599960
Si Si3 0.000000 0.418779 0.750000
Si Si4 0.794300 0.097165 0.893899
Si Si5 0.696297 0.380137 0.301022
Si Si6 0.792014 0.455379 0.705168
Si Si7 0.550656 0.882788 0.537921
Si Si8 0.507543 0.286753 0.147975
O O1 0.840424 0.965182 0.562878
O O2 0.817775 0.951393 0.456428
O O3 0.914530 0.752276 0.499867
O O4 0.000000 0.000000 0.500000
O O5 0.743130 0.761409 0.609802
O O6 0.645900 0.954805 0.564958
O O7 0.741988 0.030049 0.654558
O O8 0.098482 0.492994 0.772927
O O9 0.964157 0.320613 0.802116
O O10 0.903673 0.106843 0.866490
O O11 0.722967 0.000388 0.858487
O O12 0.712482 0.462125 0.243266
O O13 0.724027 0.214678 0.291219
O O14 0.587187 0.368198 0.327749
O O15 0.493709 0.807505 0.591216
O O16 0.500000 0.000000 0.500000
#
# Coordination Sequence:
#
# PCOD9270964 Si02
#       8
#     8   8   4   8   8   8   8   8
#     4  10  21  38  58  85 123 160 196 238 292 349
#     4  10  20  38  60  83 117 157 197 241 291 346
#     4  10  20  36  56  80 112 150 188 236 286 340
#     4  10  20  38  61  87 115 154 196 240 290 348
#     4  11  22  39  61  86 114 152 194 242 294 352
#     4  11  23  39  60  84 114 149 192 239 292 348
#     4  10  21  37  60  88 119 155 198 245 293 345
#     4   9  19  37  60  83 113 153 188 232 295 351
#
# _framework density 19.765643000000001
#
# number of rings (size 3 to 8) (size 9 to 14) (size 15 to 20)
#    0.000    2.133    0.000    7.200    0.000    5.333 
#    0.000    6.000    0.000    0.800    0.000    0.000 
#    0.000    0.000    0.000    0.000    0.000    0.000 
#
# Total GULP energy -167326.617077 kJ/mol
# GULP energy per Si atom -5577.553903 kJ/mol
# Density = 1.972066 g / cm^3
# Si number density = 19.765643 Si / 1000 Ang^3
#
#
#
# Elastic Constant Matrix: (Units=GPa)
#
#
# Indices 1 2 3 4 5 6 
#
# 1 49.8355 22.8655 7.4024 0.0000 6.3331 0.0000
# 2 22.8655 54.1847 34.7461 0.0000 15.8072 0.0000
# 3 7.4024 34.7461 77.4260 0.0000 16.1665 0.0000
# 4 0.0000 0.0000 0.0000 46.5497 0.0000 4.7384
# 5 6.3331 15.8072 16.1665 0.0000 33.2737 0.0000
# 6 0.0000 0.0000 0.0000 4.7384 0.0000 26.5599
#
#
#
# Elastic Compliance Matrix: (Units=1/GPa)
#
#
# Indices 1 2 3 4 5 6 
#
# 1 0.025495 -0.012819 0.003402 0.000000 -0.000416 0.000000
# 2 -0.012819 0.034111 -0.012474 0.000000 -0.007705 0.000000
# 3 0.003402 -0.012474 0.019015 0.000000 -0.003960 0.000000
# 4 0.000000 0.000000 0.000000 0.021880 0.000000 -0.003903
# 5 -0.000416 -0.007705 -0.003960 0.000000 0.035717 0.000000
# 6 0.000000 0.000000 0.000000 -0.003903 0.000000 0.038347
#
#
# Mechanical properties :
#
#
# Convention : Reuss Voigt Hill
#
# Bulk Modulus (GPa) = 28.70255 34.60824 31.65540
# Shear Modulus (GPa) = 21.74286 29.03882 25.39084
#
# Velocity S-wave (km/s) = 3.32027 3.83712 3.58801
# Velocity P-wave (km/s) = 5.40850 6.09742 5.76327
#
# Compressibility (1/GPa) = 0.03484011
#
# Stress axis : x y z
#
# Youngs Moduli (GPa) = 39.22312 29.31572 52.59018
#
# Poissons Ratio (x) = 0.37580 -0.17891
# Poissons Ratio (y) = 0.50280 0.65599
# Poissons Ratio (z) = -0.13344 0.36567
#
# Static dielectric constant tensor:
#      x y z
#    x 1.724450 0.000000 -0.004030 
#    y 0.000000 1.680190 0.000000 
#    z -0.004030 0.000000 1.745660 
# 
# From -- ./inp_files/291571.got.cif
#   From: 2010.05.17/outbox.cif.g08.bks.cpg/sg15_146_cif.got.tgz:291571.got - 2010.06.03 18:47:42.
