data_PCOD9270980
_publ_section_title
;
Structure prediction by ZEFSAII (Michael W. Deem and Ramdas Pophale) SiO2 
 PCOD9270980
Probable space group: C 2/C
;
_chemical_formula_sum "Si O2"
_cell_formula_units_Z 56
_cell_length_a 20.801405
_cell_length_b 23.257449
_cell_length_c 10.874150
_cell_angle_alpha 90.000000
_cell_angle_beta 35.896089
_cell_angle_gamma 90.000000
_cell_volume 3084.484548
_symmetry_space_group_name_H-M "C 2/C"
_symmetry_group_IT_number 15
_symmetry_cell_setting 'monoclinic'
loop_
_space_group_symop_operation_xyz
x,y,z
-x,y,1/2-z
-x,-y,-z
x,-y,1/2+z
1/2+x,1/2+y,z
1/2-x,1/2+y,1/2-z
1/2-x,1/2-y,-z
1/2+x,1/2-y,1/2+z
loop_
_atom_site_type_symbol
_atom_site_label
_atom_site_fract_x
_atom_site_fract_y
_atom_site_fract_z
Si Si1 0.377294 0.022893 0.678268
Si Si2 0.282548 0.142673 0.787353
Si Si3 0.618434 0.378378 0.760483
Si Si4 0.633838 0.611798 0.799922
Si Si5 0.595500 0.741355 0.422795
Si Si6 0.755029 0.010921 0.361421
Si Si7 0.636489 0.719904 0.645461
O O1 0.369770 0.091049 0.661927
O O2 0.500000 0.000000 0.500000
O O3 0.312300 0.995167 0.662295
O O4 0.320276 0.013383 0.899376
O O5 0.224327 0.142337 0.745568
O O6 0.340581 0.202923 0.722664
O O7 0.184542 0.125909 0.031306
O O8 0.634637 0.316833 0.798598
O O9 0.671248 0.431711 0.751926
O O10 0.487876 0.386733 0.954321
O O11 0.671361 0.546019 0.734044
O O12 0.633055 0.651454 0.679402
O O13 0.615336 0.732990 0.536532
O O14 0.463382 0.745330 0.617776
O O15 0.750000 0.750000 0.500000
#
# Coordination Sequence:
#
# PCOD9270980 Si02
#       7
#     8   8   8   8   8   8   8
#     4  10  22  40  59  84 117 155 201 240 294 344
#     4  10  20  38  58  82 113 151 192 235 287 353
#     4  10  21  37  57  84 117 146 187 240 291 349
#     4  10  20  36  60  84 112 152 189 235 295 344
#     4  10  21  36  57  84 112 151 188 236 291 339
#     4  10  22  38  60  87 116 153 194 244 291 354
#     4  10  20  36  56  82 116 144 194 239 277 345
#
# _framework density 18.155383
#
# number of rings (size 3 to 8) (size 9 to 14) (size 15 to 20)
#    0.000    2.000    1.429    1.714    2.000    1.143 
#    2.571    1.429    0.000    0.000    0.000    0.000 
#    0.000    0.000    0.000    0.000    0.000    0.000 
#
# Total GULP energy -156086.020093 kJ/mol
# GULP energy per Si atom -5574.500718 kJ/mol
# Density = 1.811406 g / cm^3
# Si number density = 18.155383 Si / 1000 Ang^3
#
#
#
# Elastic Constant Matrix: (Units=GPa)
#
#
# Indices 1 2 3 4 5 6 
#
# 1 59.7640 33.9463 27.2703 0.0000 -11.1066 0.0000
# 2 33.9463 134.5013 48.2256 0.0000 -26.4039 0.0000
# 3 27.2703 48.2256 77.2822 0.0001 -21.3954 0.0000
# 4 0.0000 0.0000 0.0001 30.3913 0.0000 0.2089
# 5 -11.1066 -26.4039 -21.3954 0.0000 26.8580 0.0000
# 6 0.0000 0.0000 0.0000 0.2089 0.0000 24.3354
#
#
#
# Elastic Compliance Matrix: (Units=1/GPa)
#
#
# Indices 1 2 3 4 5 6 
#
# 1 0.021147 -0.003232 -0.005009 0.000000 0.001578 0.000000
# 2 -0.003232 0.010881 -0.003924 0.000000 0.006235 0.000000
# 3 -0.005009 -0.003924 0.019904 0.000000 0.009927 0.000000
# 4 0.000000 0.000000 0.000000 0.032906 0.000000 -0.000282
# 5 0.001578 0.006235 0.009927 0.000000 0.051923 0.000000
# 6 0.000000 0.000000 0.000000 -0.000282 0.000000 0.041095
#
#
# Mechanical properties :
#
#
# Convention : Reuss Voigt Hill
#
# Bulk Modulus (GPa) = 36.22626 54.49242 45.35934
# Shear Modulus (GPa) = 23.65356 27.12396 25.38876
#
# Velocity S-wave (km/s) = 3.61340 3.86941 3.74360
# Velocity P-wave (km/s) = 6.11602 7.07409 6.61243
#
# Compressibility (1/GPa) = 0.02760428
#
# Stress axis : x y z
#
# Youngs Moduli (GPa) = 47.28881 91.90028 50.24221
#
# Poissons Ratio (x) = 0.29698 0.25164
# Poissons Ratio (y) = 0.15281 0.19713
# Poissons Ratio (z) = 0.23685 0.36058
#
# Static dielectric constant tensor:
#      x y z
#    x 1.644870 0.000000 0.008030 
#    y 0.000000 1.612650 0.000000 
#    z 0.008030 0.000000 1.627850 
# 
# From -- ./inp_files/90912.got.cif
#   From: 2010.05.17/outbox.cif.g08.bks.cpg/sg15_46_cif.got.tgz:90912.got - 2010.06.03 18:47:42.
