data_PCOD9270337
_publ_section_title
;
Structure prediction by ZEFSAII (Michael W. Deem and Ramdas Pophale) SiO2 
 PCOD9270337
Probable space group: C 2/C
;
_chemical_formula_sum "Si O2"
_cell_formula_units_Z 56
_cell_length_a 7.177114
_cell_length_b 30.057220
_cell_length_c 16.944164
_cell_angle_alpha 90.000000
_cell_angle_beta 37.020265
_cell_angle_gamma 90.000000
_cell_volume 2200.825416
_symmetry_space_group_name_H-M "C 2/C"
_symmetry_group_IT_number 15
_symmetry_cell_setting 'monoclinic'
loop_
_space_group_symop_operation_xyz
x,y,z
-x,y,1/2-z
-x,-y,-z
x,-y,1/2+z
1/2+x,1/2+y,z
1/2-x,1/2+y,1/2-z
1/2-x,1/2-y,-z
1/2+x,1/2-y,1/2+z
loop_
_atom_site_type_symbol
_atom_site_label
_atom_site_fract_x
_atom_site_fract_y
_atom_site_fract_z
Si Si1 0.275891 0.716685 0.250442
Si Si2 0.728451 0.952689 0.497360
Si Si3 0.582079 0.146838 0.039822
Si Si4 0.275829 0.998327 0.248623
Si Si5 0.638923 0.313648 0.286753
Si Si6 0.737339 0.328078 0.497727
Si Si7 0.637466 0.418177 0.880716
O O1 0.500000 0.722718 0.250000
O O2 0.076210 0.761142 0.314940
O O3 0.479035 0.709128 0.103015
O O4 0.086303 0.671677 0.331673
O O5 0.555906 0.906052 0.541314
O O6 0.490986 0.992431 0.600181
O O7 0.896042 0.943368 0.524862
O O8 0.002859 0.962635 0.343616
O O9 0.425416 0.168780 0.016498
O O10 0.943816 0.159690 0.917046
O O11 0.500000 0.991706 0.250000
O O12 0.099268 0.045079 0.325936
O O13 0.500000 0.329796 0.250000
O O14 0.007373 0.318952 0.154810
O O15 0.575301 0.375678 0.546515
O O16 0.000000 0.405966 0.750000
#
# Coordination Sequence:
#
# PCOD9270337 Si02
#       7
#     8   8   8   8   8   8   8
#     4  10  20  36  57  80 110 149 188 228 270 320
#     4  10  20  35  58  82 107 144 185 227 274 327
#     4  10  22  38  56  82 116 148 180 225 280 330
#     4   9  18  34  54  81 110 139 178 230 278 317
#     4  10  22  37  55  81 115 150 182 226 278 323
#     4  10  21  38  57  82 116 148 181 227 277 323
#     4   9  18  34  57  84 108 144 187 225 271 326
#
# _framework density 25.445
#
# number of rings (size 3 to 8) (size 9 to 14) (size 15 to 20)
#    0.000    2.571    0.000    4.286    0.000    5.143 
#    0.000    0.714    0.000    5.143    0.000    0.000 
#    0.000    0.000    0.000    0.000    0.000    0.000 
#
# Total GULP energy -156552.082076 kJ/mol
# GULP energy per Si atom -5591.145788 kJ/mol
# Density = 2.538709 g / cm^3
# Si number density = 25.445000 Si / 1000 Ang^3
#
#
#
# Elastic Constant Matrix: (Units=GPa)
#
#
# Indices 1 2 3 4 5 6 
#
# 1 47.1104 -3.0096 18.6432 0.0000 -2.0815 0.0000
# 2 -3.0096 52.5348 37.2561 0.0000 -14.8659 0.0000
# 3 18.6432 37.2561 159.4996 0.0000 -1.7043 0.0000
# 4 0.0000 0.0000 0.0000 33.6743 0.0000 -15.6989
# 5 -2.0815 -14.8659 -1.7043 0.0000 16.0652 0.0000
# 6 0.0000 0.0000 0.0000 -15.6989 0.0000 25.4246
#
#
#
# Elastic Compliance Matrix: (Units=1/GPa)
#
#
# Indices 1 2 3 4 5 6 
#
# 1 0.023785 0.007000 -0.004318 0.000000 0.009101 0.000000
# 2 0.007000 0.034540 -0.008545 0.000000 0.031962 0.000000
# 3 -0.004318 -0.008545 0.008690 0.000000 -0.007544 0.000000
# 4 0.000000 0.000000 0.000000 0.041700 0.000000 0.025748
# 5 0.009101 0.031962 -0.007544 0.000000 0.092201 0.000000
# 6 0.000000 0.000000 0.000000 0.025748 0.000000 0.055231
#
#
# Mechanical properties :
#
#
# Convention : Reuss Voigt Hill
#
# Bulk Modulus (GPa) = 18.08671 40.54716 29.31694
# Shear Modulus (GPa) = 17.46420 28.78318 23.12369
#
# Velocity S-wave (km/s) = 2.62267 3.36697 3.01785
# Velocity P-wave (km/s) = 4.03668 5.57540 4.86723
#
# Compressibility (1/GPa) = 0.05528922
#
# Stress axis : x y z
#
# Youngs Moduli (GPa) = 42.04373 28.95213 115.08082
#
# Poissons Ratio (x) = -0.20267 0.49691
# Poissons Ratio (y) = -0.29431 0.98331
# Poissons Ratio (z) = 0.18154 0.24738
#
# Static dielectric constant tensor:
#      x y z
#    x 2.064750 0.000000 -0.002550 
#    y 0.000000 1.960440 0.000000 
#    z -0.002550 0.000000 2.056470 
# 
# From -- ./inp_files/234926.got.cif
#   From: 2010.05.17/outbox.cif.g08.bks.cpg/sg15_118_cif.got.tgz:234926.got - 2010.06.03 18:47:42.
