data_PCOD9270995
_publ_section_title
;
Structure prediction by ZEFSAII (Michael W. Deem and Ramdas Pophale) SiO2 
 PCOD9270995
Probable space group: C 2/C
;
_chemical_formula_sum "Si O2"
_cell_formula_units_Z 60
_cell_length_a 10.329129
_cell_length_b 16.844492
_cell_length_c 19.650664
_cell_angle_alpha 90.000000
_cell_angle_beta 103.828688
_cell_angle_gamma 90.000000
_cell_volume 3319.897419
_symmetry_space_group_name_H-M "C 2/C"
_symmetry_group_IT_number 15
_symmetry_cell_setting 'monoclinic'
loop_
_space_group_symop_operation_xyz
x,y,z
-x,y,1/2-z
-x,-y,-z
x,-y,1/2+z
1/2+x,1/2+y,z
1/2-x,1/2+y,1/2-z
1/2-x,1/2-y,-z
1/2+x,1/2-y,1/2+z
loop_
_atom_site_type_symbol
_atom_site_label
_atom_site_fract_x
_atom_site_fract_y
_atom_site_fract_z
Si Si1 0.204113 0.773742 0.416992
Si Si2 0.126594 0.472822 0.805348
Si Si3 0.609183 0.746683 0.631930
Si Si4 0.410755 0.912004 0.431595
Si Si5 0.337830 0.134016 0.628429
Si Si6 0.756038 0.314137 0.718742
Si Si7 0.040305 0.417525 0.591767
Si Si8 0.500000 0.753499 0.250000
O O1 0.250000 0.750000 0.500000
O O2 0.290623 0.851044 0.407611
O O3 0.233945 0.713749 0.358280
O O4 0.043703 0.780842 0.394983
O O5 0.201665 0.548279 0.845330
O O6 0.203439 0.406699 0.772027
O O7 0.000000 0.508615 0.750000
O O8 0.054958 0.422769 0.855424
O O9 0.704950 0.686298 0.603542
O O10 0.653581 0.761789 0.716838
O O11 0.619467 0.835666 0.602729
O O12 0.551847 0.884620 0.415620
O O13 0.443638 0.918350 0.514993
O O14 0.379381 0.000048 0.400196
O O15 0.419847 0.188823 0.690435
O O16 0.606231 0.299318 0.723833
#
# Coordination Sequence:
#
# PCOD9270995 Si02
#       8
#     8   8   8   8   8   8   8   4
#     4  12  21  38  63  90 119 163 200 246 301 356
#     4  11  18  35  61  83 111 159 197 241 293 359
#     4  11  22  37  59  94 119 151 200 252 300 348
#     4  10  21  38  61  86 118 153 202 241 288 363
#     4  10  22  36  59  86 119 154 194 244 296 356
#     4  11  21  37  61  88 121 155 201 253 293 362
#     4  10  20  36  59  89 111 155 200 241 287 359
#     4  10  20  36  56  84 116 156 194 240 308 346
#
# _framework density 18.072846999999999
#
# number of rings (size 3 to 8) (size 9 to 14) (size 15 to 20)
#    0.000    1.333    6.000    0.400    0.000    0.533 
#    0.000    2.667    0.000    8.000    0.000    0.000 
#    0.000    0.000    0.000    0.000    0.000    0.000 
#
# Total GULP energy -167070.734309 kJ/mol
# GULP energy per Si atom -5569.024477 kJ/mol
# Density = 1.803171 g / cm^3
# Si number density = 18.072847 Si / 1000 Ang^3
#
#
#
# Elastic Constant Matrix: (Units=GPa)
#
#
# Indices 1 2 3 4 5 6 
#
# 1 119.6214 56.8015 22.2753 0.0000 2.7953 0.0000
# 2 56.8015 130.3334 2.2227 0.0000 3.0736 0.0000
# 3 22.2753 2.2227 53.2108 0.0000 2.8225 0.0000
# 4 0.0000 0.0000 0.0000 24.5205 0.0000 1.4317
# 5 2.7953 3.0736 2.8225 0.0000 16.4971 0.0000
# 6 0.0000 0.0000 0.0000 1.4317 0.0000 29.0985
#
#
#
# Elastic Compliance Matrix: (Units=1/GPa)
#
#
# Indices 1 2 3 4 5 6 
#
# 1 0.011585 -0.004964 -0.004629 0.000000 -0.000246 0.000000
# 2 -0.004964 0.009837 0.001736 0.000000 -0.001289 0.000000
# 3 -0.004629 0.001736 0.020823 0.000000 -0.003102 0.000000
# 4 0.000000 0.000000 0.000000 0.040900 0.000000 -0.002012
# 5 -0.000246 -0.001289 -0.003102 0.000000 0.061429 0.000000
# 6 0.000000 0.000000 0.000000 -0.002012 0.000000 0.034465
#
#
# Mechanical properties :
#
#
# Convention : Reuss Voigt Hill
#
# Bulk Modulus (GPa) = 37.69440 51.75159 44.72300
# Shear Modulus (GPa) = 24.55830 28.81427 26.68629
#
# Velocity S-wave (km/s) = 3.69026 3.99725 3.84682
# Velocity P-wave (km/s) = 6.24976 7.07115 6.67311
#
# Compressibility (1/GPa) = 0.02652914
#
# Stress axis : x y z
#
# Youngs Moduli (GPa) = 86.32138 101.65885 48.02358
#
# Poissons Ratio (x) = 0.50464 0.22231
# Poissons Ratio (y) = 0.42850 -0.08335
# Poissons Ratio (z) = 0.39960 -0.17643
#
# Static dielectric constant tensor:
#      x y z
#    x 1.619480 0.000000 -0.001580 
#    y 0.000000 1.658350 0.000000 
#    z -0.001580 0.000000 1.665400 
# 
# From -- ./inp_files/197914.got.cif
#   From: 2010.05.17/outbox.cif.g08.bks.cpg/sg15_99_cif.got.tgz:197914.got - 2010.06.03 18:47:42.
