data_PCOD9270908
_publ_section_title
;
Structure prediction by ZEFSAII (Michael W. Deem and Ramdas Pophale) SiO2 
 PCOD9270908
Probable space group: C 2/C
;
_chemical_formula_sum "Si O2"
_cell_formula_units_Z 64
_cell_length_a 14.370721
_cell_length_b 25.884365
_cell_length_c 8.138935
_cell_angle_alpha 90.000000
_cell_angle_beta 86.236680
_cell_angle_gamma 90.000000
_cell_volume 3020.968308
_symmetry_space_group_name_H-M "C 2/C"
_symmetry_group_IT_number 15
_symmetry_cell_setting 'monoclinic'
loop_
_space_group_symop_operation_xyz
x,y,z
-x,y,1/2-z
-x,-y,-z
x,-y,1/2+z
1/2+x,1/2+y,z
1/2-x,1/2+y,1/2-z
1/2-x,1/2-y,-z
1/2+x,1/2-y,1/2+z
loop_
_atom_site_type_symbol
_atom_site_label
_atom_site_fract_x
_atom_site_fract_y
_atom_site_fract_z
Si Si1 0.593023 0.697706 0.814715
Si Si2 0.800553 0.890003 0.329790
Si Si3 0.899821 0.642637 0.709668
Si Si4 0.703399 0.330476 0.824524
Si Si5 0.347928 0.755466 0.391523
Si Si6 0.595176 0.195159 0.145669
Si Si7 0.889992 0.014708 0.989028
Si Si8 0.611173 0.576995 0.198026
O O1 0.500000 0.673722 0.750000
O O2 0.663096 0.650166 0.810797
O O3 0.614914 0.744337 0.684316
O O4 0.582313 0.726406 0.990931
O O5 0.689357 0.894662 0.311062
O O6 0.814645 0.854787 0.494311
O O7 0.860501 0.942290 0.355204
O O8 0.874696 0.686248 0.848417
O O9 0.911103 0.675287 0.539130
O O10 0.000000 0.619552 0.750000
O O11 0.665479 0.274437 0.779291
O O12 0.813944 0.331719 0.789756
O O13 0.653683 0.367534 0.701851
O O14 0.250000 0.750000 0.500000
O O15 0.500000 0.183028 0.250000
O O16 0.855265 0.957354 0.956780
O O17 0.854048 0.042036 0.154715
O O18 0.000000 0.000000 0.000000
O O19 0.500000 0.581231 0.250000
#
# Coordination Sequence:
#
# PCOD9270908 Si02
#       8
#     8   8   8   8   8   8   8   8
#     4  11  22  34  52  80 117 153 197 246 295 352
#     4  10  21  38  56  83 115 155 198 246 305 367
#     4  11  22  36  58  82 116 161 200 247 302 349
#     4  10  21  35  56  75 111 152 192 244 294 348
#     4  12  22  36  54  83 123 156 210 251 288 360
#     4  10  20  36  55  78 111 152 198 243 289 349
#     4   9  19  36  57  80 112 141 184 239 300 362
#     4   9  19  35  55  81 108 142 186 231 295 361
#
# _framework density 21.18526
#
# number of rings (size 3 to 8) (size 9 to 14) (size 15 to 20)
#    0.000    1.750    2.500    2.250    0.000    8.000 
#    0.000    0.000    0.000    0.750    0.000    5.250 
#    0.000    0.000    0.000    0.000    0.000    0.000 
#
# Total GULP energy -178325.062367 kJ/mol
# GULP energy per Si atom -5572.658199 kJ/mol
# Density = 2.113704 g / cm^3
# Si number density = 21.185260 Si / 1000 Ang^3
#
#
#
# Elastic Constant Matrix: (Units=GPa)
#
#
# Indices 1 2 3 4 5 6 
#
# 1 89.3597 32.9711 17.0581 0.0000 14.9439 0.0000
# 2 32.9711 54.5010 3.2565 0.0000 -2.7661 0.0000
# 3 17.0581 3.2565 64.9787 0.0000 10.7703 0.0000
# 4 0.0000 0.0000 0.0000 21.4320 0.0000 8.3357
# 5 14.9439 -2.7661 10.7703 0.0000 27.8167 0.0000
# 6 0.0000 0.0000 0.0000 8.3357 0.0000 24.7646
#
#
#
# Elastic Compliance Matrix: (Units=1/GPa)
#
#
# Indices 1 2 3 4 5 6 
#
# 1 0.017172 -0.010718 -0.002420 0.000000 -0.009354 0.000000
# 2 -0.010718 0.025237 0.000191 0.000000 0.008194 0.000000
# 3 -0.002420 0.000191 0.016880 0.000000 -0.005217 0.000000
# 4 0.000000 0.000000 0.000000 0.053688 0.000000 -0.018071
# 5 -0.009354 0.008194 -0.005217 0.000000 0.043809 0.000000
# 6 0.000000 0.000000 0.000000 -0.018071 0.000000 0.046463
#
#
# Mechanical properties :
#
#
# Convention : Reuss Voigt Hill
#
# Bulk Modulus (GPa) = 29.94626 35.04562 32.49594
# Shear Modulus (GPa) = 20.80943 25.17292 22.99117
#
# Velocity S-wave (km/s) = 3.13750 3.45081 3.29788
# Velocity P-wave (km/s) = 5.22411 5.69700 5.46567
#
# Compressibility (1/GPa) = 0.03339315
#
# Stress axis : x y z
#
# Youngs Moduli (GPa) = 58.23500 39.62436 59.24121
#
# Poissons Ratio (x) = 0.42471 0.14338
# Poissons Ratio (y) = 0.62419 -0.01131
# Poissons Ratio (z) = 0.14095 -0.00756
#
# Static dielectric constant tensor:
#      x y z
#    x 1.841780 0.000000 0.036420 
#    y 0.000000 1.763490 0.000000 
#    z 0.036420 0.000000 1.888350 
# 
# From -- ./inp_files/42663.got.cif
#   From: 2010.05.17/outbox.cif.g08.bks.cpg/sg15_22_cif.got.tgz:42663.got - 2010.06.03 18:47:42.
