data_PCOD9270828
_publ_section_title
;
Structure prediction by ZEFSAII (Michael W. Deem and Ramdas Pophale) SiO2 
 PCOD9270828
Probable space group: C 2/C
;
_chemical_formula_sum "Si O2"
_cell_formula_units_Z 52
_cell_length_a 18.658969
_cell_length_b 16.974409
_cell_length_c 18.331232
_cell_angle_alpha 90.000000
_cell_angle_beta 31.478298
_cell_angle_gamma 90.000000
_cell_volume 3031.729923
_symmetry_space_group_name_H-M "C 2/C"
_symmetry_group_IT_number 15
_symmetry_cell_setting 'monoclinic'
loop_
_space_group_symop_operation_xyz
x,y,z
-x,y,1/2-z
-x,-y,-z
x,-y,1/2+z
1/2+x,1/2+y,z
1/2-x,1/2+y,1/2-z
1/2-x,1/2-y,-z
1/2+x,1/2-y,1/2+z
loop_
_atom_site_type_symbol
_atom_site_label
_atom_site_fract_x
_atom_site_fract_y
_atom_site_fract_z
Si Si1 0.975608 0.740990 0.480913
Si Si2 0.416098 0.075604 0.098451
Si Si3 0.682483 0.253934 0.166461
Si Si4 0.500000 0.623842 0.750000
Si Si5 0.876707 0.426899 0.803817
Si Si6 0.403997 0.603425 0.123349
Si Si7 0.915099 0.017087 0.956922
O O1 0.839685 0.733255 0.549958
O O2 0.942256 0.806841 0.570546
O O3 0.011809 0.657448 0.484892
O O4 0.096212 0.760880 0.317721
O O5 0.420795 0.069681 0.181788
O O6 0.254602 0.085098 0.218331
O O7 0.500000 0.000000 0.000000
O O8 0.624586 0.317384 0.160387
O O9 0.663813 0.165349 0.152635
O O10 0.483696 0.568676 0.834328
O O11 0.000000 0.446496 0.750000
O O12 0.744769 0.483058 0.926336
O O13 0.505869 0.563282 0.092966
O O14 0.421054 0.563482 0.028631
#
# Coordination Sequence:
#
# PCOD9270828 Si02
#       7
#     8   8   8   4   8   8   8
#     4  11  20  38  56  82 116 157 191 236 294 348
#     4  10  23  37  56  86 113 150 195 249 290 344
#     4  11  21  31  53  85 120 152 190 226 292 364
#     4  12  22  30  54  90 114 160 186 234 300 354
#     4  10  20  36  50  81 120 153 183 233 292 359
#     4  10  20  41  52  80 118 156 200 235 285 352
#     4  10  22  33  54  78 117 156 191 233 282 340
#
# _framework density 17.151923
#
# number of rings (size 3 to 8) (size 9 to 14) (size 15 to 20)
#    0.000    1.538    6.923    0.000    6.462    2.462 
#    0.000    0.000    0.000    0.000    2.000    2.154 
#    0.000    0.000    0.000    0.000    0.000    0.000 
#
# Total GULP energy -144998.144088 kJ/mol
# GULP energy per Si atom -5576.851696 kJ/mol
# Density = 1.711288 g / cm^3
# Si number density = 17.151923 Si / 1000 Ang^3
#
#
#
# Elastic Constant Matrix: (Units=GPa)
#
#
# Indices 1 2 3 4 5 6 
#
# 1 90.9472 51.0138 34.6843 -0.0004 -27.9967 0.0001
# 2 51.0138 113.5369 51.6614 -0.0005 -16.1412 0.0002
# 3 34.6843 51.6614 81.0418 -0.0005 -14.0360 0.0002
# 4 -0.0004 -0.0005 -0.0005 16.4316 0.0003 -1.8578
# 5 -27.9967 -16.1412 -14.0360 0.0003 25.1506 -0.0001
# 6 0.0001 0.0002 0.0002 -1.8578 -0.0001 30.4200
#
#
#
# Elastic Compliance Matrix: (Units=1/GPa)
#
#
# Indices 1 2 3 4 5 6 
#
# 1 0.020545 -0.005755 -0.001996 0.000000 0.018062 0.000000
# 2 -0.005755 0.014379 -0.006879 0.000000 -0.001017 0.000000
# 3 -0.001996 -0.006879 0.018187 0.000000 0.003513 0.000000
# 4 0.000000 0.000000 0.000000 0.061282 -0.000001 0.003743
# 5 0.018062 -0.001017 0.003513 -0.000001 0.061175 0.000000
# 6 0.000000 0.000000 0.000000 0.003743 0.000000 0.033102
#
#
# Mechanical properties :
#
#
# Convention : Reuss Voigt Hill
#
# Bulk Modulus (GPa) = 41.92722 62.24946 52.08834
# Shear Modulus (GPa) = 20.33510 24.27820 22.30665
#
# Velocity S-wave (km/s) = 3.44697 3.76637 3.61020
# Velocity P-wave (km/s) = 6.35136 7.43544 6.91468
#
# Compressibility (1/GPa) = 0.02385085
#
# Stress axis : x y z
#
# Youngs Moduli (GPa) = 48.67381 69.54497 54.98342
#
# Poissons Ratio (x) = 0.40024 0.10974
# Poissons Ratio (y) = 0.28012 0.37825
# Poissons Ratio (z) = 0.09714 0.47842
#
# Static dielectric constant tensor:
#      x y z
#    x 1.562570 0.000000 -0.005640 
#    y 0.000000 1.617100 0.000000 
#    z -0.005640 0.000000 1.633920 
# 
# From -- ./inp_files/70381.got.cif
#   From: 2010.05.17/outbox.cif.g08.bks.cpg/sg15_36_cif.got.tgz:70381.got - 2010.06.03 18:47:42.
