data_PCOD9270351
_publ_section_title
;
Structure prediction by ZEFSAII (Michael W. Deem and Ramdas Pophale) SiO2 
 PCOD9270351
Probable space group: C 2/C
;
_chemical_formula_sum "Si O2"
_cell_formula_units_Z 44
_cell_length_a 21.223045
_cell_length_b 15.862676
_cell_length_c 7.978349
_cell_angle_alpha 90.000000
_cell_angle_beta 128.859615
_cell_angle_gamma 90.000000
_cell_volume 2091.506933
_symmetry_space_group_name_H-M "C 2/C"
_symmetry_group_IT_number 15
_symmetry_cell_setting 'monoclinic'
loop_
_space_group_symop_operation_xyz
x,y,z
-x,y,1/2-z
-x,-y,-z
x,-y,1/2+z
1/2+x,1/2+y,z
1/2-x,1/2+y,1/2-z
1/2-x,1/2-y,-z
1/2+x,1/2-y,1/2+z
loop_
_atom_site_type_symbol
_atom_site_label
_atom_site_fract_x
_atom_site_fract_y
_atom_site_fract_z
Si Si1 0.596013 0.099229 0.216858
Si Si2 0.500000 0.338190 0.750000
Si Si3 0.375558 0.440425 0.784455
Si Si4 0.500000 0.573472 0.750000
Si Si5 0.000000 0.466262 0.250000
Si Si6 0.398594 0.712702 0.779313
Si Si7 0.217973 0.905835 0.548794
O O1 0.593239 0.194465 0.281471
O O2 0.686174 0.085729 0.298317
O O3 0.571592 0.028817 0.310305
O O4 0.531898 0.086943 0.959530
O O5 0.432747 0.386180 0.756131
O O6 0.440944 0.286016 0.529854
O O7 0.324044 0.510576 0.601423
O O8 0.442051 0.477081 0.028309
O O9 0.314937 0.394554 0.814913
O O10 0.446170 0.638680 0.763293
O O11 0.309632 0.672907 0.613376
#
# Coordination Sequence:
#
# PCOD9270351 Si02
#       7
#     8   4   8   4   4   8   8
#     4  11  22  42  59  83 107 141 191 233 281 330
#     4  10  21  37  57  85 116 148 186 219 265 330
#     4  10  21  35  54  85 118 151 184 216 265 328
#     4   8  19  35  55  85 116 150 184 215 263 328
#     4  10  24  40  64  78 102 146 190 240 276 322
#     4  10  20  35  58  83 114 147 179 227 275 324
#     4  11  22  35  56  84 117 149 179 226 276 324
#
# _framework density 21.037462999999999
#
# number of rings (size 3 to 8) (size 9 to 14) (size 15 to 20)
#    0.000    1.818    0.000    3.818    0.000   12.364 
#    0.000    0.909    0.000    0.000    0.000    0.000 
#    0.000    0.000    0.000    0.000    0.000    0.000 
#
# Total GULP energy -122578.336462 kJ/mol
# GULP energy per Si atom -5571.742566 kJ/mol
# Density = 2.098958 g / cm^3
# Si number density = 21.037463 Si / 1000 Ang^3
#
#
#
# Elastic Constant Matrix: (Units=GPa)
#
#
# Indices 1 2 3 4 5 6 
#
# 1 109.4855 13.8431 6.3371 0.0000 13.0811 0.0000
# 2 13.8431 76.6694 13.6068 0.0000 7.9362 0.0000
# 3 6.3371 13.6068 43.4971 0.0000 4.7519 0.0000
# 4 0.0000 0.0000 0.0000 12.6941 0.0000 7.1870
# 5 13.0811 7.9362 4.7519 0.0000 31.2250 0.0000
# 6 0.0000 0.0000 0.0000 7.1870 0.0000 19.2451
#
#
#
# Elastic Compliance Matrix: (Units=1/GPa)
#
#
# Indices 1 2 3 4 5 6 
#
# 1 0.009770 -0.001273 -0.000624 0.000000 -0.003674 0.000000
# 2 -0.001273 0.014239 -0.003998 0.000000 -0.002477 0.000000
# 3 -0.000624 -0.003998 0.024601 0.000000 -0.002466 0.000000
# 4 0.000000 0.000000 0.000000 0.099898 0.000000 -0.037306
# 5 -0.003674 -0.002477 -0.002466 0.000000 0.034570 0.000000
# 6 0.000000 0.000000 0.000000 -0.037306 0.000000 0.065893
#
#
# Mechanical properties :
#
#
# Convention : Reuss Voigt Hill
#
# Bulk Modulus (GPa) = 27.15918 33.02513 30.09215
# Shear Modulus (GPa) = 18.31278 25.69052 22.00165
#
# Velocity S-wave (km/s) = 2.95360 3.49833 3.23744
# Velocity P-wave (km/s) = 4.95677 5.66128 5.32070
#
# Compressibility (1/GPa) = 0.03681997
#
# Stress axis : x y z
#
# Youngs Moduli (GPa) = 102.35753 70.23042 40.64869
#
# Poissons Ratio (x) = 0.08940 0.02535
# Poissons Ratio (y) = 0.13030 0.16252
# Poissons Ratio (z) = 0.06384 0.28079
#
# Static dielectric constant tensor:
#      x y z
#    x 1.837860 0.000000 0.012390 
#    y 0.000000 1.764090 0.000000 
#    z 0.012390 0.000000 1.790680 
# 
# From -- ./inp_files/47241.got.cif
#   From: 2010.05.17/outbox.cif.g08.bks.cpg/sg15_24_cif.got.tgz:47241.got - 2010.06.03 18:47:42.
