data_PCOD9270754
_publ_section_title
;
Structure prediction by ZEFSAII (Michael W. Deem and Ramdas Pophale) SiO2 
 PCOD9270754
Probable space group: C 2/C
;
_chemical_formula_sum "Si O2"
_cell_formula_units_Z 56
_cell_length_a 12.267138
_cell_length_b 14.113963
_cell_length_c 14.950099
_cell_angle_alpha 90.000000
_cell_angle_beta 55.571225
_cell_angle_gamma 90.000000
_cell_volume 2135.013188
_symmetry_space_group_name_H-M "C 2/C"
_symmetry_group_IT_number 15
_symmetry_cell_setting 'monoclinic'
loop_
_space_group_symop_operation_xyz
x,y,z
-x,y,1/2-z
-x,-y,-z
x,-y,1/2+z
1/2+x,1/2+y,z
1/2-x,1/2+y,1/2-z
1/2-x,1/2-y,-z
1/2+x,1/2-y,1/2+z
loop_
_atom_site_type_symbol
_atom_site_label
_atom_site_fract_x
_atom_site_fract_y
_atom_site_fract_z
Si Si1 0.992420 0.903973 0.375957
Si Si2 0.262916 0.873693 0.183655
Si Si3 0.677552 0.864564 0.970795
Si Si4 0.595418 0.594999 0.025143
Si Si5 0.452802 0.198942 0.454823
Si Si6 0.982151 0.494206 0.654542
Si Si7 0.616587 0.702393 0.261910
O O1 0.109775 0.898365 0.249505
O O2 0.078875 0.918967 0.428159
O O3 0.935822 0.799431 0.417299
O O4 0.895615 0.993098 0.428651
O O5 0.298148 0.785130 0.232606
O O6 0.346308 0.961453 0.182662
O O7 0.322634 0.839892 0.062346
O O8 0.771439 0.847776 0.012916
O O9 0.561973 0.797867 0.984723
O O10 0.787121 0.862432 0.842021
O O11 0.592550 0.955220 0.041355
O O12 0.463080 0.640752 0.128685
O O13 0.507393 0.117806 0.364461
O O14 0.000000 0.517734 0.750000
O O15 0.500000 0.740351 0.250000
#
# Coordination Sequence:
#
# PCOD9270754 Si02
#       7
#     8   8   8   8   8   8   8
#     4  11  23  40  64  98 136 181 217 273 341 408
#     4  11  21  39  68  99 129 173 219 278 339 397
#     4  10  21  42  65  97 129 172 220 289 332 396
#     4  10  23  39  62  98 140 170 218 274 350 405
#     4  11  24  43  68  96 132 177 230 279 334 407
#     4  11  25  44  66  94 131 177 230 273 336 402
#     4  10  20  35  63  98 134 164 216 280 345 402
#
# _framework density 26.229346
#
# number of rings (size 3 to 8) (size 9 to 14) (size 15 to 20)
#    0.000    1.429    2.857    3.000    4.000    1.714 
#    2.571    2.857    0.000    0.000    0.000    0.000 
#    0.000    0.000    0.000    0.000    0.000    0.000 
#
# Total GULP energy -156892.194615 kJ/mol
# GULP energy per Si atom -5603.292665 kJ/mol
# Density = 2.616965 g / cm^3
# Si number density = 26.229346 Si / 1000 Ang^3
#
#
#
# Elastic Constant Matrix: (Units=GPa)
#
#
# Indices 1 2 3 4 5 6 
#
# 1 130.2978 25.3611 18.1046 0.0000 -33.3479 0.0000
# 2 25.3611 157.0976 33.6880 0.0000 -4.4025 0.0000
# 3 18.1046 33.6880 95.3631 0.0000 -20.2389 0.0000
# 4 0.0000 0.0000 0.0000 40.1784 0.0000 3.7400
# 5 -33.3479 -4.4025 -20.2389 0.0000 26.9864 0.0000
# 6 0.0000 0.0000 0.0000 3.7400 0.0000 39.2683
#
#
#
# Elastic Compliance Matrix: (Units=1/GPa)
#
#
# Indices 1 2 3 4 5 6 
#
# 1 0.011766 -0.001831 0.001707 0.000000 0.015522 0.000000
# 2 -0.001831 0.007188 -0.002881 0.000000 -0.003251 0.000000
# 3 0.001707 -0.002881 0.013710 0.000000 0.011922 0.000000
# 4 0.000000 0.000000 0.000000 0.025112 0.000000 -0.002392
# 5 0.015522 -0.003251 0.011922 0.000000 0.064647 0.000000
# 6 0.000000 0.000000 0.000000 -0.002392 0.000000 0.025694
#
#
# Mechanical properties :
#
#
# Convention : Reuss Voigt Hill
#
# Bulk Modulus (GPa) = 37.51747 59.67401 48.59574
# Shear Modulus (GPa) = 30.67267 41.66025 36.16646
#
# Velocity S-wave (km/s) = 3.42336 3.98968 3.71732
# Velocity P-wave (km/s) = 5.47362 6.63503 6.08211
#
# Compressibility (1/GPa) = 0.02665425
#
# Stress axis : x y z
#
# Youngs Moduli (GPa) = 84.98759 139.12451 72.93849
#
# Poissons Ratio (x) = 0.25468 -0.12451
# Poissons Ratio (y) = 0.15558 0.21017
# Poissons Ratio (z) = -0.14507 0.40089
#
# Static dielectric constant tensor:
#      x y z
#    x 2.091880 0.000000 0.069440 
#    y 0.000000 2.071790 0.000000 
#    z 0.069440 0.000000 2.042760 
# 
# From -- ./inp_files/205331.got.cif
#   From: 2010.05.17/outbox.cif.g08.bks.cpg/sg15_103_cif.got.tgz:205331.got - 2010.06.03 18:47:42.
