data_PCOD9270350
_publ_section_title
;
Structure prediction by ZEFSAII (Michael W. Deem and Ramdas Pophale) SiO2 
 PCOD9270350
Probable space group: C 2/C
;
_chemical_formula_sum "Si O2"
_cell_formula_units_Z 52
_cell_length_a 9.233338
_cell_length_b 18.897443
_cell_length_c 22.576906
_cell_angle_alpha 90.000000
_cell_angle_beta 47.396585
_cell_angle_gamma 90.000000
_cell_volume 2899.596038
_symmetry_space_group_name_H-M "C 2/C"
_symmetry_group_IT_number 15
_symmetry_cell_setting 'monoclinic'
loop_
_space_group_symop_operation_xyz
x,y,z
-x,y,1/2-z
-x,-y,-z
x,-y,1/2+z
1/2+x,1/2+y,z
1/2-x,1/2+y,1/2-z
1/2-x,1/2-y,-z
1/2+x,1/2-y,1/2+z
loop_
_atom_site_type_symbol
_atom_site_label
_atom_site_fract_x
_atom_site_fract_y
_atom_site_fract_z
Si Si1 0.044909 0.271171 0.135276
Si Si2 0.000000 0.384027 0.250000
Si Si3 0.454044 0.417962 0.951737
Si Si4 0.633201 0.829869 0.979388
Si Si5 0.212635 0.693676 0.169139
Si Si6 0.410762 0.423365 0.101158
Si Si7 0.786383 0.805869 0.437693
O O1 0.847576 0.224676 0.184803
O O2 0.009247 0.333293 0.190539
O O3 0.241714 0.226003 0.094356
O O4 0.081988 0.295766 0.057521
O O5 0.201535 0.427001 0.191630
O O6 0.289005 0.389852 0.952524
O O7 0.650784 0.369766 0.893216
O O8 0.492596 0.499394 0.926595
O O9 0.381900 0.407500 0.039182
O O10 0.421804 0.847094 0.011385
O O11 0.180928 0.756662 0.129553
O O12 0.000000 0.669869 0.250000
O O13 0.543537 0.361679 0.093454
O O14 0.750000 0.750000 0.500000
#
# Coordination Sequence:
#
# PCOD9270350 Si02
#       7
#     8   4   8   8   8   8   8
#     4   9  18  32  55  86 110 148 181 235 293 335
#     4  12  20  34  58  88 114 144 190 246 272 338
#     4  10  21  40  55  79 115 158 185 225 294 353
#     4   9  18  36  58  78 119 149 184 228 297 343
#     4  10  20  35  58  83 114 143 189 240 285 334
#     4  11  23  35  57  85 113 148 197 232 283 344
#     4  11  20  35  58  91 110 144 193 244 276 341
#
# _framework density 17.933533000000001
#
# number of rings (size 3 to 8) (size 9 to 14) (size 15 to 20)
#    0.000    1.846    3.077    2.769    1.077    0.615 
#    0.000    0.000    0.000    0.000   32.000    0.000 
#    0.000    0.000    0.000    0.000    0.000    0.000 
#
# Total GULP energy -144894.212437 kJ/mol
# GULP energy per Si atom -5572.854325 kJ/mol
# Density = 1.789271 g / cm^3
# Si number density = 17.933533 Si / 1000 Ang^3
#
#
#
# Elastic Constant Matrix: (Units=GPa)
#
#
# Indices 1 2 3 4 5 6 
#
# 1 60.8544 25.1289 30.0779 -0.0001 -20.0594 0.0001
# 2 25.1289 70.1162 25.3116 -0.0002 -10.1049 0.0003
# 3 30.0779 25.3116 99.2651 0.0002 -24.6694 0.0002
# 4 -0.0001 -0.0002 0.0002 12.9444 0.0001 8.3458
# 5 -20.0594 -10.1049 -24.6694 0.0001 25.6985 -0.0002
# 6 0.0001 0.0003 0.0002 8.3458 -0.0002 14.2988
#
#
#
# Elastic Compliance Matrix: (Units=1/GPa)
#
#
# Indices 1 2 3 4 5 6 
#
# 1 0.024957 -0.005952 -0.002344 0.000000 0.014890 0.000000
# 2 -0.005952 0.017313 -0.002724 0.000001 -0.000453 -0.000001
# 3 -0.002344 -0.002724 0.014129 -0.000001 0.010662 0.000000
# 4 0.000000 0.000001 -0.000001 0.123868 -0.000001 -0.072298
# 5 0.014890 -0.000453 0.010662 -0.000001 0.060593 0.000001
# 6 0.000000 -0.000001 0.000000 -0.072298 0.000001 0.112135
#
#
# Mechanical properties :
#
#
# Convention : Reuss Voigt Hill
#
# Bulk Modulus (GPa) = 29.10422 43.47473 36.28947
# Shear Modulus (GPa) = 12.93703 20.56949 16.75326
#
# Velocity S-wave (km/s) = 2.68878 3.39039 3.05976
# Velocity P-wave (km/s) = 5.08955 6.29453 5.72384
#
# Compressibility (1/GPa) = 0.03435928
#
# Stress axis : x y z
#
# Youngs Moduli (GPa) = 40.06828 57.75920 70.77875
#
# Poissons Ratio (x) = 0.34381 0.16589
# Poissons Ratio (y) = 0.23850 0.19278
# Poissons Ratio (z) = 0.09391 0.15732
#
# Static dielectric constant tensor:
#      x y z
#    x 1.638210 0.000000 -0.019370 
#    y 0.000000 1.611280 0.000000 
#    z -0.019370 0.000000 1.619320 
# 
# From -- ./inp_files/266040.got.cif
#   From: 2010.05.17/outbox.cif.g08.bks.cpg/sg15_134_cif.got.tgz:266040.got - 2010.06.03 18:47:42.
