data_PCOD9270583
_publ_section_title
;
Structure prediction by ZEFSAII (Michael W. Deem and Ramdas Pophale) SiO2 
 PCOD9270583
Probable space group: C 2/C
;
_chemical_formula_sum "Si O2"
_cell_formula_units_Z 56
_cell_length_a 23.727354
_cell_length_b 18.215287
_cell_length_c 9.256703
_cell_angle_alpha 90.000000
_cell_angle_beta 46.091605
_cell_angle_gamma 90.000000
_cell_volume 2882.339982
_symmetry_space_group_name_H-M "C 2/C"
_symmetry_group_IT_number 15
_symmetry_cell_setting 'monoclinic'
loop_
_space_group_symop_operation_xyz
x,y,z
-x,y,1/2-z
-x,-y,-z
x,-y,1/2+z
1/2+x,1/2+y,z
1/2-x,1/2+y,1/2-z
1/2-x,1/2-y,-z
1/2+x,1/2-y,1/2+z
loop_
_atom_site_type_symbol
_atom_site_label
_atom_site_fract_x
_atom_site_fract_y
_atom_site_fract_z
Si Si1 0.293118 0.407023 0.541313
Si Si2 0.689007 0.445161 0.662052
Si Si3 0.619014 0.066805 0.401895
Si Si4 0.360934 0.086985 0.794592
Si Si5 0.558334 0.315888 0.276843
Si Si6 0.999726 0.651392 0.086718
Si Si7 0.480567 0.574188 0.120144
O O1 0.313062 0.442098 0.661545
O O2 0.306702 0.470709 0.399312
O O3 0.200340 0.392606 0.712967
O O4 0.352861 0.340051 0.413501
O O5 0.767557 0.404364 0.470451
O O6 0.610789 0.410170 0.739270
O O7 0.612690 0.070845 0.586722
O O8 0.548513 0.102806 0.440125
O O9 0.625832 0.983841 0.331086
O O10 0.412171 0.151397 0.632729
O O11 0.500000 0.339928 0.250000
O O12 0.541354 0.230370 0.329096
O O13 0.531031 0.360586 0.464565
O O14 0.000000 0.620881 0.250000
O O15 0.500000 0.561525 0.250000
O O16 0.500000 0.500000 0.000000
#
# Coordination Sequence:
#
# PCOD9270583 Si02
#       7
#     8   8   8   8   8   8   8
#     4  10  20  36  61  92 120 154 194 252 299 356
#     4  10  20  35  60  92 121 148 198 246 303 346
#     4  10  21  38  66  91 120 149 200 249 303 360
#     4  10  21  39  64  92 118 152 196 254 301 356
#     4  11  23  40  60  82 122 163 204 241 295 357
#     4  11  24  41  60  83 121 163 202 247 299 359
#     4  12  22  35  59  89 118 160 200 245 296 356
#
# _framework density 19.428660000000001
#
# number of rings (size 3 to 8) (size 9 to 14) (size 15 to 20)
#    0.000    1.429    2.857    3.000    0.000    2.857 
#    0.000    0.714    0.000    0.000    0.000    0.000 
#    0.000    0.000    0.000    0.000    0.000    0.000 
#
# Total GULP energy -156357.348785 kJ/mol
# GULP energy per Si atom -5584.191028 kJ/mol
# Density = 1.938444 g / cm^3
# Si number density = 19.428660 Si / 1000 Ang^3
#
#
#
# Elastic Constant Matrix: (Units=GPa)
#
#
# Indices 1 2 3 4 5 6 
#
# 1 99.3705 5.7284 48.6139 0.0000 -0.1914 0.0000
# 2 5.7284 31.3117 34.9309 0.0000 -9.7221 0.0000
# 3 48.6139 34.9309 119.1707 0.0000 2.9085 0.0000
# 4 0.0000 0.0000 0.0000 6.7630 0.0000 -5.4027
# 5 -0.1914 -9.7221 2.9085 0.0000 39.1084 0.0000
# 6 0.0000 0.0000 0.0000 -5.4027 0.0000 24.6363
#
#
#
# Elastic Compliance Matrix: (Units=1/GPa)
#
#
# Indices 1 2 3 4 5 6 
#
# 1 0.013307 0.006500 -0.007388 0.000000 0.002231 0.000000
# 2 0.006500 0.058095 -0.020070 0.000000 0.015967 0.000000
# 3 -0.007388 -0.020070 0.017443 0.000000 -0.006323 0.000000
# 4 0.000000 0.000000 0.000000 0.179268 0.000000 0.039313
# 5 0.002231 0.015967 -0.006323 0.000000 0.030020 0.000000
# 6 0.000000 0.000000 0.000000 0.039313 0.000000 0.049212
#
#
# Mechanical properties :
#
#
# Convention : Reuss Voigt Hill
#
# Bulk Modulus (GPa) = 21.30879 47.59993 34.45436
# Shear Modulus (GPa) = 12.34859 24.80685 18.57772
#
# Velocity S-wave (km/s) = 2.52382 3.57713 3.09561
# Velocity P-wave (km/s) = 4.41411 6.45091 5.52714
#
# Compressibility (1/GPa) = 0.04692899
#
# Stress axis : x y z
#
# Youngs Moduli (GPa) = 75.14579 17.21313 57.33121
#
# Poissons Ratio (x) = -0.11189 0.42359
# Poissons Ratio (y) = -0.48848 1.15064
# Poissons Ratio (z) = 0.55521 0.34547
#
# Static dielectric constant tensor:
#      x y z
#    x 1.701130 0.000000 -0.032120 
#    y 0.000000 1.656080 0.000000 
#    z -0.032120 0.000000 1.698650 
# 
# From -- ./inp_files/62656.got.cif
#   From: 2010.05.17/outbox.cif.g08.bks.cpg/sg15_32_cif.got.tgz:62656.got - 2010.06.03 18:47:42.
