data_PCOD9270590
_publ_section_title
;
Structure prediction by ZEFSAII (Michael W. Deem and Ramdas Pophale) SiO2 
 PCOD9270590
Probable space group: C 2/C
;
_chemical_formula_sum "Si O2"
_cell_formula_units_Z 56
_cell_length_a 22.207469
_cell_length_b 19.048298
_cell_length_c 5.361418
_cell_angle_alpha 90.000000
_cell_angle_beta 92.108068
_cell_angle_gamma 90.000000
_cell_volume 2266.422587
_symmetry_space_group_name_H-M "C 2/C"
_symmetry_group_IT_number 15
_symmetry_cell_setting 'monoclinic'
loop_
_space_group_symop_operation_xyz
x,y,z
-x,y,1/2-z
-x,-y,-z
x,-y,1/2+z
1/2+x,1/2+y,z
1/2-x,1/2+y,1/2-z
1/2-x,1/2-y,-z
1/2+x,1/2-y,1/2+z
loop_
_atom_site_type_symbol
_atom_site_label
_atom_site_fract_x
_atom_site_fract_y
_atom_site_fract_z
Si Si1 0.427731 0.037987 0.696675
Si Si2 0.062411 0.193651 0.349618
Si Si3 0.214250 0.298881 0.798731
Si Si4 0.500000 0.792465 0.750000
Si Si5 0.000000 0.953943 0.250000
Si Si6 0.815270 0.841294 0.466609
Si Si7 0.601907 0.830246 0.083794
Si Si8 0.133142 0.953195 0.315838
O O1 0.500000 0.038723 0.750000
O O2 0.406467 0.998249 0.448607
O O3 0.403180 0.117249 0.688614
O O4 0.039197 0.241557 0.576999
O O5 0.120172 0.145575 0.395466
O O6 0.000000 0.158423 0.250000
O O7 0.087877 0.250403 0.157378
O O8 0.184101 0.240557 0.613015
O O9 0.259037 0.346047 0.642131
O O10 0.163285 0.337312 0.946054
O O11 0.250000 0.250000 0.000000
O O12 0.544653 0.843823 0.901361
O O13 0.934394 0.918686 0.215009
O O14 0.000000 0.000000 0.500000
O O15 0.817596 0.892934 0.231164
O O16 0.138731 0.992862 0.581013
#
# Coordination Sequence:
#
# PCOD9270590 Si02
#       8
#     8   8   8   4   4   8   8   8
#     4  10  23  39  62  94 133 179 219 267 337 412
#     4  10  21  37  61  99 126 164 214 279 350 398
#     4  11  24  44  68  95 128 179 228 282 345 399
#     4  10  20  35  60  94 126 160 203 280 346 388
#     4   8  16  37  60  92 128 172 217 260 326 398
#     4  11  24  43  67  98 132 179 228 282 341 410
#     4  11  22  39  65  91 132 167 221 276 338 401
#     4  10  23  43  69  98 139 185 227 277 340 406
#
# _framework density 24.708544
#
# number of rings (size 3 to 8) (size 9 to 14) (size 15 to 20)
#    0.000    1.714    2.857    1.286    7.000    0.571 
#    7.714    1.429    0.000    0.000    0.000    0.000 
#    0.000    0.000    0.000    0.000    0.000    0.000 
#
# Total GULP energy -156635.034903 kJ/mol
# GULP energy per Si atom -5594.108389 kJ/mol
# Density = 2.465231 g / cm^3
# Si number density = 24.708544 Si / 1000 Ang^3
#
#
#
# Elastic Constant Matrix: (Units=GPa)
#
#
# Indices 1 2 3 4 5 6 
#
# 1 89.9619 21.5687 33.4242 0.0000 -24.7678 0.0000
# 2 21.5687 66.3776 20.2956 0.0000 -14.8291 0.0000
# 3 33.4242 20.2956 108.1035 0.0000 -22.2160 0.0000
# 4 0.0000 0.0000 0.0000 45.1519 0.0000 -18.8673
# 5 -24.7678 -14.8291 -22.2160 0.0000 40.5225 0.0000
# 6 0.0000 0.0000 0.0000 -18.8673 0.0000 21.9278
#
#
#
# Elastic Compliance Matrix: (Units=1/GPa)
#
#
# Indices 1 2 3 4 5 6 
#
# 1 0.014485 -0.002435 -0.002688 0.000000 0.006488 0.000000
# 2 -0.002435 0.017242 -0.001683 0.000000 0.003899 0.000000
# 3 -0.002688 -0.001683 0.011194 0.000000 0.003879 0.000000
# 4 0.000000 0.000000 0.000000 0.034581 0.000000 0.029754
# 5 0.006488 0.003899 0.003879 0.000000 0.032197 0.000000
# 6 0.000000 0.000000 0.000000 0.029754 0.000000 0.071206
#
#
# Mechanical properties :
#
#
# Convention : Reuss Voigt Hill
#
# Bulk Modulus (GPa) = 34.11893 46.11332 40.11613
# Shear Modulus (GPa) = 24.47549 34.13074 29.30311
#
# Velocity S-wave (km/s) = 3.15074 3.72066 3.44750
# Velocity P-wave (km/s) = 5.20334 6.09600 5.66727
#
# Compressibility (1/GPa) = 0.02930924
#
# Stress axis : x y z
#
# Youngs Moduli (GPa) = 69.03843 57.99730 89.32988
#
# Poissons Ratio (x) = 0.14124 0.24011
# Poissons Ratio (y) = 0.16813 0.15034
# Poissons Ratio (z) = 0.18557 0.09761
#
# Static dielectric constant tensor:
#      x y z
#    x 1.988080 0.000000 0.096550 
#    y 0.000000 1.976350 0.000000 
#    z 0.096550 0.000000 2.121960 
# 
# From -- ./inp_files/15655.got.cif
#   From: 2010.05.17/outbox.cif.g08.bks.cpg/sg15_8_cif.got.tgz:15655.got - 2010.06.03 18:47:42.
