data_PCOD9270498
_publ_section_title
;
Structure prediction by ZEFSAII (Michael W. Deem and Ramdas Pophale) SiO2 
 PCOD9270498
Probable space group: C 2/C
;
_chemical_formula_sum "Si O2"
_cell_formula_units_Z 64
_cell_length_a 19.698708
_cell_length_b 11.068642
_cell_length_c 14.886390
_cell_angle_alpha 90.000000
_cell_angle_beta 105.447181
_cell_angle_gamma 90.000000
_cell_volume 3128.548009
_symmetry_space_group_name_H-M "C 2/C"
_symmetry_group_IT_number 15
_symmetry_cell_setting 'monoclinic'
loop_
_space_group_symop_operation_xyz
x,y,z
-x,y,1/2-z
-x,-y,-z
x,-y,1/2+z
1/2+x,1/2+y,z
1/2-x,1/2+y,1/2-z
1/2-x,1/2-y,-z
1/2+x,1/2-y,1/2+z
loop_
_atom_site_type_symbol
_atom_site_label
_atom_site_fract_x
_atom_site_fract_y
_atom_site_fract_z
Si Si1 0.312293 0.283310 0.957076
Si Si2 0.343803 0.089685 0.812648
Si Si3 0.350612 0.305755 0.479248
Si Si4 0.289719 0.440468 0.781189
Si Si5 0.567264 0.496938 0.612117
Si Si6 0.302687 0.759247 0.148023
Si Si7 0.447189 0.096715 0.434427
Si Si8 0.540914 0.673378 0.942672
O O1 0.338585 0.178313 0.897206
O O2 0.288630 0.392402 0.883243
O O3 0.250000 0.250000 0.000000
O O4 0.377221 0.313586 0.045044
O O5 0.356723 0.158310 0.723371
O O6 0.265312 0.040647 0.765899
O O7 0.399164 0.983800 0.851331
O O8 0.395550 0.409202 0.445578
O O9 0.343205 0.309505 0.583422
O O10 0.269110 0.315994 0.417790
O O11 0.389473 0.177535 0.469876
O O12 0.371531 0.472003 0.796242
O O13 0.272112 0.329248 0.712005
O O14 0.500184 0.568627 0.623351
O O15 0.544134 0.378722 0.547742
O O16 0.498907 0.202263 0.416860
O O17 0.500000 0.000000 0.500000
#
# Coordination Sequence:
#
# PCOD9270498 Si02
#       8
#     8   8   8   8   8   8   8   8
#     4  10  22  37  59  86 120 157 203 246 300 374
#     4  11  21  37  59  88 124 160 200 255 312 361
#     4  10  20  36  63  90 118 162 207 253 300 374
#     4  10  20  35  59  89 118 155 194 257 311 346
#     4   9  18  36  63  85 116 157 206 249 302 366
#     4  10  21  36  57  95 124 150 208 259 309 358
#     4  11  21  38  62  84 123 169 207 237 310 381
#     4   9  19  36  60  87 114 160 208 239 299 368
#
# _framework density 20.456773999999999
#
# number of rings (size 3 to 8) (size 9 to 14) (size 15 to 20)
#    0.000    2.000    3.750    0.000    0.000    3.000 
#    0.000    0.625    0.000   11.250    0.000    0.000 
#    0.000    0.000    0.000    0.000    0.000    0.000 
#
# Total GULP energy -178150.998573 kJ/mol
# GULP energy per Si atom -5567.218705 kJ/mol
# Density = 2.041021 g / cm^3
# Si number density = 20.456774 Si / 1000 Ang^3
#
#
#
# Elastic Constant Matrix: (Units=GPa)
#
#
# Indices 1 2 3 4 5 6 
#
# 1 77.0101 11.6112 23.4392 0.0000 16.8760 0.0000
# 2 11.6112 81.2994 20.0297 0.0000 8.6023 0.0000
# 3 23.4392 20.0297 68.3870 0.0000 15.2099 0.0000
# 4 0.0000 0.0000 0.0000 22.6156 0.0000 22.9376
# 5 16.8760 8.6023 15.2099 0.0000 29.0792 0.0000
# 6 0.0000 0.0000 0.0000 22.9376 0.0000 36.7711
#
#
#
# Elastic Compliance Matrix: (Units=1/GPa)
#
#
# Indices 1 2 3 4 5 6 
#
# 1 0.015730 -0.000603 -0.003649 0.000000 -0.007042 0.000000
# 2 -0.000603 0.013399 -0.003298 0.000000 -0.001889 0.000000
# 3 -0.003649 -0.003298 0.018277 0.000000 -0.006467 0.000000
# 4 0.000000 0.000000 0.000000 0.120375 0.000000 -0.075089
# 5 -0.007042 -0.001889 -0.006467 0.000000 0.042417 0.000000
# 6 0.000000 0.000000 0.000000 -0.075089 0.000000 0.074036
#
#
# Mechanical properties :
#
#
# Convention : Reuss Voigt Hill
#
# Bulk Modulus (GPa) = 30.95176 37.42853 34.19015
# Shear Modulus (GPa) = 16.12379 29.13429 22.62904
#
# Velocity S-wave (km/s) = 2.81051 3.77794 3.32955
# Velocity P-wave (km/s) = 5.06904 6.11282 5.61523
#
# Compressibility (1/GPa) = 0.03230834
#
# Stress axis : x y z
#
# Youngs Moduli (GPa) = 63.57333 74.63479 54.71253
#
# Poissons Ratio (x) = 0.04497 0.19962
# Poissons Ratio (y) = 0.03830 0.18042
# Poissons Ratio (z) = 0.23195 0.24612
#
# Static dielectric constant tensor:
#      x y z
#    x 1.760480 0.000000 0.031460 
#    y 0.000000 1.779980 0.000000 
#    z 0.031460 0.000000 1.711050 
# 
# From -- ./inp_files/167676.got.cif
#   From: 2010.05.17/outbox.cif.g08.bks.cpg/sg15_84_cif.got.tgz:167676.got - 2010.06.03 18:47:42.
