data_PCOD9270745
_publ_section_title
;
Structure prediction by ZEFSAII (Michael W. Deem and Ramdas Pophale) SiO2 
 PCOD9270745
Probable space group: C 2/C
;
_chemical_formula_sum "Si O2"
_cell_formula_units_Z 48
_cell_length_a 26.381759
_cell_length_b 9.967527
_cell_length_c 19.085650
_cell_angle_alpha 90.000000
_cell_angle_beta 150.616080
_cell_angle_gamma 90.000000
_cell_volume 2462.510533
_symmetry_space_group_name_H-M "C 2/C"
_symmetry_group_IT_number 15
_symmetry_cell_setting 'monoclinic'
loop_
_space_group_symop_operation_xyz
x,y,z
-x,y,1/2-z
-x,-y,-z
x,-y,1/2+z
1/2+x,1/2+y,z
1/2-x,1/2+y,1/2-z
1/2-x,1/2-y,-z
1/2+x,1/2-y,1/2+z
loop_
_atom_site_type_symbol
_atom_site_label
_atom_site_fract_x
_atom_site_fract_y
_atom_site_fract_z
Si Si1 0.464965 0.269305 0.131179
Si Si2 0.256636 0.349376 0.667023
Si Si3 0.637412 0.919755 0.203225
Si Si4 0.918117 0.932247 0.348777
Si Si5 0.057127 0.496243 0.456105
Si Si6 0.237179 0.305278 0.806832
O O1 0.500000 0.310528 0.250000
O O2 0.520150 0.361177 0.139473
O O3 0.491212 0.113491 0.148309
O O4 0.341164 0.274152 0.973527
O O5 0.283283 0.196482 0.681650
O O6 0.339908 0.448849 0.733726
O O7 0.142844 0.409096 0.519861
O O8 0.268598 0.349514 0.766246
O O9 0.529702 0.903164 0.113822
O O10 0.681065 0.066293 0.272034
O O11 0.609905 0.926922 0.086834
O O12 0.843559 0.817854 0.292727
O O13 0.000000 0.000000 0.500000
#
# Coordination Sequence:
#
# PCOD9270745 Si02
#       6
#     8   8   8   8   8   8
#     4  12  25  42  63  93 134 178 216 256 318 397
#     4  11  21  34  64  96 125 156 210 281 321 369
#     4  10  20  35  63  93 125 156 210 269 329 366
#     4  12  23  39  66 100 128 159 223 274 318 368
#     4  10  20  38  57  90 129 161 210 261 327 371
#     4  11  21  39  62 100 126 167 210 267 322 381
#
# _framework density 19.492301999999999
#
# number of rings (size 3 to 8) (size 9 to 14) (size 15 to 20)
#    0.000    1.000    6.667    1.000    4.667    0.667 
#    0.000    0.000    0.000    6.000    0.000    0.000 
#    0.000    0.000    0.000    0.000    0.000    0.000 
#
# Total GULP energy -133966.780405 kJ/mol
# GULP energy per Si atom -5581.949184 kJ/mol
# Density = 1.944794 g / cm^3
# Si number density = 19.492302 Si / 1000 Ang^3
#
#
#
# Elastic Constant Matrix: (Units=GPa)
#
#
# Indices 1 2 3 4 5 6 
#
# 1 70.4224 31.3121 48.5433 0.0000 12.8771 0.0000
# 2 31.3121 108.7540 24.6904 0.0000 14.0159 0.0000
# 3 48.5433 24.6904 64.2173 0.0000 12.7117 0.0000
# 4 0.0000 0.0000 0.0000 28.6838 0.0000 13.3797
# 5 12.8771 14.0159 12.7117 0.0000 27.7321 0.0000
# 6 0.0000 0.0000 0.0000 13.3797 0.0000 22.3643
#
#
#
# Elastic Compliance Matrix: (Units=1/GPa)
#
#
# Indices 1 2 3 4 5 6 
#
# 1 0.031315 -0.003742 -0.021698 0.000000 -0.002704 0.000000
# 2 -0.003742 0.010868 -0.000668 0.000000 -0.003450 0.000000
# 3 -0.021698 -0.000668 0.033180 0.000000 -0.004796 0.000000
# 4 0.000000 0.000000 0.000000 0.048358 0.000000 -0.028930
# 5 -0.002704 -0.003450 -0.004796 0.000000 0.041257 0.000000
# 6 0.000000 0.000000 0.000000 -0.028930 0.000000 0.062022
#
#
# Mechanical properties :
#
#
# Convention : Reuss Voigt Hill
#
# Bulk Modulus (GPa) = 43.19731 50.27612 46.73672
# Shear Modulus (GPa) = 17.42589 25.01255 21.21922
#
# Velocity S-wave (km/s) = 2.99321 3.58607 3.30297
# Velocity P-wave (km/s) = 5.84423 6.55708 6.21089
#
# Compressibility (1/GPa) = 0.02314959
#
# Stress axis : x y z
#
# Youngs Moduli (GPa) = 31.93404 92.00942 30.13872
#
# Poissons Ratio (x) = 0.34425 0.65394
# Poissons Ratio (y) = 0.11948 0.02012
# Poissons Ratio (z) = 0.69289 0.06142
#
# Static dielectric constant tensor:
#      x y z
#    x 1.692520 0.000000 0.033330 
#    y 0.000000 1.705570 0.000000 
#    z 0.033330 0.000000 1.699910 
# 
# From -- ./inp_files/258752.got.cif
#   From: 2010.05.17/outbox.cif.g08.bks.cpg/sg15_130_cif.got.tgz:258752.got - 2010.06.03 18:47:42.
