data_PCOD9270471
_publ_section_title
;
Structure prediction by ZEFSAII (Michael W. Deem and Ramdas Pophale) SiO2 
 PCOD9270471
Probable space group: C 2/C
;
_chemical_formula_sum "Si O2"
_cell_formula_units_Z 56
_cell_length_a 12.587794
_cell_length_b 14.987012
_cell_length_c 17.384757
_cell_angle_alpha 90.000000
_cell_angle_beta 69.107162
_cell_angle_gamma 90.000000
_cell_volume 3064.050903
_symmetry_space_group_name_H-M "C 2/C"
_symmetry_group_IT_number 15
_symmetry_cell_setting 'monoclinic'
loop_
_space_group_symop_operation_xyz
x,y,z
-x,y,1/2-z
-x,-y,-z
x,-y,1/2+z
1/2+x,1/2+y,z
1/2-x,1/2+y,1/2-z
1/2-x,1/2-y,-z
1/2+x,1/2-y,1/2+z
loop_
_atom_site_type_symbol
_atom_site_label
_atom_site_fract_x
_atom_site_fract_y
_atom_site_fract_z
Si Si1 0.210642 0.825794 0.451895
Si Si2 0.512624 0.795152 0.972579
Si Si3 0.138252 0.374324 0.227257
Si Si4 0.090044 0.743060 0.161281
Si Si5 0.700265 0.861333 0.388728
Si Si6 0.385958 0.944189 0.829366
Si Si7 0.845124 0.534069 0.999955
O O1 0.250000 0.750000 0.500000
O O2 0.290891 0.820868 0.355448
O O3 0.236179 0.918412 0.488649
O O4 0.083494 0.795066 0.467913
O O5 0.484254 0.792626 0.890392
O O6 0.580224 0.884098 0.984726
O O7 0.393245 0.799637 0.046323
O O8 0.173066 0.355981 0.305248
O O9 0.174905 0.476169 0.199542
O O10 0.000000 0.366437 0.250000
O O11 0.175202 0.823773 0.125085
O O12 0.165735 0.654312 0.158872
O O13 0.000000 0.766627 0.250000
O O14 0.682309 0.959967 0.429396
O O15 0.500000 0.932948 0.750000
O O16 0.403122 0.984064 0.911338
#
# Coordination Sequence:
#
# PCOD9270471 Si02
#       7
#     8   8   8   8   8   8   8
#     4   9  19  38  58  87 118 151 192 238 290 334
#     4  11  21  36  62  87 116 152 192 242 285 342
#     4  10  20  35  59  86 114 148 194 242 286 338
#     4  11  24  37  57  83 120 151 190 236 297 339
#     4  12  23  37  59  88 118 147 192 242 289 343
#     4   9  18  34  55  83 110 142 191 240 278 334
#     4  10  21  35  61  88 113 151 192 237 287 336
#
# _framework density 18.276458000000002
#
# number of rings (size 3 to 8) (size 9 to 14) (size 15 to 20)
#    0.000    1.714    1.429    5.143    6.000    0.000 
#    0.000    0.714    3.143    3.429    0.000    0.000 
#    0.000    0.000    0.000    0.000    0.000    0.000 
#
# Total GULP energy -155873.914031 kJ/mol
# GULP energy per Si atom -5566.925501 kJ/mol
# Density = 1.823486 g / cm^3
# Si number density = 18.276458 Si / 1000 Ang^3
#
#
#
# Elastic Constant Matrix: (Units=GPa)
#
#
# Indices 1 2 3 4 5 6 
#
# 1 64.0415 36.9544 31.4659 0.0000 -9.1522 0.0000
# 2 36.9544 65.4156 35.5713 0.0000 -7.5613 0.0000
# 3 31.4659 35.5713 124.4719 0.0000 5.0974 0.0000
# 4 0.0000 0.0000 0.0000 24.9274 0.0000 -13.0048
# 5 -9.1522 -7.5613 5.0974 0.0000 21.5056 0.0000
# 6 0.0000 0.0000 0.0000 -13.0048 0.0000 -10.1217
#
#
#
# Elastic Compliance Matrix: (Units=1/GPa)
#
#
# Indices 1 2 3 4 5 6 
#
# 1 0.024880 -0.011388 -0.003337 0.000000 0.007375 0.000000
# 2 -0.011388 0.024656 -0.004366 0.000000 0.004857 0.000000
# 3 -0.003337 -0.004366 0.010347 0.000000 -0.005408 0.000000
# 4 0.000000 0.000000 0.000000 0.024017 0.000000 -0.030858
# 5 0.007375 0.004857 -0.005408 0.000000 0.052628 0.000000
# 6 0.000000 0.000000 0.000000 -0.030858 0.000000 -0.059149
#
#
# Mechanical properties :
#
#
# Convention : Reuss Voigt Hill
#
# Bulk Modulus (GPa) = 46.08315 51.32361 48.70338
# Shear Modulus (GPa) = 40.71854 17.25808 28.98831
#
# Velocity S-wave (km/s) = 4.72521 3.07625 3.98691
# Velocity P-wave (km/s) = 7.41885 6.38440 6.92098
#
# Compressibility (1/GPa) = 0.02169991
#
# Stress axis : x y z
#
# Youngs Moduli (GPa) = 40.19327 40.55846 96.64853
#
# Poissons Ratio (x) = 0.46188 0.32253
# Poissons Ratio (y) = 0.45772 0.42199
# Poissons Ratio (z) = 0.13413 0.17709
#
# Static dielectric constant tensor:
#      x y z
#    x 1.673740 0.000000 0.035790 
#    y 0.000000 1.706020 0.000000 
#    z 0.035790 0.000000 1.656070 
# 
# From -- ./inp_files/197752.got.cif
#   From: 2010.05.17/outbox.cif.g08.bks.cpg/sg15_99_cif.got.tgz:197752.got - 2010.06.03 18:47:42.
