data_PCOD9270170
_publ_section_title
;
Structure prediction by ZEFSAII (Michael W. Deem and Ramdas Pophale) SiO2 
 PCOD9270170
Probable space group: C 2/C
;
_chemical_formula_sum "Si O2"
_cell_formula_units_Z 64
_cell_length_a 22.103561
_cell_length_b 14.998850
_cell_length_c 14.017045
_cell_angle_alpha 90.000000
_cell_angle_beta 40.072945
_cell_angle_gamma 90.000000
_cell_volume 2991.591278
_symmetry_space_group_name_H-M "C 2/C"
_symmetry_group_IT_number 15
_symmetry_cell_setting 'monoclinic'
loop_
_space_group_symop_operation_xyz
x,y,z
-x,y,1/2-z
-x,-y,-z
x,-y,1/2+z
1/2+x,1/2+y,z
1/2-x,1/2+y,1/2-z
1/2-x,1/2-y,-z
1/2+x,1/2-y,1/2+z
loop_
_atom_site_type_symbol
_atom_site_label
_atom_site_fract_x
_atom_site_fract_y
_atom_site_fract_z
Si Si1 0.464133 0.215504 0.390747
Si Si2 0.736206 0.048438 0.280341
Si Si3 0.875203 0.207451 0.168802
Si Si4 0.244198 0.675941 0.927751
Si Si5 0.666281 0.319694 0.579027
Si Si6 0.708522 0.655813 0.829535
Si Si7 0.794746 0.517029 0.971076
Si Si8 0.428413 0.046651 0.160056
O O1 0.500000 0.260158 0.250000
O O2 0.455719 0.275321 0.494773
O O3 0.360221 0.181300 0.489854
O O4 0.524952 0.129433 0.343169
O O5 0.815913 0.121661 0.204167
O O6 0.661779 0.077920 0.291673
O O7 0.774255 0.950631 0.203360
O O8 0.682937 0.038567 0.445893
O O9 0.901050 0.194051 0.248649
O O10 0.804741 0.292884 0.244946
O O11 0.311133 0.686805 0.755074
O O12 0.250000 0.750000 0.000000
O O13 0.251537 0.580457 0.968350
O O14 0.750000 0.250000 0.500000
O O15 0.639670 0.317318 0.499554
O O16 0.716881 0.414592 0.529872
O O17 0.884419 0.517264 0.794135
O O18 0.500000 0.000000 0.000000
#
# Coordination Sequence:
#
# PCOD9270170 Si02
#       8
#     8   8   8   8   8   8   8   8
#     4  11  23  36  53  83 118 159 191 245 304 359
#     4  10  21  37  57  88 118 157 201 243 301 362
#     4   9  20  35  55  81 117 153 202 243 293 360
#     4  10  21  35  55  80 115 149 196 245 296 356
#     4   9  17  31  53  78 112 150 194 245 276 345
#     4   9  17  31  55  83 110 144 194 253 293 339
#     4  10  20  35  56  84 119 156 196 233 303 357
#     4  12  23  33  58  84 127 157 188 240 314 367
#
# _framework density 21.393295999999999
#
# number of rings (size 3 to 8) (size 9 to 14) (size 15 to 20)
#    0.000    2.000    2.500    2.250    5.250    0.000 
#    0.000    0.000    0.000    0.000    0.000   21.875 
#    0.000    0.000    0.000    0.000    0.000    0.000 
#
# Total GULP energy -178498.749599 kJ/mol
# GULP energy per Si atom -5578.085925 kJ/mol
# Density = 2.134460 g / cm^3
# Si number density = 21.393296 Si / 1000 Ang^3
#
#
#
# Elastic Constant Matrix: (Units=GPa)
#
#
# Indices 1 2 3 4 5 6 
#
# 1 49.6186 9.7841 25.4886 0.0000 19.6112 0.0000
# 2 9.7841 75.6584 20.6871 0.0000 8.7372 0.0000
# 3 25.4886 20.6871 165.7207 0.0000 53.3683 0.0000
# 4 0.0000 0.0000 0.0000 27.1496 0.0000 10.8641
# 5 19.6112 8.7372 53.3683 0.0000 38.9362 0.0000
# 6 0.0000 0.0000 0.0000 10.8641 0.0000 7.6223
#
#
#
# Elastic Compliance Matrix: (Units=1/GPa)
#
#
# Indices 1 2 3 4 5 6 
#
# 1 0.025444 -0.001925 0.000564 0.000000 -0.013156 0.000000
# 2 -0.001925 0.013867 -0.001334 0.000000 -0.000314 0.000000
# 3 0.000564 -0.001334 0.010937 0.000000 -0.014975 0.000000
# 4 0.000000 0.000000 0.000000 0.085728 0.000000 -0.122190
# 5 -0.013156 -0.000314 -0.014975 0.000000 0.052905 0.000000
# 6 0.000000 0.000000 0.000000 -0.122190 0.000000 0.305353
#
#
# Mechanical properties :
#
#
# Convention : Reuss Voigt Hill
#
# Bulk Modulus (GPa) = 22.29336 44.76859 33.53098
# Shear Modulus (GPa) = 9.71672 30.41081 20.06377
#
# Velocity S-wave (km/s) = 2.13350 3.77438 3.06576
# Velocity P-wave (km/s) = 4.06355 6.32191 5.31408
#
# Compressibility (1/GPa) = 0.04485640
#
# Stress axis : x y z
#
# Youngs Moduli (GPa) = 39.30276 72.11250 91.43668
#
# Poissons Ratio (x) = 0.13883 -0.05154
# Poissons Ratio (y) = 0.07566 0.12197
# Poissons Ratio (z) = -0.02215 0.09619
#
# Static dielectric constant tensor:
#      x y z
#    x 1.787480 0.000000 0.052250 
#    y 0.000000 1.744390 0.000000 
#    z 0.052250 0.000000 1.882790 
# 
# From -- ./inp_files/178163.got.cif
#   From: 2010.05.17/outbox.cif.g08.bks.cpg/sg15_90_cif.got.tgz:178163.got - 2010.06.03 18:47:42.
