data_PCOD9270004
_publ_section_title
;
Structure prediction by ZEFSAII (Michael W. Deem and Ramdas Pophale) SiO2 
 PCOD9270004
Probable space group: C 2/C
;
_chemical_formula_sum "Si O2"
_cell_formula_units_Z 44
_cell_length_a 6.971053
_cell_length_b 27.962373
_cell_length_c 10.960112
_cell_angle_alpha 90.000000
_cell_angle_beta 96.998628
_cell_angle_gamma 90.000000
_cell_volume 2120.505426
_symmetry_space_group_name_H-M "C 2/C"
_symmetry_group_IT_number 15
_symmetry_cell_setting 'monoclinic'
loop_
_space_group_symop_operation_xyz
x,y,z
-x,y,1/2-z
-x,-y,-z
x,-y,1/2+z
1/2+x,1/2+y,z
1/2-x,1/2+y,1/2-z
1/2-x,1/2-y,-z
1/2+x,1/2-y,1/2+z
loop_
_atom_site_type_symbol
_atom_site_label
_atom_site_fract_x
_atom_site_fract_y
_atom_site_fract_z
Si Si1 0.055667 0.033793 0.891097
Si Si2 0.082795 0.594638 0.628399
Si Si3 0.338986 0.622334 0.979898
Si Si4 0.000000 0.143226 0.250000
Si Si5 0.820143 0.709649 0.163478
Si Si6 0.171965 0.184090 0.896739
O O1 0.277954 0.053373 0.915779
O O2 0.000000 0.015756 0.750000
O O3 0.923748 0.080007 0.904588
O O4 0.000000 0.000000 0.000000
O O5 0.228499 0.639315 0.660707
O O6 0.000000 0.576876 0.750000
O O7 0.893278 0.615965 0.544473
O O8 0.410903 0.616145 0.126004
O O9 0.460055 0.668373 0.934070
O O10 0.150719 0.179935 0.206931
O O11 0.818845 0.766860 0.176740
O O12 0.000000 0.690680 0.250000
O O13 0.810374 0.696704 0.021440
#
# Coordination Sequence:
#
# PCOD9270004 Si02
#       6
#     8   8   8   4   8   8
#     4  11  25  46  70 100 134 164 208 272 335 406
#     4  11  22  40  67  95 125 171 219 263 330 403
#     4  10  22  42  65  92 128 170 222 263 340 384
#     4  10  22  38  62  92 130 180 220 282 316 386
#     4  10  20  35  53  84 129 169 227 269 327 367
#     4   9  22  35  55  89 123 174 216 279 315 380
#
# _framework density 20.749770000000002
#
# number of rings (size 3 to 8) (size 9 to 14) (size 15 to 20)
#    0.000    1.818    1.818    1.091    5.091    0.727 
#    0.000    5.455    0.000    0.000    0.000    0.000 
#    0.000    0.000    0.000    0.000    0.000    0.000 
#
# Total GULP energy -122479.702044 kJ/mol
# GULP energy per Si atom -5567.259184 kJ/mol
# Density = 2.070254 g / cm^3
# Si number density = 20.749770 Si / 1000 Ang^3
#
#
#
# Elastic Constant Matrix: (Units=GPa)
#
#
# Indices 1 2 3 4 5 6 
#
# 1 131.8845 33.3447 51.2151 0.0000 17.8366 0.0000
# 2 33.3447 61.9765 22.7785 0.0000 -3.4075 0.0000
# 3 51.2151 22.7785 111.9091 0.0000 15.2281 0.0000
# 4 0.0000 0.0000 0.0000 20.4589 0.0000 0.6585
# 5 17.8366 -3.4075 15.2281 0.0000 37.4789 0.0000
# 6 0.0000 0.0000 0.0000 0.6585 0.0000 18.5025
#
#
#
# Elastic Compliance Matrix: (Units=1/GPa)
#
#
# Indices 1 2 3 4 5 6 
#
# 1 0.010632 -0.004719 -0.003343 0.000000 -0.004131 0.000000
# 2 -0.004719 0.019906 -0.002587 0.000000 0.005107 0.000000
# 3 -0.003343 -0.002587 0.011441 0.000000 -0.003292 0.000000
# 4 0.000000 0.000000 0.000000 0.048935 0.000000 -0.001742
# 5 -0.004131 0.005107 -0.003292 0.000000 0.030450 0.000000
# 6 0.000000 0.000000 0.000000 -0.001742 0.000000 0.054109
#
#
# Mechanical properties :
#
#
# Convention : Reuss Voigt Hill
#
# Bulk Modulus (GPa) = 48.35549 57.82740 53.09145
# Shear Modulus (GPa) = 24.55034 28.51683 26.53359
#
# Velocity S-wave (km/s) = 3.44344 3.71120 3.57983
# Velocity P-wave (km/s) = 6.25815 6.80393 6.53674
#
# Compressibility (1/GPa) = 0.02068017
#
# Stress axis : x y z
#
# Youngs Moduli (GPa) = 94.05183 50.23730 87.40869
#
# Poissons Ratio (x) = 0.23706 0.29224
# Poissons Ratio (y) = 0.44381 0.22613
# Poissons Ratio (z) = 0.31445 0.12996
#
# Static dielectric constant tensor:
#      x y z
#    x 1.755390 0.000000 0.094270 
#    y 0.000000 1.763860 0.000000 
#    z 0.094270 0.000000 1.875630 
# 
# From -- ./inp_files/73961.got.cif
#   From: 2010.05.17/outbox.cif.g08.bks.cpg/sg15_37_cif.got.tgz:73961.got - 2010.06.03 18:47:42.
