data_PCOD9270798
_publ_section_title
;
Structure prediction by ZEFSAII (Michael W. Deem and Ramdas Pophale) SiO2 
 PCOD9270798
Probable space group: C 2/C
;
_chemical_formula_sum "Si O2"
_cell_formula_units_Z 56
_cell_length_a 19.153150
_cell_length_b 19.809710
_cell_length_c 15.124165
_cell_angle_alpha 90.000000
_cell_angle_beta 155.851417
_cell_angle_gamma 90.000000
_cell_volume 2347.598466
_symmetry_space_group_name_H-M "C 2/C"
_symmetry_group_IT_number 15
_symmetry_cell_setting 'monoclinic'
loop_
_space_group_symop_operation_xyz
x,y,z
-x,y,1/2-z
-x,-y,-z
x,-y,1/2+z
1/2+x,1/2+y,z
1/2-x,1/2+y,1/2-z
1/2-x,1/2-y,-z
1/2+x,1/2-y,1/2+z
loop_
_atom_site_type_symbol
_atom_site_label
_atom_site_fract_x
_atom_site_fract_y
_atom_site_fract_z
Si Si1 0.844242 0.498396 0.201897
Si Si2 0.789867 0.464141 0.845799
Si Si3 0.016699 0.713160 0.535014
Si Si4 0.000000 0.607231 0.250000
Si Si5 0.130717 0.165260 0.546638
Si Si6 0.662729 0.602261 0.777390
Si Si7 0.500000 0.429653 0.750000
Si Si8 0.832352 0.840801 0.885897
O O1 0.801497 0.510938 0.256154
O O2 0.916002 0.562615 0.231483
O O3 0.016714 0.454148 0.398874
O O4 0.674082 0.472215 0.958216
O O5 0.699540 0.523039 0.798895
O O6 0.699150 0.392451 0.732340
O O7 0.171232 0.669632 0.751425
O O8 0.095465 0.767897 0.558112
O O9 0.939957 0.759294 0.524252
O O10 0.862044 0.673333 0.309747
O O11 0.172133 0.637834 0.489166
O O12 0.145004 0.134516 0.660540
O O13 0.018037 0.119544 0.354145
O O14 0.481064 0.620625 0.612142
#
# Coordination Sequence:
#
# PCOD9270798 Si02
#       8
#     8   8   8   4   8   8   4   8
#     4  10  23  37  57  93 135 160 204 257 315 388
#     4  10  20  39  64  91 122 174 206 256 329 370
#     4   9  21  39  58  92 119 173 212 256 305 368
#     4  10  24  38  56  91 131 158 204 250 322 386
#     4  10  21  39  62  86 129 163 211 257 306 370
#     4  10  21  39  62  94 124 163 205 265 319 384
#     4  12  22  36  62  93 127 168 202 256 304 384
#     4  10  20  35  66  87 121 162 218 254 310 376
#
# _framework density 23.854164000000001
#
# number of rings (size 3 to 8) (size 9 to 14) (size 15 to 20)
#    0.000    2.000    1.429    1.286    6.000    5.143 
#    0.000    0.000    0.000   14.571    0.000    0.000 
#    0.000    0.000    0.000    0.000    0.000    0.000 
#
# Total GULP energy -156200.739161 kJ/mol
# GULP energy per Si atom -5578.597827 kJ/mol
# Density = 2.379987 g / cm^3
# Si number density = 23.854164 Si / 1000 Ang^3
#
#
#
# Elastic Constant Matrix: (Units=GPa)
#
#
# Indices 1 2 3 4 5 6 
#
# 1 45.0958 6.0875 28.5948 0.0000 -0.3798 0.0000
# 2 6.0875 67.6091 39.0567 0.0000 14.7074 0.0000
# 3 28.5948 39.0567 229.9638 0.0000 21.5664 0.0000
# 4 0.0000 0.0000 0.0000 35.4207 0.0000 20.6944
# 5 -0.3798 14.7074 21.5664 0.0000 39.2669 0.0000
# 6 0.0000 0.0000 0.0000 20.6944 0.0000 24.3405
#
#
#
# Elastic Compliance Matrix: (Units=1/GPa)
#
#
# Indices 1 2 3 4 5 6 
#
# 1 0.024266 -0.000899 -0.003077 0.000000 0.002261 0.000000
# 2 -0.000899 0.017364 -0.002347 0.000000 -0.005223 0.000000
# 3 -0.003077 -0.002347 0.005324 0.000000 -0.002075 0.000000
# 4 0.000000 0.000000 0.000000 0.056097 0.000000 -0.047694
# 5 0.002261 -0.005223 -0.002075 0.000000 0.028585 0.000000
# 6 0.000000 0.000000 0.000000 -0.047694 0.000000 0.081634
#
#
# Mechanical properties :
#
#
# Convention : Reuss Voigt Hill
#
# Bulk Modulus (GPa) = 29.14799 54.46074 41.80437
# Shear Modulus (GPa) = 21.06563 37.73425 29.39994
#
# Velocity S-wave (km/s) = 2.97493 3.98159 3.51449
# Velocity P-wave (km/s) = 4.90367 6.63458 5.83368
#
# Compressibility (1/GPa) = 0.03430768
#
# Stress axis : x y z
#
# Youngs Moduli (GPa) = 41.20923 57.58977 187.81654
#
# Poissons Ratio (x) = 0.05180 0.57786
# Poissons Ratio (y) = 0.03707 0.44088
# Poissons Ratio (z) = 0.12679 0.13519
#
# Static dielectric constant tensor:
#      x y z
#    x 2.003180 0.000000 0.099380 
#    y 0.000000 1.969220 0.000000 
#    z 0.099380 0.000000 1.989900 
# 
# From -- ./inp_files/220211.got.cif
#   From: 2010.05.17/outbox.cif.g08.bks.cpg/sg15_111_cif.got.tgz:220211.got - 2010.06.03 18:47:42.
