data_PCOD9270342
_publ_section_title
;
Structure prediction by ZEFSAII (Michael W. Deem and Ramdas Pophale) SiO2 
 PCOD9270342
Probable space group: C 2/C
;
_chemical_formula_sum "Si O2"
_cell_formula_units_Z 60
_cell_length_a 16.041825
_cell_length_b 8.857929
_cell_length_c 27.027313
_cell_angle_alpha 90.000000
_cell_angle_beta 38.101368
_cell_angle_gamma 90.000000
_cell_volume 2369.804281
_symmetry_space_group_name_H-M "C 2/C"
_symmetry_group_IT_number 15
_symmetry_cell_setting 'monoclinic'
loop_
_space_group_symop_operation_xyz
x,y,z
-x,y,1/2-z
-x,-y,-z
x,-y,1/2+z
1/2+x,1/2+y,z
1/2-x,1/2+y,1/2-z
1/2-x,1/2-y,-z
1/2+x,1/2-y,1/2+z
loop_
_atom_site_type_symbol
_atom_site_label
_atom_site_fract_x
_atom_site_fract_y
_atom_site_fract_z
Si Si1 0.758445 0.348496 0.082752
Si Si2 0.920644 0.561397 0.414957
Si Si3 0.500000 0.812396 0.250000
Si Si4 0.814553 0.691462 0.237673
Si Si5 0.257634 0.527020 0.135687
Si Si6 0.680766 0.364673 0.479158
Si Si7 0.324636 0.975395 0.154497
Si Si8 0.603894 0.611939 0.118032
O O1 0.738125 0.185963 0.116253
O O2 0.820261 0.448290 0.098579
O O3 0.628914 0.444001 0.125621
O O4 0.852664 0.340769 0.990213
O O5 0.805199 0.472313 0.440067
O O6 0.025450 0.653657 0.331930
O O7 0.025278 0.450006 0.394008
O O8 0.509091 0.705571 0.198030
O O9 0.627769 0.919800 0.194254
O O10 0.732298 0.579421 0.312480
O O11 0.774262 0.856442 0.273231
O O12 0.790598 0.641071 0.192063
O O13 0.361666 0.428023 0.054209
O O14 0.576145 0.380205 0.572759
O O15 0.750973 0.200999 0.444215
#
# Coordination Sequence:
#
# PCOD9270342 Si02
#       8
#     8   8   4   8   8   8   8   8
#     4  10  20  37  58  83 111 143 192 229 280 328
#     4   9  19  35  60  78 109 149 181 227 278 329
#     4  10  20  36  56  78 116 148 184 226 288 328
#     4   9  19  34  57  80 110 145 189 226 282 319
#     4  10  20  35  58  82 115 151 177 232 285 334
#     4   9  18  36  56  81 114 146 182 223 283 334
#     4   9  20  36  57  80 109 145 186 234 271 333
#     4   9  19  33  55  84 109 143 187 229 272 333
#
# _framework density 25.318546000000001
#
# number of rings (size 3 to 8) (size 9 to 14) (size 15 to 20)
#    0.800    1.867    0.000    2.000    0.000    4.800 
#    0.000    2.667   11.733    1.600    0.000    0.000 
#    0.000    0.000    0.000    0.000    0.000    0.000 
#
# Total GULP energy -167572.594034 kJ/mol
# GULP energy per Si atom -5585.753134 kJ/mol
# Density = 2.526092 g / cm^3
# Si number density = 25.318546 Si / 1000 Ang^3
#
#
#
# Elastic Constant Matrix: (Units=GPa)
#
#
# Indices 1 2 3 4 5 6 
#
# 1 54.3960 5.9566 30.2142 0.0001 -5.3655 0.0004
# 2 5.9566 52.7551 32.0933 0.0001 3.3884 0.0009
# 3 30.2142 32.0933 128.0126 0.0000 17.7342 0.0000
# 4 0.0001 0.0001 0.0000 50.7171 0.0000 12.3257
# 5 -5.3655 3.3884 17.7342 0.0000 33.3236 0.0000
# 6 0.0004 0.0009 0.0000 12.3257 0.0000 37.2146
#
#
#
# Elastic Compliance Matrix: (Units=1/GPa)
#
#
# Indices 1 2 3 4 5 6 
#
# 1 0.022612 0.000985 -0.006558 0.000000 0.007031 0.000000
# 2 0.000985 0.022428 -0.006004 0.000000 0.001073 -0.000001
# 3 -0.006558 -0.006004 0.011796 0.000000 -0.006723 0.000000
# 4 0.000000 0.000000 0.000000 0.021443 0.000000 -0.007102
# 5 0.007031 0.001073 -0.006723 0.000000 0.034610 0.000000
# 6 0.000000 -0.000001 0.000000 -0.007102 0.000000 0.029223
#
#
# Mechanical properties :
#
#
# Convention : Reuss Voigt Hill
#
# Bulk Modulus (GPa) = 29.68953 41.29910 35.49432
# Shear Modulus (GPa) = 28.32970 35.37770 31.85370
#
# Velocity S-wave (km/s) = 3.34867 3.74211 3.55084
# Velocity P-wave (km/s) = 5.16753 5.91763 5.55525
#
# Compressibility (1/GPa) = 0.03368191
#
# Stress axis : x y z
#
# Youngs Moduli (GPa) = 44.22456 44.58748 84.77363
#
# Poissons Ratio (x) = -0.04391 0.55593
# Poissons Ratio (y) = -0.04355 0.50897
# Poissons Ratio (z) = 0.29002 0.26770
#
# Static dielectric constant tensor:
#      x y z
#    x 2.027660 0.000000 0.024970 
#    y 0.000000 1.984780 0.000000 
#    z 0.024970 0.000000 2.041160 
# 
# From -- ./inp_files/317254.got.cif
#   From: 2010.05.17/outbox.cif.g08.bks.cpg/sg15_159_cif.got.tgz:317254.got - 2010.06.03 18:47:42.
