data_PCOD9270796
_publ_section_title
;
Structure prediction by ZEFSAII (Michael W. Deem and Ramdas Pophale) SiO2 
 PCOD9270796
Probable space group: C 2/C
;
_chemical_formula_sum "Si O2"
_cell_formula_units_Z 40
_cell_length_a 16.008422
_cell_length_b 8.771927
_cell_length_c 12.817997
_cell_angle_alpha 90.000000
_cell_angle_beta 61.320292
_cell_angle_gamma 90.000000
_cell_volume 1579.137113
_symmetry_space_group_name_H-M "C 2/C"
_symmetry_group_IT_number 15
_symmetry_cell_setting 'monoclinic'
loop_
_space_group_symop_operation_xyz
x,y,z
-x,y,1/2-z
-x,-y,-z
x,-y,1/2+z
1/2+x,1/2+y,z
1/2-x,1/2+y,1/2-z
1/2-x,1/2-y,-z
1/2+x,1/2-y,1/2+z
loop_
_atom_site_type_symbol
_atom_site_label
_atom_site_fract_x
_atom_site_fract_y
_atom_site_fract_z
Si Si1 0.283282 0.227140 0.786842
Si Si2 0.588833 0.558174 0.139368
Si Si3 0.937562 0.606318 0.388962
Si Si4 0.755515 0.900124 0.599537
Si Si5 0.067530 0.709004 0.482903
O O1 0.350924 0.331103 0.819063
O O2 0.288685 0.046871 0.808978
O O3 0.293876 0.279344 0.660885
O O4 0.174153 0.262462 0.880893
O O5 0.500000 0.477261 0.250000
O O6 0.665503 0.465898 0.026080
O O7 0.539384 0.667516 0.084804
O O8 0.834486 0.656942 0.412139
O O9 0.003444 0.715197 0.070838
O O10 0.929704 0.451980 0.460281
O O11 0.000000 0.575299 0.250000
#
# Coordination Sequence:
#
# PCOD9270796 Si02
#       5
#     8   8   8   8   8
#     4  11  22  41  68  99 144 181 231 290 347 417
#     4  11  23  43  68  93 142 194 232 274 351 430
#     4  11  19  33  66 107 132 162 232 304 340 386
#     4  11  23  42  68 107 138 182 233 288 352 415
#     4  10  20  35  66 104 130 176 233 297 338 401
#
# _framework density 25.330290000000002
#
# number of rings (size 3 to 8) (size 9 to 14) (size 15 to 20)
#    0.000    1.200    6.000    1.800    0.000    0.800 
#    0.000    1.000    8.800    0.000    0.000    5.600 
#    0.000    0.000    0.000    0.000    0.000    0.000 
#
# Total GULP energy -112189.713904 kJ/mol
# GULP energy per Si atom -5609.485695 kJ/mol
# Density = 2.527264 g / cm^3
# Si number density = 25.330290 Si / 1000 Ang^3
#
#
#
# Elastic Constant Matrix: (Units=GPa)
#
#
# Indices 1 2 3 4 5 6 
#
# 1 136.8248 25.0833 41.3632 0.0000 9.3121 0.0000
# 2 25.0833 85.5587 6.8567 0.0000 14.3189 0.0000
# 3 41.3632 6.8567 78.0073 0.0000 -4.6324 0.0000
# 4 0.0000 0.0000 0.0000 -48.2882 0.0000 33.0766
# 5 9.3121 14.3189 -4.6324 0.0000 56.4332 0.0000
# 6 0.0000 0.0000 0.0000 33.0766 0.0000 25.2131
#
#
#
# Elastic Compliance Matrix: (Units=1/GPa)
#
#
# Indices 1 2 3 4 5 6 
#
# 1 0.009236 -0.002091 -0.004796 0.000000 -0.001387 0.000000
# 2 -0.002091 0.012805 -0.000190 0.000000 -0.002920 0.000000
# 3 -0.004796 -0.000190 0.015505 0.000000 0.002112 0.000000
# 4 0.000000 0.000000 0.000000 -0.010907 0.000000 0.014309
# 5 -0.001387 -0.002920 0.002112 0.000000 0.018863 0.000000
# 6 0.000000 0.000000 0.000000 0.014309 0.000000 0.020890
#
#
# Mechanical properties :
#
#
# Convention : Reuss Voigt Hill
#
# Bulk Modulus (GPa) = 42.75159 49.66636 46.20897
# Shear Modulus (GPa) = 56.59756 21.81080 39.20418
#
# Velocity S-wave (km/s) = 4.73205 2.93756 3.93837
# Velocity P-wave (km/s) = 6.83891 5.58173 6.24205
#
# Compressibility (1/GPa) = 0.02339094
#
# Stress axis : x y z
#
# Youngs Moduli (GPa) = 108.26842 78.09559 64.49714
#
# Poissons Ratio (x) = 0.16332 0.30933
# Poissons Ratio (y) = 0.22642 0.01225
# Poissons Ratio (z) = 0.51926 0.01484
#
# Static dielectric constant tensor:
#      x y z
#    x 1.927580 0.000000 -0.006150 
#    y 0.000000 2.031140 0.000000 
#    z -0.006150 0.000000 1.984400 
# 
# From -- ./inp_files/103552.got.cif
#   From: 2010.05.17/outbox.cif.g08.bks.cpg/sg15_52_cif.got.tgz:103552.got - 2010.06.03 18:47:42.
