data_PCOD9270859
_publ_section_title
;
Structure prediction by ZEFSAII (Michael W. Deem and Ramdas Pophale) SiO2 
 PCOD9270859
Probable space group: C 2/C
;
_chemical_formula_sum "Si O2"
_cell_formula_units_Z 56
_cell_length_a 21.580252
_cell_length_b 12.161676
_cell_length_c 24.509648
_cell_angle_alpha 90.000000
_cell_angle_beta 152.626728
_cell_angle_gamma 90.000000
_cell_volume 2957.619890
_symmetry_space_group_name_H-M "C 2/C"
_symmetry_group_IT_number 15
_symmetry_cell_setting 'monoclinic'
loop_
_space_group_symop_operation_xyz
x,y,z
-x,y,1/2-z
-x,-y,-z
x,-y,1/2+z
1/2+x,1/2+y,z
1/2-x,1/2+y,1/2-z
1/2-x,1/2-y,-z
1/2+x,1/2-y,1/2+z
loop_
_atom_site_type_symbol
_atom_site_label
_atom_site_fract_x
_atom_site_fract_y
_atom_site_fract_z
Si Si1 0.254387 0.097992 0.453404
Si Si2 0.065940 0.353596 0.556038
Si Si3 0.547115 0.618359 0.597461
Si Si4 0.006417 0.482124 0.098078
Si Si5 0.142208 0.946779 0.750426
Si Si6 0.357075 0.347465 0.518882
Si Si7 0.793203 0.999975 0.872032
O O1 0.389514 0.028009 0.550681
O O2 0.160388 0.062869 0.329659
O O3 0.303941 0.223766 0.482835
O O4 0.187200 0.092851 0.459747
O O5 0.981662 0.427015 0.532524
O O6 0.217116 0.401632 0.664716
O O7 0.074911 0.236446 0.592564
O O8 0.994927 0.370976 0.441088
O O9 0.604640 0.569198 0.699312
O O10 0.623863 0.537647 0.615855
O O11 0.386263 0.596026 0.469817
O O12 0.143355 0.516427 0.234098
O O13 0.016592 0.868283 0.636638
O O14 0.290574 0.403595 0.414560
#
# Coordination Sequence:
#
# PCOD9270859 Si02
#       7
#     8   8   8   8   8   8   8
#     4  10  22  37  56  87 115 156 192 241 290 348
#     4  10  21  37  59  87 118 159 190 241 296 351
#     4  10  21  36  57  84 119 155 195 237 301 350
#     4  10  21  36  55  86 120 146 194 240 290 348
#     4  10  20  38  58  86 120 151 197 242 285 354
#     4  10  22  36  58  84 118 155 195 234 296 348
#     4  10  20  36  53  85 117 153 190 239 291 351
#
# _framework density 18.934144
#
# number of rings (size 3 to 8) (size 9 to 14) (size 15 to 20)
#    0.000    2.000    1.429    2.143    4.000    1.714 
#    0.000    0.000    0.000    3.429    7.429    0.000 
#    0.000    0.000    0.000    0.000    0.000    0.000 
#
# Total GULP energy -155942.328583 kJ/mol
# GULP energy per Si atom -5569.368878 kJ/mol
# Density = 1.889105 g / cm^3
# Si number density = 18.934144 Si / 1000 Ang^3
#
#
#
# Elastic Constant Matrix: (Units=GPa)
#
#
# Indices 1 2 3 4 5 6 
#
# 1 72.6989 -0.4116 16.7622 -0.0001 -0.1618 -0.0001
# 2 -0.4116 -5.6168 31.4970 -0.0001 15.2689 -0.0001
# 3 16.7622 31.4970 82.5045 -0.0001 -4.5543 -0.0002
# 4 -0.0001 -0.0001 -0.0001 12.4067 -0.0001 -4.0758
# 5 -0.1618 15.2689 -4.5543 -0.0001 23.4992 -0.0001
# 6 -0.0001 -0.0001 -0.0002 -4.0758 -0.0001 30.9188
#
#
#
# Elastic Compliance Matrix: (Units=1/GPa)
#
#
# Indices 1 2 3 4 5 6 
#
# 1 0.014070 -0.003447 -0.001429 0.000000 0.002059 0.000000
# 2 -0.003447 -0.032397 0.014383 0.000000 0.023814 0.000000
# 3 -0.001429 0.014383 0.006473 0.000000 -0.008101 0.000000
# 4 0.000000 0.000000 0.000000 0.084250 0.000000 0.011106
# 5 0.002059 0.023814 -0.008101 0.000000 0.025526 0.000000
# 6 0.000000 0.000000 0.000000 0.011106 0.000000 0.033807
#
#
# Mechanical properties :
#
#
# Convention : Reuss Voigt Hill
#
# Bulk Modulus (GPa) = 139.66399 27.25352 83.45875
# Shear Modulus (GPa) = 43.43960 20.14754 31.79357
#
# Velocity S-wave (km/s) = 4.79503 3.26557 4.10221
# Velocity P-wave (km/s) = 10.22641 5.35198 8.16159
#
# Compressibility (1/GPa) = 0.00716004
#
# Stress axis : x y z
#
# Youngs Moduli (GPa) = 71.07353 -30.86744 154.48657
#
# Poissons Ratio (x) = -0.10639 0.22077
# Poissons Ratio (y) = 0.24496 -2.22191
# Poissons Ratio (z) = 0.10157 0.44395
#
# Static dielectric constant tensor:
#      x y z
#    x 1.650160 0.000000 -0.011980 
#    y 0.000000 1.697500 0.000000 
#    z -0.011980 0.000000 1.724860 
# 
# From -- ./inp_files/280008.got.cif
#   From: 2010.05.17/outbox.cif.g08.bks.cpg/sg15_141_cif.got.tgz:280008.got - 2010.06.03 18:47:42.
