data_PCOD9270910
_publ_section_title
;
Structure prediction by ZEFSAII (Michael W. Deem and Ramdas Pophale) SiO2 
 PCOD9270910
Probable space group: C 2/C
;
_chemical_formula_sum "Si O2"
_cell_formula_units_Z 40
_cell_length_a 25.238468
_cell_length_b 15.364441
_cell_length_c 9.769877
_cell_angle_alpha 90.000000
_cell_angle_beta 148.513343
_cell_angle_gamma 90.000000
_cell_volume 1978.740604
_symmetry_space_group_name_H-M "C 2/C"
_symmetry_group_IT_number 15
_symmetry_cell_setting 'monoclinic'
loop_
_space_group_symop_operation_xyz
x,y,z
-x,y,1/2-z
-x,-y,-z
x,-y,1/2+z
1/2+x,1/2+y,z
1/2-x,1/2+y,1/2-z
1/2-x,1/2-y,-z
1/2+x,1/2-y,1/2+z
loop_
_atom_site_type_symbol
_atom_site_label
_atom_site_fract_x
_atom_site_fract_y
_atom_site_fract_z
Si Si1 0.775727 0.852443 0.560627
Si Si2 0.040450 0.787057 0.692527
Si Si3 0.658373 0.111807 0.045584
Si Si4 0.382451 0.917315 0.504115
Si Si5 0.846016 0.306264 0.676572
O O1 0.750000 0.750000 0.500000
O O2 0.883575 0.851587 0.719748
O O3 0.763728 0.881709 0.692440
O O4 0.687909 0.904631 0.284497
O O5 0.095574 0.694547 0.849842
O O6 0.000000 0.821614 0.750000
O O7 0.944092 0.755677 0.393610
O O8 0.651426 0.125881 0.192664
O O9 0.617022 0.015022 0.935842
O O10 0.333582 0.853841 0.507097
O O11 0.500000 0.891252 0.750000
O O12 0.750000 0.250000 0.500000
#
# Coordination Sequence:
#
# PCOD9270910 Si02
#       5
#     8   8   8   8   8
#     4  10  20  36  55  78 112 149 179 214 275 341
#     4   9  18  35  57  79 110 148 183 224 277 330
#     4  10  21  36  55  84 116 141 174 229 290 330
#     4  12  22  34  58  88 112 138 181 235 283 327
#     4  11  22  36  57  83 110 145 189 232 270 325
#
# _framework density 20.214880000000001
#
# number of rings (size 3 to 8) (size 9 to 14) (size 15 to 20)
#    0.000    1.600    0.000    9.000    0.000    2.400 
#    0.000    0.000    0.000   13.200    0.000    0.000 
#    0.000    0.000    0.000    0.000    0.000    0.000 
#
# Total GULP energy -111492.618927 kJ/mol
# GULP energy per Si atom -5574.630946 kJ/mol
# Density = 2.016887 g / cm^3
# Si number density = 20.214880 Si / 1000 Ang^3
#
#
#
# Elastic Constant Matrix: (Units=GPa)
#
#
# Indices 1 2 3 4 5 6 
#
# 1 114.7444 13.9077 5.2560 0.0000 25.3091 0.0000
# 2 13.9077 36.2406 2.5130 0.0000 13.6500 0.0000
# 3 5.2560 2.5130 36.2875 0.0000 10.1123 0.0000
# 4 0.0000 0.0000 0.0000 11.8136 0.0000 -1.6905
# 5 25.3091 13.6500 10.1123 0.0000 25.3040 0.0000
# 6 0.0000 0.0000 0.0000 -1.6905 0.0000 33.1530
#
#
#
# Elastic Compliance Matrix: (Units=1/GPa)
#
#
# Indices 1 2 3 4 5 6 
#
# 1 0.011274 0.000074 0.001705 0.000000 -0.011998 0.000000
# 2 0.000074 0.034955 0.003200 0.000000 -0.020209 0.000000
# 3 0.001705 0.003200 0.031560 0.000000 -0.016044 0.000000
# 4 0.000000 0.000000 0.000000 0.085270 0.000000 0.004348
# 5 -0.011998 -0.020209 -0.016044 0.000000 0.068833 0.000000
# 6 0.000000 0.000000 0.000000 0.004348 0.000000 0.030385
#
#
# Mechanical properties :
#
#
# Convention : Reuss Voigt Hill
#
# Bulk Modulus (GPa) = 11.39617 25.62510 18.51063
# Shear Modulus (GPa) = 17.75771 25.09383 21.42577
#
# Velocity S-wave (km/s) = 2.96708 3.52711 3.25914
# Velocity P-wave (km/s) = 4.16987 5.41213 4.83110
#
# Compressibility (1/GPa) = 0.08774877
#
# Stress axis : x y z
#
# Youngs Moduli (GPa) = 88.69701 28.60844 31.68552
#
# Poissons Ratio (x) = -0.00212 -0.05404
# Poissons Ratio (y) = -0.00658 -0.10140
# Poissons Ratio (z) = -0.15126 -0.09155
#
# Static dielectric constant tensor:
#      x y z
#    x 1.747700 0.000000 0.068050 
#    y 0.000000 1.672910 0.000000 
#    z 0.068050 0.000000 1.700350 
# 
# From -- ./inp_files/38606.got.cif
#   From: 2010.05.17/outbox.cif.g08.bks.cpg/sg15_20_cif.got.tgz:38606.got - 2010.06.03 18:47:42.
