data_PCOD9270329
_publ_section_title
;
Structure prediction by ZEFSAII (Michael W. Deem and Ramdas Pophale) SiO2 
 PCOD9270329
Probable space group: C 2/C
;
_chemical_formula_sum "Si O2"
_cell_formula_units_Z 48
_cell_length_a 20.341773
_cell_length_b 16.159895
_cell_length_c 9.412181
_cell_angle_alpha 90.000000
_cell_angle_beta 136.752862
_cell_angle_gamma 90.000000
_cell_volume 2119.830416
_symmetry_space_group_name_H-M "C 2/C"
_symmetry_group_IT_number 15
_symmetry_cell_setting 'monoclinic'
loop_
_space_group_symop_operation_xyz
x,y,z
-x,y,1/2-z
-x,-y,-z
x,-y,1/2+z
1/2+x,1/2+y,z
1/2-x,1/2+y,1/2-z
1/2-x,1/2-y,-z
1/2+x,1/2-y,1/2+z
loop_
_atom_site_type_symbol
_atom_site_label
_atom_site_fract_x
_atom_site_fract_y
_atom_site_fract_z
Si Si1 0.680351 0.156117 0.293171
Si Si2 0.198246 0.129890 0.529060
Si Si3 0.375420 0.025976 0.802095
Si Si4 0.500000 0.998342 0.250000
Si Si5 0.672281 0.288448 0.705322
Si Si6 0.000000 0.829512 0.250000
Si Si7 0.865513 0.840950 0.272286
O O1 0.620070 0.073606 0.195170
O O2 0.746711 0.163473 0.257515
O O3 0.756655 0.150826 0.542312
O O4 0.621058 0.241089 0.206384
O O5 0.279002 0.201741 0.679656
O O6 0.147261 0.158830 0.305398
O O7 0.132867 0.127099 0.565232
O O8 0.264535 0.049848 0.620201
O O9 0.432167 0.053390 0.750441
O O10 0.428550 0.048444 0.032623
O O11 0.580726 0.279179 0.461463
O O12 0.060406 0.877796 0.224512
#
# Coordination Sequence:
#
# PCOD9270329 Si02
#       7
#     8   8   8   4   8   4   8
#     4   9  18  35  56  78 106 145 183 212 263 335
#     4  10  20  36  56  78 108 148 186 214 263 337
#     4  11  21  36  55  79 116 148 175 218 267 322
#     4  10  24  33  48  88 120 139 176 212 266 335
#     4   9  20  36  54  79 107 140 185 228 266 317
#     4  10  20  35  58  80 108 139 180 238 276 299
#     4   9  19  34  56  81 105 141 187 225 264 317
#
# _framework density 22.643321
#
# number of rings (size 3 to 8) (size 9 to 14) (size 15 to 20)
#    0.000    2.333    0.000    3.000    0.000    4.667 
#    0.000    0.000    0.000   16.000    0.000    0.000 
#    0.000    0.000    0.000    0.000    0.000    0.000 
#
# Total GULP energy -133961.383291 kJ/mol
# GULP energy per Si atom -5581.724304 kJ/mol
# Density = 2.259178 g / cm^3
# Si number density = 22.643321 Si / 1000 Ang^3
#
#
#
# Elastic Constant Matrix: (Units=GPa)
#
#
# Indices 1 2 3 4 5 6 
#
# 1 142.2889 5.1650 28.9649 0.0000 -33.2818 0.0000
# 2 5.1650 38.2591 9.0145 0.0000 0.7491 0.0000
# 3 28.9649 9.0145 88.1707 0.0000 -21.4950 0.0000
# 4 0.0000 0.0000 0.0000 6.7501 0.0000 -0.9431
# 5 -33.2818 0.7491 -21.4950 0.0000 42.6080 0.0000
# 6 0.0000 0.0000 0.0000 -0.9431 0.0000 8.0921
#
#
#
# Elastic Compliance Matrix: (Units=1/GPa)
#
#
# Indices 1 2 3 4 5 6 
#
# 1 0.008781 -0.001011 -0.001260 0.000000 0.006241 0.000000
# 2 -0.001011 0.027067 -0.003129 0.000000 -0.002844 0.000000
# 3 -0.001260 -0.003129 0.013510 0.000000 0.005887 0.000000
# 4 0.000000 0.000000 0.000000 0.150598 0.000000 0.017552
# 5 0.006241 -0.002844 0.005887 0.000000 0.031365 0.000000
# 6 0.000000 0.000000 0.000000 0.017552 0.000000 0.125623
#
#
# Mechanical properties :
#
#
# Convention : Reuss Voigt Hill
#
# Bulk Modulus (GPa) = 25.93355 39.44528 32.68941
# Shear Modulus (GPa) = 13.13733 26.52833 19.83283
#
# Velocity S-wave (km/s) = 2.41132 3.42654 2.96274
# Velocity P-wave (km/s) = 4.38526 5.75439 5.11583
#
# Compressibility (1/GPa) = 0.03856009
#
# Stress axis : x y z
#
# Youngs Moduli (GPa) = 113.88338 36.94561 74.01667
#
# Poissons Ratio (x) = 0.03734 0.09324
# Poissons Ratio (y) = 0.11511 0.23156
# Poissons Ratio (z) = 0.14346 0.11558
#
# Static dielectric constant tensor:
#      x y z
#    x 1.895990 0.000000 -0.037270 
#    y 0.000000 1.866340 0.000000 
#    z -0.037270 0.000000 1.866560 
# 
# From -- ./inp_files/56817.got.cif
#   From: 2010.05.17/outbox.cif.g08.bks.cpg/sg15_29_cif.got.tgz:56817.got - 2010.06.03 18:47:42.
