data_PCOD9270410
_publ_section_title
;
Structure prediction by ZEFSAII (Michael W. Deem and Ramdas Pophale) SiO2 
 PCOD9270410
Probable space group: C 2/C
;
_chemical_formula_sum "Si O2"
_cell_formula_units_Z 32
_cell_length_a 13.725429
_cell_length_b 6.801153
_cell_length_c 12.483019
_cell_angle_alpha 90.000000
_cell_angle_beta 92.020681
_cell_angle_gamma 90.000000
_cell_volume 1164.549519
_symmetry_space_group_name_H-M "C 2/C"
_symmetry_group_IT_number 15
_symmetry_cell_setting 'monoclinic'
loop_
_space_group_symop_operation_xyz
x,y,z
-x,y,1/2-z
-x,-y,-z
x,-y,1/2+z
1/2+x,1/2+y,z
1/2-x,1/2+y,1/2-z
1/2-x,1/2-y,-z
1/2+x,1/2-y,1/2+z
loop_
_atom_site_type_symbol
_atom_site_label
_atom_site_fract_x
_atom_site_fract_y
_atom_site_fract_z
Si Si1 0.101971 0.360813 0.794723
Si Si2 0.109945 0.964503 0.707271
Si Si3 0.673661 0.748559 0.402403
Si Si4 0.967351 0.729995 0.986487
O O1 0.077016 0.232811 0.899142
O O2 0.000000 0.456343 0.750000
O O3 0.873404 0.200488 0.795796
O O4 0.164738 0.536637 0.845908
O O5 0.107129 0.817341 0.605227
O O6 0.000000 0.941263 0.750000
O O7 0.816004 0.891160 0.699195
O O8 0.750000 0.750000 0.500000
O O9 0.572028 0.687322 0.456737
O O10 0.000000 0.500000 0.000000
#
# Coordination Sequence:
#
# PCOD9270410 Si02
#       4
#     8   8   8   8
#     4  10  20  36  65  88 118 164 220 255 307 378
#     4   9  19  34  59  86 117 159 215 254 305 371
#     4  10  20  35  58  88 131 159 199 265 320 367
#     4   9  18  37  65  89 119 167 217 257 314 384
#
# _framework density 27.478438000000001
#
# number of rings (size 3 to 8) (size 9 to 14) (size 15 to 20)
#    0.000    2.500    0.000    3.750    0.000   10.000 
#    0.000    0.000   66.000    0.000    0.000    0.000 
#    0.000    0.000    0.000    0.000    0.000    0.000 
#
# Total GULP energy -89395.400027 kJ/mol
# GULP energy per Si atom -5587.212502 kJ/mol
# Density = 2.741590 g / cm^3
# Si number density = 27.478438 Si / 1000 Ang^3
#
#
#
# Elastic Constant Matrix: (Units=GPa)
#
#
# Indices 1 2 3 4 5 6 
#
# 1 58.6232 12.0046 34.0407 0.0000 19.1104 0.0000
# 2 12.0046 185.8285 68.6896 0.0000 23.6710 0.0000
# 3 34.0407 68.6896 219.2852 0.0000 40.0956 0.0000
# 4 0.0000 0.0000 0.0000 66.6702 0.0000 5.5439
# 5 19.1104 23.6710 40.0956 0.0000 66.1102 0.0000
# 6 0.0000 0.0000 0.0000 5.5439 0.0000 27.8403
#
#
#
# Elastic Compliance Matrix: (Units=1/GPa)
#
#
# Indices 1 2 3 4 5 6 
#
# 1 0.019799 0.000134 -0.002317 0.000000 -0.004366 0.000000
# 2 0.000134 0.006166 -0.001734 0.000000 -0.001195 0.000000
# 3 -0.002317 -0.001734 0.005879 0.000000 -0.002275 0.000000
# 4 0.000000 0.000000 0.000000 0.015252 0.000000 -0.003037
# 5 -0.004366 -0.001195 -0.002275 0.000000 0.018196 0.000000
# 6 0.000000 0.000000 0.000000 -0.003037 0.000000 0.036524
#
#
# Mechanical properties :
#
#
# Convention : Reuss Voigt Hill
#
# Bulk Modulus (GPa) = 41.64965 77.02299 59.33632
# Shear Modulus (GPa) = 42.49771 55.39093 48.94432
#
# Velocity S-wave (km/s) = 3.93693 4.49463 4.22499
# Velocity P-wave (km/s) = 5.98799 7.41801 6.74102
#
# Compressibility (1/GPa) = 0.02400980
#
# Stress axis : x y z
#
# Youngs Moduli (GPa) = 50.50646 162.18781 170.09685
#
# Poissons Ratio (x) = -0.02166 0.39413
# Poissons Ratio (y) = -0.00675 0.29488
# Poissons Ratio (z) = 0.11703 0.28117
#
# Static dielectric constant tensor:
#      x y z
#    x 2.314350 0.000000 -0.059590 
#    y 0.000000 2.206830 0.000000 
#    z -0.059590 0.000000 2.129020 
# 
# From -- ./inp_files/93554.got.cif
#   From: 2010.05.17/outbox.cif.g08.bks.cpg/sg15_47_cif.got.tgz:93554.got - 2010.06.03 18:47:42.
