data_PCOD9270082
_publ_section_title
;
Structure prediction by ZEFSAII (Michael W. Deem and Ramdas Pophale) SiO2 
 PCOD9270082
Probable space group: C 2/C
;
_chemical_formula_sum "Si O2"
_cell_formula_units_Z 32
_cell_length_a 14.492745
_cell_length_b 8.207257
_cell_length_c 13.382344
_cell_angle_alpha 90.000000
_cell_angle_beta 118.364700
_cell_angle_gamma 90.000000
_cell_volume 1400.666183
_symmetry_space_group_name_H-M "C 2/C"
_symmetry_group_IT_number 15
_symmetry_cell_setting 'monoclinic'
loop_
_space_group_symop_operation_xyz
x,y,z
-x,y,1/2-z
-x,-y,-z
x,-y,1/2+z
1/2+x,1/2+y,z
1/2-x,1/2+y,1/2-z
1/2-x,1/2-y,-z
1/2+x,1/2-y,1/2+z
loop_
_atom_site_type_symbol
_atom_site_label
_atom_site_fract_x
_atom_site_fract_y
_atom_site_fract_z
Si Si1 0.195884 0.517856 0.470031
Si Si2 0.880501 0.918812 0.789402
Si Si3 0.301045 0.745221 0.688395
Si Si4 0.102602 0.175759 0.435491
O O1 0.228601 0.634189 0.577721
O O2 0.144105 0.625971 0.356967
O O3 0.130879 0.362152 0.471067
O O4 0.304575 0.442949 0.479895
O O5 0.774844 0.841823 0.777459
O O6 0.889849 0.852095 0.680803
O O7 0.984293 0.866486 0.901838
O O8 0.874229 0.114356 0.779516
#
# Coordination Sequence:
#
# PCOD9270082 Si02
#       4
#     8   8   8   8
#     4   9  19  37  57  79 109 141 179 227 275 320
#     4  10  20  35  55  80 110 144 182 221 267 321
#     4  10  20  35  55  80 111 145 179 220 270 324
#     4   9  19  37  57  78 108 144 182 226 272 319
#
# _framework density 22.846273
#
# number of rings (size 3 to 8) (size 9 to 14) (size 15 to 20)
#    0.000    2.500    0.000    1.500    0.000    2.000 
#    0.000   27.500    0.000    0.000    0.000    0.000 
#    0.000    0.000    0.000    0.000    0.000    0.000 
#
# Total GULP energy -89424.443156 kJ/mol
# GULP energy per Si atom -5589.027697 kJ/mol
# Density = 2.279427 g / cm^3
# Si number density = 22.846273 Si / 1000 Ang^3
#
#
#
# Elastic Constant Matrix: (Units=GPa)
#
#
# Indices 1 2 3 4 5 6 
#
# 1 14.1816 2.2133 8.2662 0.0000 6.6409 0.0000
# 2 2.2133 117.9606 23.8456 0.0000 6.9600 0.0000
# 3 8.2662 23.8456 34.1860 0.0000 8.5805 0.0000
# 4 0.0000 0.0000 0.0000 29.2829 0.0000 -7.1142
# 5 6.6409 6.9600 8.5805 0.0000 30.3422 0.0000
# 6 0.0000 0.0000 0.0000 -7.1142 0.0000 8.7302
#
#
#
# Elastic Compliance Matrix: (Units=1/GPa)
#
#
# Indices 1 2 3 4 5 6 
#
# 1 0.088438 0.003240 -0.020020 0.000000 -0.014438 0.000000
# 2 0.003240 0.009991 -0.007534 0.000000 -0.000870 0.000000
# 3 -0.020020 -0.007534 0.040703 0.000000 -0.005401 0.000000
# 4 0.000000 0.000000 0.000000 0.042579 0.000000 0.034698
# 5 -0.014438 -0.000870 -0.005401 0.000000 0.037844 0.000000
# 6 0.000000 0.000000 0.000000 0.034698 0.000000 0.142819
#
#
# Mechanical properties :
#
#
# Convention : Reuss Voigt Hill
#
# Bulk Modulus (GPa) = 11.04931 26.10873 18.57902
# Shear Modulus (GPa) = 11.33346 22.47129 16.90237
#
# Velocity S-wave (km/s) = 2.22969 3.13962 2.72293
# Velocity P-wave (km/s) = 3.38756 4.95941 4.24684
#
# Compressibility (1/GPa) = 0.09050341
#
# Stress axis : x y z
#
# Youngs Moduli (GPa) = 11.30732 100.09086 24.56815
#
# Poissons Ratio (x) = -0.32425 0.49186
# Poissons Ratio (y) = -0.03663 0.18509
# Poissons Ratio (z) = 0.22637 0.75406
#
# Static dielectric constant tensor:
#      x y z
#    x 1.838410 0.000000 0.001430 
#    y 0.000000 1.835820 0.000000 
#    z 0.001430 0.000000 1.920530 
# 
# From -- ./inp_files/140700.got.cif
#   From: 2010.05.17/outbox.cif.g08.bks.cpg/sg15_71_cif.got.tgz:140700.got - 2010.06.03 18:47:42.
