data_PCOD9270875
_publ_section_title
;
Structure prediction by ZEFSAII (Michael W. Deem and Ramdas Pophale) SiO2 
 PCOD9270875
Probable space group: C 2/C
;
_chemical_formula_sum "Si O2"
_cell_formula_units_Z 36
_cell_length_a 17.176958
_cell_length_b 9.040656
_cell_length_c 8.004544
_cell_angle_alpha 90.000000
_cell_angle_beta 89.137484
_cell_angle_gamma 90.000000
_cell_volume 1242.892547
_symmetry_space_group_name_H-M "C 2/C"
_symmetry_group_IT_number 15
_symmetry_cell_setting 'monoclinic'
loop_
_space_group_symop_operation_xyz
x,y,z
-x,y,1/2-z
-x,-y,-z
x,-y,1/2+z
1/2+x,1/2+y,z
1/2-x,1/2+y,1/2-z
1/2-x,1/2-y,-z
1/2+x,1/2-y,1/2+z
loop_
_atom_site_type_symbol
_atom_site_label
_atom_site_fract_x
_atom_site_fract_y
_atom_site_fract_z
Si Si1 0.446323 0.820639 0.591579
Si Si2 0.886170 0.043511 0.430637
Si Si3 0.920500 0.235088 0.104162
Si Si4 0.777481 0.382436 0.623025
Si Si5 0.250000 0.250000 0.500000
O O1 0.500000 0.842726 0.750000
O O2 0.405723 0.656260 0.580179
O O3 0.506060 0.837300 0.434625
O O4 0.367431 0.913936 0.583594
O O5 0.793671 0.000209 0.412138
O O6 0.929835 0.893122 0.462840
O O7 0.912496 0.138535 0.272038
O O8 0.835287 0.292980 0.074275
O O9 0.750000 0.250000 0.500000
O O10 0.772196 0.331520 0.813788
#
# Coordination Sequence:
#
# PCOD9270875 Si02
#       5
#     8   8   8   8   4
#     4  11  19  34  57  83 115 144 183 240 285 337
#     4  10  22  35  55  86 116 151 184 236 295 346
#     4  11  21  35  57  84 114 147 194 236 288 337
#     4   9  20  36  55  78 115 153 184 225 291 345
#     4  10  20  36  54  80 108 154 190 228 280 350
#
# _framework density 28.964691999999999
#
# number of rings (size 3 to 8) (size 9 to 14) (size 15 to 20)
#    0.000    1.778    2.222    2.667    3.111    0.000 
#    0.000    0.000    0.000    1.333    0.000    0.000 
#    0.000    0.000    0.000    0.000    0.000    0.000 
#
# Total GULP energy -100421.473820 kJ/mol
# GULP energy per Si atom -5578.970768 kJ/mol
# Density = 2.889877 g / cm^3
# Si number density = 28.964692 Si / 1000 Ang^3
#
#
#
# Elastic Constant Matrix: (Units=GPa)
#
#
# Indices 1 2 3 4 5 6 
#
# 1 304.2021 41.5901 24.8062 0.0000 -13.4623 0.0000
# 2 41.5901 90.1141 13.6694 0.0000 4.2238 0.0000
# 3 24.8062 13.6694 173.0582 0.0000 -0.6139 0.0000
# 4 0.0000 0.0000 0.0000 22.8291 0.0000 7.7065
# 5 -13.4623 4.2238 -0.6139 0.0000 50.9152 0.0000
# 6 0.0000 0.0000 0.0000 7.7065 0.0000 43.6823
#
#
#
# Elastic Compliance Matrix: (Units=1/GPa)
#
#
# Indices 1 2 3 4 5 6 
#
# 1 0.003592 -0.001651 -0.000381 0.000000 0.001082 0.000000
# 2 -0.001651 0.012036 -0.000719 0.000000 -0.001444 0.000000
# 3 -0.000381 -0.000719 0.005890 0.000000 0.000030 0.000000
# 4 0.000000 0.000000 0.000000 0.046578 0.000000 -0.008217
# 5 0.001082 -0.001444 0.000030 0.000000 0.020047 0.000000
# 6 0.000000 0.000000 0.000000 -0.008217 0.000000 0.024342
#
#
# Mechanical properties :
#
#
# Convention : Reuss Voigt Hill
#
# Bulk Modulus (GPa) = 62.43620 80.83396 71.63508
# Shear Modulus (GPa) = 40.54363 55.97257 48.25810
#
# Velocity S-wave (km/s) = 3.74540 4.40072 4.08622
# Velocity P-wave (km/s) = 6.34876 7.33418 6.85919
#
# Compressibility (1/GPa) = 0.01601635
#
# Stress axis : x y z
#
# Youngs Moduli (GPa) = 278.40414 83.08643 169.78284
#
# Poissons Ratio (x) = 0.13715 0.06463
# Poissons Ratio (y) = 0.45957 0.12210
# Poissons Ratio (z) = 0.10597 0.05975
#
# Static dielectric constant tensor:
#      x y z
#    x 2.280860 0.000000 0.025810 
#    y 0.000000 1.763620 0.000000 
#    z 0.025810 0.000000 2.277250 
# 
# From -- ./inp_files/37573.got.cif
#   From: 2010.05.17/outbox.cif.g08.bks.cpg/sg15_19_cif.got.tgz:37573.got - 2010.06.03 18:47:42.
