data_PCOD9270868
_publ_section_title
;
Structure prediction by ZEFSAII (Michael W. Deem and Ramdas Pophale) SiO2 
 PCOD9270868
Probable space group: C 2/C
;
_chemical_formula_sum "Si O2"
_cell_formula_units_Z 52
_cell_length_a 12.196043
_cell_length_b 13.811692
_cell_length_c 26.539383
_cell_angle_alpha 90.000000
_cell_angle_beta 135.493797
_cell_angle_gamma 90.000000
_cell_volume 3133.764055
_symmetry_space_group_name_H-M "C 2/C"
_symmetry_group_IT_number 15
_symmetry_cell_setting 'monoclinic'
loop_
_space_group_symop_operation_xyz
x,y,z
-x,y,1/2-z
-x,-y,-z
x,-y,1/2+z
1/2+x,1/2+y,z
1/2-x,1/2+y,1/2-z
1/2-x,1/2-y,-z
1/2+x,1/2-y,1/2+z
loop_
_atom_site_type_symbol
_atom_site_label
_atom_site_fract_x
_atom_site_fract_y
_atom_site_fract_z
Si Si1 0.000000 0.681572 0.750000
Si Si2 0.528666 0.088357 0.048374
Si Si3 0.973754 0.080781 0.082449
Si Si4 0.104903 0.130115 0.330152
Si Si5 0.034628 0.802547 0.506818
Si Si6 0.771101 0.068549 0.865604
Si Si7 0.707674 0.954406 0.941253
O O1 0.065711 0.755230 0.813348
O O2 0.149459 0.616554 0.787810
O O3 0.713457 0.105409 0.117410
O O4 0.463749 0.189291 0.004167
O O5 0.438128 0.068569 0.071001
O O6 0.500000 0.000000 0.000000
O O7 0.944813 0.100174 0.130824
O O8 0.998480 0.171892 0.053295
O O9 0.124962 0.014123 0.125035
O O10 0.828538 0.019848 0.012872
O O11 0.000000 0.087882 0.250000
O O12 0.894760 0.854673 0.429474
O O13 0.193192 0.859025 0.542636
O O14 0.678528 0.017526 0.881455
#
# Coordination Sequence:
#
# PCOD9270868 Si02
#       7
#     4   8   8   8   8   8   8
#     4  10  20  36  54  76 108 148 186 218 276 332
#     4  12  21  33  54  87 114 146 182 225 277 331
#     4   9  18  36  56  77 106 139 181 230 268 321
#     4  10  22  36  51  76 117 147 175 222 286 323
#     4   9  18  35  55  80 109 138 183 229 270 313
#     4   9  18  35  58  80  98 143 187 222 267 325
#     4   9  19  33  57  82 107 136 182 231 268 317
#
# _framework density 16.593463
#
# number of rings (size 3 to 8) (size 9 to 14) (size 15 to 20)
#    0.462    1.846    3.077    2.308    0.000    3.077 
#    0.000    0.000    0.000    0.000    8.000    0.000 
#    0.000    0.000    0.000    0.000    0.000    0.000 
#
# Total GULP energy -144734.886609 kJ/mol
# GULP energy per Si atom -5566.726408 kJ/mol
# Density = 1.655570 g / cm^3
# Si number density = 16.593463 Si / 1000 Ang^3
#
#
#
# Elastic Constant Matrix: (Units=GPa)
#
#
# Indices 1 2 3 4 5 6 
#
# 1 140.5755 38.9649 47.1126 0.0000 -10.1921 0.0000
# 2 38.9649 90.1331 19.0155 0.0000 0.7880 0.0000
# 3 47.1126 19.0155 60.4435 0.0000 10.1484 0.0000
# 4 0.0000 0.0000 0.0000 10.4733 0.0000 1.4733
# 5 -10.1921 0.7880 10.1484 0.0000 22.5095 0.0000
# 6 0.0000 0.0000 0.0000 1.4733 0.0000 6.2021
#
#
#
# Elastic Compliance Matrix: (Units=1/GPa)
#
#
# Indices 1 2 3 4 5 6 
#
# 1 0.012150 -0.003194 -0.010178 0.000000 0.010202 0.000000
# 2 -0.003194 0.012763 -0.001306 0.000000 -0.001304 0.000000
# 3 -0.010178 -0.001306 0.027756 0.000000 -0.017077 0.000000
# 4 0.000000 0.000000 0.000000 0.098782 0.000000 -0.023465
# 5 0.010202 -0.001304 -0.017077 0.000000 0.056790 0.000000
# 6 0.000000 0.000000 0.000000 -0.023465 0.000000 0.166809
#
#
# Mechanical properties :
#
#
# Convention : Reuss Voigt Hill
#
# Bulk Modulus (GPa) = 42.89880 55.70425 49.30152
# Shear Modulus (GPa) = 12.13074 20.24093 16.18584
#
# Velocity S-wave (km/s) = 2.70674 3.49637 3.12658
# Velocity P-wave (km/s) = 5.97307 7.06699 6.54293
#
# Compressibility (1/GPa) = 0.02331068
#
# Stress axis : x y z
#
# Youngs Moduli (GPa) = 82.30608 78.35384 36.02853
#
# Poissons Ratio (x) = 0.25029 0.36670
# Poissons Ratio (y) = 0.26291 0.04707
# Poissons Ratio (z) = 0.83772 0.10236
#
# Static dielectric constant tensor:
#      x y z
#    x 1.552030 0.000000 0.006650 
#    y 0.000000 1.579680 0.000000 
#    z 0.006650 0.000000 1.547040 
# 
# From -- ./inp_files/197281.got.cif
#   From: 2010.05.17/outbox.cif.g08.bks.cpg/sg15_99_cif.got.tgz:197281.got - 2010.06.03 18:47:42.
