data_PCOD9270500
_publ_section_title
;
Structure prediction by ZEFSAII (Michael W. Deem and Ramdas Pophale) SiO2 
 PCOD9270500
Probable space group: C 2/C
;
_chemical_formula_sum "Si O2"
_cell_formula_units_Z 60
_cell_length_a 20.779598
_cell_length_b 7.845418
_cell_length_c 24.361213
_cell_angle_alpha 90.000000
_cell_angle_beta 43.616514
_cell_angle_gamma 90.000000
_cell_volume 2739.637528
_symmetry_space_group_name_H-M "C 2/C"
_symmetry_group_IT_number 15
_symmetry_cell_setting 'monoclinic'
loop_
_space_group_symop_operation_xyz
x,y,z
-x,y,1/2-z
-x,-y,-z
x,-y,1/2+z
1/2+x,1/2+y,z
1/2-x,1/2+y,1/2-z
1/2-x,1/2-y,-z
1/2+x,1/2-y,1/2+z
loop_
_atom_site_type_symbol
_atom_site_label
_atom_site_fract_x
_atom_site_fract_y
_atom_site_fract_z
Si Si1 0.876060 0.293741 0.729734
Si Si2 0.038396 0.650407 0.826898
Si Si3 0.191921 0.050242 0.649788
Si Si4 0.227325 0.220440 0.223249
Si Si5 0.109618 0.511849 0.502394
Si Si6 0.978068 0.137246 0.936260
Si Si7 0.500000 0.395630 0.750000
Si Si8 0.873987 0.865528 0.063409
O O1 0.923963 0.469156 0.714709
O O2 0.803782 0.308082 0.723221
O O3 0.962069 0.168672 0.656766
O O4 0.820129 0.234343 0.817239
O O5 0.125892 0.724313 0.808118
O O6 0.019510 0.777924 0.789947
O O7 0.944789 0.605475 0.915916
O O8 0.209630 0.941296 0.695041
O O9 0.094681 0.999657 0.682991
O O10 0.281048 0.021752 0.557261
O O11 0.270670 0.359393 0.153620
O O12 0.062984 0.325479 0.522962
O O13 0.104654 0.663713 0.460429
O O14 0.059260 0.083890 0.928048
O O15 0.900005 0.990653 0.996483
#
# Coordination Sequence:
#
# PCOD9270500 Si02
#       8
#     8   8   8   8   8   8   4   8
#     4  10  20  35  59  89 123 151 196 245 297 358
#     4  10  22  39  62  85 119 160 198 252 298 364
#     4  10  22  39  62  88 119 157 201 251 293 366
#     4   9  19  35  55  92 121 159 194 229 304 364
#     4  10  21  37  58  87 117 158 203 248 304 347
#     4   9  19  32  52  87 122 159 196 231 292 366
#     4  10  24  44  62  84 110 158 212 240 316 364
#     4   9  18  32  53  82 127 162 189 237 290 356
#
# _framework density 21.900707000000001
#
# number of rings (size 3 to 8) (size 9 to 14) (size 15 to 20)
#    0.000    2.400    0.000    1.200    5.600    4.267 
#    0.000    0.000    0.000    2.400    0.000    0.000 
#    0.000    0.000    0.000    0.000    0.000    0.000 
#
# Total GULP energy -167135.245994 kJ/mol
# GULP energy per Si atom -5571.174866 kJ/mol
# Density = 2.185086 g / cm^3
# Si number density = 21.900707 Si / 1000 Ang^3
#
#
#
# Elastic Constant Matrix: (Units=GPa)
#
#
# Indices 1 2 3 4 5 6 
#
# 1 65.1181 7.0533 25.0591 0.0000 -21.7484 0.0003
# 2 7.0533 60.1853 10.4892 -0.0001 -1.1872 0.0013
# 3 25.0591 10.4892 98.8259 -0.0005 -35.3122 0.0016
# 4 0.0000 -0.0001 -0.0005 38.3775 -0.0001 -2.6128
# 5 -21.7484 -1.1872 -35.3122 -0.0001 18.6001 0.0003
# 6 0.0003 0.0013 0.0016 -2.6128 0.0003 -7.9653
#
#
#
# Elastic Compliance Matrix: (Units=1/GPa)
#
#
# Indices 1 2 3 4 5 6 
#
# 1 0.033646 -0.005728 0.018664 0.000001 0.074410 0.000007
# 2 -0.005728 0.018224 -0.007646 0.000000 -0.020052 0.000000
# 3 0.018664 -0.007646 0.042972 0.000002 0.102917 0.000012
# 4 0.000001 0.000000 0.000002 0.025488 0.000004 -0.008361
# 5 0.074410 -0.020052 0.102917 0.000004 0.334877 0.000032
# 6 0.000007 0.000000 0.000012 -0.008361 0.000032 -0.122802
#
#
# Mechanical properties :
#
#
# Convention : Reuss Voigt Hill
#
# Bulk Modulus (GPa) = 9.48576 34.37029 21.92802
# Shear Modulus (GPa) = 14.00693 21.90430 17.95562
#
# Velocity S-wave (km/s) = 2.53171 3.16597 2.86643
# Velocity P-wave (km/s) = 3.58981 5.39372 4.58143
#
# Compressibility (1/GPa) = 0.10542120
#
# Stress axis : x y z
#
# Youngs Moduli (GPa) = 29.72084 54.87333 23.27103
#
# Poissons Ratio (x) = 0.31433 -0.43434
# Poissons Ratio (y) = 0.17025 0.17794
# Poissons Ratio (z) = -0.55472 0.41959
#
# Static dielectric constant tensor:
#      x y z
#    x 1.765960 0.000000 -0.014980 
#    y 0.000000 1.882060 0.000000 
#    z -0.014980 0.000000 1.939940 
# 
# From -- ./inp_files/279668.got.cif
#   From: 2010.05.17/outbox.cif.g08.bks.cpg/sg15_140_cif.got.tgz:279668.got - 2010.06.03 18:47:42.
