data_PCOD9270002
_publ_section_title
;
Structure prediction by ZEFSAII (Michael W. Deem and Ramdas Pophale) SiO2 
 PCOD9270002
Probable space group: C 2/C
;
_chemical_formula_sum "Si O2"
_cell_formula_units_Z 44
_cell_length_a 12.291616
_cell_length_b 21.107139
_cell_length_c 11.478204
_cell_angle_alpha 90.000000
_cell_angle_beta 51.578881
_cell_angle_gamma 90.000000
_cell_volume 2333.090521
_symmetry_space_group_name_H-M "C 2/C"
_symmetry_group_IT_number 15
_symmetry_cell_setting 'monoclinic'
loop_
_space_group_symop_operation_xyz
x,y,z
-x,y,1/2-z
-x,-y,-z
x,-y,1/2+z
1/2+x,1/2+y,z
1/2-x,1/2+y,1/2-z
1/2-x,1/2-y,-z
1/2+x,1/2-y,1/2+z
loop_
_atom_site_type_symbol
_atom_site_label
_atom_site_fract_x
_atom_site_fract_y
_atom_site_fract_z
Si Si1 0.586348 0.754749 0.073847
Si Si2 0.917039 0.400392 0.472992
Si Si3 0.529907 0.366404 0.462876
Si Si4 0.334267 0.459022 0.725542
Si Si5 0.000000 0.935032 0.250000
Si Si6 0.804874 0.435519 0.294124
O O1 0.500000 0.745750 0.250000
O O2 0.561546 0.825265 0.042878
O O3 0.750000 0.750000 0.000000
O O4 0.532320 0.703422 0.015862
O O5 0.795531 0.420276 0.639980
O O6 0.860551 0.419811 0.383772
O O7 0.067013 0.433813 0.381041
O O8 0.458759 0.413101 0.605350
O O9 0.464589 0.388958 0.382908
O O10 0.691763 0.382786 0.340381
O O11 0.384943 0.514845 0.778910
O O12 0.276491 0.498556 0.654668
#
# Coordination Sequence:
#
# PCOD9270002 Si02
#       6
#     8   8   8   8   4   8
#     4  12  22  37  60  87 121 153 201 252 289 352
#     4  11  20  36  56  85 119 151 195 245 301 343
#     4  11  22  37  60  87 117 160 200 244 298 345
#     4  11  21  35  61  87 118 152 199 242 296 358
#     4  10  22  38  58  88 124 152 196 250 294 354
#     4  10  20  35  53  84 118 154 185 243 302 343
#
# _framework density 18.859106000000001
#
# number of rings (size 3 to 8) (size 9 to 14) (size 15 to 20)
#    0.000    1.091    3.636    6.000    1.273    0.000 
#    0.000    0.000    0.000   21.818    0.000    0.000 
#    0.000    0.000    0.000    0.000    0.000    0.000 
#
# Total GULP energy -122631.880758 kJ/mol
# GULP energy per Si atom -5574.176398 kJ/mol
# Density = 1.881618 g / cm^3
# Si number density = 18.859106 Si / 1000 Ang^3
#
#
#
# Elastic Constant Matrix: (Units=GPa)
#
#
# Indices 1 2 3 4 5 6 
#
# 1 51.3065 43.8720 19.6468 0.0000 -6.1793 0.0000
# 2 43.8720 101.4894 30.5198 0.0000 9.9582 0.0000
# 3 19.6468 30.5198 90.6486 0.0000 -7.2422 0.0000
# 4 0.0000 0.0000 0.0000 25.3775 0.0000 -3.8859
# 5 -6.1793 9.9582 -7.2422 0.0000 31.7998 0.0000
# 6 0.0000 0.0000 0.0000 -3.8859 0.0000 16.8185
#
#
#
# Elastic Compliance Matrix: (Units=1/GPa)
#
#
# Indices 1 2 3 4 5 6 
#
# 1 0.034889 -0.015804 -0.001328 0.000000 0.011426 0.000000
# 2 -0.015804 0.018747 -0.003668 0.000000 -0.009777 0.000000
# 3 -0.001328 -0.003668 0.012859 0.000000 0.003819 0.000000
# 4 0.000000 0.000000 0.000000 0.040850 0.000000 0.009438
# 5 0.011426 -0.009777 0.003819 0.000000 0.037599 0.000000
# 6 0.000000 0.000000 0.000000 0.009438 0.000000 0.061639
#
#
# Mechanical properties :
#
#
# Convention : Reuss Voigt Hill
#
# Bulk Modulus (GPa) = 40.16583 47.94685 44.05634
# Shear Modulus (GPa) = 19.49464 24.75957 22.12711
#
# Velocity S-wave (km/s) = 3.21861 3.62729 3.42904
# Velocity P-wave (km/s) = 5.92930 6.55910 6.25214
#
# Compressibility (1/GPa) = 0.02489679
#
# Stress axis : x y z
#
# Youngs Moduli (GPa) = 28.66236 53.34158 77.76394
#
# Poissons Ratio (x) = 0.84299 0.10327
# Poissons Ratio (y) = 0.45297 0.28522
# Poissons Ratio (z) = 0.03806 0.19564
#
# Static dielectric constant tensor:
#      x y z
#    x 1.689490 0.000000 0.030350 
#    y 0.000000 1.658450 0.000000 
#    z 0.030350 0.000000 0.904730 
# 
# From -- ./inp_files/88735.got.cif
#   From: 2010.05.17/outbox.cif.g08.bks.cpg/sg15_45_cif.got.tgz:88735.got - 2010.06.03 18:47:42.
