data_PCOD9270565
_publ_section_title
;
Structure prediction by ZEFSAII (Michael W. Deem and Ramdas Pophale) SiO2 
 PCOD9270565
Probable space group: C 2/C
;
_chemical_formula_sum "Si O2"
_cell_formula_units_Z 64
_cell_length_a 15.180862
_cell_length_b 7.902096
_cell_length_c 25.441143
_cell_angle_alpha 90.000000
_cell_angle_beta 72.057450
_cell_angle_gamma 90.000000
_cell_volume 2903.507337
_symmetry_space_group_name_H-M "C 2/C"
_symmetry_group_IT_number 15
_symmetry_cell_setting 'monoclinic'
loop_
_space_group_symop_operation_xyz
x,y,z
-x,y,1/2-z
-x,-y,-z
x,-y,1/2+z
1/2+x,1/2+y,z
1/2-x,1/2+y,1/2-z
1/2-x,1/2-y,-z
1/2+x,1/2-y,1/2+z
loop_
_atom_site_type_symbol
_atom_site_label
_atom_site_fract_x
_atom_site_fract_y
_atom_site_fract_z
Si Si1 0.760695 0.053517 0.883867
Si Si2 0.758736 0.335329 0.384769
Si Si3 0.248769 0.475240 0.512951
Si Si4 0.557777 0.429450 0.398244
Si Si5 0.415975 0.779552 0.990925
Si Si6 0.961426 0.349789 0.313930
Si Si7 0.461611 0.435254 0.312171
Si Si8 0.933515 0.682448 0.601294
O O1 0.748594 0.858897 0.870112
O O2 0.858093 0.118075 0.845202
O O3 0.677140 0.160862 0.875386
O O4 0.763297 0.034991 0.947243
O O5 0.755802 0.362040 0.448758
O O6 0.667176 0.424355 0.381698
O O7 0.855445 0.400417 0.344213
O O8 0.336071 0.363887 0.518033
O O9 0.145480 0.395279 0.536484
O O10 0.503229 0.313364 0.449534
O O11 0.526092 0.373277 0.346909
O O12 0.529403 0.625358 0.409341
O O13 0.445698 0.876455 0.038652
O O14 0.020145 0.396074 0.355520
O O15 0.000000 0.406453 0.250000
O O16 0.962601 0.142237 0.312112
O O17 0.500000 0.376184 0.250000
#
# Coordination Sequence:
#
# PCOD9270565 Si02
#       8
#     8   8   8   8   8   8   8   8
#     4  10  21  38  57  87 122 154 193 250 303 364
#     4  11  23  35  59  89 120 151 197 251 303 359
#     4  10  20  36  58  88 122 158 192 243 306 360
#     4  11  21  35  60  88 118 151 204 248 296 363
#     4  10  20  35  60  89 120 155 200 247 296 362
#     4   9  21  41  59  80 117 159 200 246 304 364
#     4   9  19  37  60  82 111 158 206 247 296 363
#     4  10  21  37  62  84 112 163 199 234 302 368
#
# _framework density 22.042307999999998
#
# number of rings (size 3 to 8) (size 9 to 14) (size 15 to 20)
#    0.000    2.000    2.500    0.750    0.000    3.000 
#    0.000    2.500    0.000    3.750    0.000    0.000 
#    0.000    0.000    0.000    0.000    0.000    0.000 
#
# Total GULP energy -178456.042942 kJ/mol
# GULP energy per Si atom -5576.751342 kJ/mol
# Density = 2.199214 g / cm^3
# Si number density = 22.042308 Si / 1000 Ang^3
#
#
#
# Elastic Constant Matrix: (Units=GPa)
#
#
# Indices 1 2 3 4 5 6 
#
# 1 146.5630 11.3656 89.5077 0.0000 -3.9004 0.0000
# 2 11.3656 20.7849 9.8081 0.0000 0.3362 0.0000
# 3 89.5077 9.8081 138.6353 0.0000 -9.2879 0.0000
# 4 0.0000 0.0000 0.0000 7.9324 0.0000 -11.2658
# 5 -3.9004 0.3362 -9.2879 0.0000 27.6097 0.0000
# 6 0.0000 0.0000 0.0000 -11.2658 0.0000 16.0632
#
#
#
# Elastic Compliance Matrix: (Units=1/GPa)
#
#
# Indices 1 2 3 4 5 6 
#
# 1 0.011443 -0.002828 -0.007241 0.000001 -0.000785 0.000001
# 2 -0.002828 0.050563 -0.001861 0.000008 -0.001641 0.000006
# 3 -0.007241 -0.001861 0.012228 -0.000003 0.003113 -0.000002
# 4 0.000001 0.000008 -0.000003 31.917906 -0.000003 22.385250
# 5 -0.000785 -0.001641 0.003113 -0.000003 0.037176 -0.000002
# 6 0.000001 0.000006 -0.000002 22.385250 -0.000002 15.761887
#
#
# Mechanical properties :
#
#
# Convention : Reuss Voigt Hill
#
# Bulk Modulus (GPa) = 19.85123 58.59400 39.22261
# Shear Modulus (GPa) = 0.10453 23.34119 11.72286
#
# Velocity S-wave (km/s) = 0.21801 3.25765 2.30866
# Velocity P-wave (km/s) = 3.01478 6.38670 4.99394
#
# Compressibility (1/GPa) = 0.05037472
#
# Stress axis : x y z
#
# Youngs Moduli (GPa) = 87.38615 19.77724 81.77721
#
# Poissons Ratio (x) = 0.05593 0.59213
# Poissons Ratio (y) = 0.24713 0.15221
# Poissons Ratio (z) = 0.63275 0.03681
#
# Static dielectric constant tensor:
#      x y z
#    x 1.814390 0.000000 -0.003350 
#    y 0.000000 1.871780 0.000000 
#    z -0.003350 0.000000 1.815760 
# 
# From -- ./inp_files/295129.got.cif
#   From: 2010.05.17/outbox.cif.g08.bks.cpg/sg15_148_cif.got.tgz:295129.got - 2010.06.03 18:47:42.
