data_PCOD9270355
_publ_section_title
;
Structure prediction by ZEFSAII (Michael W. Deem and Ramdas Pophale) SiO2 
 PCOD9270355
Probable space group: C 2/C
;
_chemical_formula_sum "Si O2"
_cell_formula_units_Z 60
_cell_length_a 26.272213
_cell_length_b 8.770680
_cell_length_c 15.345237
_cell_angle_alpha 90.000000
_cell_angle_beta 136.405354
_cell_angle_gamma 90.000000
_cell_volume 2438.206382
_symmetry_space_group_name_H-M "C 2/C"
_symmetry_group_IT_number 15
_symmetry_cell_setting 'monoclinic'
loop_
_space_group_symop_operation_xyz
x,y,z
-x,y,1/2-z
-x,-y,-z
x,-y,1/2+z
1/2+x,1/2+y,z
1/2-x,1/2+y,1/2-z
1/2-x,1/2-y,-z
1/2+x,1/2-y,1/2+z
loop_
_atom_site_type_symbol
_atom_site_label
_atom_site_fract_x
_atom_site_fract_y
_atom_site_fract_z
Si Si1 0.434619 0.213579 0.280744
Si Si2 0.375773 0.796388 0.350033
Si Si3 0.509859 0.120282 0.631480
Si Si4 0.755337 0.631992 0.367609
Si Si5 0.393519 0.269362 0.597480
Si Si6 0.823011 0.301715 0.480502
Si Si7 0.000000 0.959360 0.250000
Si Si8 0.191951 0.628032 0.263599
O O1 0.482093 0.357654 0.311713
O O2 0.378125 0.224356 0.290818
O O3 0.481766 0.059711 0.348945
O O4 0.380582 0.191962 0.129851
O O5 0.459070 0.815706 0.420389
O O6 0.331342 0.665204 0.243437
O O7 0.364021 0.782557 0.438397
O O8 0.335117 0.953748 0.270434
O O9 0.430168 0.178867 0.561036
O O10 0.568037 0.187574 0.773259
O O11 0.806662 0.745806 0.487000
O O12 0.778460 0.461282 0.420318
O O13 0.780311 0.663656 0.298752
O O14 0.428899 0.436014 0.641881
O O15 0.761808 0.168545 0.410816
#
# Coordination Sequence:
#
# PCOD9270355 Si02
#       8
#     8   8   8   8   8   8   4   8
#     4  11  20  38  57  82 112 150 185 227 284 330
#     4   9  20  37  57  86 113 143 190 232 272 329
#     4   9  19  38  59  79 112 145 190 229 269 337
#     4  10  20  38  60  83 114 149 186 230 279 325
#     4  10  21  39  58  81 111 149 187 232 277 329
#     4  10  20  35  58  84 111 148 182 228 285 326
#     4  10  24  36  56  80 112 146 186 236 276 330
#     4   9  21  38  56  86 115 143 184 236 272 338
#
# _framework density 24.608255
#
# number of rings (size 3 to 8) (size 9 to 14) (size 15 to 20)
#    0.000    2.400    1.333    1.200    1.867    2.667 
#    2.400    2.667    0.000    0.000    0.000    0.000 
#    0.000    0.000    0.000    0.000    0.000    0.000 
#
# Total GULP energy -167959.905459 kJ/mol
# GULP energy per Si atom -5598.663515 kJ/mol
# Density = 2.455225 g / cm^3
# Si number density = 24.608255 Si / 1000 Ang^3
#
#
#
# Elastic Constant Matrix: (Units=GPa)
#
#
# Indices 1 2 3 4 5 6 
#
# 1 91.1821 20.6807 8.9585 0.0000 3.0433 0.0000
# 2 20.6807 62.0051 9.8510 0.0000 2.9643 0.0000
# 3 8.9585 9.8510 83.3784 0.0000 5.0898 0.0000
# 4 0.0000 0.0000 0.0000 8.4451 0.0000 8.1684
# 5 3.0433 2.9643 5.0898 0.0000 26.7047 0.0000
# 6 0.0000 0.0000 0.0000 8.1684 0.0000 29.5261
#
#
#
# Elastic Compliance Matrix: (Units=1/GPa)
#
#
# Indices 1 2 3 4 5 6 
#
# 1 0.011936 -0.003819 -0.000783 0.000000 -0.000787 0.000000
# 2 -0.003819 0.017716 -0.001608 0.000000 -0.001225 0.000000
# 3 -0.000783 -0.001608 0.012396 0.000000 -0.002095 0.000000
# 4 0.000000 0.000000 0.000000 0.161673 0.000000 -0.044727
# 5 -0.000787 -0.001225 -0.002095 0.000000 0.038072 0.000000
# 6 0.000000 0.000000 0.000000 -0.044727 0.000000 0.046242
#
#
# Mechanical properties :
#
#
# Convention : Reuss Voigt Hill
#
# Bulk Modulus (GPa) = 33.75309 35.06065 34.40687
# Shear Modulus (GPa) = 16.11187 26.07353 21.09270
#
# Velocity S-wave (km/s) = 2.56155 3.25860 2.93087
# Velocity P-wave (km/s) = 4.74286 5.33258 5.04634
#
# Compressibility (1/GPa) = 0.02962692
#
# Stress axis : x y z
#
# Youngs Moduli (GPa) = 83.77670 56.44761 80.67432
#
# Poissons Ratio (x) = 0.21558 0.06319
# Poissons Ratio (y) = 0.31996 0.12972
# Poissons Ratio (z) = 0.06562 0.09076
#
# Static dielectric constant tensor:
#      x y z
#    x 2.007200 0.000000 -0.009810 
#    y 0.000000 1.933050 0.000000 
#    z -0.009810 0.000000 1.961400 
# 
# From -- ./inp_files/221906.got.cif
#   From: 2010.05.17/outbox.cif.g08.bks.cpg/sg15_111_cif.got.tgz:221906.got - 2010.06.03 18:47:42.
