data_PCOD9270911
_publ_section_title
;
Structure prediction by ZEFSAII (Michael W. Deem and Ramdas Pophale) SiO2 
 PCOD9270911
Probable space group: C 2/C
;
_chemical_formula_sum "Si O2"
_cell_formula_units_Z 40
_cell_length_a 9.552469
_cell_length_b 20.375228
_cell_length_c 15.031631
_cell_angle_alpha 90.000000
_cell_angle_beta 40.859257
_cell_angle_gamma 90.000000
_cell_volume 1913.977635
_symmetry_space_group_name_H-M "C 2/C"
_symmetry_group_IT_number 15
_symmetry_cell_setting 'monoclinic'
loop_
_space_group_symop_operation_xyz
x,y,z
-x,y,1/2-z
-x,-y,-z
x,-y,1/2+z
1/2+x,1/2+y,z
1/2-x,1/2+y,1/2-z
1/2-x,1/2-y,-z
1/2+x,1/2-y,1/2+z
loop_
_atom_site_type_symbol
_atom_site_label
_atom_site_fract_x
_atom_site_fract_y
_atom_site_fract_z
Si Si1 0.969579 0.804334 0.158951
Si Si2 0.703193 0.570287 0.829958
Si Si3 0.943160 0.340641 0.877400
Si Si4 0.686321 0.954389 0.838313
Si Si5 0.367125 0.467190 0.943821
O O1 0.930119 0.727157 0.163678
O O2 0.000000 0.813929 0.250000
O O3 0.798910 0.856146 0.204440
O O4 0.195537 0.821619 0.004452
O O5 0.846249 0.519736 0.704915
O O6 0.465821 0.538179 0.924315
O O7 0.734809 0.564049 0.919818
O O8 0.000000 0.361732 0.750000
O O9 0.011532 0.399107 0.908721
O O10 0.735243 0.971660 0.916588
O O11 0.913423 0.928784 0.688026
#
# Coordination Sequence:
#
# PCOD9270911 Si02
#       5
#     8   8   8   8   8
#     4  10  20  36  55  78 113 144 180 226 289 319
#     4   9  16  32  55  74 109 145 175 222 277 328
#     4  10  21  34  56  84 105 144 189 231 265 336
#     4   9  16  32  53  81 107 138 189 224 269 329
#     4   8  16  28  56  81 104 144 177 222 281 321
#
# _framework density 20.898885
#
# number of rings (size 3 to 8) (size 9 to 14) (size 15 to 20)
#    1.200    1.600    0.000    2.400    0.000    0.000 
#    0.000    5.000    0.000    0.000    0.000    0.000 
#    0.000    0.000    0.000    0.000    0.000    0.000 
#
# Total GULP energy -111552.287295 kJ/mol
# GULP energy per Si atom -5577.614365 kJ/mol
# Density = 2.085132 g / cm^3
# Si number density = 20.898885 Si / 1000 Ang^3
#
#
#
# Elastic Constant Matrix: (Units=GPa)
#
#
# Indices 1 2 3 4 5 6 
#
# 1 97.9662 44.1184 27.5672 -0.0002 28.2492 0.0002
# 2 44.1184 111.2290 -2.3861 0.0001 12.4759 0.0001
# 3 27.5672 -2.3861 83.6369 -0.0017 23.0387 0.0009
# 4 -0.0002 0.0001 -0.0017 17.3575 0.0008 1.5518
# 5 28.2492 12.4759 23.0387 0.0008 30.3361 -0.0002
# 6 0.0002 0.0001 0.0009 1.5518 -0.0002 25.1847
#
#
#
# Elastic Compliance Matrix: (Units=1/GPa)
#
#
# Indices 1 2 3 4 5 6 
#
# 1 0.016601 -0.005364 -0.002496 0.000001 -0.011357 0.000000
# 2 -0.005364 0.011351 0.002531 0.000000 -0.001596 0.000000
# 3 -0.002496 0.002531 0.015804 0.000002 -0.010719 -0.000001
# 4 0.000001 0.000000 0.000002 0.057931 -0.000004 -0.003569
# 5 -0.011357 -0.001596 -0.010719 -0.000004 0.052336 0.000001
# 6 0.000000 0.000000 -0.000001 -0.003569 0.000001 0.039927
#
#
# Mechanical properties :
#
#
# Convention : Reuss Voigt Hill
#
# Bulk Modulus (GPa) = 30.21347 47.93680 39.07513
# Shear Modulus (GPa) = 23.18668 29.47781 26.33225
#
# Velocity S-wave (km/s) = 3.33448 3.75973 3.55348
# Velocity P-wave (km/s) = 5.41419 6.46798 5.96440
#
# Compressibility (1/GPa) = 0.03309782
#
# Stress axis : x y z
#
# Youngs Moduli (GPa) = 60.23877 88.09443 63.27458
#
# Poissons Ratio (x) = 0.47256 0.15796
# Poissons Ratio (y) = 0.32314 -0.16018
# Poissons Ratio (z) = 0.15038 -0.22301
#
# Static dielectric constant tensor:
#      x y z
#    x 1.769620 0.000000 -0.058120 
#    y 0.000000 1.740610 0.000000 
#    z -0.058120 0.000000 1.810860 
# 
# From -- ./inp_files/135773.got.cif
#   From: 2010.05.17/outbox.cif.g08.bks.cpg/sg15_68_cif.got.tgz:135773.got - 2010.06.03 18:47:42.
