data_PCOD9270591
_publ_section_title
;
Structure prediction by ZEFSAII (Michael W. Deem and Ramdas Pophale) SiO2 
 PCOD9270591
Probable space group: C 2/C
;
_chemical_formula_sum "Si O2"
_cell_formula_units_Z 52
_cell_length_a 10.535663
_cell_length_b 25.206972
_cell_length_c 13.877185
_cell_angle_alpha 90.000000
_cell_angle_beta 43.638058
_cell_angle_gamma 90.000000
_cell_volume 2543.291942
_symmetry_space_group_name_H-M "C 2/C"
_symmetry_group_IT_number 15
_symmetry_cell_setting 'monoclinic'
loop_
_space_group_symop_operation_xyz
x,y,z
-x,y,1/2-z
-x,-y,-z
x,-y,1/2+z
1/2+x,1/2+y,z
1/2-x,1/2+y,1/2-z
1/2-x,1/2-y,-z
1/2+x,1/2-y,1/2+z
loop_
_atom_site_type_symbol
_atom_site_label
_atom_site_fract_x
_atom_site_fract_y
_atom_site_fract_z
Si Si1 0.500000 0.489812 0.250000
Si Si2 0.056903 0.642569 0.825778
Si Si3 0.290185 0.422590 0.968542
Si Si4 0.934218 0.914617 0.103304
Si Si5 0.954942 0.247152 0.428948
Si Si6 0.872012 0.187830 0.006492
Si Si7 0.000000 0.251831 0.750000
Si Si8 0.500000 0.327454 0.750000
O O1 0.662319 0.529836 0.128981
O O2 0.456230 0.455777 0.178523
O O3 0.261397 0.622576 0.723600
O O4 0.000000 0.662669 0.750000
O O5 0.022231 0.693483 0.910774
O O6 0.923412 0.592042 0.910315
O O7 0.374943 0.367735 0.879598
O O8 0.379923 0.433904 0.024647
O O9 0.109650 0.875589 0.002537
O O10 0.750000 0.250000 0.500000
O O11 0.078781 0.213850 0.284677
O O12 0.967304 0.211507 0.515122
O O13 0.679818 0.209611 0.155887
O O14 0.925798 0.212728 0.874424
#
# Coordination Sequence:
#
# PCOD9270591 Si02
#       8
#     4   8   8   8   8   8   4   4
#     4  11  25  42  64  78 116 164 217 267 318 360
#     4  10  20  35  60  94 127 153 195 244 317 386
#     4  10  22  40  61  89 120 155 202 263 316 379
#     4  11  22  40  64  87 117 162 206 262 314 364
#     4  12  21  32  60  99 133 159 189 249 321 382
#     4  11  23  41  64  91 134 176 213 251 301 380
#     4  10  25  42  59  90 135 184 219 238 290 380
#     4  11  20  34  57  98 127 156 188 239 324 386
#
# _framework density 20.445943
#
# number of rings (size 3 to 8) (size 9 to 14) (size 15 to 20)
#    0.000    1.231    3.846    2.769    2.154    1.846 
#    0.000    0.000    8.462    0.000    0.000    0.000 
#    0.000    0.000    0.000    0.000    0.000    0.000 
#
# Total GULP energy -144929.801001 kJ/mol
# GULP energy per Si atom -5574.223115 kJ/mol
# Density = 2.039941 g / cm^3
# Si number density = 20.445943 Si / 1000 Ang^3
#
#
#
# Elastic Constant Matrix: (Units=GPa)
#
#
# Indices 1 2 3 4 5 6 
#
# 1 49.6007 29.4281 21.6242 0.0000 0.7473 0.0000
# 2 29.4281 101.3817 22.4845 0.0000 5.4075 0.0000
# 3 21.6242 22.4845 65.1284 0.0000 -2.4545 0.0000
# 4 0.0000 0.0000 0.0000 45.3667 0.0000 15.0183
# 5 0.7473 5.4075 -2.4545 0.0000 30.9068 0.0000
# 6 0.0000 0.0000 0.0000 15.0183 0.0000 19.4595
#
#
#
# Elastic Compliance Matrix: (Units=1/GPa)
#
#
# Indices 1 2 3 4 5 6 
#
# 1 0.026832 -0.006289 -0.006741 0.000000 -0.000084 0.000000
# 2 -0.006289 0.012303 -0.002241 0.000000 -0.002178 0.000000
# 3 -0.006741 -0.002241 0.018442 0.000000 0.002020 0.000000
# 4 0.000000 0.000000 0.000000 0.029607 0.000000 -0.022850
# 5 -0.000084 -0.002178 0.002020 0.000000 0.032899 0.000000
# 6 0.000000 0.000000 0.000000 -0.022850 0.000000 0.069024
#
#
# Mechanical properties :
#
#
# Convention : Reuss Voigt Hill
#
# Bulk Modulus (GPa) = 36.98955 40.35382 38.67168
# Shear Modulus (GPa) = 21.86647 28.65154 25.25901
#
# Velocity S-wave (km/s) = 3.27383 3.74750 3.51864
# Velocity P-wave (km/s) = 5.69397 6.20521 5.95508
#
# Compressibility (1/GPa) = 0.02703466
#
# Stress axis : x y z
#
# Youngs Moduli (GPa) = 37.26833 81.28420 54.22322
#
# Poissons Ratio (x) = 0.51121 0.36551
# Poissons Ratio (y) = 0.23439 0.12152
# Poissons Ratio (z) = 0.25122 0.18217
#
# Static dielectric constant tensor:
#      x y z
#    x 1.742620 0.000000 0.029320 
#    y 0.000000 1.718810 0.000000 
#    z 0.029320 0.000000 1.845690 
# 
# From -- ./inp_files/148058.got.cif
#   From: 2010.05.17/outbox.cif.g08.bks.cpg/sg15_75_cif.got.tgz:148058.got - 2010.06.03 18:47:42.
