data_PCOD9270038
_publ_section_title
;
Structure prediction by ZEFSAII (Michael W. Deem and Ramdas Pophale) SiO2 
 PCOD9270038
Probable space group: C 2/C
;
_chemical_formula_sum "Si O2"
_cell_formula_units_Z 56
_cell_length_a 15.813427
_cell_length_b 25.796248
_cell_length_c 9.258002
_cell_angle_alpha 90.000000
_cell_angle_beta 45.210607
_cell_angle_gamma 90.000000
_cell_volume 2680.250180
_symmetry_space_group_name_H-M "C 2/C"
_symmetry_group_IT_number 15
_symmetry_cell_setting 'monoclinic'
loop_
_space_group_symop_operation_xyz
x,y,z
-x,y,1/2-z
-x,-y,-z
x,-y,1/2+z
1/2+x,1/2+y,z
1/2-x,1/2+y,1/2-z
1/2-x,1/2-y,-z
1/2+x,1/2-y,1/2+z
loop_
_atom_site_type_symbol
_atom_site_label
_atom_site_fract_x
_atom_site_fract_y
_atom_site_fract_z
Si Si1 0.100637 0.909227 0.253092
Si Si2 0.714523 0.870921 0.670396
Si Si3 0.126307 0.474460 0.869762
Si Si4 0.905321 0.119281 0.199149
Si Si5 0.648598 0.231574 0.403636
Si Si6 0.892443 0.237452 0.228870
Si Si7 0.214455 0.019658 0.055600
O O1 0.000000 0.904414 0.250000
O O2 0.035837 0.890599 0.475928
O O3 0.142321 0.969181 0.198000
O O4 0.213777 0.875021 0.065691
O O5 0.625368 0.918703 0.793617
O O6 0.814542 0.881967 0.672610
O O7 0.655360 0.818437 0.794007
O O8 0.231859 0.505767 0.663316
O O9 0.170611 0.471003 0.980424
O O10 0.000000 0.500000 0.000000
O O11 0.885330 0.176825 0.285318
O O12 0.865217 0.070847 0.342855
O O13 0.786351 0.250625 0.244830
O O14 0.626454 0.227400 0.605317
O O15 0.525985 0.259126 0.505936
#
# Coordination Sequence:
#
# PCOD9270038 Si02
#       7
#     8   8   8   8   8   8   8
#     4   9  17  33  55  77 107 148 184 230 287 365
#     4   8  17  33  55  72 103 149 192 222 286 359
#     4  10  20  37  53  82 113 155 197 238 282 353
#     4   9  17  32  52  80 107 143 183 231 300 343
#     4   9  17  35  51  75 106 144 185 241 296 343
#     4   9  18  33  52  76 111 137 187 250 287 344
#     4  10  20  35  54  82 119 152 190 235 290 358
#
# _framework density 20.893571000000001
#
# number of rings (size 3 to 8) (size 9 to 14) (size 15 to 20)
#    0.000    2.857    0.000    1.714    0.000    0.000 
#   25.714    0.714    0.000    0.000    0.000    0.000 
#    0.000    0.000    0.000    0.000    0.000    0.000 
#
# Total GULP energy -155890.767651 kJ/mol
# GULP energy per Si atom -5567.527416 kJ/mol
# Density = 2.084602 g / cm^3
# Si number density = 20.893571 Si / 1000 Ang^3
#
#
#
# Elastic Constant Matrix: (Units=GPa)
#
#
# Indices 1 2 3 4 5 6 
#
# 1 67.5529 6.7755 28.3848 0.0000 -22.7568 0.0000
# 2 6.7755 92.8525 54.8371 0.0000 -19.6445 0.0000
# 3 28.3848 54.8371 54.0157 0.0000 -18.0491 0.0000
# 4 0.0000 0.0000 0.0000 28.7007 0.0000 -3.1705
# 5 -22.7568 -19.6445 -18.0491 0.0000 31.0141 0.0000
# 6 0.0000 0.0000 0.0000 -3.1705 0.0000 20.8088
#
#
#
# Elastic Compliance Matrix: (Units=1/GPa)
#
#
# Indices 1 2 3 4 5 6 
#
# 1 0.031597 0.019363 -0.030310 0.000000 0.017809 0.000000
# 2 0.019363 0.038812 -0.045454 0.000000 0.012339 0.000000
# 3 -0.030310 -0.045454 0.078872 0.000000 -0.005131 0.000000
# 4 0.000000 0.000000 0.000000 0.035439 0.000000 0.005400
# 5 0.017809 0.012339 -0.005131 0.000000 0.050141 0.000000
# 6 0.000000 0.000000 0.000000 0.005400 0.000000 0.048879
#
#
# Mechanical properties :
#
#
# Convention : Reuss Voigt Hill
#
# Bulk Modulus (GPa) = 27.41429 43.82401 35.61915
# Shear Modulus (GPa) = 12.23391 24.39964 18.31677
#
# Velocity S-wave (km/s) = 2.42241 3.42103 2.96407
# Velocity P-wave (km/s) = 4.57968 6.05186 5.36649
#
# Compressibility (1/GPa) = 0.03647733
#
# Stress axis : x y z
#
# Youngs Moduli (GPa) = 31.64905 25.76549 12.67881
#
# Poissons Ratio (x) = -0.49889 0.38430
# Poissons Ratio (y) = -0.61282 0.57630
# Poissons Ratio (z) = 0.95929 1.17114
#
# Static dielectric constant tensor:
#      x y z
#    x 1.788530 0.000000 -0.013160 
#    y 0.000000 1.773140 0.000000 
#    z -0.013160 0.000000 1.767520 
# 
# From -- ./inp_files/52308.got.cif
#   From: 2010.05.17/outbox.cif.g08.bks.cpg/sg15_27_cif.got.tgz:52308.got - 2010.06.03 18:47:42.
