data_PCOD9270124
_publ_section_title
;
Structure prediction by ZEFSAII (Michael W. Deem and Ramdas Pophale) SiO2 
 PCOD9270124
Probable space group: C 2/C
;
_chemical_formula_sum "Si O2"
_cell_formula_units_Z 60
_cell_length_a 25.356226
_cell_length_b 18.053715
_cell_length_c 8.540662
_cell_angle_alpha 90.000000
_cell_angle_beta 58.816046
_cell_angle_gamma 90.000000
_cell_volume 3344.779306
_symmetry_space_group_name_H-M "C 2/C"
_symmetry_group_IT_number 15
_symmetry_cell_setting 'monoclinic'
loop_
_space_group_symop_operation_xyz
x,y,z
-x,y,1/2-z
-x,-y,-z
x,-y,1/2+z
1/2+x,1/2+y,z
1/2-x,1/2+y,1/2-z
1/2-x,1/2-y,-z
1/2+x,1/2-y,1/2+z
loop_
_atom_site_type_symbol
_atom_site_label
_atom_site_fract_x
_atom_site_fract_y
_atom_site_fract_z
Si Si1 0.000000 0.677106 0.250000
Si Si2 0.818227 0.708780 0.182675
Si Si3 0.735301 0.164757 0.708865
Si Si4 0.698630 0.606703 0.406476
Si Si5 0.019940 0.419942 0.406036
Si Si6 0.654345 0.906401 0.084690
Si Si7 0.741623 0.482609 0.134162
Si Si8 0.369100 0.747373 0.936267
O O1 0.001316 0.632539 0.415474
O O2 0.937683 0.724477 0.354887
O O3 0.791932 0.777973 0.123260
O O4 0.757804 0.661306 0.322062
O O5 0.849604 0.742838 0.286208
O O6 0.861194 0.646106 0.038572
O O7 0.705842 0.144054 0.589565
O O8 0.753423 0.086272 0.755969
O O9 0.680033 0.202520 0.892557
O O10 0.702988 0.552674 0.253025
O O11 0.709884 0.551580 0.532149
O O12 0.641705 0.661993 0.500843
O O13 0.094403 0.417139 0.280651
O O14 0.000000 0.409430 0.250000
O O15 0.000000 0.500000 0.500000
O O16 0.689419 0.983173 0.994620
#
# Coordination Sequence:
#
# PCOD9270124 Si02
#       8
#     4   8   8   8   8   8   8   8
#     4  12  26  44  66  82 114 174 210 250 288 344
#     4  10  20  36  60  84 118 152 189 242 302 356
#     4  11  19  35  57  87 117 147 189 238 302 356
#     4  10  20  35  55  88 117 148 185 236 301 368
#     4  12  27  43  59  88 122 165 213 245 284 343
#     4  11  24  35  55  86 122 150 194 245 289 356
#     4  11  20  32  57  87 115 149 178 234 310 356
#     4  11  21  39  59  81 114 156 204 237 287 355
#
# _framework density 17.938402
#
# number of rings (size 3 to 8) (size 9 to 14) (size 15 to 20)
#    0.000    1.067    6.000    2.000    3.733    0.000 
#    0.000    0.000    0.000    0.800    0.000    0.000 
#    0.000    0.000    0.000    0.000    0.000    0.000 
#
# Total GULP energy -167209.109883 kJ/mol
# GULP energy per Si atom -5573.636996 kJ/mol
# Density = 1.789757 g / cm^3
# Si number density = 17.938402 Si / 1000 Ang^3
#
#
#
# Elastic Constant Matrix: (Units=GPa)
#
#
# Indices 1 2 3 4 5 6 
#
# 1 44.4608 43.6452 21.7814 0.0000 1.4533 0.0000
# 2 43.6452 129.5791 52.7602 0.0000 -7.9273 0.0000
# 3 21.7814 52.7602 79.4232 0.0000 -4.4271 0.0000
# 4 0.0000 0.0000 0.0000 30.3786 0.0000 8.6664
# 5 1.4533 -7.9273 -4.4271 0.0000 29.8750 0.0000
# 6 0.0000 0.0000 0.0000 8.6664 0.0000 23.6084
#
#
#
# Elastic Compliance Matrix: (Units=1/GPa)
#
#
# Indices 1 2 3 4 5 6 
#
# 1 0.034626 -0.010949 -0.002499 0.000000 -0.004960 0.000000
# 2 -0.010949 0.014135 -0.006200 0.000000 0.003365 0.000000
# 3 -0.002499 -0.006200 0.017454 0.000000 0.001063 0.000000
# 4 0.000000 0.000000 0.000000 0.036768 0.000000 -0.013497
# 5 -0.004960 0.003365 0.001063 0.000000 0.034764 0.000000
# 6 0.000000 0.000000 0.000000 -0.013497 0.000000 0.047313
#
#
# Mechanical properties :
#
#
# Convention : Reuss Voigt Hill
#
# Bulk Modulus (GPa) = 37.14760 54.42629 45.78695
# Shear Modulus (GPa) = 21.42893 25.79083 23.60988
#
# Velocity S-wave (km/s) = 3.46003 3.79587 3.63183
# Velocity P-wave (km/s) = 6.05935 7.04401 6.57015
#
# Compressibility (1/GPa) = 0.02691964
#
# Stress axis : x y z
#
# Youngs Moduli (GPa) = 28.87996 70.74536 57.29372
#
# Poissons Ratio (x) = 0.77456 0.14320
# Poissons Ratio (y) = 0.31620 0.35521
# Poissons Ratio (z) = 0.07218 0.43860
#
# Static dielectric constant tensor:
#      x y z
#    x 1.637300 0.000000 0.082080 
#    y 0.000000 1.632970 0.000000 
#    z 0.082080 0.000000 1.745540 
# 
# From -- ./inp_files/56650.got.cif
#   From: 2010.05.17/outbox.cif.g08.bks.cpg/sg15_29_cif.got.tgz:56650.got - 2010.06.03 18:47:42.
