data_PCOD9270153
_publ_section_title
;
Structure prediction by ZEFSAII (Michael W. Deem and Ramdas Pophale) SiO2 
 PCOD9270153
Probable space group: C 2/C
;
_chemical_formula_sum "Si O2"
_cell_formula_units_Z 60
_cell_length_a 14.872839
_cell_length_b 15.443794
_cell_length_c 12.500153
_cell_angle_alpha 90.000000
_cell_angle_beta 68.066941
_cell_angle_gamma 90.000000
_cell_volume 2663.383628
_symmetry_space_group_name_H-M "C 2/C"
_symmetry_group_IT_number 15
_symmetry_cell_setting 'monoclinic'
loop_
_space_group_symop_operation_xyz
x,y,z
-x,y,1/2-z
-x,-y,-z
x,-y,1/2+z
1/2+x,1/2+y,z
1/2-x,1/2+y,1/2-z
1/2-x,1/2-y,-z
1/2+x,1/2-y,1/2+z
loop_
_atom_site_type_symbol
_atom_site_label
_atom_site_fract_x
_atom_site_fract_y
_atom_site_fract_z
Si Si1 0.117930 0.690156 0.264496
Si Si2 0.500000 0.877146 0.250000
Si Si3 0.204559 0.041454 0.713714
Si Si4 0.418737 0.990227 0.625631
Si Si5 0.327822 0.321782 0.092666
Si Si6 0.653125 0.692363 0.566316
Si Si7 0.124712 0.230892 0.141233
Si Si8 0.849084 0.137151 0.166609
O O1 0.069762 0.601512 0.321384
O O2 0.106399 0.762024 0.361434
O O3 0.094921 0.737092 0.162620
O O4 0.234019 0.663341 0.211188
O O5 0.563943 0.816598 0.145208
O O6 0.566839 0.936252 0.292457
O O7 0.206093 0.098320 0.821458
O O8 0.170993 0.109167 0.636533
O O9 0.309587 0.004618 0.632011
O O10 0.145725 0.957425 0.780834
O O11 0.500000 0.000000 0.500000
O O12 0.233663 0.264003 0.111309
O O13 0.375008 0.336599 0.955988
O O14 0.750000 0.750000 0.500000
O O15 0.615769 0.655557 0.469616
O O16 0.097111 0.196077 0.270182
#
# Coordination Sequence:
#
# PCOD9270153 Si02
#       8
#     8   4   8   8   8   8   8   8
#     4   8  17  35  52  80 109 156 201 240 298 348
#     4  12  24  38  54  88 128 164 188 232 312 382
#     4  10  20  35  58  91 117 147 211 251 304 350
#     4  11  23  36  53  85 130 164 195 237 303 384
#     4   9  17  35  60  79 113 150 202 256 281 350
#     4   9  18  33  58  82 115 152 193 266 301 345
#     4  10  20  35  56  82 117 157 198 240 305 356
#     4   9  19  32  55  87 108 147 203 255 295 339
#
# _framework density 22.527733999999999
#
# number of rings (size 3 to 8) (size 9 to 14) (size 15 to 20)
#    0.000    2.400    1.333    1.600    1.867    4.267 
#    0.000    0.000    0.000    0.800    0.000    0.000 
#    0.000    0.000    0.000    0.000    0.000    0.000 
#
# Total GULP energy -167272.372952 kJ/mol
# GULP energy per Si atom -5575.745765 kJ/mol
# Density = 2.247646 g / cm^3
# Si number density = 22.527734 Si / 1000 Ang^3
#
#
#
# Elastic Constant Matrix: (Units=GPa)
#
#
# Indices 1 2 3 4 5 6 
#
# 1 34.3671 24.3242 20.8534 0.0000 -0.4975 0.0000
# 2 24.3242 122.9141 64.7794 0.0000 7.4307 0.0000
# 3 20.8534 64.7794 131.1368 0.0000 -5.0949 0.0000
# 4 0.0000 0.0000 0.0000 37.2859 0.0000 -10.3677
# 5 -0.4975 7.4307 -5.0949 0.0000 20.4783 0.0000
# 6 0.0000 0.0000 0.0000 -10.3677 0.0000 16.9762
#
#
#
# Elastic Compliance Matrix: (Units=1/GPa)
#
#
# Indices 1 2 3 4 5 6 
#
# 1 0.034710 -0.005596 -0.002670 0.000000 0.002209 0.000000
# 2 -0.005596 0.012525 -0.005533 0.000000 -0.006057 0.000000
# 3 -0.002670 -0.005533 0.010965 0.000000 0.004671 0.000000
# 4 0.000000 0.000000 0.000000 0.032306 0.000000 0.019730
# 5 0.002209 -0.006057 0.004671 0.000000 0.052246 0.000000
# 6 0.000000 0.000000 0.000000 0.019730 0.000000 0.070955
#
#
# Mechanical properties :
#
#
# Convention : Reuss Voigt Hill
#
# Bulk Modulus (GPa) = 32.67554 56.48133 44.57843
# Shear Modulus (GPa) = 19.88039 26.84550 23.36294
#
# Velocity S-wave (km/s) = 2.97389 3.45579 3.22386
# Velocity P-wave (km/s) = 5.13109 6.40700 5.80421
#
# Compressibility (1/GPa) = 0.03060393
#
# Stress axis : x y z
#
# Youngs Moduli (GPa) = 28.81021 79.83882 91.20154
#
# Poissons Ratio (x) = 0.44674 0.24347
# Poissons Ratio (y) = 0.16121 0.50460
# Poissons Ratio (z) = 0.07691 0.44173
#
# Static dielectric constant tensor:
#      x y z
#    x 1.893260 0.000000 -0.013810 
#    y 0.000000 1.809620 0.000000 
#    z -0.013810 0.000000 1.863980 
# 
# From -- ./inp_files/105691.got.cif
#   From: 2010.05.17/outbox.cif.g08.bks.cpg/sg15_53_cif.got.tgz:105691.got - 2010.06.03 18:47:42.
