data_PCOD9270689
_publ_section_title
;
Structure prediction by ZEFSAII (Michael W. Deem and Ramdas Pophale) SiO2 
 PCOD9270689
Probable space group: C 2/C
;
_chemical_formula_sum "Si O2"
_cell_formula_units_Z 48
_cell_length_a 12.749428
_cell_length_b 17.526120
_cell_length_c 11.901800
_cell_angle_alpha 90.000000
_cell_angle_beta 135.217285
_cell_angle_gamma 90.000000
_cell_volume 1873.358427
_symmetry_space_group_name_H-M "C 2/C"
_symmetry_group_IT_number 15
_symmetry_cell_setting 'monoclinic'
loop_
_space_group_symop_operation_xyz
x,y,z
-x,y,1/2-z
-x,-y,-z
x,-y,1/2+z
1/2+x,1/2+y,z
1/2-x,1/2+y,1/2-z
1/2-x,1/2-y,-z
1/2+x,1/2-y,1/2+z
loop_
_atom_site_type_symbol
_atom_site_label
_atom_site_fract_x
_atom_site_fract_y
_atom_site_fract_z
Si Si1 0.774348 0.032988 0.365149
Si Si2 0.325666 0.429547 0.647107
Si Si3 0.442324 0.043529 0.070137
Si Si4 0.034270 0.164240 0.934049
Si Si5 0.210520 0.695212 0.626564
Si Si6 0.203134 0.148095 0.582829
O O1 0.600640 0.049625 0.255043
O O2 0.895085 0.081369 0.526143
O O3 0.804883 0.067396 0.263692
O O4 0.796468 0.941922 0.378980
O O5 0.500000 0.441457 0.750000
O O6 0.205084 0.492947 0.514952
O O7 0.276970 0.355946 0.535196
O O8 0.385256 0.127381 0.997823
O O9 0.500000 0.000000 0.000000
O O10 0.958145 0.175151 0.000129
O O11 0.162778 0.226296 0.035303
O O12 0.886855 0.178606 0.748016
O O13 0.189647 0.689887 0.747248
#
# Coordination Sequence:
#
# PCOD9270689 Si02
#       6
#     8   8   8   8   8   8
#     4  11  21  41  62  92 122 163 219 264 306 374
#     4  11  20  35  62  92 123 158 210 260 308 365
#     4  10  20  37  61  88 120 160 208 262 304 361
#     4  10  20  35  62  87 125 168 208 248 317 375
#     4  10  20  37  59  91 123 171 200 251 318 372
#     4  10  22  36  64  92 121 171 209 252 321 363
#
# _framework density 25.622432
#
# number of rings (size 3 to 8) (size 9 to 14) (size 15 to 20)
#    1.000    0.667    5.000    1.500    2.333    0.667 
#    0.000    0.833    7.333    1.000    0.000    0.000 
#    0.000    0.000    0.000    0.000    0.000    0.000 
#
# Total GULP energy -133986.548995 kJ/mol
# GULP energy per Si atom -5582.772875 kJ/mol
# Density = 2.556411 g / cm^3
# Si number density = 25.622432 Si / 1000 Ang^3
#
#
#
# Elastic Constant Matrix: (Units=GPa)
#
#
# Indices 1 2 3 4 5 6 
#
# 1 101.8012 -6.9654 5.9054 0.0000 28.5206 0.0000
# 2 -6.9654 46.4622 30.5046 0.0000 7.8348 0.0000
# 3 5.9054 30.5046 161.9584 0.0000 27.5836 0.0000
# 4 0.0000 0.0000 0.0000 57.1024 0.0000 10.9100
# 5 28.5206 7.8348 27.5836 0.0000 47.3808 0.0000
# 6 0.0000 0.0000 0.0000 10.9100 0.0000 19.8746
#
#
#
# Elastic Compliance Matrix: (Units=1/GPa)
#
#
# Indices 1 2 3 4 5 6 
#
# 1 0.012271 0.002959 0.000374 0.000000 -0.008094 0.000000
# 2 0.002959 0.025372 -0.004295 0.000000 -0.003477 0.000000
# 3 0.000374 -0.004295 0.007645 0.000000 -0.003965 0.000000
# 4 0.000000 0.000000 0.000000 0.019564 0.000000 -0.010740
# 5 -0.008094 -0.003477 -0.003965 0.000000 0.028861 0.000000
# 6 0.000000 0.000000 0.000000 -0.010740 0.000000 0.056211
#
#
# Mechanical properties :
#
#
# Convention : Reuss Voigt Hill
#
# Bulk Modulus (GPa) = 23.06007 41.01234 32.03621
# Shear Modulus (GPa) = 30.06546 43.59003 36.82775
#
# Velocity S-wave (km/s) = 3.42921 4.12909 3.79532
# Velocity P-wave (km/s) = 4.96979 6.22685 5.63349
#
# Compressibility (1/GPa) = 0.04336500
#
# Stress axis : x y z
#
# Youngs Moduli (GPa) = 81.49075 39.41298 130.80345
#
# Poissons Ratio (x) = -0.11663 -0.04887
# Poissons Ratio (y) = -0.24114 0.56175
# Poissons Ratio (z) = -0.03045 0.16926
#
# Static dielectric constant tensor:
#      x y z
#    x 2.404730 0.000000 -0.275060 
#    y 0.000000 1.892270 0.000000 
#    z -0.275060 0.000000 2.130230 
# 
# From -- ./inp_files/156024.got.cif
#   From: 2010.05.17/outbox.cif.g08.bks.cpg/sg15_79_cif.got.tgz:156024.got - 2010.06.03 18:47:42.
