data_PCOD9270835
_publ_section_title
;
Structure prediction by ZEFSAII (Michael W. Deem and Ramdas Pophale) SiO2 
 PCOD9270835
Probable space group: C 2/C
;
_chemical_formula_sum "Si O2"
_cell_formula_units_Z 60
_cell_length_a 23.100039
_cell_length_b 14.330391
_cell_length_c 8.393558
_cell_angle_alpha 90.000000
_cell_angle_beta 98.078363
_cell_angle_gamma 90.000000
_cell_volume 2750.969222
_symmetry_space_group_name_H-M "C 2/C"
_symmetry_group_IT_number 15
_symmetry_cell_setting 'monoclinic'
loop_
_space_group_symop_operation_xyz
x,y,z
-x,y,1/2-z
-x,-y,-z
x,-y,1/2+z
1/2+x,1/2+y,z
1/2-x,1/2+y,1/2-z
1/2-x,1/2-y,-z
1/2+x,1/2-y,1/2+z
loop_
_atom_site_type_symbol
_atom_site_label
_atom_site_fract_x
_atom_site_fract_y
_atom_site_fract_z
Si Si1 0.460547 0.741830 0.965242
Si Si2 0.087662 0.230195 0.876149
Si Si3 0.227236 0.548683 0.744347
Si Si4 0.456732 0.061435 0.590309
Si Si5 0.500000 0.603203 0.250000
Si Si6 0.308483 0.561855 0.038241
Si Si7 0.849064 0.419814 0.574977
Si Si8 0.883513 0.074758 0.357553
O O1 0.525914 0.763730 0.926363
O O2 0.426218 0.695327 0.806331
O O3 0.435085 0.842301 0.003694
O O4 0.468541 0.671250 0.112205
O O5 0.128785 0.318510 0.872538
O O6 0.110774 0.154316 0.007234
O O7 0.273720 0.514011 0.631787
O O8 0.199844 0.459403 0.824604
O O9 0.175673 0.588742 0.614942
O O10 0.260162 0.605320 0.898386
O O11 0.500000 0.090050 0.750000
O O12 0.500000 0.000000 0.500000
O O13 0.401974 0.994705 0.606236
O O14 0.448221 0.549090 0.318786
O O15 0.345546 0.611170 0.191634
O O16 0.352689 0.509856 0.936545
#
# Coordination Sequence:
#
# PCOD9270835 Si02
#       8
#     8   8   8   8   4   8   8   8
#     4  10  20  36  51  82 135 169 189 231 286 364
#     4  10  21  36  56  85 126 162 193 238 305 354
#     4   9  20  37  59  83 116 155 206 257 283 334
#     4  12  21  31  53  86 126 177 207 227 273 354
#     4  10  22  38  60  96 124 146 192 248 302 364
#     4   9  20  43  63  81 109 151 200 252 320 360
#     4  11  20  33  56  89 123 163 210 243 278 340
#     4  10  22  40  67  89 115 151 188 250 316 378
#
# _framework density 21.810496000000001
#
# number of rings (size 3 to 8) (size 9 to 14) (size 15 to 20)
#    0.000    1.867    2.000    2.400    0.000    2.667 
#    0.000    8.000    0.000    1.600    0.000    0.000 
#    0.000    0.000    0.000    0.000    0.000    0.000 
#
# Total GULP energy -167397.754284 kJ/mol
# GULP energy per Si atom -5579.925143 kJ/mol
# Density = 2.176085 g / cm^3
# Si number density = 21.810496 Si / 1000 Ang^3
#
#
#
# Elastic Constant Matrix: (Units=GPa)
#
#
# Indices 1 2 3 4 5 6 
#
# 1 81.6332 21.0209 30.6249 0.0000 -6.5302 0.0000
# 2 21.0209 36.2011 27.6491 0.0000 3.4387 0.0000
# 3 30.6249 27.6491 181.2930 0.0000 25.3094 0.0000
# 4 0.0000 0.0000 0.0000 13.8639 0.0000 -38.4448
# 5 -6.5302 3.4387 25.3094 0.0000 41.7649 0.0000
# 6 0.0000 0.0000 0.0000 -38.4448 0.0000 -206.0087
#
#
#
# Elastic Compliance Matrix: (Units=1/GPa)
#
#
# Indices 1 2 3 4 5 6 
#
# 1 0.015345 -0.007788 -0.001998 0.000000 0.004251 0.000000
# 2 -0.007788 0.035223 -0.003803 0.000000 -0.001813 0.000000
# 3 -0.001998 -0.003803 0.007028 0.000000 -0.004258 0.000000
# 4 0.000000 0.000000 0.000000 0.047532 0.000000 -0.008870
# 5 0.004251 -0.001813 -0.004258 0.000000 0.027338 0.000000
# 6 0.000000 0.000000 0.000000 -0.008870 0.000000 -0.003199
#
#
# Mechanical properties :
#
#
# Convention : Reuss Voigt Hill
#
# Bulk Modulus (GPa) = 32.87614 50.85746 41.86680
# Shear Modulus (GPa) = 30.01479 -15.42048 7.29715
#
# Velocity S-wave (km/s) = 3.71369 -2.66187 1.83111
# Velocity P-wave (km/s) = 5.78748 3.73110 4.86909
#
# Compressibility (1/GPa) = 0.03041720
#
# Stress axis : x y z
#
# Youngs Moduli (GPa) = 65.16772 28.39071 142.29025
#
# Poissons Ratio (x) = 0.22112 0.28427
# Poissons Ratio (y) = 0.50755 0.54114
# Poissons Ratio (z) = 0.13020 0.10797
#
# Static dielectric constant tensor:
#      x y z
#    x 1.838070 0.000000 0.069980 
#    y 0.000000 1.769650 0.000000 
#    z 0.069980 0.000000 1.936720 
# 
# From -- ./inp_files/61954.got.cif
#   From: 2010.05.17/outbox.cif.g08.bks.cpg/sg15_31_cif.got.tgz:61954.got - 2010.06.03 18:47:42.
