data_PCOD9270023
_publ_section_title
;
Structure prediction by ZEFSAII (Michael W. Deem and Ramdas Pophale) SiO2 
 PCOD9270023
Probable space group: C 2/C
;
_chemical_formula_sum "Si O2"
_cell_formula_units_Z 48
_cell_length_a 27.879072
_cell_length_b 6.981726
_cell_length_c 15.983043
_cell_angle_alpha 90.000000
_cell_angle_beta 36.023148
_cell_angle_gamma 90.000000
_cell_volume 1829.619007
_symmetry_space_group_name_H-M "C 2/C"
_symmetry_group_IT_number 15
_symmetry_cell_setting 'monoclinic'
loop_
_space_group_symop_operation_xyz
x,y,z
-x,y,1/2-z
-x,-y,-z
x,-y,1/2+z
1/2+x,1/2+y,z
1/2-x,1/2+y,1/2-z
1/2-x,1/2-y,-z
1/2+x,1/2-y,1/2+z
loop_
_atom_site_type_symbol
_atom_site_label
_atom_site_fract_x
_atom_site_fract_y
_atom_site_fract_z
Si Si1 0.179720 0.879700 0.787810
Si Si2 0.011517 0.491907 0.832749
Si Si3 0.983842 0.051831 0.925027
Si Si4 0.152310 0.014152 0.637781
Si Si5 0.819786 0.431976 0.854331
Si Si6 0.347613 0.064774 0.136126
O O1 0.157945 0.657810 0.829969
O O2 0.166903 0.949036 0.712150
O O3 0.273501 0.904306 0.678823
O O4 0.113853 0.978485 0.944562
O O5 0.999946 0.279063 0.887940
O O6 0.000000 0.482982 0.750000
O O7 0.101361 0.556697 0.733015
O O8 0.937055 0.610287 0.976473
O O9 0.055878 0.970919 0.762779
O O10 0.000000 0.000000 0.000000
O O11 0.167523 0.245866 0.603557
O O12 0.235211 0.952038 0.474495
O O13 0.829916 0.338313 0.749096
#
# Coordination Sequence:
#
# PCOD9270023 Si02
#       6
#     8   8   8   8   8   8
#     4  10  20  35  54  79 112 147 186 230 277 328
#     4  10  20  35  57  83 111 145 187 232 279 335
#     4   8  17  33  55  81 109 143 182 229 276 326
#     4   9  18  35  57  81 108 141 183 228 276 336
#     4  10  20  35  58  84 111 146 185 228 281 336
#     4  11  22  35  55  81 112 149 187 232 280 328
#
# _framework density 26.234967999999999
#
# number of rings (size 3 to 8) (size 9 to 14) (size 15 to 20)
#    0.000    2.333    0.000    2.500    0.000    7.333 
#    0.000    1.667    0.000    2.000    0.000    2.333 
#    0.000    0.000    0.000    0.000    0.000    0.000 
#
# Total GULP energy -133983.443578 kJ/mol
# GULP energy per Si atom -5582.643482 kJ/mol
# Density = 2.617526 g / cm^3
# Si number density = 26.234968 Si / 1000 Ang^3
#
#
#
# Elastic Constant Matrix: (Units=GPa)
#
#
# Indices 1 2 3 4 5 6 
#
# 1 80.2940 -17.2761 33.9206 0.0019 -18.3774 -0.0028
# 2 -17.2761 84.6652 -16.4299 -0.0051 10.6479 -0.0003
# 3 33.9206 -16.4299 222.2962 -0.0064 -33.6839 -0.0016
# 4 0.0019 -0.0051 -0.0064 11.3780 -0.0008 0.7751
# 5 -18.3774 10.6479 -33.6839 -0.0008 45.8621 0.0018
# 6 -0.0028 -0.0003 -0.0016 0.7751 0.0018 25.0587
#
#
#
# Elastic Compliance Matrix: (Units=1/GPa)
#
#
# Indices 1 2 3 4 5 6 
#
# 1 0.014488 0.002146 -0.001404 -0.000002 0.004276 0.000001
# 2 0.002146 0.012540 0.000325 0.000005 -0.001813 0.000000
# 3 -0.001404 0.000325 0.005221 0.000004 0.003197 0.000000
# 4 -0.000002 0.000005 0.000004 0.088074 0.000002 -0.002724
# 5 0.004276 -0.001813 0.003197 0.000002 0.026287 -0.000001
# 6 0.000001 0.000000 0.000000 -0.002724 -0.000001 0.039991
#
#
# Mechanical properties :
#
#
# Convention : Reuss Voigt Hill
#
# Bulk Modulus (GPa) = 29.08492 43.07607 36.08049
# Shear Modulus (GPa) = 25.51953 42.26248 33.89101
#
# Velocity S-wave (km/s) = 3.12225 4.01798 3.59810
# Velocity P-wave (km/s) = 4.91002 6.16284 5.57175
#
# Compressibility (1/GPa) = 0.03438208
#
# Stress axis : x y z
#
# Youngs Moduli (GPa) = 69.02340 79.74385 191.52867
#
# Poissons Ratio (x) = -0.17113 0.26895
# Poissons Ratio (y) = -0.14813 -0.06218
# Poissons Ratio (z) = 0.09692 -0.02589
#
# Static dielectric constant tensor:
#      x y z
#    x 2.011670 -0.000010 -0.043060 
#    y -0.000010 2.226050 0.000000 
#    z -0.043060 0.000000 2.233040 
# 
# From -- ./inp_files/208955.got.cif
#   From: 2010.05.17/outbox.cif.g08.bks.cpg/sg15_105_cif.got.tgz:208955.got - 2010.06.03 18:47:42.
