data_PCOD9270653
_publ_section_title
;
Structure prediction by ZEFSAII (Michael W. Deem and Ramdas Pophale) SiO2 
 PCOD9270653
Probable space group: C 2/C
;
_chemical_formula_sum "Si O2"
_cell_formula_units_Z 48
_cell_length_a 12.090996
_cell_length_b 11.128276
_cell_length_c 14.111712
_cell_angle_alpha 90.000000
_cell_angle_beta 90.352023
_cell_angle_gamma 90.000000
_cell_volume 1898.722398
_symmetry_space_group_name_H-M "C 2/C"
_symmetry_group_IT_number 15
_symmetry_cell_setting 'monoclinic'
loop_
_space_group_symop_operation_xyz
x,y,z
-x,y,1/2-z
-x,-y,-z
x,-y,1/2+z
1/2+x,1/2+y,z
1/2-x,1/2+y,1/2-z
1/2-x,1/2-y,-z
1/2+x,1/2-y,1/2+z
loop_
_atom_site_type_symbol
_atom_site_label
_atom_site_fract_x
_atom_site_fract_y
_atom_site_fract_z
Si Si1 0.553482 0.607290 0.113722
Si Si2 0.540610 0.632607 0.893391
Si Si3 0.948016 0.482782 0.656067
Si Si4 0.727205 0.215581 0.390445
Si Si5 0.342921 0.775361 0.132026
Si Si6 0.370150 0.849836 0.919814
O O1 0.530397 0.474307 0.149795
O O2 0.656864 0.679890 0.154932
O O3 0.443275 0.682517 0.126705
O O4 0.574059 0.593879 0.000689
O O5 0.654217 0.676491 0.846532
O O6 0.462397 0.747098 0.906122
O O7 0.850894 0.400802 0.614468
O O8 0.892060 0.608541 0.686241
O O9 0.000000 0.423362 0.750000
O O10 0.061054 0.474090 0.593686
O O11 0.750000 0.250000 0.500000
O O12 0.232887 0.694545 0.144533
O O13 0.329801 0.838927 0.027789
#
# Coordination Sequence:
#
# PCOD9270653 Si02
#       6
#     8   8   8   8   8   8
#     4   9  16  28  51  83 111 144 190 250 300 340
#     4   8  15  28  49  80 113 142 191 250 295 344
#     4  11  23  40  59  87 130 169 202 258 329 383
#     4   9  18  33  56  82 111 154 206 249 292 366
#     4  10  20  35  61  92 121 157 205 263 305 374
#     4   9  19  36  61  86 118 159 210 256 306 374
#
# _framework density 25.280156999999999
#
# number of rings (size 3 to 8) (size 9 to 14) (size 15 to 20)
#    0.000    2.667    0.000    2.500    0.000    5.333 
#    3.000    0.000    0.000    1.000    0.000    0.000 
#    0.000    0.000    0.000    0.000    0.000    0.000 
#
# Total GULP energy -133891.478343 kJ/mol
# GULP energy per Si atom -5578.811598 kJ/mol
# Density = 2.522262 g / cm^3
# Si number density = 25.280157 Si / 1000 Ang^3
#
#
#
# Elastic Constant Matrix: (Units=GPa)
#
#
# Indices 1 2 3 4 5 6 
#
# 1 155.4905 34.5836 -0.4883 0.0000 18.4957 0.0000
# 2 34.5836 95.0837 -8.4591 0.0000 6.1453 0.0000
# 3 -0.4883 -8.4591 61.7581 0.0000 8.2035 0.0000
# 4 0.0000 0.0000 0.0000 15.1383 0.0000 9.6036
# 5 18.4957 6.1453 8.2035 0.0000 25.3909 0.0000
# 6 0.0000 0.0000 0.0000 9.6036 0.0000 40.4505
#
#
#
# Elastic Compliance Matrix: (Units=1/GPa)
#
#
# Indices 1 2 3 4 5 6 
#
# 1 0.007566 -0.002389 0.000405 0.000000 -0.005064 0.000000
# 2 -0.002389 0.011653 0.001798 0.000000 -0.001661 0.000000
# 3 0.000405 0.001798 0.017280 0.000000 -0.006313 0.000000
# 4 0.000000 0.000000 0.000000 0.077771 0.000000 -0.018464
# 5 -0.005064 -0.001661 -0.006313 0.000000 0.045515 0.000000
# 6 0.000000 0.000000 0.000000 -0.018464 0.000000 0.029105
#
#
# Mechanical properties :
#
#
# Convention : Reuss Voigt Hill
#
# Bulk Modulus (GPa) = 27.67850 40.40052 34.03951
# Shear Modulus (GPa) = 24.83794 35.30900 30.07347
#
# Velocity S-wave (km/s) = 3.13790 3.74131 3.45281
# Velocity P-wave (km/s) = 4.90928 5.88889 5.42126
#
# Compressibility (1/GPa) = 0.03612913
#
# Stress axis : x y z
#
# Youngs Moduli (GPa) = 132.16675 85.81376 57.86929
#
# Poissons Ratio (x) = 0.20497 -0.02346
# Poissons Ratio (y) = 0.31569 -0.10405
# Poissons Ratio (z) = -0.05358 -0.15429
#
# Static dielectric constant tensor:
#      x y z
#    x 2.034270 0.000000 -0.060780 
#    y 0.000000 2.028070 0.000000 
#    z -0.060780 0.000000 2.239130 
# 
# From -- ./inp_files/196232.got.cif
#   From: 2010.05.17/outbox.cif.g08.bks.cpg/sg15_99_cif.got.tgz:196232.got - 2010.06.03 18:47:42.
