data_PCOD9270727
_publ_section_title
;
Structure prediction by ZEFSAII (Michael W. Deem and Ramdas Pophale) SiO2 
 PCOD9270727
Probable space group: C 2/C
;
_chemical_formula_sum "Si O2"
_cell_formula_units_Z 48
_cell_length_a 24.765266
_cell_length_b 11.799397
_cell_length_c 7.449638
_cell_angle_alpha 90.000000
_cell_angle_beta 68.707188
_cell_angle_gamma 90.000000
_cell_volume 2028.295491
_symmetry_space_group_name_H-M "C 2/C"
_symmetry_group_IT_number 15
_symmetry_cell_setting 'monoclinic'
loop_
_space_group_symop_operation_xyz
x,y,z
-x,y,1/2-z
-x,-y,-z
x,-y,1/2+z
1/2+x,1/2+y,z
1/2-x,1/2+y,1/2-z
1/2-x,1/2-y,-z
1/2+x,1/2-y,1/2+z
loop_
_atom_site_type_symbol
_atom_site_label
_atom_site_fract_x
_atom_site_fract_y
_atom_site_fract_z
Si Si1 0.722361 0.318751 0.199041
Si Si2 0.596606 0.325460 0.797030
Si Si3 0.376652 0.452496 0.369511
Si Si4 0.153782 0.614265 0.875310
Si Si5 0.473270 0.703598 0.592801
Si Si6 0.869445 0.644962 0.173927
O O1 0.680751 0.414609 0.166471
O O2 0.777246 0.369363 0.235710
O O3 0.681779 0.224586 0.339860
O O4 0.750000 0.250000 0.000000
O O5 0.616397 0.413053 0.621663
O O6 0.620065 0.198510 0.783141
O O7 0.622557 0.388512 0.942403
O O8 0.527699 0.325722 0.905216
O O9 0.433079 0.402424 0.198450
O O10 0.136998 0.484104 0.873159
O O11 0.137319 0.648834 0.099737
O O12 0.500000 0.746779 0.750000
O O13 0.430882 0.797017 0.560538
#
# Coordination Sequence:
#
# PCOD9270727 Si02
#       6
#     8   8   8   8   8   8
#     4   9  18  38  60  81 117 163 191 236 299 349
#     4  11  21  38  59  89 116 157 197 243 299 349
#     4  10  20  35  63  83 118 152 197 244 297 344
#     4  11  22  38  61  86 119 159 199 237 297 353
#     4   9  17  39  61  80 115 161 190 240 299 345
#     4  10  21  40  62  83 120 160 195 244 293 349
#
# _framework density 23.665189999999999
#
# number of rings (size 3 to 8) (size 9 to 14) (size 15 to 20)
#    0.000    2.000    6.667    0.500    2.333    0.667 
#    6.000    0.833    0.000    0.000    0.000    0.000 
#    0.000    0.000    0.000    0.000    0.000    0.000 
#
# Total GULP energy -134324.595525 kJ/mol
# GULP energy per Si atom -5596.858147 kJ/mol
# Density = 2.361133 g / cm^3
# Si number density = 23.665190 Si / 1000 Ang^3
#
#
#
# Elastic Constant Matrix: (Units=GPa)
#
#
# Indices 1 2 3 4 5 6 
#
# 1 111.7535 40.9369 13.3965 0.0000 -21.8870 0.0000
# 2 40.9369 165.6228 9.2709 0.0000 -18.6818 0.0000
# 3 13.3965 9.2709 52.3557 0.0000 1.4164 0.0000
# 4 0.0000 0.0000 0.0000 30.9401 0.0000 0.8566
# 5 -21.8870 -18.6818 1.4164 0.0000 29.6260 0.0000
# 6 0.0000 0.0000 0.0000 0.8566 0.0000 26.1601
#
#
#
# Elastic Compliance Matrix: (Units=1/GPa)
#
#
# Indices 1 2 3 4 5 6 
#
# 1 0.011403 -0.001827 -0.002795 0.000000 0.007406 0.000000
# 2 -0.001827 0.006877 -0.000832 0.000000 0.003027 0.000000
# 3 -0.002795 -0.000832 0.020059 0.000000 -0.003548 0.000000
# 4 0.000000 0.000000 0.000000 0.032350 0.000000 -0.001059
# 5 0.007406 0.003027 -0.003548 0.000000 0.041304 0.000000
# 6 0.000000 0.000000 0.000000 -0.001059 0.000000 0.038261
#
#
# Mechanical properties :
#
#
# Convention : Reuss Voigt Hill
#
# Bulk Modulus (GPa) = 36.45426 50.77119 43.61272
# Shear Modulus (GPa) = 29.35920 35.08709 32.22314
#
# Velocity S-wave (km/s) = 3.52605 3.85469 3.69403
# Velocity P-wave (km/s) = 5.65818 6.42745 6.05504
#
# Compressibility (1/GPa) = 0.02743164
#
# Stress axis : x y z
#
# Youngs Moduli (GPa) = 87.69730 145.40498 49.85406
#
# Poissons Ratio (x) = 0.26560 0.13932
# Poissons Ratio (y) = 0.16019 0.04149
# Poissons Ratio (z) = 0.24508 0.12102
#
# Static dielectric constant tensor:
#      x y z
#    x 1.901200 0.000000 0.046590 
#    y 0.000000 1.873110 0.000000 
#    z 0.046590 0.000000 2.005200 
# 
# From -- ./inp_files/60686.got.cif
#   From: 2010.05.17/outbox.cif.g08.bks.cpg/sg15_31_cif.got.tgz:60686.got - 2010.06.03 18:47:42.
