data_PCOD9270429
_publ_section_title
;
Structure prediction by ZEFSAII (Michael W. Deem and Ramdas Pophale) SiO2 
 PCOD9270429
Probable space group: C 2/C
;
_chemical_formula_sum "Si O2"
_cell_formula_units_Z 60
_cell_length_a 21.924724
_cell_length_b 24.725363
_cell_length_c 8.633780
_cell_angle_alpha 90.000000
_cell_angle_beta 36.116752
_cell_angle_gamma 90.000000
_cell_volume 2758.747289
_symmetry_space_group_name_H-M "C 2/C"
_symmetry_group_IT_number 15
_symmetry_cell_setting 'monoclinic'
loop_
_space_group_symop_operation_xyz
x,y,z
-x,y,1/2-z
-x,-y,-z
x,-y,1/2+z
1/2+x,1/2+y,z
1/2-x,1/2+y,1/2-z
1/2-x,1/2-y,-z
1/2+x,1/2-y,1/2+z
loop_
_atom_site_type_symbol
_atom_site_label
_atom_site_fract_x
_atom_site_fract_y
_atom_site_fract_z
Si Si1 0.777679 0.317586 0.806961
Si Si2 0.443204 0.884529 0.612263
Si Si3 0.143019 0.610961 0.862896
Si Si4 0.209155 0.804483 0.303883
Si Si5 0.500000 0.642629 0.250000
Si Si6 0.121301 0.512262 0.447049
Si Si7 0.686710 0.420311 0.838133
Si Si8 0.005087 0.063267 0.962319
O O1 0.893476 0.337702 0.611156
O O2 0.767720 0.259069 0.751429
O O3 0.729375 0.361861 0.794050
O O4 0.725889 0.319916 0.086006
O O5 0.566039 0.880832 0.376429
O O6 0.399651 0.941767 0.639579
O O7 0.407609 0.881752 0.862548
O O8 0.226163 0.658078 0.710718
O O9 0.164674 0.546634 0.813012
O O10 0.094090 0.817988 0.589216
O O11 0.467667 0.601864 0.452204
O O12 0.214800 0.539084 0.355907
O O13 0.000000 0.503470 0.750000
O O14 0.613045 0.421159 0.840670
O O15 0.598346 0.431795 0.148450
O O16 0.000000 0.000000 0.000000
#
# Coordination Sequence:
#
# PCOD9270429 Si02
#       8
#     8   8   8   8   4   8   8   8
#     4   9  19  44  65  87 123 172 218 261 335 390
#     4   9  19  37  57  87 125 161 206 252 323 392
#     4  10  20  35  58  92 123 163 210 258 324 393
#     4  10  22  39  66  90 125 170 217 278 324 386
#     4  12  24  44  64 102 128 172 228 282 334 384
#     4  11  22  35  61  92 133 168 205 265 329 401
#     4  10  23  44  67  95 132 180 222 267 338 407
#     4  11  25  43  67 100 134 179 224 275 335 399
#
# _framework density 21.749001
#
# number of rings (size 3 to 8) (size 9 to 14) (size 15 to 20)
#    0.000    1.867    2.667    1.200    3.733    1.067 
#    7.200    2.000    0.000    0.000    0.000    0.000 
#    0.000    0.000    0.000    0.000    0.000    0.000 
#
# Total GULP energy -167201.417533 kJ/mol
# GULP energy per Si atom -5573.380584 kJ/mol
# Density = 2.169950 g / cm^3
# Si number density = 21.749001 Si / 1000 Ang^3
#
#
#
# Elastic Constant Matrix: (Units=GPa)
#
#
# Indices 1 2 3 4 5 6 
#
# 1 74.2600 45.2986 18.0109 0.0000 -30.4446 -0.0001
# 2 45.2986 141.4691 35.6242 0.0000 -30.3001 0.0000
# 3 18.0109 35.6242 60.4495 0.0000 -15.3181 -0.0001
# 4 0.0000 0.0000 0.0000 26.8729 0.0000 -1.9080
# 5 -30.4446 -30.3001 -15.3181 0.0000 30.2293 0.0001
# 6 -0.0001 0.0000 -0.0001 -1.9080 0.0001 4.2954
#
#
#
# Elastic Compliance Matrix: (Units=1/GPa)
#
#
# Indices 1 2 3 4 5 6 
#
# 1 0.024020 -0.003206 0.000056 0.000000 0.021006 0.000000
# 2 -0.003206 0.010109 -0.003732 0.000000 0.005012 0.000000
# 3 0.000056 -0.003732 0.020413 0.000000 0.006659 0.000000
# 4 0.000000 0.000000 0.000000 0.038424 0.000000 0.017068
# 5 0.021006 0.005012 0.006659 0.000000 0.062634 -0.000001
# 6 0.000000 0.000000 0.000000 0.017068 -0.000001 0.240390
#
#
# Mechanical properties :
#
#
# Convention : Reuss Voigt Hill
#
# Bulk Modulus (GPa) = 24.52371 52.67178 38.59774
# Shear Modulus (GPa) = 11.81063 24.09583 17.95323
#
# Velocity S-wave (km/s) = 2.33286 3.33213 2.87622
# Velocity P-wave (km/s) = 4.30773 6.25098 5.36802
#
# Compressibility (1/GPa) = 0.04077687
#
# Stress axis : x y z
#
# Youngs Moduli (GPa) = 41.63136 98.92590 48.98870
#
# Poissons Ratio (x) = 0.31719 -0.00273
# Poissons Ratio (y) = 0.13348 0.18282
# Poissons Ratio (z) = -0.00232 0.36917
#
# Static dielectric constant tensor:
#      x y z
#    x 1.839210 0.000000 0.019520 
#    y 0.000000 1.735330 0.000000 
#    z 0.019520 0.000000 1.892650 
# 
# From -- ./inp_files/58725.got.cif
#   From: 2010.05.17/outbox.cif.g08.bks.cpg/sg15_30_cif.got.tgz:58725.got - 2010.06.03 18:47:42.
