data_PCOD9270251
_publ_section_title
;
Structure prediction by ZEFSAII (Michael W. Deem and Ramdas Pophale) SiO2 
 PCOD9270251
Probable space group: C 2/C
;
_chemical_formula_sum "Si O2"
_cell_formula_units_Z 44
_cell_length_a 8.214396
_cell_length_b 33.097226
_cell_length_c 8.354117
_cell_angle_alpha 90.000000
_cell_angle_beta 77.386698
_cell_angle_gamma 90.000000
_cell_volume 2216.450373
_symmetry_space_group_name_H-M "C 2/C"
_symmetry_group_IT_number 15
_symmetry_cell_setting 'monoclinic'
loop_
_space_group_symop_operation_xyz
x,y,z
-x,y,1/2-z
-x,-y,-z
x,-y,1/2+z
1/2+x,1/2+y,z
1/2-x,1/2+y,1/2-z
1/2-x,1/2-y,-z
1/2+x,1/2-y,1/2+z
loop_
_atom_site_type_symbol
_atom_site_label
_atom_site_fract_x
_atom_site_fract_y
_atom_site_fract_z
Si Si1 0.500000 0.076260 0.250000
Si Si2 0.500000 0.302722 0.250000
Si Si3 0.269704 0.137795 0.107646
Si Si4 0.193377 0.951096 0.993782
Si Si5 0.572396 0.366200 0.965380
Si Si6 0.000000 0.008082 0.250000
Si Si7 0.180929 0.284512 0.130915
O O1 0.404313 0.105409 0.142420
O O2 0.624873 0.048626 0.122117
O O3 0.457538 0.330234 0.409611
O O4 0.324215 0.283504 0.237076
O O5 0.182818 0.150418 0.294431
O O6 0.109430 0.118682 0.053466
O O7 0.326712 0.174183 0.977791
O O8 0.160328 0.903831 0.031278
O O9 0.146683 0.979252 0.151484
O O10 0.069989 0.965089 0.878117
O O11 0.000000 0.278055 0.250000
O O12 0.250000 0.250000 0.000000
#
# Coordination Sequence:
#
# PCOD9270251 Si02
#       7
#     4   4   8   8   8   4   8
#     4  10  20  35  64  88 115 152 202 260 303 334
#     4  10  23  41  66  92 124 162 212 260 302 356
#     4   9  20  37  61  86 118 154 204 253 301 358
#     4  10  20  35  57  83 115 157 197 243 301 357
#     4   9  18  38  64  84 114 159 205 251 303 355
#     4  10  21  36  54  80 121 162 198 232 297 392
#     4  11  27  43  63  94 129 163 206 249 311 377
#
# _framework density 19.851562000000001
#
# number of rings (size 3 to 8) (size 9 to 14) (size 15 to 20)
#    0.000    2.182    0.000    2.727   10.182    2.182 
#    0.000    0.000    0.000    0.000    0.000    0.000 
#    0.000    0.000    0.000    0.000    0.000    0.000 
#
# Total GULP energy -122516.328048 kJ/mol
# GULP energy per Si atom -5568.924002 kJ/mol
# Density = 1.980638 g / cm^3
# Si number density = 19.851562 Si / 1000 Ang^3
#
#
#
# Elastic Constant Matrix: (Units=GPa)
#
#
# Indices 1 2 3 4 5 6 
#
# 1 116.7954 27.0745 46.5117 0.0000 -19.4956 0.0000
# 2 27.0745 36.3914 29.5958 0.0000 -20.2485 0.0000
# 3 46.5117 29.5958 52.8378 0.0000 -18.9895 0.0000
# 4 0.0000 0.0000 0.0000 24.8721 0.0000 -10.7685
# 5 -19.4956 -20.2485 -18.9895 0.0000 44.6980 0.0000
# 6 0.0000 0.0000 0.0000 -10.7685 0.0000 18.8232
#
#
#
# Elastic Compliance Matrix: (Units=1/GPa)
#
#
# Indices 1 2 3 4 5 6 
#
# 1 0.013220 -0.000241 -0.011176 0.000000 0.000909 0.000000
# 2 -0.000241 0.057560 -0.026785 0.000000 0.014591 0.000000
# 3 -0.011176 -0.026785 0.044439 0.000000 0.001871 0.000000
# 4 0.000000 0.000000 0.000000 0.053443 0.000000 0.030574
# 5 0.000909 0.014591 0.001871 0.000000 0.030174 0.000000
# 6 0.000000 0.000000 0.000000 0.030574 0.000000 0.070617
#
#
# Mechanical properties :
#
#
# Convention : Reuss Voigt Hill
#
# Bulk Modulus (GPa) = 25.76259 45.82094 35.79176
# Shear Modulus (GPa) = 13.93560 24.53484 19.23522
#
# Velocity S-wave (km/s) = 2.65238 3.51937 3.11618
# Velocity P-wave (km/s) = 4.73138 6.29655 5.56922
#
# Compressibility (1/GPa) = 0.03881598
#
# Stress axis : x y z
#
# Youngs Moduli (GPa) = 75.64262 17.37322 22.50289
#
# Poissons Ratio (x) = 0.00419 0.25148
# Poissons Ratio (y) = 0.01823 0.60274
# Poissons Ratio (z) = 0.84535 0.46534
#
# Static dielectric constant tensor:
#      x y z
#    x 1.772680 0.000000 0.004790 
#    y 0.000000 1.695260 0.000000 
#    z 0.004790 0.000000 1.694300 
# 
# From -- ./inp_files/25496.got.cif
#   From: 2010.05.17/outbox.cif.g08.bks.cpg/sg15_13_cif.got.tgz:25496.got - 2010.06.03 18:47:42.
