data_PCOD9270164
_publ_section_title
;
Structure prediction by ZEFSAII (Michael W. Deem and Ramdas Pophale) SiO2 
 PCOD9270164
Probable space group: C 2/C
;
_chemical_formula_sum "Si O2"
_cell_formula_units_Z 64
_cell_length_a 8.468924
_cell_length_b 13.383937
_cell_length_c 29.298933
_cell_angle_alpha 90.000000
_cell_angle_beta 123.845909
_cell_angle_gamma 90.000000
_cell_volume 2758.186788
_symmetry_space_group_name_H-M "C 2/C"
_symmetry_group_IT_number 15
_symmetry_cell_setting 'monoclinic'
loop_
_space_group_symop_operation_xyz
x,y,z
-x,y,1/2-z
-x,-y,-z
x,-y,1/2+z
1/2+x,1/2+y,z
1/2-x,1/2+y,1/2-z
1/2-x,1/2-y,-z
1/2+x,1/2-y,1/2+z
loop_
_atom_site_type_symbol
_atom_site_label
_atom_site_fract_x
_atom_site_fract_y
_atom_site_fract_z
Si Si1 0.222676 0.947601 0.889820
Si Si2 0.775050 0.998423 0.712210
Si Si3 0.766673 0.942080 0.808643
Si Si4 0.041675 0.638250 0.804329
Si Si5 0.765564 0.795587 0.884027
Si Si6 0.766666 0.859219 0.057289
Si Si7 0.824892 0.264862 0.083914
Si Si8 0.544392 0.662049 0.002949
O O1 0.278822 0.953300 0.845555
O O2 0.258846 0.845502 0.921904
O O3 0.991937 0.955020 0.852951
O O4 0.304685 0.042165 0.929753
O O5 0.738698 0.928226 0.750222
O O6 0.000000 0.021276 0.750000
O O7 0.649951 0.096104 0.703004
O O8 0.696636 0.851460 0.828565
O O9 0.662355 0.041972 0.808006
O O10 0.151966 0.696055 0.860941
O O11 0.000000 0.694847 0.750000
O O12 0.965945 0.742804 0.903522
O O13 0.638545 0.711480 0.888023
O O14 0.835339 0.875060 0.934191
O O15 0.896568 0.885939 0.035242
O O16 0.617166 0.777981 0.014149
O O17 0.681845 0.332137 0.031470
#
# Coordination Sequence:
#
# PCOD9270164 Si02
#       8
#     8   8   8   8   8   8   8   8
#     4  10  20  35  56  84 112 158 184 240 287 339
#     4   9  19  37  59  85 113 142 188 238 295 346
#     4   9  19  36  58  80 115 147 191 237 288 346
#     4  10  21  37  58  85 111 148 189 238 288 343
#     4   9  19  36  56  81 111 151 187 237 283 336
#     4   9  19  37  57  77 117 152 198 234 284 339
#     4  11  21  34  56  83 118 147 196 234 285 340
#     4   9  20  37  57  82 115 154 195 242 279 336
#
# _framework density 23.203651000000001
#
# number of rings (size 3 to 8) (size 9 to 14) (size 15 to 20)
#    0.750    1.750    0.000    1.875    0.000    4.000 
#    0.000    6.875    0.000   36.750    0.000    0.000 
#    0.000    0.000    0.000    0.000    0.000    0.000 
#
# Total GULP energy -178469.708831 kJ/mol
# GULP energy per Si atom -5577.178401 kJ/mol
# Density = 2.315084 g / cm^3
# Si number density = 23.203651 Si / 1000 Ang^3
#
#
#
# Elastic Constant Matrix: (Units=GPa)
#
#
# Indices 1 2 3 4 5 6 
#
# 1 57.5824 10.5387 31.3881 0.0000 -28.2071 0.0000
# 2 10.5387 39.4277 17.0607 0.0000 -13.5181 0.0000
# 3 31.3881 17.0607 57.3618 0.0000 -17.7178 0.0000
# 4 0.0000 0.0000 0.0000 26.6881 0.0000 -4.7253
# 5 -28.2071 -13.5181 -17.7178 0.0000 40.2474 0.0000
# 6 0.0000 0.0000 0.0000 -4.7253 0.0000 10.3667
#
#
#
# Elastic Compliance Matrix: (Units=1/GPa)
#
#
# Indices 1 2 3 4 5 6 
#
# 1 0.033070 0.003254 -0.013388 0.000000 0.018376 0.000000
# 2 0.003254 0.031187 -0.008236 0.000000 0.009130 0.000000
# 3 -0.013388 -0.008236 0.027147 0.000000 -0.000198 0.000000
# 4 0.000000 0.000000 0.000000 0.040759 0.000000 0.018579
# 5 0.018376 0.009130 -0.000198 0.000000 0.040705 0.000000
# 6 0.000000 0.000000 0.000000 0.018579 0.000000 0.104931
#
#
# Mechanical properties :
#
#
# Convention : Reuss Voigt Hill
#
# Bulk Modulus (GPa) = 18.29330 30.26076 24.27703
# Shear Modulus (GPa) = 15.02578 21.81941 18.42259
#
# Velocity S-wave (km/s) = 2.54748 3.06983 2.82077
# Velocity P-wave (km/s) = 4.06864 5.06308 4.59286
#
# Compressibility (1/GPa) = 0.05466484
#
# Stress axis : x y z
#
# Youngs Moduli (GPa) = 30.23867 32.06442 36.83605
#
# Poissons Ratio (x) = -0.10434 0.49315
# Poissons Ratio (y) = -0.09840 0.30340
# Poissons Ratio (z) = 0.40482 0.26409
#
# Static dielectric constant tensor:
#      x y z
#    x 1.907720 0.000000 -0.019740 
#    y 0.000000 1.873920 0.000000 
#    z -0.019740 0.000000 1.939200 
# 
# From -- ./inp_files/308046.got.cif
#   From: 2010.05.17/outbox.cif.g08.bks.cpg/sg15_155_cif.got.tgz:308046.got - 2010.06.03 18:47:42.
