data_PCOD9270535
_publ_section_title
;
Structure prediction by ZEFSAII (Michael W. Deem and Ramdas Pophale) SiO2 
 PCOD9270535
Probable space group: C 2/C
;
_chemical_formula_sum "Si O2"
_cell_formula_units_Z 32
_cell_length_a 12.214735
_cell_length_b 6.943625
_cell_length_c 27.829941
_cell_angle_alpha 90.000000
_cell_angle_beta 147.766069
_cell_angle_gamma 90.000000
_cell_volume 1258.975056
_symmetry_space_group_name_H-M "C 2/C"
_symmetry_group_IT_number 15
_symmetry_cell_setting 'monoclinic'
loop_
_space_group_symop_operation_xyz
x,y,z
-x,y,1/2-z
-x,-y,-z
x,-y,1/2+z
1/2+x,1/2+y,z
1/2-x,1/2+y,1/2-z
1/2-x,1/2-y,-z
1/2+x,1/2-y,1/2+z
loop_
_atom_site_type_symbol
_atom_site_label
_atom_site_fract_x
_atom_site_fract_y
_atom_site_fract_z
Si Si1 0.869899 0.854232 0.363436
Si Si2 0.702832 0.274306 0.061872
Si Si3 0.525075 0.932259 0.103480
Si Si4 0.432051 0.565412 0.291875
O O1 0.848802 0.903683 0.411314
O O2 0.662593 0.764220 0.263717
O O3 0.932366 0.016500 0.348874
O O4 0.009804 0.662486 0.415195
O O5 0.862699 0.373702 0.084606
O O6 0.528597 0.183881 0.964175
O O7 0.830027 0.091190 0.131644
O O8 0.766388 0.916606 0.208347
#
# Coordination Sequence:
#
# PCOD9270535 Si02
#       4
#     8   8   8   8
#     4  10  21  39  56  83 113 147 184 229 273 327
#     4  11  20  40  61  76 118 151 171 237 287 306
#     4   9  21  36  59  87 108 144 193 221 272 345
#     4  10  20  35  60  83 110 145 192 222 265 345
#
# _framework density 25.417503
#
# number of rings (size 3 to 8) (size 9 to 14) (size 15 to 20)
#    1.500    0.500    2.500    1.500    0.000    1.000 
#    0.000   12.500    0.000    0.000    0.000    0.000 
#    0.000    0.000    0.000    0.000    0.000    0.000 
#
# Total GULP energy -89167.789972 kJ/mol
# GULP energy per Si atom -5572.986873 kJ/mol
# Density = 2.535965 g / cm^3
# Si number density = 25.417503 Si / 1000 Ang^3
#
#
#
# Elastic Constant Matrix: (Units=GPa)
#
#
# Indices 1 2 3 4 5 6 
#
# 1 114.1567 45.7567 44.1828 0.0000 -45.3516 0.0000
# 2 45.7567 62.8006 35.0518 -0.0001 -6.8284 0.0001
# 3 44.1828 35.0518 150.1425 0.0001 -16.9717 0.0000
# 4 0.0000 -0.0001 0.0001 43.8985 0.0000 -12.4891
# 5 -45.3516 -6.8284 -16.9717 0.0000 45.4540 0.0000
# 6 0.0000 0.0001 0.0000 -12.4891 0.0000 31.8936
#
#
#
# Elastic Compliance Matrix: (Units=1/GPa)
#
#
# Indices 1 2 3 4 5 6 
#
# 1 0.022729 -0.013691 -0.001213 0.000000 0.020169 0.000000
# 2 -0.013691 0.026619 -0.003422 0.000000 -0.010939 0.000000
# 3 -0.001213 -0.003422 0.007957 0.000000 0.001247 0.000000
# 4 0.000000 0.000000 0.000000 0.025636 0.000000 0.010039
# 5 0.020169 -0.010939 0.001247 0.000000 0.040946 0.000000
# 6 0.000000 0.000000 0.000000 0.010039 0.000000 0.035285
#
#
# Mechanical properties :
#
#
# Convention : Reuss Voigt Hill
#
# Bulk Modulus (GPa) = 48.41562 64.12027 56.26794
# Shear Modulus (GPa) = 24.66599 37.72314 31.19456
#
# Velocity S-wave (km/s) = 3.11856 3.85663 3.50707
# Velocity P-wave (km/s) = 5.66186 6.71663 6.21167
#
# Compressibility (1/GPa) = 0.02065449
#
# Stress axis : x y z
#
# Youngs Moduli (GPa) = 43.99609 37.56674 125.67474
#
# Poissons Ratio (x) = 0.51432 0.15239
# Poissons Ratio (y) = 0.60235 0.43007
# Poissons Ratio (z) = 0.05335 0.12856
#
# Static dielectric constant tensor:
#      x y z
#    x 2.010910 0.000000 -0.025760 
#    y 0.000000 2.033280 0.000000 
#    z -0.025760 0.000000 2.053870 
# 
# From -- ./inp_files/141188.got.cif
#   From: 2010.05.17/outbox.cif.g08.bks.cpg/sg15_71_cif.got.tgz:141188.got - 2010.06.03 18:47:42.
