data_PCOD9270505
_publ_section_title
;
Structure prediction by ZEFSAII (Michael W. Deem and Ramdas Pophale) SiO2 
 PCOD9270505
Probable space group: C 2/C
;
_chemical_formula_sum "Si O2"
_cell_formula_units_Z 28
_cell_length_a 17.083872
_cell_length_b 9.431467
_cell_length_c 7.896114
_cell_angle_alpha 90.000000
_cell_angle_beta 111.604666
_cell_angle_gamma 90.000000
_cell_volume 1182.887717
_symmetry_space_group_name_H-M "C 2/C"
_symmetry_group_IT_number 15
_symmetry_cell_setting 'monoclinic'
loop_
_space_group_symop_operation_xyz
x,y,z
-x,y,1/2-z
-x,-y,-z
x,-y,1/2+z
1/2+x,1/2+y,z
1/2-x,1/2+y,1/2-z
1/2-x,1/2-y,-z
1/2+x,1/2-y,1/2+z
loop_
_atom_site_type_symbol
_atom_site_label
_atom_site_fract_x
_atom_site_fract_y
_atom_site_fract_z
Si Si1 0.662947 0.832842 0.465155
Si Si2 0.000000 0.889121 0.250000
Si Si3 0.285164 0.873577 0.645842
Si Si4 0.396200 0.369590 0.853548
O O1 0.750000 0.750000 0.500000
O O2 0.650638 0.823648 0.656543
O O3 0.602472 0.751557 0.288425
O O4 0.676067 0.995521 0.423615
O O5 0.939380 0.993490 0.307733
O O6 0.056726 0.816745 0.439146
O O7 0.250000 0.750000 0.500000
O O8 0.198577 0.917503 0.672949
#
# Coordination Sequence:
#
# PCOD9270505 Si02
#       4
#     8   4   8   8
#     4  10  20  35  59  90 118 148 193 249 295 344
#     4  10  22  38  58  84 126 168 196 238 278 366
#     4  11  22  38  63  91 121 150 190 255 310 348
#     4  10  21  37  59  89 120 159 203 235 296 353
#
# _framework density 23.670885999999999
#
# number of rings (size 3 to 8) (size 9 to 14) (size 15 to 20)
#    0.000    1.714    0.000    6.857    0.000    6.857 
#    0.000    0.000    0.000   20.571    0.000    0.000 
#    0.000    0.000    0.000    0.000    0.000    0.000 
#
# Total GULP energy -78299.581393 kJ/mol
# GULP energy per Si atom -5592.827242 kJ/mol
# Density = 2.361701 g / cm^3
# Si number density = 23.670886 Si / 1000 Ang^3
#
#
#
# Elastic Constant Matrix: (Units=GPa)
#
#
# Indices 1 2 3 4 5 6 
#
# 1 43.9598 -16.2957 -7.1117 0.0000 0.8476 0.0000
# 2 -16.2957 112.3440 72.3281 0.0000 -9.4349 0.0000
# 3 -7.1117 72.3281 269.5075 0.0000 -17.3051 0.0000
# 4 0.0000 0.0000 0.0000 48.2861 0.0000 -7.5405
# 5 0.8476 -9.4349 -17.3051 0.0000 30.8381 0.0000
# 6 0.0000 0.0000 0.0000 -7.5405 0.0000 11.7698
#
#
#
# Elastic Compliance Matrix: (Units=1/GPa)
#
#
# Indices 1 2 3 4 5 6 
#
# 1 0.024073 0.003741 -0.000350 0.000000 0.000286 0.000000
# 2 0.003741 0.011432 -0.002854 0.000000 0.001793 0.000000
# 3 -0.000350 -0.002854 0.004577 0.000000 0.001705 0.000000
# 4 0.000000 0.000000 0.000000 0.023012 0.000000 0.014743
# 5 0.000286 0.001793 0.001705 0.000000 0.033925 0.000000
# 6 0.000000 0.000000 0.000000 0.014743 0.000000 0.094409
#
#
# Mechanical properties :
#
#
# Convention : Reuss Voigt Hill
#
# Bulk Modulus (GPa) = 24.29828 58.18363 41.24096
# Shear Modulus (GPa) = 24.50116 43.30485 33.90300
#
# Velocity S-wave (km/s) = 3.22075 4.28185 3.78863
# Velocity P-wave (km/s) = 4.91104 7.00566 6.04969
#
# Compressibility (1/GPa) = 0.04115517
#
# Stress axis : x y z
#
# Youngs Moduli (GPa) = 41.54071 87.47312 218.50012
#
# Poissons Ratio (x) = -0.32728 0.07658
# Poissons Ratio (y) = -0.15542 0.62364
# Poissons Ratio (z) = 0.01456 0.24966
#
# Static dielectric constant tensor:
#      x y z
#    x 1.882850 0.000000 -0.024630 
#    y 0.000000 1.862830 0.000000 
#    z -0.024630 0.000000 1.991870 
# 
# From -- ./inp_files/45403.got.cif
#   From: 2010.05.17/outbox.cif.g08.bks.cpg/sg15_23_cif.got.tgz:45403.got - 2010.06.03 18:47:42.
