data_PCOD9270470
_publ_section_title
;
Structure prediction by ZEFSAII (Michael W. Deem and Ramdas Pophale) SiO2 
 PCOD9270470
Probable space group: C 2/C
;
_chemical_formula_sum "Si O2"
_cell_formula_units_Z 32
_cell_length_a 5.040150
_cell_length_b 29.614341
_cell_length_c 9.940221
_cell_angle_alpha 90.000000
_cell_angle_beta 113.371537
_cell_angle_gamma 90.000000
_cell_volume 1361.950912
_symmetry_space_group_name_H-M "C 2/C"
_symmetry_group_IT_number 15
_symmetry_cell_setting 'monoclinic'
loop_
_space_group_symop_operation_xyz
x,y,z
-x,y,1/2-z
-x,-y,-z
x,-y,1/2+z
1/2+x,1/2+y,z
1/2-x,1/2+y,1/2-z
1/2-x,1/2-y,-z
1/2+x,1/2-y,1/2+z
loop_
_atom_site_type_symbol
_atom_site_label
_atom_site_fract_x
_atom_site_fract_y
_atom_site_fract_z
Si Si1 0.884303 0.091994 0.573879
Si Si2 0.888936 0.540572 0.572099
Si Si3 0.234919 0.179031 0.597803
Si Si4 0.839982 0.721444 0.347198
O O1 0.052675 0.053799 0.520487
O O2 0.001745 0.139584 0.546359
O O3 0.000000 0.088091 0.750000
O O4 0.548401 0.082613 0.529366
O O5 0.000000 0.534835 0.750000
O O6 0.000000 0.500000 0.500000
O O7 0.500000 0.167079 0.750000
O O8 0.082744 0.226069 0.611221
O O9 0.378624 0.191803 0.485897
O O10 0.500000 0.722608 0.250000
O O11 0.000000 0.703775 0.250000
#
# Coordination Sequence:
#
# PCOD9270470 Si02
#       4
#     8   8   8   8
#     4  10  20  35  59  86 111 145 194 245 283 343
#     4  10  21  38  59  83 112 145 185 236 297 358
#     4  10  21  38  63  88 118 163 212 250 293 354
#     4  10  23  39  57  86 126 165 202 252 306 350
#
# _framework density 23.495705999999998
#
# number of rings (size 3 to 8) (size 9 to 14) (size 15 to 20)
#    0.000    2.000    0.000    3.750    0.000   15.000 
#    0.000    3.750    0.000    0.000    0.000    0.000 
#    0.000    0.000    0.000    0.000    0.000    0.000 
#
# Total GULP energy -89453.919320 kJ/mol
# GULP energy per Si atom -5590.869958 kJ/mol
# Density = 2.344223 g / cm^3
# Si number density = 23.495706 Si / 1000 Ang^3
#
#
#
# Elastic Constant Matrix: (Units=GPa)
#
#
# Indices 1 2 3 4 5 6 
#
# 1 106.4725 33.8860 40.7274 0.0000 -41.6957 0.0000
# 2 33.8860 119.8531 49.7689 0.0000 -20.9497 0.0000
# 3 40.7274 49.7689 113.5569 0.0000 -47.0038 0.0000
# 4 0.0000 0.0000 0.0000 19.9603 0.0000 -7.6604
# 5 -41.6957 -20.9497 -47.0038 0.0000 40.6270 0.0000
# 6 0.0000 0.0000 0.0000 -7.6604 0.0000 23.7351
#
#
#
# Elastic Compliance Matrix: (Units=1/GPa)
#
#
# Indices 1 2 3 4 5 6 
#
# 1 0.016602 -0.002646 0.003249 0.000000 0.019433 0.000000
# 2 -0.002646 0.010622 -0.004919 0.000000 -0.002929 0.000000
# 3 0.003249 -0.004919 0.019434 0.000000 0.023282 0.000000
# 4 0.000000 0.000000 0.000000 0.057182 0.000000 0.018455
# 5 0.019433 -0.002929 0.023282 0.000000 0.069985 0.000000
# 6 0.000000 0.000000 0.000000 0.018455 0.000000 0.048088
#
#
# Mechanical properties :
#
#
# Convention : Reuss Voigt Hill
#
# Bulk Modulus (GPa) = 26.29779 65.40522 45.85151
# Shear Modulus (GPa) = 20.55758 31.23115 25.89437
#
# Velocity S-wave (km/s) = 2.96117 3.64981 3.32337
# Velocity P-wave (km/s) = 4.78625 6.75715 5.85522
#
# Compressibility (1/GPa) = 0.03802600
#
# Stress axis : x y z
#
# Youngs Moduli (GPa) = 60.23545 94.14205 51.45710
#
# Poissons Ratio (x) = 0.24912 -0.16721
# Poissons Ratio (y) = 0.15940 0.25311
# Poissons Ratio (z) = -0.19573 0.46307
#
# Static dielectric constant tensor:
#      x y z
#    x 1.890030 0.000000 -0.029090 
#    y 0.000000 1.972460 0.000000 
#    z -0.029090 0.000000 1.940170 
# 
# From -- ./inp_files/19961.got.cif
#   From: 2010.05.17/outbox.cif.g08.bks.cpg/sg15_10_cif.got.tgz:19961.got - 2010.06.03 18:47:42.
