data_PCOD9270510
_publ_section_title
;
Structure prediction by ZEFSAII (Michael W. Deem and Ramdas Pophale) SiO2 
 PCOD9270510
Probable space group: C 2/C
;
_chemical_formula_sum "Si O2"
_cell_formula_units_Z 56
_cell_length_a 12.197240
_cell_length_b 20.504183
_cell_length_c 13.093360
_cell_angle_alpha 90.000000
_cell_angle_beta 118.958225
_cell_angle_gamma 90.000000
_cell_volume 2865.165920
_symmetry_space_group_name_H-M "C 2/C"
_symmetry_group_IT_number 15
_symmetry_cell_setting 'monoclinic'
loop_
_space_group_symop_operation_xyz
x,y,z
-x,y,1/2-z
-x,-y,-z
x,-y,1/2+z
1/2+x,1/2+y,z
1/2-x,1/2+y,1/2-z
1/2-x,1/2-y,-z
1/2+x,1/2-y,1/2+z
loop_
_atom_site_type_symbol
_atom_site_label
_atom_site_fract_x
_atom_site_fract_y
_atom_site_fract_z
Si Si1 0.137830 0.297433 0.345071
Si Si2 0.084554 0.913900 0.498680
Si Si3 0.250802 0.659290 0.105495
Si Si4 0.865497 0.169848 0.805244
Si Si5 0.766097 0.324381 0.471587
Si Si6 0.564946 0.547534 0.382301
Si Si7 0.962737 0.318253 0.849871
O O1 0.162774 0.313720 0.474299
O O2 0.155996 0.220014 0.333084
O O3 0.249329 0.330541 0.331010
O O4 0.000000 0.317792 0.250000
O O5 0.203026 0.869299 0.528748
O O6 0.967473 0.883436 0.382832
O O7 0.037861 0.916016 0.593853
O O8 0.109917 0.986550 0.469543
O O9 0.326886 0.597385 0.100853
O O10 0.160728 0.647771 0.161148
O O11 0.808706 0.163499 0.666723
O O12 0.931690 0.240814 0.842622
O O13 0.750000 0.250000 0.500000
O O14 0.914231 0.335090 0.529131
O O15 0.500000 0.523232 0.250000
O O16 0.000000 0.332470 0.750000
#
# Coordination Sequence:
#
# PCOD9270510 Si02
#       7
#     8   8   8   8   8   8   8
#     4  10  20  35  59  90 127 163 197 258 317 368
#     4  11  24  42  65  93 125 161 213 255 309 368
#     4  10  22  38  58  89 127 159 210 250 310 372
#     4  11  20  38  60  91 130 158 210 259 310 373
#     4  12  22  35  62  92 124 166 203 257 320 365
#     4  11  24  42  66  92 121 168 209 258 304 368
#     4  11  22  36  57  92 126 163 200 260 316 371
#
# _framework density 19.545116
#
# number of rings (size 3 to 8) (size 9 to 14) (size 15 to 20)
#    0.000    1.143    4.286    2.571    2.000    1.143 
#    0.000    0.714    0.000    0.857    0.000    0.000 
#    0.000    0.000    0.000    0.000    0.000    0.000 
#
# Total GULP energy -156506.630307 kJ/mol
# GULP energy per Si atom -5589.522511 kJ/mol
# Density = 1.950063 g / cm^3
# Si number density = 19.545116 Si / 1000 Ang^3
#
#
#
# Elastic Constant Matrix: (Units=GPa)
#
#
# Indices 1 2 3 4 5 6 
#
# 1 134.8599 41.3878 16.8356 0.0000 -16.3965 0.0000
# 2 41.3878 63.1634 -17.2413 0.0000 -10.9085 0.0000
# 3 16.8356 -17.2413 50.3550 0.0000 -13.6059 0.0000
# 4 0.0000 0.0000 0.0000 18.9786 0.0000 -3.9976
# 5 -16.3965 -10.9085 -13.6059 0.0000 40.3426 0.0000
# 6 0.0000 0.0000 0.0000 -3.9976 0.0000 34.7511
#
#
#
# Elastic Compliance Matrix: (Units=1/GPa)
#
#
# Indices 1 2 3 4 5 6 
#
# 1 0.011065 -0.009202 -0.006940 0.000000 -0.000331 0.000000
# 2 -0.009202 0.027396 0.014796 0.000000 0.008658 0.000000
# 3 -0.006940 0.014796 0.030328 0.000000 0.011409 0.000000
# 4 0.000000 0.000000 0.000000 0.054000 0.000000 0.006212
# 5 -0.000331 0.008658 0.011409 0.000000 0.030842 0.000000
# 6 0.000000 0.000000 0.000000 0.006212 0.000000 0.029491
#
#
# Mechanical properties :
#
#
# Convention : Reuss Voigt Hill
#
# Bulk Modulus (GPa) = 15.12922 36.70472 25.91697
# Shear Modulus (GPa) = 24.05642 32.64088 28.34865
#
# Velocity S-wave (km/s) = 3.51210 4.09103 3.81257
# Velocity P-wave (km/s) = 4.91975 6.41371 5.71575
#
# Compressibility (1/GPa) = 0.06609724
#
# Stress axis : x y z
#
# Youngs Moduli (GPa) = 90.37320 36.50216 32.97281
#
# Poissons Ratio (x) = 0.33590 0.22883
# Poissons Ratio (y) = 0.83162 -0.48787
# Poissons Ratio (z) = 0.62718 -0.54009
#
# Static dielectric constant tensor:
#      x y z
#    x 1.684640 0.000000 -0.018120 
#    y 0.000000 1.663830 0.000000 
#    z -0.018120 0.000000 1.717900 
# 
# From -- ./inp_files/89058.got.cif
#   From: 2010.05.17/outbox.cif.g08.bks.cpg/sg15_45_cif.got.tgz:89058.got - 2010.06.03 18:47:42.
