data_PCOD9270486
_publ_section_title
;
Structure prediction by ZEFSAII (Michael W. Deem and Ramdas Pophale) SiO2 
 PCOD9270486
Probable space group: C 2/C
;
_chemical_formula_sum "Si O2"
_cell_formula_units_Z 44
_cell_length_a 15.766543
_cell_length_b 12.665766
_cell_length_c 9.192817
_cell_angle_alpha 90.000000
_cell_angle_beta 65.197818
_cell_angle_gamma 90.000000
_cell_volume 1666.434760
_symmetry_space_group_name_H-M "C 2/C"
_symmetry_group_IT_number 15
_symmetry_cell_setting 'monoclinic'
loop_
_space_group_symop_operation_xyz
x,y,z
-x,y,1/2-z
-x,-y,-z
x,-y,1/2+z
1/2+x,1/2+y,z
1/2-x,1/2+y,1/2-z
1/2-x,1/2-y,-z
1/2+x,1/2-y,1/2+z
loop_
_atom_site_type_symbol
_atom_site_label
_atom_site_fract_x
_atom_site_fract_y
_atom_site_fract_z
Si Si1 0.844212 0.134892 0.131815
Si Si2 0.390024 0.095452 0.527871
Si Si3 0.459148 0.749451 0.523207
Si Si4 0.889790 0.389514 0.355526
Si Si5 0.397513 0.561191 0.774565
Si Si6 0.750000 0.750000 0.500000
O O1 0.757194 0.210902 0.176454
O O2 0.844892 0.030605 0.227418
O O3 0.846009 0.104071 0.955214
O O4 0.942514 0.193009 0.096353
O O5 0.498083 0.138531 0.448412
O O6 0.352019 0.100097 0.720539
O O7 0.340334 0.179139 0.461941
O O8 0.363339 0.984215 0.479013
O O9 0.389400 0.779215 0.442805
O O10 0.418619 0.662382 0.660143
O O11 0.000000 0.405798 0.250000
O O12 0.500000 0.520892 0.750000
#
# Coordination Sequence:
#
# PCOD9270486 Si02
#       6
#     8   8   8   8   8   4
#     4  10  22  37  57  81 114 148 184 228 271 331
#     4  10  22  37  57  81 114 148 184 228 271 331
#     4   9  18  33  56  87 114 135 174 228 286 327
#     4  10  20  35  59  88 109 140 183 232 283 321
#     4  10  20  35  59  88 109 140 183 232 283 321
#     4  10  24  40  52  76 112 154 188 218 272 330
#
# _framework density 26.403675
#
# number of rings (size 3 to 8) (size 9 to 14) (size 15 to 20)
#    0.000    2.182    0.000    4.364    0.000   20.364 
#    0.000    0.000    0.000    4.364    0.000    0.000 
#    0.000    0.000    0.000    0.000    0.000    0.000 
#
# Total GULP energy -122475.704962 kJ/mol
# GULP energy per Si atom -5567.077498 kJ/mol
# Density = 2.634358 g / cm^3
# Si number density = 26.403675 Si / 1000 Ang^3
#
#
#
# Elastic Constant Matrix: (Units=GPa)
#
#
# Indices 1 2 3 4 5 6 
#
# 1 53.6456 23.1205 18.1380 0.0000 11.6700 0.0000
# 2 23.1205 123.1056 66.1463 0.0000 34.0744 0.0000
# 3 18.1380 66.1463 114.5112 0.0000 30.7771 0.0000
# 4 0.0000 0.0000 0.0000 86.4469 0.0000 99.5587
# 5 11.6700 34.0744 30.7771 0.0000 31.4071 0.0000
# 6 0.0000 0.0000 0.0000 99.5587 0.0000 193.1065
#
#
#
# Elastic Compliance Matrix: (Units=1/GPa)
#
#
# Indices 1 2 3 4 5 6 
#
# 1 0.020861 -0.002232 -0.000791 0.000000 -0.004555 0.000000
# 2 -0.002232 0.013860 -0.005205 0.000000 -0.009107 0.000000
# 3 -0.000791 -0.005205 0.013939 0.000000 -0.007719 0.000000
# 4 0.000000 0.000000 0.000000 0.028475 0.000000 -0.014681
# 5 -0.004555 -0.009107 -0.007719 0.000000 0.050977 0.000000
# 6 0.000000 0.000000 0.000000 -0.014681 0.000000 0.012747
#
#
# Mechanical properties :
#
#
# Convention : Reuss Voigt Hill
#
# Bulk Modulus (GPa) = 31.05166 56.23022 43.64094
# Shear Modulus (GPa) = 29.75315 74.44929 52.10122
#
# Velocity S-wave (km/s) = 3.36051 5.31580 4.44695
# Velocity P-wave (km/s) = 5.18105 7.68242 6.55221
#
# Compressibility (1/GPa) = 0.03220439
#
# Stress axis : x y z
#
# Youngs Moduli (GPa) = 47.93608 72.15226 71.74107
#
# Poissons Ratio (x) = 0.16108 0.05672
# Poissons Ratio (y) = 0.10702 0.37338
# Poissons Ratio (z) = 0.03790 0.37552
#
# Static dielectric constant tensor:
#      x y z
#    x 1.811570 0.000000 0.096030 
#    y 0.000000 1.774490 0.000000 
#    z 0.096030 0.000000 2.182450 
# 
# From -- ./inp_files/47065.got.cif
#   From: 2010.05.17/outbox.cif.g08.bks.cpg/sg15_24_cif.got.tgz:47065.got - 2010.06.03 18:47:42.
