data_PCOD9270630
_publ_section_title
;
Structure prediction by ZEFSAII (Michael W. Deem and Ramdas Pophale) SiO2 
 PCOD9270630
Probable space group: C 2/C
;
_chemical_formula_sum "Si O2"
_cell_formula_units_Z 56
_cell_length_a 8.873494
_cell_length_b 17.866027
_cell_length_c 27.065934
_cell_angle_alpha 90.000000
_cell_angle_beta 139.856273
_cell_angle_gamma 90.000000
_cell_volume 2766.356806
_symmetry_space_group_name_H-M "C 2/C"
_symmetry_group_IT_number 15
_symmetry_cell_setting 'monoclinic'
loop_
_space_group_symop_operation_xyz
x,y,z
-x,y,1/2-z
-x,-y,-z
x,-y,1/2+z
1/2+x,1/2+y,z
1/2-x,1/2+y,1/2-z
1/2-x,1/2-y,-z
1/2+x,1/2-y,1/2+z
loop_
_atom_site_type_symbol
_atom_site_label
_atom_site_fract_x
_atom_site_fract_y
_atom_site_fract_z
Si Si1 0.363202 0.472293 0.037737
Si Si2 0.265505 0.676735 0.658158
Si Si3 0.775047 0.490696 0.328790
Si Si4 0.276221 0.336604 0.832076
Si Si5 0.190982 0.311834 0.026990
Si Si6 0.698202 0.963507 0.884311
Si Si7 0.735516 0.401539 0.910342
O O1 0.299909 0.390784 0.039165
O O2 0.642555 0.483382 0.109245
O O3 0.249040 0.537535 0.041817
O O4 0.277899 0.477599 0.960238
O O5 0.500000 0.673643 0.750000
O O6 0.157980 0.593790 0.637039
O O7 0.137842 0.751002 0.645359
O O8 0.294533 0.698990 0.607893
O O9 0.500000 0.488504 0.250000
O O10 0.802783 0.553221 0.378061
O O11 0.926590 0.516180 0.319462
O O12 0.271438 0.381613 0.883052
O O13 0.464318 0.376710 0.844020
O O14 0.000000 0.339006 0.750000
O O15 0.250000 0.250000 0.000000
O O16 0.914077 0.332361 0.961638
#
# Coordination Sequence:
#
# PCOD9270630 Si02
#       7
#     8   8   8   8   8   8   8
#     4  10  20  37  59  87 122 154 201 254 308 360
#     4  10  23  40  61  86 131 169 202 251 326 375
#     4  11  21  37  63  90 122 162 209 251 314 374
#     4  10  22  41  61  87 126 161 205 253 312 372
#     4  12  23  38  65  94 127 160 215 268 309 367
#     4  10  20  35  61  88 116 159 201 253 304 365
#     4  11  22  39  64  92 120 162 208 261 305 372
#
# _framework density 20.243231000000002
#
# number of rings (size 3 to 8) (size 9 to 14) (size 15 to 20)
#    0.000    1.429    2.857    3.000    0.000    1.714 
#    0.000    0.000    0.000    3.429    0.000    0.000 
#    0.000    0.000    0.000    0.000    0.000    0.000 
#
# Total GULP energy -155941.831744 kJ/mol
# GULP energy per Si atom -5569.351134 kJ/mol
# Density = 2.019716 g / cm^3
# Si number density = 20.243231 Si / 1000 Ang^3
#
#
#
# Elastic Constant Matrix: (Units=GPa)
#
#
# Indices 1 2 3 4 5 6 
#
# 1 100.5914 34.2416 34.3332 0.0001 28.3769 0.0000
# 2 34.2416 98.1928 24.0213 0.0001 10.4169 0.0000
# 3 34.3332 24.0213 69.6691 0.0001 8.7816 0.0003
# 4 0.0001 0.0001 0.0001 13.2953 0.0001 -3.2004
# 5 28.3769 10.4169 8.7816 0.0001 35.6764 0.0001
# 6 0.0000 0.0000 0.0003 -3.2004 0.0001 23.1704
#
#
#
# Elastic Compliance Matrix: (Units=1/GPa)
#
#
# Indices 1 2 3 4 5 6 
#
# 1 0.015731 -0.003075 -0.005396 0.000000 -0.010287 0.000000
# 2 -0.003075 0.011922 -0.002544 0.000000 -0.000409 0.000000
# 3 -0.005396 -0.002544 0.017808 0.000000 0.000651 0.000000
# 4 0.000000 0.000000 0.000000 0.077801 0.000000 0.010746
# 5 -0.010287 -0.000409 0.000651 0.000000 0.036171 0.000000
# 6 0.000000 0.000000 0.000000 0.010746 0.000000 0.044643
#
#
# Mechanical properties :
#
#
# Convention : Reuss Voigt Hill
#
# Bulk Modulus (GPa) = 42.67556 50.40505 46.54031
# Shear Modulus (GPa) = 21.37526 26.15225 23.76376
#
# Velocity S-wave (km/s) = 3.25302 3.59820 3.42996
# Velocity P-wave (km/s) = 5.93605 6.49742 6.22307
#
# Compressibility (1/GPa) = 0.02343261
#
# Stress axis : x y z
#
# Youngs Moduli (GPa) = 63.56747 83.87909 56.15575
#
# Poissons Ratio (x) = 0.25789 0.30300
# Poissons Ratio (y) = 0.19544 0.14285
# Poissons Ratio (z) = 0.34300 0.21337
#
# Static dielectric constant tensor:
#      x y z
#    x 1.752080 0.000000 0.025920 
#    y 0.000000 1.745590 0.000000 
#    z 0.025920 0.000000 1.821390 
# 
# From -- ./inp_files/265450.got.cif
#   From: 2010.05.17/outbox.cif.g08.bks.cpg/sg15_133_cif.got.tgz:265450.got - 2010.06.03 18:47:42.
