data_PCOD9270463
_publ_section_title
;
Structure prediction by ZEFSAII (Michael W. Deem and Ramdas Pophale) SiO2 
 PCOD9270463
Probable space group: C 2/C
;
_chemical_formula_sum "Si O2"
_cell_formula_units_Z 52
_cell_length_a 9.920180
_cell_length_b 25.808345
_cell_length_c 14.888312
_cell_angle_alpha 90.000000
_cell_angle_beta 133.584265
_cell_angle_gamma 90.000000
_cell_volume 2761.088725
_symmetry_space_group_name_H-M "C 2/C"
_symmetry_group_IT_number 15
_symmetry_cell_setting 'monoclinic'
loop_
_space_group_symop_operation_xyz
x,y,z
-x,y,1/2-z
-x,-y,-z
x,-y,1/2+z
1/2+x,1/2+y,z
1/2-x,1/2+y,1/2-z
1/2-x,1/2-y,-z
1/2+x,1/2-y,1/2+z
loop_
_atom_site_type_symbol
_atom_site_label
_atom_site_fract_x
_atom_site_fract_y
_atom_site_fract_z
Si Si1 0.000000 0.634401 0.750000
Si Si2 0.000000 0.639394 0.250000
Si Si3 0.598415 0.058692 0.445703
Si Si4 0.013454 0.051020 0.566947
Si Si5 0.500000 0.315175 0.250000
Si Si6 0.090592 0.552335 0.651199
Si Si7 0.782445 0.769008 0.913155
Si Si8 0.090793 0.838283 0.092528
O O1 0.019595 0.594843 0.842158
O O2 0.812345 0.665234 0.685344
O O3 0.989715 0.602583 0.158360
O O4 0.828615 0.678993 0.163024
O O5 0.581209 0.068674 0.543435
O O6 0.816612 0.053447 0.526100
O O7 0.499955 0.004033 0.379731
O O8 0.197880 0.049311 0.714185
O O9 0.036144 0.105912 0.525429
O O10 0.000000 0.000000 0.500000
O O11 0.319386 0.278229 0.182353
O O12 0.506773 0.343614 0.156795
O O13 0.750000 0.750000 0.000000
O O14 0.993548 0.788006 0.005206
#
# Coordination Sequence:
#
# PCOD9270463 Si02
#       8
#     4   4   8   8   4   8   8   8
#     4  10  21  36  57  82 122 161 200 241 310 374
#     4  11  19  34  62  88 116 154 202 259 315 366
#     4  11  21  36  56  85 117 161 213 247 307 366
#     4  11  21  34  58  84 119 160 206 250 302 375
#     4   9  20  36  61  88 118 143 204 264 301 372
#     4  10  23  36  52  83 125 163 203 257 295 369
#     4   9  19  35  57  91 118 146 199 266 314 361
#     4  10  20  35  59  85 114 159 194 248 316 358
#
# _framework density 18.833151000000001
#
# number of rings (size 3 to 8) (size 9 to 14) (size 15 to 20)
#    0.000    1.846    1.538    3.692    4.308    0.000 
#    0.000    0.769    0.000    0.000    0.000    0.000 
#    0.000    0.000    0.000    0.000    0.000    0.000 
#
# Total GULP energy -144821.038200 kJ/mol
# GULP energy per Si atom -5570.039931 kJ/mol
# Density = 1.879029 g / cm^3
# Si number density = 18.833151 Si / 1000 Ang^3
#
#
#
# Elastic Constant Matrix: (Units=GPa)
#
#
# Indices 1 2 3 4 5 6 
#
# 1 94.7017 38.8529 33.5622 0.0000 19.9577 0.0000
# 2 38.8529 81.1971 41.7612 0.0000 0.8634 0.0000
# 3 33.5622 41.7612 83.7983 0.0000 4.4346 0.0000
# 4 0.0000 0.0000 0.0000 27.9254 0.0000 -1.3322
# 5 19.9577 0.8634 4.4346 0.0000 19.8054 0.0000
# 6 0.0000 0.0000 0.0000 -1.3322 0.0000 15.5274
#
#
#
# Elastic Compliance Matrix: (Units=1/GPa)
#
#
# Indices 1 2 3 4 5 6 
#
# 1 0.018082 -0.007011 -0.002833 0.000000 -0.017281 0.000000
# 2 -0.007011 0.019304 -0.007227 0.000000 0.007842 0.000000
# 3 -0.002833 -0.007227 0.016700 0.000000 -0.000569 0.000000
# 4 0.000000 0.000000 0.000000 0.035957 0.000000 0.003085
# 5 -0.017281 0.007842 -0.000569 0.000000 0.067691 0.000000
# 6 0.000000 0.000000 0.000000 0.003085 0.000000 0.064667
#
#
# Mechanical properties :
#
#
# Convention : Reuss Voigt Hill
#
# Bulk Modulus (GPa) = 50.14426 54.22774 52.18600
# Shear Modulus (GPa) = 18.99756 22.35305 20.67530
#
# Velocity S-wave (km/s) = 3.17950 3.44888 3.31692
# Velocity P-wave (km/s) = 6.33737 6.68700 6.51453
#
# Compressibility (1/GPa) = 0.01994246
#
# Stress axis : x y z
#
# Youngs Moduli (GPa) = 55.30397 51.80195 59.87980
#
# Poissons Ratio (x) = 0.36319 0.16967
# Poissons Ratio (y) = 0.38774 0.43277
# Poissons Ratio (z) = 0.15670 0.37439
#
# Static dielectric constant tensor:
#      x y z
#    x 1.651480 0.000000 0.016820 
#    y 0.000000 1.687970 0.000000 
#    z 0.016820 0.000000 1.739370 
# 
# From -- ./inp_files/138799.got.cif
#   From: 2010.05.17/outbox.cif.g08.bks.cpg/sg15_70_cif.got.tgz:138799.got - 2010.06.03 18:47:42.
