data_PCOD9270061
_publ_section_title
;
Structure prediction by ZEFSAII (Michael W. Deem and Ramdas Pophale) SiO2 
 PCOD9270061
Probable space group: C 2/C
;
_chemical_formula_sum "Si O2"
_cell_formula_units_Z 64
_cell_length_a 9.164692
_cell_length_b 20.107824
_cell_length_c 17.693705
_cell_angle_alpha 90.000000
_cell_angle_beta 92.171008
_cell_angle_gamma 90.000000
_cell_volume 3258.291149
_symmetry_space_group_name_H-M "C 2/C"
_symmetry_group_IT_number 15
_symmetry_cell_setting 'monoclinic'
loop_
_space_group_symop_operation_xyz
x,y,z
-x,y,1/2-z
-x,-y,-z
x,-y,1/2+z
1/2+x,1/2+y,z
1/2-x,1/2+y,1/2-z
1/2-x,1/2-y,-z
1/2+x,1/2-y,1/2+z
loop_
_atom_site_type_symbol
_atom_site_label
_atom_site_fract_x
_atom_site_fract_y
_atom_site_fract_z
Si Si1 0.206232 0.598134 0.606089
Si Si2 0.142540 0.588816 0.298939
Si Si3 0.058776 0.507457 0.919212
Si Si4 0.513379 0.201532 0.841327
Si Si5 0.064676 0.147295 0.168858
Si Si6 0.211251 0.116486 0.603080
Si Si7 0.543827 0.578202 0.006989
Si Si8 0.839826 0.035238 0.749691
O O1 0.124220 0.667575 0.618564
O O2 0.297666 0.589596 0.530303
O O3 0.315899 0.576010 0.673178
O O4 0.071196 0.548321 0.621706
O O5 0.089842 0.560164 0.377631
O O6 0.261440 0.645450 0.313098
O O7 0.224434 0.524142 0.263374
O O8 0.000000 0.608188 0.250000
O O9 0.198756 0.553625 0.926514
O O10 0.000000 0.500000 0.000000
O O11 0.500000 0.186080 0.750000
O O12 0.498980 0.280286 0.850545
O O13 0.666103 0.173179 0.878749
O O14 0.040500 0.099890 0.095236
O O15 0.000000 0.130388 0.250000
O O16 0.164645 0.088928 0.683546
O O17 0.073958 0.122015 0.543845
O O18 0.500000 0.500000 0.000000
O O19 0.000000 0.005482 0.750000
#
# Coordination Sequence:
#
# PCOD9270061 Si02
#       8
#     8   8   8   8   8   8   8   8
#     4  11  21  36  67  91 125 166 207 279 309 386
#     4  11  22  37  60  90 122 166 215 250 326 409
#     4  10  20  35  54  89 127 154 196 260 324 372
#     4  10  22  44  65  92 130 177 232 262 321 395
#     4  11  27  46  64  88 136 182 210 277 339 397
#     4  10  21  35  64  92 124 168 214 265 310 391
#     4  12  25  42  62 104 136 162 224 278 340 396
#     4  11  19  34  61 101 126 156 209 269 338 373
#
# _framework density 19.642196999999999
#
# number of rings (size 3 to 8) (size 9 to 14) (size 15 to 20)
#    0.000    1.250    3.750    3.375    1.750    2.000 
#    0.000    3.125    0.000    0.000    0.000    0.000 
#    0.000    0.000    0.000    0.000    0.000    0.000 
#
# Total GULP energy -178364.820086 kJ/mol
# GULP energy per Si atom -5573.900628 kJ/mol
# Density = 1.959749 g / cm^3
# Si number density = 19.642197 Si / 1000 Ang^3
#
#
#
# Elastic Constant Matrix: (Units=GPa)
#
#
# Indices 1 2 3 4 5 6 
#
# 1 96.4596 23.1939 15.0985 0.0000 13.1924 0.0000
# 2 23.1939 79.7192 24.3872 0.0000 1.5567 0.0000
# 3 15.0985 24.3872 89.8230 0.0000 -8.1941 0.0000
# 4 0.0000 0.0000 0.0000 14.2958 0.0000 0.5272
# 5 13.1924 1.5567 -8.1941 0.0000 39.1729 0.0000
# 6 0.0000 0.0000 0.0000 0.5272 0.0000 21.4569
#
#
#
# Elastic Compliance Matrix: (Units=1/GPa)
#
#
# Indices 1 2 3 4 5 6 
#
# 1 0.011889 -0.002887 -0.001600 0.000000 -0.004224 0.000000
# 2 -0.002887 0.014451 -0.003468 0.000000 -0.000327 0.000000
# 3 -0.001600 -0.003468 0.012647 0.000000 0.003322 0.000000
# 4 0.000000 0.000000 0.000000 0.070014 0.000000 -0.001720
# 5 -0.004224 -0.000327 0.003322 0.000000 0.027658 0.000000
# 6 0.000000 0.000000 0.000000 -0.001720 0.000000 0.046647
#
#
# Mechanical properties :
#
#
# Convention : Reuss Voigt Hill
#
# Bulk Modulus (GPa) = 43.33364 43.48456 43.40910
# Shear Modulus (GPa) = 24.16508 28.53993 26.35250
#
# Velocity S-wave (km/s) = 3.51132 3.81595 3.66680
# Velocity P-wave (km/s) = 6.20875 6.44993 6.33049
#
# Compressibility (1/GPa) = 0.02307676
#
# Stress axis : x y z
#
# Youngs Moduli (GPa) = 84.10857 69.19750 79.07261
#
# Poissons Ratio (x) = 0.19979 0.12651
# Poissons Ratio (y) = 0.24284 0.27423
# Poissons Ratio (z) = 0.13457 0.23999
#
# Static dielectric constant tensor:
#      x y z
#    x 1.708160 0.000000 0.057420 
#    y 0.000000 1.541300 0.000000 
#    z 0.057420 0.000000 1.771590 
# 
# From -- ./inp_files/192169.got.cif
#   From: 2010.05.17/outbox.cif.g08.bks.cpg/sg15_97_cif.got.tgz:192169.got - 2010.06.03 18:47:42.
