data_PCOD9270840
_publ_section_title
;
Structure prediction by ZEFSAII (Michael W. Deem and Ramdas Pophale) SiO2 
 PCOD9270840
Probable space group: C 2/C
;
_chemical_formula_sum "Si O2"
_cell_formula_units_Z 64
_cell_length_a 14.552803
_cell_length_b 13.763966
_cell_length_c 18.055183
_cell_angle_alpha 90.000000
_cell_angle_beta 55.378719
_cell_angle_gamma 90.000000
_cell_volume 2976.134841
_symmetry_space_group_name_H-M "C 2/C"
_symmetry_group_IT_number 15
_symmetry_cell_setting 'monoclinic'
loop_
_space_group_symop_operation_xyz
x,y,z
-x,y,1/2-z
-x,-y,-z
x,-y,1/2+z
1/2+x,1/2+y,z
1/2-x,1/2+y,1/2-z
1/2-x,1/2-y,-z
1/2+x,1/2-y,1/2+z
loop_
_atom_site_type_symbol
_atom_site_label
_atom_site_fract_x
_atom_site_fract_y
_atom_site_fract_z
Si Si1 0.134651 0.199151 0.689816
Si Si2 0.570225 0.541471 0.899632
Si Si3 0.038042 0.363720 0.520364
Si Si4 0.616975 0.104988 0.275197
Si Si5 0.666322 0.935531 0.971850
Si Si6 0.278793 0.005564 0.894644
Si Si7 0.131448 0.825429 0.023511
Si Si8 0.690470 0.515821 0.213795
O O1 0.164537 0.292178 0.725220
O O2 0.168599 0.207148 0.588156
O O3 0.179060 0.098333 0.702020
O O4 0.000000 0.197488 0.750000
O O5 0.691410 0.560761 0.880546
O O6 0.493125 0.629096 0.908816
O O7 0.591833 0.470476 0.819454
O O8 0.500000 0.500000 0.000000
O O9 0.114700 0.458143 0.475081
O O10 0.106664 0.265160 0.481853
O O11 0.991766 0.373579 0.625999
O O12 0.929882 0.365739 0.516398
O O13 0.621805 0.036809 0.200900
O O14 0.700246 0.050811 0.292772
O O15 0.786442 0.931640 0.875256
O O16 0.682878 0.933896 0.052043
O O17 0.210700 0.911202 0.957296
#
# Coordination Sequence:
#
# PCOD9270840 Si02
#       8
#     8   8   8   8   8   8   8   8
#     4  12  20  32  60  87 106 145 190 229 280 328
#     4   9  19  35  52  78 113 144 173 229 287 325
#     4  10  21  36  50  77 115 147 172 233 282 321
#     4  10  22  35  52  82 116 143 182 232 283 324
#     4  10  21  34  52  76 112 146 185 214 279 337
#     4  10  21  34  55  82 109 144 189 225 274 336
#     4  11  20  34  56  83 111 134 188 236 274 322
#     4  10  20  36  52  80 114 146 179 231 277 329
#
# _framework density 21.504401999999999
#
# number of rings (size 3 to 8) (size 9 to 14) (size 15 to 20)
#    0.000    1.750    3.750    0.750    1.750    1.000 
#    0.000    0.625    0.000    0.000    0.000    0.875 
#   15.000    0.000    0.000    0.000    0.000    0.000 
#
# Total GULP energy -178457.804376 kJ/mol
# GULP energy per Si atom -5576.806387 kJ/mol
# Density = 2.145546 g / cm^3
# Si number density = 21.504402 Si / 1000 Ang^3
#
#
#
# Elastic Constant Matrix: (Units=GPa)
#
#
# Indices 1 2 3 4 5 6 
#
# 1 82.8314 29.4725 21.8731 0.0000 0.1360 0.0000
# 2 29.4725 39.5970 10.5408 0.0000 3.7877 0.0000
# 3 21.8731 10.5408 109.0490 0.0000 7.1643 0.0000
# 4 0.0000 0.0000 0.0000 25.5260 0.0000 8.4872
# 5 0.1360 3.7877 7.1643 0.0000 35.8179 0.0000
# 6 0.0000 0.0000 0.0000 8.4872 0.0000 21.5154
#
#
#
# Elastic Compliance Matrix: (Units=1/GPa)
#
#
# Indices 1 2 3 4 5 6 
#
# 1 0.017037 -0.012218 -0.002348 0.000000 0.001697 0.000000
# 2 -0.012218 0.034867 -0.000689 0.000000 -0.003503 0.000000
# 3 -0.002348 -0.000689 0.009832 0.000000 -0.001885 0.000000
# 4 0.000000 0.000000 0.000000 0.045090 0.000000 -0.017786
# 5 0.001697 -0.003503 -0.001885 0.000000 0.028660 0.000000
# 6 0.000000 0.000000 0.000000 -0.017786 0.000000 0.053494
#
#
# Mechanical properties :
#
#
# Convention : Reuss Voigt Hill
#
# Bulk Modulus (GPa) = 32.02565 39.47225 35.74895
# Shear Modulus (GPa) = 21.74858 27.87794 24.81326
#
# Velocity S-wave (km/s) = 3.18363 3.60444 3.40055
# Velocity P-wave (km/s) = 5.33282 5.97645 5.66378
#
# Compressibility (1/GPa) = 0.03122497
#
# Stress axis : x y z
#
# Youngs Moduli (GPa) = 58.69434 28.68009 101.71319
#
# Poissons Ratio (x) = 0.35043 0.23880
# Poissons Ratio (y) = 0.71716 0.07012
# Poissons Ratio (z) = 0.13780 0.01977
#
# Static dielectric constant tensor:
#      x y z
#    x 1.815150 0.000000 -0.012490 
#    y 0.000000 1.774560 0.000000 
#    z -0.012490 0.000000 1.908980 
# 
# From -- ./inp_files/205419.got.cif
#   From: 2010.05.17/outbox.cif.g08.bks.cpg/sg15_103_cif.got.tgz:205419.got - 2010.06.03 18:47:42.
