data_PCOD9270773
_publ_section_title
;
Structure prediction by ZEFSAII (Michael W. Deem and Ramdas Pophale) SiO2 
 PCOD9270773
Probable space group: C 2/C
;
_chemical_formula_sum "Si O2"
_cell_formula_units_Z 52
_cell_length_a 13.481267
_cell_length_b 8.484689
_cell_length_c 23.166251
_cell_angle_alpha 90.000000
_cell_angle_beta 73.247684
_cell_angle_gamma 90.000000
_cell_volume 2537.396057
_symmetry_space_group_name_H-M "C 2/C"
_symmetry_group_IT_number 15
_symmetry_cell_setting 'monoclinic'
loop_
_space_group_symop_operation_xyz
x,y,z
-x,y,1/2-z
-x,-y,-z
x,-y,1/2+z
1/2+x,1/2+y,z
1/2-x,1/2+y,1/2-z
1/2-x,1/2-y,-z
1/2+x,1/2-y,1/2+z
loop_
_atom_site_type_symbol
_atom_site_label
_atom_site_fract_x
_atom_site_fract_y
_atom_site_fract_z
Si Si1 0.408816 0.041213 0.658426
Si Si2 0.820859 0.011839 0.082901
Si Si3 0.388945 0.829313 0.553498
Si Si4 0.500000 0.147604 0.250000
Si Si5 0.700457 0.722574 0.658623
Si Si6 0.479901 0.695989 0.429197
Si Si7 0.292021 0.471350 0.457497
O O1 0.291926 0.116655 0.673333
O O2 0.484244 0.180114 0.624191
O O3 0.420738 0.905006 0.608233
O O4 0.445485 0.964536 0.711586
O O5 0.745632 0.102465 0.138775
O O6 0.936505 0.057504 0.082178
O O7 0.818497 0.824357 0.078365
O O8 0.804906 0.081231 0.021154
O O9 0.475151 0.775024 0.493485
O O10 0.322390 0.961970 0.532391
O O11 0.407689 0.255829 0.290944
O O12 0.684003 0.646508 0.598281
O O13 0.369491 0.618958 0.437529
#
# Coordination Sequence:
#
# PCOD9270773 Si02
#       7
#     8   8   8   4   8   8   8
#     4  10  25  45  62  95 124 169 225 265 321 390
#     4  10  20  35  64  96 132 159 200 267 322 400
#     4  10  20  35  64  96 132 159 200 267 322 400
#     4  12  28  44  74  82 132 184 222 276 328 366
#     4  10  25  45  62  95 124 169 225 265 321 390
#     4  10  20  36  61  99 127 165 200 258 339 388
#     4  10  20  36  61  99 127 165 200 258 339 388
#
# _framework density 20.493452000000001
#
# number of rings (size 3 to 8) (size 9 to 14) (size 15 to 20)
#    0.000    1.846    0.000    4.615    8.615    1.231 
#    5.538    0.000    0.000    0.000    0.000    0.000 
#    0.000    0.000    0.000    0.000    0.000    0.000 
#
# Total GULP energy -145166.940352 kJ/mol
# GULP energy per Si atom -5583.343860 kJ/mol
# Density = 2.044681 g / cm^3
# Si number density = 20.493452 Si / 1000 Ang^3
#
#
#
# Elastic Constant Matrix: (Units=GPa)
#
#
# Indices 1 2 3 4 5 6 
#
# 1 59.5393 13.4594 23.7909 0.0000 -10.4799 0.0000
# 2 13.4594 61.8548 23.2666 0.0000 -6.8210 0.0000
# 3 23.7909 23.2666 38.5032 0.0000 -1.1067 0.0000
# 4 0.0000 0.0000 0.0000 9.6306 0.0000 2.9460
# 5 -10.4799 -6.8210 -1.1067 0.0000 43.4182 0.0000
# 6 0.0000 0.0000 0.0000 2.9460 0.0000 18.4282
#
#
#
# Elastic Compliance Matrix: (Units=1/GPa)
#
#
# Indices 1 2 3 4 5 6 
#
# 1 0.023522 0.001156 -0.015075 0.000000 0.005475 0.000000
# 2 0.001156 0.021368 -0.013532 0.000000 0.003291 0.000000
# 3 -0.015075 -0.013532 0.043330 0.000000 -0.004660 0.000000
# 4 0.000000 0.000000 0.000000 0.109174 0.000000 -0.017453
# 5 0.005475 0.003291 -0.004660 0.000000 0.024752 0.000000
# 6 0.000000 0.000000 0.000000 -0.017453 0.000000 0.057055
#
#
# Mechanical properties :
#
#
# Convention : Reuss Voigt Hill
#
# Bulk Modulus (GPa) = 30.01423 31.21455 30.61439
# Shear Modulus (GPa) = 14.48401 20.92078 17.70239
#
# Velocity S-wave (km/s) = 2.66139 3.19854 2.94225
# Velocity P-wave (km/s) = 4.91137 5.37638 5.14912
#
# Compressibility (1/GPa) = 0.03331753
#
# Stress axis : x y z
#
# Youngs Moduli (GPa) = 42.51388 46.79820 23.07882
#
# Poissons Ratio (x) = -0.05410 0.34791
# Poissons Ratio (y) = -0.04914 0.31230
# Poissons Ratio (z) = 0.64090 0.63328
#
# Static dielectric constant tensor:
#      x y z
#    x 1.723530 0.000000 0.000000 
#    y 0.000000 1.741380 0.000000 
#    z 0.000000 0.000000 1.713150 
# 
# From -- ./inp_files/242413.got.cif
#   From: 2010.05.17/outbox.cif.g08.bks.cpg/sg15_122_cif.got.tgz:242413.got - 2010.06.03 18:47:42.
