data_PCOD9270156
_publ_section_title
;
Structure prediction by ZEFSAII (Michael W. Deem and Ramdas Pophale) SiO2 
 PCOD9270156
Probable space group: C 2/C
;
_chemical_formula_sum "Si O2"
_cell_formula_units_Z 48
_cell_length_a 8.490732
_cell_length_b 32.607910
_cell_length_c 13.763736
_cell_angle_alpha 90.000000
_cell_angle_beta 38.688048
_cell_angle_gamma 90.000000
_cell_volume 2381.989954
_symmetry_space_group_name_H-M "C 2/C"
_symmetry_group_IT_number 15
_symmetry_cell_setting 'monoclinic'
loop_
_space_group_symop_operation_xyz
x,y,z
-x,y,1/2-z
-x,-y,-z
x,-y,1/2+z
1/2+x,1/2+y,z
1/2-x,1/2+y,1/2-z
1/2-x,1/2-y,-z
1/2+x,1/2-y,1/2+z
loop_
_atom_site_type_symbol
_atom_site_label
_atom_site_fract_x
_atom_site_fract_y
_atom_site_fract_z
Si Si1 0.753366 0.707668 0.437337
Si Si2 0.627712 0.030356 0.082108
Si Si3 0.739353 0.952074 0.918816
Si Si4 0.271039 0.616984 0.064765
Si Si5 0.790613 0.621759 0.934835
Si Si6 0.739089 0.209185 0.564727
O O1 0.750000 0.750000 0.500000
O O2 0.740973 0.660761 0.486666
O O3 0.497663 0.707708 0.499117
O O4 0.000000 0.709018 0.250000
O O5 0.500000 0.024591 0.250000
O O6 0.420632 0.035168 0.097509
O O7 0.780556 0.073064 0.006964
O O8 0.776367 0.990037 0.975363
O O9 0.000000 0.937363 0.750000
O O10 0.633216 0.914131 0.029755
O O11 0.000000 0.615569 0.250000
O O12 0.512575 0.616279 0.020702
O O13 0.786421 0.667087 0.983073
O O14 0.000000 0.622374 0.750000
O O15 0.500000 0.211208 0.750000
O O16 0.750000 0.250000 0.500000
#
# Coordination Sequence:
#
# PCOD9270156 Si02
#       6
#     8   8   8   8   8   8
#     4  10  20  35  56  83 112 147 189 230 279 336
#     4  10  22  39  58  83 115 149 190 242 292 343
#     4  11  23  37  59  88 113 151 199 236 288 353
#     4   9  19  37  59  80 111 153 190 232 284 337
#     4  10  22  39  59  85 119 156 195 241 291 343
#     4  10  21  37  57  84 117 153 192 237 288 339
#
# _framework density 20.151218
#
# number of rings (size 3 to 8) (size 9 to 14) (size 15 to 20)
#    0.000    2.000    0.000    3.500    0.000    7.333 
#    0.000    0.833    0.000    0.000    0.000    0.000 
#    0.000    0.000    0.000    0.000    0.000    0.000 
#
# Total GULP energy -133687.399843 kJ/mol
# GULP energy per Si atom -5570.308327 kJ/mol
# Density = 2.010535 g / cm^3
# Si number density = 20.151218 Si / 1000 Ang^3
#
#
#
# Elastic Constant Matrix: (Units=GPa)
#
#
# Indices 1 2 3 4 5 6 
#
# 1 46.2333 19.3001 24.5746 0.0000 -1.3874 0.0000
# 2 19.3001 164.9030 23.2595 0.0000 33.7804 0.0000
# 3 24.5746 23.2595 71.9669 0.0000 -10.2851 0.0000
# 4 0.0000 0.0000 0.0000 25.6207 0.0000 0.8418
# 5 -1.3874 33.7804 -10.2851 0.0000 33.2678 0.0000
# 6 0.0000 0.0000 0.0000 0.8418 0.0000 34.2117
#
#
#
# Elastic Compliance Matrix: (Units=1/GPa)
#
#
# Indices 1 2 3 4 5 6 
#
# 1 0.027021 -0.002103 -0.008455 0.000000 0.000648 0.000000
# 2 -0.002103 0.008929 -0.003637 0.000000 -0.010278 0.000000
# 3 -0.008455 -0.003637 0.019287 0.000000 0.009303 0.000000
# 4 0.000000 0.000000 0.000000 0.039063 0.000000 -0.000961
# 5 0.000648 -0.010278 0.009303 0.000000 0.043399 0.000000
# 6 0.000000 0.000000 0.000000 -0.000961 0.000000 0.029253
#
#
# Mechanical properties :
#
#
# Convention : Reuss Voigt Hill
#
# Bulk Modulus (GPa) = 37.24581 46.37462 41.81021
# Shear Modulus (GPa) = 24.47519 33.01796 28.74657
#
# Velocity S-wave (km/s) = 3.48886 4.05224 3.78106
# Velocity P-wave (km/s) = 5.89515 6.70503 6.31309
#
# Compressibility (1/GPa) = 0.02684866
#
# Stress axis : x y z
#
# Youngs Moduli (GPa) = 37.00886 111.99805 51.84806
#
# Poissons Ratio (x) = 0.23550 0.43835
# Poissons Ratio (y) = 0.07782 0.18855
# Poissons Ratio (z) = 0.31289 0.40730
#
# Static dielectric constant tensor:
#      x y z
#    x 1.712310 0.000000 -0.005310 
#    y 0.000000 1.778930 0.000000 
#    z -0.005310 0.000000 1.692170 
# 
# From -- ./inp_files/139380.got.cif
#   From: 2010.05.17/outbox.cif.g08.bks.cpg/sg15_70_cif.got.tgz:139380.got - 2010.06.03 18:47:42.
