data_PCOD9270125
_publ_section_title
;
Structure prediction by ZEFSAII (Michael W. Deem and Ramdas Pophale) SiO2 
 PCOD9270125
Probable space group: C 2/C
;
_chemical_formula_sum "Si O2"
_cell_formula_units_Z 64
_cell_length_a 11.499133
_cell_length_b 15.180431
_cell_length_c 20.781015
_cell_angle_alpha 90.000000
_cell_angle_beta 115.591951
_cell_angle_gamma 90.000000
_cell_volume 3271.681935
_symmetry_space_group_name_H-M "C 2/C"
_symmetry_group_IT_number 15
_symmetry_cell_setting 'monoclinic'
loop_
_space_group_symop_operation_xyz
x,y,z
-x,y,1/2-z
-x,-y,-z
x,-y,1/2+z
1/2+x,1/2+y,z
1/2-x,1/2+y,1/2-z
1/2-x,1/2-y,-z
1/2+x,1/2-y,1/2+z
loop_
_atom_site_type_symbol
_atom_site_label
_atom_site_fract_x
_atom_site_fract_y
_atom_site_fract_z
Si Si1 0.103993 0.418717 0.718902
Si Si2 0.220297 0.967812 0.437291
Si Si3 0.868229 0.227598 0.760322
Si Si4 0.464022 0.125448 0.051236
Si Si5 0.579203 0.167769 0.942114
Si Si6 0.674082 0.080226 0.671751
Si Si7 0.625980 0.364448 0.987540
Si Si8 0.017324 0.176241 0.919914
O O1 0.180079 0.328421 0.749823
O O2 0.178048 0.509862 0.729841
O O3 0.000000 0.427096 0.750000
O O4 0.032838 0.403160 0.633292
O O5 0.343714 0.938507 0.509532
O O6 0.276596 0.972294 0.379197
O O7 0.123720 0.885815 0.415212
O O8 0.142187 0.051814 0.444938
O O9 0.766701 0.161701 0.706416
O O10 0.907294 0.197295 0.841269
O O11 0.000000 0.227092 0.750000
O O12 0.423790 0.227865 0.049223
O O13 0.555548 0.131451 0.009746
O O14 0.468259 0.119761 0.875150
O O15 0.573051 0.274399 0.942310
O O16 0.725121 0.150184 0.956049
O O17 0.539889 0.371322 0.030774
#
# Coordination Sequence:
#
# PCOD9270125 Si02
#       8
#     8   8   8   8   8   8   8   8
#     4  10  22  39  59  86 115 154 201 241 284 345
#     4  11  20  34  60  89 118 147 193 244 292 355
#     4  10  21  42  59  78 118 161 193 242 290 342
#     4   9  19  36  61  85 110 154 199 237 288 345
#     4   9  20  38  59  83 120 155 187 241 295 353
#     4  11  22  39  63  86 113 157 204 235 290 354
#     4  10  20  35  55  89 122 149 185 243 303 342
#     4  10  20  36  56  82 118 156 190 239 296 341
#
# _framework density 19.561803999999999
#
# number of rings (size 3 to 8) (size 9 to 14) (size 15 to 20)
#    0.000    2.000    1.250    2.250    0.000    5.000 
#    2.250    0.000    0.000    0.000    0.000    0.000 
#    0.000    0.000    0.000    0.000    0.000    0.000 
#
# Total GULP energy -178518.430545 kJ/mol
# GULP energy per Si atom -5578.700955 kJ/mol
# Density = 1.951728 g / cm^3
# Si number density = 19.561804 Si / 1000 Ang^3
#
#
#
# Elastic Constant Matrix: (Units=GPa)
#
#
# Indices 1 2 3 4 5 6 
#
# 1 54.2984 45.4834 2.2887 0.0000 -8.9671 0.0000
# 2 45.4834 132.0491 30.0126 0.0000 -8.3014 0.0000
# 3 2.2887 30.0126 34.8910 0.0000 -6.7128 0.0000
# 4 0.0000 0.0000 0.0000 24.6989 0.0000 -5.5431
# 5 -8.9671 -8.3014 -6.7128 0.0000 17.4570 0.0000
# 6 0.0000 0.0000 0.0000 -5.5431 0.0000 33.4278
#
#
#
# Elastic Compliance Matrix: (Units=1/GPa)
#
#
# Indices 1 2 3 4 5 6 
#
# 1 0.030451 -0.012136 0.011167 0.000000 0.014165 0.000000
# 2 -0.012136 0.014285 -0.012294 0.000000 -0.004168 0.000000
# 3 0.011167 -0.012294 0.041556 0.000000 0.015870 0.000000
# 4 0.000000 0.000000 0.000000 0.042053 0.000000 0.006973
# 5 0.014165 -0.004168 0.015870 0.000000 0.068680 0.000000
# 6 0.000000 0.000000 0.000000 0.006973 0.000000 0.031072
#
#
# Mechanical properties :
#
#
# Convention : Reuss Voigt Hill
#
# Bulk Modulus (GPa) = 16.73158 41.86754 29.29956
# Shear Modulus (GPa) = 18.21188 24.68033 21.44610
#
# Velocity S-wave (km/s) = 3.05453 3.55584 3.31467
# Velocity P-wave (km/s) = 4.58388 6.18933 5.44609
#
# Compressibility (1/GPa) = 0.05976720
#
# Stress axis : x y z
#
# Youngs Moduli (GPa) = 32.83913 70.00145 24.06366
#
# Poissons Ratio (x) = 0.84957 -0.26873
# Poissons Ratio (y) = 0.39855 0.29584
# Poissons Ratio (z) = -0.36672 0.86059
#
# Static dielectric constant tensor:
#      x y z
#    x 1.651080 0.000000 -0.013490 
#    y 0.000000 1.730100 0.000000 
#    z -0.013490 0.000000 1.678830 
# 
# From -- ./inp_files/238779.got.cif
#   From: 2010.05.17/outbox.cif.g08.bks.cpg/sg15_120_cif.got.tgz:238779.got - 2010.06.03 18:47:42.
