data_PCOD9270732
_publ_section_title
;
Structure prediction by ZEFSAII (Michael W. Deem and Ramdas Pophale) SiO2 
 PCOD9270732
Probable space group: C 2/C
;
_chemical_formula_sum "Si O2"
_cell_formula_units_Z 60
_cell_length_a 12.503602
_cell_length_b 17.555945
_cell_length_c 22.621837
_cell_angle_alpha 90.000000
_cell_angle_beta 35.295660
_cell_angle_gamma 90.000000
_cell_volume 2869.205166
_symmetry_space_group_name_H-M "C 2/C"
_symmetry_group_IT_number 15
_symmetry_cell_setting 'monoclinic'
loop_
_space_group_symop_operation_xyz
x,y,z
-x,y,1/2-z
-x,-y,-z
x,-y,1/2+z
1/2+x,1/2+y,z
1/2-x,1/2+y,1/2-z
1/2-x,1/2-y,-z
1/2+x,1/2-y,1/2+z
loop_
_atom_site_type_symbol
_atom_site_label
_atom_site_fract_x
_atom_site_fract_y
_atom_site_fract_z
Si Si1 0.892701 0.917100 0.426726
Si Si2 0.500000 0.605042 0.750000
Si Si3 0.561427 0.720461 0.341531
Si Si4 0.824404 0.610447 0.367185
Si Si5 0.925051 0.238569 0.614674
Si Si6 0.695867 0.775190 0.401425
Si Si7 0.484869 0.428127 0.934654
Si Si8 0.336599 0.841730 0.363435
O O1 0.922799 0.935151 0.343824
O O2 0.705212 0.915192 0.551544
O O3 0.973745 0.832229 0.399513
O O4 0.004061 0.985228 0.407218
O O5 0.674747 0.659956 0.683106
O O6 0.774071 0.723172 0.224305
O O7 0.563183 0.750106 0.407907
O O8 0.507345 0.632255 0.370905
O O9 0.432639 0.776870 0.361446
O O10 0.816920 0.702678 0.367476
O O11 0.639784 0.587905 0.414135
O O12 0.000000 0.584365 0.250000
O O13 0.802888 0.200159 0.618103
O O14 0.071791 0.292382 0.515041
O O15 0.282223 0.405795 0.050412
O O16 0.500000 0.875807 0.250000
#
# Coordination Sequence:
#
# PCOD9270732 Si02
#       8
#     8   4   8   8   8   8   8   8
#     4  11  24  41  59  89 133 163 204 247 319 376
#     4  12  24  40  60  82 130 176 202 248 310 380
#     4  10  20  38  63  90 123 154 206 249 307 363
#     4  10  21  39  67  97 118 155 212 267 316 348
#     4  10  20  38  62  93 115 155 208 265 297 356
#     4  10  20  35  63  88 118 157 211 257 297 356
#     4  11  22  40  62  91 131 160 199 261 311 374
#     4  10  20  35  64  96 116 158 203 258 314 345
#
# _framework density 20.911714
#
# number of rings (size 3 to 8) (size 9 to 14) (size 15 to 20)
#    0.000    1.600    6.000    0.800    0.000    4.800 
#    6.000    0.000    0.000    2.400    0.000    0.000 
#    0.000    0.000    0.000    0.000    0.000    0.000 
#
# Total GULP energy -167239.144163 kJ/mol
# GULP energy per Si atom -5574.638139 kJ/mol
# Density = 2.086412 g / cm^3
# Si number density = 20.911714 Si / 1000 Ang^3
#
#
#
# Elastic Constant Matrix: (Units=GPa)
#
#
# Indices 1 2 3 4 5 6 
#
# 1 46.4265 6.4044 25.8006 0.0003 8.4084 -0.0001
# 2 6.4044 32.3933 15.1824 -0.0016 12.4340 -0.0002
# 3 25.8006 15.1824 185.7216 -0.0057 19.1458 -0.0002
# 4 0.0003 -0.0016 -0.0057 1.0960 0.0007 -0.2618
# 5 8.4084 12.4340 19.1458 0.0007 28.5423 0.0005
# 6 -0.0001 -0.0002 -0.0002 -0.2618 0.0005 11.4767
#
#
#
# Elastic Compliance Matrix: (Units=1/GPa)
#
#
# Indices 1 2 3 4 5 6 
#
# 1 0.024121 -0.001756 -0.002743 -0.000020 -0.004501 0.000000
# 2 -0.001756 0.037573 -0.001282 0.000058 -0.014991 0.000003
# 3 -0.002743 -0.001282 0.006155 0.000033 -0.002762 0.000001
# 4 -0.000020 0.000058 0.000033 0.917382 -0.000063 0.020925
# 5 -0.004501 -0.014991 -0.002762 -0.000063 0.044745 -0.000004
# 6 0.000000 0.000003 0.000001 0.020925 -0.000004 0.087611
#
#
# Mechanical properties :
#
#
# Convention : Reuss Voigt Hill
#
# Bulk Modulus (GPa) = 17.76616 39.92403 28.84510
# Shear Modulus (GPa) = 4.35574 22.69993 13.52784
#
# Velocity S-wave (km/s) = 1.44480 3.29829 2.54619
# Velocity P-wave (km/s) = 3.36117 5.79983 4.74002
#
# Compressibility (1/GPa) = 0.05628678
#
# Stress axis : x y z
#
# Youngs Moduli (GPa) = 41.45702 26.61500 162.46759
#
# Poissons Ratio (x) = 0.04672 0.44572
# Poissons Ratio (y) = 0.07278 0.20833
# Poissons Ratio (z) = 0.11374 0.03413
#
# Static dielectric constant tensor:
#      x y z
#    x 1.773110 0.000000 0.016860 
#    y 0.000000 1.754030 0.000000 
#    z 0.016860 0.000000 1.837900 
# 
# From -- ./inp_files/239936.got.cif
#   From: 2010.05.17/outbox.cif.g08.bks.cpg/sg15_120_cif.got.tgz:239936.got - 2010.06.03 18:47:42.
