data_PCOD9270067
_publ_section_title
;
Structure prediction by ZEFSAII (Michael W. Deem and Ramdas Pophale) SiO2 
 PCOD9270067
Probable space group: C 2/C
;
_chemical_formula_sum "Si O2"
_cell_formula_units_Z 64
_cell_length_a 5.275397
_cell_length_b 31.040079
_cell_length_c 19.351896
_cell_angle_alpha 90.000000
_cell_angle_beta 101.702567
_cell_angle_gamma 90.000000
_cell_volume 3102.980019
_symmetry_space_group_name_H-M "C 2/C"
_symmetry_group_IT_number 15
_symmetry_cell_setting 'monoclinic'
loop_
_space_group_symop_operation_xyz
x,y,z
-x,y,1/2-z
-x,-y,-z
x,-y,1/2+z
1/2+x,1/2+y,z
1/2-x,1/2+y,1/2-z
1/2-x,1/2-y,-z
1/2+x,1/2-y,1/2+z
loop_
_atom_site_type_symbol
_atom_site_label
_atom_site_fract_x
_atom_site_fract_y
_atom_site_fract_z
Si Si1 0.287448 0.210544 0.299203
Si Si2 0.451335 0.123574 0.372542
Si Si3 0.414784 0.451037 0.490929
Si Si4 0.288390 0.694339 0.798500
Si Si5 0.130663 0.392036 0.334169
Si Si6 0.713532 0.518673 0.706301
Si Si7 0.599672 0.907369 0.035642
Si Si8 0.440245 0.576504 0.350076
O O1 0.500000 0.209182 0.250000
O O2 0.363464 0.172303 0.354692
O O3 0.309850 0.258417 0.333416
O O4 0.000000 0.205145 0.250000
O O5 0.525318 0.116073 0.458342
O O6 0.693659 0.108075 0.339079
O O7 0.203307 0.095466 0.333161
O O8 0.500000 0.500000 0.500000
O O9 0.106410 0.446559 0.471256
O O10 0.484264 0.428578 0.566484
O O11 0.612541 0.425022 0.453261
O O12 0.500000 0.691824 0.750000
O O13 0.309050 0.650454 0.843069
O O14 0.000000 0.694848 0.750000
O O15 0.246701 0.440430 0.341255
O O16 0.953036 0.385783 0.392439
O O17 0.000000 0.392217 0.250000
O O18 0.500000 0.533088 0.750000
O O19 0.620029 0.472205 0.675465
O O20 0.000000 0.510447 0.750000
#
# Coordination Sequence:
#
# PCOD9270067 Si02
#       8
#     8   8   8   8   8   8   8   8
#     4  10  20  35  60  86 109 142 184 226 274 333
#     4  10  21  37  55  82 115 147 180 225 274 325
#     4  10  20  35  55  75 102 143 187 227 264 314
#     4   9  19  36  57  83 109 139 183 230 277 331
#     4  10  22  39  59  81 110 147 185 233 280 322
#     4  11  23  35  51  79 111 144 183 227 272 323
#     4  10  22  36  54  80 110 144 186 227 273 331
#     4  10  21  35  52  76 110 146 179 217 269 325
#
# _framework density 20.625336000000001
#
# number of rings (size 3 to 8) (size 9 to 14) (size 15 to 20)
#    0.000    2.000    0.000    3.000    0.000   11.000 
#    0.000    0.625    0.000    0.000    0.000   15.750 
#    0.000    0.000    0.000    0.000    0.000    0.000 
#
# Total GULP energy -178220.834243 kJ/mol
# GULP energy per Si atom -5569.401070 kJ/mol
# Density = 2.057839 g / cm^3
# Si number density = 20.625336 Si / 1000 Ang^3
#
#
#
# Elastic Constant Matrix: (Units=GPa)
#
#
# Indices 1 2 3 4 5 6 
#
# 1 93.2048 -0.5706 23.1303 0.0000 -2.0310 0.0000
# 2 -0.5706 124.1482 19.7423 0.0000 4.0372 0.0000
# 3 23.1303 19.7423 66.3607 0.0000 -4.7428 0.0000
# 4 0.0000 0.0000 0.0000 -3.2225 0.0000 -14.2593
# 5 -2.0310 4.0372 -4.7428 0.0000 28.3039 0.0000
# 6 0.0000 0.0000 0.0000 -14.2593 0.0000 23.9731
#
#
#
# Elastic Compliance Matrix: (Units=1/GPa)
#
#
# Indices 1 2 3 4 5 6 
#
# 1 0.011810 0.000743 -0.004337 0.000000 0.000015 0.000000
# 2 0.000743 0.008578 -0.002930 0.000000 -0.001661 0.000000
# 3 -0.004337 -0.002930 0.017672 0.000000 0.003068 0.000000
# 4 0.000000 0.000000 0.000000 -0.085441 0.000000 -0.050821
# 5 0.000015 -0.001661 0.003068 0.000000 0.036083 0.000000
# 6 0.000000 0.000000 0.000000 -0.050821 0.000000 0.011485
#
#
# Mechanical properties :
#
#
# Convention : Reuss Voigt Hill
#
# Bulk Modulus (GPa) = 39.97780 40.92420 40.45100
# Shear Modulus (GPa) = 231.79387 25.90501 128.84944
#
# Velocity S-wave (km/s) = 10.61259 3.54783 7.91246
# Velocity P-wave (km/s) = 13.02284 6.05537 10.15534
#
# Compressibility (1/GPa) = 0.02501388
#
# Stress axis : x y z
#
# Youngs Moduli (GPa) = 84.67308 116.57404 56.58803
#
# Poissons Ratio (x) = -0.08666 0.24540
# Poissons Ratio (y) = -0.06295 0.16580
# Poissons Ratio (z) = 0.36719 0.34155
#
# Static dielectric constant tensor:
#      x y z
#    x 1.750520 0.000000 -0.004210 
#    y 0.000000 1.750430 0.000000 
#    z -0.004210 0.000000 1.793870 
# 
# From -- ./inp_files/186735.got.cif
#   From: 2010.05.17/outbox.cif.g08.bks.cpg/sg15_94_cif.got.tgz:186735.got - 2010.06.03 18:47:42.
