data_PCOD9270848
_publ_section_title
;
Structure prediction by ZEFSAII (Michael W. Deem and Ramdas Pophale) SiO2 
 PCOD9270848
Probable space group: C 2/C
;
_chemical_formula_sum "Si O2"
_cell_formula_units_Z 56
_cell_length_a 12.969806
_cell_length_b 21.986089
_cell_length_c 12.998912
_cell_angle_alpha 90.000000
_cell_angle_beta 52.749438
_cell_angle_gamma 90.000000
_cell_volume 2950.525595
_symmetry_space_group_name_H-M "C 2/C"
_symmetry_group_IT_number 15
_symmetry_cell_setting 'monoclinic'
loop_
_space_group_symop_operation_xyz
x,y,z
-x,y,1/2-z
-x,-y,-z
x,-y,1/2+z
1/2+x,1/2+y,z
1/2-x,1/2+y,1/2-z
1/2-x,1/2-y,-z
1/2+x,1/2-y,1/2+z
loop_
_atom_site_type_symbol
_atom_site_label
_atom_site_fract_x
_atom_site_fract_y
_atom_site_fract_z
Si Si1 0.839444 0.808146 0.934869
Si Si2 0.267839 0.850762 0.297897
Si Si3 0.633905 0.285401 0.797197
Si Si4 0.000000 0.421284 0.250000
Si Si5 0.650714 0.586137 0.669490
Si Si6 0.090226 0.518663 0.040451
Si Si7 0.235642 0.185493 0.452053
Si Si8 0.000000 0.620073 0.250000
O O1 0.821442 0.827196 0.826628
O O2 0.981783 0.782051 0.868779
O O3 0.750000 0.750000 0.000000
O O4 0.803201 0.852863 0.048705
O O5 0.295800 0.780199 0.252232
O O6 0.407160 0.881619 0.233497
O O7 0.186911 0.883928 0.257870
O O8 0.651822 0.309659 0.900164
O O9 0.086433 0.464803 0.126054
O O10 0.500000 0.566795 0.750000
O O11 0.763912 0.536552 0.580157
O O12 0.676326 0.637937 0.568218
O O13 0.022436 0.576210 0.138390
O O14 0.000000 0.500000 0.000000
O O15 0.250000 0.250000 0.500000
O O16 0.373883 0.161889 0.327643
#
# Coordination Sequence:
#
# PCOD9270848 Si02
#       8
#     8   8   8   4   8   8   8   4
#     4   9  19  33  52  78 121 161 199 248 290 351
#     4  11  20  36  59  94 116 162 215 248 305 375
#     4  10  20  36  52  85 130 166 199 241 302 365
#     4  11  22  38  70  88 112 158 222 267 316 356
#     4  11  23  40  63  94 126 159 205 258 313 383
#     4  10  21  44  66  88 119 157 210 272 316 363
#     4  11  22  36  58  89 130 171 198 243 306 376
#     4   9  24  38  58  96 116 156 222 247 302 376
#
# _framework density 18.979669000000001
#
# number of rings (size 3 to 8) (size 9 to 14) (size 15 to 20)
#    0.000    1.714    2.857    2.571    1.000    3.429 
#    0.000    0.714    6.286    0.000    0.000    0.000 
#    0.000    0.000    0.000    0.000    0.000    0.000 
#
# Total GULP energy -156098.168172 kJ/mol
# GULP energy per Si atom -5574.934578 kJ/mol
# Density = 1.893647 g / cm^3
# Si number density = 18.979669 Si / 1000 Ang^3
#
#
#
# Elastic Constant Matrix: (Units=GPa)
#
#
# Indices 1 2 3 4 5 6 
#
# 1 135.9849 33.4821 62.4920 0.0000 11.8575 0.0000
# 2 33.4821 37.4897 26.2349 0.0000 2.1701 0.0000
# 3 62.4920 26.2349 111.8072 0.0000 7.7709 0.0000
# 4 0.0000 0.0000 0.0000 10.2590 0.0000 -10.1457
# 5 11.8575 2.1701 7.7709 0.0000 45.5953 0.0000
# 6 0.0000 0.0000 0.0000 -10.1457 0.0000 13.9971
#
#
#
# Elastic Compliance Matrix: (Units=1/GPa)
#
#
# Indices 1 2 3 4 5 6 
#
# 1 0.011291 -0.006761 -0.004597 0.000000 -0.001831 0.000000
# 2 -0.006761 0.035965 -0.004719 0.000000 0.000851 0.000000
# 3 -0.004597 -0.004719 0.012672 0.000000 -0.000740 0.000000
# 4 0.000000 0.000000 0.000000 0.344227 0.000000 0.249510
# 5 -0.001831 0.000851 -0.000740 0.000000 0.022494 0.000000
# 6 0.000000 0.000000 0.000000 0.249510 0.000000 0.252298
#
#
# Mechanical properties :
#
#
# Convention : Reuss Voigt Hill
#
# Bulk Modulus (GPa) = 36.00515 58.85554 47.43034
# Shear Modulus (GPa) = 6.94098 24.84181 15.89139
#
# Velocity S-wave (km/s) = 1.91442 3.62175 2.89673
# Velocity P-wave (km/s) = 4.88858 6.96897 6.01933
#
# Compressibility (1/GPa) = 0.02777381
#
# Stress axis : x y z
#
# Youngs Moduli (GPa) = 88.56938 27.80450 78.91325
#
# Poissons Ratio (x) = 0.18798 0.36276
# Poissons Ratio (y) = 0.59879 0.37243
# Poissons Ratio (z) = 0.40715 0.13122
#
# Static dielectric constant tensor:
#      x y z
#    x 1.630560 0.000000 0.018190 
#    y 0.000000 1.646520 0.000000 
#    z 0.018190 0.000000 1.707700 
# 
# From -- ./inp_files/90730.got.cif
#   From: 2010.05.17/outbox.cif.g08.bks.cpg/sg15_46_cif.got.tgz:90730.got - 2010.06.03 18:47:42.
