data_PCOD9270003
_publ_section_title
;
Structure prediction by ZEFSAII (Michael W. Deem and Ramdas Pophale) SiO2 
 PCOD9270003
Probable space group: C 2/C
;
_chemical_formula_sum "Si O2"
_cell_formula_units_Z 64
_cell_length_a 22.211044
_cell_length_b 11.754309
_cell_length_c 25.066086
_cell_angle_alpha 90.000000
_cell_angle_beta 149.195206
_cell_angle_gamma 90.000000
_cell_volume 3351.350660
_symmetry_space_group_name_H-M "C 2/C"
_symmetry_group_IT_number 15
_symmetry_cell_setting 'monoclinic'
loop_
_space_group_symop_operation_xyz
x,y,z
-x,y,1/2-z
-x,-y,-z
x,-y,1/2+z
1/2+x,1/2+y,z
1/2-x,1/2+y,1/2-z
1/2-x,1/2-y,-z
1/2+x,1/2-y,1/2+z
loop_
_atom_site_type_symbol
_atom_site_label
_atom_site_fract_x
_atom_site_fract_y
_atom_site_fract_z
Si Si1 0.983535 0.867345 0.997083
Si Si2 0.332719 0.069476 0.662216
Si Si3 0.666314 0.100263 0.527301
Si Si4 0.135860 0.542024 0.098675
Si Si5 0.260747 0.817846 0.628876
Si Si6 0.089261 0.393946 0.397283
Si Si7 0.596895 0.193466 0.158975
Si Si8 0.618818 0.735463 0.513910
O O1 0.080102 0.803777 0.108324
O O2 0.000898 0.810926 0.952163
O O3 0.861695 0.842150 0.933591
O O4 0.000000 0.000000 0.000000
O O5 0.365788 0.114217 0.628688
O O6 0.449381 0.080308 0.787362
O O7 0.221726 0.142633 0.597677
O O8 0.301182 0.936398 0.634517
O O9 0.743450 0.212009 0.575874
O O10 0.532869 0.144039 0.430391
O O11 0.698928 0.054522 0.611859
O O12 0.658621 0.996882 0.479760
O O13 0.166765 0.593503 0.179931
O O14 0.144693 0.650846 0.066992
O O15 0.000000 0.500000 0.000000
O O16 0.348690 0.783586 0.742792
O O17 0.105333 0.279338 0.443528
#
# Coordination Sequence:
#
# PCOD9270003 Si02
#       8
#     8   8   8   8   8   8   8   8
#     4  10  20  35  53  84 121 149 180 233 300 355
#     4  11  22  38  61  88 109 156 200 244 299 345
#     4   9  18  35  55  81 109 149 196 241 285 340
#     4   8  16  32  53  78 111 148 184 220 280 347
#     4  11  21  34  57  85 118 152 197 232 295 362
#     4  10  22  40  63  81 113 151 206 250 285 345
#     4   9  18  32  51  79 114 150 187 231 278 351
#     4  10  20  37  60  84 117 148 190 243 292 347
#
# _framework density 19.096778
#
# number of rings (size 3 to 8) (size 9 to 14) (size 15 to 20)
#    0.000    2.250    2.500    1.125    0.000    3.500 
#    0.000    1.250    0.000    0.000    0.000    0.000 
#    0.000    0.000    0.000    0.000    0.000    0.000 
#
# Total GULP energy -178166.940930 kJ/mol
# GULP energy per Si atom -5567.716904 kJ/mol
# Density = 1.905331 g / cm^3
# Si number density = 19.096778 Si / 1000 Ang^3
#
#
#
# Elastic Constant Matrix: (Units=GPa)
#
#
# Indices 1 2 3 4 5 6 
#
# 1 31.5049 -8.6134 0.3962 -0.0001 -7.9848 0.0000
# 2 -8.6134 71.9425 5.9613 -0.0001 -7.6370 0.0000
# 3 0.3962 5.9613 34.6492 -0.0002 -12.5906 0.0000
# 4 -0.0001 -0.0001 -0.0002 21.8140 -0.0001 -1.2406
# 5 -7.9848 -7.6370 -12.5906 -0.0001 20.7878 0.0000
# 6 0.0000 0.0000 0.0000 -1.2406 0.0000 29.9139
#
#
#
# Elastic Compliance Matrix: (Units=1/GPa)
#
#
# Indices 1 2 3 4 5 6 
#
# 1 0.038684 0.006344 0.006042 0.000000 0.020849 0.000000
# 2 0.006344 0.015518 0.000275 0.000000 0.008305 0.000000
# 3 0.006042 0.000275 0.037984 0.000000 0.025428 0.000000
# 4 0.000000 0.000000 0.000000 0.045951 0.000001 0.001906
# 5 0.020849 0.008305 0.025428 0.000001 0.074565 0.000000
# 6 0.000000 0.000000 0.000000 0.001906 0.000000 0.033508
#
#
# Mechanical properties :
#
#
# Convention : Reuss Voigt Hill
#
# Bulk Modulus (GPa) = 8.50999 14.84276 11.67637
# Shear Modulus (GPa) = 19.22654 23.85996 21.54325
#
# Velocity S-wave (km/s) = 3.17645 3.53855 3.36238
# Velocity P-wave (km/s) = 4.23308 4.94817 4.60453
#
# Compressibility (1/GPa) = 0.11750897
#
# Stress axis : x y z
#
# Youngs Moduli (GPa) = 25.85073 64.44008 26.32676
#
# Poissons Ratio (x) = -0.40881 -0.15907
# Poissons Ratio (y) = -0.16400 -0.00725
# Poissons Ratio (z) = -0.15620 -0.01774
#
# Static dielectric constant tensor:
#      x y z
#    x 1.687150 0.000000 -0.016630 
#    y 0.000000 1.637320 0.000000 
#    z -0.016630 0.000000 1.661430 
# 
# From -- ./inp_files/302172.got.cif
#   From: 2010.05.17/outbox.cif.g08.bks.cpg/sg15_152_cif.got.tgz:302172.got - 2010.06.03 18:47:42.
