data_PCOD9270609
_publ_section_title
;
Structure prediction by ZEFSAII (Michael W. Deem and Ramdas Pophale) SiO2 
 PCOD9270609
Probable space group: C 2/C
;
_chemical_formula_sum "Si O2"
_cell_formula_units_Z 52
_cell_length_a 10.316416
_cell_length_b 29.617553
_cell_length_c 11.500959
_cell_angle_alpha 90.000000
_cell_angle_beta 45.581572
_cell_angle_gamma 90.000000
_cell_volume 2509.925738
_symmetry_space_group_name_H-M "C 2/C"
_symmetry_group_IT_number 15
_symmetry_cell_setting 'monoclinic'
loop_
_space_group_symop_operation_xyz
x,y,z
-x,y,1/2-z
-x,-y,-z
x,-y,1/2+z
1/2+x,1/2+y,z
1/2-x,1/2+y,1/2-z
1/2-x,1/2-y,-z
1/2+x,1/2-y,1/2+z
loop_
_atom_site_type_symbol
_atom_site_label
_atom_site_fract_x
_atom_site_fract_y
_atom_site_fract_z
Si Si1 0.951008 0.384290 0.528104
Si Si2 0.000000 0.065681 0.750000
Si Si3 0.709104 0.792807 0.867122
Si Si4 0.398506 0.698302 0.493303
Si Si5 0.878512 0.533354 0.438849
Si Si6 0.803111 0.053160 0.418540
Si Si7 0.284753 0.396082 0.167041
O O1 0.928785 0.332731 0.581286
O O2 0.752696 0.402014 0.616553
O O3 0.033596 0.421245 0.563615
O O4 0.077308 0.387779 0.335095
O O5 0.886363 0.090508 0.721564
O O6 0.161625 0.043296 0.570290
O O7 0.758862 0.799530 0.972308
O O8 0.897834 0.797827 0.681690
O O9 0.638918 0.741726 0.902754
O O10 0.367667 0.650515 0.571423
O O11 0.852337 0.483806 0.513953
O O12 0.000000 0.524443 0.250000
O O13 0.801674 0.066249 0.555499
O O14 0.000000 0.039059 0.250000
#
# Coordination Sequence:
#
# PCOD9270609 Si02
#       7
#     8   4   8   8   8   8   8
#     4  11  23  40  62  97 129 169 216 261 329 389
#     4  10  26  46  62  96 126 182 218 266 322 386
#     4  10  20  35  60  99 129 162 209 255 335 378
#     4  10  20  35  62  94 132 166 200 269 316 392
#     4  11  25  44  65  89 134 174 218 270 320 392
#     4  12  24  40  66  99 129 167 217 271 331 391
#     4  11  23  41  67  90 136 168 217 269 322 387
#
# _framework density 20.717745000000001
#
# number of rings (size 3 to 8) (size 9 to 14) (size 15 to 20)
#    0.000    1.231    2.308    3.692    4.308    3.077 
#    0.000    0.000    1.692    2.769    0.000    0.000 
#    0.000    0.000    0.000    0.000    0.000    0.000 
#
# Total GULP energy -144948.371044 kJ/mol
# GULP energy per Si atom -5574.937348 kJ/mol
# Density = 2.067059 g / cm^3
# Si number density = 20.717745 Si / 1000 Ang^3
#
#
#
# Elastic Constant Matrix: (Units=GPa)
#
#
# Indices 1 2 3 4 5 6 
#
# 1 40.2088 18.0634 7.8623 0.0000 -14.8972 0.0000
# 2 18.0634 113.4392 30.1218 0.0000 -10.1997 0.0000
# 3 7.8623 30.1218 94.9912 0.0000 -22.2256 0.0000
# 4 0.0000 0.0000 0.0000 35.2784 0.0000 -17.6708
# 5 -14.8972 -10.1997 -22.2256 0.0000 14.2474 0.0000
# 6 0.0000 0.0000 0.0000 -17.6708 0.0000 12.8379
#
#
#
# Elastic Compliance Matrix: (Units=1/GPa)
#
#
# Indices 1 2 3 4 5 6 
#
# 1 0.051202 -0.005490 0.014346 0.000000 0.071986 0.000000
# 2 -0.005490 0.010317 -0.003830 0.000000 -0.004329 0.000000
# 3 0.014346 -0.003830 0.021138 0.000000 0.045232 0.000000
# 4 0.000000 0.000000 0.000000 0.091281 0.000000 0.125645
# 5 0.071986 -0.004329 0.045232 0.000000 0.212919 0.000000
# 6 0.000000 0.000000 0.000000 0.125645 0.000000 0.250840
#
#
# Mechanical properties :
#
#
# Convention : Reuss Voigt Hill
#
# Bulk Modulus (GPa) = 10.78650 40.08157 25.43403
# Shear Modulus (GPa) = 7.59246 25.31219 16.45233
#
# Velocity S-wave (km/s) = 1.91642 3.49917 2.82107
# Velocity P-wave (km/s) = 3.18035 5.97612 4.78689
#
# Compressibility (1/GPa) = 0.09270850
#
# Stress axis : x y z
#
# Youngs Moduli (GPa) = 19.53055 96.92517 47.30900
#
# Poissons Ratio (x) = 0.53210 -0.67869
# Poissons Ratio (y) = 0.10722 0.18120
# Poissons Ratio (z) = -0.28018 0.37123
#
# Static dielectric constant tensor:
#      x y z
#    x 1.753900 0.000000 -0.007320 
#    y 0.000000 1.790520 0.000000 
#    z -0.007320 0.000000 1.748420 
# 
# From -- ./inp_files/92534.got.cif
#   From: 2010.05.17/outbox.cif.g08.bks.cpg/sg15_47_cif.got.tgz:92534.got - 2010.06.03 18:47:42.
