data_PCOD9270504
_publ_section_title
;
Structure prediction by ZEFSAII (Michael W. Deem and Ramdas Pophale) SiO2 
 PCOD9270504
Probable space group: C 2/C
;
_chemical_formula_sum "Si O2"
_cell_formula_units_Z 40
_cell_length_a 18.213394
_cell_length_b 6.204384
_cell_length_c 19.710182
_cell_angle_alpha 90.000000
_cell_angle_beta 79.433549
_cell_angle_gamma 90.000000
_cell_volume 2189.538839
_symmetry_space_group_name_H-M "C 2/C"
_symmetry_group_IT_number 15
_symmetry_cell_setting 'monoclinic'
loop_
_space_group_symop_operation_xyz
x,y,z
-x,y,1/2-z
-x,-y,-z
x,-y,1/2+z
1/2+x,1/2+y,z
1/2-x,1/2+y,1/2-z
1/2-x,1/2-y,-z
1/2+x,1/2-y,1/2+z
loop_
_atom_site_type_symbol
_atom_site_label
_atom_site_fract_x
_atom_site_fract_y
_atom_site_fract_z
Si Si1 0.524292 0.131031 0.576355
Si Si2 0.213246 0.939132 0.460874
Si Si3 0.030001 0.015433 0.669309
Si Si4 0.070722 0.252863 0.924282
Si Si5 0.148788 0.277815 0.579665
O O1 0.538909 0.274833 0.639231
O O2 0.533313 0.265193 0.505629
O O3 0.446110 0.003062 0.591041
O O4 0.588317 0.948798 0.562418
O O5 0.250000 0.750000 0.500000
O O6 0.154570 0.827293 0.420623
O O7 0.170495 0.103470 0.518695
O O8 0.277966 0.082998 0.415889
O O9 0.106580 0.148041 0.645903
O O10 0.000000 0.024127 0.750000
O O11 0.971014 0.118879 0.626356
#
# Coordination Sequence:
#
# PCOD9270504 Si02
#       5
#     8   8   8   8   8
#     4  10  20  35  59  90 116 146 201 254 293 350
#     4  11  20  35  60  93 121 150 190 248 309 356
#     4  11  23  39  59  85 119 160 204 250 305 360
#     4  10  21  34  61  89 115 152 197 252 299 351
#     4  10  21  35  61  89 119 149 194 243 300 362
#
# _framework density 18.268688000000001
#
# number of rings (size 3 to 8) (size 9 to 14) (size 15 to 20)
#    0.000    1.600    4.000    0.600    5.600    3.200 
#    0.000    0.000    8.800    0.000    0.000    0.000 
#    0.000    0.000    0.000    0.000    0.000    0.000 
#
# Total GULP energy -111540.673240 kJ/mol
# GULP energy per Si atom -5577.033662 kJ/mol
# Density = 1.822711 g / cm^3
# Si number density = 18.268688 Si / 1000 Ang^3
#
#
#
# Elastic Constant Matrix: (Units=GPa)
#
#
# Indices 1 2 3 4 5 6 
#
# 1 121.0019 63.0069 43.5622 0.0000 -6.8988 0.0000
# 2 63.0069 112.3359 49.4800 0.0000 -7.1643 0.0000
# 3 43.5622 49.4800 108.2943 0.0000 -15.8238 0.0000
# 4 0.0000 0.0000 0.0000 12.7316 0.0000 -3.9825
# 5 -6.8988 -7.1643 -15.8238 0.0000 18.3672 0.0000
# 6 0.0000 0.0000 0.0000 -3.9825 0.0000 46.4411
#
#
#
# Elastic Compliance Matrix: (Units=1/GPa)
#
#
# Indices 1 2 3 4 5 6 
#
# 1 0.012084 -0.005805 -0.002146 0.000000 0.000425 0.000000
# 2 -0.005805 0.013934 -0.004068 0.000000 -0.000250 0.000000
# 3 -0.002146 -0.004068 0.013278 0.000000 0.009046 0.000000
# 4 0.000000 0.000000 0.000000 0.080709 0.000000 0.006921
# 5 0.000425 -0.000250 0.009046 0.000000 0.062301 0.000000
# 6 0.000000 0.000000 0.000000 0.006921 0.000000 0.022126
#
#
# Mechanical properties :
#
#
# Convention : Reuss Voigt Hill
#
# Bulk Modulus (GPa) = 65.54297 72.63670 69.08983
# Shear Modulus (GPa) = 21.40812 27.88018 24.64415
#
# Velocity S-wave (km/s) = 3.42694 3.91079 3.67683
# Velocity P-wave (km/s) = 7.18426 7.76138 7.47839
#
# Compressibility (1/GPa) = 0.01525717
#
# Stress axis : x y z
#
# Youngs Moduli (GPa) = 82.75304 71.76884 75.31347
#
# Poissons Ratio (x) = 0.41663 0.16165
# Poissons Ratio (y) = 0.48040 0.30635
# Poissons Ratio (z) = 0.17762 0.29193
#
# Static dielectric constant tensor:
#      x y z
#    x 1.671190 0.000000 -0.013260 
#    y 0.000000 1.697150 0.000000 
#    z -0.013260 0.000000 1.580410 
# 
# From -- ./inp_files/208106.got.cif
#   From: 2010.05.17/outbox.cif.g08.bks.cpg/sg15_105_cif.got.tgz:208106.got - 2010.06.03 18:47:42.
