data_PCOD9270074
_publ_section_title
;
Structure prediction by ZEFSAII (Michael W. Deem and Ramdas Pophale) SiO2 
 PCOD9270074
Probable space group: C 2/C
;
_chemical_formula_sum "Si O2"
_cell_formula_units_Z 56
_cell_length_a 7.426891
_cell_length_b 14.778254
_cell_length_c 24.985811
_cell_angle_alpha 90.000000
_cell_angle_beta 59.997652
_cell_angle_gamma 90.000000
_cell_volume 2374.892648
_symmetry_space_group_name_H-M "C 2/C"
_symmetry_group_IT_number 15
_symmetry_cell_setting 'monoclinic'
loop_
_space_group_symop_operation_xyz
x,y,z
-x,y,1/2-z
-x,-y,-z
x,-y,1/2+z
1/2+x,1/2+y,z
1/2-x,1/2+y,1/2-z
1/2-x,1/2-y,-z
1/2+x,1/2-y,1/2+z
loop_
_atom_site_type_symbol
_atom_site_label
_atom_site_fract_x
_atom_site_fract_y
_atom_site_fract_z
Si Si1 0.026868 0.915319 0.366433
Si Si2 0.099096 0.593380 0.613497
Si Si3 0.638297 0.286566 0.594071
Si Si4 0.085201 0.739850 0.072250
Si Si5 0.847540 0.911015 0.702262
Si Si6 0.267383 0.966195 0.515957
Si Si7 0.484499 0.084355 0.165945
O O1 0.917259 0.817764 0.381906
O O2 0.257598 0.896921 0.355411
O O3 0.891630 0.966825 0.431816
O O4 0.053679 0.988109 0.315135
O O5 0.027827 0.689974 0.600937
O O6 0.227468 0.541907 0.548266
O O7 0.934475 0.517360 0.654000
O O8 0.515989 0.338074 0.658964
O O9 0.686039 0.366111 0.545130
O O10 0.866889 0.253757 0.574699
O O11 0.069839 0.644958 0.105020
O O12 0.250000 0.750000 0.000000
O O13 0.724569 0.883922 0.773682
O O14 0.670348 0.914133 0.681884
O O15 0.500000 0.000000 0.500000
#
# Coordination Sequence:
#
# PCOD9270074 Si02
#       7
#     8   8   8   8   8   8   8
#     4   9  20  36  55  76 108 146 187 226 272 342
#     4  10  20  35  55  79 106 147 186 224 277 337
#     4  10  22  36  56  85 116 149 190 236 283 343
#     4  11  22  37  58  88 118 153 191 236 292 346
#     4   9  21  40  58  81 108 148 193 238 293 339
#     4  11  20  33  53  82 116 145 180 231 283 333
#     4  10  21  39  60  79 111 148 191 242 288 348
#
# _framework density 23.580015
#
# number of rings (size 3 to 8) (size 9 to 14) (size 15 to 20)
#    0.000    2.000    0.000    3.429    0.000    9.714 
#    0.000    2.857    0.000    0.000    0.000    0.000 
#    0.000    0.000    0.000    0.000    0.000    0.000 
#
# Total GULP energy -156134.071415 kJ/mol
# GULP energy per Si atom -5576.216836 kJ/mol
# Density = 2.352635 g / cm^3
# Si number density = 23.580015 Si / 1000 Ang^3
#
#
#
# Elastic Constant Matrix: (Units=GPa)
#
#
# Indices 1 2 3 4 5 6 
#
# 1 60.9349 -5.7486 16.0592 -0.0001 -17.0785 0.0001
# 2 -5.7486 139.9871 31.3931 0.0000 -15.3570 0.0000
# 3 16.0592 31.3931 115.5496 -0.0003 -33.7161 0.0002
# 4 -0.0001 0.0000 -0.0003 20.5774 0.0001 -9.0965
# 5 -17.0785 -15.3570 -33.7161 0.0001 30.7878 -0.0002
# 6 0.0001 0.0000 0.0002 -9.0965 -0.0002 1.5288
#
#
#
# Elastic Compliance Matrix: (Units=1/GPa)
#
#
# Indices 1 2 3 4 5 6 
#
# 1 0.020037 0.002130 0.000279 0.000000 0.012482 0.000000
# 2 0.002130 0.007941 -0.001400 0.000000 0.003609 0.000000
# 3 0.000279 -0.001400 0.012987 0.000000 0.013679 0.000000
# 4 0.000000 0.000000 0.000000 -0.029809 -0.000001 -0.177364
# 5 0.012482 0.003609 0.013679 -0.000001 0.056184 -0.000001
# 6 0.000000 0.000000 0.000000 -0.177364 -0.000001 -0.401221
#
#
# Mechanical properties :
#
#
# Convention : Reuss Voigt Hill
#
# Bulk Modulus (GPa) = 23.26594 44.43099 33.84847
# Shear Modulus (GPa) = -15.54872 28.89667 6.67398
#
# Velocity S-wave (km/s) = -2.57067 3.50447 1.68419
# Velocity P-wave (km/s) = 1.03784 5.93790 4.26238
#
# Compressibility (1/GPa) = 0.04298129
#
# Stress axis : x y z
#
# Youngs Moduli (GPa) = 49.90806 125.93018 76.99816
#
# Poissons Ratio (x) = -0.26818 -0.02148
# Poissons Ratio (y) = -0.10629 0.10783
# Poissons Ratio (z) = -0.01392 0.17636
#
# Static dielectric constant tensor:
#      x y z
#    x 1.983820 0.000000 0.005030 
#    y 0.000000 2.033900 0.000000 
#    z 0.005030 0.000000 1.876900 
# 
# From -- ./inp_files/288640.got.cif
#   From: 2010.05.17/outbox.cif.g08.bks.cpg/sg15_145_cif.got.tgz:288640.got - 2010.06.03 18:47:42.
