data_PCOD9270571
_publ_section_title
;
Structure prediction by ZEFSAII (Michael W. Deem and Ramdas Pophale) SiO2 
 PCOD9270571
Probable space group: C 2/C
;
_chemical_formula_sum "Si O2"
_cell_formula_units_Z 40
_cell_length_a 6.135600
_cell_length_b 21.717655
_cell_length_c 14.050769
_cell_angle_alpha 90.000000
_cell_angle_beta 116.194285
_cell_angle_gamma 90.000000
_cell_volume 1679.998498
_symmetry_space_group_name_H-M "C 2/C"
_symmetry_group_IT_number 15
_symmetry_cell_setting 'monoclinic'
loop_
_space_group_symop_operation_xyz
x,y,z
-x,y,1/2-z
-x,-y,-z
x,-y,1/2+z
1/2+x,1/2+y,z
1/2-x,1/2+y,1/2-z
1/2-x,1/2-y,-z
1/2+x,1/2-y,1/2+z
loop_
_atom_site_type_symbol
_atom_site_label
_atom_site_fract_x
_atom_site_fract_y
_atom_site_fract_z
Si Si1 0.783358 0.852862 0.006473
Si Si2 0.705878 0.745124 0.847632
Si Si3 0.500000 0.826563 0.250000
Si Si4 0.500000 0.530577 0.750000
Si Si5 0.481461 0.916837 0.092033
Si Si6 0.733921 0.036273 0.364525
O O1 0.796096 0.795366 0.937443
O O2 0.846765 0.910152 0.951338
O O3 0.894887 0.816063 0.118441
O O4 0.525816 0.878414 0.003465
O O5 0.500000 0.778921 0.750000
O O6 0.885619 0.718458 0.805028
O O7 0.365456 0.874046 0.151739
O O8 0.739163 0.569024 0.822793
O O9 0.572380 0.490300 0.672579
O O10 0.354852 0.982757 0.079544
O O11 0.500000 0.052175 0.250000
#
# Coordination Sequence:
#
# PCOD9270571 Si02
#       6
#     8   8   4   4   8   8
#     4  10  22  38  62  90 117 154 206 242 292 355
#     4  10  23  43  61  84 119 161 197 249 293 344
#     4  10  20  37  64  84 115 160 206 228 298 360
#     4  10  20  35  60  90 119 160 188 234 310 348
#     4  10  20  37  61  87 120 157 196 241 296 356
#     4  10  20  38  59  89 125 157 189 244 300 349
#
# _framework density 23.809543999999999
#
# number of rings (size 3 to 8) (size 9 to 14) (size 15 to 20)
#    0.000    2.000    3.000    1.200    5.600    1.600 
#    0.000   19.000    0.000    0.000    0.000    0.000 
#    0.000    0.000    0.000    0.000    0.000    0.000 
#
# Total GULP energy -111343.669769 kJ/mol
# GULP energy per Si atom -5567.183488 kJ/mol
# Density = 2.375535 g / cm^3
# Si number density = 23.809544 Si / 1000 Ang^3
#
#
#
# Elastic Constant Matrix: (Units=GPa)
#
#
# Indices 1 2 3 4 5 6 
#
# 1 72.4699 44.2988 36.5634 0.0000 -27.3538 0.0000
# 2 44.2988 139.4089 34.7517 0.0000 -25.8681 0.0000
# 3 36.5634 34.7517 100.5538 0.0000 -31.4259 0.0000
# 4 0.0000 0.0000 0.0000 48.6345 0.0000 -6.6982
# 5 -27.3538 -25.8681 -31.4259 0.0000 35.0713 0.0000
# 6 0.0000 0.0000 0.0000 -6.6982 0.0000 -259.4472
#
#
#
# Elastic Compliance Matrix: (Units=1/GPa)
#
#
# Indices 1 2 3 4 5 6 
#
# 1 0.022237 -0.004166 -0.003036 0.000000 0.011550 0.000000
# 2 -0.004166 0.009221 -0.000780 0.000000 0.002853 0.000000
# 3 -0.003036 -0.000780 0.014443 0.000000 0.009998 0.000000
# 4 0.000000 0.000000 0.000000 0.020489 0.000000 -0.000529
# 5 0.011550 0.002853 0.009998 0.000000 0.048585 0.000000
# 6 0.000000 0.000000 0.000000 -0.000529 0.000000 -0.003841
#
#
# Mechanical properties :
#
#
# Convention : Reuss Voigt Hill
#
# Bulk Modulus (GPa) = 33.40470 60.40673 46.90571
# Shear Modulus (GPa) = 36.47559 -22.02704 7.22428
#
# Velocity S-wave (km/s) = 3.91829 -3.04490 1.74378
# Velocity P-wave (km/s) = 5.87631 3.61441 4.87827
#
# Compressibility (1/GPa) = 0.02993591
#
# Stress axis : x y z
#
# Youngs Moduli (GPa) = 44.97037 108.45073 69.23548
#
# Poissons Ratio (x) = 0.45180 0.21022
# Poissons Ratio (y) = 0.18734 0.05403
# Poissons Ratio (z) = 0.13654 0.08463
#
# Static dielectric constant tensor:
#      x y z
#    x 2.437650 0.000000 0.560070 
#    y 0.000000 1.892890 0.000000 
#    z 0.560070 0.000000 2.623510 
# 
# From -- ./inp_files/129197.got.cif
#   From: 2010.05.17/outbox.cif.g08.bks.cpg/sg15_65_cif.got.tgz:129197.got - 2010.06.03 18:47:42.
