data_PCOD9270464
_publ_section_title
;
Structure prediction by ZEFSAII (Michael W. Deem and Ramdas Pophale) SiO2 
 PCOD9270464
Probable space group: C 2/C
;
_chemical_formula_sum "Si O2"
_cell_formula_units_Z 40
_cell_length_a 12.677249
_cell_length_b 12.991416
_cell_length_c 14.676490
_cell_angle_alpha 90.000000
_cell_angle_beta 119.287025
_cell_angle_gamma 90.000000
_cell_volume 2108.190605
_symmetry_space_group_name_H-M "C 2/C"
_symmetry_group_IT_number 15
_symmetry_cell_setting 'monoclinic'
loop_
_space_group_symop_operation_xyz
x,y,z
-x,y,1/2-z
-x,-y,-z
x,-y,1/2+z
1/2+x,1/2+y,z
1/2-x,1/2+y,1/2-z
1/2-x,1/2-y,-z
1/2+x,1/2-y,1/2+z
loop_
_atom_site_type_symbol
_atom_site_label
_atom_site_fract_x
_atom_site_fract_y
_atom_site_fract_z
Si Si1 0.479155 0.000150 0.883451
Si Si2 0.189164 0.630795 0.425251
Si Si3 0.923830 0.268409 0.307016
Si Si4 0.849681 0.710976 0.286726
Si Si5 0.563907 0.704719 0.988053
O O1 0.434825 0.109633 0.830122
O O2 0.606020 0.969711 0.888471
O O3 0.389044 0.905052 0.828651
O O4 0.500000 0.000000 0.000000
O O5 0.153377 0.703111 0.324221
O O6 0.333598 0.617896 0.484518
O O7 0.142272 0.693336 0.493397
O O8 0.783938 0.238090 0.237284
O O9 0.968286 0.213741 0.419451
O O10 0.000000 0.241213 0.250000
O O11 0.947648 0.786816 0.374091
#
# Coordination Sequence:
#
# PCOD9270464 Si02
#       5
#     8   8   8   8   8
#     4  11  19  37  59  86 110 148 190 233 277 343
#     4   9  17  31  57  81 111 139 183 230 276 328
#     4  11  22  35  59  82 115 156 188 228 287 337
#     4  10  20  35  59  85 115 145 192 236 282 332
#     4   9  17  33  53  84 112 139 182 234 279 325
#
# _framework density 18.973617000000001
#
# number of rings (size 3 to 8) (size 9 to 14) (size 15 to 20)
#    0.000    2.000    4.000    3.600    0.000    0.800 
#    0.000    0.000    4.400    3.600    0.000    0.000 
#    0.000    0.000    0.000    0.000    0.000    0.000 
#
# Total GULP energy -111437.038028 kJ/mol
# GULP energy per Si atom -5571.851901 kJ/mol
# Density = 1.893043 g / cm^3
# Si number density = 18.973617 Si / 1000 Ang^3
#
#
#
# Elastic Constant Matrix: (Units=GPa)
#
#
# Indices 1 2 3 4 5 6 
#
# 1 132.1307 22.8378 59.5227 0.0000 -11.1155 0.0000
# 2 22.8378 33.7950 1.0105 0.0000 4.8828 0.0000
# 3 59.5227 1.0105 115.4522 0.0000 -3.0489 0.0000
# 4 0.0000 0.0000 0.0000 19.5846 0.0000 0.4133
# 5 -11.1155 4.8828 -3.0489 0.0000 38.4250 0.0000
# 6 0.0000 0.0000 0.0000 0.4133 0.0000 20.6642
#
#
#
# Elastic Compliance Matrix: (Units=1/GPa)
#
#
# Indices 1 2 3 4 5 6 
#
# 1 0.012142 -0.008620 -0.006076 0.000000 0.004126 0.000000
# 2 -0.008620 0.036278 0.003947 0.000000 -0.006790 0.000000
# 3 -0.006076 0.003947 0.011724 0.000000 -0.001329 0.000000
# 4 0.000000 0.000000 0.000000 0.051082 0.000000 -0.001022
# 5 0.004126 -0.006790 -0.001329 0.000000 0.027976 0.000000
# 6 0.000000 0.000000 0.000000 -0.001022 0.000000 0.048413
#
#
# Mechanical properties :
#
#
# Convention : Reuss Voigt Hill
#
# Bulk Modulus (GPa) = 25.87437 49.79110 37.83274
# Shear Modulus (GPa) = 22.52302 28.93523 25.72912
#
# Velocity S-wave (km/s) = 3.44913 3.90939 3.68645
# Velocity P-wave (km/s) = 5.43402 6.83206 6.17275
#
# Compressibility (1/GPa) = 0.03864828
#
# Stress axis : x y z
#
# Youngs Moduli (GPa) = 82.35738 27.56469 85.29271
#
# Poissons Ratio (x) = 0.23760 0.51821
# Poissons Ratio (y) = 0.70991 -0.33667
# Poissons Ratio (z) = 0.50038 -0.10880
#
# Static dielectric constant tensor:
#      x y z
#    x 1.694100 0.000000 0.002960 
#    y 0.000000 1.658260 0.000000 
#    z 0.002960 0.000000 1.741220 
# 
# From -- ./inp_files/142810.got.cif
#   From: 2010.05.17/outbox.cif.g08.bks.cpg/sg15_72_cif.got.tgz:142810.got - 2010.06.03 18:47:42.
