data_PCOD9270586
_publ_section_title
;
Structure prediction by ZEFSAII (Michael W. Deem and Ramdas Pophale) SiO2 
 PCOD9270586
Probable space group: C 2/C
;
_chemical_formula_sum "Si O2"
_cell_formula_units_Z 52
_cell_length_a 9.861979
_cell_length_b 19.885089
_cell_length_c 18.526535
_cell_angle_alpha 90.000000
_cell_angle_beta 132.436062
_cell_angle_gamma 90.000000
_cell_volume 2681.391900
_symmetry_space_group_name_H-M "C 2/C"
_symmetry_group_IT_number 15
_symmetry_cell_setting 'monoclinic'
loop_
_space_group_symop_operation_xyz
x,y,z
-x,y,1/2-z
-x,-y,-z
x,-y,1/2+z
1/2+x,1/2+y,z
1/2-x,1/2+y,1/2-z
1/2-x,1/2-y,-z
1/2+x,1/2-y,1/2+z
loop_
_atom_site_type_symbol
_atom_site_label
_atom_site_fract_x
_atom_site_fract_y
_atom_site_fract_z
Si Si1 0.474039 0.578283 0.010967
Si Si2 0.000000 0.864569 0.250000
Si Si3 0.574943 0.324994 0.432334
Si Si4 0.498155 0.173170 0.423754
Si Si5 0.282152 0.017589 0.835596
Si Si6 0.831737 0.573378 0.481434
Si Si7 0.680987 0.093572 0.268013
O O1 0.303243 0.590390 0.002364
O O2 0.650938 0.606654 0.117919
O O3 0.500000 0.500000 0.000000
O O4 0.459428 0.618717 0.931437
O O5 0.960837 0.821709 0.165514
O O6 0.830952 0.914283 0.205665
O O7 0.519378 0.252668 0.443720
O O8 0.789444 0.345967 0.516048
O O9 0.416315 0.133422 0.463084
O O10 0.375229 0.150689 0.310830
O O11 0.226876 0.974690 0.886623
O O12 0.262626 0.971200 0.759033
O O13 0.496750 0.033016 0.924075
O O14 0.500000 0.079779 0.250000
#
# Coordination Sequence:
#
# PCOD9270586 Si02
#       7
#     8   4   8   8   8   8   8
#     4  12  24  39  66 100 130 165 210 274 323 387
#     4  12  22  38  64  92 120 166 210 278 306 386
#     4  11  24  41  64  92 124 166 225 257 322 380
#     4  10  23  42  64  89 122 176 210 260 316 386
#     4  10  20  35  60  92 126 162 204 250 324 381
#     4  10  21  39  63  89 132 165 201 260 326 377
#     4  11  21  37  64  93 126 164 210 259 319 379
#
# _framework density 19.392911999999999
#
# number of rings (size 3 to 8) (size 9 to 14) (size 15 to 20)
#    0.000    1.231    3.077    3.692    3.231    2.462 
#    0.000    0.000    3.385    0.000    0.000    0.000 
#    0.000    0.000    0.000    0.000    0.000    0.000 
#
# Total GULP energy -145199.729359 kJ/mol
# GULP energy per Si atom -5584.604975 kJ/mol
# Density = 1.934877 g / cm^3
# Si number density = 19.392912 Si / 1000 Ang^3
#
#
#
# Elastic Constant Matrix: (Units=GPa)
#
#
# Indices 1 2 3 4 5 6 
#
# 1 101.0299 33.4074 9.6657 0.0000 -9.4760 0.0000
# 2 33.4074 57.1015 -7.4643 0.0000 -6.4049 0.0000
# 3 9.6657 -7.4643 62.7890 0.0000 -8.3318 0.0000
# 4 0.0000 0.0000 0.0000 13.5095 0.0000 5.3314
# 5 -9.4760 -6.4049 -8.3318 0.0000 25.1223 0.0000
# 6 0.0000 0.0000 0.0000 5.3314 0.0000 10.8224
#
#
#
# Elastic Compliance Matrix: (Units=1/GPa)
#
#
# Indices 1 2 3 4 5 6 
#
# 1 0.012866 -0.007641 -0.002619 0.000000 0.002036 0.000000
# 2 -0.007641 0.023078 0.004517 0.000000 0.004500 0.000000
# 3 -0.002619 0.004517 0.017666 0.000000 0.006023 0.000000
# 4 0.000000 0.000000 0.000000 0.091885 0.000000 -0.045265
# 5 0.002036 0.004500 0.006023 0.000000 0.043718 0.000000
# 6 0.000000 0.000000 0.000000 -0.045265 0.000000 0.114700
#
#
# Mechanical properties :
#
#
# Convention : Reuss Voigt Hill
#
# Bulk Modulus (GPa) = 23.73954 32.45977 28.09966
# Shear Modulus (GPa) = 15.17721 22.24496 18.71108
#
# Velocity S-wave (km/s) = 2.80056 3.39051 3.10956
# Velocity P-wave (km/s) = 4.76712 5.66584 5.23580
#
# Compressibility (1/GPa) = 0.04212381
#
# Stress axis : x y z
#
# Youngs Moduli (GPa) = 77.72188 43.33046 56.60713
#
# Poissons Ratio (x) = 0.33111 0.14824
# Poissons Ratio (y) = 0.59391 -0.25569
# Poissons Ratio (z) = 0.20354 -0.19572
#
# Static dielectric constant tensor:
#      x y z
#    x 1.656490 0.000000 -0.001900 
#    y 0.000000 1.663830 0.000000 
#    z -0.001900 0.000000 1.706300 
# 
# From -- ./inp_files/136004.got.cif
#   From: 2010.05.17/outbox.cif.g08.bks.cpg/sg15_69_cif.got.tgz:136004.got - 2010.06.03 18:47:42.
