data_PCOD9270687
_publ_section_title
;
Structure prediction by ZEFSAII (Michael W. Deem and Ramdas Pophale) SiO2 
 PCOD9270687
Probable space group: C 2/C
;
_chemical_formula_sum "Si O2"
_cell_formula_units_Z 36
_cell_length_a 15.128430
_cell_length_b 18.208015
_cell_length_c 5.289140
_cell_angle_alpha 90.000000
_cell_angle_beta 65.204827
_cell_angle_gamma 90.000000
_cell_volume 1322.628368
_symmetry_space_group_name_H-M "C 2/C"
_symmetry_group_IT_number 15
_symmetry_cell_setting 'monoclinic'
loop_
_space_group_symop_operation_xyz
x,y,z
-x,y,1/2-z
-x,-y,-z
x,-y,1/2+z
1/2+x,1/2+y,z
1/2-x,1/2+y,1/2-z
1/2-x,1/2-y,-z
1/2+x,1/2-y,1/2+z
loop_
_atom_site_type_symbol
_atom_site_label
_atom_site_fract_x
_atom_site_fract_y
_atom_site_fract_z
Si Si1 0.696343 0.428453 0.002455
Si Si2 0.317046 0.766597 0.175621
Si Si3 0.401344 0.899953 0.775118
Si Si4 0.113759 0.091495 0.106614
Si Si5 0.000000 0.706911 0.750000
O O1 0.636388 0.503713 0.080348
O O2 0.660009 0.384230 0.289266
O O3 0.808759 0.449554 0.828235
O O4 0.668357 0.382262 0.791190
O O5 0.250000 0.750000 0.500000
O O6 0.427131 0.746181 0.158600
O O7 0.250000 0.750000 0.000000
O O8 0.355085 0.848902 0.049852
O O9 0.500000 0.937845 0.750000
O O10 0.434412 0.845196 0.511312
O O11 0.000000 0.100485 0.250000
#
# Coordination Sequence:
#
# PCOD9270687 Si02
#       5
#     8   8   8   8   4
#     4  10  20  35  62  87 118 157 206 247 298 362
#     4  11  22  40  68  88 117 161 205 250 311 375
#     4  10  23  39  64  91 123 161 203 253 306 367
#     4  10  20  38  63  85 118 170 204 244 307 364
#     4  10  22  42  66  90 120 170 198 252 312 374
#
# _framework density 27.218530999999999
#
# number of rings (size 3 to 8) (size 9 to 14) (size 15 to 20)
#    0.000    1.778    2.222    3.333    6.222    0.000 
#    0.000    4.444   19.556    0.000    0.000    0.000 
#    0.000    0.000    0.000    0.000    0.000    0.000 
#
# Total GULP energy -100416.124511 kJ/mol
# GULP energy per Si atom -5578.673584 kJ/mol
# Density = 2.715658 g / cm^3
# Si number density = 27.218531 Si / 1000 Ang^3
#
#
#
# Elastic Constant Matrix: (Units=GPa)
#
#
# Indices 1 2 3 4 5 6 
#
# 1 269.0864 2.5826 114.7167 0.0000 -7.3498 0.0000
# 2 2.5826 106.0513 -21.9831 0.0000 -5.8903 0.0000
# 3 114.7167 -21.9831 287.6858 0.0000 20.2133 0.0000
# 4 0.0000 0.0000 0.0000 22.7249 0.0000 -15.3072
# 5 -7.3498 -5.8903 20.2133 0.0000 74.1948 0.0000
# 6 0.0000 0.0000 0.0000 -15.3072 0.0000 69.1898
#
#
#
# Elastic Compliance Matrix: (Units=1/GPa)
#
#
# Indices 1 2 3 4 5 6 
#
# 1 0.004565 -0.000457 -0.001921 0.000000 0.000939 0.000000
# 2 -0.000457 0.009651 0.000886 0.000000 0.000479 0.000000
# 3 -0.001921 0.000886 0.004403 0.000000 -0.001319 0.000000
# 4 0.000000 0.000000 0.000000 0.051711 0.000000 0.011440
# 5 0.000939 0.000479 -0.001319 0.000000 0.013969 0.000000
# 6 0.000000 0.000000 0.000000 0.011440 0.000000 0.016984
#
#
# Mechanical properties :
#
#
# Convention : Reuss Voigt Hill
#
# Bulk Modulus (GPa) = 63.96454 94.82844 79.39649
# Shear Modulus (GPa) = 45.67097 71.05570 58.36334
#
# Velocity S-wave (km/s) = 4.10071 5.11491 4.63563
# Velocity P-wave (km/s) = 6.78030 8.35454 7.60825
#
# Compressibility (1/GPa) = 0.01563366
#
# Stress axis : x y z
#
# Youngs Moduli (GPa) = 219.03469 103.61788 227.13689
#
# Poissons Ratio (x) = 0.04738 0.43644
# Poissons Ratio (y) = 0.10016 -0.20127
# Poissons Ratio (z) = 0.42087 -0.09182
#
# Static dielectric constant tensor:
#      x y z
#    x 2.360030 0.000000 0.171380 
#    y 0.000000 2.536320 0.000000 
#    z 0.171380 0.000000 2.103180 
# 
# From -- ./inp_files/7224.got.cif
#   From: 2010.05.17/outbox.cif.g08.bks.cpg/sg15_4_cif.got.tgz:7224.got - 2010.06.03 18:47:42.
