data_PCOD9270384
_publ_section_title
;
Structure prediction by ZEFSAII (Michael W. Deem and Ramdas Pophale) SiO2 
 PCOD9270384
Probable space group: C 2/C
;
_chemical_formula_sum "Si O2"
_cell_formula_units_Z 60
_cell_length_a 13.993018
_cell_length_b 19.456909
_cell_length_c 15.923578
_cell_angle_alpha 90.000000
_cell_angle_beta 138.461987
_cell_angle_gamma 90.000000
_cell_volume 2874.854901
_symmetry_space_group_name_H-M "C 2/C"
_symmetry_group_IT_number 15
_symmetry_cell_setting 'monoclinic'
loop_
_space_group_symop_operation_xyz
x,y,z
-x,y,1/2-z
-x,-y,-z
x,-y,1/2+z
1/2+x,1/2+y,z
1/2-x,1/2+y,1/2-z
1/2-x,1/2-y,-z
1/2+x,1/2-y,1/2+z
loop_
_atom_site_type_symbol
_atom_site_label
_atom_site_fract_x
_atom_site_fract_y
_atom_site_fract_z
Si Si1 0.383112 0.694184 0.396092
Si Si2 0.500000 0.329277 0.250000
Si Si3 0.877303 0.245518 0.834073
Si Si4 0.958243 0.918270 0.812035
Si Si5 0.290705 0.021864 0.815010
Si Si6 0.243020 0.881389 0.533249
Si Si7 0.009779 0.603779 0.430096
Si Si8 0.346090 0.480105 0.439173
O O1 0.294897 0.753860 0.290967
O O2 0.541837 0.705637 0.538033
O O3 0.389228 0.632804 0.333817
O O4 0.289138 0.676340 0.417724
O O5 0.563167 0.283946 0.215183
O O6 0.624003 0.372256 0.380656
O O7 0.928291 0.323976 0.886468
O O8 0.000000 0.888644 0.750000
O O9 0.848815 0.983918 0.734485
O O10 0.111918 0.937158 0.953034
O O11 0.239700 0.053158 0.693154
O O12 0.398381 0.959479 0.861220
O O13 0.371307 0.078079 0.923823
O O14 0.398477 0.883970 0.593756
O O15 0.223249 0.951028 0.571739
O O16 0.500000 0.500000 0.500000
#
# Coordination Sequence:
#
# PCOD9270384 Si02
#       8
#     8   4   8   8   8   8   8   8
#     4  11  23  41  62  89 121 163 203 258 308 371
#     4  10  24  34  60  96 126 164 208 238 306 386
#     4  11  22  41  59  89 130 160 202 251 307 371
#     4  11  22  41  63  85 115 157 209 256 304 354
#     4  10  22  39  58  94 124 161 202 243 312 361
#     4  11  21  36  60  94 126 164 200 251 308 370
#     4  11  22  36  64  88 130 165 194 246 308 381
#     4  10  20  35  58  86 122 154 200 250 293 356
#
# _framework density 20.870619000000001
#
# number of rings (size 3 to 8) (size 9 to 14) (size 15 to 20)
#    0.000    1.333    4.000    2.400    4.667    4.800 
#    0.000    0.667    0.000    0.000    0.000    0.000 
#    0.000    0.000    0.000    0.000    0.000    0.000 
#
# Total GULP energy -167314.562988 kJ/mol
# GULP energy per Si atom -5577.152100 kJ/mol
# Density = 2.082312 g / cm^3
# Si number density = 20.870619 Si / 1000 Ang^3
#
#
#
# Elastic Constant Matrix: (Units=GPa)
#
#
# Indices 1 2 3 4 5 6 
#
# 1 36.1313 8.3661 31.0936 0.0001 -9.4853 0.0000
# 2 8.3661 24.8170 18.7473 0.0002 -10.3072 0.0000
# 3 31.0936 18.7473 145.3482 0.0002 -19.2109 0.0000
# 4 0.0001 0.0002 0.0002 34.7454 0.0000 -0.1091
# 5 -9.4853 -10.3072 -19.2109 0.0000 25.3626 -0.0001
# 6 0.0000 0.0000 0.0000 -0.1091 -0.0001 15.9798
#
#
#
# Elastic Compliance Matrix: (Units=1/GPa)
#
#
# Indices 1 2 3 4 5 6 
#
# 1 0.035851 -0.004567 -0.006171 0.000000 0.006877 0.000000
# 2 -0.004567 0.051309 -0.003457 0.000000 0.016525 0.000000
# 3 -0.006171 -0.003457 0.009063 0.000000 0.003152 0.000000
# 4 0.000000 0.000000 0.000000 0.028781 0.000000 0.000197
# 5 0.006877 0.016525 0.003152 0.000000 0.051103 0.000000
# 6 0.000000 0.000000 0.000000 0.000197 0.000000 0.062580
#
#
# Mechanical properties :
#
#
# Convention : Reuss Voigt Hill
#
# Bulk Modulus (GPa) = 14.74233 35.85671 25.29952
# Shear Modulus (GPa) = 17.25986 25.09018 21.17502
#
# Velocity S-wave (km/s) = 2.87887 3.47100 3.18871
# Velocity P-wave (km/s) = 4.25788 5.76902 5.07007
#
# Compressibility (1/GPa) = 0.06783190
#
# Stress axis : x y z
#
# Youngs Moduli (GPa) = 27.89347 19.48957 110.34308
#
# Poissons Ratio (x) = 0.08902 0.68096
# Poissons Ratio (y) = 0.12740 0.38142
# Poissons Ratio (z) = 0.17214 0.06737
#
# Static dielectric constant tensor:
#      x y z
#    x 1.340840 0.000000 -0.114730 
#    y 0.000000 1.800140 0.000000 
#    z -0.114730 0.000000 1.779050 
# 
# From -- ./inp_files/156385.got.cif
#   From: 2010.05.17/outbox.cif.g08.bks.cpg/sg15_79_cif.got.tgz:156385.got - 2010.06.03 18:47:42.
