data_PCOD9270503
_publ_section_title
;
Structure prediction by ZEFSAII (Michael W. Deem and Ramdas Pophale) SiO2 
 PCOD9270503
Probable space group: C 2/C
;
_chemical_formula_sum "Si O2"
_cell_formula_units_Z 60
_cell_length_a 18.606719
_cell_length_b 11.387705
_cell_length_c 13.598805
_cell_angle_alpha 90.000000
_cell_angle_beta 110.498568
_cell_angle_gamma 90.000000
_cell_volume 2698.972362
_symmetry_space_group_name_H-M "C 2/C"
_symmetry_group_IT_number 15
_symmetry_cell_setting 'monoclinic'
loop_
_space_group_symop_operation_xyz
x,y,z
-x,y,1/2-z
-x,-y,-z
x,-y,1/2+z
1/2+x,1/2+y,z
1/2-x,1/2+y,1/2-z
1/2-x,1/2-y,-z
1/2+x,1/2-y,1/2+z
loop_
_atom_site_type_symbol
_atom_site_label
_atom_site_fract_x
_atom_site_fract_y
_atom_site_fract_z
Si Si1 0.760265 0.169512 0.848703
Si Si2 0.387581 0.970601 0.252977
Si Si3 0.940795 0.954181 0.615625
Si Si4 0.425983 0.599406 0.885674
Si Si5 0.381614 0.011491 0.024932
Si Si6 0.000000 0.731582 0.750000
Si Si7 0.029521 0.354796 0.555182
Si Si8 0.723517 0.418165 0.915900
O O1 0.696015 0.084965 0.771874
O O2 0.839035 0.143941 0.828855
O O3 0.735760 0.307021 0.848022
O O4 0.770764 0.131745 0.968802
O O5 0.384693 0.026150 0.142622
O O6 0.440985 0.855802 0.273289
O O7 0.425293 0.067242 0.341443
O O8 0.923419 0.964054 0.490631
O O9 0.959172 0.820979 0.655714
O O10 0.859648 0.978509 0.630227
O O11 0.022151 0.022236 0.662204
O O12 0.471558 0.720332 0.920074
O O13 0.442645 0.099676 0.006904
O O14 0.419558 0.885474 0.015818
O O15 0.295680 0.005738 0.944531
#
# Coordination Sequence:
#
# PCOD9270503 Si02
#       8
#     8   8   8   8   8   4   8   8
#     4   9  17  33  59  84 115 150 198 253 301 356
#     4  11  21  36  59  89 122 152 201 260 298 357
#     4  10  22  38  62  83 119 160 199 251 306 376
#     4  10  21  41  59  87 119 160 200 251 312 373
#     4  10  20  35  59  90 114 155 201 248 305 362
#     4  12  20  36  58  90 114 150 208 248 296 364
#     4  11  21  34  62  92 120 156 198 258 310 362
#     4   9  16  33  61  84 108 155 201 243 300 369
#
# _framework density 22.230684
#
# number of rings (size 3 to 8) (size 9 to 14) (size 15 to 20)
#    0.000    1.867    4.000    0.800    1.867    0.000 
#    7.200    0.667    0.000    0.000    0.000    0.000 
#    0.000    0.000    0.000    0.000    0.000    0.000 
#
# Total GULP energy -167379.552204 kJ/mol
# GULP energy per Si atom -5579.318407 kJ/mol
# Density = 2.218009 g / cm^3
# Si number density = 22.230684 Si / 1000 Ang^3
#
#
#
# Elastic Constant Matrix: (Units=GPa)
#
#
# Indices 1 2 3 4 5 6 
#
# 1 198.7701 42.1806 30.1805 0.0000 16.7088 0.0000
# 2 42.1806 58.1597 5.1884 0.0000 0.7626 0.0000
# 3 30.1805 5.1884 60.9940 0.0000 -5.5238 0.0000
# 4 0.0000 0.0000 0.0000 19.7473 0.0000 1.1526
# 5 16.7088 0.7626 -5.5238 0.0000 24.9837 0.0000
# 6 0.0000 0.0000 0.0000 1.1526 0.0000 19.5858
#
#
#
# Elastic Compliance Matrix: (Units=1/GPa)
#
#
# Indices 1 2 3 4 5 6 
#
# 1 0.007017 -0.004702 -0.003555 0.000000 -0.005335 0.000000
# 2 -0.004702 0.020495 0.000828 0.000000 0.002702 0.000000
# 3 -0.003555 0.000828 0.018671 0.000000 0.006481 0.000000
# 4 0.000000 0.000000 0.000000 0.050814 0.000000 -0.002990
# 5 -0.005335 0.002702 0.006481 0.000000 0.044945 0.000000
# 6 0.000000 0.000000 0.000000 -0.002990 0.000000 0.051233
#
#
# Mechanical properties :
#
#
# Convention : Reuss Voigt Hill
#
# Bulk Modulus (GPa) = 31.92453 52.55808 42.24130
# Shear Modulus (GPa) = 22.88586 28.88831 25.88709
#
# Velocity S-wave (km/s) = 3.21202 3.60874 3.41614
# Velocity P-wave (km/s) = 5.30545 6.40761 5.88240
#
# Compressibility (1/GPa) = 0.03132387
#
# Stress axis : x y z
#
# Youngs Moduli (GPa) = 142.50932 48.79255 53.55967
#
# Poissons Ratio (x) = 0.22942 0.19042
# Poissons Ratio (y) = 0.67008 -0.04434
# Poissons Ratio (z) = 0.50667 -0.04040
#
# Static dielectric constant tensor:
#      x y z
#    x 1.886610 0.000000 0.027470 
#    y 0.000000 1.784350 0.000000 
#    z 0.027470 0.000000 1.954140 
# 
# From -- ./inp_files/160971.got.cif
#   From: 2010.05.17/outbox.cif.g08.bks.cpg/sg15_81_cif.got.tgz:160971.got - 2010.06.03 18:47:42.
