data_PCOD9270506
_publ_section_title
;
Structure prediction by ZEFSAII (Michael W. Deem and Ramdas Pophale) SiO2 
 PCOD9270506
Probable space group: C 2/C
;
_chemical_formula_sum "Si O2"
_cell_formula_units_Z 36
_cell_length_a 16.636659
_cell_length_b 5.574392
_cell_length_c 18.424831
_cell_angle_alpha 90.000000
_cell_angle_beta 133.552466
_cell_angle_gamma 90.000000
_cell_volume 1238.373372
_symmetry_space_group_name_H-M "C 2/C"
_symmetry_group_IT_number 15
_symmetry_cell_setting 'monoclinic'
loop_
_space_group_symop_operation_xyz
x,y,z
-x,y,1/2-z
-x,-y,-z
x,-y,1/2+z
1/2+x,1/2+y,z
1/2-x,1/2+y,1/2-z
1/2-x,1/2-y,-z
1/2+x,1/2-y,1/2+z
loop_
_atom_site_type_symbol
_atom_site_label
_atom_site_fract_x
_atom_site_fract_y
_atom_site_fract_z
Si Si1 0.500000 0.168498 0.250000
Si Si2 0.562049 0.037804 0.440329
Si Si3 0.074171 0.054195 0.470011
Si Si4 0.178211 0.053341 0.372175
Si Si5 0.249678 0.133735 0.704131
O O1 0.548655 0.026515 0.346575
O O2 0.600943 0.345654 0.292207
O O3 0.517911 0.298751 0.430454
O O4 0.808343 0.479086 0.456469
O O5 0.504463 0.798529 0.432678
O O6 0.140946 0.074075 0.434049
O O7 0.154111 0.053607 0.588307
O O8 0.165887 0.268569 0.306441
O O9 0.228319 0.388088 0.735480
#
# Coordination Sequence:
#
# PCOD9270506 Si02
#       5
#     4   8   8   8   8
#     4  10  20  36  64  96 120 154 210 260 298 356
#     4  10  20  35  59  90 122 151 194 254 306 347
#     4  10  20  38  61  86 120 158 201 253 299 350
#     4  10  22  41  65  92 124 160 206 256 304 357
#     4  11  22  37  62  91 122 163 206 247 306 371
#
# _framework density 29.070392999999999
#
# number of rings (size 3 to 8) (size 9 to 14) (size 15 to 20)
#    0.000    1.778    0.000    8.000    0.000    7.111 
#    0.000    1.111    0.000   32.000    0.000    0.000 
#    0.000    0.000    0.000    0.000    0.000    0.000 
#
# Total GULP energy -100703.926730 kJ/mol
# GULP energy per Si atom -5594.662596 kJ/mol
# Density = 2.900423 g / cm^3
# Si number density = 29.070393 Si / 1000 Ang^3
#
#
#
# Elastic Constant Matrix: (Units=GPa)
#
#
# Indices 1 2 3 4 5 6 
#
# 1 126.7109 50.0371 41.6363 0.0000 -35.3820 0.0000
# 2 50.0371 279.8609 90.4415 -0.0001 -25.8385 0.0003
# 3 41.6363 90.4415 207.2529 0.0000 -25.5652 0.0000
# 4 0.0000 -0.0001 0.0000 72.1856 0.0000 -14.0116
# 5 -35.3820 -25.8385 -25.5652 0.0000 64.1516 0.0000
# 6 0.0000 0.0003 0.0000 -14.0116 0.0000 38.0673
#
#
#
# Elastic Compliance Matrix: (Units=1/GPa)
#
#
# Indices 1 2 3 4 5 6 
#
# 1 0.009921 -0.001030 -0.000967 0.000000 0.004671 0.000000
# 2 -0.001030 0.004329 -0.001617 0.000000 0.000531 0.000000
# 3 -0.000967 -0.001617 0.005867 0.000000 0.001153 0.000000
# 4 0.000000 0.000000 0.000000 0.014919 0.000000 0.005491
# 5 0.004671 0.000531 0.001153 0.000000 0.018838 0.000000
# 6 0.000000 0.000000 0.000000 0.005491 0.000000 0.028290
#
#
# Mechanical properties :
#
#
# Convention : Reuss Voigt Hill
#
# Bulk Modulus (GPa) = 77.58466 108.67271 93.12869
# Shear Modulus (GPa) = 53.36818 63.66157 58.51487
#
# Velocity S-wave (km/s) = 4.28930 4.68473 4.49137
# Velocity P-wave (km/s) = 7.16082 8.16860 7.68125
#
# Compressibility (1/GPa) = 0.01288915
#
# Stress axis : x y z
#
# Youngs Moduli (GPa) = 100.79637 231.01028 170.44187
#
# Poissons Ratio (x) = 0.23791 0.16489
# Poissons Ratio (y) = 0.10381 0.27553
# Poissons Ratio (z) = 0.09751 0.37345
#
# Static dielectric constant tensor:
#      x y z
#    x 2.344980 0.000000 -0.067110 
#    y 0.000000 2.314240 0.000000 
#    z -0.067110 0.000000 2.121270 
# 
# From -- ./inp_files/175095.got.cif
#   From: 2010.05.17/outbox.cif.g08.bks.cpg/sg15_88_cif.got.tgz:175095.got - 2010.06.03 18:47:42.
