data_PCOD9270617
_publ_section_title
;
Structure prediction by ZEFSAII (Michael W. Deem and Ramdas Pophale) SiO2 
 PCOD9270617
Probable space group: C 2/C
;
_chemical_formula_sum "Si O2"
_cell_formula_units_Z 44
_cell_length_a 6.948234
_cell_length_b 22.523925
_cell_length_c 13.914102
_cell_angle_alpha 90.000000
_cell_angle_beta 75.036806
_cell_angle_gamma 90.000000
_cell_volume 2103.740303
_symmetry_space_group_name_H-M "C 2/C"
_symmetry_group_IT_number 15
_symmetry_cell_setting 'monoclinic'
loop_
_space_group_symop_operation_xyz
x,y,z
-x,y,1/2-z
-x,-y,-z
x,-y,1/2+z
1/2+x,1/2+y,z
1/2-x,1/2+y,1/2-z
1/2-x,1/2-y,-z
1/2+x,1/2-y,1/2+z
loop_
_atom_site_type_symbol
_atom_site_label
_atom_site_fract_x
_atom_site_fract_y
_atom_site_fract_z
Si Si1 0.500000 0.187105 0.750000
Si Si2 0.300906 0.923909 0.315752
Si Si3 0.653419 0.124023 0.142255
Si Si4 0.506236 0.699213 0.138549
Si Si5 0.021550 0.979267 0.887374
Si Si6 0.815989 0.604730 0.038759
O O1 0.316042 0.141393 0.766589
O O2 0.475006 0.230820 0.843779
O O3 0.500000 0.955572 0.250000
O O4 0.330914 0.913326 0.425787
O O5 0.107673 0.962931 0.324919
O O6 0.500000 0.130781 0.250000
O O7 0.798318 0.180900 0.117859
O O8 0.805721 0.070059 0.139632
O O9 0.524588 0.112748 0.064119
O O10 0.500000 0.675144 0.250000
O O11 0.686070 0.664977 0.065031
O O12 0.815438 0.946313 0.890371
O O13 0.000000 0.000000 0.000000
#
# Coordination Sequence:
#
# PCOD9270617 Si02
#       6
#     4   8   8   8   8   8
#     4   8  18  36  60  84 122 160 198 240 294 360
#     4   9  19  37  57  85 120 163 196 234 303 359
#     4  11  19  33  59  86 114 146 197 255 292 339
#     4   9  18  36  56  85 113 149 196 246 288 340
#     4   9  20  35  55  84 115 150 199 239 300 357
#     4  10  20  35  61  86 114 155 198 251 289 345
#
# _framework density 20.915130000000001
#
# number of rings (size 3 to 8) (size 9 to 14) (size 15 to 20)
#    1.091    1.455    1.818    0.545    0.000    3.636 
#    0.000    2.727    0.000   26.182    0.000    0.000 
#    0.000    0.000    0.000    0.000    0.000    0.182 
#
# Total GULP energy -122565.830289 kJ/mol
# GULP energy per Si atom -5571.174104 kJ/mol
# Density = 2.086753 g / cm^3
# Si number density = 20.915130 Si / 1000 Ang^3
#
#
#
# Elastic Constant Matrix: (Units=GPa)
#
#
# Indices 1 2 3 4 5 6 
#
# 1 88.9806 27.6182 24.9320 0.0000 10.1978 0.0000
# 2 27.6182 114.2285 9.1357 0.0000 -10.9355 0.0000
# 3 24.9320 9.1357 67.6483 0.0000 -10.1679 0.0000
# 4 0.0000 0.0000 0.0000 9.6350 0.0000 15.3016
# 5 10.1978 -10.9355 -10.1679 0.0000 28.4701 0.0000
# 6 0.0000 0.0000 0.0000 15.3016 0.0000 -36.6776
#
#
#
# Elastic Compliance Matrix: (Units=1/GPa)
#
#
# Indices 1 2 3 4 5 6 
#
# 1 0.015434 -0.004112 -0.006553 0.000000 -0.009448 0.000000
# 2 -0.004112 0.010220 0.001000 0.000000 0.005756 0.000000
# 3 -0.006553 0.001000 0.018464 0.000000 0.009326 0.000000
# 4 0.000000 0.000000 0.000000 0.062427 0.000000 0.026044
# 5 -0.009448 0.005756 0.009326 0.000000 0.044050 0.000000
# 6 0.000000 0.000000 0.000000 0.026044 0.000000 -0.016399
#
#
# Mechanical properties :
#
#
# Convention : Reuss Voigt Hill
#
# Bulk Modulus (GPa) = 40.34140 43.80323 42.07231
# Shear Modulus (GPa) = 30.90489 14.23026 22.56758
#
# Velocity S-wave (km/s) = 3.84817 2.61124 3.28839
# Velocity P-wave (km/s) = 6.25096 5.48454 5.88025
#
# Compressibility (1/GPa) = 0.02478843
#
# Stress axis : x y z
#
# Youngs Moduli (GPa) = 64.79395 97.85169 54.15940
#
# Poissons Ratio (x) = 0.40236 0.35490
# Poissons Ratio (y) = 0.26643 -0.05418
# Poissons Ratio (z) = 0.42458 -0.09789
#
# Static dielectric constant tensor:
#      x y z
#    x 1.740850 0.000000 -0.002690 
#    y 0.000000 1.799970 0.000000 
#    z -0.002690 0.000000 1.793730 
# 
# From -- ./inp_files/129784.got.cif
#   From: 2010.05.17/outbox.cif.g08.bks.cpg/sg15_65_cif.got.tgz:129784.got - 2010.06.03 18:47:42.
