data_PCOD9270657
_publ_section_title
;
Structure prediction by ZEFSAII (Michael W. Deem and Ramdas Pophale) SiO2 
 PCOD9270657
Probable space group: C 2/C
;
_chemical_formula_sum "Si O2"
_cell_formula_units_Z 48
_cell_length_a 9.544628
_cell_length_b 21.581413
_cell_length_c 27.529711
_cell_angle_alpha 90.000000
_cell_angle_beta 152.841185
_cell_angle_gamma 90.000000
_cell_volume 2588.462147
_symmetry_space_group_name_H-M "C 2/C"
_symmetry_group_IT_number 15
_symmetry_cell_setting 'monoclinic'
loop_
_space_group_symop_operation_xyz
x,y,z
-x,y,1/2-z
-x,-y,-z
x,-y,1/2+z
1/2+x,1/2+y,z
1/2-x,1/2+y,1/2-z
1/2-x,1/2-y,-z
1/2+x,1/2-y,1/2+z
loop_
_atom_site_type_symbol
_atom_site_label
_atom_site_fract_x
_atom_site_fract_y
_atom_site_fract_z
Si Si1 0.500000 0.754255 0.750000
Si Si2 0.643138 0.554646 0.683413
Si Si3 0.435655 0.147446 0.850410
Si Si4 0.158895 0.045733 0.008949
Si Si5 0.700968 0.031845 0.628663
Si Si6 0.157886 0.856411 0.583967
Si Si7 0.000000 0.450688 0.750000
O O1 0.752563 0.710382 0.802862
O O2 0.338268 0.797042 0.659319
O O3 0.804369 0.609442 0.763454
O O4 0.573367 0.566701 0.605402
O O5 0.326602 0.536687 0.612948
O O6 0.864018 0.494734 0.749824
O O7 0.363379 0.101568 0.873000
O O8 0.801091 0.156046 0.963686
O O9 0.274999 0.106742 0.072707
O O10 0.420576 0.008145 0.061589
O O11 0.000000 0.000000 0.000000
O O12 0.000000 0.008997 0.750000
O O13 0.224455 0.907387 0.646623
#
# Coordination Sequence:
#
# PCOD9270657 Si02
#       7
#     4   8   8   8   8   8   4
#     4  11  24  42  62  84 126 171 228 258 306 377
#     4  11  21  34  65  94 131 166 200 261 319 387
#     4  11  20  41  61  87 120 169 221 256 306 372
#     4  12  21  38  61  99 133 157 205 260 333 384
#     4  10  20  35  61  92 131 162 200 260 314 383
#     4  11  23  37  62  92 124 164 208 264 315 376
#     4  11  20  36  60 104 126 157 202 260 332 375
#
# _framework density 18.543828999999999
#
# number of rings (size 3 to 8) (size 9 to 14) (size 15 to 20)
#    0.000    1.000    5.833    4.000    0.000    0.000 
#    0.000    0.833    0.000    0.000    0.000    0.000 
#    0.000    0.000    0.000    0.000    0.000    0.000 
#
# Total GULP energy -133835.479095 kJ/mol
# GULP energy per Si atom -5576.478296 kJ/mol
# Density = 1.850162 g / cm^3
# Si number density = 18.543829 Si / 1000 Ang^3
#
#
#
# Elastic Constant Matrix: (Units=GPa)
#
#
# Indices 1 2 3 4 5 6 
#
# 1 110.5124 53.2755 49.5391 -0.0008 -4.4299 0.0001
# 2 53.2755 134.4375 68.3295 0.0079 0.7632 -0.0031
# 3 49.5391 68.3295 121.1075 0.0011 -1.0716 -0.0040
# 4 -0.0008 0.0079 0.0011 32.7752 -0.0061 2.7272
# 5 -4.4299 0.7632 -1.0716 -0.0061 31.7563 -0.0023
# 6 0.0001 -0.0031 -0.0040 2.7272 -0.0023 24.2071
#
#
#
# Elastic Compliance Matrix: (Units=1/GPa)
#
#
# Indices 1 2 3 4 5 6 
#
# 1 0.012054 -0.003207 -0.003106 0.000002 0.001654 -0.000001
# 2 -0.003207 0.011289 -0.005065 -0.000003 -0.000890 0.000001
# 3 -0.003106 -0.005065 0.012387 0.000001 0.000106 0.000001
# 4 0.000002 -0.000003 0.000001 0.030800 0.000006 -0.003470
# 5 0.001654 -0.000890 0.000106 0.000006 0.031746 0.000002
# 6 -0.000001 0.000001 0.000001 -0.003470 0.000002 0.041701
#
#
# Mechanical properties :
#
#
# Convention : Reuss Voigt Hill
#
# Bulk Modulus (GPa) = 77.09226 78.70508 77.89867
# Shear Modulus (GPa) = 29.92994 30.74193 30.33594
#
# Velocity S-wave (km/s) = 4.02183 4.07602 4.04902
# Velocity P-wave (km/s) = 7.95174 8.04281 7.99740
#
# Compressibility (1/GPa) = 0.01297147
#
# Stress axis : x y z
#
# Youngs Moduli (GPa) = 82.96232 88.58277 80.73264
#
# Poissons Ratio (x) = 0.28410 0.25079
# Poissons Ratio (y) = 0.26608 0.40893
# Poissons Ratio (z) = 0.25771 0.44869
#
# Static dielectric constant tensor:
#      x y z
#    x 1.665780 0.000000 -0.013550 
#    y 0.000000 1.637400 0.000000 
#    z -0.013550 0.000000 1.733190 
# 
# From -- ./inp_files/290160.got.cif
#   From: 2010.05.17/outbox.cif.g08.bks.cpg/sg15_146_cif.got.tgz:290160.got - 2010.06.03 18:47:42.
