data_PCOD9270883
_publ_section_title
;
Structure prediction by ZEFSAII (Michael W. Deem and Ramdas Pophale) SiO2 
 PCOD9270883
Probable space group: C 2/C
;
_chemical_formula_sum "Si O2"
_cell_formula_units_Z 56
_cell_length_a 26.150943
_cell_length_b 9.229478
_cell_length_c 12.225597
_cell_angle_alpha 90.000000
_cell_angle_beta 69.676734
_cell_angle_gamma 90.000000
_cell_volume 2767.073563
_symmetry_space_group_name_H-M "C 2/C"
_symmetry_group_IT_number 15
_symmetry_cell_setting 'monoclinic'
loop_
_space_group_symop_operation_xyz
x,y,z
-x,y,1/2-z
-x,-y,-z
x,-y,1/2+z
1/2+x,1/2+y,z
1/2-x,1/2+y,1/2-z
1/2-x,1/2-y,-z
1/2+x,1/2-y,1/2+z
loop_
_atom_site_type_symbol
_atom_site_label
_atom_site_fract_x
_atom_site_fract_y
_atom_site_fract_z
Si Si1 0.936769 0.281499 0.676628
Si Si2 0.000000 0.466005 0.250000
Si Si3 0.247354 0.650836 0.879746
Si Si4 0.000000 0.973892 0.250000
Si Si5 0.682381 0.402587 0.577075
Si Si6 0.066030 0.786716 0.580489
Si Si7 0.825997 0.623785 0.371954
Si Si8 0.222105 0.350347 0.161225
O O1 0.959612 0.136530 0.717750
O O2 0.931583 0.253321 0.550310
O O3 0.879721 0.315207 0.778570
O O4 0.974088 0.422047 0.680143
O O5 0.955713 0.356960 0.338615
O O6 0.295024 0.560551 0.906315
O O7 0.274080 0.807826 0.847920
O O8 0.233454 0.594128 0.772459
O O9 0.191907 0.654567 0.990515
O O10 0.024448 0.082861 0.140968
O O11 0.622608 0.356954 0.582624
O O12 0.722750 0.354661 0.449561
O O13 0.697462 0.308577 0.672420
O O14 0.822138 0.452537 0.362899
#
# Coordination Sequence:
#
# PCOD9270883 Si02
#       8
#     8   4   8   4   8   8   8   8
#     4  11  22  41  64  86 120 162 197 252 311 353
#     4  10  24  40  60  92 120 154 210 250 298 372
#     4  10  20  36  54  83 118 148 186 237 284 346
#     4  10  24  42  62  90 116 152 212 254 300 368
#     4  10  21  35  58  86 114 152 196 233 289 358
#     4  11  22  41  63  88 122 157 200 256 304 351
#     4  10  21  34  55  83 111 146 191 230 283 355
#     4  10  20  36  55  83 118 151 185 232 285 347
#
# _framework density 20.237988000000001
#
# number of rings (size 3 to 8) (size 9 to 14) (size 15 to 20)
#    0.000    1.714    0.000    4.286    0.000    3.429 
#    0.000    8.571    0.000    0.000    0.000    0.000 
#    0.000    0.000    0.000    0.000    0.000    0.000 
#
# Total GULP energy -155961.067078 kJ/mol
# GULP energy per Si atom -5570.038110 kJ/mol
# Density = 2.019193 g / cm^3
# Si number density = 20.237988 Si / 1000 Ang^3
#
#
#
# Elastic Constant Matrix: (Units=GPa)
#
#
# Indices 1 2 3 4 5 6 
#
# 1 72.6970 24.8943 66.7516 0.0000 -10.8411 0.0000
# 2 24.8943 112.0507 46.5215 0.0000 -8.1045 0.0000
# 3 66.7516 46.5215 113.7181 0.0000 -6.7587 0.0000
# 4 0.0000 0.0000 0.0000 17.1434 0.0000 -4.0838
# 5 -10.8411 -8.1045 -6.7587 0.0000 29.5031 0.0000
# 6 0.0000 0.0000 0.0000 -4.0838 0.0000 24.2914
#
#
#
# Elastic Compliance Matrix: (Units=1/GPa)
#
#
# Indices 1 2 3 4 5 6 
#
# 1 0.031502 0.001258 -0.018550 0.000000 0.007672 0.000000
# 2 0.001258 0.010915 -0.005067 0.000000 0.002300 0.000000
# 3 -0.018550 -0.005067 0.021561 0.000000 -0.003269 0.000000
# 4 0.000000 0.000000 0.000000 0.060765 0.000000 0.010216
# 5 0.007672 0.002300 -0.003269 0.000000 0.036597 0.000000
# 6 0.000000 0.000000 0.000000 0.010216 0.000000 0.042884
#
#
# Mechanical properties :
#
#
# Convention : Reuss Voigt Hill
#
# Bulk Modulus (GPa) = 51.92189 63.86675 57.89432
# Shear Modulus (GPa) = 19.58001 24.87414 22.22708
#
# Velocity S-wave (km/s) = 3.11382 3.50963 3.31763
# Velocity P-wave (km/s) = 6.21604 6.93179 6.58365
#
# Compressibility (1/GPa) = 0.01925970
#
# Stress axis : x y z
#
# Youngs Moduli (GPa) = 31.74396 91.61585 46.38015
#
# Poissons Ratio (x) = -0.11523 0.86035
# Poissons Ratio (y) = -0.03992 0.23500
# Poissons Ratio (z) = 0.58885 0.46421
#
# Static dielectric constant tensor:
#      x y z
#    x 1.728520 0.000000 -0.004070 
#    y 0.000000 1.756580 0.000000 
#    z -0.004070 0.000000 1.710910 
# 
# From -- ./inp_files/121919.got.cif
#   From: 2010.05.17/outbox.cif.g08.bks.cpg/sg15_61_cif.got.tgz:121919.got - 2010.06.03 18:47:42.
