data_PCOD9270070
_publ_section_title
;
Structure prediction by ZEFSAII (Michael W. Deem and Ramdas Pophale) SiO2 
 PCOD9270070
Probable space group: C 2/C
;
_chemical_formula_sum "Si O2"
_cell_formula_units_Z 56
_cell_length_a 23.604183
_cell_length_b 24.251872
_cell_length_c 5.258256
_cell_angle_alpha 90.000000
_cell_angle_beta 112.360188
_cell_angle_gamma 90.000000
_cell_volume 2783.740604
_symmetry_space_group_name_H-M "C 2/C"
_symmetry_group_IT_number 15
_symmetry_cell_setting 'monoclinic'
loop_
_space_group_symop_operation_xyz
x,y,z
-x,y,1/2-z
-x,-y,-z
x,-y,1/2+z
1/2+x,1/2+y,z
1/2-x,1/2+y,1/2-z
1/2-x,1/2-y,-z
1/2+x,1/2-y,1/2+z
loop_
_atom_site_type_symbol
_atom_site_label
_atom_site_fract_x
_atom_site_fract_y
_atom_site_fract_z
Si Si1 0.246838 0.639793 0.241369
Si Si2 0.637372 0.300769 0.558501
Si Si3 0.586310 0.026900 0.228250
Si Si4 0.225202 0.517920 0.030111
Si Si5 0.431018 0.733596 0.045649
Si Si6 0.810661 0.313599 0.349980
Si Si7 0.934326 0.652290 0.272434
O O1 0.320196 0.645732 0.359968
O O2 0.222550 0.580242 0.117538
O O3 0.224052 0.655111 0.482977
O O4 0.219540 0.678785 0.974439
O O5 0.610281 0.284626 0.786616
O O6 0.683376 0.250395 0.570372
O O7 0.588347 0.297775 0.246823
O O8 0.574840 0.090405 0.141528
O O9 0.561959 0.012744 0.466172
O O10 0.658770 0.010999 0.373839
O O11 0.256646 0.484821 0.310716
O O12 0.500000 0.722902 0.250000
O O13 0.426596 0.798713 0.964327
O O14 0.879797 0.337522 0.477469
O O15 0.000000 0.657927 0.250000
#
# Coordination Sequence:
#
# PCOD9270070 Si02
#       7
#     8   8   8   8   8   8   8
#     4  12  22  38  60  85 118 152 196 248 304 359
#     4  11  23  37  60  91 117 150 195 238 294 373
#     4  10  21  37  53  76 105 147 204 257 299 329
#     4  10  20  35  55  77 109 152 191 235 294 344
#     4  11  23  42  62  87 123 156 191 241 298 356
#     4  11  21  36  55  81 117 154 194 250 309 349
#     4  11  24  39  59  82 114 164 217 253 293 347
#
# _framework density 20.116819
#
# number of rings (size 3 to 8) (size 9 to 14) (size 15 to 20)
#    0.000    1.143    0.000    9.857    0.000    4.000 
#    0.000    0.000    0.000    0.000    0.000    0.000 
#    0.000   11.429    0.000    0.000    0.000    0.000 
#
# Total GULP energy -156462.335375 kJ/mol
# GULP energy per Si atom -5587.940549 kJ/mol
# Density = 2.007103 g / cm^3
# Si number density = 20.116819 Si / 1000 Ang^3
#
#
#
# Elastic Constant Matrix: (Units=GPa)
#
#
# Indices 1 2 3 4 5 6 
#
# 1 89.9591 36.1553 41.3896 0.0000 -2.8603 0.0000
# 2 36.1553 38.4018 17.3042 0.0000 4.3813 0.0000
# 3 41.3896 17.3042 118.4601 0.0000 -8.7263 0.0000
# 4 0.0000 0.0000 0.0000 18.6530 0.0000 2.8008
# 5 -2.8603 4.3813 -8.7263 0.0000 31.6694 0.0000
# 6 0.0000 0.0000 0.0000 2.8008 0.0000 19.3108
#
#
#
# Elastic Compliance Matrix: (Units=1/GPa)
#
#
# Indices 1 2 3 4 5 6 
#
# 1 0.020187 -0.017424 -0.004283 0.000000 0.003054 0.000000
# 2 -0.017424 0.043740 -0.000881 0.000000 -0.007868 0.000000
# 3 -0.004283 -0.000881 0.010255 0.000000 0.002561 0.000000
# 4 0.000000 0.000000 0.000000 0.054804 0.000000 -0.007949
# 5 0.003054 -0.007868 0.002561 0.000000 0.033646 0.000000
# 6 0.000000 0.000000 0.000000 -0.007949 0.000000 0.052937
#
#
# Mechanical properties :
#
#
# Convention : Reuss Voigt Hill
#
# Bulk Modulus (GPa) = 34.47587 48.50215 41.48901
# Shear Modulus (GPa) = 18.49009 24.05809 21.27409
#
# Velocity S-wave (km/s) = 3.03501 3.46196 3.25549
# Velocity P-wave (km/s) = 5.42741 6.33583 5.89914
#
# Compressibility (1/GPa) = 0.02900579
#
# Stress axis : x y z
#
# Youngs Moduli (GPa) = 49.53724 22.86233 97.50902
#
# Poissons Ratio (x) = 0.39836 0.41763
# Poissons Ratio (y) = 0.86315 0.08590
# Poissons Ratio (z) = 0.21217 0.02014
#
# Static dielectric constant tensor:
#      x y z
#    x 1.853190 0.000000 -0.022360 
#    y 0.000000 1.755660 0.000000 
#    z -0.022360 0.000000 1.772610 
# 
# From -- ./inp_files/16182.got.cif
#   From: 2010.05.17/outbox.cif.g08.bks.cpg/sg15_9_cif.got.tgz:16182.got - 2010.06.03 18:47:42.
