data_PCOD9270684
_publ_section_title
;
Structure prediction by ZEFSAII (Michael W. Deem and Ramdas Pophale) SiO2 
 PCOD9270684
Probable space group: C 2/C
;
_chemical_formula_sum "Si O2"
_cell_formula_units_Z 44
_cell_length_a 8.307504
_cell_length_b 11.641378
_cell_length_c 23.577928
_cell_angle_alpha 90.000000
_cell_angle_beta 58.380952
_cell_angle_gamma 90.000000
_cell_volume 1941.744624
_symmetry_space_group_name_H-M "C 2/C"
_symmetry_group_IT_number 15
_symmetry_cell_setting 'monoclinic'
loop_
_space_group_symop_operation_xyz
x,y,z
-x,y,1/2-z
-x,-y,-z
x,-y,1/2+z
1/2+x,1/2+y,z
1/2-x,1/2+y,1/2-z
1/2-x,1/2-y,-z
1/2+x,1/2-y,1/2+z
loop_
_atom_site_type_symbol
_atom_site_label
_atom_site_fract_x
_atom_site_fract_y
_atom_site_fract_z
Si Si1 0.603404 0.196813 0.856267
Si Si2 0.279179 0.784903 0.561154
Si Si3 0.539342 0.550442 0.931021
Si Si4 0.000000 0.723703 0.250000
Si Si5 0.434361 0.006846 0.322222
Si Si6 0.332124 0.151607 0.526538
O O1 0.434789 0.288947 0.875726
O O2 0.515768 0.072697 0.856297
O O3 0.648410 0.200983 0.914290
O O4 0.802933 0.210984 0.788367
O O5 0.250000 0.750000 0.500000
O O6 0.371240 0.675990 0.576138
O O7 0.452320 0.875268 0.532270
O O8 0.708310 0.485178 0.868715
O O9 0.333610 0.557612 0.941398
O O10 0.500000 0.500000 0.000000
O O11 0.007496 0.636536 0.302434
O O12 0.500000 0.952375 0.250000
O O13 0.250000 0.250000 0.500000
#
# Coordination Sequence:
#
# PCOD9270684 Si02
#       6
#     8   8   8   4   8   8
#     4  10  20  40  66  89 131 165 209 277 311 372
#     4   8  17  34  56  86 117 152 203 255 313 375
#     4  10  20  35  62  86 125 160 195 274 314 361
#     4  10  24  38  76  78 122 186 208 254 328 384
#     4   9  23  41  60  94 125 166 218 259 324 387
#     4   9  19  34  66  93 116 166 208 251 331 387
#
# _framework density 22.660034
#
# number of rings (size 3 to 8) (size 9 to 14) (size 15 to 20)
#    0.545    2.182    0.000    0.000   10.182    0.000 
#    0.000    8.182   14.000    0.000    0.000    0.000 
#    0.000    0.000    0.000    0.000    0.000    0.000 
#
# Total GULP energy -122585.305487 kJ/mol
# GULP energy per Si atom -5572.059340 kJ/mol
# Density = 2.260846 g / cm^3
# Si number density = 22.660034 Si / 1000 Ang^3
#
#
#
# Elastic Constant Matrix: (Units=GPa)
#
#
# Indices 1 2 3 4 5 6 
#
# 1 154.5124 35.9638 59.7179 0.0000 -52.3496 0.0000
# 2 35.9638 38.4433 13.4067 0.0000 -20.7139 0.0000
# 3 59.7179 13.4067 111.9393 0.0000 -54.2359 0.0000
# 4 0.0000 0.0000 0.0000 28.8000 0.0000 -5.4201
# 5 -52.3496 -20.7139 -54.2359 0.0000 66.2406 0.0000
# 6 0.0000 0.0000 0.0000 -5.4201 0.0000 36.3952
#
#
#
# Elastic Compliance Matrix: (Units=1/GPa)
#
#
# Indices 1 2 3 4 5 6 
#
# 1 0.010446 -0.006732 -0.002961 0.000000 0.003725 0.000000
# 2 -0.006732 0.035806 0.003564 0.000000 0.008795 0.000000
# 3 -0.002961 0.003564 0.015734 0.000000 0.011657 0.000000
# 4 0.000000 0.000000 0.000000 0.035723 0.000000 0.005320
# 5 0.003725 0.008795 0.011657 0.000000 0.030335 0.000000
# 6 0.000000 0.000000 0.000000 0.005320 0.000000 0.028268
#
#
# Mechanical properties :
#
#
# Convention : Reuss Voigt Hill
#
# Bulk Modulus (GPa) = 20.10955 58.11909 39.11432
# Shear Modulus (GPa) = 27.00562 39.34093 33.17327
#
# Velocity S-wave (km/s) = 3.45595 4.17122 3.83032
# Velocity P-wave (km/s) = 4.98182 6.99305 6.07129
#
# Compressibility (1/GPa) = 0.04972761
#
# Stress axis : x y z
#
# Youngs Moduli (GPa) = 95.73470 27.92847 63.55521
#
# Poissons Ratio (x) = 0.18801 0.18821
# Poissons Ratio (y) = 0.64447 -0.22652
# Poissons Ratio (z) = 0.28350 -0.09954
#
# Static dielectric constant tensor:
#      x y z
#    x 1.849410 0.000000 -0.046650 
#    y 0.000000 1.938190 0.000000 
#    z -0.046650 0.000000 1.852750 
# 
# From -- ./inp_files/288336.got.cif
#   From: 2010.05.17/outbox.cif.g08.bks.cpg/sg15_145_cif.got.tgz:288336.got - 2010.06.03 18:47:42.
