data_PCOD9270447
_publ_section_title
;
Structure prediction by ZEFSAII (Michael W. Deem and Ramdas Pophale) SiO2 
 PCOD9270447
Probable space group: C 2/C
;
_chemical_formula_sum "Si O2"
_cell_formula_units_Z 48
_cell_length_a 8.943888
_cell_length_b 16.220934
_cell_length_c 18.785769
_cell_angle_alpha 90.000000
_cell_angle_beta 95.575490
_cell_angle_gamma 90.000000
_cell_volume 2712.512120
_symmetry_space_group_name_H-M "C 2/C"
_symmetry_group_IT_number 15
_symmetry_cell_setting 'monoclinic'
loop_
_space_group_symop_operation_xyz
x,y,z
-x,y,1/2-z
-x,-y,-z
x,-y,1/2+z
1/2+x,1/2+y,z
1/2-x,1/2+y,1/2-z
1/2-x,1/2-y,-z
1/2+x,1/2-y,1/2+z
loop_
_atom_site_type_symbol
_atom_site_label
_atom_site_fract_x
_atom_site_fract_y
_atom_site_fract_z
Si Si1 0.818258 0.570908 0.163558
Si Si2 0.803736 0.016201 0.560076
Si Si3 0.330877 0.167422 0.026695
Si Si4 0.839528 0.263005 0.930887
Si Si5 0.851290 0.073035 0.918773
Si Si6 0.179835 0.406519 0.674955
O O1 0.768400 0.634101 0.099392
O O2 0.751476 0.482512 0.137610
O O3 0.770066 0.593876 0.240851
O O4 0.999714 0.576892 0.168307
O O5 0.704395 0.093446 0.529351
O O6 0.976840 0.042412 0.574810
O O7 0.794430 0.948201 0.496380
O O8 0.749446 0.979013 0.631248
O O9 0.503753 0.192841 0.041822
O O10 0.250000 0.250000 0.000000
O O11 0.854409 0.169766 0.903144
O O12 0.779729 0.322967 0.865943
O O13 0.750000 0.250000 0.000000
#
# Coordination Sequence:
#
# PCOD9270447 Si02
#       6
#     8   8   8   8   8   8
#     4   9  22  38  58  77 117 152 186 233 285 344
#     4  10  20  35  59  81 114 148 184 229 285 339
#     4  10  20  37  57  83 116 148 185 232 285 334
#     4  11  21  34  60  88 112 144 193 239 276 333
#     4  10  20  36  56  87 111 143 189 236 276 334
#     4  10  21  40  56  81 114 153 189 228 291 338
#
# _framework density 17.695772999999999
#
# number of rings (size 3 to 8) (size 9 to 14) (size 15 to 20)
#    0.000    2.000    3.333    0.000    2.333    2.667 
#    3.000    1.667    0.000    0.000    0.000    0.000 
#    0.000    0.000    0.000    0.000    0.000    0.000 
#
# Total GULP energy -133780.181476 kJ/mol
# GULP energy per Si atom -5574.174228 kJ/mol
# Density = 1.765550 g / cm^3
# Si number density = 17.695773 Si / 1000 Ang^3
#
#
#
# Elastic Constant Matrix: (Units=GPa)
#
#
# Indices 1 2 3 4 5 6 
#
# 1 27.1759 32.3450 34.7447 0.0000 -7.1470 0.0000
# 2 32.3450 137.8713 65.6375 0.0000 -6.6956 0.0000
# 3 34.7447 65.6375 138.1546 0.0000 -21.1093 0.0000
# 4 0.0000 0.0000 0.0000 23.3628 0.0000 2.9028
# 5 -7.1470 -6.6956 -21.1093 0.0000 22.8635 0.0000
# 6 0.0000 0.0000 0.0000 2.9028 0.0000 28.8337
#
#
#
# Elastic Compliance Matrix: (Units=1/GPa)
#
#
# Indices 1 2 3 4 5 6 
#
# 1 0.063259 -0.009627 -0.010181 0.000000 0.007555 0.000000
# 2 -0.009627 0.010888 -0.003172 0.000000 -0.002749 0.000000
# 3 -0.010181 -0.003172 0.012431 0.000000 0.007366 0.000000
# 4 0.000000 0.000000 0.000000 0.043345 0.000000 -0.004364
# 5 0.007555 -0.002749 0.007366 0.000000 0.052095 0.000000
# 6 0.000000 0.000000 0.000000 -0.004364 0.000000 0.035121
#
#
# Mechanical properties :
#
#
# Convention : Reuss Voigt Hill
#
# Bulk Modulus (GPa) = 24.61930 63.18403 43.90166
# Shear Modulus (GPa) = 18.07412 26.37696 22.22554
#
# Velocity S-wave (km/s) = 3.19937 3.86499 3.54783
# Velocity P-wave (km/s) = 5.25269 7.46330 6.45335
#
# Compressibility (1/GPa) = 0.04061854
#
# Stress axis : x y z
#
# Youngs Moduli (GPa) = 15.80814 91.84215 80.44279
#
# Poissons Ratio (x) = 0.88415 0.81897
# Poissons Ratio (y) = 0.15218 0.25517
# Poissons Ratio (z) = 0.16094 0.29133
#
# Static dielectric constant tensor:
#      x y z
#    x 1.632530 0.000000 0.013890 
#    y 0.000000 1.603710 0.000000 
#    z 0.013890 0.000000 1.607800 
# 
# From -- ./inp_files/189204.got.cif
#   From: 2010.05.17/outbox.cif.g08.bks.cpg/sg15_95_cif.got.tgz:189204.got - 2010.06.03 18:47:42.
