data_PCOD9270991
_publ_section_title
;
Structure prediction by ZEFSAII (Michael W. Deem and Ramdas Pophale) SiO2 
 PCOD9270991
Probable space group: C 2/C
;
_chemical_formula_sum "Si O2"
_cell_formula_units_Z 56
_cell_length_a 25.460527
_cell_length_b 12.282796
_cell_length_c 13.397590
_cell_angle_alpha 90.000000
_cell_angle_beta 52.109335
_cell_angle_gamma 90.000000
_cell_volume 3306.508697
_symmetry_space_group_name_H-M "C 2/C"
_symmetry_group_IT_number 15
_symmetry_cell_setting 'monoclinic'
loop_
_space_group_symop_operation_xyz
x,y,z
-x,y,1/2-z
-x,-y,-z
x,-y,1/2+z
1/2+x,1/2+y,z
1/2-x,1/2+y,1/2-z
1/2-x,1/2-y,-z
1/2+x,1/2-y,1/2+z
loop_
_atom_site_type_symbol
_atom_site_label
_atom_site_fract_x
_atom_site_fract_y
_atom_site_fract_z
Si Si1 0.423207 0.787297 0.346154
Si Si2 0.792296 0.846539 0.001711
Si Si3 0.281563 0.166154 0.705074
Si Si4 0.081837 0.620112 0.865272
Si Si5 0.813824 0.717416 0.316930
Si Si6 0.253276 0.429000 0.451989
Si Si7 0.930061 0.629832 0.057510
O O1 0.500000 0.748967 0.250000
O O2 0.368459 0.692676 0.414098
O O3 0.410682 0.858583 0.261616
O O4 0.416495 0.856001 0.455664
O O5 0.780778 0.956531 0.953908
O O6 0.750000 0.750000 0.000000
O O7 0.762663 0.861583 0.147147
O O8 0.357129 0.178720 0.651225
O O9 0.247285 0.269324 0.690444
O O10 0.276265 0.073863 0.625376
O O11 0.083703 0.492909 0.890694
O O12 0.007784 0.657197 0.982144
O O13 0.800352 0.617885 0.406897
O O14 0.808005 0.831335 0.383562
O O15 0.880918 0.704986 0.177745
#
# Coordination Sequence:
#
# PCOD9270991 Si02
#       7
#     8   8   8   8   8   8   8
#     4  10  21  37  54  81 118 145 184 238 279 333
#     4  12  22  34  60  90 106 147 196 227 280 338
#     4  10  20  36  56  84 110 147 181 237 277 326
#     4  10  21  33  55  87 114 142 187 233 285 341
#     4   9  19  39  59  76 114 153 181 231 284 335
#     4   9  22  38  56  81 116 142 188 232 281 328
#     4  10  20  36  57  80 115 152 181 229 296 333
#
# _framework density 16.936294
#
# number of rings (size 3 to 8) (size 9 to 14) (size 15 to 20)
#    0.857    1.143    2.857    0.857    2.000    1.143 
#    0.000    0.714    3.143    2.571    0.000    0.000 
#    0.000    0.000    0.000    0.000    0.000    0.000 
#
# Total GULP energy -155958.414687 kJ/mol
# GULP energy per Si atom -5569.943382 kJ/mol
# Density = 1.689775 g / cm^3
# Si number density = 16.936294 Si / 1000 Ang^3
#
#
#
# Elastic Constant Matrix: (Units=GPa)
#
#
# Indices 1 2 3 4 5 6 
#
# 1 104.6497 49.7788 68.2357 0.0000 2.0072 0.0000
# 2 49.7788 76.1807 42.5314 0.0000 -2.3602 0.0000
# 3 68.2357 42.5314 137.2100 0.0000 -0.0501 0.0000
# 4 0.0000 0.0000 0.0000 10.2369 0.0000 -0.9937
# 5 2.0072 -2.3602 -0.0501 0.0000 26.3283 0.0000
# 6 0.0000 0.0000 0.0000 -0.9937 0.0000 25.5746
#
#
#
# Elastic Compliance Matrix: (Units=1/GPa)
#
#
# Indices 1 2 3 4 5 6 
#
# 1 0.017440 -0.008002 -0.006193 0.000000 -0.002059 0.000000
# 2 -0.008002 0.019598 -0.002095 0.000000 0.002363 0.000000
# 3 -0.006193 -0.002095 0.011017 0.000000 0.000305 0.000000
# 4 0.000000 0.000000 0.000000 0.098055 0.000000 0.003810
# 5 -0.002059 0.002363 0.000305 0.000000 0.038351 0.000000
# 6 0.000000 0.000000 0.000000 0.003810 0.000000 0.039249
#
#
# Mechanical properties :
#
#
# Convention : Reuss Voigt Hill
#
# Bulk Modulus (GPa) = 64.61745 71.01471 67.81608
# Shear Modulus (GPa) = 19.12421 22.92761 21.02591
#
# Velocity S-wave (km/s) = 3.36398 3.68333 3.52727
# Velocity P-wave (km/s) = 7.30237 7.75311 7.53111
#
# Compressibility (1/GPa) = 0.01547570
#
# Stress axis : x y z
#
# Youngs Moduli (GPa) = 57.34066 51.02597 90.76473
#
# Poissons Ratio (x) = 0.40829 0.56214
# Poissons Ratio (y) = 0.45882 0.19012
# Poissons Ratio (z) = 0.35513 0.10688
#
# Static dielectric constant tensor:
#      x y z
#    x 1.585340 0.000000 0.007280 
#    y 0.000000 1.555660 0.000000 
#    z 0.007280 0.000000 1.588880 
# 
# From -- ./inp_files/117495.got.cif
#   From: 2010.05.17/outbox.cif.g08.bks.cpg/sg15_59_cif.got.tgz:117495.got - 2010.06.03 18:47:42.
