data_PCOD9270287
_publ_section_title
;
Structure prediction by ZEFSAII (Michael W. Deem and Ramdas Pophale) SiO2 
 PCOD9270287
Probable space group: C 2/C
;
_chemical_formula_sum "Si O2"
_cell_formula_units_Z 56
_cell_length_a 19.346104
_cell_length_b 9.622664
_cell_length_c 14.417536
_cell_angle_alpha 90.000000
_cell_angle_beta 56.724359
_cell_angle_gamma 90.000000
_cell_volume 2243.919664
_symmetry_space_group_name_H-M "C 2/C"
_symmetry_group_IT_number 15
_symmetry_cell_setting 'monoclinic'
loop_
_space_group_symop_operation_xyz
x,y,z
-x,y,1/2-z
-x,-y,-z
x,-y,1/2+z
1/2+x,1/2+y,z
1/2-x,1/2+y,1/2-z
1/2-x,1/2-y,-z
1/2+x,1/2-y,1/2+z
loop_
_atom_site_type_symbol
_atom_site_label
_atom_site_fract_x
_atom_site_fract_y
_atom_site_fract_z
Si Si1 0.817500 0.163361 0.543652
Si Si2 0.250122 0.885245 0.935661
Si Si3 0.446374 0.790794 0.696116
Si Si4 0.340893 0.969880 0.505913
Si Si5 0.503308 0.663366 0.474681
Si Si6 0.976627 0.405569 0.158512
Si Si7 0.766284 0.173079 0.788248
O O1 0.801382 0.318297 0.519134
O O2 0.912964 0.177684 0.497731
O O3 0.767958 0.151330 0.677436
O O4 0.809681 0.013961 0.500745
O O5 0.232565 0.823136 0.847691
O O6 0.250000 0.750000 0.000000
O O7 0.334524 0.952204 0.911878
O O8 0.500000 0.782853 0.750000
O O9 0.506672 0.736332 0.571320
O O10 0.362879 0.695874 0.751140
O O11 0.425302 0.951754 0.687746
O O12 0.437161 0.951833 0.454628
O O13 0.286665 0.055297 0.620200
O O14 0.500000 0.500000 0.500000
O O15 0.555616 0.763360 0.366019
O O16 0.000000 0.378666 0.250000
#
# Coordination Sequence:
#
# PCOD9270287 Si02
#       7
#     8   8   8   8   8   8   8
#     4  10  21  39  58  86 126 162 208 267 327 388
#     4  10  20  35  57  87 116 154 205 257 314 375
#     4  10  21  40  63  91 128 168 214 269 326 397
#     4  10  21  38  62  90 125 167 211 266 322 385
#     4  10  23  39  59  91 128 171 220 272 329 392
#     4  10  21  41  65  91 127 175 222 269 326 395
#     4  10  21  38  61  92 122 161 212 260 322 392
#
# _framework density 24.956329
#
# number of rings (size 3 to 8) (size 9 to 14) (size 15 to 20)
#    0.000    2.000    0.000    3.429    0.000    5.143 
#    0.000   18.571    0.000    0.000    0.000    0.000 
#    0.000    0.000    0.000    0.000    0.000    0.000 
#
# Total GULP energy -155984.815510 kJ/mol
# GULP energy per Si atom -5570.886268 kJ/mol
# Density = 2.489953 g / cm^3
# Si number density = 24.956329 Si / 1000 Ang^3
#
#
#
# Elastic Constant Matrix: (Units=GPa)
#
#
# Indices 1 2 3 4 5 6 
#
# 1 42.3628 27.4873 3.0424 0.0000 0.3276 0.0000
# 2 27.4873 211.3578 51.4909 0.0000 15.4127 0.0000
# 3 3.0424 51.4909 83.3986 0.0000 1.4282 0.0000
# 4 0.0000 0.0000 0.0000 27.7264 0.0000 18.6981
# 5 0.3276 15.4127 1.4282 0.0000 30.8254 0.0000
# 6 0.0000 0.0000 0.0000 18.6981 0.0000 32.7539
#
#
#
# Elastic Compliance Matrix: (Units=1/GPa)
#
#
# Indices 1 2 3 4 5 6 
#
# 1 0.025980 -0.003833 0.001392 0.000000 0.001576 0.000000
# 2 -0.003833 0.006355 -0.003733 0.000000 -0.002964 0.000000
# 3 0.001392 -0.003733 0.014224 0.000000 0.001193 0.000000
# 4 0.000000 0.000000 0.000000 0.058643 0.000000 -0.033478
# 5 0.001576 -0.002964 0.001193 0.000000 0.033851 0.000000
# 6 0.000000 0.000000 0.000000 -0.033478 0.000000 0.049642
#
#
# Mechanical properties :
#
#
# Convention : Reuss Voigt Hill
#
# Bulk Modulus (GPa) = 29.23009 55.68449 42.45729
# Shear Modulus (GPa) = 23.53508 35.26770 29.40139
#
# Velocity S-wave (km/s) = 3.07424 3.76330 3.43609
# Velocity P-wave (km/s) = 4.93348 6.42219 5.72642
#
# Compressibility (1/GPa) = 0.03421132
#
# Stress axis : x y z
#
# Youngs Moduli (GPa) = 38.49060 157.34643 70.30188
#
# Poissons Ratio (x) = 0.60306 -0.09783
# Poissons Ratio (y) = 0.14752 0.26246
# Poissons Ratio (z) = -0.05356 0.58742
#
# Static dielectric constant tensor:
#      x y z
#    x 2.061680 0.000000 0.031000 
#    y 0.000000 2.104420 0.000000 
#    z 0.031000 0.000000 2.109990 
# 
# From -- ./inp_files/218534.got.cif
#   From: 2010.05.17/outbox.cif.g08.bks.cpg/sg15_110_cif.got.tgz:218534.got - 2010.06.03 18:47:42.
