data_PCOD9270372
_publ_section_title
;
Structure prediction by ZEFSAII (Michael W. Deem and Ramdas Pophale) SiO2 
 PCOD9270372
Probable space group: C 2/C
;
_chemical_formula_sum "Si O2"
_cell_formula_units_Z 40
_cell_length_a 21.318635
_cell_length_b 6.194729
_cell_length_c 19.937938
_cell_angle_alpha 90.000000
_cell_angle_beta 132.856844
_cell_angle_gamma 90.000000
_cell_volume 1930.184200
_symmetry_space_group_name_H-M "C 2/C"
_symmetry_group_IT_number 15
_symmetry_cell_setting 'monoclinic'
loop_
_space_group_symop_operation_xyz
x,y,z
-x,y,1/2-z
-x,-y,-z
x,-y,1/2+z
1/2+x,1/2+y,z
1/2-x,1/2+y,1/2-z
1/2-x,1/2-y,-z
1/2+x,1/2-y,1/2+z
loop_
_atom_site_type_symbol
_atom_site_label
_atom_site_fract_x
_atom_site_fract_y
_atom_site_fract_z
Si Si1 0.633314 0.593226 0.697484
Si Si2 0.846903 0.464767 0.681975
Si Si3 0.826791 0.599355 0.528970
Si Si4 0.506509 0.681137 0.181814
Si Si5 0.716316 0.189545 0.143282
O O1 0.549580 0.457988 0.654740
O O2 0.639371 0.726796 0.633392
O O3 0.715384 0.434914 0.760818
O O4 0.643977 0.755570 0.767119
O O5 0.838493 0.423442 0.596206
O O6 0.928582 0.620413 0.755125
O O7 0.766145 0.605091 0.648596
O O8 0.750000 0.750000 0.500000
O O9 0.808612 0.543245 0.438748
O O10 0.914129 0.735633 0.593832
O O11 0.500000 0.564793 0.250000
#
# Coordination Sequence:
#
# PCOD9270372 Si02
#       5
#     8   8   8   8   8
#     4  11  20  35  62  83 114 155 189 229 288 341
#     4   9  19  37  58  80 116 151 185 236 280 337
#     4   9  19  38  58  82 116 149 191 239 279 331
#     4   9  20  37  57  84 114 148 190 235 286 336
#     4  10  20  35  58  86 113 150 192 231 281 340
#
# _framework density 20.723410000000001
#
# number of rings (size 3 to 8) (size 9 to 14) (size 15 to 20)
#    0.000    2.400    2.000    1.200    0.000    4.000 
#    0.000    5.000    0.000    0.000    0.000    0.000 
#    0.000    0.000    0.000    0.000    0.000    0.000 
#
# Total GULP energy -111544.810051 kJ/mol
# GULP energy per Si atom -5577.240503 kJ/mol
# Density = 2.067624 g / cm^3
# Si number density = 20.723410 Si / 1000 Ang^3
#
#
#
# Elastic Constant Matrix: (Units=GPa)
#
#
# Indices 1 2 3 4 5 6 
#
# 1 123.8087 11.7765 32.4720 0.0000 -3.7342 0.0000
# 2 11.7765 18.4845 -12.3905 0.0001 -0.9878 -0.0002
# 3 32.4720 -12.3905 54.5162 0.0000 -7.5826 0.0000
# 4 0.0000 0.0001 0.0000 14.7133 0.0000 -7.5998
# 5 -3.7342 -0.9878 -7.5826 0.0000 34.8105 0.0000
# 6 0.0000 -0.0002 0.0000 -7.5998 0.0000 26.2359
#
#
#
# Elastic Compliance Matrix: (Units=1/GPa)
#
#
# Indices 1 2 3 4 5 6 
#
# 1 0.012416 -0.015445 -0.011118 0.000000 -0.001528 0.000000
# 2 -0.015445 0.083935 0.029264 -0.000001 0.007099 0.000000
# 3 -0.011118 0.029264 0.032553 0.000000 0.006728 0.000000
# 4 0.000000 -0.000001 0.000000 0.079924 0.000000 0.023152
# 5 -0.001528 0.007099 0.006728 0.000000 0.030230 0.000000
# 6 0.000000 0.000000 0.000000 0.023152 0.000000 0.044822
#
#
# Mechanical properties :
#
#
# Convention : Reuss Voigt Hill
#
# Bulk Modulus (GPa) = 7.44574 28.94726 18.19650
# Shear Modulus (GPa) = 15.46806 26.14870 20.80838
#
# Velocity S-wave (km/s) = 2.73501 3.55603 3.17219
# Velocity P-wave (km/s) = 3.68434 5.55510 4.71347
#
# Compressibility (1/GPa) = 0.13430492
#
# Stress axis : x y z
#
# Youngs Moduli (GPa) = 80.54087 11.91400 30.71938
#
# Poissons Ratio (x) = 0.18401 0.34155
# Poissons Ratio (y) = 1.24394 -0.89897
# Poissons Ratio (z) = 0.89548 -0.34865
#
# Static dielectric constant tensor:
#      x y z
#    x 1.763090 0.000000 -0.028440 
#    y 0.000000 1.509310 0.000000 
#    z -0.028440 0.000000 1.759930 
# 
# From -- ./inp_files/212716.got.cif
#   From: 2010.05.17/outbox.cif.g08.bks.cpg/sg15_107_cif.got.tgz:212716.got - 2010.06.03 18:47:42.
