data_PCOD9270957
_publ_section_title
;
Structure prediction by ZEFSAII (Michael W. Deem and Ramdas Pophale) SiO2 
 PCOD9270957
Probable space group: C 2/C
;
_chemical_formula_sum "Si O2"
_cell_formula_units_Z 48
_cell_length_a 18.003112
_cell_length_b 23.930053
_cell_length_c 13.428727
_cell_angle_alpha 90.000000
_cell_angle_beta 152.424267
_cell_angle_gamma 90.000000
_cell_volume 2678.136106
_symmetry_space_group_name_H-M "C 2/C"
_symmetry_group_IT_number 15
_symmetry_cell_setting 'monoclinic'
loop_
_space_group_symop_operation_xyz
x,y,z
-x,y,1/2-z
-x,-y,-z
x,-y,1/2+z
1/2+x,1/2+y,z
1/2-x,1/2+y,1/2-z
1/2-x,1/2-y,-z
1/2+x,1/2-y,1/2+z
loop_
_atom_site_type_symbol
_atom_site_label
_atom_site_fract_x
_atom_site_fract_y
_atom_site_fract_z
Si Si1 0.421887 0.983548 0.753778
Si Si2 0.094127 0.016425 0.771912
Si Si3 0.015014 0.077804 0.492350
Si Si4 0.113759 0.690621 0.980003
Si Si5 0.017554 0.810412 0.652583
Si Si6 0.357343 0.923121 0.880992
O O1 0.500000 0.955209 0.750000
O O2 0.255280 0.006997 0.511974
O O3 0.385111 0.942062 0.800728
O O4 0.537460 0.032786 0.930226
O O5 0.000000 0.045605 0.750000
O O6 0.122583 0.056710 0.711632
O O7 0.985632 0.966838 0.597898
O O8 0.052288 0.138288 0.493708
O O9 0.831019 0.074076 0.313979
O O10 0.000000 0.680185 0.750000
O O11 0.065027 0.750906 0.964667
O O12 0.295459 0.692785 0.155193
O O13 0.093505 0.639698 0.032318
O O14 0.000000 0.821448 0.750000
#
# Coordination Sequence:
#
# PCOD9270957 Si02
#       6
#     8   8   8   8   8   8
#     4  11  21  37  54  81 110 143 180 221 271 324
#     4  11  21  36  55  80 112 142 180 218 269 324
#     4  10  21  35  55  83 108 146 180 218 269 324
#     4  10  20  36  56  79 109 141 177 222 272 316
#     4  10  20  37  55  81 109 139 179 222 270 318
#     4  10  21  35  57  79 111 144 179 221 271 321
#
# _framework density 17.922913000000001
#
# number of rings (size 3 to 8) (size 9 to 14) (size 15 to 20)
#    0.000    1.667    3.333    3.000    2.333    0.000 
#    9.000    0.000    0.000    2.000    0.000    0.000 
#    0.000    0.000    0.000    0.000    0.000    0.000 
#
# Total GULP energy -133904.802242 kJ/mol
# GULP energy per Si atom -5579.366760 kJ/mol
# Density = 1.788212 g / cm^3
# Si number density = 17.922913 Si / 1000 Ang^3
#
#
#
# Elastic Constant Matrix: (Units=GPa)
#
#
# Indices 1 2 3 4 5 6 
#
# 1 105.9722 57.0697 29.7307 0.0000 -20.4028 0.0000
# 2 57.0697 127.1215 26.9218 0.0000 -24.2222 0.0000
# 3 29.7307 26.9218 67.3951 0.0000 -18.5351 0.0000
# 4 0.0000 0.0000 0.0000 17.5708 0.0000 -0.1761
# 5 -20.4028 -24.2222 -18.5351 0.0000 25.2816 0.0000
# 6 0.0000 0.0000 0.0000 -0.1761 0.0000 24.2625
#
#
#
# Elastic Compliance Matrix: (Units=1/GPa)
#
#
# Indices 1 2 3 4 5 6 
#
# 1 0.013609 -0.004655 -0.002944 0.000000 0.004365 0.000000
# 2 -0.004655 0.011362 -0.000657 0.000000 0.006648 0.000000
# 3 -0.002944 -0.000657 0.019505 0.000000 0.011295 0.000000
# 4 0.000000 0.000000 0.000000 0.056917 0.000000 0.000413
# 5 0.004365 0.006648 0.011295 0.000000 0.057727 0.000000
# 6 0.000000 0.000000 0.000000 0.000413 0.000000 0.041219
#
#
# Mechanical properties :
#
#
# Convention : Reuss Voigt Hill
#
# Bulk Modulus (GPa) = 35.75787 58.65924 47.20856
# Shear Modulus (GPa) = 22.10702 25.87409 23.99056
#
# Velocity S-wave (km/s) = 3.51586 3.80364 3.66258
# Velocity P-wave (km/s) = 6.03953 7.21733 6.65454
#
# Compressibility (1/GPa) = 0.02796587
#
# Stress axis : x y z
#
# Youngs Moduli (GPa) = 73.47846 88.01306 51.26802
#
# Poissons Ratio (x) = 0.40966 0.15092
# Poissons Ratio (y) = 0.34201 0.03369
# Poissons Ratio (z) = 0.21630 0.05783
#
# Static dielectric constant tensor:
#      x y z
#    x 1.643530 0.000000 0.030340 
#    y 0.000000 1.602500 0.000000 
#    z 0.030340 0.000000 1.634770 
# 
# From -- ./inp_files/108124.got.cif
#   From: 2010.05.17/outbox.cif.g08.bks.cpg/sg15_55_cif.got.tgz:108124.got - 2010.06.03 18:47:42.
