data_PCOD9270988
_publ_section_title
;
Structure prediction by ZEFSAII (Michael W. Deem and Ramdas Pophale) SiO2 
 PCOD9270988
Probable space group: C 2/C
;
_chemical_formula_sum "Si O2"
_cell_formula_units_Z 36
_cell_length_a 14.760138
_cell_length_b 6.971276
_cell_length_c 16.278305
_cell_angle_alpha 90.000000
_cell_angle_beta 70.019696
_cell_angle_gamma 90.000000
_cell_volume 1574.171344
_symmetry_space_group_name_H-M "C 2/C"
_symmetry_group_IT_number 15
_symmetry_cell_setting 'monoclinic'
loop_
_space_group_symop_operation_xyz
x,y,z
-x,y,1/2-z
-x,-y,-z
x,-y,1/2+z
1/2+x,1/2+y,z
1/2-x,1/2+y,1/2-z
1/2-x,1/2-y,-z
1/2+x,1/2-y,1/2+z
loop_
_atom_site_type_symbol
_atom_site_label
_atom_site_fract_x
_atom_site_fract_y
_atom_site_fract_z
Si Si1 0.336403 0.418447 0.698028
Si Si2 0.114386 0.043516 0.565577
Si Si3 0.060145 0.757297 0.440107
Si Si4 0.793946 0.432901 0.113197
Si Si5 0.000000 0.890511 0.750000
O O1 0.384662 0.607906 0.644283
O O2 0.258900 0.471603 0.790661
O O3 0.420995 0.293223 0.716424
O O4 0.298769 0.289565 0.635845
O O5 0.085761 0.862734 0.517810
O O6 0.226519 0.047584 0.553595
O O7 0.065419 0.015714 0.669611
O O8 0.053163 0.216788 0.544519
O O9 0.107078 0.549679 0.424687
#
# Coordination Sequence:
#
# PCOD9270988 Si02
#       5
#     8   8   8   8   4
#     4  10  20  36  56  83 112 147 196 231 288 354
#     4   9  20  37  60  81 115 152 189 241 292 340
#     4  10  20  39  58  83 115 152 191 238 291 348
#     4  11  20  37  58  85 115 152 189 239 290 349
#     4   8  18  38  54  76 114 148 184 240 290 340
#
# _framework density 22.869177000000001
#
# number of rings (size 3 to 8) (size 9 to 14) (size 15 to 20)
#    0.000    2.222    2.222    0.667    0.000    0.889 
#    4.000   10.000    0.000    0.000    0.000    0.000 
#    0.000    0.000    0.000    0.000    0.000    0.000 
#
# Total GULP energy -100405.279133 kJ/mol
# GULP energy per Si atom -5578.071063 kJ/mol
# Density = 2.281713 g / cm^3
# Si number density = 22.869177 Si / 1000 Ang^3
#
#
#
# Elastic Constant Matrix: (Units=GPa)
#
#
# Indices 1 2 3 4 5 6 
#
# 1 71.0659 13.3734 7.5532 0.0000 18.6956 0.0000
# 2 13.3734 66.8738 12.9516 0.0000 -0.2799 -0.0001
# 3 7.5532 12.9516 89.4840 0.0000 4.8808 0.0000
# 4 0.0000 0.0000 0.0000 30.5849 0.0000 -11.0573
# 5 18.6956 -0.2799 4.8808 0.0000 44.3896 0.0000
# 6 0.0000 -0.0001 0.0000 -11.0573 0.0000 23.7143
#
#
#
# Elastic Compliance Matrix: (Units=1/GPa)
#
#
# Indices 1 2 3 4 5 6 
#
# 1 0.016563 -0.003235 -0.000552 0.000000 -0.006936 0.000000
# 2 -0.003235 0.016022 -0.002139 0.000000 0.001698 0.000000
# 3 -0.000552 -0.002139 0.011589 0.000000 -0.001055 0.000000
# 4 0.000000 0.000000 0.000000 0.039325 0.000000 0.018336
# 5 -0.006936 0.001698 -0.001055 0.000000 0.025576 0.000000
# 6 0.000000 0.000000 0.000000 0.018336 0.000000 0.050718
#
#
# Mechanical properties :
#
#
# Convention : Reuss Voigt Hill
#
# Bulk Modulus (GPa) = 30.93634 32.79781 31.86708
# Shear Modulus (GPa) = 27.40974 32.64080 30.02527
#
# Velocity S-wave (km/s) = 3.46576 3.78204 3.62735
# Velocity P-wave (km/s) = 5.43803 5.78311 5.61322
#
# Compressibility (1/GPa) = 0.03232444
#
# Stress axis : x y z
#
# Youngs Moduli (GPa) = 60.37419 62.41550 86.28998
#
# Poissons Ratio (x) = 0.20189 0.04760
# Poissons Ratio (y) = 0.19528 0.18453
# Poissons Ratio (z) = 0.03330 0.13348
#
# Static dielectric constant tensor:
#      x y z
#    x 1.913100 0.000000 -0.000300 
#    y 0.000000 1.805240 0.000000 
#    z -0.000300 0.000000 1.885190 
# 
# From -- ./inp_files/241491.got.cif
#   From: 2010.05.17/outbox.cif.g08.bks.cpg/sg15_121_cif.got.tgz:241491.got - 2010.06.03 18:47:42.
