data_PCOD9270787
_publ_section_title
;
Structure prediction by ZEFSAII (Michael W. Deem and Ramdas Pophale) SiO2 
 PCOD9270787
Probable space group: C 2/C
;
_chemical_formula_sum "Si O2"
_cell_formula_units_Z 52
_cell_length_a 12.009691
_cell_length_b 13.676775
_cell_length_c 27.587448
_cell_angle_alpha 90.000000
_cell_angle_beta 38.738564
_cell_angle_gamma 90.000000
_cell_volume 2835.569354
_symmetry_space_group_name_H-M "C 2/C"
_symmetry_group_IT_number 15
_symmetry_cell_setting 'monoclinic'
loop_
_space_group_symop_operation_xyz
x,y,z
-x,y,1/2-z
-x,-y,-z
x,-y,1/2+z
1/2+x,1/2+y,z
1/2-x,1/2+y,1/2-z
1/2-x,1/2-y,-z
1/2+x,1/2-y,1/2+z
loop_
_atom_site_type_symbol
_atom_site_label
_atom_site_fract_x
_atom_site_fract_y
_atom_site_fract_z
Si Si1 0.790701 0.494556 0.058344
Si Si2 0.213955 0.863378 0.509700
Si Si3 0.500000 0.960435 0.750000
Si Si4 0.528454 0.978566 0.348714
Si Si5 0.205153 0.641562 0.035108
Si Si6 0.797748 0.869004 0.324309
Si Si7 0.332709 0.340015 0.599554
O O1 0.729684 0.597798 0.059113
O O2 0.696493 0.451503 0.136550
O O3 0.749919 0.424541 0.026558
O O4 0.000000 0.500000 0.000000
O O5 0.250000 0.750000 0.500000
O O6 0.361285 0.917529 0.426843
O O7 0.019508 0.879742 0.554517
O O8 0.672390 0.893997 0.681429
O O9 0.470310 0.018496 0.709829
O O10 0.698816 0.922678 0.313287
O O11 0.485041 0.089981 0.383461
O O12 0.311085 0.638417 0.049793
O O13 0.250000 0.750000 0.000000
O O14 0.686006 0.775821 0.381941
O O15 0.000000 0.834591 0.250000
#
# Coordination Sequence:
#
# PCOD9270787 Si02
#       7
#     8   8   4   8   8   8   8
#     4  11  21  40  64  93 123 158 209 264 304 371
#     4  11  22  39  68  91 121 162 212 263 317 360
#     4  10  24  42  60  88 132 162 204 258 316 384
#     4  10  23  42  62  90 127 163 210 259 308 381
#     4  10  20  35  65  93 119 157 208 259 307 359
#     4  12  23  40  64  92 125 169 205 253 323 378
#     4  11  22  40  64  92 126 166 209 256 320 375
#
# _framework density 18.338469
#
# number of rings (size 3 to 8) (size 9 to 14) (size 15 to 20)
#    0.000    1.231    6.923    0.000    2.154    5.538 
#    0.000    0.000    5.077    0.000    0.000    0.000 
#    0.000    0.000    0.000    0.000    0.000    0.000 
#
# Total GULP energy -144769.905129 kJ/mol
# GULP energy per Si atom -5568.073274 kJ/mol
# Density = 1.829673 g / cm^3
# Si number density = 18.338469 Si / 1000 Ang^3
#
#
#
# Elastic Constant Matrix: (Units=GPa)
#
#
# Indices 1 2 3 4 5 6 
#
# 1 134.4173 37.8042 43.0765 -0.0001 1.2683 0.0000
# 2 37.8042 91.7231 12.7211 -0.0001 6.9248 0.0000
# 3 43.0765 12.7211 65.4793 -0.0001 2.8805 0.0000
# 4 -0.0001 -0.0001 -0.0001 26.2228 0.0000 2.0792
# 5 1.2683 6.9248 2.8805 0.0000 42.8741 0.0000
# 6 0.0000 0.0000 0.0000 2.0792 0.0000 31.9149
#
#
#
# Elastic Compliance Matrix: (Units=1/GPa)
#
#
# Indices 1 2 3 4 5 6 
#
# 1 0.010396 -0.003476 -0.006193 0.000000 0.000670 0.000000
# 2 -0.003476 0.012487 -0.000055 0.000000 -0.001910 0.000000
# 3 -0.006193 -0.000055 0.019406 0.000000 -0.001112 0.000000
# 4 0.000000 0.000000 0.000000 0.038333 0.000000 -0.002497
# 5 0.000670 -0.001910 -0.001112 0.000000 0.023688 0.000000
# 6 0.000000 0.000000 0.000000 -0.002497 0.000000 0.031496
#
#
# Mechanical properties :
#
#
# Convention : Reuss Voigt Hill
#
# Bulk Modulus (GPa) = 43.78321 53.20260 48.49290
# Shear Modulus (GPa) = 30.70005 33.40356 32.05181
#
# Velocity S-wave (km/s) = 4.09599 4.27254 4.18519
# Velocity P-wave (km/s) = 6.80415 7.30848 7.06082
#
# Compressibility (1/GPa) = 0.02283981
#
# Stress axis : x y z
#
# Youngs Moduli (GPa) = 96.19520 80.08341 51.53119
#
# Poissons Ratio (x) = 0.27839 0.31913
# Poissons Ratio (y) = 0.33440 0.00283
# Poissons Ratio (z) = 0.59573 0.00440
#
# Static dielectric constant tensor:
#      x y z
#    x 1.655230 0.000000 -0.046780 
#    y 0.000000 1.697150 0.000000 
#    z -0.046780 0.000000 1.708430 
# 
# From -- ./inp_files/292655.got.cif
#   From: 2010.05.17/outbox.cif.g08.bks.cpg/sg15_147_cif.got.tgz:292655.got - 2010.06.03 18:47:42.
