data_PCOD9270441
_publ_section_title
;
Structure prediction by ZEFSAII (Michael W. Deem and Ramdas Pophale) SiO2 
 PCOD9270441
Probable space group: C 2/C
;
_chemical_formula_sum "Si O2"
_cell_formula_units_Z 40
_cell_length_a 13.524223
_cell_length_b 13.109730
_cell_length_c 18.093849
_cell_angle_alpha 90.000000
_cell_angle_beta 151.382392
_cell_angle_gamma 90.000000
_cell_volume 1536.518444
_symmetry_space_group_name_H-M "C 2/C"
_symmetry_group_IT_number 15
_symmetry_cell_setting 'monoclinic'
loop_
_space_group_symop_operation_xyz
x,y,z
-x,y,1/2-z
-x,-y,-z
x,-y,1/2+z
1/2+x,1/2+y,z
1/2-x,1/2+y,1/2-z
1/2-x,1/2-y,-z
1/2+x,1/2-y,1/2+z
loop_
_atom_site_type_symbol
_atom_site_label
_atom_site_fract_x
_atom_site_fract_y
_atom_site_fract_z
Si Si1 0.891357 0.538550 0.292632
Si Si2 0.325843 0.560649 0.493083
Si Si3 0.963174 0.668799 0.571019
Si Si4 0.000000 0.782219 0.750000
Si Si5 0.411480 0.214525 0.999895
Si Si6 0.000000 0.078778 0.750000
O O1 0.709593 0.524829 0.114040
O O2 0.102111 0.545268 0.383040
O O3 0.921503 0.438865 0.361348
O O4 0.907131 0.642240 0.349339
O O5 0.384663 0.679497 0.524051
O O6 0.475491 0.519609 0.655646
O O7 0.011432 0.712926 0.683483
O O8 0.716670 0.659904 0.400873
O O9 0.038428 0.736115 0.552263
O O10 0.200261 0.150633 0.870401
#
# Coordination Sequence:
#
# PCOD9270441 Si02
#       6
#     8   8   8   4   8   4
#     4  10  21  41  65 102 143 183 229 297 346 422
#     4  10  20  36  66  98 143 178 226 280 356 413
#     4  11  25  46  73  96 138 189 248 290 357 417
#     4  10  26  49  69  92 132 192 246 300 343 425
#     4  11  22  38  67 106 143 186 222 288 361 434
#     4  10  20  35  59 104 140 174 218 278 345 429
#
# _framework density 26.032879999999999
#
# number of rings (size 3 to 8) (size 9 to 14) (size 15 to 20)
#    0.000    1.600    0.000    6.600    5.600    3.200 
#    0.000    1.000    0.000    0.000    0.000    0.000 
#    0.000    0.000    0.000    0.000    0.000    0.000 
#
# Total GULP energy -111898.659847 kJ/mol
# GULP energy per Si atom -5594.932992 kJ/mol
# Density = 2.597363 g / cm^3
# Si number density = 26.032880 Si / 1000 Ang^3
#
#
#
# Elastic Constant Matrix: (Units=GPa)
#
#
# Indices 1 2 3 4 5 6 
#
# 1 109.4647 11.4816 43.6658 0.0056 -5.3663 0.0003
# 2 11.4816 53.2712 35.6876 -0.0012 7.1227 0.0016
# 3 43.6658 35.6876 202.3358 0.0008 -25.7180 0.0032
# 4 0.0056 -0.0012 0.0008 29.6146 0.0096 -10.9598
# 5 -5.3663 7.1227 -25.7180 0.0096 29.1477 0.0021
# 6 0.0003 0.0016 0.0032 -10.9598 0.0021 17.8803
#
#
#
# Elastic Compliance Matrix: (Units=1/GPa)
#
#
# Indices 1 2 3 4 5 6 
#
# 1 0.010029 -0.000889 -0.001966 -0.000002 0.000329 -0.000001
# 2 -0.000889 0.024046 -0.005425 0.000006 -0.010827 0.000004
# 3 -0.001966 -0.005425 0.007260 -0.000004 0.007370 -0.000004
# 4 -0.000002 0.000006 -0.000004 0.043674 -0.000022 0.026771
# 5 0.000329 -0.010827 0.007370 -0.000022 0.043517 -0.000019
# 6 -0.000001 0.000004 -0.000004 0.026771 -0.000019 0.072337
#
#
# Mechanical properties :
#
#
# Convention : Reuss Voigt Hill
#
# Bulk Modulus (GPa) = 40.36333 60.74909 50.55621
# Shear Modulus (GPa) = 22.15516 33.61095 27.88305
#
# Velocity S-wave (km/s) = 2.92043 3.59708 3.27627
# Velocity P-wave (km/s) = 5.18752 6.37481 5.81156
#
# Compressibility (1/GPa) = 0.02477496
#
# Stress axis : x y z
#
# Youngs Moduli (GPa) = 99.71237 41.58755 137.73748
#
# Poissons Ratio (x) = 0.03696 0.27076
# Poissons Ratio (y) = 0.08861 0.74729
# Poissons Ratio (z) = 0.19601 0.22563
#
# Static dielectric constant tensor:
#      x y z
#    x 2.018520 0.000000 -0.009000 
#    y 0.000000 1.988740 -0.000010 
#    z -0.009000 -0.000010 2.096660 
# 
# From -- ./inp_files/61398.got.cif
#   From: 2010.05.17/outbox.cif.g08.bks.cpg/sg15_31_cif.got.tgz:61398.got - 2010.06.03 18:47:42.
