data_PCOD9270239
_publ_section_title
;
Structure prediction by ZEFSAII (Michael W. Deem and Ramdas Pophale) SiO2 
 PCOD9270239
Probable space group: C 2/C
;
_chemical_formula_sum "Si O2"
_cell_formula_units_Z 56
_cell_length_a 11.364807
_cell_length_b 10.387839
_cell_length_c 19.589530
_cell_angle_alpha 90.000000
_cell_angle_beta 78.845736
_cell_angle_gamma 90.000000
_cell_volume 2268.970996
_symmetry_space_group_name_H-M "C 2/C"
_symmetry_group_IT_number 15
_symmetry_cell_setting 'monoclinic'
loop_
_space_group_symop_operation_xyz
x,y,z
-x,y,1/2-z
-x,-y,-z
x,-y,1/2+z
1/2+x,1/2+y,z
1/2-x,1/2+y,1/2-z
1/2-x,1/2-y,-z
1/2+x,1/2-y,1/2+z
loop_
_atom_site_type_symbol
_atom_site_label
_atom_site_fract_x
_atom_site_fract_y
_atom_site_fract_z
Si Si1 0.480888 0.825591 0.494713
Si Si2 0.216588 0.732965 0.895178
Si Si3 0.884807 0.920381 0.921116
Si Si4 0.356729 0.631048 0.763543
Si Si5 0.811458 0.250149 0.627785
Si Si6 0.416141 0.613690 0.197962
Si Si7 0.281681 0.997807 0.447620
O O1 0.622150 0.821249 0.460779
O O2 0.430775 0.698571 0.462245
O O3 0.433186 0.801124 0.576978
O O4 0.405283 0.941972 0.467061
O O5 0.310190 0.643910 0.845798
O O6 0.135386 0.770661 0.838831
O O7 0.279898 0.865391 0.910645
O O8 0.786804 0.855131 0.883243
O O9 0.818837 0.011479 0.981756
O O10 0.000192 0.962190 0.866059
O O11 0.500000 0.638411 0.750000
O O12 0.318555 0.728673 0.707785
O O13 0.325369 0.490093 0.737897
O O14 0.766200 0.116513 0.597067
O O15 0.500000 0.659352 0.250000
#
# Coordination Sequence:
#
# PCOD9270239 Si02
#       7
#     8   8   8   8   8   8   8
#     4   8  18  32  59  94 117 148 205 249 311 369
#     4  11  21  37  59  86 121 162 200 252 314 362
#     4   8  16  30  60  92 110 142 196 256 302 358
#     4  11  24  38  52  80 119 158 204 232 296 375
#     4   9  16  35  59  85 121 149 190 260 297 354
#     4  10  20  35  57  82 113 154 202 243 298 363
#     4   9  17  33  58  93 120 147 199 257 312 357
#
# _framework density 24.680792
#
# number of rings (size 3 to 8) (size 9 to 14) (size 15 to 20)
#    0.000    2.571    1.429    2.571    2.000    1.714 
#    2.571    0.714    0.000    1.714    0.000    0.000 
#    0.000    0.000    0.000    0.000    0.000    0.000 
#
# Total GULP energy -156544.710102 kJ/mol
# GULP energy per Si atom -5590.882504 kJ/mol
# Density = 2.462462 g / cm^3
# Si number density = 24.680792 Si / 1000 Ang^3
#
#
#
# Elastic Constant Matrix: (Units=GPa)
#
#
# Indices 1 2 3 4 5 6 
#
# 1 58.3745 14.8834 12.0009 0.0000 -10.1894 0.0000
# 2 14.8834 86.9668 30.4445 0.0000 -12.0400 0.0000
# 3 12.0009 30.4445 128.4596 0.0000 -19.6427 0.0000
# 4 0.0000 0.0000 0.0000 50.3266 0.0000 3.1728
# 5 -10.1894 -12.0400 -19.6427 0.0000 54.2969 0.0000
# 6 0.0000 0.0000 0.0000 3.1728 0.0000 26.0116
#
#
#
# Elastic Compliance Matrix: (Units=1/GPa)
#
#
# Indices 1 2 3 4 5 6 
#
# 1 0.018382 -0.002531 -0.000715 0.000000 0.002630 0.000000
# 2 -0.002531 0.013057 -0.002634 0.000000 0.001468 0.000000
# 3 -0.000715 -0.002634 0.008856 0.000000 0.002485 0.000000
# 4 0.000000 0.000000 0.000000 0.020024 0.000000 -0.002442
# 5 0.002630 0.001468 0.002485 0.000000 0.020135 0.000000
# 6 0.000000 0.000000 0.000000 -0.002442 0.000000 0.038742
#
#
# Mechanical properties :
#
#
# Convention : Reuss Voigt Hill
#
# Bulk Modulus (GPa) = 35.04575 43.16207 39.10391
# Shear Modulus (GPa) = 35.59514 40.55849 38.07681
#
# Velocity S-wave (km/s) = 3.80178 4.05819 3.93207
# Velocity P-wave (km/s) = 5.78807 6.28368 6.04096
#
# Compressibility (1/GPa) = 0.02853413
#
# Stress axis : x y z
#
# Youngs Moduli (GPa) = 54.40034 76.58743 112.92331
#
# Poissons Ratio (x) = 0.19388 0.08077
# Poissons Ratio (y) = 0.13771 0.29739
# Poissons Ratio (z) = 0.03891 0.20170
#
# Static dielectric constant tensor:
#      x y z
#    x 2.031980 0.000000 -0.021420 
#    y 0.000000 2.020920 0.000000 
#    z -0.021420 0.000000 1.969700 
# 
# From -- ./inp_files/237542.got.cif
#   From: 2010.05.17/outbox.cif.g08.bks.cpg/sg15_119_cif.got.tgz:237542.got - 2010.06.03 18:47:42.
