data_PCOD9270971
_publ_section_title
;
Structure prediction by ZEFSAII (Michael W. Deem and Ramdas Pophale) SiO2 
 PCOD9270971
Probable space group: C 2/C
;
_chemical_formula_sum "Si O2"
_cell_formula_units_Z 56
_cell_length_a 5.293748
_cell_length_b 34.024211
_cell_length_c 17.106388
_cell_angle_alpha 90.000000
_cell_angle_beta 107.593935
_cell_angle_gamma 90.000000
_cell_volume 2937.000409
_symmetry_space_group_name_H-M "C 2/C"
_symmetry_group_IT_number 15
_symmetry_cell_setting 'monoclinic'
loop_
_space_group_symop_operation_xyz
x,y,z
-x,y,1/2-z
-x,-y,-z
x,-y,1/2+z
1/2+x,1/2+y,z
1/2-x,1/2+y,1/2-z
1/2-x,1/2-y,-z
1/2+x,1/2-y,1/2+z
loop_
_atom_site_type_symbol
_atom_site_label
_atom_site_fract_x
_atom_site_fract_y
_atom_site_fract_z
Si Si1 0.195298 0.520164 0.194079
Si Si2 0.388133 0.092667 0.429575
Si Si3 0.932773 0.435363 0.380612
Si Si4 0.582599 0.638154 0.041111
Si Si5 0.596712 0.609655 0.648590
Si Si6 0.515143 0.724762 0.515736
Si Si7 0.702707 0.696679 0.702957
O O1 0.500000 0.518013 0.250000
O O2 0.153208 0.557850 0.135344
O O3 0.123914 0.480833 0.139384
O O4 0.000000 0.522268 0.250000
O O5 0.477244 0.074275 0.521984
O O6 0.620218 0.122037 0.423419
O O7 0.119029 0.116733 0.419377
O O8 0.662382 0.411177 0.340855
O O9 0.164675 0.420301 0.345214
O O10 0.491745 0.624502 0.945955
O O11 0.549362 0.685037 0.038421
O O12 0.689704 0.649125 0.699582
O O13 0.750000 0.750000 0.500000
O O14 0.612195 0.711604 0.610392
O O15 0.250000 0.750000 0.500000
O O16 0.500000 0.710509 0.750000
O O17 0.000000 0.708905 0.750000
#
# Coordination Sequence:
#
# PCOD9270971 Si02
#       7
#     8   8   8   8   8   8   8
#     4  12  25  37  53  80 113 149 191 245 294 318
#     4  10  20  39  60  77 108 149 195 232 270 336
#     4  10  20  36  56  81 110 148 191 231 279 339
#     4   9  19  36  61  85 103 138 187 229 271 332
#     4   9  19  33  54  83 111 141 180 223 276 345
#     4  11  22  39  64  92 119 150 190 238 286 340
#     4  11  22  36  57  86 122 157 184 222 289 360
#
# _framework density 19.067074000000002
#
# number of rings (size 3 to 8) (size 9 to 14) (size 15 to 20)
#    0.000    1.714    0.000    4.714    0.000    8.000 
#    0.000    5.714    0.000   17.143    0.000    0.000 
#    0.000    0.000    0.000    0.000    0.000    0.000 
#
# Total GULP energy -156529.891472 kJ/mol
# GULP energy per Si atom -5590.353267 kJ/mol
# Density = 1.902368 g / cm^3
# Si number density = 19.067074 Si / 1000 Ang^3
#
#
#
# Elastic Constant Matrix: (Units=GPa)
#
#
# Indices 1 2 3 4 5 6 
#
# 1 163.3027 48.7103 34.5968 0.0000 -6.4224 0.0000
# 2 48.7103 124.8274 34.8704 0.0000 -8.5026 0.0000
# 3 34.5968 34.8704 42.5189 0.0000 -5.6504 0.0000
# 4 0.0000 0.0000 0.0000 31.8571 0.0000 1.9681
# 5 -6.4224 -8.5026 -5.6504 0.0000 22.2293 0.0000
# 6 0.0000 0.0000 0.0000 1.9681 0.0000 -102.5765
#
#
#
# Elastic Compliance Matrix: (Units=1/GPa)
#
#
# Indices 1 2 3 4 5 6 
#
# 1 0.007645 -0.001601 -0.004859 0.000000 0.000361 0.000000
# 2 -0.001601 0.010803 -0.007316 0.000000 0.001810 0.000000
# 3 -0.004859 -0.007316 0.034065 0.000000 0.004457 0.000000
# 4 0.000000 0.000000 0.000000 0.031353 0.000000 0.000602
# 5 0.000361 0.001810 0.004457 0.000000 0.046915 0.000000
# 6 0.000000 0.000000 0.000000 0.000602 0.000000 -0.009737
#
#
# Mechanical properties :
#
#
# Convention : Reuss Voigt Hill
#
# Bulk Modulus (GPa) = 40.06485 63.00043 51.53264
# Shear Modulus (GPa) = 31.86385 4.46674 18.16530
#
# Velocity S-wave (km/s) = 4.09240 1.53223 3.08994
# Velocity P-wave (km/s) = 6.58700 6.02026 6.30999
#
# Compressibility (1/GPa) = 0.02495953
#
# Stress axis : x y z
#
# Youngs Moduli (GPa) = 130.80641 92.56736 29.35527
#
# Poissons Ratio (x) = 0.14821 0.14265
# Poissons Ratio (y) = 0.20944 0.21477
# Poissons Ratio (z) = 0.63564 0.67725
#
# Static dielectric constant tensor:
#      x y z
#    x 1.646170 0.000000 -0.006280 
#    y 0.000000 1.631620 0.000000 
#    z -0.006280 0.000000 1.660440 
# 
# From -- ./inp_files/186215.got.cif
#   From: 2010.05.17/outbox.cif.g08.bks.cpg/sg15_94_cif.got.tgz:186215.got - 2010.06.03 18:47:42.
