data_PCOD9270099
_publ_section_title
;
Structure prediction by ZEFSAII (Michael W. Deem and Ramdas Pophale) SiO2 
 PCOD9270099
Probable space group: C 2/C
;
_chemical_formula_sum "Si O2"
_cell_formula_units_Z 56
_cell_length_a 10.691613
_cell_length_b 26.031777
_cell_length_c 13.156888
_cell_angle_alpha 90.000000
_cell_angle_beta 120.595053
_cell_angle_gamma 90.000000
_cell_volume 3152.066750
_symmetry_space_group_name_H-M "C 2/C"
_symmetry_group_IT_number 15
_symmetry_cell_setting 'monoclinic'
loop_
_space_group_symop_operation_xyz
x,y,z
-x,y,1/2-z
-x,-y,-z
x,-y,1/2+z
1/2+x,1/2+y,z
1/2-x,1/2+y,1/2-z
1/2-x,1/2-y,-z
1/2+x,1/2-y,1/2+z
loop_
_atom_site_type_symbol
_atom_site_label
_atom_site_fract_x
_atom_site_fract_y
_atom_site_fract_z
Si Si1 0.141078 0.194584 0.747669
Si Si2 0.735351 0.191029 0.300051
Si Si3 0.500000 0.041001 0.750000
Si Si4 0.344718 0.179423 0.470177
Si Si5 0.068741 0.795240 0.980658
Si Si6 0.881358 0.609205 0.876366
Si Si7 0.931061 0.535334 0.059361
Si Si8 0.500000 0.886640 0.750000
O O1 0.187472 0.250969 0.806520
O O2 0.101565 0.198627 0.612988
O O3 0.270675 0.155067 0.815359
O O4 0.000000 0.177399 0.750000
O O5 0.693851 0.183166 0.164705
O O6 0.638545 0.150218 0.321671
O O7 0.907005 0.186727 0.387484
O O8 0.403137 0.075350 0.784514
O O9 0.601866 0.005415 0.864767
O O10 0.194263 0.175924 0.469634
O O11 0.415110 0.233986 0.534210
O O12 0.460535 0.134601 0.536953
O O13 0.832614 0.572950 0.950342
O O14 0.024318 0.576546 0.163194
O O15 0.000000 0.500000 0.000000
#
# Coordination Sequence:
#
# PCOD9270099 Si02
#       8
#     8   8   4   8   8   8   8   4
#     4  11  24  35  52  87 124 161 192 223 286 356
#     4  11  21  35  55  85 124 160 191 229 280 355
#     4   9  20  36  62  90 106 136 202 259 298 330
#     4  10  20  35  55  83 111 160 197 230 280 331
#     4  10  22  35  51  79 126 157 194 231 264 340
#     4  11  19  37  61  85 114 150 192 243 292 347
#     4   9  20  37  59  91 107 140 199 260 291 334
#     4  11  20  34  60  92 114 158 188 235 302 340
#
# _framework density 17.766121999999999
#
# number of rings (size 3 to 8) (size 9 to 14) (size 15 to 20)
#    0.000    1.714    3.571    1.286    2.000    0.571 
#    0.000    0.000    0.000    0.857   29.714    0.000 
#    0.000    0.000    0.000    0.000    0.000    0.000 
#
# Total GULP energy -155985.776286 kJ/mol
# GULP energy per Si atom -5570.920582 kJ/mol
# Density = 1.772569 g / cm^3
# Si number density = 17.766122 Si / 1000 Ang^3
#
#
#
# Elastic Constant Matrix: (Units=GPa)
#
#
# Indices 1 2 3 4 5 6 
#
# 1 75.4823 36.9916 32.8390 0.0000 13.7600 0.0000
# 2 36.9916 103.9950 46.4899 0.0000 1.7112 0.0000
# 3 32.8390 46.4899 71.8482 0.0000 4.1862 0.0000
# 4 0.0000 0.0000 0.0000 26.4487 0.0000 -7.4036
# 5 13.7600 1.7112 4.1862 0.0000 33.0798 0.0000
# 6 0.0000 0.0000 0.0000 -7.4036 0.0000 9.4277
#
#
#
# Elastic Compliance Matrix: (Units=1/GPa)
#
#
# Indices 1 2 3 4 5 6 
#
# 1 0.018979 -0.004137 -0.005592 0.000000 -0.006973 0.000000
# 2 -0.004137 0.014436 -0.007563 0.000000 0.001931 0.000000
# 3 -0.005592 -0.007563 0.021367 0.000000 0.000013 0.000000
# 4 0.000000 0.000000 0.000000 0.048462 0.000000 0.038058
# 5 -0.006973 0.001931 0.000013 0.000000 0.033029 0.000000
# 6 0.000000 0.000000 0.000000 0.038058 0.000000 0.135957
#
#
# Mechanical properties :
#
#
# Convention : Reuss Voigt Hill
#
# Bulk Modulus (GPa) = 49.50528 53.77406 51.63967
# Shear Modulus (GPa) = 15.94658 22.79157 19.36908
#
# Velocity S-wave (km/s) = 2.99922 3.58560 3.30544
# Velocity P-wave (km/s) = 6.31817 6.89025 6.61040
#
# Compressibility (1/GPa) = 0.02019986
#
# Stress axis : x y z
#
# Youngs Moduli (GPa) = 52.68915 69.26909 46.80115
#
# Poissons Ratio (x) = 0.28653 0.26170
# Poissons Ratio (y) = 0.21795 0.35396
# Poissons Ratio (z) = 0.29463 0.52389
#
# Static dielectric constant tensor:
#      x y z
#    x 1.592440 0.000000 -0.032700 
#    y 0.000000 1.632450 0.000000 
#    z -0.032700 0.000000 1.611950 
# 
# From -- ./inp_files/138727.got.cif
#   From: 2010.05.17/outbox.cif.g08.bks.cpg/sg15_70_cif.got.tgz:138727.got - 2010.06.03 18:47:42.
