data_PCOD9270717
_publ_section_title
;
Structure prediction by ZEFSAII (Michael W. Deem and Ramdas Pophale) SiO2 
 PCOD9270717
Probable space group: C 2/C
;
_chemical_formula_sum "Si O2"
_cell_formula_units_Z 60
_cell_length_a 28.369423
_cell_length_b 18.259710
_cell_length_c 15.145731
_cell_angle_alpha 90.000000
_cell_angle_beta 160.227146
_cell_angle_gamma 90.000000
_cell_volume 2654.156214
_symmetry_space_group_name_H-M "C 2/C"
_symmetry_group_IT_number 15
_symmetry_cell_setting 'monoclinic'
loop_
_space_group_symop_operation_xyz
x,y,z
-x,y,1/2-z
-x,-y,-z
x,-y,1/2+z
1/2+x,1/2+y,z
1/2-x,1/2+y,1/2-z
1/2-x,1/2-y,-z
1/2+x,1/2-y,1/2+z
loop_
_atom_site_type_symbol
_atom_site_label
_atom_site_fract_x
_atom_site_fract_y
_atom_site_fract_z
Si Si1 0.000000 0.607872 0.250000
Si Si2 0.924489 0.815599 0.021972
Si Si3 0.110866 0.677864 0.016018
Si Si4 0.961582 0.527249 0.558291
Si Si5 0.028333 0.987637 0.404024
Si Si6 0.285226 0.387694 0.191753
Si Si7 0.396838 0.251710 0.313129
Si Si8 0.729465 0.995689 0.946714
O O1 0.028821 0.551545 0.380068
O O2 0.145935 0.645973 0.488902
O O3 0.945050 0.901483 0.029116
O O4 0.000000 0.809344 0.250000
O O5 0.988650 0.761923 0.061164
O O6 0.763765 0.799632 0.756198
O O7 0.088435 0.693045 0.081773
O O8 0.102492 0.589880 0.994894
O O9 0.000000 0.708564 0.750000
O O10 0.855709 0.518871 0.291536
O O11 0.121147 0.545650 0.810855
O O12 0.000000 0.991852 0.250000
O O13 0.153546 0.041961 0.649997
O O14 0.888733 0.016002 0.207883
O O15 0.396112 0.325578 0.370583
O O16 0.242313 0.419593 0.021462
O O17 0.250000 0.250000 0.000000
#
# Coordination Sequence:
#
# PCOD9270717 Si02
#       8
#     4   8   8   8   8   8   8   8
#     4  10  20  38  66  92 126 162 206 278 346 378
#     4  11  23  45  76  98 131 183 241 281 341 417
#     4  12  26  43  69 102 140 184 232 282 337 418
#     4  10  20  39  62  96 133 165 211 266 341 404
#     4  11  22  38  67  99 129 169 220 277 344 407
#     4  11  23  38  62  95 128 166 217 276 335 392
#     4  12  26  46  69  96 136 190 239 278 331 414
#     4  10  20  35  62  96 125 161 211 277 330 392
#
# _framework density 22.606052999999999
#
# number of rings (size 3 to 8) (size 9 to 14) (size 15 to 20)
#    0.000    1.067    3.333    4.400    1.867    2.133 
#    0.000    1.333    0.000    0.000    0.000    0.000 
#    0.000    0.000    0.000    0.000    0.000    0.000 
#
# Total GULP energy -167547.697269 kJ/mol
# GULP energy per Si atom -5584.923242 kJ/mol
# Density = 2.255460 g / cm^3
# Si number density = 22.606053 Si / 1000 Ang^3
#
#
#
# Elastic Constant Matrix: (Units=GPa)
#
#
# Indices 1 2 3 4 5 6 
#
# 1 98.0499 7.0175 49.4886 0.0000 15.9321 0.0000
# 2 7.0175 45.7536 13.3474 0.0000 -2.8616 0.0000
# 3 49.4886 13.3474 133.5757 0.0000 16.6160 0.0000
# 4 0.0000 0.0000 0.0000 19.7832 0.0000 1.0346
# 5 15.9321 -2.8616 16.6160 0.0000 58.2750 0.0000
# 6 0.0000 0.0000 0.0000 1.0346 0.0000 26.3789
#
#
#
# Elastic Compliance Matrix: (Units=1/GPa)
#
#
# Indices 1 2 3 4 5 6 
#
# 1 0.012849 -0.000834 -0.004391 0.000000 -0.002302 0.000000
# 2 -0.000834 0.022752 -0.002210 0.000000 0.001975 0.000000
# 3 -0.004391 -0.002210 0.009536 0.000000 -0.001627 0.000000
# 4 0.000000 0.000000 0.000000 0.050652 0.000000 -0.001987
# 5 -0.002302 0.001975 -0.001627 0.000000 0.018350 0.000000
# 6 0.000000 0.000000 0.000000 -0.001987 0.000000 0.037987
#
#
# Mechanical properties :
#
#
# Convention : Reuss Voigt Hill
#
# Bulk Modulus (GPa) = 33.03830 46.34293 39.69062
# Shear Modulus (GPa) = 28.23494 34.72247 31.47871
#
# Velocity S-wave (km/s) = 3.53795 3.92341 3.73566
# Velocity P-wave (km/s) = 5.59786 6.40851 6.01685
#
# Compressibility (1/GPa) = 0.03026790
#
# Stress axis : x y z
#
# Youngs Moduli (GPa) = 77.82904 43.95132 104.86153
#
# Poissons Ratio (x) = 0.03665 0.46041
# Poissons Ratio (y) = 0.06489 0.23178
# Poissons Ratio (z) = 0.34172 0.09715
#
# Static dielectric constant tensor:
#      x y z
#    x 1.911560 0.000000 0.031890 
#    y 0.000000 1.842520 0.000000 
#    z 0.031890 0.000000 1.850880 
# 
# From -- ./inp_files/179130.got.cif
#   From: 2010.05.17/outbox.cif.g08.bks.cpg/sg15_90_cif.got.tgz:179130.got - 2010.06.03 18:47:42.
