data_PCOD9270291
_publ_section_title
;
Structure prediction by ZEFSAII (Michael W. Deem and Ramdas Pophale) SiO2 
 PCOD9270291
Probable space group: C 2/C
;
_chemical_formula_sum "Si O2"
_cell_formula_units_Z 64
_cell_length_a 15.170217
_cell_length_b 25.295281
_cell_length_c 14.404120
_cell_angle_alpha 90.000000
_cell_angle_beta 144.175864
_cell_angle_gamma 90.000000
_cell_volume 3235.161953
_symmetry_space_group_name_H-M "C 2/C"
_symmetry_group_IT_number 15
_symmetry_cell_setting 'monoclinic'
loop_
_space_group_symop_operation_xyz
x,y,z
-x,y,1/2-z
-x,-y,-z
x,-y,1/2+z
1/2+x,1/2+y,z
1/2-x,1/2+y,1/2-z
1/2-x,1/2-y,-z
1/2+x,1/2-y,1/2+z
loop_
_atom_site_type_symbol
_atom_site_label
_atom_site_fract_x
_atom_site_fract_y
_atom_site_fract_z
Si Si1 0.271307 0.088213 0.269684
Si Si2 0.871366 0.803505 0.924021
Si Si3 0.687495 0.001604 0.840903
Si Si4 0.769591 0.802785 0.243954
Si Si5 0.528367 0.477178 0.675382
Si Si6 0.583434 0.906085 0.124205
Si Si7 0.676745 0.336886 0.416425
Si Si8 0.221987 0.446775 0.051599
O O1 0.196248 0.141352 0.168363
O O2 0.141487 0.055554 0.209819
O O3 0.407148 0.102115 0.455282
O O4 0.335279 0.049658 0.243613
O O5 0.806026 0.754474 0.810125
O O6 0.815384 0.802704 0.983885
O O7 0.053637 0.803441 0.078636
O O8 0.614933 0.053461 0.734219
O O9 0.868542 0.011409 0.993734
O O10 0.654051 0.988412 0.920411
O O11 0.677260 0.851377 0.210312
O O12 0.763048 0.812322 0.127141
O O13 0.500000 0.449115 0.750000
O O14 0.617007 0.530626 0.778214
O O15 0.640366 0.934655 0.077974
O O16 0.500000 0.347264 0.250000
O O17 0.758239 0.393328 0.490232
#
# Coordination Sequence:
#
# PCOD9270291 Si02
#       8
#     8   8   8   8   8   8   8   8
#     4  12  23  37  58  85 119 154 201 246 296 350
#     4  11  21  37  58  83 113 158 200 247 295 348
#     4  11  21  37  60  83 120 160 198 243 302 346
#     4  10  22  37  57  81 117 156 203 243 295 351
#     4  10  22  37  59  86 118 154 204 245 298 361
#     4  11  24  39  55  87 127 158 202 246 292 358
#     4   9  17  31  52  81 116 157 197 237 280 347
#     4  10  20  35  57  87 122 160 201 239 290 355
#
# _framework density 19.782627000000002
#
# number of rings (size 3 to 8) (size 9 to 14) (size 15 to 20)
#    0.000    1.500    2.500    3.750    3.500    0.500 
#    2.250    1.250    0.000    0.000    0.000   14.000 
#    0.000    0.000    0.000    0.000    0.000    0.000 
#
# Total GULP energy -178705.266904 kJ/mol
# GULP energy per Si atom -5584.539591 kJ/mol
# Density = 1.973760 g / cm^3
# Si number density = 19.782627 Si / 1000 Ang^3
#
#
#
# Elastic Constant Matrix: (Units=GPa)
#
#
# Indices 1 2 3 4 5 6 
#
# 1 26.9421 11.8664 -13.0075 0.0000 -5.8671 0.0000
# 2 11.8664 121.1111 45.1488 0.0000 2.0147 0.0000
# 3 -13.0075 45.1488 96.0045 0.0000 12.5567 0.0000
# 4 0.0000 0.0000 0.0000 37.0378 0.0000 -3.7731
# 5 -5.8671 2.0147 12.5567 0.0000 19.6574 0.0000
# 6 0.0000 0.0000 0.0000 -3.7731 0.0000 17.0853
#
#
#
# Elastic Compliance Matrix: (Units=1/GPa)
#
#
# Indices 1 2 3 4 5 6 
#
# 1 0.047016 -0.008110 0.008991 0.000000 0.009120 0.000000
# 2 -0.008110 0.011496 -0.006585 0.000000 0.000607 0.000000
# 3 0.008991 -0.006585 0.015595 0.000000 -0.006603 0.000000
# 4 0.000000 0.000000 0.000000 0.027621 0.000000 0.006100
# 5 0.009120 0.000607 -0.006603 0.000000 0.057749 0.000000
# 6 0.000000 0.000000 0.000000 0.006100 0.000000 0.059877
#
#
# Mechanical properties :
#
#
# Convention : Reuss Voigt Hill
#
# Bulk Modulus (GPa) = 15.94913 36.89700 26.42306
# Shear Modulus (GPa) = 19.86808 28.09278 23.98043
#
# Velocity S-wave (km/s) = 3.17254 3.77247 3.48544
# Velocity P-wave (km/s) = 4.63678 6.13735 5.43906
#
# Compressibility (1/GPa) = 0.06269935
#
# Stress axis : x y z
#
# Youngs Moduli (GPa) = 21.26950 86.98634 64.12478
#
# Poissons Ratio (x) = 0.70547 -0.57656
# Poissons Ratio (y) = 0.17250 0.42224
# Poissons Ratio (z) = -0.19124 0.57277
#
# Static dielectric constant tensor:
#      x y z
#    x 1.719780 0.000000 0.007460 
#    y 0.000000 1.700290 0.000000 
#    z 0.007460 0.000000 1.718640 
# 
# From -- ./inp_files/164279.got.cif
#   From: 2010.05.17/outbox.cif.g08.bks.cpg/sg15_83_cif.got.tgz:164279.got - 2010.06.03 18:47:42.
