data_PCOD9270955
_publ_section_title
;
Structure prediction by ZEFSAII (Michael W. Deem and Ramdas Pophale) SiO2 
 PCOD9270955
Probable space group: C 2/C
;
_chemical_formula_sum "Si O2"
_cell_formula_units_Z 44
_cell_length_a 13.042428
_cell_length_b 21.413462
_cell_length_c 12.470985
_cell_angle_alpha 90.000000
_cell_angle_beta 142.165779
_cell_angle_gamma 90.000000
_cell_volume 2136.362321
_symmetry_space_group_name_H-M "C 2/C"
_symmetry_group_IT_number 15
_symmetry_cell_setting 'monoclinic'
loop_
_space_group_symop_operation_xyz
x,y,z
-x,y,1/2-z
-x,-y,-z
x,-y,1/2+z
1/2+x,1/2+y,z
1/2-x,1/2+y,1/2-z
1/2-x,1/2-y,-z
1/2+x,1/2-y,1/2+z
loop_
_atom_site_type_symbol
_atom_site_label
_atom_site_fract_x
_atom_site_fract_y
_atom_site_fract_z
Si Si1 0.239931 0.667460 0.090864
Si Si2 0.769922 0.882830 0.230207
Si Si3 0.500000 0.452403 0.250000
Si Si4 0.569414 0.068907 0.081782
Si Si5 0.175718 0.003266 0.581663
Si Si6 0.080677 0.796617 0.979054
O O1 0.163920 0.601530 0.061154
O O2 0.103182 0.722317 0.989017
O O3 0.391756 0.682838 0.298230
O O4 0.313703 0.674458 0.032959
O O5 0.842750 0.821743 0.346955
O O6 0.901710 0.910446 0.254384
O O7 0.752387 0.931809 0.315544
O O8 0.588123 0.886273 0.024993
O O9 0.629961 0.495954 0.420616
O O10 0.705437 0.053886 0.285409
O O11 0.500000 0.000000 0.000000
O O12 0.000000 0.000000 0.500000
#
# Coordination Sequence:
#
# PCOD9270955 Si02
#       6
#     8   8   4   8   8   8
#     4  10  20  37  60  89 123 152 198 250 307 366
#     4  10  21  35  55  83 114 151 197 241 297 357
#     4  10  20  36  56  78 114 154 196 244 292 352
#     4  10  21  37  57  86 119 157 201 248 297 361
#     4   9  19  35  54  78 109 150 195 241 294 349
#     4  10  21  36  61  91 119 158 194 250 311 364
#
# _framework density 20.595756999999999
#
# number of rings (size 3 to 8) (size 9 to 14) (size 15 to 20)
#    0.000    2.182    0.000    3.273    0.000    8.727 
#    0.000    7.273    0.000    9.818    0.000    0.000 
#    0.000    0.000    0.000    0.000    0.000    0.000 
#
# Total GULP energy -122699.588064 kJ/mol
# GULP energy per Si atom -5577.254003 kJ/mol
# Density = 2.054888 g / cm^3
# Si number density = 20.595757 Si / 1000 Ang^3
#
#
#
# Elastic Constant Matrix: (Units=GPa)
#
#
# Indices 1 2 3 4 5 6 
#
# 1 54.2687 34.0559 29.4978 0.0000 -1.0877 0.0000
# 2 34.0559 73.9184 20.2480 0.0000 -4.3464 0.0000
# 3 29.4978 20.2480 102.5611 0.0000 1.9315 0.0000
# 4 0.0000 0.0000 0.0000 26.7952 0.0000 -2.5643
# 5 -1.0877 -4.3464 1.9315 0.0000 32.9684 0.0000
# 6 0.0000 0.0000 0.0000 -2.5643 0.0000 35.6761
#
#
#
# Elastic Compliance Matrix: (Units=1/GPa)
#
#
# Indices 1 2 3 4 5 6 
#
# 1 0.029084 -0.011759 -0.006039 0.000000 -0.000237 0.000000
# 2 -0.011759 0.019197 -0.000449 0.000000 0.002169 0.000000
# 3 -0.006039 -0.000449 0.011593 0.000000 -0.000938 0.000000
# 4 0.000000 0.000000 0.000000 0.037579 0.000000 0.002701
# 5 -0.000237 0.002169 -0.000938 0.000000 0.030665 0.000000
# 6 0.000000 0.000000 0.000000 0.002701 0.000000 0.028224
#
#
# Mechanical properties :
#
#
# Convention : Reuss Voigt Hill
#
# Bulk Modulus (GPa) = 42.77099 44.26129 43.51614
# Shear Modulus (GPa) = 24.92160 28.88436 26.90298
#
# Velocity S-wave (km/s) = 3.48233 3.74898 3.61811
# Velocity P-wave (km/s) = 6.08119 6.34641 6.21521
#
# Compressibility (1/GPa) = 0.02338033
#
# Stress axis : x y z
#
# Youngs Moduli (GPa) = 34.38311 52.09226 86.25628
#
# Poissons Ratio (x) = 0.61258 0.52089
# Poissons Ratio (y) = 0.40433 0.03869
# Poissons Ratio (z) = 0.20763 0.02337
#
# Static dielectric constant tensor:
#      x y z
#    x 1.717040 0.000000 0.018750 
#    y 0.000000 1.761970 0.000000 
#    z 0.018750 0.000000 1.835000 
# 
# From -- ./inp_files/91362.got.cif
#   From: 2010.05.17/outbox.cif.g08.bks.cpg/sg15_46_cif.got.tgz:91362.got - 2010.06.03 18:47:42.
