data_PCOD9270113
_publ_section_title
;
Structure prediction by ZEFSAII (Michael W. Deem and Ramdas Pophale) SiO2 
 PCOD9270113
Probable space group: C 2/C
;
_chemical_formula_sum "Si O2"
_cell_formula_units_Z 48
_cell_length_a 20.262342
_cell_length_b 14.305726
_cell_length_c 9.150916
_cell_angle_alpha 90.000000
_cell_angle_beta 42.442313
_cell_angle_gamma 90.000000
_cell_volume 1790.069079
_symmetry_space_group_name_H-M "C 2/C"
_symmetry_group_IT_number 15
_symmetry_cell_setting 'monoclinic'
loop_
_space_group_symop_operation_xyz
x,y,z
-x,y,1/2-z
-x,-y,-z
x,-y,1/2+z
1/2+x,1/2+y,z
1/2-x,1/2+y,1/2-z
1/2-x,1/2-y,-z
1/2+x,1/2-y,1/2+z
loop_
_atom_site_type_symbol
_atom_site_label
_atom_site_fract_x
_atom_site_fract_y
_atom_site_fract_z
Si Si1 0.856276 0.382074 0.983155
Si Si2 0.102999 0.687220 0.626691
Si Si3 0.196042 0.521722 0.638793
Si Si4 0.055175 0.790910 0.988996
Si Si5 0.651674 0.312865 0.289959
Si Si6 0.612295 0.509719 0.362290
O O1 0.823812 0.458851 0.159052
O O2 0.916451 0.304206 0.973101
O O3 0.764058 0.326387 0.068946
O O4 0.881019 0.446072 0.802902
O O5 0.172407 0.618199 0.597088
O O6 0.079032 0.769803 0.780196
O O7 0.147718 0.728321 0.408249
O O8 0.000000 0.642001 0.750000
O O9 0.306529 0.501839 0.400519
O O10 0.111840 0.887014 0.934883
O O11 0.937123 0.803975 0.179868
O O12 0.628320 0.410259 0.415331
O O13 0.500000 0.500000 0.500000
#
# Coordination Sequence:
#
# PCOD9270113 Si02
#       6
#     8   8   8   8   8   8
#     4  10  20  35  59  88 120 157 198 248 301 356
#     4   9  17  31  53  81 107 144 199 248 283 338
#     4  10  20  35  55  85 118 154 199 246 301 355
#     4   9  17  31  52  82 112 149 200 246 288 347
#     4   9  17  29  50  83 113 143 190 247 297 341
#     4   9  17  29  50  81 114 147 188 246 300 347
#
# _framework density 26.814608
#
# number of rings (size 3 to 8) (size 9 to 14) (size 15 to 20)
#    0.000    2.667    0.000    2.000    0.000    4.000 
#    0.000   10.000    0.000   18.000    0.000   54.833 
#    0.000    0.000    0.000    0.000    0.000    0.000 
#
# Total GULP energy -134017.488985 kJ/mol
# GULP energy per Si atom -5584.062041 kJ/mol
# Density = 2.675358 g / cm^3
# Si number density = 26.814608 Si / 1000 Ang^3
#
#
#
# Elastic Constant Matrix: (Units=GPa)
#
#
# Indices 1 2 3 4 5 6 
#
# 1 91.3421 47.0379 23.0195 0.0000 6.6978 0.0000
# 2 47.0379 73.2451 17.6383 0.0000 5.8118 0.0000
# 3 23.0195 17.6383 57.7660 0.0000 3.5445 0.0000
# 4 0.0000 0.0000 0.0000 25.0237 0.0000 -1.9806
# 5 6.6978 5.8118 3.5445 0.0000 41.8972 0.0000
# 6 0.0000 0.0000 0.0000 -1.9806 0.0000 46.0715
#
#
#
# Elastic Compliance Matrix: (Units=1/GPa)
#
#
# Indices 1 2 3 4 5 6 
#
# 1 0.017115 -0.010019 -0.003698 0.000000 -0.001033 0.000000
# 2 -0.010019 0.020719 -0.002268 0.000000 -0.001081 0.000000
# 3 -0.003698 -0.002268 0.019523 0.000000 -0.000746 0.000000
# 4 0.000000 0.000000 0.000000 0.040099 0.000000 0.001724
# 5 -0.001033 -0.001081 -0.000746 0.000000 0.024246 0.000000
# 6 0.000000 0.000000 0.000000 0.001724 0.000000 0.021780
#
#
# Mechanical properties :
#
#
# Convention : Reuss Voigt Hill
#
# Bulk Modulus (GPa) = 39.38784 44.19383 41.79084
# Shear Modulus (GPa) = 27.18710 31.57563 29.38137
#
# Velocity S-wave (km/s) = 3.18762 3.43527 3.31376
# Velocity P-wave (km/s) = 5.31684 5.67907 5.50093
#
# Compressibility (1/GPa) = 0.02538855
#
# Stress axis : x y z
#
# Youngs Moduli (GPa) = 58.42922 48.26596 51.22203
#
# Poissons Ratio (x) = 0.48356 0.18940
# Poissons Ratio (y) = 0.58538 0.11615
# Poissons Ratio (z) = 0.21605 0.10944
#
# Static dielectric constant tensor:
#      x y z
#    x 2.072540 0.000000 -0.030260 
#    y 0.000000 2.149830 0.000000 
#    z -0.030260 0.000000 2.152280 
# 
# From -- ./inp_files/112926.got.cif
#   From: 2010.05.17/outbox.cif.g08.bks.cpg/sg15_57_cif.got.tgz:112926.got - 2010.06.03 18:47:42.
