data_PCOD9270660
_publ_section_title
;
Structure prediction by ZEFSAII (Michael W. Deem and Ramdas Pophale) SiO2 
 PCOD9270660
Probable space group: C 2/C
;
_chemical_formula_sum "Si O2"
_cell_formula_units_Z 60
_cell_length_a 12.450530
_cell_length_b 7.879902
_cell_length_c 24.080883
_cell_angle_alpha 90.000000
_cell_angle_beta 71.581562
_cell_angle_gamma 90.000000
_cell_volume 2241.527206
_symmetry_space_group_name_H-M "C 2/C"
_symmetry_group_IT_number 15
_symmetry_cell_setting 'monoclinic'
loop_
_space_group_symop_operation_xyz
x,y,z
-x,y,1/2-z
-x,-y,-z
x,-y,1/2+z
1/2+x,1/2+y,z
1/2-x,1/2+y,1/2-z
1/2-x,1/2-y,-z
1/2+x,1/2-y,1/2+z
loop_
_atom_site_type_symbol
_atom_site_label
_atom_site_fract_x
_atom_site_fract_y
_atom_site_fract_z
Si Si1 0.994930 0.060180 0.592347
Si Si2 0.755771 0.894792 0.292118
Si Si3 0.101329 0.191889 0.477734
Si Si4 0.305328 0.022672 0.998163
Si Si5 0.789725 0.952008 0.674922
Si Si6 0.907270 0.524807 0.864278
Si Si7 0.500000 0.803771 0.750000
Si Si8 0.190293 0.880998 0.617863
O O1 0.961830 0.889857 0.563506
O O2 0.886949 0.085356 0.647029
O O3 0.103082 0.025079 0.611353
O O4 0.013388 0.199243 0.543136
O O5 0.673006 0.737563 0.317013
O O6 0.884858 0.813557 0.269387
O O7 0.727533 0.976622 0.238221
O O8 0.747789 0.037140 0.340353
O O9 0.194091 0.059127 0.486913
O O10 0.153476 0.375620 0.465951
O O11 0.398421 0.036019 0.933439
O O12 0.263114 0.162893 0.050117
O O13 0.711223 0.936345 0.634460
O O14 0.883776 0.719881 0.851521
O O15 0.989338 0.421013 0.808668
#
# Coordination Sequence:
#
# PCOD9270660 Si02
#       8
#     8   8   8   8   8   8   4   8
#     4  10  20  35  61  93 121 165 212 264 315 387
#     4  11  24  42  63  95 124 174 220 270 327 392
#     4   9  19  35  62  94 124 162 216 262 317 380
#     4  10  20  38  68  92 129 169 215 265 326 390
#     4  11  23  40  66  88 127 164 222 266 322 388
#     4  11  24  43  63  95 131 172 210 272 326 387
#     4  10  26  42  64  90 126 168 224 262 328 388
#     4  11  24  40  66  94 133 167 214 264 335 391
#
# _framework density 26.767465000000001
#
# number of rings (size 3 to 8) (size 9 to 14) (size 15 to 20)
#    0.000    1.600    1.333    2.800   11.200    3.733 
#    0.000    2.000    0.000    0.000    0.000    0.000 
#    0.000    0.000    0.000    0.000    0.000    0.000 
#
# Total GULP energy -167574.354102 kJ/mol
# GULP energy per Si atom -5585.811803 kJ/mol
# Density = 2.670654 g / cm^3
# Si number density = 26.767465 Si / 1000 Ang^3
#
#
#
# Elastic Constant Matrix: (Units=GPa)
#
#
# Indices 1 2 3 4 5 6 
#
# 1 50.2047 6.8627 19.9041 0.0000 -7.8992 0.0000
# 2 6.8627 76.5332 39.7021 0.0000 0.9380 0.0000
# 3 19.9041 39.7021 154.7478 0.0000 -5.1826 0.0000
# 4 0.0000 0.0000 0.0000 31.2245 0.0000 3.8814
# 5 -7.8992 0.9380 -5.1826 0.0000 35.3987 0.0000
# 6 0.0000 0.0000 0.0000 3.8814 0.0000 26.8188
#
#
#
# Elastic Compliance Matrix: (Units=1/GPa)
#
#
# Indices 1 2 3 4 5 6 
#
# 1 0.021699 -0.000728 -0.002453 0.000000 0.004502 0.000000
# 2 -0.000728 0.015130 -0.003826 0.000000 -0.001124 0.000000
# 3 -0.002453 -0.003826 0.007782 0.000000 0.000693 0.000000
# 4 0.000000 0.000000 0.000000 0.032613 0.000000 -0.004720
# 5 0.004502 -0.001124 0.000693 0.000000 0.029386 0.000000
# 6 0.000000 0.000000 0.000000 -0.004720 0.000000 0.037970
#
#
# Mechanical properties :
#
#
# Convention : Reuss Voigt Hill
#
# Bulk Modulus (GPa) = 32.68316 46.04704 39.36510
# Shear Modulus (GPa) = 29.62196 33.02285 31.32240
#
# Velocity S-wave (km/s) = 3.33023 3.51621 3.42448
# Velocity P-wave (km/s) = 5.19844 5.80732 5.51129
#
# Compressibility (1/GPa) = 0.03059680
#
# Stress axis : x y z
#
# Youngs Moduli (GPa) = 46.08499 66.09438 128.49472
#
# Poissons Ratio (x) = 0.04813 0.31525
# Poissons Ratio (y) = 0.03356 0.49158
# Poissons Ratio (z) = 0.11306 0.25286
#
# Static dielectric constant tensor:
#      x y z
#    x 2.098810 0.000000 -0.073820 
#    y 0.000000 2.096750 0.000000 
#    z -0.073820 0.000000 2.125420 
# 
# From -- ./inp_files/273128.got.cif
#   From: 2010.05.17/outbox.cif.g08.bks.cpg/sg15_137_cif.got.tgz:273128.got - 2010.06.03 18:47:42.
