data_PCOD9270693
_publ_section_title
;
Structure prediction by ZEFSAII (Michael W. Deem and Ramdas Pophale) SiO2 
 PCOD9270693
Probable space group: C 2/C
;
_chemical_formula_sum "Si O2"
_cell_formula_units_Z 56
_cell_length_a 23.328009
_cell_length_b 17.367906
_cell_length_c 8.336954
_cell_angle_alpha 90.000000
_cell_angle_beta 141.007200
_cell_angle_gamma 90.000000
_cell_volume 2125.381715
_symmetry_space_group_name_H-M "C 2/C"
_symmetry_group_IT_number 15
_symmetry_cell_setting 'monoclinic'
loop_
_space_group_symop_operation_xyz
x,y,z
-x,y,1/2-z
-x,-y,-z
x,-y,1/2+z
1/2+x,1/2+y,z
1/2-x,1/2+y,1/2-z
1/2-x,1/2-y,-z
1/2+x,1/2-y,1/2+z
loop_
_atom_site_type_symbol
_atom_site_label
_atom_site_fract_x
_atom_site_fract_y
_atom_site_fract_z
Si Si1 0.462661 0.815076 0.834543
Si Si2 0.219986 0.281606 0.607815
Si Si3 0.048281 0.816410 0.709058
Si Si4 0.621816 0.610477 0.055233
Si Si5 0.809889 0.000538 0.020636
Si Si6 0.575807 0.919489 0.275613
Si Si7 0.690759 0.926822 0.996395
O O1 0.500000 0.782867 0.750000
O O2 0.360681 0.846212 0.603566
O O3 0.485509 0.757223 0.027745
O O4 0.525229 0.889934 0.006309
O O5 0.250000 0.250000 0.500000
O O6 0.145965 0.214624 0.487928
O O7 0.316737 0.318275 0.876538
O O8 0.154788 0.356230 0.467129
O O9 0.055628 0.856261 0.549919
O O10 0.000000 0.860845 0.750000
O O11 0.674811 0.552946 0.291635
O O12 0.608668 0.549498 0.880740
O O13 0.762915 0.057638 0.792774
O O14 0.738127 0.937790 0.928593
O O15 0.500000 0.917942 0.250000
O O16 0.620573 0.002306 0.357660
#
# Coordination Sequence:
#
# PCOD9270693 Si02
#       7
#     8   8   8   8   8   8   8
#     4  11  22  32  52  85 125 157 192 240 300 356
#     4   9  17  32  55  78 113 157 197 229 280 356
#     4  10  23  41  61  82 116 165 207 237 291 370
#     4  10  21  40  63  89 116 152 202 252 298 356
#     4  10  20  35  62  89 119 154 197 248 304 348
#     4  11  19  32  51  83 123 164 200 236 300 364
#     4  11  20  32  54  86 126 159 193 247 298 363
#
# _framework density 26.348206999999999
#
# number of rings (size 3 to 8) (size 9 to 14) (size 15 to 20)
#    0.000    1.714    2.857    4.286    4.000    0.000 
#    0.000    4.286    0.000    1.714    0.000    0.000 
#    0.000    0.000    0.000    0.000    0.000    0.000 
#
# Total GULP energy -156272.495895 kJ/mol
# GULP energy per Si atom -5581.160568 kJ/mol
# Density = 2.628824 g / cm^3
# Si number density = 26.348207 Si / 1000 Ang^3
#
#
#
# Elastic Constant Matrix: (Units=GPa)
#
#
# Indices 1 2 3 4 5 6 
#
# 1 161.2821 51.7856 10.5323 0.0000 5.8783 0.0000
# 2 51.7856 98.1677 19.4367 0.0000 5.4611 0.0000
# 3 10.5323 19.4367 37.1430 0.0000 -2.0662 0.0000
# 4 0.0000 0.0000 0.0000 -70.6658 0.0000 -59.4486
# 5 5.8783 5.4611 -2.0662 0.0000 29.0349 0.0000
# 6 0.0000 0.0000 0.0000 -59.4486 0.0000 16.6952
#
#
#
# Elastic Compliance Matrix: (Units=1/GPa)
#
#
# Indices 1 2 3 4 5 6 
#
# 1 0.007483 -0.003876 -0.000138 0.000000 -0.000796 0.000000
# 2 -0.003876 0.013566 -0.006122 0.000000 -0.002203 0.000000
# 3 -0.000138 -0.006122 0.030352 0.000000 0.003339 0.000000
# 4 0.000000 0.000000 0.000000 -0.003542 0.000000 -0.012611
# 5 -0.000796 -0.002203 0.003339 0.000000 0.035254 0.000000
# 6 0.000000 0.000000 0.000000 -0.012611 0.000000 0.014991
#
#
# Mechanical properties :
#
#
# Convention : Reuss Voigt Hill
#
# Bulk Modulus (GPa) = 32.12529 51.12242 41.62385
# Shear Modulus (GPa) = 38.83422 9.33540 24.08481
#
# Velocity S-wave (km/s) = 3.84329 1.88435 3.02668
# Velocity P-wave (km/s) = 5.64920 4.91723 5.29588
#
# Compressibility (1/GPa) = 0.03112812
#
# Stress axis : x y z
#
# Youngs Moduli (GPa) = 133.64021 73.71402 32.94703
#
# Poissons Ratio (x) = 0.28570 0.00454
# Poissons Ratio (y) = 0.51796 0.20172
# Poissons Ratio (z) = 0.01843 0.45131
#
# Static dielectric constant tensor:
#      x y z
#    x 2.156740 0.000000 0.053090 
#    y 0.000000 2.091880 0.000000 
#    z 0.053090 0.000000 2.140560 
# 
# From -- ./inp_files/62771.got.cif
#   From: 2010.05.17/outbox.cif.g08.bks.cpg/sg15_32_cif.got.tgz:62771.got - 2010.06.03 18:47:42.
