data_PCOD9270816
_publ_section_title
;
Structure prediction by ZEFSAII (Michael W. Deem and Ramdas Pophale) SiO2 
 PCOD9270816
Probable space group: C 2/C
;
_chemical_formula_sum "Si O2"
_cell_formula_units_Z 60
_cell_length_a 13.516704
_cell_length_b 11.678176
_cell_length_c 20.312859
_cell_angle_alpha 90.000000
_cell_angle_beta 57.729214
_cell_angle_gamma 90.000000
_cell_volume 2711.115633
_symmetry_space_group_name_H-M "C 2/C"
_symmetry_group_IT_number 15
_symmetry_cell_setting 'monoclinic'
loop_
_space_group_symop_operation_xyz
x,y,z
-x,y,1/2-z
-x,-y,-z
x,-y,1/2+z
1/2+x,1/2+y,z
1/2-x,1/2+y,1/2-z
1/2-x,1/2-y,-z
1/2+x,1/2-y,1/2+z
loop_
_atom_site_type_symbol
_atom_site_label
_atom_site_fract_x
_atom_site_fract_y
_atom_site_fract_z
Si Si1 0.132007 0.265463 0.000559
Si Si2 0.503978 0.461056 0.923083
Si Si3 0.462087 0.014197 0.903531
Si Si4 0.500000 0.018249 0.750000
Si Si5 0.710096 0.184847 0.078131
Si Si6 0.638773 0.805248 0.847781
Si Si7 0.532819 0.630540 0.666758
Si Si8 0.756394 0.096343 0.188784
O O1 0.160654 0.257176 0.912621
O O2 0.250000 0.250000 0.000000
O O3 0.072874 0.389263 0.033209
O O4 0.045362 0.166955 0.057104
O O5 0.425396 0.538810 0.902132
O O6 0.631055 0.483717 0.843688
O O7 0.500000 0.500000 0.000000
O O8 0.357185 0.926156 0.924963
O O9 0.568714 0.926976 0.880344
O O10 0.483465 0.077631 0.825726
O O11 0.376118 0.949414 0.780493
O O12 0.631761 0.275540 0.145684
O O13 0.797891 0.151088 0.104442
O O14 0.750000 0.250000 0.000000
O O15 0.559330 0.714471 0.836892
O O16 0.743475 0.831696 0.759899
O O17 0.500000 0.581831 0.750000
#
# Coordination Sequence:
#
# PCOD9270816 Si02
#       8
#     8   8   8   4   8   8   8   8
#     4  12  28  46  66  97 150 193 226 284 358 436
#     4  12  27  46  68 102 149 196 234 286 368 431
#     4   9  21  41  68  99 134 174 233 284 346 412
#     4   8  18  40  74  98 132 176 226 296 344 416
#     4  10  20  35  72 104 128 170 229 290 343 411
#     4  10  21  46  72  99 134 175 239 302 341 412
#     4  11  22  43  71 101 136 173 236 301 344 409
#     4  10  21  42  71 102 135 182 234 289 360 412
#
# _framework density 22.13111
#
# number of rings (size 3 to 8) (size 9 to 14) (size 15 to 20)
#    0.000    1.600    2.667    2.000    9.333    1.067 
#    8.400    0.000    0.000    0.000    0.000    0.000 
#    0.000    0.000    0.000    0.000    0.000    0.000 
#
# Total GULP energy -167061.136240 kJ/mol
# GULP energy per Si atom -5568.704541 kJ/mol
# Density = 2.208074 g / cm^3
# Si number density = 22.131110 Si / 1000 Ang^3
#
#
#
# Elastic Constant Matrix: (Units=GPa)
#
#
# Indices 1 2 3 4 5 6 
#
# 1 58.5493 -3.3718 10.1254 0.0000 -1.5804 0.0000
# 2 -3.3718 79.0122 9.9422 0.0000 -3.5568 0.0000
# 3 10.1254 9.9422 110.9599 0.0000 22.5182 0.0000
# 4 0.0000 0.0000 0.0000 32.0741 0.0000 4.3944
# 5 -1.5804 -3.5568 22.5182 0.0000 42.2896 0.0000
# 6 0.0000 0.0000 0.0000 4.3944 0.0000 13.1850
#
#
#
# Elastic Compliance Matrix: (Units=1/GPa)
#
#
# Indices 1 2 3 4 5 6 
#
# 1 0.017552 0.001094 -0.002076 0.000000 0.001853 0.000000
# 2 0.001094 0.013005 -0.001677 0.000000 0.002027 0.000000
# 3 -0.002076 -0.001677 0.010535 0.000000 -0.005828 0.000000
# 4 0.000000 0.000000 0.000000 0.032670 0.000000 -0.010888
# 5 0.001853 0.002027 -0.005828 0.000000 0.026990 0.000000
# 6 0.000000 0.000000 0.000000 -0.010888 0.000000 0.079472
#
#
# Mechanical properties :
#
#
# Convention : Reuss Voigt Hill
#
# Bulk Modulus (GPa) = 27.95309 31.32363 29.63836
# Shear Modulus (GPa) = 25.32096 32.96479 29.14287
#
# Velocity S-wave (km/s) = 3.38617 3.86362 3.63275
# Velocity P-wave (km/s) = 5.28643 5.83848 5.56930
#
# Compressibility (1/GPa) = 0.03577422
#
# Stress axis : x y z
#
# Youngs Moduli (GPa) = 56.97484 76.89249 94.92506
#
# Poissons Ratio (x) = -0.08409 0.19704
# Poissons Ratio (y) = -0.06231 0.15914
# Poissons Ratio (z) = 0.11826 0.12891
#
# Static dielectric constant tensor:
#      x y z
#    x 1.950110 0.000000 -0.139100 
#    y 0.000000 1.832870 0.000000 
#    z -0.139100 0.000000 1.938270 
# 
# From -- ./inp_files/243659.got.cif
#   From: 2010.05.17/outbox.cif.g08.bks.cpg/sg15_122_cif.got.tgz:243659.got - 2010.06.03 18:47:42.
