data_PCOD9270887
_publ_section_title
;
Structure prediction by ZEFSAII (Michael W. Deem and Ramdas Pophale) SiO2 
 PCOD9270887
Probable space group: C 2/C
;
_chemical_formula_sum "Si O2"
_cell_formula_units_Z 52
_cell_length_a 11.341324
_cell_length_b 25.470951
_cell_length_c 12.405787
_cell_angle_alpha 90.000000
_cell_angle_beta 130.406305
_cell_angle_gamma 90.000000
_cell_volume 2728.879223
_symmetry_space_group_name_H-M "C 2/C"
_symmetry_group_IT_number 15
_symmetry_cell_setting 'monoclinic'
loop_
_space_group_symop_operation_xyz
x,y,z
-x,y,1/2-z
-x,-y,-z
x,-y,1/2+z
1/2+x,1/2+y,z
1/2-x,1/2+y,1/2-z
1/2-x,1/2-y,-z
1/2+x,1/2-y,1/2+z
loop_
_atom_site_type_symbol
_atom_site_label
_atom_site_fract_x
_atom_site_fract_y
_atom_site_fract_z
Si Si1 0.500000 0.033140 0.250000
Si Si2 0.684592 0.678845 0.871489
Si Si3 0.679337 0.208840 0.320031
Si Si4 0.338715 0.571508 0.720655
Si Si5 0.218797 0.397579 0.738174
Si Si6 0.311123 0.029322 0.465248
Si Si7 0.050006 0.943411 0.983044
O O1 0.365221 0.071147 0.214112
O O2 0.560522 0.996056 0.381641
O O3 0.500000 0.673617 0.750000
O O4 0.729686 0.730852 0.830892
O O5 0.749369 0.622369 0.877141
O O6 0.725903 0.689825 0.019403
O O7 0.500000 0.210560 0.250000
O O8 0.697149 0.164405 0.240837
O O9 0.500000 0.564810 0.750000
O O10 0.247698 0.517863 0.646576
O O11 0.375571 0.582600 0.867010
O O12 0.149131 0.422166 0.587995
O O13 0.399468 0.412868 0.852732
O O14 0.171923 0.047015 0.460969
O O15 0.000000 0.000000 0.000000
#
# Coordination Sequence:
#
# PCOD9270887 Si02
#       7
#     4   8   8   8   8   8   8
#     4  12  22  36  50  78 116 150 184 228 278 336
#     4   9  19  33  56  82 112 145 182 233 286 328
#     4  10  20  36  54  84 115 142 186 235 284 332
#     4  11  18  32  56  81 109 142 180 230 281 329
#     4  12  22  35  57  79 115 151 183 230 286 334
#     4  12  23  36  53  82 116 152 187 225 278 338
#     4  12  21  36  55  82 113 146 190 228 271 344
#
# _framework density 19.055441999999999
#
# number of rings (size 3 to 8) (size 9 to 14) (size 15 to 20)
#    0.000    0.923    5.385    3.692    0.000    0.000 
#    0.000    0.000    0.000    0.923    0.000    0.000 
#    0.000    0.000    0.000    0.000    0.000    0.000 
#
# Total GULP energy -145255.770883 kJ/mol
# GULP energy per Si atom -5586.760419 kJ/mol
# Density = 1.901207 g / cm^3
# Si number density = 19.055442 Si / 1000 Ang^3
#
#
#
# Elastic Constant Matrix: (Units=GPa)
#
#
# Indices 1 2 3 4 5 6 
#
# 1 62.0808 19.4980 3.8690 0.0000 -3.9150 0.0000
# 2 19.4980 102.8348 -5.1646 0.0000 -13.1889 0.0000
# 3 3.8690 -5.1646 67.3056 0.0000 -1.4219 0.0000
# 4 0.0000 0.0000 0.0000 30.7060 0.0000 -8.3663
# 5 -3.9150 -13.1889 -1.4219 0.0000 25.7217 0.0000
# 6 0.0000 0.0000 0.0000 -8.3663 0.0000 17.7811
#
#
#
# Elastic Compliance Matrix: (Units=1/GPa)
#
#
# Indices 1 2 3 4 5 6 
#
# 1 0.017251 -0.003216 -0.001219 0.000000 0.000910 0.000000
# 2 -0.003216 0.011064 0.001145 0.000000 0.005247 0.000000
# 3 -0.001219 0.001145 0.015042 0.000000 0.001233 0.000000
# 4 0.000000 0.000000 0.000000 0.037356 0.000000 0.017577
# 5 0.000910 0.005247 0.001233 0.000000 0.041775 0.000000
# 6 0.000000 0.000000 0.000000 0.017577 0.000000 0.064510
#
#
# Mechanical properties :
#
#
# Convention : Reuss Voigt Hill
#
# Bulk Modulus (GPa) = 27.19063 29.84732 28.51898
# Shear Modulus (GPa) = 24.29111 29.10970 26.70041
#
# Velocity S-wave (km/s) = 3.57425 3.91273 3.74732
# Velocity P-wave (km/s) = 5.59767 6.00916 5.80706
#
# Compressibility (1/GPa) = 0.03677737
#
# Stress axis : x y z
#
# Youngs Moduli (GPa) = 57.96666 90.37934 66.48245
#
# Poissons Ratio (x) = 0.29062 0.08105
# Poissons Ratio (y) = 0.18639 -0.07610
# Poissons Ratio (z) = 0.07067 -0.10346
#
# Static dielectric constant tensor:
#      x y z
#    x 1.672830 0.000000 0.022300 
#    y 0.000000 1.702040 0.000000 
#    z 0.022300 0.000000 1.734560 
# 
# From -- ./inp_files/91309.got.cif
#   From: 2010.05.17/outbox.cif.g08.bks.cpg/sg15_46_cif.got.tgz:91309.got - 2010.06.03 18:47:42.
