data_PCOD9270836
_publ_section_title
;
Structure prediction by ZEFSAII (Michael W. Deem and Ramdas Pophale) SiO2 
 PCOD9270836
Probable space group: C 2/C
;
_chemical_formula_sum "Si O2"
_cell_formula_units_Z 60
_cell_length_a 21.974118
_cell_length_b 12.817041
_cell_length_c 9.180500
_cell_angle_alpha 90.000000
_cell_angle_beta 95.073057
_cell_angle_gamma 90.000000
_cell_volume 2575.496613
_symmetry_space_group_name_H-M "C 2/C"
_symmetry_group_IT_number 15
_symmetry_cell_setting 'monoclinic'
loop_
_space_group_symop_operation_xyz
x,y,z
-x,y,1/2-z
-x,-y,-z
x,-y,1/2+z
1/2+x,1/2+y,z
1/2-x,1/2+y,1/2-z
1/2-x,1/2-y,-z
1/2+x,1/2-y,1/2+z
loop_
_atom_site_type_symbol
_atom_site_label
_atom_site_fract_x
_atom_site_fract_y
_atom_site_fract_z
Si Si1 0.293239 0.705915 0.174782
Si Si2 0.379840 0.153585 0.493117
Si Si3 0.371418 0.721184 0.439850
Si Si4 0.230030 0.959705 0.087529
Si Si5 0.664986 0.308496 0.244912
Si Si6 0.000000 0.527590 0.250000
Si Si7 0.976585 0.640583 0.957631
Si Si8 0.692819 0.945203 0.104940
O O1 0.335624 0.656943 0.308984
O O2 0.233467 0.757955 0.236831
O O3 0.338948 0.786207 0.103773
O O4 0.270556 0.627632 0.044615
O O5 0.376218 0.226131 0.349911
O O6 0.450596 0.147709 0.548737
O O7 0.349368 0.042023 0.453295
O O8 0.359190 0.681742 0.598362
O O9 0.441747 0.751315 0.427216
O O10 0.341578 0.836943 0.421087
O O11 0.170938 0.918675 0.162222
O O12 0.280443 0.963571 0.228291
O O13 0.249572 0.057087 0.993542
O O14 0.032482 0.598095 0.379282
O O15 0.958452 0.450141 0.338854
#
# Coordination Sequence:
#
# PCOD9270836 Si02
#       8
#     8   8   8   8   8   4   8   8
#     4  11  22  43  56  83 115 170 193 264 301 351
#     4  11  21  38  63  80 131 161 209 240 300 337
#     4  12  25  34  62  84 123 161 212 237 303 347
#     4  11  24  37  58  81 118 150 211 238 311 341
#     4  11  21  41  55  80 115 169 193 261 296 353
#     4  10  20  36  52  72 136 154 202 238 288 304
#     4  11  23  38  53  89 117 170 206 244 272 367
#     4  12  21  34  57  91 113 170 194 250 278 369
#
# _framework density 23.296478
#
# number of rings (size 3 to 8) (size 9 to 14) (size 15 to 20)
#    0.000    0.800    4.000    5.200    0.000    2.133 
#    0.000    0.000    0.000    0.000    0.000    0.000 
#    0.000   51.200    0.000    0.000    0.000    0.000 
#
# Total GULP energy -167570.737697 kJ/mol
# GULP energy per Si atom -5585.691257 kJ/mol
# Density = 2.324345 g / cm^3
# Si number density = 23.296478 Si / 1000 Ang^3
#
#
#
# Elastic Constant Matrix: (Units=GPa)
#
#
# Indices 1 2 3 4 5 6 
#
# 1 100.4234 18.8244 22.5125 0.0000 -0.0640 0.0000
# 2 18.8244 52.8518 3.4257 0.0000 -4.2517 0.0000
# 3 22.5125 3.4257 150.2114 0.0000 3.6630 0.0000
# 4 0.0000 0.0000 0.0000 30.3981 0.0000 -0.5846
# 5 -0.0640 -4.2517 3.6630 0.0000 24.9552 0.0000
# 6 0.0000 0.0000 0.0000 -0.5846 0.0000 34.0046
#
#
#
# Elastic Compliance Matrix: (Units=1/GPa)
#
#
# Indices 1 2 3 4 5 6 
#
# 1 0.011030 -0.003860 -0.001555 0.000000 -0.000401 0.000000
# 2 -0.003860 0.020575 0.000024 0.000000 0.003492 0.000000
# 3 -0.001555 0.000024 0.006915 0.000000 -0.001015 0.000000
# 4 0.000000 0.000000 0.000000 0.032908 0.000000 0.000566
# 5 -0.000401 0.003492 -0.001015 0.000000 0.040815 0.000000
# 6 0.000000 0.000000 0.000000 0.000566 0.000000 0.029418
#
#
# Mechanical properties :
#
#
# Convention : Reuss Voigt Hill
#
# Bulk Modulus (GPa) = 36.05274 43.66799 39.86037
# Shear Modulus (GPa) = 30.92395 35.11987 33.02191
#
# Velocity S-wave (km/s) = 3.64732 3.88689 3.76901
# Velocity P-wave (km/s) = 5.76597 6.23931 6.00731
#
# Compressibility (1/GPa) = 0.02773714
#
# Stress axis : x y z
#
# Youngs Moduli (GPa) = 90.66365 48.60272 144.62218
#
# Poissons Ratio (x) = 0.18760 0.22492
# Poissons Ratio (y) = 0.34996 -0.00349
# Poissons Ratio (z) = 0.14100 -0.00117
#
# Static dielectric constant tensor:
#      x y z
#    x 1.956570 0.000000 0.003160 
#    y 0.000000 2.049540 0.000000 
#    z 0.003160 0.000000 1.946560 
# 
# From -- ./inp_files/65960.got.cif
#   From: 2010.05.17/outbox.cif.g08.bks.cpg/sg15_33_cif.got.tgz:65960.got - 2010.06.03 18:47:42.
