data_PCOD9270544
_publ_section_title
;
Structure prediction by ZEFSAII (Michael W. Deem and Ramdas Pophale) SiO2 
 PCOD9270544
Probable space group: C 2/C
;
_chemical_formula_sum "Si O2"
_cell_formula_units_Z 56
_cell_length_a 9.605540
_cell_length_b 14.518985
_cell_length_c 27.408172
_cell_angle_alpha 90.000000
_cell_angle_beta 45.902128
_cell_angle_gamma 90.000000
_cell_volume 2745.077270
_symmetry_space_group_name_H-M "C 2/C"
_symmetry_group_IT_number 15
_symmetry_cell_setting 'monoclinic'
loop_
_space_group_symop_operation_xyz
x,y,z
-x,y,1/2-z
-x,-y,-z
x,-y,1/2+z
1/2+x,1/2+y,z
1/2-x,1/2+y,1/2-z
1/2-x,1/2-y,-z
1/2+x,1/2-y,1/2+z
loop_
_atom_site_type_symbol
_atom_site_label
_atom_site_fract_x
_atom_site_fract_y
_atom_site_fract_z
Si Si1 0.898582 0.701604 0.532863
Si Si2 0.442350 0.562141 0.879734
Si Si3 0.828182 0.840786 0.252571
Si Si4 0.413820 0.354864 0.066443
Si Si5 0.455032 0.876607 0.409149
Si Si6 0.373546 0.060685 0.091662
Si Si7 0.731511 0.284497 0.691450
O O1 0.689327 0.655804 0.592038
O O2 0.011496 0.699078 0.556667
O O3 0.913416 0.799308 0.502462
O O4 0.007227 0.629834 0.471017
O O5 0.614909 0.578637 0.799480
O O6 0.512267 0.561150 0.918396
O O7 0.307509 0.479858 0.894563
O O8 0.626470 0.860658 0.328359
O O9 0.809195 0.749298 0.224547
O O10 0.000000 0.835769 0.250000
O O11 0.312188 0.286413 0.130755
O O12 0.250743 0.375723 0.066602
O O13 0.498144 0.974095 0.424094
O O14 0.299192 0.115976 0.156759
O O15 0.500000 0.279815 0.750000
#
# Coordination Sequence:
#
# PCOD9270544 Si02
#       7
#     8   8   8   8   8   8   8
#     4  10  20  38  58  84 117 154 194 229 281 341
#     4  10  20  35  60  86 111 151 195 233 277 345
#     4  11  20  36  60  87 109 150 192 238 281 341
#     4  10  21  36  59  87 111 150 192 239 276 327
#     4  11  20  36  60  86 117 149 191 237 283 340
#     4  10  22  37  59  81 115 154 188 228 289 346
#     4  10  21  37  57  81 115 146 185 233 287 339
#
# _framework density 20.400154000000001
#
# number of rings (size 3 to 8) (size 9 to 14) (size 15 to 20)
#    0.000    1.714    4.286    2.571    2.000    0.000 
#    0.000    4.286    0.000    0.000    0.000    0.000 
#    0.000    0.000    0.000    0.000    0.000    0.000 
#
# Total GULP energy -156409.116255 kJ/mol
# GULP energy per Si atom -5586.039866 kJ/mol
# Density = 2.035372 g / cm^3
# Si number density = 20.400154 Si / 1000 Ang^3
#
#
#
# Elastic Constant Matrix: (Units=GPa)
#
#
# Indices 1 2 3 4 5 6 
#
# 1 84.8223 0.0558 -3.4854 0.0000 14.8645 0.0000
# 2 0.0558 33.6039 8.5029 0.0000 6.5309 -0.0001
# 3 -3.4854 8.5029 77.2533 0.0001 6.5562 0.0000
# 4 0.0000 0.0000 0.0001 17.0962 0.0000 2.8001
# 5 14.8645 6.5309 6.5562 0.0000 29.5050 0.0001
# 6 0.0000 -0.0001 0.0000 2.8001 0.0001 17.4929
#
#
#
# Elastic Compliance Matrix: (Units=1/GPa)
#
#
# Indices 1 2 3 4 5 6 
#
# 1 0.013070 0.001080 0.001070 0.000000 -0.007061 0.000000
# 2 0.001080 0.031833 -0.002865 0.000000 -0.006954 0.000000
# 3 0.001070 -0.002865 0.013556 0.000000 -0.002917 0.000000
# 4 0.000000 0.000000 0.000000 0.060067 0.000000 -0.009615
# 5 -0.007061 -0.006954 -0.002917 0.000000 0.039637 0.000000
# 6 0.000000 0.000000 0.000000 -0.009615 0.000000 0.058705
#
#
# Mechanical properties :
#
#
# Convention : Reuss Voigt Hill
#
# Bulk Modulus (GPa) = 17.53496 22.86959 20.20228
# Shear Modulus (GPa) = 21.06963 25.52587 23.29775
#
# Velocity S-wave (km/s) = 3.21723 3.54115 3.38307
# Velocity P-wave (km/s) = 4.73444 5.28720 5.01844
#
# Compressibility (1/GPa) = 0.05702894
#
# Stress axis : x y z
#
# Youngs Moduli (GPa) = 76.51061 31.41391 73.77028
#
# Poissons Ratio (x) = -0.03392 -0.07894
# Poissons Ratio (y) = -0.08262 0.21134
# Poissons Ratio (z) = -0.08187 0.09000
#
# Static dielectric constant tensor:
#      x y z
#    x 1.737460 0.000000 0.015260 
#    y 0.000000 1.740240 0.000000 
#    z 0.015260 0.000000 1.737710 
# 
# From -- ./inp_files/289402.got.cif
#   From: 2010.05.17/outbox.cif.g08.bks.cpg/sg15_145_cif.got.tgz:289402.got - 2010.06.03 18:47:42.
