data_PCOD9270451
_publ_section_title
;
Structure prediction by ZEFSAII (Michael W. Deem and Ramdas Pophale) SiO2 
 PCOD9270451
Probable space group: C 2/C
;
_chemical_formula_sum "Si O2"
_cell_formula_units_Z 64
_cell_length_a 9.129571
_cell_length_b 29.681683
_cell_length_c 24.000803
_cell_angle_alpha 90.000000
_cell_angle_beta 29.634588
_cell_angle_gamma 90.000000
_cell_volume 3215.893714
_symmetry_space_group_name_H-M "C 2/C"
_symmetry_group_IT_number 15
_symmetry_cell_setting 'monoclinic'
loop_
_space_group_symop_operation_xyz
x,y,z
-x,y,1/2-z
-x,-y,-z
x,-y,1/2+z
1/2+x,1/2+y,z
1/2-x,1/2+y,1/2-z
1/2-x,1/2-y,-z
1/2+x,1/2-y,1/2+z
loop_
_atom_site_type_symbol
_atom_site_label
_atom_site_fract_x
_atom_site_fract_y
_atom_site_fract_z
Si Si1 0.543782 0.488642 0.050601
Si Si2 0.710635 0.351648 0.494521
Si Si3 0.665316 0.058885 0.353279
Si Si4 0.703200 0.578808 0.314539
Si Si5 0.753861 0.192258 0.876971
Si Si6 0.735292 0.604240 0.873113
Si Si7 0.157743 0.701405 0.138965
Si Si8 0.121228 0.648443 0.040097
O O1 0.443535 0.531889 0.118094
O O2 0.323009 0.446382 0.129288
O O3 0.500000 0.500000 0.000000
O O4 0.880605 0.473563 0.954793
O O5 0.529030 0.381752 0.598291
O O6 0.809925 0.387055 0.413314
O O7 0.486133 0.318206 0.537780
O O8 0.954603 0.321726 0.443972
O O9 0.672507 0.073424 0.287372
O O10 0.601879 0.107498 0.402474
O O11 0.000000 0.040388 0.250000
O O12 0.000000 0.587877 0.250000
O O13 0.819645 0.244681 0.867395
O O14 0.000000 0.176684 0.750000
O O15 0.721295 0.171443 0.949472
O O16 0.000000 0.625053 0.750000
O O17 0.416090 0.625227 0.966629
O O18 0.027132 0.680876 0.123759
O O19 0.000000 0.689114 0.250000
#
# Coordination Sequence:
#
# PCOD9270451 Si02
#       8
#     8   8   8   8   8   8   8   8
#     4  11  21  38  60  90 116 155 210 249 301 367
#     4  11  21  36  58  87 118 153 203 253 307 357
#     4  11  24  40  59  90 127 158 198 258 313 368
#     4  12  21  37  66  87 117 160 207 256 301 367
#     4  11  23  39  59  86 123 160 199 249 313 377
#     4  10  20  35  59  83 115 153 200 252 296 361
#     4  10  21  38  62  89 116 156 206 253 304 366
#     4  10  21  40  60  87 123 158 203 246 308 370
#
# _framework density 19.901153999999998
#
# number of rings (size 3 to 8) (size 9 to 14) (size 15 to 20)
#    0.000    1.250    2.500    5.250    0.000    0.500 
#    0.000    0.625    0.000    7.500    0.000    0.000 
#    0.000    0.000    0.000    0.000    0.000    0.000 
#
# Total GULP energy -178249.966428 kJ/mol
# GULP energy per Si atom -5570.311451 kJ/mol
# Density = 1.985586 g / cm^3
# Si number density = 19.901154 Si / 1000 Ang^3
#
#
#
# Elastic Constant Matrix: (Units=GPa)
#
#
# Indices 1 2 3 4 5 6 
#
# 1 60.7679 -0.5667 10.8643 0.0056 -2.7652 -0.0029
# 2 -0.5667 60.6305 24.9183 -0.0250 2.0494 0.0267
# 3 10.8643 24.9183 91.2792 -0.1740 1.7993 0.2090
# 4 0.0056 -0.0250 -0.1740 -70.8902 0.0239 114.2632
# 5 -2.7652 2.0494 1.7993 0.0239 37.8928 -0.0267
# 6 -0.0029 0.0267 0.2090 114.2632 -0.0267 -106.3359
#
#
#
# Elastic Compliance Matrix: (Units=1/GPa)
#
#
# Indices 1 2 3 4 5 6 
#
# 1 0.016942 0.001075 -0.002335 0.000002 0.001289 -0.000003
# 2 0.001075 0.018668 -0.005211 0.000004 -0.000684 -0.000001
# 3 -0.002335 -0.005211 0.012665 -0.000012 -0.000490 0.000011
# 4 0.000002 0.000004 -0.000012 0.019271 0.000003 0.020708
# 5 0.001289 -0.000684 -0.000490 0.000003 0.026545 -0.000005
# 6 -0.000003 -0.000001 0.000011 0.020708 -0.000005 0.012847
#
#
# Mechanical properties :
#
#
# Convention : Reuss Voigt Hill
#
# Bulk Modulus (GPa) = 28.30213 31.45661 29.87937
# Shear Modulus (GPa) = 37.97692 -16.03590 10.97051
#
# Velocity S-wave (km/s) = 4.37312 -2.84170 2.35042
# Velocity P-wave (km/s) = 6.30485 2.25249 4.73418
#
# Compressibility (1/GPa) = 0.03533303
#
# Stress axis : x y z
#
# Youngs Moduli (GPa) = 59.02406 53.56763 78.95531
#
# Poissons Ratio (x) = -0.05756 0.18438
# Poissons Ratio (y) = -0.06342 0.41140
# Poissons Ratio (z) = 0.13784 0.27912
#
# Static dielectric constant tensor:
#      x y z
#    x 1.683040 0.000060 0.049280 
#    y 0.000060 1.654920 -0.000070 
#    z 0.049280 -0.000070 1.677800 
# 
# From -- ./inp_files/266739.got.cif
#   From: 2010.05.17/outbox.cif.g08.bks.cpg/sg15_134_cif.got.tgz:266739.got - 2010.06.03 18:47:42.
