data_PCOD9270255
_publ_section_title
;
Structure prediction by ZEFSAII (Michael W. Deem and Ramdas Pophale) SiO2 
 PCOD9270255
Probable space group: C 2/C
;
_chemical_formula_sum "Si O2"
_cell_formula_units_Z 40
_cell_length_a 17.597260
_cell_length_b 13.638780
_cell_length_c 8.801643
_cell_angle_alpha 90.000000
_cell_angle_beta 94.978448
_cell_angle_gamma 90.000000
_cell_volume 2104.470351
_symmetry_space_group_name_H-M "C 2/C"
_symmetry_group_IT_number 15
_symmetry_cell_setting 'monoclinic'
loop_
_space_group_symop_operation_xyz
x,y,z
-x,y,1/2-z
-x,-y,-z
x,-y,1/2+z
1/2+x,1/2+y,z
1/2-x,1/2+y,1/2-z
1/2-x,1/2-y,-z
1/2+x,1/2-y,1/2+z
loop_
_atom_site_type_symbol
_atom_site_label
_atom_site_fract_x
_atom_site_fract_y
_atom_site_fract_z
Si Si1 0.662911 0.825437 0.455471
Si Si2 0.179832 0.107077 0.545506
Si Si3 0.494527 0.107581 0.429610
Si Si4 0.576307 0.251558 0.658205
Si Si5 0.088812 0.036167 0.234240
O O1 0.729652 0.906523 0.463853
O O2 0.680108 0.725087 0.550269
O O3 0.587881 0.860775 0.526025
O O4 0.641066 0.793558 0.279074
O O5 0.128921 0.074081 0.394030
O O6 0.139416 0.051180 0.675832
O O7 0.500000 0.106357 0.250000
O O8 0.555930 0.182372 0.514035
O O9 0.500000 0.000000 0.500000
O O10 0.500000 0.252706 0.750000
O O11 0.590469 0.366486 0.626596
O O12 0.000000 0.010124 0.250000
#
# Coordination Sequence:
#
# PCOD9270255 Si02
#       5
#     8   8   8   8   8
#     4   9  20  39  55  79 114 147 184 222 275 327
#     4  10  21  36  58  81 112 148 177 228 281 326
#     4  11  22  36  59  83 108 147 187 226 267 319
#     4   8  17  36  57  80 112 143 178 227 273 324
#     4  10  20  35  57  84 110 142 183 226 278 330
#
# _framework density 19.007158
#
# number of rings (size 3 to 8) (size 9 to 14) (size 15 to 20)
#    0.000    2.400    0.000    3.600    0.000    5.600 
#    0.000    0.000    0.000    8.400    0.000    0.000 
#    0.000    0.000    0.000    0.000    0.000    0.000 
#
# Total GULP energy -111408.750882 kJ/mol
# GULP energy per Si atom -5570.437544 kJ/mol
# Density = 1.896390 g / cm^3
# Si number density = 19.007158 Si / 1000 Ang^3
#
#
#
# Elastic Constant Matrix: (Units=GPa)
#
#
# Indices 1 2 3 4 5 6 
#
# 1 89.6857 17.8853 7.8535 0.0000 2.4004 0.0000
# 2 17.8853 64.3233 12.8473 0.0000 -17.1926 0.0000
# 3 7.8535 12.8473 50.1610 0.0000 -7.6156 0.0000
# 4 0.0000 0.0000 0.0000 10.3685 0.0000 -22.2268
# 5 2.4004 -17.1926 -7.6156 0.0000 21.1693 0.0000
# 6 0.0000 0.0000 0.0000 -22.2268 0.0000 9.9225
#
#
#
# Elastic Compliance Matrix: (Units=1/GPa)
#
#
# Indices 1 2 3 4 5 6 
#
# 1 0.012376 -0.004660 -0.001620 0.000000 -0.005771 0.000000
# 2 -0.004660 0.021988 -0.002233 0.000000 0.017582 0.000000
# 3 -0.001620 -0.002233 0.021699 0.000000 0.006177 0.000000
# 4 0.000000 0.000000 0.000000 -0.025367 0.000000 -0.056824
# 5 -0.005771 0.017582 0.006177 0.000000 0.064394 0.000000
# 6 0.000000 0.000000 0.000000 -0.056824 0.000000 -0.026508
#
#
# Mechanical properties :
#
#
# Convention : Reuss Voigt Hill
#
# Bulk Modulus (GPa) = 25.61670 31.26024 28.43847
# Shear Modulus (GPa) = 50.70017 19.33097 35.01557
#
# Velocity S-wave (km/s) = 5.17032 3.19256 4.29678
# Velocity P-wave (km/s) = 7.01067 5.48381 6.29372
#
# Compressibility (1/GPa) = 0.03903703
#
# Stress axis : x y z
#
# Youngs Moduli (GPa) = 80.80378 45.48025 46.08498
#
# Poissons Ratio (x) = 0.21193 0.07467
# Poissons Ratio (y) = 0.37654 0.10289
# Poissons Ratio (z) = 0.13092 0.10154
#
# Static dielectric constant tensor:
#      x y z
#    x 2.036780 0.000000 0.133520 
#    y 0.000000 2.595810 0.000000 
#    z 0.133520 0.000000 1.692240 
# 
# From -- ./inp_files/46178.got.cif
#   From: 2010.05.17/outbox.cif.g08.bks.cpg/sg15_24_cif.got.tgz:46178.got - 2010.06.03 18:47:42.
