data_PCOD9270651
_publ_section_title
;
Structure prediction by ZEFSAII (Michael W. Deem and Ramdas Pophale) SiO2 
 PCOD9270651
Probable space group: C 2/C
;
_chemical_formula_sum "Si O2"
_cell_formula_units_Z 48
_cell_length_a 8.112325
_cell_length_b 12.622412
_cell_length_c 17.960072
_cell_angle_alpha 90.000000
_cell_angle_beta 93.763203
_cell_angle_gamma 90.000000
_cell_volume 1835.094107
_symmetry_space_group_name_H-M "C 2/C"
_symmetry_group_IT_number 15
_symmetry_cell_setting 'monoclinic'
loop_
_space_group_symop_operation_xyz
x,y,z
-x,y,1/2-z
-x,-y,-z
x,-y,1/2+z
1/2+x,1/2+y,z
1/2-x,1/2+y,1/2-z
1/2-x,1/2-y,-z
1/2+x,1/2-y,1/2+z
loop_
_atom_site_type_symbol
_atom_site_label
_atom_site_fract_x
_atom_site_fract_y
_atom_site_fract_z
Si Si1 0.649028 0.699484 0.174195
Si Si2 0.325845 0.353784 0.461664
Si Si3 0.809862 0.928807 0.058919
Si Si4 0.513699 0.144736 0.335377
Si Si5 0.995302 0.399547 0.131288
Si Si6 0.827758 0.894105 0.661259
O O1 0.813549 0.688192 0.131860
O O2 0.593169 0.818240 0.186934
O O3 0.668299 0.632545 0.250742
O O4 0.491064 0.651735 0.128886
O O5 0.250000 0.250000 0.500000
O O6 0.525004 0.359406 0.450759
O O7 0.304622 0.466876 0.505998
O O8 0.193582 0.369734 0.390716
O O9 0.617954 0.890761 0.061551
O O10 0.832139 0.983179 0.141447
O O11 0.500000 0.184998 0.250000
O O12 0.340365 0.162842 0.369110
O O13 0.516322 0.017730 0.338106
#
# Coordination Sequence:
#
# PCOD9270651 Si02
#       6
#     8   8   8   8   8   8
#     4  10  20  35  61  91 123 164 208 256 326 394
#     4  11  24  42  65  95 122 174 223 270 324 388
#     4  10  23  43  64  90 132 167 219 272 327 381
#     4   9  20  38  59  85 126 164 205 264 323 385
#     4  11  23  37  63  95 124 166 211 264 326 394
#     4   9  19  38  61  84 121 167 204 260 320 383
#
# _framework density 26.156697999999999
#
# number of rings (size 3 to 8) (size 9 to 14) (size 15 to 20)
#    0.000    2.000    0.000    2.500    2.333    6.000 
#    0.000    0.000   36.667    0.000    0.000    0.000 
#    0.000    0.000    0.000    0.000    0.000    0.000 
#
# Total GULP energy -133789.016012 kJ/mol
# GULP energy per Si atom -5574.542334 kJ/mol
# Density = 2.609716 g / cm^3
# Si number density = 26.156698 Si / 1000 Ang^3
#
#
#
# Elastic Constant Matrix: (Units=GPa)
#
#
# Indices 1 2 3 4 5 6 
#
# 1 244.3779 49.6996 14.4371 0.0000 -16.5910 0.0000
# 2 49.6996 95.8015 23.6118 0.0000 -4.0903 0.0000
# 3 14.4371 23.6118 57.4688 0.0000 -15.1679 0.0000
# 4 0.0000 0.0000 0.0000 -172.2498 0.0000 143.6671
# 5 -16.5910 -4.0903 -15.1679 0.0000 29.2497 0.0000
# 6 0.0000 0.0000 0.0000 143.6671 0.0000 -50.0309
#
#
#
# Elastic Compliance Matrix: (Units=1/GPa)
#
#
# Indices 1 2 3 4 5 6 
#
# 1 0.004742 -0.002476 0.000515 0.000000 0.002611 0.000000
# 2 -0.002476 0.012931 -0.005311 0.000000 -0.002350 0.000000
# 3 0.000515 -0.005311 0.022401 0.000000 0.011165 0.000000
# 4 0.000000 0.000000 0.000000 0.004161 0.000000 0.011950
# 5 0.002611 -0.002350 0.011165 0.000000 0.041131 0.000000
# 6 0.000000 0.000000 0.000000 0.011950 0.000000 0.014327
#
#
# Mechanical properties :
#
#
# Convention : Reuss Voigt Hill
#
# Bulk Modulus (GPa) = 39.16973 63.68281 51.42627
# Shear Modulus (GPa) = 40.73391 -17.94622 11.39385
#
# Velocity S-wave (km/s) = 3.95055 -2.62220 2.08937
# Velocity P-wave (km/s) = 5.98470 3.90277 5.05214
#
# Compressibility (1/GPa) = 0.02552992
#
# Stress axis : x y z
#
# Youngs Moduli (GPa) = 210.86686 77.33193 44.64170
#
# Poissons Ratio (x) = 0.19145 -0.02298
# Poissons Ratio (y) = 0.52203 0.23711
# Poissons Ratio (z) = -0.10857 0.41074
#
# Static dielectric constant tensor:
#      x y z
#    x 2.186490 0.000000 0.088540 
#    y 0.000000 2.122180 0.000000 
#    z 0.088540 0.000000 2.618990 
# 
# From -- ./inp_files/263172.got.cif
#   From: 2010.05.17/outbox.cif.g08.bks.cpg/sg15_132_cif.got.tgz:263172.got - 2010.06.03 18:47:42.
