data_PCOD9270301
_publ_section_title
;
Structure prediction by ZEFSAII (Michael W. Deem and Ramdas Pophale) SiO2 
 PCOD9270301
Probable space group: C 2/C
;
_chemical_formula_sum "Si O2"
_cell_formula_units_Z 56
_cell_length_a 16.996890
_cell_length_b 17.458765
_cell_length_c 13.178218
_cell_angle_alpha 90.000000
_cell_angle_beta 52.944702
_cell_angle_gamma 90.000000
_cell_volume 3120.844403
_symmetry_space_group_name_H-M "C 2/C"
_symmetry_group_IT_number 15
_symmetry_cell_setting 'monoclinic'
loop_
_space_group_symop_operation_xyz
x,y,z
-x,y,1/2-z
-x,-y,-z
x,-y,1/2+z
1/2+x,1/2+y,z
1/2-x,1/2+y,1/2-z
1/2-x,1/2-y,-z
1/2+x,1/2-y,1/2+z
loop_
_atom_site_type_symbol
_atom_site_label
_atom_site_fract_x
_atom_site_fract_y
_atom_site_fract_z
Si Si1 0.480353 0.701344 0.926072
Si Si2 0.452750 0.048500 0.628763
Si Si3 0.991742 0.072922 0.082627
Si Si4 0.850863 0.851917 0.352251
Si Si5 0.633132 0.987253 0.099089
Si Si6 0.627449 0.857294 0.478876
Si Si7 0.353792 0.533442 0.360778
O O1 0.575748 0.689976 0.781600
O O2 0.387543 0.666163 0.936689
O O3 0.496609 0.650833 0.013954
O O4 0.452039 0.790088 0.954468
O O5 0.385476 0.008464 0.766305
O O6 0.551559 0.069395 0.613969
O O7 0.385198 0.109525 0.624451
O O8 0.500000 0.000000 0.500000
O O9 0.891723 0.071901 0.227599
O O10 0.077649 0.061177 0.099674
O O11 0.000000 0.000000 0.000000
O O12 0.738552 0.831113 0.415933
O O13 0.867180 0.942864 0.328890
O O14 0.740420 0.960094 0.981597
O O15 0.612902 0.071661 0.067922
#
# Coordination Sequence:
#
# PCOD9270301 Si02
#       7
#     8   8   8   8   8   8   8
#     4  11  21  36  56  84 124 156 183 247 294 352
#     4   9  19  37  59  85 110 147 198 242 296 342
#     4  11  19  34  58  85 120 154 197 238 289 345
#     4  10  20  36  57  83 115 155 196 235 302 340
#     4   9  20  38  60  83 113 149 194 251 289 339
#     4  10  22  38  57  89 119 151 196 238 301 357
#     4  10  20  35  57  89 112 150 202 246 281 350
#
# _framework density 17.943860000000001
#
# number of rings (size 3 to 8) (size 9 to 14) (size 15 to 20)
#    0.000    2.000    2.857    1.286    2.000    5.714 
#    2.571    2.857    0.000    1.714    0.000    0.000 
#    0.000    0.000    0.000    0.000    0.000    0.000 
#
# Total GULP energy -155875.716165 kJ/mol
# GULP energy per Si atom -5566.989863 kJ/mol
# Density = 1.790302 g / cm^3
# Si number density = 17.943860 Si / 1000 Ang^3
#
#
#
# Elastic Constant Matrix: (Units=GPa)
#
#
# Indices 1 2 3 4 5 6 
#
# 1 79.4634 22.2019 51.0911 0.0000 -6.5605 0.0000
# 2 22.2019 26.7351 16.5915 0.0000 1.4485 0.0000
# 3 51.0911 16.5915 119.7304 0.0000 1.8022 0.0000
# 4 0.0000 0.0000 0.0000 13.4748 0.0000 -2.7935
# 5 -6.5605 1.4485 1.8022 0.0000 30.1337 0.0000
# 6 0.0000 0.0000 0.0000 -2.7935 0.0000 22.3910
#
#
#
# Elastic Compliance Matrix: (Units=1/GPa)
#
#
# Indices 1 2 3 4 5 6 
#
# 1 0.021675 -0.013699 -0.007438 0.000000 0.005822 0.000000
# 2 -0.013699 0.049662 -0.000956 0.000000 -0.005313 0.000000
# 3 -0.007438 -0.000956 0.011693 0.000000 -0.002273 0.000000
# 4 0.000000 0.000000 0.000000 0.076183 0.000000 0.009505
# 5 0.005822 -0.005313 -0.002273 0.000000 0.034844 0.000000
# 6 0.000000 0.000000 0.000000 0.009505 0.000000 0.045847
#
#
# Mechanical properties :
#
#
# Convention : Reuss Voigt Hill
#
# Bulk Modulus (GPa) = 25.74527 45.07757 35.41142
# Shear Modulus (GPa) = 16.83280 22.26951 19.55116
#
# Velocity S-wave (km/s) = 3.06613 3.52670 3.30445
# Velocity P-wave (km/s) = 5.18784 6.46216 5.85974
#
# Compressibility (1/GPa) = 0.03884208
#
# Stress axis : x y z
#
# Youngs Moduli (GPa) = 46.13560 20.13627 85.52165
#
# Poissons Ratio (x) = 0.27585 0.63615
# Poissons Ratio (y) = 0.63202 0.08177
# Poissons Ratio (z) = 0.34318 0.01925
#
# Static dielectric constant tensor:
#      x y z
#    x 1.645160 0.000000 -0.004170 
#    y 0.000000 1.469650 0.000000 
#    z -0.004170 0.000000 1.641900 
# 
# From -- ./inp_files/106640.got.cif
#   From: 2010.05.17/outbox.cif.g08.bks.cpg/sg15_54_cif.got.tgz:106640.got - 2010.06.03 18:47:42.
