data_PCOD9270623
_publ_section_title
;
Structure prediction by ZEFSAII (Michael W. Deem and Ramdas Pophale) SiO2 
 PCOD9270623
Probable space group: C 2/C
;
_chemical_formula_sum "Si O2"
_cell_formula_units_Z 36
_cell_length_a 11.926656
_cell_length_b 7.818279
_cell_length_c 18.176427
_cell_angle_alpha 90.000000
_cell_angle_beta 51.638046
_cell_angle_gamma 90.000000
_cell_volume 1328.963366
_symmetry_space_group_name_H-M "C 2/C"
_symmetry_group_IT_number 15
_symmetry_cell_setting 'monoclinic'
loop_
_space_group_symop_operation_xyz
x,y,z
-x,y,1/2-z
-x,-y,-z
x,-y,1/2+z
1/2+x,1/2+y,z
1/2-x,1/2+y,1/2-z
1/2-x,1/2-y,-z
1/2+x,1/2-y,1/2+z
loop_
_atom_site_type_symbol
_atom_site_label
_atom_site_fract_x
_atom_site_fract_y
_atom_site_fract_z
Si Si1 0.062002 0.892785 0.151460
Si Si2 0.000000 0.585009 0.250000
Si Si3 0.120206 0.105861 0.995215
Si Si4 0.413640 0.867749 0.145472
Si Si5 0.700499 0.214573 0.331027
O O1 0.933298 0.811457 0.154203
O O2 0.000000 0.989246 0.250000
O O3 0.118324 0.719443 0.168178
O O4 0.153077 0.999737 0.055976
O O5 0.042700 0.472302 0.300471
O O6 0.041486 0.279232 0.052051
O O7 0.234226 0.170573 0.888983
O O8 0.000000 0.000000 0.000000
O O9 0.318184 0.718279 0.219451
O O10 0.333450 0.018581 0.134179
#
# Coordination Sequence:
#
# PCOD9270623 Si02
#       5
#     8   4   8   8   8
#     4   8  17  36  58  82 119 154 189 236 299 329
#     4   8  20  36  60  86 118 158 186 242 296 336
#     4  10  20  35  61  87 116 152 197 242 287 345
#     4  11  21  39  62  86 120 154 196 239 294 346
#     4  10  20  36  61  87 111 158 200 234 283 354
#
# _framework density 27.088782999999999
#
# number of rings (size 3 to 8) (size 9 to 14) (size 15 to 20)
#    0.667    1.778    0.000    3.333    1.556    0.000 
#    0.000    2.222    9.778    0.000    0.000    0.000 
#    0.000    0.000    0.000    0.000    0.000    0.000 
#
# Total GULP energy -100513.755368 kJ/mol
# GULP energy per Si atom -5584.097520 kJ/mol
# Density = 2.702713 g / cm^3
# Si number density = 27.088783 Si / 1000 Ang^3
#
#
#
# Elastic Constant Matrix: (Units=GPa)
#
#
# Indices 1 2 3 4 5 6 
#
# 1 50.4786 24.4802 18.5249 0.0000 23.5216 0.0000
# 2 24.4802 125.7569 43.9401 0.0000 19.2695 0.0000
# 3 18.5249 43.9401 142.3306 0.0000 17.1052 0.0000
# 4 0.0000 0.0000 0.0000 35.8233 0.0000 21.2678
# 5 23.5216 19.2695 17.1052 0.0000 42.3615 0.0000
# 6 0.0000 0.0000 0.0000 21.2678 0.0000 35.4895
#
#
#
# Elastic Compliance Matrix: (Units=1/GPa)
#
#
# Indices 1 2 3 4 5 6 
#
# 1 0.028081 -0.002975 -0.001078 0.000000 -0.013804 0.000000
# 2 -0.002975 0.009632 -0.002373 0.000000 -0.001771 0.000000
# 3 -0.001078 -0.002373 0.008090 0.000000 -0.001589 0.000000
# 4 0.000000 0.000000 0.000000 0.043331 0.000000 -0.025967
# 5 -0.013804 -0.001771 -0.001589 0.000000 0.032718 0.000000
# 6 0.000000 0.000000 0.000000 -0.025967 0.000000 0.043739
#
#
# Mechanical properties :
#
#
# Convention : Reuss Voigt Hill
#
# Bulk Modulus (GPa) = 30.34832 54.71739 42.53286
# Shear Modulus (GPa) = 26.39573 38.17627 32.28600
#
# Velocity S-wave (km/s) = 3.12495 3.75814 3.45608
# Velocity P-wave (km/s) = 4.92423 6.25097 5.62684
#
# Compressibility (1/GPa) = 0.03295076
#
# Stress axis : x y z
#
# Youngs Moduli (GPa) = 35.61178 103.82512 123.61273
#
# Poissons Ratio (x) = 0.30884 0.13320
# Poissons Ratio (y) = 0.10593 0.29339
# Poissons Ratio (z) = 0.03837 0.24642
#
# Static dielectric constant tensor:
#      x y z
#    x 2.284250 0.000000 -0.039710 
#    y 0.000000 2.133980 0.000000 
#    z -0.039710 0.000000 2.091290 
# 
# From -- ./inp_files/121724.got.cif
#   From: 2010.05.17/outbox.cif.g08.bks.cpg/sg15_61_cif.got.tgz:121724.got - 2010.06.03 18:47:42.
