data_PCOD9270469
_publ_section_title
;
Structure prediction by ZEFSAII (Michael W. Deem and Ramdas Pophale) SiO2 
 PCOD9270469
Probable space group: C 2/C
;
_chemical_formula_sum "Si O2"
_cell_formula_units_Z 56
_cell_length_a 17.145365
_cell_length_b 5.828066
_cell_length_c 27.674364
_cell_angle_alpha 90.000000
_cell_angle_beta 75.555075
_cell_angle_gamma 90.000000
_cell_volume 2677.923617
_symmetry_space_group_name_H-M "C 2/C"
_symmetry_group_IT_number 15
_symmetry_cell_setting 'monoclinic'
loop_
_space_group_symop_operation_xyz
x,y,z
-x,y,1/2-z
-x,-y,-z
x,-y,1/2+z
1/2+x,1/2+y,z
1/2-x,1/2+y,1/2-z
1/2-x,1/2-y,-z
1/2+x,1/2-y,1/2+z
loop_
_atom_site_type_symbol
_atom_site_label
_atom_site_fract_x
_atom_site_fract_y
_atom_site_fract_z
Si Si1 0.239824 0.013640 0.358866
Si Si2 0.973986 0.909230 0.305679
Si Si3 0.591571 0.224358 0.835174
Si Si4 0.333811 0.642042 0.369353
Si Si5 0.706438 0.042606 0.249185
Si Si6 0.305646 0.748680 0.945048
Si Si7 0.452276 0.971841 0.890038
O O1 0.248316 0.741533 0.366207
O O2 0.306059 0.056546 0.306519
O O3 0.159279 0.118869 0.349524
O O4 0.260867 0.129452 0.406572
O O5 0.882794 0.007812 0.320816
O O6 0.973432 0.728661 0.349151
O O7 0.000000 0.815446 0.250000
O O8 0.036061 0.112470 0.310307
O O9 0.633556 0.031858 0.795011
O O10 0.534904 0.107540 0.884373
O O11 0.323423 0.498600 0.419578
O O12 0.393363 0.847794 0.373318
O O13 0.760473 0.801375 0.243982
O O14 0.393285 0.865822 0.939375
O O15 0.250000 0.750000 0.000000
#
# Coordination Sequence:
#
# PCOD9270469 Si02
#       7
#     8   8   8   8   8   8   8
#     4  10  22  37  60  92 125 167 210 273 325 391
#     4  10  20  35  59  85 123 169 210 252 309 393
#     4  10  22  37  59  90 131 170 209 263 323 394
#     4   9  20  38  59  84 119 157 212 259 322 384
#     4  10  23  37  57  92 136 178 212 253 324 397
#     4  10  22  42  67  89 116 163 222 283 344 402
#     4   9  21  37  57  87 119 160 208 260 327 392
#
# _framework density 20.911725000000001
#
# number of rings (size 3 to 8) (size 9 to 14) (size 15 to 20)
#    0.000    2.286    0.000    0.857    8.000    8.000 
#    7.714    0.714    0.000    8.571    0.000    0.000 
#    0.000    0.000    0.000    0.000    0.000    0.000 
#
# Total GULP energy -155969.327263 kJ/mol
# GULP energy per Si atom -5570.333117 kJ/mol
# Density = 2.086413 g / cm^3
# Si number density = 20.911725 Si / 1000 Ang^3
#
#
#
# Elastic Constant Matrix: (Units=GPa)
#
#
# Indices 1 2 3 4 5 6 
#
# 1 91.7733 43.9598 43.6152 0.0009 -23.4128 -0.0002
# 2 43.9598 79.8506 29.0668 -0.0001 -18.9179 -0.0001
# 3 43.6152 29.0668 126.2298 0.0009 -29.4025 -0.0006
# 4 0.0009 -0.0001 0.0009 10.2427 -0.0005 -0.0567
# 5 -23.4128 -18.9179 -29.4025 -0.0005 33.4772 0.0002
# 6 -0.0002 -0.0001 -0.0006 -0.0567 0.0002 38.9636
#
#
#
# Elastic Compliance Matrix: (Units=1/GPa)
#
#
# Indices 1 2 3 4 5 6 
#
# 1 0.017059 -0.007032 -0.003045 -0.000001 0.005283 0.000000
# 2 -0.007032 0.017688 -0.000579 0.000001 0.004569 0.000000
# 3 -0.003045 -0.000579 0.010730 0.000000 0.006968 0.000000
# 4 -0.000001 0.000001 0.000000 0.097631 0.000001 0.000142
# 5 0.005283 0.004569 0.006968 0.000001 0.042267 0.000000
# 6 0.000000 0.000000 0.000000 0.000142 0.000000 0.025665
#
#
# Mechanical properties :
#
#
# Convention : Reuss Voigt Hill
#
# Bulk Modulus (GPa) = 41.37921 59.01526 50.19724
# Shear Modulus (GPa) = 20.79802 28.61750 24.70776
#
# Velocity S-wave (km/s) = 3.15709 3.70333 3.44106
# Velocity P-wave (km/s) = 5.75501 6.82412 6.31224
#
# Compressibility (1/GPa) = 0.02416672
#
# Stress axis : x y z
#
# Youngs Moduli (GPa) = 58.61880 56.53622 93.19331
#
# Poissons Ratio (x) = 0.39754 0.28374
# Poissons Ratio (y) = 0.41219 0.05397
# Poissons Ratio (z) = 0.17847 0.03274
#
# Static dielectric constant tensor:
#      x y z
#    x 1.823560 0.000000 -0.021730 
#    y 0.000000 1.904190 0.000000 
#    z -0.021730 0.000000 1.711990 
# 
# From -- ./inp_files/297738.got.cif
#   From: 2010.05.17/outbox.cif.g08.bks.cpg/sg15_149_cif.got.tgz:297738.got - 2010.06.03 18:47:42.
