data_PCOD9270599
_publ_section_title
;
Structure prediction by ZEFSAII (Michael W. Deem and Ramdas Pophale) SiO2 
 PCOD9270599
Probable space group: C 2/C
;
_chemical_formula_sum "Si O2"
_cell_formula_units_Z 52
_cell_length_a 28.547227
_cell_length_b 9.674153
_cell_length_c 13.985751
_cell_angle_alpha 90.000000
_cell_angle_beta 144.314131
_cell_angle_gamma 90.000000
_cell_volume 2253.124058
_symmetry_space_group_name_H-M "C 2/C"
_symmetry_group_IT_number 15
_symmetry_cell_setting 'monoclinic'
loop_
_space_group_symop_operation_xyz
x,y,z
-x,y,1/2-z
-x,-y,-z
x,-y,1/2+z
1/2+x,1/2+y,z
1/2-x,1/2+y,1/2-z
1/2-x,1/2-y,-z
1/2+x,1/2-y,1/2+z
loop_
_atom_site_type_symbol
_atom_site_label
_atom_site_fract_x
_atom_site_fract_y
_atom_site_fract_z
Si Si1 0.965899 0.473211 0.339262
Si Si2 0.284559 0.250729 0.209869
Si Si3 0.745853 0.043670 0.795627
Si Si4 0.167330 0.722497 0.807161
Si Si5 0.000000 0.260727 0.250000
Si Si6 0.889230 0.950522 0.675409
Si Si7 0.616109 0.754403 0.819166
O O1 0.882244 0.392027 0.216567
O O2 0.943955 0.620906 0.259367
O O3 0.000000 0.500000 0.500000
O O4 0.020158 0.368623 0.368061
O O5 0.294202 0.386324 0.290323
O O6 0.347842 0.236700 0.228854
O O7 0.286826 0.109521 0.275603
O O8 0.195334 0.267137 0.016461
O O9 0.681970 0.157402 0.727435
O O10 0.803019 0.025624 0.982765
O O11 0.120910 0.867901 0.741787
O O12 0.250000 0.750000 0.000000
O O13 0.066009 0.156960 0.318727
O O14 0.923969 0.103555 0.739277
#
# Coordination Sequence:
#
# PCOD9270599 Si02
#       7
#     8   8   8   8   4   8   8
#     4  11  24  42  67  96 130 178 217 269 326 397
#     4  10  22  35  62  95 129 160 205 268 324 379
#     4  10  20  35  60  96 121 163 214 261 316 386
#     4   9  19  38  60  90 128 163 211 263 323 376
#     4  10  24  44  64  90 128 176 224 262 320 402
#     4   9  21  39  63  87 122 168 210 267 323 374
#     4  10  22  42  60  91 133 166 207 269 331 370
#
# _framework density 23.079066999999998
#
# number of rings (size 3 to 8) (size 9 to 14) (size 15 to 20)
#    0.000    2.154    1.538    0.000    6.462    4.308 
#    0.000    4.615    0.000    0.000    0.000    0.000 
#    0.000    0.000    0.000    0.000    0.000    0.000 
#
# Total GULP energy -145094.688386 kJ/mol
# GULP energy per Si atom -5580.564938 kJ/mol
# Density = 2.302654 g / cm^3
# Si number density = 23.079067 Si / 1000 Ang^3
#
#
#
# Elastic Constant Matrix: (Units=GPa)
#
#
# Indices 1 2 3 4 5 6 
#
# 1 48.2221 32.0695 2.6953 0.0000 3.4368 0.0000
# 2 32.0695 180.3799 32.0646 0.0000 5.0450 0.0000
# 3 2.6953 32.0646 36.6932 0.0000 1.5584 0.0000
# 4 0.0000 0.0000 0.0000 10.6122 0.0000 -2.8961
# 5 3.4368 5.0450 1.5584 0.0000 16.6741 0.0000
# 6 0.0000 0.0000 0.0000 -2.8961 0.0000 35.7351
#
#
#
# Elastic Compliance Matrix: (Units=1/GPa)
#
#
# Indices 1 2 3 4 5 6 
#
# 1 0.023913 -0.004573 0.002399 0.000000 -0.003770 0.000000
# 2 -0.004573 0.007473 -0.006163 0.000000 -0.000743 0.000000
# 3 0.002399 -0.006163 0.032533 0.000000 -0.001670 0.000000
# 4 0.000000 0.000000 0.000000 0.096362 0.000000 0.007810
# 5 -0.003770 -0.000743 -0.001670 0.000000 0.061131 0.000000
# 6 0.000000 0.000000 0.000000 0.007810 0.000000 0.028617
#
#
# Mechanical properties :
#
#
# Convention : Reuss Voigt Hill
#
# Bulk Modulus (GPa) = 21.16546 44.32824 32.74685
# Shear Modulus (GPa) = 17.70220 25.83533 21.76877
#
# Velocity S-wave (km/s) = 2.77252 3.34941 3.07453
# Velocity P-wave (km/s) = 4.40908 5.84867 5.17913
#
# Compressibility (1/GPa) = 0.04724679
#
# Stress axis : x y z
#
# Youngs Moduli (GPa) = 41.81854 133.81295 30.73769
#
# Poissons Ratio (x) = 0.61186 -0.07375
# Poissons Ratio (y) = 0.19122 0.18944
# Poissons Ratio (z) = -0.10033 0.82469
#
# Static dielectric constant tensor:
#      x y z
#    x 1.860780 0.000000 0.014980 
#    y 0.000000 1.900550 0.000000 
#    z 0.014980 0.000000 1.866540 
# 
# From -- ./inp_files/181242.got.cif
#   From: 2010.05.17/outbox.cif.g08.bks.cpg/sg15_91_cif.got.tgz:181242.got - 2010.06.03 18:47:42.
