data_PCOD9270748
_publ_section_title
;
Structure prediction by ZEFSAII (Michael W. Deem and Ramdas Pophale) SiO2 
 PCOD9270748
Probable space group: C 2/C
;
_chemical_formula_sum "Si O2"
_cell_formula_units_Z 52
_cell_length_a 7.779141
_cell_length_b 22.615343
_cell_length_c 15.772314
_cell_angle_alpha 90.000000
_cell_angle_beta 93.859506
_cell_angle_gamma 90.000000
_cell_volume 2768.497793
_symmetry_space_group_name_H-M "C 2/C"
_symmetry_group_IT_number 15
_symmetry_cell_setting 'monoclinic'
loop_
_space_group_symop_operation_xyz
x,y,z
-x,y,1/2-z
-x,-y,-z
x,-y,1/2+z
1/2+x,1/2+y,z
1/2-x,1/2+y,1/2-z
1/2-x,1/2-y,-z
1/2+x,1/2-y,1/2+z
loop_
_atom_site_type_symbol
_atom_site_label
_atom_site_fract_x
_atom_site_fract_y
_atom_site_fract_z
Si Si1 0.500000 0.825836 0.750000
Si Si2 0.000000 0.187712 0.250000
Si Si3 0.000000 0.009230 0.750000
Si Si4 0.927557 0.566832 0.496202
Si Si5 0.737437 0.649634 0.975372
Si Si6 0.268232 0.594474 0.183204
Si Si7 0.558869 0.555083 0.563218
Si Si8 0.728988 0.762950 0.866136
O O1 0.343163 0.870641 0.752056
O O2 0.539142 0.783225 0.829471
O O3 0.921947 0.142060 0.177275
O O4 0.858128 0.227250 0.291816
O O5 0.963023 0.041935 0.837238
O O6 0.842110 0.965750 0.722117
O O7 0.847545 0.582730 0.401896
O O8 0.758832 0.569305 0.550626
O O9 0.000000 0.500000 0.500000
O O10 0.087282 0.610693 0.519291
O O11 0.573113 0.607083 0.964518
O O12 0.737166 0.696599 0.899040
O O13 0.726846 0.691124 0.057832
O O14 0.500000 0.500000 0.500000
#
# Coordination Sequence:
#
# PCOD9270748 Si02
#       8
#     4   4   4   8   8   8   8   8
#     4  10  20  35  66  92 124 165 218 274 316 388
#     4   9  20  38  64  92 124 164 217 280 320 380
#     4  11  24  41  62  94 130 179 213 274 330 388
#     4  12  23  40  67  96 130 173 215 267 330 392
#     4  11  24  45  64  97 133 173 216 268 330 403
#     4  10  20  35  63  94 120 165 222 268 317 381
#     4  12  25  44  66  95 138 176 216 271 332 391
#     4  10  22  42  66  93 129 168 219 275 328 384
#
# _framework density 18.782748999999999
#
# number of rings (size 3 to 8) (size 9 to 14) (size 15 to 20)
#    0.000    1.231    4.615    0.923    6.462    0.615 
#    8.308    2.308    0.000    0.000    0.000    0.000 
#    0.000    0.000    0.000    0.000    0.000    0.000 
#
# Total GULP energy -144933.918035 kJ/mol
# GULP energy per Si atom -5574.381463 kJ/mol
# Density = 1.874000 g / cm^3
# Si number density = 18.782749 Si / 1000 Ang^3
#
#
#
# Elastic Constant Matrix: (Units=GPa)
#
#
# Indices 1 2 3 4 5 6 
#
# 1 113.7917 56.8881 20.4056 0.0000 3.2624 0.0000
# 2 56.8881 127.3230 38.8071 0.0000 6.5068 0.0000
# 3 20.4056 38.8071 76.0080 0.0000 2.0215 0.0000
# 4 0.0000 0.0000 0.0000 26.3654 0.0000 5.4443
# 5 3.2624 6.5068 2.0215 0.0000 27.6277 0.0000
# 6 0.0000 0.0000 0.0000 5.4443 0.0000 21.2288
#
#
#
# Elastic Compliance Matrix: (Units=1/GPa)
#
#
# Indices 1 2 3 4 5 6 
#
# 1 0.011335 -0.004892 -0.000541 0.000000 -0.000147 0.000000
# 2 -0.004892 0.011508 -0.004514 0.000000 -0.001802 0.000000
# 3 -0.000541 -0.004514 0.015607 0.000000 -0.000015 0.000000
# 4 0.000000 0.000000 0.000000 0.040049 0.000000 -0.010271
# 5 -0.000147 -0.001802 -0.000015 0.000000 0.036638 0.000000
# 6 0.000000 0.000000 0.000000 -0.010271 0.000000 0.049740
#
#
# Mechanical properties :
#
#
# Convention : Reuss Voigt Hill
#
# Bulk Modulus (GPa) = 53.89531 61.03605 57.46568
# Shear Modulus (GPa) = 26.18382 28.44585 27.31484
#
# Velocity S-wave (km/s) = 3.73773 3.89584 3.81760
# Velocity P-wave (km/s) = 6.88359 7.26657 7.07767
#
# Compressibility (1/GPa) = 0.01855449
#
# Stress axis : x y z
#
# Youngs Moduli (GPa) = 88.22291 86.89779 64.07348
#
# Poissons Ratio (x) = 0.42510 0.03470
# Poissons Ratio (y) = 0.43158 0.28924
# Poissons Ratio (z) = 0.04777 0.39228
#
# Static dielectric constant tensor:
#      x y z
#    x 1.753160 0.000000 0.017760 
#    y 0.000000 1.630880 0.000000 
#    z 0.017760 0.000000 1.675910 
# 
# From -- ./inp_files/136153.got.cif
#   From: 2010.05.17/outbox.cif.g08.bks.cpg/sg15_69_cif.got.tgz:136153.got - 2010.06.03 18:47:42.
