data_PCOD9270573
_publ_section_title
;
Structure prediction by ZEFSAII (Michael W. Deem and Ramdas Pophale) SiO2 
 PCOD9270573
Probable space group: C 2/C
;
_chemical_formula_sum "Si O2"
_cell_formula_units_Z 60
_cell_length_a 19.305865
_cell_length_b 17.377210
_cell_length_c 8.745612
_cell_angle_alpha 90.000000
_cell_angle_beta 83.928718
_cell_angle_gamma 90.000000
_cell_volume 2917.539475
_symmetry_space_group_name_H-M "C 2/C"
_symmetry_group_IT_number 15
_symmetry_cell_setting 'monoclinic'
loop_
_space_group_symop_operation_xyz
x,y,z
-x,y,1/2-z
-x,-y,-z
x,-y,1/2+z
1/2+x,1/2+y,z
1/2-x,1/2+y,1/2-z
1/2-x,1/2-y,-z
1/2+x,1/2-y,1/2+z
loop_
_atom_site_type_symbol
_atom_site_label
_atom_site_fract_x
_atom_site_fract_y
_atom_site_fract_z
Si Si1 0.326829 0.232338 0.047301
Si Si2 0.224971 0.415169 0.303923
Si Si3 0.524778 0.725353 0.089562
Si Si4 0.607349 0.813269 0.438930
Si Si5 0.180199 0.440981 0.009425
Si Si6 0.352557 0.325773 0.353046
Si Si7 0.553138 0.037497 0.107101
Si Si8 0.500000 0.657281 0.750000
O O1 0.335354 0.275220 0.206788
O O2 0.250000 0.250000 0.000000
O O3 0.392744 0.258419 0.927511
O O4 0.334044 0.140530 0.064081
O O5 0.166138 0.348642 0.317001
O O6 0.240081 0.430368 0.122677
O O7 0.198915 0.493637 0.385058
O O8 0.288129 0.382054 0.387499
O O9 0.500000 0.679186 0.250000
O O10 0.468435 0.794577 0.111049
O O11 0.513062 0.698156 0.914181
O O12 0.634800 0.736218 0.515632
O O13 0.592777 0.884495 0.554988
O O14 0.112361 0.473020 0.115630
O O15 0.422987 0.374366 0.302726
O O16 0.500000 0.058378 0.250000
O O17 0.500000 0.000000 0.000000
#
# Coordination Sequence:
#
# PCOD9270573 Si02
#       8
#     8   8   8   8   8   8   8   4
#     4  11  22  38  62  90 124 167 211 263 319 373
#     4  11  23  41  58  88 121 163 207 257 321 383
#     4  10  20  35  60  90 128 161 204 259 312 382
#     4  10  22  35  61  89 120 164 212 250 304 378
#     4  11  24  38  56  85 123 163 208 248 315 388
#     4  10  21  39  64  89 120 159 211 266 316 374
#     4  11  23  35  55  83 128 166 196 238 302 388
#     4   8  20  38  60  92 118 154 200 270 330 368
#
# _framework density 20.565275
#
# number of rings (size 3 to 8) (size 9 to 14) (size 15 to 20)
#    0.000    1.600    1.333    3.600   11.200    1.067 
#    0.000    0.000    0.000    0.800    1.733    0.000 
#    0.000    0.000    0.000    0.000    0.000    0.000 
#
# Total GULP energy -167022.414392 kJ/mol
# GULP energy per Si atom -5567.413813 kJ/mol
# Density = 2.051847 g / cm^3
# Si number density = 20.565275 Si / 1000 Ang^3
#
#
#
# Elastic Constant Matrix: (Units=GPa)
#
#
# Indices 1 2 3 4 5 6 
#
# 1 112.6323 14.1188 11.6955 0.0000 6.9881 0.0000
# 2 14.1188 33.7972 4.6746 0.0000 -1.7988 0.0000
# 3 11.6955 4.6746 74.9555 0.0000 4.8562 0.0000
# 4 0.0000 0.0000 0.0000 14.6612 0.0000 6.7474
# 5 6.9881 -1.7988 4.8562 0.0000 29.5284 0.0000
# 6 0.0000 0.0000 0.0000 6.7474 0.0000 16.0171
#
#
#
# Elastic Compliance Matrix: (Units=1/GPa)
#
#
# Indices 1 2 3 4 5 6 
#
# 1 0.009640 -0.003999 -0.001103 0.000000 -0.002344 0.000000
# 2 -0.003999 0.031640 -0.001552 0.000000 0.003129 0.000000
# 3 -0.001103 -0.001552 0.013746 0.000000 -0.002094 0.000000
# 4 0.000000 0.000000 0.000000 0.084611 0.000000 -0.035643
# 5 -0.002344 0.003129 -0.002094 0.000000 0.034955 0.000000
# 6 0.000000 0.000000 0.000000 -0.035643 0.000000 0.077448
#
#
# Mechanical properties :
#
#
# Convention : Reuss Voigt Hill
#
# Bulk Modulus (GPa) = 23.97071 31.37363 27.67217
# Shear Modulus (GPa) = 17.90486 24.76775 21.33631
#
# Velocity S-wave (km/s) = 2.95385 3.47414 3.22451
# Velocity P-wave (km/s) = 4.82855 5.60193 5.22955
#
# Compressibility (1/GPa) = 0.04171758
#
# Stress axis : x y z
#
# Youngs Moduli (GPa) = 103.73796 31.60547 72.74950
#
# Poissons Ratio (x) = 0.12640 0.08023
# Poissons Ratio (y) = 0.41486 0.11291
# Poissons Ratio (z) = 0.11441 0.04905
#
# Static dielectric constant tensor:
#      x y z
#    x 1.808570 0.000000 0.022960 
#    y 0.000000 1.670670 0.000000 
#    z 0.022960 0.000000 1.815530 
# 
# From -- ./inp_files/49106.got.cif
#   From: 2010.05.17/outbox.cif.g08.bks.cpg/sg15_25_cif.got.tgz:49106.got - 2010.06.03 18:47:42.
