data_PCOD9270001
_publ_section_title
;
Structure prediction by ZEFSAII (Michael W. Deem and Ramdas Pophale) SiO2 
 PCOD9270001
Probable space group: C 2/C
;
_chemical_formula_sum "Si O2"
_cell_formula_units_Z 56
_cell_length_a 32.696145
_cell_length_b 5.246894
_cell_length_c 18.925634
_cell_angle_alpha 90.000000
_cell_angle_beta 123.908817
_cell_angle_gamma 90.000000
_cell_volume 2694.566352
_symmetry_space_group_name_H-M "C 2/C"
_symmetry_group_IT_number 15
_symmetry_cell_setting 'monoclinic'
loop_
_space_group_symop_operation_xyz
x,y,z
-x,y,1/2-z
-x,-y,-z
x,-y,1/2+z
1/2+x,1/2+y,z
1/2-x,1/2+y,1/2-z
1/2-x,1/2-y,-z
1/2+x,1/2-y,1/2+z
loop_
_atom_site_type_symbol
_atom_site_label
_atom_site_fract_x
_atom_site_fract_y
_atom_site_fract_z
Si Si1 0.457768 0.243913 0.913717
Si Si2 0.393890 0.724886 0.849137
Si Si3 0.537270 0.088996 0.430526
Si Si4 0.548483 0.561353 0.823795
Si Si5 0.620855 0.740970 0.502078
Si Si6 0.143123 0.250213 0.834586
Si Si7 0.308497 0.744110 0.051234
O O1 0.428915 0.489560 0.861928
O O2 0.506201 0.162405 0.918587
O O3 0.423560 0.991182 0.877620
O O4 0.470611 0.266585 0.008973
O O5 0.355102 0.750549 0.748686
O O6 0.376919 0.665923 0.913244
O O7 0.594600 0.017105 0.479117
O O8 0.522477 0.220061 0.344951
O O9 0.500000 0.409973 0.750000
O O10 0.584079 0.414268 0.913933
O O11 0.586946 0.688452 0.806048
O O12 0.672224 0.741900 0.511002
O O13 0.163881 0.514819 0.885804
O O14 0.173779 0.014934 0.894729
O O15 0.250000 0.750000 0.000000
#
# Coordination Sequence:
#
# PCOD9270001 Si02
#       7
#     8   8   8   8   8   8   8
#     4  10  22  33  60  85 125 175 204 251 301 373
#     4  11  22  41  62  92 133 164 211 264 317 368
#     4  10  20  35  53  83 125 165 225 246 304 366
#     4  11  22  36  57  89 132 178 218 259 308 380
#     4  10  23  40  63  89 126 169 218 259 318 383
#     4  11  24  42  64  98 127 162 213 269 322 383
#     4  11  24  47  70  92 123 166 212 270 333 388
#
# _framework density 20.782563
#
# number of rings (size 3 to 8) (size 9 to 14) (size 15 to 20)
#    0.000    1.429    2.857    2.143    4.000    2.286 
#    0.000    1.429    0.000    0.000    0.000    0.000 
#    0.000    0.000    0.000    0.000    0.000    0.000 
#
# Total GULP energy -156356.658057 kJ/mol
# GULP energy per Si atom -5584.166359 kJ/mol
# Density = 2.073526 g / cm^3
# Si number density = 20.782563 Si / 1000 Ang^3
#
#
#
# Elastic Constant Matrix: (Units=GPa)
#
#
# Indices 1 2 3 4 5 6 
#
# 1 128.1350 -1.6660 31.4809 -0.0002 -4.1504 -0.0003
# 2 -1.6660 71.2532 -4.9815 0.0034 -8.5154 0.0042
# 3 31.4809 -4.9815 58.4084 -0.0007 -28.4739 0.0000
# 4 -0.0002 0.0034 -0.0007 20.4281 -0.0003 -3.1362
# 5 -4.1504 -8.5154 -28.4739 -0.0003 31.5067 0.0001
# 6 -0.0003 0.0042 0.0000 -3.1362 0.0001 22.1406
#
#
#
# Elastic Compliance Matrix: (Units=1/GPa)
#
#
# Indices 1 2 3 4 5 6 
#
# 1 0.009703 -0.001208 -0.008703 0.000000 -0.006913 0.000000
# 2 -0.001208 0.015767 0.007142 -0.000003 0.010557 -0.000004
# 3 -0.008703 0.007142 0.040761 0.000000 0.037621 -0.000002
# 4 0.000000 -0.000003 0.000000 0.050040 0.000000 0.007088
# 5 -0.006913 0.010557 0.037621 0.000000 0.067681 -0.000003
# 6 0.000000 -0.000004 -0.000002 0.007088 -0.000003 0.046170
#
#
# Mechanical properties :
#
#
# Convention : Reuss Voigt Hill
#
# Bulk Modulus (GPa) = 16.47610 34.16261 25.31936
# Shear Modulus (GPa) = 19.53959 30.34596 24.94278
#
# Velocity S-wave (km/s) = 3.06958 3.82536 3.46812
# Velocity P-wave (km/s) = 4.52859 5.99874 5.31475
#
# Compressibility (1/GPa) = 0.06069396
#
# Stress axis : x y z
#
# Youngs Moduli (GPa) = 103.06302 63.42276 24.53340
#
# Poissons Ratio (x) = 0.07660 0.21351
# Poissons Ratio (y) = 0.12448 -0.17522
# Poissons Ratio (z) = 0.89694 -0.45298
#
# Static dielectric constant tensor:
#      x y z
#    x 1.748930 0.000000 -0.009880 
#    y 0.000000 1.780100 0.000000 
#    z -0.009880 0.000000 1.820760 
# 
# From -- ./inp_files/223952.got.cif
#   From: 2010.05.17/outbox.cif.g08.bks.cpg/sg15_112_cif.got.tgz:223952.got - 2010.06.03 18:47:42.
