data_PCOD9270881
_publ_section_title
;
Structure prediction by ZEFSAII (Michael W. Deem and Ramdas Pophale) SiO2 
 PCOD9270881
Probable space group: C 2/C
;
_chemical_formula_sum "Si O2"
_cell_formula_units_Z 36
_cell_length_a 12.699878
_cell_length_b 26.796559
_cell_length_c 5.158838
_cell_angle_alpha 90.000000
_cell_angle_beta 92.784746
_cell_angle_gamma 90.000000
_cell_volume 1753.546593
_symmetry_space_group_name_H-M "C 2/C"
_symmetry_group_IT_number 15
_symmetry_cell_setting 'monoclinic'
loop_
_space_group_symop_operation_xyz
x,y,z
-x,y,1/2-z
-x,-y,-z
x,-y,1/2+z
1/2+x,1/2+y,z
1/2-x,1/2+y,1/2-z
1/2-x,1/2-y,-z
1/2+x,1/2-y,1/2+z
loop_
_atom_site_type_symbol
_atom_site_label
_atom_site_fract_x
_atom_site_fract_y
_atom_site_fract_z
Si Si1 0.119218 0.466261 0.299981
Si Si2 0.919779 0.247894 0.428747
Si Si3 0.734200 0.372335 0.255561
Si Si4 0.500000 0.656682 0.750000
Si Si5 0.280920 0.192406 0.266873
O O1 0.128810 0.490565 0.584500
O O2 0.206706 0.424497 0.265172
O O3 0.000000 0.445441 0.250000
O O4 0.972362 0.195740 0.519606
O O5 0.814357 0.232173 0.262461
O O6 0.882636 0.277839 0.677298
O O7 0.000000 0.275559 0.250000
O O8 0.606976 0.373557 0.209808
O O9 0.758650 0.347873 0.536612
O O10 0.778383 0.335860 0.036941
#
# Coordination Sequence:
#
# PCOD9270881 Si02
#       5
#     8   8   8   4   8
#     4  10  22  43  68  89 118 153 193 256 321 371
#     4  10  20  36  54  82 122 173 206 242 296 346
#     4  11  22  41  60  94 118 159 209 251 301 374
#     4  10  22  36  62  82 130 168 194 248 302 356
#     4  10  23  35  58  84 123 161 212 247 286 351
#
# _framework density 20.529820999999998
#
# number of rings (size 3 to 8) (size 9 to 14) (size 15 to 20)
#    0.000    1.778    2.222    1.333    3.111    3.556 
#    0.000    1.111    0.000    0.000    0.000    0.000 
#    0.000    0.000    0.000    0.000    0.000    0.000 
#
# Total GULP energy -100642.765709 kJ/mol
# GULP energy per Si atom -5591.264762 kJ/mol
# Density = 2.048309 g / cm^3
# Si number density = 20.529821 Si / 1000 Ang^3
#
#
#
# Elastic Constant Matrix: (Units=GPa)
#
#
# Indices 1 2 3 4 5 6 
#
# 1 162.6299 54.2449 9.4896 0.0000 -20.8314 0.0000
# 2 54.2449 52.0429 -5.1654 0.0000 -3.4242 0.0000
# 3 9.4896 -5.1654 67.5894 0.0000 -11.7649 0.0000
# 4 0.0000 0.0000 0.0000 20.8252 0.0000 -9.9867
# 5 -20.8314 -3.4242 -11.7649 0.0000 33.8864 0.0000
# 6 0.0000 0.0000 0.0000 -9.9867 0.0000 45.2623
#
#
#
# Elastic Compliance Matrix: (Units=1/GPa)
#
#
# Indices 1 2 3 4 5 6 
#
# 1 0.010412 -0.010678 -0.001439 0.000000 0.004822 0.000000
# 2 -0.010678 0.030536 0.003435 0.000000 -0.002286 0.000000
# 3 -0.001439 0.003435 0.016142 0.000000 0.005067 0.000000
# 4 0.000000 0.000000 0.000000 0.053701 0.000000 0.011848
# 5 0.004822 -0.002286 0.005067 0.000000 0.034003 0.000000
# 6 0.000000 0.000000 0.000000 0.011848 0.000000 0.024708
#
#
# Mechanical properties :
#
#
# Convention : Reuss Voigt Hill
#
# Bulk Modulus (GPa) = 25.17268 44.37781 34.77524
# Shear Modulus (GPa) = 24.98663 34.90766 29.94714
#
# Velocity S-wave (km/s) = 3.49247 4.12799 3.82346
# Velocity P-wave (km/s) = 5.34333 6.66210 6.03883
#
# Compressibility (1/GPa) = 0.03972560
#
# Stress axis : x y z
#
# Youngs Moduli (GPa) = 96.03988 32.74861 61.95142
#
# Poissons Ratio (x) = 0.34970 0.08912
# Poissons Ratio (y) = 1.02555 -0.21280
# Poissons Ratio (z) = 0.13816 -0.11249
#
# Static dielectric constant tensor:
#      x y z
#    x 1.779790 0.000000 0.018210 
#    y 0.000000 1.686830 0.000000 
#    z 0.018210 0.000000 1.762700 
# 
# From -- ./inp_files/4258.got.cif
#   From: 2010.05.17/outbox.cif.g08.bks.cpg/sg15_3_cif.got.tgz:4258.got - 2010.06.03 18:47:42.
