data_PCOD9270227
_publ_section_title
;
Structure prediction by ZEFSAII (Michael W. Deem and Ramdas Pophale) SiO2 
 PCOD9270227
Probable space group: C 2/C
;
_chemical_formula_sum "Si O2"
_cell_formula_units_Z 48
_cell_length_a 26.079997
_cell_length_b 15.438059
_cell_length_c 8.706379
_cell_angle_alpha 90.000000
_cell_angle_beta 131.887311
_cell_angle_gamma 90.000000
_cell_volume 2609.629404
_symmetry_space_group_name_H-M "C 2/C"
_symmetry_group_IT_number 15
_symmetry_cell_setting 'monoclinic'
loop_
_space_group_symop_operation_xyz
x,y,z
-x,y,1/2-z
-x,-y,-z
x,-y,1/2+z
1/2+x,1/2+y,z
1/2-x,1/2+y,1/2-z
1/2-x,1/2-y,-z
1/2+x,1/2-y,1/2+z
loop_
_atom_site_type_symbol
_atom_site_label
_atom_site_fract_x
_atom_site_fract_y
_atom_site_fract_z
Si Si1 0.169997 0.243229 0.525066
Si Si2 0.425563 0.595588 0.667946
Si Si3 0.925563 0.095588 0.034306
Si Si4 0.075685 0.406272 0.335373
Si Si5 0.330003 0.743229 0.345076
Si Si6 0.575685 0.906272 0.967367
O O1 0.131720 0.163222 0.527130
O O2 0.129154 0.331074 0.483205
O O3 0.250000 0.250000 0.727685
O O4 0.165890 0.232226 0.331780
O O5 0.500000 0.623173 0.750000
O O6 0.411535 0.500000 0.573071
O O7 0.368280 0.663222 0.500251
O O8 0.429937 0.591131 0.859874
O O9 0.000000 0.123173 0.250000
O O10 0.071057 0.412024 0.142115
O O11 0.095862 0.500000 0.441724
O O12 0.000000 0.385620 0.250000
O O13 0.370846 0.831073 0.466590
O O14 0.500000 0.885620 0.750000
#
# Coordination Sequence:
#
# PCOD9270227 Si02
#       6
#     8   8   8   8   8   8
#     4  10  22  39  57  82 117 152 185 228 282 336
#     4  11  22  38  61  86 113 147 190 237 285 338
#     4  11  22  38  61  86 113 147 190 237 285 338
#     4  10  20  35  57  81 108 142 182 228 273 323
#     4  10  22  39  57  82 117 152 185 228 282 336
#     4  10  20  35  57  81 108 142 182 228 273 323
#
# _framework density 18.393418
#
# number of rings (size 3 to 8) (size 9 to 14) (size 15 to 20)
#    0.000    1.667    0.000    7.000    0.000    7.333 
#    0.000    3.333    0.000    0.000    0.000    0.000 
#    0.000    0.000    0.000    0.000    0.000    0.000 
#
# Total GULP energy -134155.868788 kJ/mol
# GULP energy per Si atom -5589.827866 kJ/mol
# Density = 1.835155 g / cm^3
# Si number density = 18.393418 Si / 1000 Ang^3
#
#
#
# Elastic Constant Matrix: (Units=GPa)
#
#
# Indices 1 2 3 4 5 6 
#
# 1 121.3210 92.3761 79.1189 0.0000 16.6571 0.0000
# 2 92.3761 121.3292 94.0236 0.0000 26.2339 0.0000
# 3 79.1189 94.0236 123.4275 0.0000 16.8867 0.0000
# 4 0.0000 0.0000 0.0000 8.3928 0.0000 -38.1736
# 5 16.6571 26.2339 16.8867 0.0000 25.2834 0.0000
# 6 0.0000 0.0000 0.0000 -38.1736 0.0000 10.7891
#
#
#
# Elastic Compliance Matrix: (Units=1/GPa)
#
#
# Indices 1 2 3 4 5 6 
#
# 1 0.020218 -0.013846 -0.002813 0.000000 0.002925 0.000000
# 2 -0.013846 0.033336 -0.014345 0.000000 -0.015886 0.000000
# 3 -0.002813 -0.014345 0.020407 0.000000 0.003107 0.000000
# 4 0.000000 0.000000 0.000000 -0.007894 0.000000 -0.027932
# 5 0.002925 -0.015886 0.003107 0.000000 0.052032 0.000000
# 6 0.000000 0.000000 0.000000 -0.027932 0.000000 -0.006141
#
#
# Mechanical properties :
#
#
# Convention : Reuss Voigt Hill
#
# Bulk Modulus (GPa) = 83.66000 99.67943 91.66971
# Shear Modulus (GPa) = 28.09791 15.59699 21.84745
#
# Velocity S-wave (km/s) = 3.91270 2.91514 3.45017
# Velocity P-wave (km/s) = 8.12371 8.10194 8.11283
#
# Compressibility (1/GPa) = 0.01195314
#
# Stress axis : x y z
#
# Youngs Moduli (GPa) = 49.46109 29.99802 49.00175
#
# Poissons Ratio (x) = 0.41536 0.13782
# Poissons Ratio (y) = 0.68485 0.70294
# Poissons Ratio (z) = 0.13911 0.43032
#
# Static dielectric constant tensor:
#      x y z
#    x 1.613410 0.000000 -0.004160 
#    y 0.000000 1.614390 0.000000 
#    z -0.004160 0.000000 1.613150 
# 
# From -- ./inp_files/57994.got.cif
#   From: 2010.05.17/outbox.cif.g08.bks.cpg/sg15_29_cif.got.tgz:57994.got - 2010.06.03 18:47:42.
