data_PCOD9270485
_publ_section_title
;
Structure prediction by ZEFSAII (Michael W. Deem and Ramdas Pophale) SiO2 
 PCOD9270485
Probable space group: C 2/C
;
_chemical_formula_sum "Si O2"
_cell_formula_units_Z 44
_cell_length_a 17.461094
_cell_length_b 13.766980
_cell_length_c 30.587471
_cell_angle_alpha 90.000000
_cell_angle_beta 161.775141
_cell_angle_gamma 90.000000
_cell_volume 2299.571571
_symmetry_space_group_name_H-M "C 2/C"
_symmetry_group_IT_number 15
_symmetry_cell_setting 'monoclinic'
loop_
_space_group_symop_operation_xyz
x,y,z
-x,y,1/2-z
-x,-y,-z
x,-y,1/2+z
1/2+x,1/2+y,z
1/2-x,1/2+y,1/2-z
1/2-x,1/2-y,-z
1/2+x,1/2-y,1/2+z
loop_
_atom_site_type_symbol
_atom_site_label
_atom_site_fract_x
_atom_site_fract_y
_atom_site_fract_z
Si Si1 0.487350 0.279637 0.836393
Si Si2 0.846208 0.985195 0.460480
Si Si3 0.619132 0.683890 0.704307
Si Si4 0.914051 0.373808 0.619656
Si Si5 0.782775 0.976105 0.757503
Si Si6 0.500000 0.188690 0.750000
O O1 0.288722 0.222323 0.757397
O O2 0.417023 0.392127 0.803327
O O3 0.454764 0.250537 0.768602
O O4 0.750000 0.250000 0.000000
O O5 0.716995 0.882561 0.382869
O O6 0.043648 0.987384 0.606133
O O7 0.641261 0.060682 0.367846
O O8 0.000000 0.000000 0.500000
O O9 0.349333 0.661518 0.539911
O O10 0.582602 0.776944 0.716585
O O11 0.729493 0.577787 0.775202
O O12 0.034045 0.437487 0.645461
#
# Coordination Sequence:
#
# PCOD9270485 Si02
#       6
#     8   8   8   8   8   4
#     4  11  22  39  60  89 120 160 206 251 304 365
#     4  11  20  32  56  90 122 153 195 251 309 358
#     4   9  19  34  59  86 118 164 197 241 310 362
#     4   9  18  34  53  89 125 156 197 245 300 372
#     4  10  20  35  59  87 119 162 200 247 303 367
#     4  12  22  36  58  84 124 152 202 256 302 356
#
# _framework density 19.133998999999999
#
# number of rings (size 3 to 8) (size 9 to 14) (size 15 to 20)
#    0.000    1.818    1.818    4.364    2.545    0.000 
#    0.000    0.000    0.000    6.545    0.000    0.000 
#    0.000    0.000    0.000    0.000    0.000    0.000 
#
# Total GULP energy -122527.023081 kJ/mol
# GULP energy per Si atom -5569.410140 kJ/mol
# Density = 1.909045 g / cm^3
# Si number density = 19.133999 Si / 1000 Ang^3
#
#
#
# Elastic Constant Matrix: (Units=GPa)
#
#
# Indices 1 2 3 4 5 6 
#
# 1 111.5599 68.2572 28.3245 0.0252 25.3614 0.0146
# 2 68.2572 154.2862 14.3380 0.0157 32.9186 -0.0004
# 3 28.3245 14.3380 69.7486 0.0286 25.1110 0.0089
# 4 0.0252 0.0157 0.0286 6.8283 0.0130 -6.4707
# 5 25.3614 32.9186 25.1110 0.0130 31.0420 0.0090
# 6 0.0146 -0.0004 0.0089 -6.4707 0.0090 24.5956
#
#
#
# Elastic Compliance Matrix: (Units=1/GPa)
#
#
# Indices 1 2 3 4 5 6 
#
# 1 0.013608 -0.005066 -0.003409 -0.000032 -0.002988 -0.000014
# 2 -0.005066 0.010483 0.003407 0.000005 -0.009733 0.000007
# 3 -0.003409 0.003407 0.021614 -0.000067 -0.018312 -0.000017
# 4 -0.000032 0.000005 -0.000067 0.195086 -0.000022 0.051324
# 5 -0.002988 -0.009733 -0.018312 -0.000022 0.059790 -0.000019
# 6 -0.000014 0.000007 -0.000017 0.051324 -0.000019 0.054160
#
#
# Mechanical properties :
#
#
# Convention : Reuss Voigt Hill
#
# Bulk Modulus (GPa) = 28.11525 61.93712 45.02618
# Shear Modulus (GPa) = 13.27195 27.47151 20.37173
#
# Velocity S-wave (km/s) = 2.63655 3.79323 3.26649
# Velocity P-wave (km/s) = 4.89839 7.18507 6.14896
#
# Compressibility (1/GPa) = 0.03556789
#
# Stress axis : x y z
#
# Youngs Moduli (GPa) = 73.48487 95.39381 46.26642
#
# Poissons Ratio (x) = 0.48327 0.15773
# Poissons Ratio (y) = 0.37228 -0.15761
# Poissons Ratio (z) = 0.25052 -0.32497
#
# Static dielectric constant tensor:
#      x y z
#    x 1.803190 0.000060 0.249600 
#    y 0.000060 1.795230 0.000060 
#    z 0.249600 0.000060 2.042300 
# 
# From -- ./inp_files/103882.got.cif
#   From: 2010.05.17/outbox.cif.g08.bks.cpg/sg15_52_cif.got.tgz:103882.got - 2010.06.03 18:47:42.
