data_PCOD9270119
_publ_section_title
;
Structure prediction by ZEFSAII (Michael W. Deem and Ramdas Pophale) SiO2 
 PCOD9270119
Probable space group: C 2/C
;
_chemical_formula_sum "Si O2"
_cell_formula_units_Z 60
_cell_length_a 24.905588
_cell_length_b 14.762408
_cell_length_c 8.610796
_cell_angle_alpha 90.000000
_cell_angle_beta 114.394129
_cell_angle_gamma 90.000000
_cell_volume 2883.268137
_symmetry_space_group_name_H-M "C 2/C"
_symmetry_group_IT_number 15
_symmetry_cell_setting 'monoclinic'
loop_
_space_group_symop_operation_xyz
x,y,z
-x,y,1/2-z
-x,-y,-z
x,-y,1/2+z
1/2+x,1/2+y,z
1/2-x,1/2+y,1/2-z
1/2-x,1/2-y,-z
1/2+x,1/2-y,1/2+z
loop_
_atom_site_type_symbol
_atom_site_label
_atom_site_fract_x
_atom_site_fract_y
_atom_site_fract_z
Si Si1 0.035570 0.084257 0.472656
Si Si2 0.232278 0.979637 0.965139
Si Si3 0.000000 0.529964 0.750000
Si Si4 0.207007 0.611027 0.671854
Si Si5 0.574748 0.694867 0.094391
Si Si6 0.206578 0.207390 0.317999
Si Si7 0.102793 0.946135 0.354390
Si Si8 0.571009 0.896235 0.056396
O O1 0.080627 0.100018 0.668762
O O2 0.986980 0.163095 0.403451
O O3 0.068726 0.039112 0.365433
O O4 0.000000 0.000000 0.500000
O O5 0.226071 0.897198 0.832540
O O6 0.276922 0.057174 0.963678
O O7 0.169471 0.025793 0.910635
O O8 0.250988 0.930898 0.145923
O O9 0.041053 0.588820 0.687245
O O10 0.959561 0.465367 0.596715
O O11 0.212547 0.720597 0.683837
O O12 0.140629 0.588279 0.642127
O O13 0.635483 0.706003 0.267529
O O14 0.562820 0.791696 0.002473
O O15 0.592174 0.622059 0.983699
O O16 0.250000 0.250000 0.500000
#
# Coordination Sequence:
#
# PCOD9270119 Si02
#       8
#     8   8   4   8   8   8   8   8
#     4  10  20  35  55  86 126 166 200 239 301 373
#     4  11  20  38  63  84 126 163 201 254 314 356
#     4  10  22  42  64  84 116 156 202 266 320 364
#     4  10  21  38  62  89 117 160 205 256 310 370
#     4  10  20  37  58  87 124 160 201 255 309 371
#     4   9  20  37  57  86 118 158 206 257 299 369
#     4  11  22  37  60  94 130 167 205 246 312 390
#     4  10  22  41  63  87 118 152 211 259 313 370
#
# _framework density 20.809718
#
# number of rings (size 3 to 8) (size 9 to 14) (size 15 to 20)
#    0.000    1.867    0.000    5.600    1.867    0.000 
#    9.600    7.333    2.933    0.000    0.000    0.000 
#    0.000    0.000    0.000    0.000    0.000    0.000 
#
# Total GULP energy -167291.303168 kJ/mol
# GULP energy per Si atom -5576.376772 kJ/mol
# Density = 2.076235 g / cm^3
# Si number density = 20.809718 Si / 1000 Ang^3
#
#
#
# Elastic Constant Matrix: (Units=GPa)
#
#
# Indices 1 2 3 4 5 6 
#
# 1 103.0975 40.6667 19.8937 0.0000 10.9413 0.0000
# 2 40.6667 98.1254 5.1553 0.0000 -1.2400 0.0000
# 3 19.8937 5.1553 69.0538 0.0000 9.9867 0.0000
# 4 0.0000 0.0000 0.0000 18.7814 0.0000 5.6740
# 5 10.9413 -1.2400 9.9867 0.0000 31.5400 0.0000
# 6 0.0000 0.0000 0.0000 5.6740 0.0000 38.3208
#
#
#
# Elastic Compliance Matrix: (Units=1/GPa)
#
#
# Indices 1 2 3 4 5 6 
#
# 1 0.012651 -0.005147 -0.002721 0.000000 -0.003729 0.000000
# 2 -0.005147 0.012339 0.000244 0.000000 0.002193 0.000000
# 3 -0.002721 0.000244 0.015834 0.000000 -0.004060 0.000000
# 4 0.000000 0.000000 0.000000 0.055737 0.000000 -0.008253
# 5 -0.003729 0.002193 -0.004060 0.000000 0.034371 0.000000
# 6 0.000000 0.000000 0.000000 -0.008253 0.000000 0.027317
#
#
# Mechanical properties :
#
#
# Convention : Reuss Voigt Hill
#
# Bulk Modulus (GPa) = 39.09782 44.63424 41.86603
# Shear Modulus (GPa) = 27.46910 31.36584 29.41747
#
# Velocity S-wave (km/s) = 3.63714 3.88657 3.76392
# Velocity P-wave (km/s) = 6.03883 6.45259 6.24913
#
# Compressibility (1/GPa) = 0.02557687
#
# Stress axis : x y z
#
# Youngs Moduli (GPa) = 79.04755 81.04361 63.15416
#
# Poissons Ratio (x) = 0.41714 0.17184
# Poissons Ratio (y) = 0.40686 -0.01544
# Poissons Ratio (z) = 0.21508 -0.01981
#
# Static dielectric constant tensor:
#      x y z
#    x 1.739000 0.000000 0.000500 
#    y 0.000000 1.760540 0.000000 
#    z 0.000500 0.000000 1.840490 
# 
# From -- ./inp_files/61969.got.cif
#   From: 2010.05.17/outbox.cif.g08.bks.cpg/sg15_31_cif.got.tgz:61969.got - 2010.06.03 18:47:42.
