data_PCOD9270534
_publ_section_title
;
Structure prediction by ZEFSAII (Michael W. Deem and Ramdas Pophale) SiO2 
 PCOD9270534
Probable space group: C 2/C
;
_chemical_formula_sum "Si O2"
_cell_formula_units_Z 56
_cell_length_a 9.550497
_cell_length_b 30.876327
_cell_length_c 19.612289
_cell_angle_alpha 90.000000
_cell_angle_beta 28.334893
_cell_angle_gamma 90.000000
_cell_volume 2744.921225
_symmetry_space_group_name_H-M "C 2/C"
_symmetry_group_IT_number 15
_symmetry_cell_setting 'monoclinic'
loop_
_space_group_symop_operation_xyz
x,y,z
-x,y,1/2-z
-x,-y,-z
x,-y,1/2+z
1/2+x,1/2+y,z
1/2-x,1/2+y,1/2-z
1/2-x,1/2-y,-z
1/2+x,1/2-y,1/2+z
loop_
_atom_site_type_symbol
_atom_site_label
_atom_site_fract_x
_atom_site_fract_y
_atom_site_fract_z
Si Si1 0.346931 0.037546 0.608548
Si Si2 0.171611 0.856950 0.046693
Si Si3 0.791555 0.334120 0.487232
Si Si4 0.306490 0.112316 0.110812
Si Si5 0.648669 0.292712 0.418178
Si Si6 0.793162 0.715187 0.604759
Si Si7 0.101044 0.415204 0.284001
O O1 0.456237 0.082624 0.529008
O O2 0.426715 0.043665 0.654076
O O3 0.000000 0.033036 0.750000
O O4 0.500000 0.000000 0.500000
O O5 0.191509 0.826844 0.105610
O O6 0.042760 0.825157 0.045081
O O7 0.934152 0.896013 0.148710
O O8 0.512837 0.873048 0.899695
O O9 0.707157 0.350395 0.599174
O O10 0.595197 0.307105 0.519600
O O11 0.058639 0.301978 0.390077
O O12 0.897804 0.376183 0.400095
O O13 0.000000 0.086984 0.250000
O O14 0.523191 0.244416 0.465157
O O15 0.000000 0.295865 0.250000
O O16 0.500000 0.740920 0.750000
O O17 0.000000 0.423256 0.250000
#
# Coordination Sequence:
#
# PCOD9270534 Si02
#       7
#     8   8   8   8   8   8   8
#     4  11  23  41  72 104 135 167 209 258 318 392
#     4  11  20  37  62  83 118 170 225 256 322 384
#     4  10  20  35  60  79 118 163 224 265 316 382
#     4  10  23  39  63  92 123 163 217 265 314 388
#     4  12  22  36  56  85 125 167 221 281 333 381
#     4  11  22  33  51  81 121 169 219 271 326 377
#     4  11  19  39  70  95 122 173 221 261 316 395
#
# _framework density 20.401313999999999
#
# number of rings (size 3 to 8) (size 9 to 14) (size 15 to 20)
#    0.000    1.143    5.714    1.286    0.000    3.429 
#    0.000    0.714    0.000    0.000    0.000    0.000 
#    0.000    0.000    0.000    0.000    0.000    0.000 
#
# Total GULP energy -156017.118795 kJ/mol
# GULP energy per Si atom -5572.039957 kJ/mol
# Density = 2.035488 g / cm^3
# Si number density = 20.401314 Si / 1000 Ang^3
#
#
#
# Elastic Constant Matrix: (Units=GPa)
#
#
# Indices 1 2 3 4 5 6 
#
# 1 162.4906 40.4554 35.7973 0.0000 -11.2653 -0.0001
# 2 40.4554 69.6185 24.3212 0.0000 0.3600 0.0000
# 3 35.7973 24.3212 81.7565 0.0013 -21.7543 0.0015
# 4 0.0000 0.0000 0.0013 17.7914 0.0000 -1.1299
# 5 -11.2653 0.3600 -21.7543 0.0000 25.1309 0.0000
# 6 -0.0001 0.0000 0.0015 -1.1299 0.0000 11.4764
#
#
#
# Elastic Compliance Matrix: (Units=1/GPa)
#
#
# Indices 1 2 3 4 5 6 
#
# 1 0.007620 -0.003865 -0.001641 0.000000 0.002051 0.000000
# 2 -0.003865 0.018636 -0.005695 0.000000 -0.006930 0.000001
# 3 -0.001641 -0.005695 0.018801 -0.000002 0.015620 -0.000003
# 4 0.000000 0.000000 -0.000002 0.056561 -0.000001 0.005568
# 5 0.002051 -0.006930 0.015620 -0.000001 0.054332 -0.000002
# 6 0.000000 0.000001 -0.000003 0.005568 -0.000002 0.087683
#
#
# Mechanical properties :
#
#
# Convention : Reuss Voigt Hill
#
# Bulk Modulus (GPa) = 44.14371 57.22371 50.68371
# Shear Modulus (GPa) = 18.27574 25.09919 21.68747
#
# Velocity S-wave (km/s) = 2.99626 3.51133 3.26397
# Velocity P-wave (km/s) = 5.80127 6.67452 6.25316
#
# Compressibility (1/GPa) = 0.02265328
#
# Stress axis : x y z
#
# Youngs Moduli (GPa) = 131.22870 53.66055 53.18994
#
# Poissons Ratio (x) = 0.20742 0.08728
# Poissons Ratio (y) = 0.50726 0.30293
# Poissons Ratio (z) = 0.21534 0.30561
#
# Static dielectric constant tensor:
#      x y z
#    x 1.732350 0.000000 -0.001550 
#    y 0.000000 1.757850 0.000000 
#    z -0.001550 0.000000 1.898170 
# 
# From -- ./inp_files/234913.got.cif
#   From: 2010.05.17/outbox.cif.g08.bks.cpg/sg15_118_cif.got.tgz:234913.got - 2010.06.03 18:47:42.
