data_PCOD9270361
_publ_section_title
;
Structure prediction by ZEFSAII (Michael W. Deem and Ramdas Pophale) SiO2 
 PCOD9270361
Probable space group: C 2/C
;
_chemical_formula_sum "Si O2"
_cell_formula_units_Z 48
_cell_length_a 13.428089
_cell_length_b 13.171696
_cell_length_c 13.373011
_cell_angle_alpha 90.000000
_cell_angle_beta 74.297674
_cell_angle_gamma 90.000000
_cell_volume 2277.022929
_symmetry_space_group_name_H-M "C 2/C"
_symmetry_group_IT_number 15
_symmetry_cell_setting 'monoclinic'
loop_
_space_group_symop_operation_xyz
x,y,z
-x,y,1/2-z
-x,-y,-z
x,-y,1/2+z
1/2+x,1/2+y,z
1/2-x,1/2+y,1/2-z
1/2-x,1/2-y,-z
1/2+x,1/2-y,1/2+z
loop_
_atom_site_type_symbol
_atom_site_label
_atom_site_fract_x
_atom_site_fract_y
_atom_site_fract_z
Si Si1 0.271421 0.353822 0.435677
Si Si2 0.081399 0.891659 0.925151
Si Si3 0.913422 0.345858 0.134028
Si Si4 0.142941 0.651746 0.622163
Si Si5 0.343459 0.613998 0.446086
Si Si6 0.620741 0.461627 0.238347
O O1 0.250000 0.250000 0.500000
O O2 0.355978 0.399570 0.488984
O O3 0.157162 0.391891 0.434970
O O4 0.326109 0.356626 0.310885
O O5 0.095047 0.777386 0.876503
O O6 0.125785 0.977454 0.839556
O O7 0.956745 0.900982 0.965475
O O8 0.871927 0.371233 0.256426
O O9 0.033884 0.375507 0.099141
O O10 0.245384 0.605709 0.545388
O O11 0.154013 0.772577 0.600842
O O12 0.332685 0.539956 0.354948
O O13 0.500000 0.449888 0.250000
#
# Coordination Sequence:
#
# PCOD9270361 Si02
#       6
#     8   8   8   8   8   8
#     4  10  22  36  54  81 119 154 180 233 294 344
#     4   9  18  35  54  79 118 141 183 241 287 328
#     4   9  17  33  53  77 113 159 186 227 276 336
#     4   9  16  30  56  82 109 149 198 229 274 331
#     4   9  17  30  55  86 108 143 192 244 274 327
#     4  10  20  35  58  85 113 147 189 238 288 331
#
# _framework density 21.080155999999999
#
# number of rings (size 3 to 8) (size 9 to 14) (size 15 to 20)
#    0.000    2.667    1.667    0.000    0.000    5.333 
#    0.000    0.833    0.000    0.000    4.333    0.000 
#    0.000    0.000    0.000    0.000    0.000    0.000 
#
# Total GULP energy -133661.450640 kJ/mol
# GULP energy per Si atom -5569.227110 kJ/mol
# Density = 2.103218 g / cm^3
# Si number density = 21.080156 Si / 1000 Ang^3
#
#
#
# Elastic Constant Matrix: (Units=GPa)
#
#
# Indices 1 2 3 4 5 6 
#
# 1 171.7871 24.2681 73.8918 0.0000 8.7886 0.0000
# 2 24.2681 44.6705 27.8549 0.0000 -9.3985 0.0000
# 3 73.8918 27.8549 106.4383 0.0000 -19.1093 0.0000
# 4 0.0000 0.0000 0.0000 41.3482 0.0000 -8.4255
# 5 8.7886 -9.3985 -19.1093 0.0000 40.1968 0.0000
# 6 0.0000 0.0000 0.0000 -8.4255 0.0000 27.0687
#
#
#
# Elastic Compliance Matrix: (Units=1/GPa)
#
#
# Indices 1 2 3 4 5 6 
#
# 1 0.009460 -0.001943 -0.007120 0.000000 -0.005907 0.000000
# 2 -0.001943 0.027532 -0.005056 0.000000 0.004459 0.000000
# 3 -0.007120 -0.005056 0.017196 0.000000 0.008549 0.000000
# 4 0.000000 0.000000 0.000000 0.025823 0.000000 0.008038
# 5 -0.005907 0.004459 0.008549 0.000000 0.031276 0.000000
# 6 0.000000 0.000000 0.000000 0.008038 0.000000 0.039445
#
#
# Mechanical properties :
#
#
# Convention : Reuss Voigt Hill
#
# Bulk Modulus (GPa) = 38.53339 63.88062 51.20700
# Shear Modulus (GPa) = 26.64972 34.84816 30.74894
#
# Velocity S-wave (km/s) = 3.55943 4.07028 3.82339
# Velocity P-wave (km/s) = 5.93396 7.24286 6.62083
#
# Compressibility (1/GPa) = 0.02595152
#
# Stress axis : x y z
#
# Youngs Moduli (GPa) = 105.70551 36.32083 58.15386
#
# Poissons Ratio (x) = 0.07056 0.41403
# Poissons Ratio (y) = 0.20536 0.29403
# Poissons Ratio (z) = 0.75259 0.18364
#
# Static dielectric constant tensor:
#      x y z
#    x 1.805960 0.000000 0.020020 
#    y 0.000000 1.861070 0.000000 
#    z 0.020020 0.000000 1.834670 
# 
# From -- ./inp_files/143423.got.cif
#   From: 2010.05.17/outbox.cif.g08.bks.cpg/sg15_72_cif.got.tgz:143423.got - 2010.06.03 18:47:42.
