data_PCOD9270197
_publ_section_title
;
Structure prediction by ZEFSAII (Michael W. Deem and Ramdas Pophale) SiO2 
 PCOD9270197
Probable space group: C 2/C
;
_chemical_formula_sum "Si O2"
_cell_formula_units_Z 44
_cell_length_a 18.259103
_cell_length_b 13.901890
_cell_length_c 22.435400
_cell_angle_alpha 90.000000
_cell_angle_beta 158.851703
_cell_angle_gamma 90.000000
_cell_volume 2054.628442
_symmetry_space_group_name_H-M "C 2/C"
_symmetry_group_IT_number 15
_symmetry_cell_setting 'monoclinic'
loop_
_space_group_symop_operation_xyz
x,y,z
-x,y,1/2-z
-x,-y,-z
x,-y,1/2+z
1/2+x,1/2+y,z
1/2-x,1/2+y,1/2-z
1/2-x,1/2-y,-z
1/2+x,1/2-y,1/2+z
loop_
_atom_site_type_symbol
_atom_site_label
_atom_site_fract_x
_atom_site_fract_y
_atom_site_fract_z
Si Si1 0.934083 0.503854 0.881866
Si Si2 0.500000 0.274184 0.750000
Si Si3 0.200963 0.865816 0.364841
Si Si4 0.435557 0.196574 0.571992
Si Si5 0.985307 0.795822 0.397793
Si Si6 0.882352 0.148668 0.372324
O O1 0.713249 0.455323 0.710668
O O2 0.934959 0.611602 0.857832
O O3 0.000000 0.500000 0.000000
O O4 0.116960 0.442920 0.989556
O O5 0.470132 0.211951 0.667979
O O6 0.298915 0.333255 0.611200
O O7 0.309308 0.763412 0.463206
O O8 0.000000 0.885250 0.250000
O O9 0.115142 0.856110 0.231870
O O10 0.470627 0.297323 0.563140
O O11 0.035371 0.845342 0.498362
O O12 0.818538 0.714734 0.285210
#
# Coordination Sequence:
#
# PCOD9270197 Si02
#       6
#     8   4   8   8   8   8
#     4  11  23  39  62  91 124 164 215 270 316 371
#     4  10  24  42  66  88 128 178 200 264 320 388
#     4  10  20  35  56  87 122 166 207 258 320 382
#     4  11  22  43  65  92 129 164 218 255 326 378
#     4   9  18  35  59  86 123 163 209 253 321 373
#     4  10  20  39  64  92 121 166 210 271 308 377
#
# _framework density 21.415064000000001
#
# number of rings (size 3 to 8) (size 9 to 14) (size 15 to 20)
#    0.000    1.818    0.000    6.000    1.273    0.000 
#    3.273    6.364    0.000    0.000    0.000    0.000 
#    0.000    0.000    0.000    0.000    0.000    0.000 
#
# Total GULP energy -122778.383595 kJ/mol
# GULP energy per Si atom -5580.835618 kJ/mol
# Density = 2.136632 g / cm^3
# Si number density = 21.415064 Si / 1000 Ang^3
#
#
#
# Elastic Constant Matrix: (Units=GPa)
#
#
# Indices 1 2 3 4 5 6 
#
# 1 57.4331 22.4006 4.1587 -0.0101 5.3367 -0.0037
# 2 22.4006 89.3896 29.0449 0.0285 3.0862 0.0097
# 3 4.1587 29.0449 93.4999 0.0086 7.9956 0.0051
# 4 -0.0101 0.0285 0.0086 35.8509 0.0029 3.3729
# 5 5.3367 3.0862 7.9956 0.0029 48.8383 0.0010
# 6 -0.0037 0.0097 0.0051 3.3729 0.0010 14.1243
#
#
#
# Elastic Compliance Matrix: (Units=1/GPa)
#
#
# Indices 1 2 3 4 5 6 
#
# 1 0.019523 -0.005113 0.000887 0.000009 -0.001956 0.000006
# 2 -0.005113 0.013783 -0.004085 -0.000011 0.000356 -0.000007
# 3 0.000887 -0.004085 0.012080 0.000001 -0.001817 -0.000001
# 4 0.000009 -0.000011 0.000001 0.028534 -0.000002 -0.006814
# 5 -0.001956 0.000356 -0.001817 -0.000002 0.020964 -0.000001
# 6 0.000006 -0.000007 -0.000001 -0.006814 -0.000001 0.072427
#
#
# Mechanical properties :
#
#
# Convention : Reuss Voigt Hill
#
# Bulk Modulus (GPa) = 34.76429 39.05901 36.91165
# Shear Modulus (GPa) = 25.83684 32.07726 28.95705
#
# Velocity S-wave (km/s) = 3.47721 3.87445 3.68119
# Velocity P-wave (km/s) = 5.69123 6.18820 5.94491
#
# Compressibility (1/GPa) = 0.02876515
#
# Stress axis : x y z
#
# Youngs Moduli (GPa) = 51.22076 72.55180 82.78179
#
# Poissons Ratio (x) = 0.37097 -0.07345
# Poissons Ratio (y) = 0.26190 0.33814
# Poissons Ratio (z) = -0.04544 0.29635
#
# Static dielectric constant tensor:
#      x y z
#    x 1.786590 -0.000010 0.040320 
#    y -0.000010 1.832810 -0.000010 
#    z 0.040320 -0.000010 1.829860 
# 
# From -- ./inp_files/46978.got.cif
#   From: 2010.05.17/outbox.cif.g08.bks.cpg/sg15_24_cif.got.tgz:46978.got - 2010.06.03 18:47:42.
