data_PCOD9270039
_publ_section_title
;
Structure prediction by ZEFSAII (Michael W. Deem and Ramdas Pophale) SiO2 
 PCOD9270039
Probable space group: C 2/C
;
_chemical_formula_sum "Si O2"
_cell_formula_units_Z 60
_cell_length_a 29.042082
_cell_length_b 9.452405
_cell_length_c 10.247481
_cell_angle_alpha 90.000000
_cell_angle_beta 109.598720
_cell_angle_gamma 90.000000
_cell_volume 2650.135225
_symmetry_space_group_name_H-M "C 2/C"
_symmetry_group_IT_number 15
_symmetry_cell_setting 'monoclinic'
loop_
_space_group_symop_operation_xyz
x,y,z
-x,y,1/2-z
-x,-y,-z
x,-y,1/2+z
1/2+x,1/2+y,z
1/2-x,1/2+y,1/2-z
1/2-x,1/2-y,-z
1/2+x,1/2-y,1/2+z
loop_
_atom_site_type_symbol
_atom_site_label
_atom_site_fract_x
_atom_site_fract_y
_atom_site_fract_z
Si Si1 0.124675 0.040747 0.563007
Si Si2 0.210227 0.170717 0.828420
Si Si3 0.598951 0.955114 0.437984
Si Si4 0.931795 0.251987 0.858789
Si Si5 0.362958 0.252629 0.037586
Si Si6 0.000000 0.403530 0.750000
Si Si7 0.755086 0.379685 0.834644
Si Si8 0.166711 0.758387 0.893565
O O1 0.166675 0.104023 0.697300
O O2 0.074528 0.105844 0.570061
O O3 0.140606 0.107206 0.438173
O O4 0.122326 0.873549 0.549138
O O5 0.188585 0.200821 0.949692
O O6 0.226162 0.320735 0.784353
O O7 0.249819 0.046354 0.852414
O O8 0.631259 0.092468 0.502398
O O9 0.546222 0.003615 0.336349
O O10 0.591735 0.862360 0.561100
O O11 0.625569 0.862121 0.351415
O O12 0.900115 0.242561 0.696468
O O13 0.983492 0.307351 0.856859
O O14 0.701774 0.310774 0.812101
O O15 0.793695 0.311861 0.970824
#
# Coordination Sequence:
#
# PCOD9270039 Si02
#       8
#     8   8   8   8   8   4   8   8
#     4   9  18  38  58  83 114 159 196 240 295 356
#     4  10  21  34  54  84 121 160 202 248 289 345
#     4  10  21  38  63  88 117 156 199 245 303 357
#     4   9  20  39  63  87 118 152 191 247 305 356
#     4  10  20  38  59  87 121 158 200 245 296 352
#     4  10  20  40  66  92 120 146 194 256 302 362
#     4  10  20  35  54  82 122 158 203 246 293 343
#     4   9  19  37  57  77 118 159 196 243 296 348
#
# _framework density 22.640353999999999
#
# number of rings (size 3 to 8) (size 9 to 14) (size 15 to 20)
#    0.000    2.400    1.333    1.200    1.867    1.067 
#    4.800    4.000    0.000   13.600    0.000    0.000 
#    0.000    0.000    0.000    0.000    0.000    0.000 
#
# Total GULP energy -167515.775617 kJ/mol
# GULP energy per Si atom -5583.859187 kJ/mol
# Density = 2.258882 g / cm^3
# Si number density = 22.640354 Si / 1000 Ang^3
#
#
#
# Elastic Constant Matrix: (Units=GPa)
#
#
# Indices 1 2 3 4 5 6 
#
# 1 95.4577 30.9135 13.2653 0.0000 -0.7175 0.0000
# 2 30.9135 113.7501 12.0724 0.0000 -5.2836 0.0000
# 3 13.2653 12.0724 39.7228 0.0000 5.3804 0.0000
# 4 0.0000 0.0000 0.0000 21.2783 0.0000 -2.3604
# 5 -0.7175 -5.2836 5.3804 0.0000 33.3538 0.0000
# 6 0.0000 0.0000 0.0000 -2.3604 0.0000 41.4579
#
#
#
# Elastic Compliance Matrix: (Units=1/GPa)
#
#
# Indices 1 2 3 4 5 6 
#
# 1 0.011842 -0.002873 -0.003123 0.000000 0.000303 0.000000
# 2 -0.002873 0.009904 -0.002305 0.000000 0.001879 0.000000
# 3 -0.003123 -0.002305 0.027579 0.000000 -0.004881 0.000000
# 4 0.000000 0.000000 0.000000 0.047295 0.000000 0.002693
# 5 0.000303 0.001879 -0.004881 0.000000 0.031073 0.000000
# 6 0.000000 0.000000 0.000000 0.002693 0.000000 0.024274
#
#
# Mechanical properties :
#
#
# Convention : Reuss Voigt Hill
#
# Bulk Modulus (GPa) = 30.55864 40.15922 35.35893
# Shear Modulus (GPa) = 27.85874 32.06328 29.96101
#
# Velocity S-wave (km/s) = 3.51164 3.76733 3.64173
# Velocity P-wave (km/s) = 5.47438 6.05806 5.77360
#
# Compressibility (1/GPa) = 0.03272397
#
# Stress axis : x y z
#
# Youngs Moduli (GPa) = 84.44203 100.97070 36.25950
#
# Poissons Ratio (x) = 0.29008 0.11323
# Poissons Ratio (y) = 0.24259 0.08358
# Poissons Ratio (z) = 0.26369 0.23274
#
# Static dielectric constant tensor:
#      x y z
#    x 1.877470 0.000000 0.014550 
#    y 0.000000 1.857630 0.000000 
#    z 0.014550 0.000000 1.859950 
# 
# From -- ./inp_files/125560.got.cif
#   From: 2010.05.17/outbox.cif.g08.bks.cpg/sg15_63_cif.got.tgz:125560.got - 2010.06.03 18:47:42.
