data_PCOD9270664
_publ_section_title
;
Structure prediction by ZEFSAII (Michael W. Deem and Ramdas Pophale) SiO2 
 PCOD9270664
Probable space group: C 2/C
;
_chemical_formula_sum "Si O2"
_cell_formula_units_Z 60
_cell_length_a 27.230088
_cell_length_b 19.148285
_cell_length_c 12.526970
_cell_angle_alpha 90.000000
_cell_angle_beta 28.116861
_cell_angle_gamma 90.000000
_cell_volume 3078.194788
_symmetry_space_group_name_H-M "C 2/C"
_symmetry_group_IT_number 15
_symmetry_cell_setting 'monoclinic'
loop_
_space_group_symop_operation_xyz
x,y,z
-x,y,1/2-z
-x,-y,-z
x,-y,1/2+z
1/2+x,1/2+y,z
1/2-x,1/2+y,1/2-z
1/2-x,1/2-y,-z
1/2+x,1/2-y,1/2+z
loop_
_atom_site_type_symbol
_atom_site_label
_atom_site_fract_x
_atom_site_fract_y
_atom_site_fract_z
Si Si1 0.969725 0.612864 0.086580
Si Si2 0.697502 0.724378 0.426163
Si Si3 0.994468 0.893911 0.519005
Si Si4 0.666709 0.976083 0.138159
Si Si5 0.500000 0.187137 0.250000
Si Si6 0.609781 0.261235 0.332869
Si Si7 0.679776 0.585882 0.326466
Si Si8 0.130742 0.995705 0.124191
O O1 0.882274 0.553422 0.268161
O O2 0.997669 0.640904 0.149550
O O3 0.928271 0.681209 0.103776
O O4 0.071360 0.576657 0.841725
O O5 0.603395 0.765482 0.551287
O O6 0.659823 0.717513 0.621728
O O7 0.805296 0.765342 0.236310
O O8 0.713319 0.652548 0.332725
O O9 0.907734 0.891760 0.591571
O O10 0.019884 0.817969 0.514431
O O11 0.093227 0.933780 0.276649
O O12 0.949519 0.942988 0.697119
O O13 0.727398 0.951212 0.915993
O O14 0.754914 0.978153 0.060677
O O15 0.631497 0.532562 0.503859
#
# Coordination Sequence:
#
# PCOD9270664 Si02
#       8
#     8   8   8   8   4   8   8   8
#     4  10  22  42  59  90 120 162 203 257 301 367
#     4  10  20  35  61  94 113 161 207 249 304 370
#     4  10  21  37  62  94 124 162 203 258 308 367
#     4  10  24  40  61  87 126 162 208 250 310 364
#     4  10  22  36  62  90 120 152 206 252 310 368
#     4  10  20  38  65  85 125 157 207 259 304 363
#     4  11  20  38  65  89 122 166 207 252 309 374
#     4  10  21  36  60  92 122 159 206 250 307 364
#
# _framework density 19.491944
#
# number of rings (size 3 to 8) (size 9 to 14) (size 15 to 20)
#    0.000    1.867    1.333    2.800    5.600    0.000 
#    0.000    7.333    0.000    3.200    0.000    0.000 
#    0.000    0.000    0.000    0.000    0.000    0.000 
#
# Total GULP energy -167472.398430 kJ/mol
# GULP energy per Si atom -5582.413281 kJ/mol
# Density = 1.944758 g / cm^3
# Si number density = 19.491944 Si / 1000 Ang^3
#
#
#
# Elastic Constant Matrix: (Units=GPa)
#
#
# Indices 1 2 3 4 5 6 
#
# 1 73.5572 43.6079 41.1031 0.0000 -12.7368 0.0000
# 2 43.6079 145.7081 65.6497 0.0000 -7.3994 0.0000
# 3 41.1031 65.6497 96.2769 0.0000 -11.3512 0.0000
# 4 0.0000 0.0000 0.0000 14.9565 0.0000 5.6224
# 5 -12.7368 -7.3994 -11.3512 0.0000 23.0600 0.0000
# 6 0.0000 0.0000 0.0000 5.6224 0.0000 11.5938
#
#
#
# Elastic Compliance Matrix: (Units=1/GPa)
#
#
# Indices 1 2 3 4 5 6 
#
# 1 0.019724 -0.003069 -0.005478 0.000000 0.007213 0.000000
# 2 -0.003069 0.010385 -0.005922 0.000000 -0.001278 0.000000
# 3 -0.005478 -0.005922 0.017179 0.000000 0.003531 0.000000
# 4 0.000000 0.000000 0.000000 0.081767 0.000000 -0.039653
# 5 0.007213 -0.001278 0.003531 0.000000 0.048677 0.000000
# 6 0.000000 0.000000 0.000000 -0.039653 0.000000 0.105483
#
#
# Mechanical properties :
#
#
# Convention : Reuss Voigt Hill
#
# Bulk Modulus (GPa) = 54.49023 68.47375 61.48199
# Shear Modulus (GPa) = 15.71001 20.93414 18.32207
#
# Velocity S-wave (km/s) = 2.84205 3.28073 3.06924
# Velocity P-wave (km/s) = 6.22781 7.03964 6.64613
#
# Compressibility (1/GPa) = 0.01835191
#
# Stress axis : x y z
#
# Youngs Moduli (GPa) = 50.69948 96.29658 58.20909
#
# Poissons Ratio (x) = 0.29551 0.31886
# Poissons Ratio (y) = 0.15558 0.34469
# Poissons Ratio (z) = 0.27772 0.57023
#
# Static dielectric constant tensor:
#      x y z
#    x 1.680810 0.000000 -0.028450 
#    y 0.000000 1.695380 0.000000 
#    z -0.028450 0.000000 1.692030 
# 
# From -- ./inp_files/123988.got.cif
#   From: 2010.05.17/outbox.cif.g08.bks.cpg/sg15_62_cif.got.tgz:123988.got - 2010.06.03 18:47:42.
