data_PCOD9270885
_publ_section_title
;
Structure prediction by ZEFSAII (Michael W. Deem and Ramdas Pophale) SiO2 
 PCOD9270885
Probable space group: C 2/C
;
_chemical_formula_sum "Si O2"
_cell_formula_units_Z 56
_cell_length_a 9.298915
_cell_length_b 22.068077
_cell_length_c 15.240945
_cell_angle_alpha 90.000000
_cell_angle_beta 65.829408
_cell_angle_gamma 90.000000
_cell_volume 2853.387857
_symmetry_space_group_name_H-M "C 2/C"
_symmetry_group_IT_number 15
_symmetry_cell_setting 'monoclinic'
loop_
_space_group_symop_operation_xyz
x,y,z
-x,y,1/2-z
-x,-y,-z
x,-y,1/2+z
1/2+x,1/2+y,z
1/2-x,1/2+y,1/2-z
1/2-x,1/2-y,-z
1/2+x,1/2-y,1/2+z
loop_
_atom_site_type_symbol
_atom_site_label
_atom_site_fract_x
_atom_site_fract_y
_atom_site_fract_z
Si Si1 0.662828 0.825904 0.981892
Si Si2 0.212231 0.040165 0.427916
Si Si3 0.682104 0.498488 0.733103
Si Si4 0.846593 0.739968 0.829173
Si Si5 0.033680 0.559192 0.434358
Si Si6 0.610037 0.588632 0.989786
Si Si7 0.820156 0.387065 0.267534
O O1 0.620037 0.791152 0.082901
O O2 0.827296 0.861234 0.959659
O O3 0.699392 0.781896 0.891474
O O4 0.544215 0.879785 0.988554
O O5 0.194094 0.021184 0.331536
O O6 0.387026 0.061287 0.404787
O O7 0.075194 0.088382 0.479133
O O8 0.164134 0.980486 0.497279
O O9 0.500000 0.497518 0.750000
O O10 0.799320 0.453449 0.653514
O O11 0.756622 0.566781 0.710079
O O12 0.816893 0.685895 0.766286
O O13 0.000000 0.772245 0.750000
O O14 0.000000 0.500000 0.500000
O O15 0.705209 0.601736 0.877952
O O16 0.000000 0.404127 0.250000
#
# Coordination Sequence:
#
# PCOD9270885 Si02
#       7
#     8   8   8   8   8   8   8
#     4  10  20  37  58  90 119 156 218 249 304 371
#     4  10  20  36  54  83 126 162 187 241 314 361
#     4  11  23  36  56  88 120 159 203 244 310 382
#     4   9  20  37  61  83 115 166 211 263 293 354
#     4  12  24  35  59  93 125 159 193 256 312 374
#     4   9  17  32  55  80 116 154 190 242 292 360
#     4   9  18  34  57  81 112 151 199 250 298 350
#
# _framework density 19.625793999999999
#
# number of rings (size 3 to 8) (size 9 to 14) (size 15 to 20)
#    0.000    2.000    1.429    3.000    8.000    1.714 
#    0.000    0.000    0.000   12.857    0.000    0.000 
#    0.000    0.000    0.000    0.000    0.000    0.000 
#
# Total GULP energy -156000.190993 kJ/mol
# GULP energy per Si atom -5571.435393 kJ/mol
# Density = 1.958112 g / cm^3
# Si number density = 19.625794 Si / 1000 Ang^3
#
#
#
# Elastic Constant Matrix: (Units=GPa)
#
#
# Indices 1 2 3 4 5 6 
#
# 1 114.0952 20.0093 24.5253 0.0000 -11.9378 0.0000
# 2 20.0093 43.3980 15.8142 0.0000 -2.8681 0.0000
# 3 24.5253 15.8142 75.1290 0.0000 -18.7360 0.0000
# 4 0.0000 0.0000 0.0000 -7.9802 0.0000 23.1757
# 5 -11.9378 -2.8681 -18.7360 0.0000 24.8809 0.0000
# 6 0.0000 0.0000 0.0000 23.1757 0.0000 11.5185
#
#
#
# Elastic Compliance Matrix: (Units=1/GPa)
#
#
# Indices 1 2 3 4 5 6 
#
# 1 0.010135 -0.003839 -0.001721 0.000000 0.003124 0.000000
# 2 -0.003839 0.026447 -0.004941 0.000000 -0.002514 0.000000
# 3 -0.001721 -0.004941 0.017932 0.000000 0.012108 0.000000
# 4 0.000000 0.000000 0.000000 -0.018311 0.000000 0.036843
# 5 0.003124 -0.002514 0.012108 0.000000 0.050518 0.000000
# 6 0.000000 0.000000 0.000000 0.036843 0.000000 0.012686
#
#
# Mechanical properties :
#
#
# Convention : Reuss Voigt Hill
#
# Bulk Modulus (GPa) = 29.84046 39.25778 34.54912
# Shear Modulus (GPa) = 38.00005 17.16872 27.58438
#
# Velocity S-wave (km/s) = 4.40503 2.96092 3.75309
# Velocity P-wave (km/s) = 6.41172 5.63347 6.03515
#
# Compressibility (1/GPa) = 0.03351155
#
# Stress axis : x y z
#
# Youngs Moduli (GPa) = 98.67054 37.81172 55.76688
#
# Poissons Ratio (x) = 0.14516 0.09599
# Poissons Ratio (y) = 0.37881 0.27552
# Poissons Ratio (z) = 0.16984 0.18681
#
# Static dielectric constant tensor:
#      x y z
#    x 1.680100 0.000000 0.017550 
#    y 0.000000 1.792910 0.000000 
#    z 0.017550 0.000000 1.732150 
# 
# From -- ./inp_files/192896.got.cif
#   From: 2010.05.17/outbox.cif.g08.bks.cpg/sg15_97_cif.got.tgz:192896.got - 2010.06.03 18:47:42.
