data_PCOD9270719
_publ_section_title
;
Structure prediction by ZEFSAII (Michael W. Deem and Ramdas Pophale) SiO2 
 PCOD9270719
Probable space group: C 2/C
;
_chemical_formula_sum "Si O2"
_cell_formula_units_Z 44
_cell_length_a 20.674568
_cell_length_b 13.484243
_cell_length_c 26.450864
_cell_angle_alpha 90.000000
_cell_angle_beta 17.545190
_cell_angle_gamma 90.000000
_cell_volume 2222.949359
_symmetry_space_group_name_H-M "C 2/C"
_symmetry_group_IT_number 15
_symmetry_cell_setting 'monoclinic'
loop_
_space_group_symop_operation_xyz
x,y,z
-x,y,1/2-z
-x,-y,-z
x,-y,1/2+z
1/2+x,1/2+y,z
1/2-x,1/2+y,1/2-z
1/2-x,1/2-y,-z
1/2+x,1/2-y,1/2+z
loop_
_atom_site_type_symbol
_atom_site_label
_atom_site_fract_x
_atom_site_fract_y
_atom_site_fract_z
Si Si1 0.290573 0.369348 0.517787
Si Si2 0.279230 0.082844 0.642985
Si Si3 0.171968 0.643243 0.415407
Si Si4 0.049902 0.303606 0.121739
Si Si5 0.241844 0.154005 0.570617
Si Si6 0.500000 0.954533 0.250000
O O1 0.545565 0.370220 0.322756
O O2 0.231091 0.270124 0.591600
O O3 0.183675 0.357639 0.541901
O O4 0.202853 0.472296 0.602761
O O5 0.437824 0.136547 0.563593
O O6 0.370906 0.102431 0.518400
O O7 0.245089 0.964104 0.666753
O O8 0.127748 0.657042 0.508673
O O9 0.345663 0.728010 0.270788
O O10 0.999669 0.389888 0.199448
O O11 0.250000 0.250000 0.000000
O O12 0.000000 0.111126 0.750000
#
# Coordination Sequence:
#
# PCOD9270719 Si02
#       6
#     8   8   8   8   8   4
#     4  10  20  35  62  97 125 165 214 262 321 381
#     4  10  23  41  64  86 136 171 209 263 327 400
#     4  11  25  44  63  96 126 174 217 261 339 385
#     4  12  24  44  68  95 126 170 225 280 320 389
#     4   9  18  37  59  90 122 164 209 259 311 377
#     4  12  22  38  66  96 128 164 226 276 320 384
#
# _framework density 19.793523
#
# number of rings (size 3 to 8) (size 9 to 14) (size 15 to 20)
#    0.000    1.455    2.727    2.182    2.545    2.909 
#    0.000    0.909    0.000    0.000    0.000    0.000 
#    0.000    0.000    0.000    0.000    0.000    0.000 
#
# Total GULP energy -122491.467466 kJ/mol
# GULP energy per Si atom -5567.793976 kJ/mol
# Density = 1.974847 g / cm^3
# Si number density = 19.793523 Si / 1000 Ang^3
#
#
#
# Elastic Constant Matrix: (Units=GPa)
#
#
# Indices 1 2 3 4 5 6 
#
# 1 88.7658 12.5020 22.3328 -0.0088 -11.3831 0.0020
# 2 12.5020 75.7131 16.6716 0.0049 -8.6668 0.0047
# 3 22.3328 16.6716 69.4893 0.0019 -6.9645 -0.0178
# 4 -0.0088 0.0049 0.0019 29.5931 -0.0043 6.0205
# 5 -11.3831 -8.6668 -6.9645 -0.0043 24.1648 0.0098
# 6 0.0020 0.0047 -0.0178 6.0205 0.0098 26.7514
#
#
#
# Elastic Compliance Matrix: (Units=1/GPa)
#
#
# Indices 1 2 3 4 5 6 
#
# 1 0.012863 -0.000816 -0.003460 0.000006 0.004769 -0.000006
# 2 -0.000816 0.014414 -0.002797 -0.000001 0.003979 -0.000006
# 3 -0.003460 -0.002797 0.016383 -0.000004 0.002089 0.000012
# 4 0.000006 -0.000001 -0.000004 0.035413 0.000011 -0.007970
# 5 0.004769 0.003979 0.002089 0.000011 0.045658 -0.000019
# 6 -0.000006 -0.000006 0.000012 -0.007970 -0.000019 0.039175
#
#
# Mechanical properties :
#
#
# Convention : Reuss Voigt Hill
#
# Bulk Modulus (GPa) = 33.88316 37.44233 35.66274
# Shear Modulus (GPa) = 26.61133 28.26598 27.43866
#
# Velocity S-wave (km/s) = 3.67065 3.78304 3.72727
# Velocity P-wave (km/s) = 5.92624 6.16761 6.04813
#
# Compressibility (1/GPa) = 0.02951319
#
# Stress axis : x y z
#
# Youngs Moduli (GPa) = 77.74434 69.37759 61.03846
#
# Poissons Ratio (x) = 0.05662 0.21120
# Poissons Ratio (y) = 0.06345 0.17073
# Poissons Ratio (z) = 0.26900 0.19405
#
# Static dielectric constant tensor:
#      x y z
#    x 1.747790 0.000010 0.026280 
#    y 0.000010 1.755690 0.000030 
#    z 0.026280 0.000030 1.740980 
# 
# From -- ./inp_files/54535.got.cif
#   From: 2010.05.17/outbox.cif.g08.bks.cpg/sg15_28_cif.got.tgz:54535.got - 2010.06.03 18:47:42.
