data_PCOD9270863
_publ_section_title
;
Structure prediction by ZEFSAII (Michael W. Deem and Ramdas Pophale) SiO2 
 PCOD9270863
Probable space group: C 2/C
;
_chemical_formula_sum "Si O2"
_cell_formula_units_Z 60
_cell_length_a 14.739902
_cell_length_b 23.245880
_cell_length_c 12.069658
_cell_angle_alpha 90.000000
_cell_angle_beta 61.999376
_cell_angle_gamma 90.000000
_cell_volume 3651.471909
_symmetry_space_group_name_H-M "C 2/C"
_symmetry_group_IT_number 15
_symmetry_cell_setting 'monoclinic'
loop_
_space_group_symop_operation_xyz
x,y,z
-x,y,1/2-z
-x,-y,-z
x,-y,1/2+z
1/2+x,1/2+y,z
1/2-x,1/2+y,1/2-z
1/2-x,1/2-y,-z
1/2+x,1/2-y,1/2+z
loop_
_atom_site_type_symbol
_atom_site_label
_atom_site_fract_x
_atom_site_fract_y
_atom_site_fract_z
Si Si1 0.000000 0.644973 0.250000
Si Si2 0.313610 0.260361 0.077873
Si Si3 0.708765 0.185586 0.038043
Si Si4 0.952578 0.442845 0.157729
Si Si5 0.465044 0.731223 0.146411
Si Si6 0.685482 0.164369 0.808018
Si Si7 0.722946 0.654244 0.262744
Si Si8 0.887718 0.568181 0.127281
O O1 0.911428 0.681888 0.359881
O O2 0.946130 0.604439 0.189449
O O3 0.268888 0.313418 0.173112
O O4 0.293251 0.204215 0.165582
O O5 0.250000 0.250000 0.000000
O O6 0.431616 0.271623 0.982891
O O7 0.764574 0.157535 0.111740
O O8 0.750000 0.250000 0.000000
O O9 0.723746 0.154889 0.911320
O O10 0.873583 0.390596 0.202423
O O11 0.896491 0.500893 0.150059
O O12 0.000000 0.453420 0.250000
O O13 0.045483 0.425581 0.022156
O O14 0.500000 0.747516 0.250000
O O15 0.393467 0.781791 0.140443
O O16 0.393220 0.674525 0.195816
O O17 0.773644 0.595391 0.189655
#
# Coordination Sequence:
#
# PCOD9270863 Si02
#       8
#     4   8   8   8   8   8   8   8
#     4  10  20  36  54  70 116 140 180 224 254 336
#     4  11  21  34  52  81 111 140 175 226 280 329
#     4  11  20  35  49  77 105 149 184 206 271 322
#     4  11  22  34  57  83 111 142 187 229 282 330
#     4  11  20  34  51  77 112 142 174 213 280 334
#     4  11  22  34  53  81 113 141 175 233 268 331
#     4  10  22  34  54  75 111 148 179 226 268 336
#     4  10  21  37  53  80 108 148 181 220 284 322
#
# _framework density 16.431730000000002
#
# number of rings (size 3 to 8) (size 9 to 14) (size 15 to 20)
#    0.000    1.333    7.333    1.200    3.733    0.000 
#    0.000    0.000    0.000    0.800    0.000    0.000 
#    0.000    0.000    0.000    0.000    0.000    0.000 
#
# Total GULP energy -167303.978743 kJ/mol
# GULP energy per Si atom -5576.799291 kJ/mol
# Density = 1.639433 g / cm^3
# Si number density = 16.431730 Si / 1000 Ang^3
#
#
#
# Elastic Constant Matrix: (Units=GPa)
#
#
# Indices 1 2 3 4 5 6 
#
# 1 46.0005 10.9086 28.0873 0.0000 -12.3874 0.0000
# 2 10.9086 55.1021 26.5583 0.0000 -19.4533 0.0000
# 3 28.0873 26.5583 113.2423 0.0000 -14.5613 0.0000
# 4 0.0000 0.0000 0.0000 22.3655 0.0000 -4.0289
# 5 -12.3874 -19.4533 -14.5613 0.0000 41.5071 0.0000
# 6 0.0000 0.0000 0.0000 -4.0289 0.0000 24.6485
#
#
#
# Elastic Compliance Matrix: (Units=1/GPa)
#
#
# Indices 1 2 3 4 5 6 
#
# 1 0.026971 -0.000490 -0.005832 0.000000 0.005773 0.000000
# 2 -0.000490 0.023603 -0.004200 0.000000 0.009442 0.000000
# 3 -0.005832 -0.004200 0.011295 0.000000 0.000253 0.000000
# 4 0.000000 0.000000 0.000000 0.046068 0.000000 0.007530
# 5 0.005773 0.009442 0.000253 0.000000 0.030330 0.000000
# 6 0.000000 0.000000 0.000000 0.007530 0.000000 0.041801
#
#
# Mechanical properties :
#
#
# Convention : Reuss Voigt Hill
#
# Bulk Modulus (GPa) = 24.49521 38.38371 31.43946
# Shear Modulus (GPa) = 23.28614 27.62362 25.45488
#
# Velocity S-wave (km/s) = 3.76858 4.10459 3.94017
# Velocity P-wave (km/s) = 5.82030 6.77302 6.31465
#
# Compressibility (1/GPa) = 0.04082430
#
# Stress axis : x y z
#
# Youngs Moduli (GPa) = 37.07702 42.36752 88.53695
#
# Poissons Ratio (x) = 0.02077 0.51636
# Poissons Ratio (y) = 0.01817 0.37184
# Poissons Ratio (z) = 0.21624 0.17793
#
# Static dielectric constant tensor:
#      x y z
#    x 1.597260 0.000000 0.019990 
#    y 0.000000 1.540270 0.000000 
#    z 0.019990 0.000000 1.571080 
# 
# From -- ./inp_files/100468.got.cif
#   From: 2010.05.17/outbox.cif.g08.bks.cpg/sg15_51_cif.got.tgz:100468.got - 2010.06.03 18:47:42.
