data_PCOD9270750
_publ_section_title
;
Structure prediction by ZEFSAII (Michael W. Deem and Ramdas Pophale) SiO2 
 PCOD9270750
Probable space group: C 2/C
;
_chemical_formula_sum "Si O2"
_cell_formula_units_Z 56
_cell_length_a 11.124825
_cell_length_b 20.088418
_cell_length_c 14.237688
_cell_angle_alpha 90.000000
_cell_angle_beta 115.285930
_cell_angle_gamma 90.000000
_cell_volume 2876.980244
_symmetry_space_group_name_H-M "C 2/C"
_symmetry_group_IT_number 15
_symmetry_cell_setting 'monoclinic'
loop_
_space_group_symop_operation_xyz
x,y,z
-x,y,1/2-z
-x,-y,-z
x,-y,1/2+z
1/2+x,1/2+y,z
1/2-x,1/2+y,1/2-z
1/2-x,1/2-y,-z
1/2+x,1/2-y,1/2+z
loop_
_atom_site_type_symbol
_atom_site_label
_atom_site_fract_x
_atom_site_fract_y
_atom_site_fract_z
Si Si1 0.853949 0.535978 0.158860
Si Si2 0.983236 0.290568 0.525571
Si Si3 0.647053 0.826863 0.747202
Si Si4 0.715684 0.090624 0.553332
Si Si5 0.273795 0.902111 0.224737
Si Si6 0.986794 0.846034 0.134760
Si Si7 0.908402 0.263257 0.300054
O O1 0.799957 0.604586 0.188627
O O2 0.795082 0.465773 0.168162
O O3 0.000000 0.534152 0.250000
O O4 0.848985 0.543431 0.045196
O O5 0.855979 0.338409 0.485355
O O6 0.959591 0.221453 0.570628
O O7 0.000116 0.274409 0.422042
O O8 0.099581 0.327530 0.622485
O O9 0.500000 0.814808 0.750000
O O10 0.771147 0.774463 0.787650
O O11 0.707130 0.074346 0.660366
O O12 0.869397 0.101892 0.581451
O O13 0.363171 0.835858 0.247016
O O14 0.126865 0.876302 0.155302
O O15 0.000000 0.831480 0.250000
O O16 0.000000 0.230370 0.250000
#
# Coordination Sequence:
#
# PCOD9270750 Si02
#       7
#     8   8   8   8   8   8   8
#     4  11  22  40  60  88 122 156 212 263 301 359
#     4  11  20  35  65  92 119 157 207 259 312 357
#     4  11  22  39  67  97 117 156 217 266 300 358
#     4  10  21  36  61  92 118 158 203 266 313 350
#     4  10  23  40  59  87 123 167 202 247 309 382
#     4  10  20  35  63  95 125 149 205 265 313 363
#     4  11  25  42  59  90 133 167 200 252 320 375
#
# _framework density 19.464853000000002
#
# number of rings (size 3 to 8) (size 9 to 14) (size 15 to 20)
#    0.000    1.429    4.286    2.143    4.000    1.714 
#    2.571    2.143    0.000    0.000    0.000    0.000 
#    0.000    0.000    0.000    0.000    0.000    0.000 
#
# Total GULP energy -156024.662119 kJ/mol
# GULP energy per Si atom -5572.309361 kJ/mol
# Density = 1.942055 g / cm^3
# Si number density = 19.464853 Si / 1000 Ang^3
#
#
#
# Elastic Constant Matrix: (Units=GPa)
#
#
# Indices 1 2 3 4 5 6 
#
# 1 53.5645 21.8162 9.8515 0.0000 -7.9356 0.0000
# 2 21.8162 66.6715 -16.6167 0.0000 -15.8514 0.0000
# 3 9.8515 -16.6167 67.0007 0.0000 -0.3462 0.0000
# 4 0.0000 0.0000 0.0000 -473.2351 0.0000 61.8884
# 5 -7.9356 -15.8514 -0.3462 0.0000 13.8664 0.0000
# 6 0.0000 0.0000 0.0000 61.8884 0.0000 -48.6169
#
#
#
# Elastic Compliance Matrix: (Units=1/GPa)
#
#
# Indices 1 2 3 4 5 6 
#
# 1 0.023579 -0.008101 -0.005455 0.000000 0.004097 0.000000
# 2 -0.008101 0.025392 0.007615 0.000000 0.024581 0.000000
# 3 -0.005455 0.007615 0.017647 0.000000 0.006024 0.000000
# 4 0.000000 0.000000 0.000000 -0.002535 0.000000 -0.003227
# 5 0.004097 0.024581 0.006024 0.000000 0.102712 0.000000
# 6 0.000000 0.000000 0.000000 -0.003227 0.000000 -0.024677
#
#
# Mechanical properties :
#
#
# Convention : Reuss Voigt Hill
#
# Bulk Modulus (GPa) = 18.26899 24.14875 21.20887
# Shear Modulus (GPa) = 29.02874 -90.11809 -30.54468
#
# Velocity S-wave (km/s) = 3.86598 -6.81163 -3.96564
# Velocity P-wave (km/s) = 5.41606 7.03073 3.16998
#
# Compressibility (1/GPa) = 0.05473756
#
# Stress axis : x y z
#
# Youngs Moduli (GPa) = 42.41123 39.38264 56.66653
#
# Poissons Ratio (x) = 0.31903 0.30910
# Poissons Ratio (y) = 0.34356 -0.43154
# Poissons Ratio (z) = 0.23134 -0.29992
#
# Static dielectric constant tensor:
#      x y z
#    x 1.770220 0.000000 0.024380 
#    y 0.000000 1.709320 0.000000 
#    z 0.024380 0.000000 1.737530 
# 
# From -- ./inp_files/146180.got.cif
#   From: 2010.05.17/outbox.cif.g08.bks.cpg/sg15_74_cif.got.tgz:146180.got - 2010.06.03 18:47:42.
