data_PCOD9270362
_publ_section_title
;
Structure prediction by ZEFSAII (Michael W. Deem and Ramdas Pophale) SiO2 
 PCOD9270362
Probable space group: C 2/C
;
_chemical_formula_sum "Si O2"
_cell_formula_units_Z 64
_cell_length_a 5.288886
_cell_length_b 21.441583
_cell_length_c 26.424460
_cell_angle_alpha 90.000000
_cell_angle_beta 92.814219
_cell_angle_gamma 90.000000
_cell_volume 2992.975007
_symmetry_space_group_name_H-M "C 2/C"
_symmetry_group_IT_number 15
_symmetry_cell_setting 'monoclinic'
loop_
_space_group_symop_operation_xyz
x,y,z
-x,y,1/2-z
-x,-y,-z
x,-y,1/2+z
1/2+x,1/2+y,z
1/2-x,1/2+y,1/2-z
1/2-x,1/2-y,-z
1/2+x,1/2-y,1/2+z
loop_
_atom_site_type_symbol
_atom_site_label
_atom_site_fract_x
_atom_site_fract_y
_atom_site_fract_z
Si Si1 0.304298 0.180085 0.937901
Si Si2 0.244411 0.048816 0.717523
Si Si3 0.999871 0.910073 0.115060
Si Si4 0.214867 0.390937 0.891803
Si Si5 0.306522 0.906640 0.012740
Si Si6 0.523446 0.300918 0.533584
Si Si7 0.244583 0.898612 0.718800
Si Si8 0.276730 0.467091 0.585671
O O1 0.426949 0.119027 0.965160
O O2 0.511778 0.235019 0.938610
O O3 0.155665 0.154543 0.888358
O O4 0.106459 0.207753 0.976272
O O5 0.500000 0.066121 0.750000
O O6 0.191380 0.081332 0.663190
O O7 0.000000 0.061407 0.750000
O O8 0.251952 0.973708 0.709329
O O9 0.142148 0.914958 0.061990
O O10 0.799135 0.966874 0.113503
O O11 0.260413 0.336699 0.932637
O O12 0.260623 0.367127 0.835805
O O13 0.442681 0.439110 0.905132
O O14 0.946007 0.425393 0.892543
O O15 0.286694 0.965153 0.974863
O O16 0.200522 0.850451 0.975909
O O17 0.500000 0.881864 0.750000
O O18 0.000000 0.885467 0.750000
#
# Coordination Sequence:
#
# PCOD9270362 Si02
#       8
#     8   8   8   8   8   8   8   8
#     4  10  20  37  60  83 125 159 212 244 296 363
#     4  10  23  39  59  84 117 155 199 250 298 357
#     4  11  24  36  59  90 123 163 200 248 310 370
#     4  11  21  38  61  87 121 159 196 251 302 359
#     4  10  21  37  56  90 125 165 198 250 301 364
#     4   9  20  38  57  88 115 165 210 249 291 359
#     4  10  20  35  58  85 114 148 194 249 306 356
#     4  11  23  36  58  90 130 162 190 236 306 376
#
# _framework density 21.383405
#
# number of rings (size 3 to 8) (size 9 to 14) (size 15 to 20)
#    0.000    1.750    2.500    1.500    7.000    0.500 
#    0.000    0.000    0.000    0.750    0.000    0.000 
#    0.000    0.000    0.000    0.000    0.000    0.000 
#
# Total GULP energy -178586.960902 kJ/mol
# GULP energy per Si atom -5580.842528 kJ/mol
# Density = 2.133474 g / cm^3
# Si number density = 21.383405 Si / 1000 Ang^3
#
#
#
# Elastic Constant Matrix: (Units=GPa)
#
#
# Indices 1 2 3 4 5 6 
#
# 1 94.2779 16.5144 39.2725 0.0000 9.8141 0.0000
# 2 16.5144 61.6436 23.0073 0.0000 17.7546 0.0000
# 3 39.2725 23.0073 117.3473 0.0000 13.7964 0.0000
# 4 0.0000 0.0000 0.0000 21.4044 0.0000 8.4022
# 5 9.8141 17.7546 13.7964 0.0000 34.9350 0.0000
# 6 0.0000 0.0000 0.0000 8.4022 0.0000 17.4782
#
#
#
# Elastic Compliance Matrix: (Units=1/GPa)
#
#
# Indices 1 2 3 4 5 6 
#
# 1 0.012580 -0.001616 -0.003748 0.000000 -0.001232 0.000000
# 2 -0.001616 0.020075 -0.002358 0.000000 -0.008817 0.000000
# 3 -0.003748 -0.002358 0.010459 0.000000 -0.001879 0.000000
# 4 0.000000 0.000000 0.000000 0.057586 0.000000 -0.027683
# 5 -0.001232 -0.008817 -0.001879 0.000000 0.034194 0.000000
# 6 0.000000 0.000000 0.000000 -0.027683 0.000000 0.070522
#
#
# Mechanical properties :
#
#
# Convention : Reuss Voigt Hill
#
# Bulk Modulus (GPa) = 36.14241 47.87302 42.00772
# Shear Modulus (GPa) = 21.73112 27.72851 24.72981
#
# Velocity S-wave (km/s) = 3.19134 3.60492 3.40442
# Velocity P-wave (km/s) = 5.52434 6.30585 5.92799
#
# Compressibility (1/GPa) = 0.02766832
#
# Stress axis : x y z
#
# Youngs Moduli (GPa) = 79.49302 49.81320 95.60722
#
# Poissons Ratio (x) = 0.08051 0.35836
# Poissons Ratio (y) = 0.12848 0.22548
# Poissons Ratio (z) = 0.29796 0.11748
#
# Static dielectric constant tensor:
#      x y z
#    x 1.814360 0.000000 -0.009250 
#    y 0.000000 1.884930 0.000000 
#    z -0.009250 0.000000 1.786180 
# 
# From -- ./inp_files/261721.got.cif
#   From: 2010.05.17/outbox.cif.g08.bks.cpg/sg15_131_cif.got.tgz:261721.got - 2010.06.03 18:47:42.
