data_PCOD9270206
_publ_section_title
;
Structure prediction by ZEFSAII (Michael W. Deem and Ramdas Pophale) SiO2 
 PCOD9270206
Probable space group: C 2/C
;
_chemical_formula_sum "Si O2"
_cell_formula_units_Z 64
_cell_length_a 26.126943
_cell_length_b 10.803414
_cell_length_c 17.925378
_cell_angle_alpha 90.000000
_cell_angle_beta 39.850779
_cell_angle_gamma 90.000000
_cell_volume 3242.155948
_symmetry_space_group_name_H-M "C 2/C"
_symmetry_group_IT_number 15
_symmetry_cell_setting 'monoclinic'
loop_
_space_group_symop_operation_xyz
x,y,z
-x,y,1/2-z
-x,-y,-z
x,-y,1/2+z
1/2+x,1/2+y,z
1/2-x,1/2+y,1/2-z
1/2-x,1/2-y,-z
1/2+x,1/2-y,1/2+z
loop_
_atom_site_type_symbol
_atom_site_label
_atom_site_fract_x
_atom_site_fract_y
_atom_site_fract_z
Si Si1 0.214937 0.091906 0.413549
Si Si2 0.510488 0.147596 0.901181
Si Si3 0.862520 0.795033 0.804466
Si Si4 0.110677 0.636106 0.583540
Si Si5 0.878434 0.456504 0.641931
Si Si6 0.216258 0.181104 0.882025
Si Si7 0.744365 0.535082 0.548864
Si Si8 0.701339 0.838691 0.367299
O O1 0.299044 0.088353 0.273241
O O2 0.228315 0.099336 0.487569
O O3 0.166226 0.207058 0.433803
O O4 0.180997 0.954000 0.437712
O O5 0.561147 0.273663 0.834307
O O6 0.471712 0.108345 0.865330
O O7 0.573040 0.043471 0.855760
O O8 0.441770 0.143153 0.040746
O O9 0.890655 0.739544 0.851203
O O10 0.791957 0.707068 0.851277
O O11 0.820848 0.926769 0.863501
O O12 0.159636 0.706033 0.463629
O O13 0.167001 0.527060 0.550599
O O14 0.854784 0.549245 0.599280
O O15 0.246437 0.185021 0.764381
O O16 0.747176 0.618772 0.619322
#
# Coordination Sequence:
#
# PCOD9270206 Si02
#       8
#     8   8   8   8   8   8   8   8
#     4  11  20  38  59  84 123 156 200 249 301 358
#     4  11  20  34  59  85 121 151 192 247 309 361
#     4  11  20  35  57  87 117 148 198 258 301 342
#     4  11  19  35  58  86 115 152 193 254 304 343
#     4  10  22  37  54  91 122 152 202 252 298 368
#     4  10  20  35  56  89 115 148 202 258 292 354
#     4  11  21  37  57  91 119 149 206 254 296 363
#     4  11  22  34  60  86 119 159 192 248 310 357
#
# _framework density 19.739951000000001
#
# number of rings (size 3 to 8) (size 9 to 14) (size 15 to 20)
#    0.000    1.250    6.250    2.250    5.250    0.000 
#    0.000    0.000    0.000    8.250    0.000    0.000 
#    0.000    0.000    0.000    0.000    0.000    0.000 
#
# Total GULP energy -178342.448319 kJ/mol
# GULP energy per Si atom -5573.201510 kJ/mol
# Density = 1.969502 g / cm^3
# Si number density = 19.739951 Si / 1000 Ang^3
#
#
#
# Elastic Constant Matrix: (Units=GPa)
#
#
# Indices 1 2 3 4 5 6 
#
# 1 94.8663 30.9696 6.5106 0.0000 16.6984 0.0000
# 2 30.9696 63.4662 16.7043 -0.0001 12.1203 0.0000
# 3 6.5106 16.7043 32.2663 0.0000 -9.6444 0.0000
# 4 0.0000 -0.0001 0.0000 21.9514 0.0000 6.5430
# 5 16.6984 12.1203 -9.6444 0.0000 26.7738 0.0000
# 6 0.0000 0.0000 0.0000 6.5430 0.0000 32.5843
#
#
#
# Elastic Compliance Matrix: (Units=1/GPa)
#
#
# Indices 1 2 3 4 5 6 
#
# 1 0.013471 -0.004508 -0.002561 0.000000 -0.007283 0.000000
# 2 -0.004508 0.025005 -0.016337 0.000000 -0.014393 0.000000
# 3 -0.002561 -0.016337 0.047801 0.000000 0.026212 0.000000
# 4 0.000000 0.000000 0.000000 0.048455 0.000000 -0.009730
# 5 -0.007283 -0.014393 0.026212 0.000000 0.057850 0.000000
# 6 0.000000 0.000000 0.000000 -0.009730 0.000000 0.032643
#
#
# Mechanical properties :
#
#
# Convention : Reuss Voigt Hill
#
# Bulk Modulus (GPa) = 25.33980 33.21863 29.27921
# Shear Modulus (GPa) = 17.53195 25.35619 21.44407
#
# Velocity S-wave (km/s) = 2.98341 3.58790 3.29953
# Velocity P-wave (km/s) = 4.97316 5.83341 5.42038
#
# Compressibility (1/GPa) = 0.03946361
#
# Stress axis : x y z
#
# Youngs Moduli (GPa) = 74.23547 39.99203 20.91987
#
# Poissons Ratio (x) = 0.18030 0.05358
# Poissons Ratio (y) = 0.33468 0.34178
# Poissons Ratio (z) = 0.19012 0.65337
#
# Static dielectric constant tensor:
#      x y z
#    x 1.728180 0.000000 -0.004760 
#    y 0.000000 1.742460 0.000000 
#    z -0.004760 0.000000 1.771280 
# 
# From -- ./inp_files/219134.got.cif
#   From: 2010.05.17/outbox.cif.g08.bks.cpg/sg15_110_cif.got.tgz:219134.got - 2010.06.03 18:47:42.
