data_PCOD9270187
_publ_section_title
;
Structure prediction by ZEFSAII (Michael W. Deem and Ramdas Pophale) SiO2 
 PCOD9270187
Probable space group: C 2/C
;
_chemical_formula_sum "Si O2"
_cell_formula_units_Z 64
_cell_length_a 16.219991
_cell_length_b 20.753482
_cell_length_c 12.154037
_cell_angle_alpha 90.000000
_cell_angle_beta 127.390615
_cell_angle_gamma 90.000000
_cell_volume 3250.601589
_symmetry_space_group_name_H-M "C 2/C"
_symmetry_group_IT_number 15
_symmetry_cell_setting 'monoclinic'
loop_
_space_group_symop_operation_xyz
x,y,z
-x,y,1/2-z
-x,-y,-z
x,-y,1/2+z
1/2+x,1/2+y,z
1/2-x,1/2+y,1/2-z
1/2-x,1/2-y,-z
1/2+x,1/2-y,1/2+z
loop_
_atom_site_type_symbol
_atom_site_label
_atom_site_fract_x
_atom_site_fract_y
_atom_site_fract_z
Si Si1 0.435158 0.563065 0.985678
Si Si2 0.249425 0.768249 0.842966
Si Si3 0.771203 0.597127 0.089316
Si Si4 0.175792 0.266664 0.838124
Si Si5 0.380875 0.172307 0.619558
Si Si6 0.651717 0.599025 0.227285
Si Si7 0.899438 0.868472 0.229607
Si Si8 0.741403 0.959612 0.490054
O O1 0.396685 0.602086 0.848268
O O2 0.337678 0.549763 0.984143
O O3 0.500000 0.500000 0.000000
O O4 0.528042 0.599453 0.122479
O O5 0.260906 0.759549 0.723411
O O6 0.193415 0.708654 0.853747
O O7 0.184056 0.833316 0.807068
O O8 0.357852 0.787209 0.989175
O O9 0.849254 0.657371 0.169945
O O10 0.701901 0.594676 0.145449
O O11 0.810934 0.526525 0.089437
O O12 0.696663 0.614376 0.926268
O O13 0.093730 0.209305 0.761122
O O14 0.250000 0.250000 0.000000
O O15 0.500000 0.174672 0.750000
O O16 0.339340 0.099321 0.577236
O O17 0.703084 0.543649 0.344854
O O18 0.000000 0.895737 0.250000
#
# Coordination Sequence:
#
# PCOD9270187 Si02
#       8
#     8   8   8   8   8   8   8   8
#     4  12  21  33  56  93 122 153 187 236 301 367
#     4   9  20  39  60  86 117 152 194 248 298 349
#     4  10  20  38  54  80 115 157 191 240 288 350
#     4   9  20  37  58  82 114 156 197 237 293 344
#     4  10  22  40  61  88 115 155 201 248 299 355
#     4  10  20  35  56  85 122 152 186 240 299 354
#     4  11  20  34  56  84 118 148 191 236 290 353
#     4  11  22  36  59  83 121 156 192 235 301 357
#
# _framework density 19.688662999999998
#
# number of rings (size 3 to 8) (size 9 to 14) (size 15 to 20)
#    0.000    1.750    2.500    1.875    0.000    4.000 
#    0.000    0.625    0.000    6.750    0.000    0.000 
#    0.000    0.000    0.000    0.000    0.000    0.000 
#
# Total GULP energy -178406.127247 kJ/mol
# GULP energy per Si atom -5575.191476 kJ/mol
# Density = 1.964385 g / cm^3
# Si number density = 19.688663 Si / 1000 Ang^3
#
#
#
# Elastic Constant Matrix: (Units=GPa)
#
#
# Indices 1 2 3 4 5 6 
#
# 1 37.7486 17.3037 29.5665 0.0000 -4.9761 0.0000
# 2 17.3037 109.6181 38.5685 0.0000 -5.8454 0.0000
# 3 29.5665 38.5685 107.7528 0.0000 -11.4941 0.0000
# 4 0.0000 0.0000 0.0000 27.0909 0.0000 -1.3506
# 5 -4.9761 -5.8454 -11.4941 0.0000 32.0863 0.0000
# 6 0.0000 0.0000 0.0000 -1.3506 0.0000 19.8108
#
#
#
# Elastic Compliance Matrix: (Units=1/GPa)
#
#
# Indices 1 2 3 4 5 6 
#
# 1 0.034399 -0.002379 -0.008385 0.000000 0.001898 0.000000
# 2 -0.002379 0.010612 -0.003097 0.000000 0.000455 0.000000
# 3 -0.008385 -0.003097 0.012987 0.000000 0.002788 0.000000
# 4 0.000000 0.000000 0.000000 0.037039 0.000000 0.002525
# 5 0.001898 0.000455 0.002788 0.000000 0.032542 0.000000
# 6 0.000000 0.000000 0.000000 0.002525 0.000000 0.050650
#
#
# Mechanical properties :
#
#
# Convention : Reuss Voigt Hill
#
# Bulk Modulus (GPa) = 33.02872 47.33300 40.18086
# Shear Modulus (GPa) = 23.14359 27.10964 25.12662
#
# Velocity S-wave (km/s) = 3.43224 3.71471 3.57627
# Velocity P-wave (km/s) = 5.70254 6.51856 6.12416
#
# Compressibility (1/GPa) = 0.03027668
#
# Stress axis : x y z
#
# Youngs Moduli (GPa) = 29.07053 94.23248 76.99858
#
# Poissons Ratio (x) = 0.22414 0.64563
# Poissons Ratio (y) = 0.06915 0.23848
# Poissons Ratio (z) = 0.24376 0.29186
#
# Static dielectric constant tensor:
#      x y z
#    x 1.634330 0.000000 -0.019340 
#    y 0.000000 1.791350 0.000000 
#    z -0.019340 0.000000 1.723570 
# 
# From -- ./inp_files/107534.got.cif
#   From: 2010.05.17/outbox.cif.g08.bks.cpg/sg15_54_cif.got.tgz:107534.got - 2010.06.03 18:47:42.
