data_PCOD9270696
_publ_section_title
;
Structure prediction by ZEFSAII (Michael W. Deem and Ramdas Pophale) SiO2 
 PCOD9270696
Probable space group: C 2/C
;
_chemical_formula_sum "Si O2"
_cell_formula_units_Z 48
_cell_length_a 21.631072
_cell_length_b 5.277288
_cell_length_c 22.874906
_cell_angle_alpha 90.000000
_cell_angle_beta 113.271374
_cell_angle_gamma 90.000000
_cell_volume 2398.807217
_symmetry_space_group_name_H-M "C 2/C"
_symmetry_group_IT_number 15
_symmetry_cell_setting 'monoclinic'
loop_
_space_group_symop_operation_xyz
x,y,z
-x,y,1/2-z
-x,-y,-z
x,-y,1/2+z
1/2+x,1/2+y,z
1/2-x,1/2+y,1/2-z
1/2-x,1/2-y,-z
1/2+x,1/2-y,1/2+z
loop_
_atom_site_type_symbol
_atom_site_label
_atom_site_fract_x
_atom_site_fract_y
_atom_site_fract_z
Si Si1 0.690544 0.437298 0.494342
Si Si2 0.710376 0.674400 0.256501
Si Si3 0.047023 0.071130 0.462244
Si Si4 0.739869 0.316602 0.900484
Si Si5 0.413521 0.435887 0.869806
Si Si6 0.117496 0.557515 0.067270
O O1 0.611896 0.393498 0.476304
O O2 0.692023 0.616239 0.436705
O O3 0.695348 0.999669 0.582134
O O4 0.720025 0.570878 0.562778
O O5 0.757192 0.432122 0.257528
O O6 0.637608 0.619853 0.201566
O O7 0.707160 0.702965 0.325259
O O8 0.078865 0.339691 0.495049
O O9 0.993969 0.052009 0.389707
O O10 0.000000 0.000000 0.500000
O O11 0.750000 0.750000 0.000000
O O12 0.389342 0.699019 0.891359
O O13 0.408558 0.188546 0.909667
#
# Coordination Sequence:
#
# PCOD9270696 Si02
#       6
#     8   8   8   8   8   8
#     4  10  23  41  64  92 130 170 216 273 332 387
#     4  12  23  37  64  96 130 166 215 267 320 387
#     4   9  21  37  62  94 123 168 215 270 323 385
#     4  10  22  38  59  94 125 168 217 264 323 391
#     4  11  20  38  56  96 122 159 209 262 322 375
#     4  10  20  35  62  89 125 156 208 265 315 375
#
# _framework density 20.009944999999998
#
# number of rings (size 3 to 8) (size 9 to 14) (size 15 to 20)
#    0.000    1.667    3.333    0.500    9.333    0.000 
#    9.000    0.833    0.000    0.000    0.000    0.000 
#    0.000    0.000    0.000    0.000    0.000    0.000 
#
# Total GULP energy -133681.602594 kJ/mol
# GULP energy per Si atom -5570.066775 kJ/mol
# Density = 1.996440 g / cm^3
# Si number density = 20.009945 Si / 1000 Ang^3
#
#
#
# Elastic Constant Matrix: (Units=GPa)
#
#
# Indices 1 2 3 4 5 6 
#
# 1 104.6036 30.0935 55.4304 0.0000 22.0713 -0.0001
# 2 30.0935 99.2673 27.1246 -0.0002 -10.2748 0.0004
# 3 55.4304 27.1246 181.5273 0.0001 17.8511 -0.0001
# 4 0.0000 -0.0002 0.0001 9.0045 -0.0002 1.6612
# 5 22.0713 -10.2748 17.8511 -0.0002 26.2489 0.0002
# 6 -0.0001 0.0004 -0.0001 1.6612 0.0002 33.4518
#
#
#
# Elastic Compliance Matrix: (Units=1/GPa)
#
#
# Indices 1 2 3 4 5 6 
#
# 1 0.015195 -0.005260 -0.002567 0.000000 -0.013091 0.000000
# 2 -0.005260 0.013136 -0.001390 0.000001 0.010510 0.000000
# 3 -0.002567 -0.001390 0.006796 0.000000 -0.003008 0.000000
# 4 0.000000 0.000001 0.000000 0.112082 0.000001 -0.005566
# 5 -0.013091 0.010510 -0.003008 0.000001 0.055264 0.000000
# 6 0.000000 0.000000 0.000000 -0.005566 0.000000 0.030170
#
#
# Mechanical properties :
#
#
# Convention : Reuss Voigt Hill
#
# Bulk Modulus (GPa) = 59.90352 67.85501 63.87927
# Shear Modulus (GPa) = 19.48237 31.92437 25.70337
#
# Velocity S-wave (km/s) = 3.12370 3.99861 3.58792
# Velocity P-wave (km/s) = 6.55834 7.43658 7.01123
#
# Compressibility (1/GPa) = 0.01669351
#
# Stress axis : x y z
#
# Youngs Moduli (GPa) = 65.80925 76.12528 147.14342
#
# Poissons Ratio (x) = 0.40043 0.37768
# Poissons Ratio (y) = 0.34617 0.20456
# Poissons Ratio (z) = 0.16891 0.10583
#
# Static dielectric constant tensor:
#      x y z
#    x 1.820350 0.000000 0.038110 
#    y 0.000000 1.844370 0.000000 
#    z 0.038110 0.000000 1.784460 
# 
# From -- ./inp_files/318165.got.cif
#   From: 2010.05.17/outbox.cif.g08.bks.cpg/sg15_160_cif.got.tgz:318165.got - 2010.06.03 18:47:42.
