data_PCOD9270273
_publ_section_title
;
Structure prediction by ZEFSAII (Michael W. Deem and Ramdas Pophale) SiO2 
 PCOD9270273
Probable space group: C 2/C
;
_chemical_formula_sum "Si O2"
_cell_formula_units_Z 60
_cell_length_a 11.628637
_cell_length_b 16.038622
_cell_length_c 21.992484
_cell_angle_alpha 90.000000
_cell_angle_beta 34.843058
_cell_angle_gamma 90.000000
_cell_volume 2343.460092
_symmetry_space_group_name_H-M "C 2/C"
_symmetry_group_IT_number 15
_symmetry_cell_setting 'monoclinic'
loop_
_space_group_symop_operation_xyz
x,y,z
-x,y,1/2-z
-x,-y,-z
x,-y,1/2+z
1/2+x,1/2+y,z
1/2-x,1/2+y,1/2-z
1/2-x,1/2-y,-z
1/2+x,1/2-y,1/2+z
loop_
_atom_site_type_symbol
_atom_site_label
_atom_site_fract_x
_atom_site_fract_y
_atom_site_fract_z
Si Si1 0.000000 0.019172 0.250000
Si Si2 0.214222 0.369067 0.972982
Si Si3 0.121967 0.945008 0.395853
Si Si4 0.265203 0.155278 0.470392
Si Si5 0.342997 0.411954 0.704092
Si Si6 0.259626 0.803565 0.413043
Si Si7 0.722383 0.286687 0.862360
Si Si8 0.664471 0.897033 0.434560
O O1 0.152592 0.959897 0.148624
O O2 0.148629 0.071106 0.228606
O O3 0.412499 0.413514 0.911742
O O4 0.298931 0.295286 0.891896
O O5 0.033603 0.415684 0.018912
O O6 0.133071 0.327932 0.070542
O O7 0.275012 0.877226 0.357924
O O8 0.950394 0.890969 0.436433
O O9 0.229457 0.009578 0.303931
O O10 0.000000 0.000000 0.500000
O O11 0.250000 0.250000 0.500000
O O12 0.323291 0.161627 0.374001
O O13 0.390443 0.114079 0.470424
O O14 0.250950 0.327920 0.715480
O O15 0.016492 0.799825 0.524363
O O16 0.748180 0.189689 0.867183
#
# Coordination Sequence:
#
# PCOD9270273 Si02
#       8
#     4   8   8   8   8   8   8   8
#     4  12  26  38  52  80 124 162 184 224 298 362
#     4   9  17  33  56  85 112 140 188 237 278 328
#     4  11  16  30  55  89 108 140 185 235 283 332
#     4   9  16  29  53  87 109 137 182 238 279 327
#     4  11  21  37  59  83 114 151 189 235 289 337
#     4   8  15  28  56  91 107 133 176 239 288 319
#     4   8  16  33  61  83 108 141 190 241 278 338
#     4  10  20  35  57  85 117 150 187 235 295 343
#
# _framework density 25.603166999999999
#
# number of rings (size 3 to 8) (size 9 to 14) (size 15 to 20)
#    0.000    2.400    5.333    1.600    0.000    0.533 
#    0.000    1.333    0.000    2.400    0.000    0.000 
#    0.000    0.000    0.000    0.000    0.000    0.000 
#
# Total GULP energy -167261.651310 kJ/mol
# GULP energy per Si atom -5575.388377 kJ/mol
# Density = 2.554489 g / cm^3
# Si number density = 25.603167 Si / 1000 Ang^3
#
#
#
# Elastic Constant Matrix: (Units=GPa)
#
#
# Indices 1 2 3 4 5 6 
#
# 1 158.8981 41.6579 40.7878 0.0006 25.8339 -0.0005
# 2 41.6579 111.1251 31.9760 -0.0006 27.2849 0.0000
# 3 40.7878 31.9760 41.5114 -0.0042 15.6753 0.0008
# 4 0.0006 -0.0006 -0.0042 11.4434 0.0002 26.0030
# 5 25.8339 27.2849 15.6753 0.0002 46.3061 0.0006
# 6 -0.0005 0.0000 0.0008 26.0030 0.0006 53.0613
#
#
#
# Elastic Compliance Matrix: (Units=1/GPa)
#
#
# Indices 1 2 3 4 5 6 
#
# 1 0.008648 -0.000676 -0.007229 0.000032 -0.001979 -0.000015
# 2 -0.000676 0.012434 -0.007212 0.000019 -0.004508 -0.000009
# 3 -0.007229 -0.007212 0.038548 -0.000137 -0.004767 0.000066
# 4 0.000032 0.000019 -0.000137 -0.769537 0.000017 0.377116
# 5 -0.001979 -0.004508 -0.004767 0.000017 0.026970 -0.000008
# 6 -0.000015 -0.000009 0.000066 0.377116 -0.000008 -0.165961
#
#
# Mechanical properties :
#
#
# Convention : Reuss Voigt Hill
#
# Bulk Modulus (GPa) = 34.01723 60.04201 47.02962
# Shear Modulus (GPa) = -6.18150 35.30303 14.56077
#
# Velocity S-wave (km/s) = -1.55550 3.71732 2.38735
# Velocity P-wave (km/s) = 3.17633 6.47507 5.09978
#
# Compressibility (1/GPa) = 0.02939686
#
# Stress axis : x y z
#
# Youngs Moduli (GPa) = 115.63371 80.42278 25.94163
#
# Poissons Ratio (x) = 0.05434 0.18754
# Poissons Ratio (y) = 0.07813 0.18708
# Poissons Ratio (z) = 0.83596 0.57999
#
# Static dielectric constant tensor:
#      x y z
#    x 1.928590 0.000000 -0.073550 
#    y 0.000000 2.129720 0.000000 
#    z -0.073550 0.000000 2.005730 
# 
# From -- ./inp_files/238710.got.cif
#   From: 2010.05.17/outbox.cif.g08.bks.cpg/sg15_120_cif.got.tgz:238710.got - 2010.06.03 18:47:42.
