data_PCOD9270738
_publ_section_title
;
Structure prediction by ZEFSAII (Michael W. Deem and Ramdas Pophale) SiO2 
 PCOD9270738
Probable space group: C 2/C
;
_chemical_formula_sum "Si O2"
_cell_formula_units_Z 64
_cell_length_a 16.344612
_cell_length_b 26.480478
_cell_length_c 13.773675
_cell_angle_alpha 90.000000
_cell_angle_beta 152.870372
_cell_angle_gamma 90.000000
_cell_volume 2718.441827
_symmetry_space_group_name_H-M "C 2/C"
_symmetry_group_IT_number 15
_symmetry_cell_setting 'monoclinic'
loop_
_space_group_symop_operation_xyz
x,y,z
-x,y,1/2-z
-x,-y,-z
x,-y,1/2+z
1/2+x,1/2+y,z
1/2-x,1/2+y,1/2-z
1/2-x,1/2-y,-z
1/2+x,1/2-y,1/2+z
loop_
_atom_site_type_symbol
_atom_site_label
_atom_site_fract_x
_atom_site_fract_y
_atom_site_fract_z
Si Si1 0.128887 0.844107 0.479161
Si Si2 0.638479 0.580114 0.720631
Si Si3 0.316695 0.016015 0.749156
Si Si4 0.180709 0.198497 0.379437
Si Si5 0.452361 0.734904 0.465297
Si Si6 0.309822 0.932009 0.594890
Si Si7 0.703978 0.394324 0.001955
Si Si8 0.792694 0.667628 0.789857
O O1 0.138095 0.789468 0.535546
O O2 0.298709 0.874169 0.618436
O O3 0.000000 0.840828 0.250000
O O4 0.032442 0.882575 0.455000
O O5 0.673404 0.538751 0.674829
O O6 0.798597 0.620962 0.869146
O O7 0.669916 0.558978 0.860240
O O8 0.316598 0.057812 0.661259
O O9 0.261455 0.965935 0.635328
O O10 0.500000 0.000000 0.000000
O O11 0.250000 0.250000 0.500000
O O12 0.145756 0.212083 0.232432
O O13 0.000000 0.189960 0.250000
O O14 0.277251 0.144432 0.496792
O O15 0.646538 0.708895 0.667443
O O16 0.460601 0.795276 0.460295
O O17 0.500000 0.945798 0.750000
O O18 0.500000 0.410066 0.750000
O O19 0.720920 0.358103 0.115559
#
# Coordination Sequence:
#
# PCOD9270738 Si02
#       8
#     8   8   8   8   8   8   8   8
#     4   9  22  42  65  94 127 173 230 278 333 414
#     4   9  21  43  66  88 132 176 216 277 335 408
#     4  11  23  42  69  96 131 172 225 285 347 406
#     4  11  19  35  58  93 135 178 218 272 338 404
#     4  11  19  37  61  95 133 176 223 275 329 408
#     4  11  22  43  67  91 129 168 215 284 354 395
#     4  10  20  38  62  93 133 179 226 267 331 413
#     4  10  20  35  63  90 135 176 221 269 329 397
#
# _framework density 23.542898000000001
#
# number of rings (size 3 to 8) (size 9 to 14) (size 15 to 20)
#    0.000    1.750    5.000    0.000    0.000    3.000 
#    2.250    6.875    0.000    0.000    0.000    0.000 
#    0.000    0.000    0.000    0.000    0.000    0.000 
#
# Total GULP energy -178259.359900 kJ/mol
# GULP energy per Si atom -5570.604997 kJ/mol
# Density = 2.348931 g / cm^3
# Si number density = 23.542898 Si / 1000 Ang^3
#
#
#
# Elastic Constant Matrix: (Units=GPa)
#
#
# Indices 1 2 3 4 5 6 
#
# 1 66.1869 13.7953 9.4429 0.0000 -17.3723 0.0000
# 2 13.7953 105.2902 36.7342 0.0000 -13.2054 0.0000
# 3 9.4429 36.7342 66.7177 0.0000 -9.4730 0.0000
# 4 0.0000 0.0000 0.0000 36.3985 0.0000 -13.3403
# 5 -17.3723 -13.2054 -9.4730 0.0000 29.9855 0.0000
# 6 0.0000 0.0000 0.0000 -13.3403 0.0000 47.1571
#
#
#
# Elastic Compliance Matrix: (Units=1/GPa)
#
#
# Indices 1 2 3 4 5 6 
#
# 1 0.017963 -0.000894 -0.000658 0.000000 0.009805 0.000000
# 2 -0.000894 0.012117 -0.006136 0.000000 0.002880 0.000000
# 3 -0.000658 -0.006136 0.018869 0.000000 0.002878 0.000000
# 4 0.000000 0.000000 0.000000 0.030652 0.000000 0.008671
# 5 0.009805 0.002880 0.002878 0.000000 0.041207 0.000000
# 6 0.000000 0.000000 0.000000 0.008671 0.000000 0.023659
#
#
# Mechanical properties :
#
#
# Convention : Reuss Voigt Hill
#
# Bulk Modulus (GPa) = 29.78679 39.79327 34.79003
# Shear Modulus (GPa) = 29.23433 34.58971 31.91202
#
# Velocity S-wave (km/s) = 3.52767 3.83720 3.68568
# Velocity P-wave (km/s) = 5.41038 6.04742 5.73775
#
# Compressibility (1/GPa) = 0.03357193
#
# Stress axis : x y z
#
# Youngs Moduli (GPa) = 55.67139 82.53148 52.99824
#
# Poissons Ratio (x) = 0.07380 0.03486
# Poissons Ratio (y) = 0.04978 0.32519
# Poissons Ratio (z) = 0.03662 0.50640
#
# Static dielectric constant tensor:
#      x y z
#    x 1.974310 0.000000 0.073720 
#    y 0.000000 2.035310 0.000000 
#    z 0.073720 0.000000 2.002030 
# 
# From -- ./inp_files/164284.got.cif
#   From: 2010.05.17/outbox.cif.g08.bks.cpg/sg15_83_cif.got.tgz:164284.got - 2010.06.03 18:47:42.
