data_PCOD9270494
_publ_section_title
;
Structure prediction by ZEFSAII (Michael W. Deem and Ramdas Pophale) SiO2 
 PCOD9270494
Probable space group: C 2/C
;
_chemical_formula_sum "Si O2"
_cell_formula_units_Z 48
_cell_length_a 11.078791
_cell_length_b 27.064896
_cell_length_c 13.793039
_cell_angle_alpha 90.000000
_cell_angle_beta 33.435861
_cell_angle_gamma 90.000000
_cell_volume 2278.834489
_symmetry_space_group_name_H-M "C 2/C"
_symmetry_group_IT_number 15
_symmetry_cell_setting 'monoclinic'
loop_
_space_group_symop_operation_xyz
x,y,z
-x,y,1/2-z
-x,-y,-z
x,-y,1/2+z
1/2+x,1/2+y,z
1/2-x,1/2+y,1/2-z
1/2-x,1/2-y,-z
1/2+x,1/2-y,1/2+z
loop_
_atom_site_type_symbol
_atom_site_label
_atom_site_fract_x
_atom_site_fract_y
_atom_site_fract_z
Si Si1 0.231054 0.292021 0.628837
Si Si2 0.609074 0.781042 0.915772
Si Si3 0.061998 0.114997 0.524025
Si Si4 0.679622 0.467575 0.198777
Si Si5 0.396031 0.963770 0.715091
Si Si6 0.348861 0.820598 0.266248
O O1 0.404417 0.248922 0.509527
O O2 0.220110 0.307319 0.750137
O O3 0.296500 0.340432 0.526138
O O4 0.000000 0.273491 0.750000
O O5 0.765156 0.735682 0.845278
O O6 0.505788 0.814770 0.067483
O O7 0.949374 0.079568 0.676072
O O8 0.861022 0.144628 0.608383
O O9 0.229565 0.080994 0.350421
O O10 0.500000 0.494821 0.250000
O O11 0.759744 0.497343 0.240586
O O12 0.892243 0.453012 0.993617
O O13 0.500000 0.980037 0.750000
O O14 0.500000 0.839746 0.250000
#
# Coordination Sequence:
#
# PCOD9270494 Si02
#       6
#     8   8   8   8   8   8
#     4  10  20  35  59  88 126 164 201 262 311 373
#     4   9  20  37  59  87 122 165 221 250 313 379
#     4  11  24  39  62  97 130 160 212 265 318 379
#     4  11  25  44  71  98 127 173 212 261 326 387
#     4  11  24  46  71  95 131 169 214 262 322 392
#     4  10  21  39  61  89 126 171 211 268 316 375
#
# _framework density 21.063397999999999
#
# number of rings (size 3 to 8) (size 9 to 14) (size 15 to 20)
#    0.000    1.667    1.667    2.000    2.333    0.667 
#    3.000    1.667    0.000    0.000    0.000    0.000 
#    0.000    0.000    0.000    0.000    0.000    0.000 
#
# Total GULP energy -133848.081917 kJ/mol
# GULP energy per Si atom -5577.003413 kJ/mol
# Density = 2.101546 g / cm^3
# Si number density = 21.063398 Si / 1000 Ang^3
#
#
#
# Elastic Constant Matrix: (Units=GPa)
#
#
# Indices 1 2 3 4 5 6 
#
# 1 111.0191 35.5613 37.2738 0.0000 -0.5065 0.0000
# 2 35.5613 49.5833 26.5276 0.0000 15.3184 0.0000
# 3 37.2738 26.5276 105.6580 0.0000 13.4838 0.0000
# 4 0.0000 0.0000 0.0000 -10.3418 0.0000 22.7868
# 5 -0.5065 15.3184 13.4838 0.0000 32.1365 0.0000
# 6 0.0000 0.0000 0.0000 22.7868 0.0000 -12.0893
#
#
#
# Elastic Compliance Matrix: (Units=1/GPa)
#
#
# Indices 1 2 3 4 5 6 
#
# 1 0.013147 -0.009718 -0.002975 0.000000 0.006088 0.000000
# 2 -0.009718 0.033333 -0.003057 0.000000 -0.014759 0.000000
# 3 -0.002975 -0.003057 0.011730 0.000000 -0.003511 0.000000
# 4 0.000000 0.000000 0.000000 0.030667 0.000000 0.057803
# 5 0.006088 -0.014759 -0.003511 0.000000 0.039722 0.000000
# 6 0.000000 0.000000 0.000000 0.057803 0.000000 0.026234
#
#
# Mechanical properties :
#
#
# Convention : Reuss Voigt Hill
#
# Bulk Modulus (GPa) = 37.43982 51.66509 44.55245
# Shear Modulus (GPa) = 25.61002 13.06760 19.33881
#
# Velocity S-wave (km/s) = 3.49069 2.49347 3.03334
# Velocity P-wave (km/s) = 5.83609 5.73337 5.78496
#
# Compressibility (1/GPa) = 0.02670953
#
# Stress axis : x y z
#
# Youngs Moduli (GPa) = 76.06334 29.99996 85.25434
#
# Poissons Ratio (x) = 0.29155 0.25362
# Poissons Ratio (y) = 0.73920 0.26063
# Poissons Ratio (z) = 0.22628 0.09171
#
# Static dielectric constant tensor:
#      x y z
#    x 1.804020 0.000000 0.003030 
#    y 0.000000 1.742630 0.000000 
#    z 0.003030 0.000000 1.675340 
# 
# From -- ./inp_files/148681.got.cif
#   From: 2010.05.17/outbox.cif.g08.bks.cpg/sg15_75_cif.got.tgz:148681.got - 2010.06.03 18:47:42.
