data_PCOD9270192
_publ_section_title
;
Structure prediction by ZEFSAII (Michael W. Deem and Ramdas Pophale) SiO2 
 PCOD9270192
Probable space group: C 2/C
;
_chemical_formula_sum "Si O2"
_cell_formula_units_Z 48
_cell_length_a 18.072253
_cell_length_b 22.635998
_cell_length_c 11.931935
_cell_angle_alpha 90.000000
_cell_angle_beta 31.769969
_cell_angle_gamma 90.000000
_cell_volume 2569.979521
_symmetry_space_group_name_H-M "C 2/C"
_symmetry_group_IT_number 15
_symmetry_cell_setting 'monoclinic'
loop_
_space_group_symop_operation_xyz
x,y,z
-x,y,1/2-z
-x,-y,-z
x,-y,1/2+z
1/2+x,1/2+y,z
1/2-x,1/2+y,1/2-z
1/2-x,1/2-y,-z
1/2+x,1/2-y,1/2+z
loop_
_atom_site_type_symbol
_atom_site_label
_atom_site_fract_x
_atom_site_fract_y
_atom_site_fract_z
Si Si1 0.830457 0.446862 0.990133
Si Si2 0.315553 0.879337 0.791770
Si Si3 0.839825 0.235450 0.993648
Si Si4 0.652499 0.922554 0.991990
Si Si5 0.653373 0.192184 0.609609
Si Si6 0.373466 0.155202 0.599628
O O1 0.767666 0.416880 0.960156
O O2 0.780723 0.514034 0.067793
O O3 0.000000 0.449749 0.750000
O O4 0.811181 0.403907 0.122180
O O5 0.354922 0.917602 0.632609
O O6 0.460617 0.847833 0.640883
O O7 0.207168 0.828207 0.901785
O O8 0.000000 0.234173 0.750000
O O9 0.750000 0.250000 0.000000
O O10 0.813364 0.287005 0.117023
O O11 0.500000 0.922596 0.250000
O O12 0.718098 0.861288 0.952301
O O13 0.500000 0.206352 0.750000
O O14 0.750000 0.250000 0.500000
O O15 0.636446 0.163860 0.754974
#
# Coordination Sequence:
#
# PCOD9270192 Si02
#       6
#     8   8   8   8   8   8
#     4   9  20  31  56  87 113 149 190 241 295 333
#     4  11  20  37  55  85 118 148 190 239 290 343
#     4  12  22  37  59  88 118 150 192 240 292 342
#     4  10  20  35  56  86 117 152 192 237 288 344
#     4  11  23  39  57  86 117 157 194 232 287 351
#     4  11  20  35  58  85 122 145 193 243 289 339
#
# _framework density 18.677191000000001
#
# number of rings (size 3 to 8) (size 9 to 14) (size 15 to 20)
#    0.000    1.333    6.667    1.500    2.333    2.000 
#    0.000    0.000    0.000    2.000    0.000    0.000 
#    0.000    0.000    0.000    0.000    0.000    0.000 
#
# Total GULP energy -133769.700256 kJ/mol
# GULP energy per Si atom -5573.737511 kJ/mol
# Density = 1.863468 g / cm^3
# Si number density = 18.677191 Si / 1000 Ang^3
#
#
#
# Elastic Constant Matrix: (Units=GPa)
#
#
# Indices 1 2 3 4 5 6 
#
# 1 121.5991 59.4450 29.4644 -0.0006 21.7692 0.0030
# 2 59.4450 161.9315 24.6975 0.0001 6.3755 0.0014
# 3 29.4644 24.6975 32.2617 0.0019 7.7823 0.0030
# 4 -0.0006 0.0001 0.0019 19.4518 -0.0003 -1.2462
# 5 21.7692 6.3755 7.7823 -0.0003 24.0036 -0.0033
# 6 0.0030 0.0014 0.0030 -1.2462 -0.0033 22.5609
#
#
#
# Elastic Compliance Matrix: (Units=1/GPa)
#
#
# Indices 1 2 3 4 5 6 
#
# 1 0.013227 -0.003386 -0.007389 0.000001 -0.008701 -0.000002
# 2 -0.003386 0.007859 -0.003429 0.000000 0.002095 0.000001
# 3 -0.007389 -0.003429 0.041804 -0.000005 -0.005941 -0.000005
# 4 0.000001 0.000000 -0.000005 0.051592 0.000002 0.002850
# 5 -0.008701 0.002095 -0.005941 0.000002 0.050921 0.000009
# 6 -0.000002 0.000001 -0.000005 0.002850 0.000009 0.044482
#
#
# Mechanical properties :
#
#
# Convention : Reuss Voigt Hill
#
# Bulk Modulus (GPa) = 29.00206 60.33402 44.66804
# Shear Modulus (GPa) = 20.01705 26.68231 23.34968
#
# Velocity S-wave (km/s) = 3.27729 3.78379 3.53961
# Velocity P-wave (km/s) = 5.46650 7.17378 6.37753
#
# Compressibility (1/GPa) = 0.03448031
#
# Stress axis : x y z
#
# Youngs Moduli (GPa) = 75.60142 127.24210 23.92144
#
# Poissons Ratio (x) = 0.43086 0.17676
# Poissons Ratio (y) = 0.25600 0.08203
# Poissons Ratio (z) = 0.55864 0.43635
#
# Static dielectric constant tensor:
#      x y z
#    x 1.675850 0.000000 0.021280 
#    y 0.000000 1.697860 0.000000 
#    z 0.021280 0.000000 1.655340 
# 
# From -- ./inp_files/99297.got.cif
#   From: 2010.05.17/outbox.cif.g08.bks.cpg/sg15_50_cif.got.tgz:99297.got - 2010.06.03 18:47:42.
