data_PCOD9270324
_publ_section_title
;
Structure prediction by ZEFSAII (Michael W. Deem and Ramdas Pophale) SiO2 
 PCOD9270324
Probable space group: C 2/C
;
_chemical_formula_sum "Si O2"
_cell_formula_units_Z 56
_cell_length_a 18.305043
_cell_length_b 25.906204
_cell_length_c 9.154746
_cell_angle_alpha 90.000000
_cell_angle_beta 143.324791
_cell_angle_gamma 90.000000
_cell_volume 2592.969924
_symmetry_space_group_name_H-M "C 2/C"
_symmetry_group_IT_number 15
_symmetry_cell_setting 'monoclinic'
loop_
_space_group_symop_operation_xyz
x,y,z
-x,y,1/2-z
-x,-y,-z
x,-y,1/2+z
1/2+x,1/2+y,z
1/2-x,1/2+y,1/2-z
1/2-x,1/2-y,-z
1/2+x,1/2-y,1/2+z
loop_
_atom_site_type_symbol
_atom_site_label
_atom_site_fract_x
_atom_site_fract_y
_atom_site_fract_z
Si Si1 0.853506 0.828816 0.152008
Si Si2 0.239525 0.206879 0.363260
Si Si3 0.953307 0.121472 0.337153
Si Si4 0.000000 0.353413 0.250000
Si Si5 0.500000 0.026574 0.250000
Si Si6 0.604309 0.939257 0.629256
Si Si7 0.876236 0.920516 0.981682
Si Si8 0.626704 0.224084 0.416147
O O1 0.867266 0.859802 0.022051
O O2 0.913801 0.772112 0.251415
O O3 0.924044 0.864221 0.378042
O O4 0.717312 0.815287 0.983691
O O5 0.250000 0.250000 0.500000
O O6 0.143760 0.167199 0.287645
O O7 0.373540 0.179510 0.560067
O O8 0.196213 0.241471 0.151948
O O9 0.890352 0.076054 0.330291
O O10 0.000000 0.112430 0.250000
O O11 0.031288 0.391645 0.436579
O O12 0.420197 0.058716 0.237029
O O13 0.566591 0.988924 0.472032
O O14 0.748991 0.938936 0.836851
O O15 0.000000 0.941887 0.250000
O O16 0.500000 0.197432 0.250000
#
# Coordination Sequence:
#
# PCOD9270324 Si02
#       8
#     8   8   8   4   4   8   8   8
#     4  10  20  35  58  78 113 165 218 263 323 378
#     4  12  25  37  57  88 127 172 225 287 329 363
#     4  11  21  39  55  82 117 170 217 268 322 369
#     4  11  24  42  66  90 134 178 226 274 324 399
#     4   9  22  42  78 106 132 162 198 268 338 407
#     4  10  20  46  71 102 134 166 208 262 338 407
#     4  10  20  41  64  87 127 168 208 256 320 392
#     4  11  20  36  56  77 112 166 223 278 326 376
#
# _framework density 21.596857
#
# number of rings (size 3 to 8) (size 9 to 14) (size 15 to 20)
#    0.000    1.429    4.286    1.286    3.000    1.143 
#    9.000    0.714    0.000    0.000    0.000    0.000 
#    0.000    0.000    0.000    0.000    0.000    0.000 
#
# Total GULP energy -155888.441423 kJ/mol
# GULP energy per Si atom -5567.444337 kJ/mol
# Density = 2.154770 g / cm^3
# Si number density = 21.596857 Si / 1000 Ang^3
#
#
#
# Elastic Constant Matrix: (Units=GPa)
#
#
# Indices 1 2 3 4 5 6 
#
# 1 215.0175 27.5597 75.1411 0.0000 -0.6753 0.0000
# 2 27.5597 24.0600 14.1769 0.0000 1.5671 0.0000
# 3 75.1411 14.1769 73.2894 0.0000 10.3784 0.0000
# 4 0.0000 0.0000 0.0000 -49.8941 0.0000 -3.5755
# 5 -0.6753 1.5671 10.3784 0.0000 48.5010 0.0000
# 6 0.0000 0.0000 0.0000 -3.5755 0.0000 24.7181
#
#
#
# Elastic Compliance Matrix: (Units=1/GPa)
#
#
# Indices 1 2 3 4 5 6 
#
# 1 0.007848 -0.004757 -0.007387 0.000000 0.001844 0.000000
# 2 -0.004757 0.049802 -0.004661 0.000000 -0.000678 0.000000
# 3 -0.007387 -0.004661 0.022804 0.000000 -0.004832 0.000000
# 4 0.000000 0.000000 0.000000 -0.019837 0.000000 -0.002869
# 5 0.001844 -0.000678 -0.004832 0.000000 0.021700 0.000000
# 6 0.000000 0.000000 0.000000 -0.002869 0.000000 0.040041
#
#
# Mechanical properties :
#
#
# Convention : Reuss Voigt Hill
#
# Bulk Modulus (GPa) = 21.34708 60.68026 41.01367
# Shear Modulus (GPa) = 29.14079 17.69761 23.41920
#
# Velocity S-wave (km/s) = 3.67728 2.86571 3.29656
# Velocity P-wave (km/s) = 5.28542 6.25360 5.78978
#
# Compressibility (1/GPa) = 0.04684481
#
# Stress axis : x y z
#
# Youngs Moduli (GPa) = 127.42486 20.07965 43.85209
#
# Poissons Ratio (x) = 0.09551 0.32394
# Poissons Ratio (y) = 0.60613 0.20437
# Poissons Ratio (z) = 0.94129 0.09358
#
# Static dielectric constant tensor:
#      x y z
#    x 1.844890 0.000000 0.036250 
#    y 0.000000 2.003580 0.000000 
#    z 0.036250 0.000000 1.747950 
# 
# From -- ./inp_files/52682.got.cif
#   From: 2010.05.17/outbox.cif.g08.bks.cpg/sg15_27_cif.got.tgz:52682.got - 2010.06.03 18:47:42.
