data_PCOD9270455
_publ_section_title
;
Structure prediction by ZEFSAII (Michael W. Deem and Ramdas Pophale) SiO2 
 PCOD9270455
Probable space group: C 2/C
;
_chemical_formula_sum "Si O2"
_cell_formula_units_Z 56
_cell_length_a 20.080333
_cell_length_b 9.455088
_cell_length_c 15.974895
_cell_angle_alpha 90.000000
_cell_angle_beta 118.866491
_cell_angle_gamma 90.000000
_cell_volume 2656.153485
_symmetry_space_group_name_H-M "C 2/C"
_symmetry_group_IT_number 15
_symmetry_cell_setting 'monoclinic'
loop_
_space_group_symop_operation_xyz
x,y,z
-x,y,1/2-z
-x,-y,-z
x,-y,1/2+z
1/2+x,1/2+y,z
1/2-x,1/2+y,1/2-z
1/2-x,1/2-y,-z
1/2+x,1/2-y,1/2+z
loop_
_atom_site_type_symbol
_atom_site_label
_atom_site_fract_x
_atom_site_fract_y
_atom_site_fract_z
Si Si1 0.705006 0.963751 0.059703
Si Si2 0.841858 0.175365 0.105469
Si Si3 0.500000 0.920453 0.750000
Si Si4 0.500000 0.559361 0.250000
Si Si5 0.332041 0.993565 0.143029
Si Si6 0.211341 0.744385 0.283429
Si Si7 0.457208 0.314324 0.339002
Si Si8 0.138288 0.742761 0.070239
O O1 0.781392 0.058818 0.096995
O O2 0.641159 0.074620 0.052583
O O3 0.724633 0.835777 0.133009
O O4 0.684729 0.920904 0.952950
O O5 0.923168 0.146889 0.195948
O O6 0.813373 0.331833 0.112085
O O7 0.852958 0.178274 0.011776
O O8 0.577617 0.004280 0.786367
O O9 0.494742 0.816276 0.666961
O O10 0.493508 0.456990 0.327115
O O11 0.288971 0.080304 0.189105
O O12 0.126125 0.798526 0.256978
O O13 0.205128 0.761196 0.180066
O O14 0.435331 0.294440 0.422396
#
# Coordination Sequence:
#
# PCOD9270455 Si02
#       8
#     8   8   4   4   8   8   8   8
#     4  11  21  37  59  86 118 153 200 238 292 356
#     4  11  22  36  58  89 117 153 193 245 298 345
#     4   9  17  36  60  80 108 154 194 228 298 346
#     4  11  19  38  66  82 120 160 206 236 288 374
#     4  10  20  35  59  84 112 153 193 238 289 355
#     4   9  19  39  59  80 115 154 199 234 289 350
#     4   8  18  37  59  81 111 159 188 244 289 340
#     4   9  20  36  56  83 121 147 186 250 297 334
#
# _framework density 21.083117999999999
#
# number of rings (size 3 to 8) (size 9 to 14) (size 15 to 20)
#    0.857    1.429    1.429    2.571    0.000    2.857 
#    0.000    2.857    3.143    0.000    0.000    0.000 
#    0.000    0.000    0.000    0.000    0.000    0.000 
#
# Total GULP energy -156054.023486 kJ/mol
# GULP energy per Si atom -5573.357982 kJ/mol
# Density = 2.103513 g / cm^3
# Si number density = 21.083118 Si / 1000 Ang^3
#
#
#
# Elastic Constant Matrix: (Units=GPa)
#
#
# Indices 1 2 3 4 5 6 
#
# 1 69.2452 22.6650 9.2076 0.0000 -18.0525 0.0000
# 2 22.6650 55.8567 17.0282 0.0000 -14.8418 0.0000
# 3 9.2076 17.0282 55.7833 0.0000 -9.6768 0.0000
# 4 0.0000 0.0000 0.0000 18.5459 0.0000 -0.9771
# 5 -18.0525 -14.8418 -9.6768 0.0000 38.5241 0.0000
# 6 0.0000 0.0000 0.0000 -0.9771 0.0000 23.4432
#
#
#
# Elastic Compliance Matrix: (Units=1/GPa)
#
#
# Indices 1 2 3 4 5 6 
#
# 1 0.017902 -0.005561 -0.000182 0.000000 0.006201 0.000000
# 2 -0.005561 0.023084 -0.005268 0.000000 0.004964 0.000000
# 3 -0.000182 -0.005268 0.020072 0.000000 0.002927 0.000000
# 4 0.000000 0.000000 0.000000 0.054039 0.000000 0.002252
# 5 0.006201 0.004964 0.002927 0.000000 0.031511 0.000000
# 6 0.000000 0.000000 0.000000 0.002252 0.000000 0.042750
#
#
# Mechanical properties :
#
#
# Convention : Reuss Voigt Hill
#
# Bulk Modulus (GPa) = 25.61588 30.96519 28.29054
# Shear Modulus (GPa) = 22.28229 24.90160 23.59195
#
# Velocity S-wave (km/s) = 3.25449 3.44046 3.34877
# Velocity P-wave (km/s) = 5.12822 5.52281 5.32917
#
# Compressibility (1/GPa) = 0.03903828
#
# Stress axis : x y z
#
# Youngs Moduli (GPa) = 55.85813 43.31922 49.81997
#
# Poissons Ratio (x) = 0.24091 0.00905
# Poissons Ratio (y) = 0.31064 0.26243
# Poissons Ratio (z) = 0.01015 0.22819
#
# Static dielectric constant tensor:
#      x y z
#    x 1.765310 0.000000 -0.012570 
#    y 0.000000 1.769840 0.000000 
#    z -0.012570 0.000000 1.751940 
# 
# From -- ./inp_files/218353.got.cif
#   From: 2010.05.17/outbox.cif.g08.bks.cpg/sg15_110_cif.got.tgz:218353.got - 2010.06.03 18:47:42.
