data_PCOD9270956
_publ_section_title
;
Structure prediction by ZEFSAII (Michael W. Deem and Ramdas Pophale) SiO2 
 PCOD9270956
Probable space group: C 2/C
;
_chemical_formula_sum "Si O2"
_cell_formula_units_Z 36
_cell_length_a 10.854442
_cell_length_b 22.145145
_cell_length_c 12.301110
_cell_angle_alpha 90.000000
_cell_angle_beta 145.660861
_cell_angle_gamma 90.000000
_cell_volume 1667.934184
_symmetry_space_group_name_H-M "C 2/C"
_symmetry_group_IT_number 15
_symmetry_cell_setting 'monoclinic'
loop_
_space_group_symop_operation_xyz
x,y,z
-x,y,1/2-z
-x,-y,-z
x,-y,1/2+z
1/2+x,1/2+y,z
1/2-x,1/2+y,1/2-z
1/2-x,1/2-y,-z
1/2+x,1/2-y,1/2+z
loop_
_atom_site_type_symbol
_atom_site_label
_atom_site_fract_x
_atom_site_fract_y
_atom_site_fract_z
Si Si1 0.856272 0.127875 0.299364
Si Si2 0.500000 0.027156 0.250000
Si Si3 0.298558 0.178754 0.525990
Si Si4 0.736091 0.990241 0.225525
Si Si5 0.398918 0.391381 0.070915
O O1 0.842711 0.143318 0.417964
O O2 0.088804 0.147297 0.424338
O O3 0.840885 0.055779 0.284068
O O4 0.686892 0.157303 0.089455
O O5 0.675652 0.071769 0.435946
O O6 0.658289 0.986399 0.293346
O O7 0.500000 0.164504 0.750000
O O8 0.250000 0.250000 0.500000
O O9 0.906750 0.939233 0.316756
O O10 0.500000 0.000000 0.000000
O O11 0.500000 0.358536 0.250000
#
# Coordination Sequence:
#
# PCOD9270956 Si02
#       5
#     8   4   8   8   8
#     4  10  24  39  62  99 128 174 223 269 354 394
#     4  10  20  36  56  78 130 174 224 268 310 368
#     4  11  23  44  70  99 130 165 226 306 356 395
#     4  11  23  39  59  95 137 189 225 271 319 413
#     4  11  23  40  60  93 139 183 226 261 322 421
#
# _framework density 21.583586
#
# number of rings (size 3 to 8) (size 9 to 14) (size 15 to 20)
#    0.000    1.333    4.444    2.667    6.222    3.556 
#    2.000    0.000    0.000    1.333    2.889    0.000 
#    0.000    0.000    0.000    0.000    0.000    0.000 
#
# Total GULP energy -100354.453678 kJ/mol
# GULP energy per Si atom -5575.247427 kJ/mol
# Density = 2.153446 g / cm^3
# Si number density = 21.583586 Si / 1000 Ang^3
#
#
#
# Elastic Constant Matrix: (Units=GPa)
#
#
# Indices 1 2 3 4 5 6 
#
# 1 93.7337 37.9213 45.2508 0.0000 -20.6336 0.0000
# 2 37.9213 56.0595 9.9662 0.0000 0.1073 0.0000
# 3 45.2508 9.9662 180.6904 0.0000 -26.0397 0.0000
# 4 0.0000 0.0000 0.0000 28.1194 0.0000 -6.8556
# 5 -20.6336 0.1073 -26.0397 0.0000 61.0168 0.0000
# 6 0.0000 0.0000 0.0000 -6.8556 0.0000 4.4554
#
#
#
# Elastic Compliance Matrix: (Units=1/GPa)
#
#
# Indices 1 2 3 4 5 6 
#
# 1 0.017918 -0.011566 -0.003168 0.000000 0.004728 0.000000
# 2 -0.011566 0.025495 0.000981 0.000000 -0.003538 0.000000
# 3 -0.003168 0.000981 0.006520 0.000000 0.001709 0.000000
# 4 0.000000 0.000000 0.000000 0.056913 0.000000 0.087574
# 5 0.004728 -0.003538 0.001709 0.000000 0.018723 0.000000
# 6 0.000000 0.000000 0.000000 0.087574 0.000000 0.359198
#
#
# Mechanical properties :
#
#
# Convention : Reuss Voigt Hill
#
# Bulk Modulus (GPa) = 44.59303 57.41778 51.00540
# Shear Modulus (GPa) = 9.62002 34.54133 22.08067
#
# Velocity S-wave (km/s) = 2.11347 4.00478 3.20196
# Velocity P-wave (km/s) = 5.16345 6.93142 6.11170
#
# Compressibility (1/GPa) = 0.02242503
#
# Stress axis : x y z
#
# Youngs Moduli (GPa) = 55.81016 39.22387 153.37516
#
# Poissons Ratio (x) = 0.45368 0.48589
# Poissons Ratio (y) = 0.64552 -0.15040
# Poissons Ratio (z) = 0.17680 -0.03846
#
# Static dielectric constant tensor:
#      x y z
#    x 1.900680 0.000000 -0.189050 
#    y 0.000000 1.782330 0.000000 
#    z -0.189050 0.000000 2.073610 
# 
# From -- ./inp_files/147301.got.cif
#   From: 2010.05.17/outbox.cif.g08.bks.cpg/sg15_74_cif.got.tgz:147301.got - 2010.06.03 18:47:42.
