data_PCOD9270587
_publ_section_title
;
Structure prediction by ZEFSAII (Michael W. Deem and Ramdas Pophale) SiO2 
 PCOD9270587
Probable space group: C 2/C
;
_chemical_formula_sum "Si O2"
_cell_formula_units_Z 32
_cell_length_a 4.938667
_cell_length_b 21.258700
_cell_length_c 16.287533
_cell_angle_alpha 90.000000
_cell_angle_beta 125.980393
_cell_angle_gamma 90.000000
_cell_volume 1383.780924
_symmetry_space_group_name_H-M "C 2/C"
_symmetry_group_IT_number 15
_symmetry_cell_setting 'monoclinic'
loop_
_space_group_symop_operation_xyz
x,y,z
-x,y,1/2-z
-x,-y,-z
x,-y,1/2+z
1/2+x,1/2+y,z
1/2-x,1/2+y,1/2-z
1/2-x,1/2-y,-z
1/2+x,1/2-y,1/2+z
loop_
_atom_site_type_symbol
_atom_site_label
_atom_site_fract_x
_atom_site_fract_y
_atom_site_fract_z
Si Si1 0.577180 0.549333 0.084911
Si Si2 0.000000 0.126027 0.750000
Si Si3 0.000000 0.544287 0.750000
Si Si4 0.183618 0.367605 0.630077
Si Si5 0.605683 0.742236 0.680708
O O1 0.693756 0.501744 0.176194
O O2 0.300927 0.597287 0.068923
O O3 0.890795 0.591152 0.115410
O O4 0.500000 0.500000 0.000000
O O5 0.664281 0.087424 0.708941
O O6 0.058605 0.173616 0.837863
O O7 0.500000 0.366665 0.750000
O O8 0.058024 0.295211 0.603668
O O9 0.500000 0.773026 0.750000
O O10 0.000000 0.728464 0.750000
#
# Coordination Sequence:
#
# PCOD9270587 Si02
#       5
#     8   4   4   8   8
#     4  12  25  39  60  93 126 161 204 251 304 365
#     4  10  20  35  60  93 118 156 210 234 316 368
#     4  12  22  39  60  85 128 166 188 246 316 376
#     4  11  19  38  64  90 115 156 209 255 298 348
#     4   9  17  32  58  93 110 148 211 254 285 356
#
# _framework density 23.125048
#
# number of rings (size 3 to 8) (size 9 to 14) (size 15 to 20)
#    0.750    0.500    3.750    5.250    0.000    0.000 
#    0.000    0.000    0.000    9.000    0.000    0.000 
#    0.000    0.000    0.000    0.000    0.000    0.000 
#
# Total GULP energy -89175.162186 kJ/mol
# GULP energy per Si atom -5573.447637 kJ/mol
# Density = 2.307241 g / cm^3
# Si number density = 23.125048 Si / 1000 Ang^3
#
#
#
# Elastic Constant Matrix: (Units=GPa)
#
#
# Indices 1 2 3 4 5 6 
#
# 1 165.6417 53.1083 -11.3964 0.0000 -4.3495 0.0000
# 2 53.1083 53.5716 1.0856 0.0000 32.1612 0.0000
# 3 -11.3964 1.0856 9.3457 0.0000 -4.5691 0.0000
# 4 0.0000 0.0000 0.0000 1.5773 0.0000 -22.6991
# 5 -4.3495 32.1612 -4.5691 0.0000 1.9236 0.0000
# 6 0.0000 0.0000 0.0000 -22.6991 0.0000 62.1319
#
#
#
# Elastic Compliance Matrix: (Units=1/GPa)
#
#
# Indices 1 2 3 4 5 6 
#
# 1 0.005311 0.001505 0.000776 0.000000 -0.011303 0.000000
# 2 0.001505 0.000712 0.014913 0.000000 0.026919 0.000000
# 3 0.000776 0.014913 0.091927 0.000000 -0.029225 0.000000
# 4 0.000000 0.000000 0.000000 -0.148910 0.000000 -0.054402
# 5 -0.011303 0.026919 -0.029225 0.000000 -0.025189 0.000000
# 6 0.000000 0.000000 0.000000 -0.054402 0.000000 -0.003780
#
#
# Mechanical properties :
#
#
# Convention : Reuss Voigt Hill
#
# Bulk Modulus (GPa) = 7.55648 34.90600 21.23124
# Shear Modulus (GPa) = -71.22138 25.51067 -22.85535
#
# Velocity S-wave (km/s) = -5.55565 3.32499 -3.14719
# Velocity P-wave (km/s) = 6.15458 5.46516 2.00136
#
# Compressibility (1/GPa) = 0.13233667
#
# Stress axis : x y z
#
# Youngs Moduli (GPa) = 188.27784 1404.39262 10.87824
#
# Poissons Ratio (x) = -2.11304 -0.00844
# Poissons Ratio (y) = -0.28328 -0.16223
# Poissons Ratio (z) = -0.14608 -20.94350
#
# Static dielectric constant tensor:
#      x y z
#    x 1.861290 0.000000 -0.016440 
#    y 0.000000 1.925870 0.000000 
#    z -0.016440 0.000000 1.907510 
# 
# From -- ./inp_files/128489.got.cif
#   From: 2010.05.17/outbox.cif.g08.bks.cpg/sg15_65_cif.got.tgz:128489.got - 2010.06.03 18:47:42.
