data_PCOD9270891
_publ_section_title
;
Structure prediction by ZEFSAII (Michael W. Deem and Ramdas Pophale) SiO2 
 PCOD9270891
Probable space group: C 2/C
;
_chemical_formula_sum "Si O2"
_cell_formula_units_Z 40
_cell_length_a 11.711773
_cell_length_b 19.211411
_cell_length_c 9.507621
_cell_angle_alpha 90.000000
_cell_angle_beta 61.210406
_cell_angle_gamma 90.000000
_cell_volume 1874.792667
_symmetry_space_group_name_H-M "C 2/C"
_symmetry_group_IT_number 15
_symmetry_cell_setting 'monoclinic'
loop_
_space_group_symop_operation_xyz
x,y,z
-x,y,1/2-z
-x,-y,-z
x,-y,1/2+z
1/2+x,1/2+y,z
1/2-x,1/2+y,1/2-z
1/2-x,1/2-y,-z
1/2+x,1/2-y,1/2+z
loop_
_atom_site_type_symbol
_atom_site_label
_atom_site_fract_x
_atom_site_fract_y
_atom_site_fract_z
Si Si1 0.850206 0.014526 0.291531
Si Si2 0.631241 0.281751 0.153249
Si Si3 0.306347 0.775770 0.318080
Si Si4 0.771444 0.913683 0.098281
Si Si5 0.557898 0.351614 0.918525
O O1 0.762194 0.030873 0.478541
O O2 0.857329 0.084815 0.192619
O O3 0.000000 0.999580 0.250000
O O4 0.795819 0.952861 0.229232
O O5 0.500000 0.237130 0.250000
O O6 0.692034 0.288248 0.270784
O O7 0.750000 0.250000 0.000000
O O8 0.582234 0.340762 0.071492
O O9 0.250000 0.750000 0.500000
O O10 0.158601 0.643824 0.672957
O O11 0.402143 0.719703 0.187457
O O12 0.910467 0.876142 0.977338
#
# Coordination Sequence:
#
# PCOD9270891 Si02
#       5
#     8   8   8   8   8
#     4  10  21  33  54  85 120 163 191 253 324 392
#     4  10  21  35  57  83 122 165 205 256 315 379
#     4  11  22  36  55  82 125 165 204 257 307 373
#     4  11  22  35  58  84 129 156 203 252 321 389
#     4  10  20  36  54  85 118 161 204 247 311 380
#
# _framework density 21.335692999999999
#
# number of rings (size 3 to 8) (size 9 to 14) (size 15 to 20)
#    0.000    1.600    4.000    2.400    5.600    0.000 
#    0.000    0.000    0.000    0.000    0.000    1.400 
#   24.000    0.800    0.000    0.000    0.000    0.000 
#
# Total GULP energy -111413.041089 kJ/mol
# GULP energy per Si atom -5570.652054 kJ/mol
# Density = 2.128713 g / cm^3
# Si number density = 21.335693 Si / 1000 Ang^3
#
#
#
# Elastic Constant Matrix: (Units=GPa)
#
#
# Indices 1 2 3 4 5 6 
#
# 1 52.1671 16.0258 29.9963 0.0000 3.1491 0.0000
# 2 16.0258 121.4231 44.2618 0.0000 3.8715 0.0000
# 3 29.9963 44.2618 145.2505 0.0000 28.1334 0.0000
# 4 0.0000 0.0000 0.0000 45.8384 0.0000 5.1470
# 5 3.1491 3.8715 28.1334 0.0000 38.6603 0.0000
# 6 0.0000 0.0000 0.0000 5.1470 0.0000 27.4048
#
#
#
# Elastic Compliance Matrix: (Units=1/GPa)
#
#
# Indices 1 2 3 4 5 6 
#
# 1 0.022044 -0.001337 -0.004450 0.000000 0.001577 0.000000
# 2 -0.001337 0.009403 -0.002826 0.000000 0.001224 0.000000
# 3 -0.004450 -0.002826 0.009941 0.000000 -0.006589 0.000000
# 4 0.000000 0.000000 0.000000 0.022286 0.000000 -0.004186
# 5 0.001577 0.001224 -0.006589 0.000000 0.030410 0.000000
# 6 0.000000 0.000000 0.000000 -0.004186 0.000000 0.037276
#
#
# Mechanical properties :
#
#
# Convention : Reuss Voigt Hill
#
# Bulk Modulus (GPa) = 41.39028 55.48984 48.44006
# Shear Modulus (GPa) = 31.91999 37.61781 34.76890
#
# Velocity S-wave (km/s) = 3.87212 4.20353 4.04122
# Velocity P-wave (km/s) = 6.27955 7.04443 6.67296
#
# Compressibility (1/GPa) = 0.02416026
#
# Stress axis : x y z
#
# Youngs Moduli (GPa) = 45.36433 106.34398 100.59223
#
# Poissons Ratio (x) = 0.14223 0.44766
# Poissons Ratio (y) = 0.06067 0.28431
# Poissons Ratio (z) = 0.20188 0.30057
#
# Static dielectric constant tensor:
#      x y z
#    x 1.772960 0.000000 0.015660 
#    y 0.000000 1.861080 0.000000 
#    z 0.015660 0.000000 1.885390 
# 
# From -- ./inp_files/31366.got.cif
#   From: 2010.05.17/outbox.cif.g08.bks.cpg/sg15_16_cif.got.tgz:31366.got - 2010.06.03 18:47:42.
