data_PCOD9270015
_publ_section_title
;
Structure prediction by ZEFSAII (Michael W. Deem and Ramdas Pophale) SiO2 
 PCOD9270015
Probable space group: C 2/C
;
_chemical_formula_sum "Si O2"
_cell_formula_units_Z 56
_cell_length_a 19.662029
_cell_length_b 27.505454
_cell_length_c 5.275695
_cell_angle_alpha 90.000000
_cell_angle_beta 69.048644
_cell_angle_gamma 90.000000
_cell_volume 2664.525769
_symmetry_space_group_name_H-M "C 2/C"
_symmetry_group_IT_number 15
_symmetry_cell_setting 'monoclinic'
loop_
_space_group_symop_operation_xyz
x,y,z
-x,y,1/2-z
-x,-y,-z
x,-y,1/2+z
1/2+x,1/2+y,z
1/2-x,1/2+y,1/2-z
1/2-x,1/2-y,-z
1/2+x,1/2-y,1/2+z
loop_
_atom_site_type_symbol
_atom_site_label
_atom_site_fract_x
_atom_site_fract_y
_atom_site_fract_z
Si Si1 0.871250 0.255031 0.229783
Si Si2 0.246536 0.365294 0.718234
Si Si3 0.588135 0.827753 0.933631
Si Si4 0.000000 0.592641 0.750000
Si Si5 0.726214 0.692486 0.796476
Si Si6 0.901785 0.521673 0.574343
Si Si7 0.237619 0.981669 0.795809
Si Si8 0.000000 0.751374 0.250000
O O1 0.903748 0.305531 0.294350
O O2 0.797731 0.272005 0.178752
O O3 0.838550 0.226205 0.513751
O O4 0.938917 0.225686 0.016470
O O5 0.165493 0.348541 0.753533
O O6 0.290540 0.337339 0.436914
O O7 0.251351 0.423729 0.708171
O O8 0.260583 0.344103 0.981482
O O9 0.554689 0.783906 0.825404
O O10 0.535413 0.872781 0.997645
O O11 0.066005 0.565241 0.804759
O O12 0.926251 0.520110 0.247937
O O13 0.814859 0.512596 0.681422
O O14 0.198761 0.997926 0.593293
#
# Coordination Sequence:
#
# PCOD9270015 Si02
#       8
#     8   8   8   4   8   8   8   4
#     4  10  22  38  54  81 111 146 195 245 306 331
#     4  11  22  39  57  82 106 149 203 243 285 340
#     4  11  23  34  51  80 110 150 196 248 277 334
#     4  12  22  36  47  76 108 152 196 233 276 330
#     4  10  23  38  62  78 108 149 197 249 288 354
#     4  10  22  36  48  67  99 144 188 235 281 323
#     4  10  20  35  54  76 107 143 183 239 290 325
#     4  12  20  36  55  80 112 148 186 237 294 330
#
# _framework density 21.016873
#
# number of rings (size 3 to 8) (size 9 to 14) (size 15 to 20)
#    0.000    1.429    2.857    3.000    2.000    8.571 
#    0.000    0.000    0.000    0.000    0.000    0.000 
#    0.000    0.000    0.000   12.857    0.000    0.857 
#
# Total GULP energy -156040.204498 kJ/mol
# GULP energy per Si atom -5572.864446 kJ/mol
# Density = 2.096904 g / cm^3
# Si number density = 21.016873 Si / 1000 Ang^3
#
#
#
# Elastic Constant Matrix: (Units=GPa)
#
#
# Indices 1 2 3 4 5 6 
#
# 1 37.8692 18.2892 21.2933 0.0000 -1.0826 0.0000
# 2 18.2892 79.1630 21.3684 0.0000 -5.2930 0.0000
# 3 21.2933 21.3684 111.2657 0.0000 0.5030 0.0000
# 4 0.0000 0.0000 0.0000 21.3288 0.0000 2.5665
# 5 -1.0826 -5.2930 0.5030 0.0000 33.5170 0.0000
# 6 0.0000 0.0000 0.0000 2.5665 0.0000 21.3420
#
#
#
# Elastic Compliance Matrix: (Units=1/GPa)
#
#
# Indices 1 2 3 4 5 6 
#
# 1 0.032147 -0.006071 -0.004987 0.000000 0.000155 0.000000
# 2 -0.006071 0.014625 -0.001657 0.000000 0.002138 0.000000
# 3 -0.004987 -0.001657 0.010263 0.000000 -0.000577 0.000000
# 4 0.000000 0.000000 0.000000 0.047573 0.000000 -0.005721
# 5 0.000155 0.002138 -0.000577 0.000000 0.030187 0.000000
# 6 0.000000 0.000000 0.000000 -0.005721 0.000000 0.047544
#
#
# Mechanical properties :
#
#
# Convention : Reuss Voigt Hill
#
# Bulk Modulus (GPa) = 31.63931 38.91108 35.27520
# Shear Modulus (GPa) = 22.90400 26.39401 24.64901
#
# Velocity S-wave (km/s) = 3.30478 3.54764 3.42836
# Velocity P-wave (km/s) = 5.44509 5.94436 5.70019
#
# Compressibility (1/GPa) = 0.03160625
#
# Stress axis : x y z
#
# Youngs Moduli (GPa) = 31.10712 68.37709 97.44104
#
# Poissons Ratio (x) = 0.41508 0.48593
# Poissons Ratio (y) = 0.18884 0.16142
# Poissons Ratio (z) = 0.15513 0.11327
#
# Static dielectric constant tensor:
#      x y z
#    x 1.786990 0.000000 0.022860 
#    y 0.000000 1.802620 0.000000 
#    z 0.022860 0.000000 2.080400 
# 
# From -- ./inp_files/13899.got.cif
#   From: 2010.05.17/outbox.cif.g08.bks.cpg/sg15_7_cif.got.tgz:13899.got - 2010.06.03 18:47:42.
