data_PCOD9270053
_publ_section_title
;
Structure prediction by ZEFSAII (Michael W. Deem and Ramdas Pophale) SiO2 
 PCOD9270053
Probable space group: C 2/C
;
_chemical_formula_sum "Si O2"
_cell_formula_units_Z 60
_cell_length_a 17.756494
_cell_length_b 25.700107
_cell_length_c 13.414972
_cell_angle_alpha 90.000000
_cell_angle_beta 152.675062
_cell_angle_gamma 90.000000
_cell_volume 2810.146324
_symmetry_space_group_name_H-M "C 2/C"
_symmetry_group_IT_number 15
_symmetry_cell_setting 'monoclinic'
loop_
_space_group_symop_operation_xyz
x,y,z
-x,y,1/2-z
-x,-y,-z
x,-y,1/2+z
1/2+x,1/2+y,z
1/2-x,1/2+y,1/2-z
1/2-x,1/2-y,-z
1/2+x,1/2-y,1/2+z
loop_
_atom_site_type_symbol
_atom_site_label
_atom_site_fract_x
_atom_site_fract_y
_atom_site_fract_z
Si Si1 0.389552 0.954662 0.417116
Si Si2 0.226757 0.620103 0.004943
Si Si3 0.989241 0.193731 0.351219
Si Si4 0.820843 0.023231 0.995838
Si Si5 0.157293 0.706304 0.752612
Si Si6 0.608000 0.865018 0.585752
Si Si7 0.689325 0.601094 0.001975
Si Si8 0.500000 0.915653 0.750000
O O1 0.469485 0.902455 0.468763
O O2 0.413740 0.950506 0.562947
O O3 0.500000 0.000000 0.500000
O O4 0.212746 0.962597 0.159296
O O5 0.413405 0.636633 0.253094
O O6 0.216608 0.565008 0.937502
O O7 0.137159 0.620890 0.005101
O O8 0.176886 0.668051 0.872798
O O9 0.174779 0.194712 0.608385
O O10 0.000000 0.214955 0.250000
O O11 0.860530 0.232372 0.250487
O O12 0.000000 0.030252 0.250000
O O13 0.787763 0.961747 0.966749
O O14 0.978445 0.690357 0.503372
O O15 0.768155 0.874751 0.840385
O O16 0.500000 0.611619 0.750000
O O17 0.845247 0.616165 0.114652
#
# Coordination Sequence:
#
# PCOD9270053 Si02
#       8
#     8   8   8   8   8   8   8   4
#     4  11  22  38  59  85 118 166 221 268 309 375
#     4  11  22  33  56  89 124 165 198 251 313 374
#     4  10  20  35  54  86 127 163 192 241 316 395
#     4  11  22  36  56  87 130 162 212 263 308 375
#     4  11  20  35  58  84 127 159 197 245 314 393
#     4  11  22  36  57  87 118 161 215 252 310 380
#     4  10  24  43  59  87 121 165 221 267 307 370
#     4  10  22  40  66  76 120 170 212 264 330 340
#
# _framework density 21.351202000000001
#
# number of rings (size 3 to 8) (size 9 to 14) (size 15 to 20)
#    0.000    1.333    4.000    4.800    1.867    1.067 
#    2.400    2.667    0.000    0.000    0.000    3.733 
#    2.000    0.533    0.000    0.000    0.000    0.000 
#
# Total GULP energy -167154.550677 kJ/mol
# GULP energy per Si atom -5571.818356 kJ/mol
# Density = 2.130261 g / cm^3
# Si number density = 21.351202 Si / 1000 Ang^3
#
#
#
# Elastic Constant Matrix: (Units=GPa)
#
#
# Indices 1 2 3 4 5 6 
#
# 1 59.0248 -4.0522 27.0148 0.0000 1.0997 0.0000
# 2 -4.0522 52.1835 7.8067 0.0000 1.6961 0.0000
# 3 27.0148 7.8067 151.0481 0.0000 7.2863 0.0000
# 4 0.0000 0.0000 0.0000 17.4442 0.0000 -0.3710
# 5 1.0997 1.6961 7.2863 0.0000 32.6314 0.0000
# 6 0.0000 0.0000 0.0000 -0.3710 0.0000 8.4466
#
#
#
# Elastic Compliance Matrix: (Units=1/GPa)
#
#
# Indices 1 2 3 4 5 6 
#
# 1 0.018650 0.001961 -0.003439 0.000000 0.000037 0.000000
# 2 0.001961 0.019539 -0.001323 0.000000 -0.000786 0.000000
# 3 -0.003439 -0.001323 0.007374 0.000000 -0.001462 0.000000
# 4 0.000000 0.000000 0.000000 0.057379 0.000000 0.002520
# 5 0.000037 -0.000786 -0.001462 0.000000 0.031011 0.000000
# 6 0.000000 0.000000 0.000000 0.002520 0.000000 0.118501
#
#
# Mechanical properties :
#
#
# Convention : Reuss Voigt Hill
#
# Bulk Modulus (GPa) = 25.02309 35.97722 30.50015
# Shear Modulus (GPa) = 18.42463 27.13692 22.78078
#
# Velocity S-wave (km/s) = 2.94076 3.56895 3.26997
# Velocity P-wave (km/s) = 4.82451 5.81979 5.34537
#
# Compressibility (1/GPa) = 0.03996310
#
# Stress axis : x y z
#
# Youngs Moduli (GPa) = 53.61980 51.18000 135.60619
#
# Poissons Ratio (x) = -0.10039 0.46631
# Poissons Ratio (y) = -0.10517 0.17937
# Poissons Ratio (z) = 0.18438 0.06770
#
# Static dielectric constant tensor:
#      x y z
#    x 1.832080 0.000000 0.049420 
#    y 0.000000 2.051760 0.000000 
#    z 0.049420 0.000000 1.974670 
# 
# From -- ./inp_files/108438.got.cif
#   From: 2010.05.17/outbox.cif.g08.bks.cpg/sg15_55_cif.got.tgz:108438.got - 2010.06.03 18:47:42.
