data_PCOD9270921
_publ_section_title
;
Structure prediction by ZEFSAII (Michael W. Deem and Ramdas Pophale) SiO2 
 PCOD9270921
Probable space group: C 2/C
;
_chemical_formula_sum "Si O2"
_cell_formula_units_Z 60
_cell_length_a 12.733108
_cell_length_b 20.193441
_cell_length_c 14.399958
_cell_angle_alpha 90.000000
_cell_angle_beta 126.367738
_cell_angle_gamma 90.000000
_cell_volume 2981.430871
_symmetry_space_group_name_H-M "C 2/C"
_symmetry_group_IT_number 15
_symmetry_cell_setting 'monoclinic'
loop_
_space_group_symop_operation_xyz
x,y,z
-x,y,1/2-z
-x,-y,-z
x,-y,1/2+z
1/2+x,1/2+y,z
1/2-x,1/2+y,1/2-z
1/2-x,1/2-y,-z
1/2+x,1/2-y,1/2+z
loop_
_atom_site_type_symbol
_atom_site_label
_atom_site_fract_x
_atom_site_fract_y
_atom_site_fract_z
Si Si1 0.613342 0.295474 0.021828
Si Si2 0.143435 0.226005 0.324273
Si Si3 0.500000 0.760804 0.750000
Si Si4 0.488650 0.831214 0.550030
Si Si5 0.074299 0.019066 0.696613
Si Si6 0.096889 0.890671 0.497593
Si Si7 0.746534 0.392000 0.753537
Si Si8 0.803920 0.148631 0.652427
O O1 0.753101 0.283277 0.142253
O O2 0.542210 0.226039 0.009324
O O3 0.519809 0.351592 0.012168
O O4 0.650763 0.302813 0.933181
O O5 0.166770 0.166111 0.265055
O O6 0.000000 0.254528 0.250000
O O7 0.462404 0.800839 0.638441
O O8 0.376171 0.716441 0.717841
O O9 0.606626 0.882878 0.631573
O O10 0.351114 0.853273 0.436356
O O11 0.144095 0.088345 0.758422
O O12 0.000000 0.996619 0.750000
O O13 0.964004 0.038251 0.563155
O O14 0.179202 0.962854 0.732402
O O15 0.221051 0.883819 0.630313
O O16 0.138096 0.860777 0.420884
#
# Coordination Sequence:
#
# PCOD9270921 Si02
#       8
#     8   8   4   8   8   8   8   8
#     4  10  21  34  55  88 115 145 195 236 297 357
#     4  10  20  36  55  81 115 152 189 242 288 353
#     4  12  20  38  60  92 128 150 194 244 306 364
#     4  11  24  35  61  92 121 158 190 244 310 364
#     4  10  22  40  59  86 117 158 209 249 287 355
#     4  11  20  38  61  90 113 155 203 243 298 354
#     4  11  23  38  59  87 116 160 201 245 299 347
#     4  11  22  40  61  89 123 155 194 251 302 360
#
# _framework density 20.124565
#
# number of rings (size 3 to 8) (size 9 to 14) (size 15 to 20)
#    0.000    1.333    4.667    2.000    1.867    1.600 
#    0.000    0.000    0.000    0.000    0.000    0.000 
#    0.000    0.000    0.000    0.000    0.000    0.000 
#
# Total GULP energy -167326.090795 kJ/mol
# GULP energy per Si atom -5577.536360 kJ/mol
# Density = 2.007876 g / cm^3
# Si number density = 20.124565 Si / 1000 Ang^3
#
#
#
# Elastic Constant Matrix: (Units=GPa)
#
#
# Indices 1 2 3 4 5 6 
#
# 1 59.8311 -3.6475 8.4765 0.0000 21.6801 0.0000
# 2 -3.6475 19.4519 -3.7872 0.0000 -2.3280 0.0000
# 3 8.4765 -3.7872 71.6064 0.0000 4.4029 0.0000
# 4 0.0000 0.0000 0.0000 15.6684 0.0000 2.8025
# 5 21.6801 -2.3280 4.4029 0.0000 48.5753 0.0000
# 6 0.0000 0.0000 0.0000 2.8025 0.0000 11.2571
#
#
#
# Elastic Compliance Matrix: (Units=1/GPa)
#
#
# Indices 1 2 3 4 5 6 
#
# 1 0.020289 0.002416 -0.001734 0.000000 -0.008782 0.000000
# 2 0.002416 0.052478 0.002415 0.000000 0.001218 0.000000
# 3 -0.001734 0.002415 0.014323 0.000000 -0.000409 0.000000
# 4 0.000000 0.000000 0.000000 0.066797 0.000000 -0.016630
# 5 -0.008782 0.001218 -0.000409 0.000000 0.024602 0.000000
# 6 0.000000 0.000000 0.000000 -0.016630 0.000000 0.092973
#
#
# Mechanical properties :
#
#
# Convention : Reuss Voigt Hill
#
# Bulk Modulus (GPa) = 10.72003 16.99699 13.85851
# Shear Modulus (GPa) = 16.87116 25.08999 20.98058
#
# Velocity S-wave (km/s) = 2.89855 3.53474 3.23233
# Velocity P-wave (km/s) = 4.06700 5.01233 4.56420
#
# Compressibility (1/GPa) = 0.09328333
#
# Stress axis : x y z
#
# Youngs Moduli (GPa) = 49.28772 19.05565 69.81614
#
# Poissons Ratio (x) = -0.04604 0.12106
# Poissons Ratio (y) = -0.11907 -0.16858
# Poissons Ratio (z) = 0.08546 -0.04601
#
# Static dielectric constant tensor:
#      x y z
#    x 1.712930 0.000000 0.007650 
#    y 0.000000 1.712350 0.000000 
#    z 0.007650 0.000000 1.789990 
# 
# From -- ./inp_files/147198.got.cif
#   From: 2010.05.17/outbox.cif.g08.bks.cpg/sg15_74_cif.got.tgz:147198.got - 2010.06.03 18:47:42.
