data_PCOD9270937
_publ_section_title
;
Structure prediction by ZEFSAII (Michael W. Deem and Ramdas Pophale) SiO2 
 PCOD9270937
Probable space group: C 2/C
;
_chemical_formula_sum "Si O2"
_cell_formula_units_Z 64
_cell_length_a 9.351290
_cell_length_b 14.488624
_cell_length_c 23.544518
_cell_angle_alpha 90.000000
_cell_angle_beta 72.918985
_cell_angle_gamma 90.000000
_cell_volume 3049.274825
_symmetry_space_group_name_H-M "C 2/C"
_symmetry_group_IT_number 15
_symmetry_cell_setting 'monoclinic'
loop_
_space_group_symop_operation_xyz
x,y,z
-x,y,1/2-z
-x,-y,-z
x,-y,1/2+z
1/2+x,1/2+y,z
1/2-x,1/2+y,1/2-z
1/2-x,1/2-y,-z
1/2+x,1/2-y,1/2+z
loop_
_atom_site_type_symbol
_atom_site_label
_atom_site_fract_x
_atom_site_fract_y
_atom_site_fract_z
Si Si1 0.153292 0.945518 0.972336
Si Si2 0.732806 0.986106 0.924315
Si Si3 0.062593 0.734719 0.970885
Si Si4 0.456998 0.979992 0.883312
Si Si5 0.831897 0.774442 0.910990
Si Si6 0.450343 0.166918 0.691405
Si Si7 0.698002 0.650395 0.644715
Si Si8 0.022387 0.723051 0.391852
O O1 0.108377 0.841739 0.963390
O O2 0.279175 0.979808 0.913779
O O3 0.233447 0.959671 0.022808
O O4 0.000000 0.000000 0.000000
O O5 0.815385 0.041271 0.864016
O O6 0.558164 0.990602 0.928382
O O7 0.796097 0.882823 0.922458
O O8 0.175542 0.682579 0.916149
O O9 0.897285 0.728790 0.961371
O O10 0.063844 0.709437 0.037313
O O11 0.512211 0.876076 0.861491
O O12 0.499318 0.066845 0.839523
O O13 0.681123 0.741125 0.897125
O O14 0.964292 0.748205 0.852233
O O15 0.500000 0.171878 0.750000
O O16 0.274435 0.172994 0.695813
O O17 0.553458 0.703878 0.640673
#
# Coordination Sequence:
#
# PCOD9270937 Si02
#       8
#     8   8   8   8   8   8   8   8
#     4  12  21  31  56  92 133 164 194 230 287 360
#     4  10  20  36  55  86 125 159 194 235 287 361
#     4  11  20  34  54  91 134 170 188 225 295 366
#     4  10  23  38  59  86 119 162 203 243 292 357
#     4  10  23  37  58  87 122 157 205 241 298 357
#     4  10  24  47  65  78 108 156 208 264 314 352
#     4  10  20  37  62  85 120 158 198 241 295 356
#     4  11  20  36  60  94 128 155 193 241 289 370
#
# _framework density 20.988596999999999
#
# number of rings (size 3 to 8) (size 9 to 14) (size 15 to 20)
#    0.000    1.500    3.750    1.875    1.750    5.000 
#    0.000    4.375    0.000    0.000    0.000    0.000 
#    0.000    0.000    0.000    0.000    0.000    0.000 
#
# Total GULP energy -178448.292694 kJ/mol
# GULP energy per Si atom -5576.509147 kJ/mol
# Density = 2.094083 g / cm^3
# Si number density = 20.988597 Si / 1000 Ang^3
#
#
#
# Elastic Constant Matrix: (Units=GPa)
#
#
# Indices 1 2 3 4 5 6 
#
# 1 116.6257 23.2014 7.3278 0.0000 20.9402 0.0000
# 2 23.2014 81.5605 7.4212 0.0000 6.1774 0.0000
# 3 7.3278 7.4212 42.9952 0.0000 27.6545 0.0000
# 4 0.0000 0.0000 0.0000 14.5896 0.0000 6.0369
# 5 20.9402 6.1774 27.6545 0.0000 28.7586 0.0000
# 6 0.0000 0.0000 0.0000 6.0369 0.0000 31.0604
#
#
#
# Elastic Compliance Matrix: (Units=1/GPa)
#
#
# Indices 1 2 3 4 5 6 
#
# 1 0.011567 -0.002868 0.009292 0.000000 -0.016741 0.000000
# 2 -0.002868 0.013195 -0.003431 0.000000 0.002553 0.000000
# 3 0.009292 -0.003431 0.068532 0.000000 -0.071930 0.000000
# 4 0.000000 0.000000 0.000000 0.074536 0.000000 -0.014487
# 5 -0.016741 0.002553 -0.071930 0.000000 0.115582 0.000000
# 6 0.000000 0.000000 0.000000 -0.014487 0.000000 0.035011
#
#
# Mechanical properties :
#
#
# Convention : Reuss Voigt Hill
#
# Bulk Modulus (GPa) = 10.07248 35.23133 22.65191
# Shear Modulus (GPa) = 14.47042 28.43045 21.45043
#
# Velocity S-wave (km/s) = 2.62857 3.68444 3.20035
# Velocity P-wave (km/s) = 3.74459 5.90952 4.94694
#
# Compressibility (1/GPa) = 0.09928042
#
# Stress axis : x y z
#
# Youngs Moduli (GPa) = 86.45231 75.78354 14.59164
#
# Poissons Ratio (x) = 0.21734 -0.13558
# Poissons Ratio (y) = 0.24794 0.05006
# Poissons Ratio (z) = -0.80328 0.26001
#
# Static dielectric constant tensor:
#      x y z
#    x 1.857990 0.000000 -0.018490 
#    y 0.000000 1.792100 0.000000 
#    z -0.018490 0.000000 1.761560 
# 
# From -- ./inp_files/288770.got.cif
#   From: 2010.05.17/outbox.cif.g08.bks.cpg/sg15_145_cif.got.tgz:288770.got - 2010.06.03 18:47:42.
