data_PCOD9270697
_publ_section_title
;
Structure prediction by ZEFSAII (Michael W. Deem and Ramdas Pophale) SiO2 
 PCOD9270697
Probable space group: C 2/C
;
_chemical_formula_sum "Si O2"
_cell_formula_units_Z 56
_cell_length_a 23.446789
_cell_length_b 23.338539
_cell_length_c 14.435978
_cell_angle_alpha 90.000000
_cell_angle_beta 19.759532
_cell_angle_gamma 90.000000
_cell_volume 2670.632407
_symmetry_space_group_name_H-M "C 2/C"
_symmetry_group_IT_number 15
_symmetry_cell_setting 'monoclinic'
loop_
_space_group_symop_operation_xyz
x,y,z
-x,y,1/2-z
-x,-y,-z
x,-y,1/2+z
1/2+x,1/2+y,z
1/2-x,1/2+y,1/2-z
1/2-x,1/2-y,-z
1/2+x,1/2-y,1/2+z
loop_
_atom_site_type_symbol
_atom_site_label
_atom_site_fract_x
_atom_site_fract_y
_atom_site_fract_z
Si Si1 0.000000 0.010237 0.750000
Si Si2 0.966346 0.059195 0.603073
Si Si3 0.000000 0.812872 0.750000
Si Si4 0.480890 0.142399 0.937996
Si Si5 0.231634 0.410521 0.175214
Si Si6 0.540424 0.733123 0.984306
Si Si7 0.231448 0.848848 0.657767
Si Si8 0.695904 0.132909 0.938116
O O1 0.161380 0.967512 0.506790
O O2 0.993377 0.048191 0.851811
O O3 0.781694 0.087195 0.876070
O O4 0.088758 0.103361 0.362815
O O5 0.000000 0.000000 0.500000
O O6 0.156073 0.855779 0.528609
O O7 0.021131 0.776223 0.624942
O O8 0.554622 0.093434 0.891835
O O9 0.628161 0.150900 0.635990
O O10 0.448446 0.199459 0.047467
O O11 0.317352 0.136004 0.124022
O O12 0.216086 0.397700 0.307541
O O13 0.696526 0.691872 0.720180
O O14 0.373137 0.709897 0.188800
O O15 0.500000 0.144208 0.250000
#
# Coordination Sequence:
#
# PCOD9270697 Si02
#       8
#     4   8   4   8   8   8   8   8
#     4  11  22  42  72  92 124 178 216 264 345 382
#     4  11  22  44  65  91 131 175 213 273 340 378
#     4   9  16  30  56  86 120 158 204 252 317 386
#     4  11  21  34  61  96 130 158 211 267 325 386
#     4  10  20  36  61  92 121 158 217 263 305 395
#     4  10  20  35  62  89 128 171 202 260 340 382
#     4  10  22  36  55  96 136 157 206 277 321 385
#     4  10  23  43  63  90 130 168 222 265 310 399
#
# _framework density 20.968816
#
# number of rings (size 3 to 8) (size 9 to 14) (size 15 to 20)
#    0.000    1.714    2.857    2.143    4.000    1.143 
#    5.143    2.143    1.571    0.000    0.000    0.000 
#    0.000    0.000    0.000    0.000    0.000    0.000 
#
# Total GULP energy -156371.506636 kJ/mol
# GULP energy per Si atom -5584.696666 kJ/mol
# Density = 2.092109 g / cm^3
# Si number density = 20.968816 Si / 1000 Ang^3
#
#
#
# Elastic Constant Matrix: (Units=GPa)
#
#
# Indices 1 2 3 4 5 6 
#
# 1 96.3815 13.6657 13.9056 0.0069 -23.2932 -0.0031
# 2 13.6657 56.8813 24.0853 0.0015 -1.1613 0.0065
# 3 13.9056 24.0853 78.7670 0.0050 -16.8893 0.0119
# 4 0.0069 0.0015 0.0050 15.5122 -0.0017 -3.9022
# 5 -23.2932 -1.1613 -16.8893 -0.0017 33.3982 0.0086
# 6 -0.0031 0.0065 0.0119 -3.9022 0.0086 1.0250
#
#
#
# Elastic Compliance Matrix: (Units=1/GPa)
#
#
# Indices 1 2 3 4 5 6 
#
# 1 0.012977 -0.003218 0.000684 -0.000269 0.009285 -0.001051
# 2 -0.003218 0.021215 -0.007001 -0.000094 -0.005047 -0.000377
# 3 0.000684 -0.007001 0.016563 -0.001397 0.008611 -0.005539
# 4 -0.000269 -0.000094 -0.001397 1.524660 -0.002315 5.804625
# 5 0.009285 -0.005047 0.008611 -0.002315 0.040599 -0.009194
# 6 -0.001051 -0.000377 -0.005539 5.804625 -0.009194 23.074777
#
#
# Mechanical properties :
#
#
# Convention : Reuss Voigt Hill
#
# Bulk Modulus (GPa) = 31.56035 37.26032 34.41034
# Shear Modulus (GPa) = 0.20226 22.01196 11.10711
#
# Velocity S-wave (km/s) = 0.31091 3.24350 2.30401
# Velocity P-wave (km/s) = 3.90034 5.64225 4.85014
#
# Compressibility (1/GPa) = 0.03168533
#
# Stress axis : x y z
#
# Youngs Moduli (GPa) = 77.06006 47.13646 60.37560
#
# Poissons Ratio (x) = 0.15167 -0.04130
# Poissons Ratio (y) = 0.24795 0.42270
# Poissons Ratio (z) = -0.05271 0.33001
#
# Static dielectric constant tensor:
#      x y z
#    x 1.800100 0.000000 0.000150 
#    y 0.000000 1.727330 0.000010 
#    z 0.000150 0.000010 1.886680 
# 
# From -- ./inp_files/174751.got.cif
#   From: 2010.05.17/outbox.cif.g08.bks.cpg/sg15_88_cif.got.tgz:174751.got - 2010.06.03 18:47:42.
