data_PCOD9270728
_publ_section_title
;
Structure prediction by ZEFSAII (Michael W. Deem and Ramdas Pophale) SiO2 
 PCOD9270728
Probable space group: C 2/C
;
_chemical_formula_sum "Si O2"
_cell_formula_units_Z 52
_cell_length_a 11.770811
_cell_length_b 7.386538
_cell_length_c 30.015642
_cell_angle_alpha 90.000000
_cell_angle_beta 134.059412
_cell_angle_gamma 90.000000
_cell_volume 1875.399149
_symmetry_space_group_name_H-M "C 2/C"
_symmetry_group_IT_number 15
_symmetry_cell_setting 'monoclinic'
loop_
_space_group_symop_operation_xyz
x,y,z
-x,y,1/2-z
-x,-y,-z
x,-y,1/2+z
1/2+x,1/2+y,z
1/2-x,1/2+y,1/2-z
1/2-x,1/2-y,-z
1/2+x,1/2-y,1/2+z
loop_
_atom_site_type_symbol
_atom_site_label
_atom_site_fract_x
_atom_site_fract_y
_atom_site_fract_z
Si Si1 0.586387 0.111572 0.125032
Si Si2 0.500000 0.188093 0.250000
Si Si3 0.583999 0.421117 0.891157
Si Si4 0.432288 0.949254 0.157147
Si Si5 0.892402 0.876238 0.019325
Si Si6 0.879243 0.362773 0.441100
Si Si7 0.701565 0.637798 0.725144
O O1 0.437442 0.082439 0.116747
O O2 0.603842 0.918634 0.105758
O O3 0.545396 0.268493 0.079339
O O4 0.715195 0.198693 0.192554
O O5 0.387405 0.058083 0.188975
O O6 0.395577 0.300055 0.257060
O O7 0.631749 0.236563 0.879670
O O8 0.610565 0.440596 0.951948
O O9 0.705442 0.565283 0.904236
O O10 0.410450 0.486394 0.828343
O O11 0.619499 0.911695 0.216179
O O12 0.750000 0.750000 0.000000
O O13 0.897890 0.836076 0.967837
O O14 0.000000 0.500000 0.500000
#
# Coordination Sequence:
#
# PCOD9270728 Si02
#       7
#     8   4   8   8   8   8   8
#     4   9  19  35  57  83 118 154 195 257 309 355
#     4  10  24  40  58  84 132 164 198 260 312 350
#     4  10  20  35  63  85 114 164 201 244 324 372
#     4  11  23  39  57  94 125 154 211 266 298 384
#     4   8  16  35  57  80 113 153 200 244 303 376
#     4   9  18  35  58  86 113 153 204 251 301 369
#     4  10  22  40  58  86 124 165 206 251 310 389
#
# _framework density 27.727429999999998
#
# number of rings (size 3 to 8) (size 9 to 14) (size 15 to 20)
#    0.000    2.462    0.000    1.846    4.308    0.615 
#    2.769    7.692    0.000    0.000    0.000    0.000 
#    0.000    0.000    0.000    0.000    0.000    0.000 
#
# Total GULP energy -145233.080835 kJ/mol
# GULP energy per Si atom -5585.887724 kJ/mol
# Density = 2.766432 g / cm^3
# Si number density = 27.727430 Si / 1000 Ang^3
#
#
#
# Elastic Constant Matrix: (Units=GPa)
#
#
# Indices 1 2 3 4 5 6 
#
# 1 118.5211 2.8977 42.2056 0.0000 -11.8822 0.0000
# 2 2.8977 76.8270 21.1147 0.0000 8.0799 0.0000
# 3 42.2056 21.1147 103.8197 0.0000 -12.4812 0.0000
# 4 0.0000 0.0000 0.0000 51.1620 0.0000 -8.7281
# 5 -11.8822 8.0799 -12.4812 0.0000 53.7373 0.0000
# 6 0.0000 0.0000 0.0000 -8.7281 0.0000 32.9667
#
#
#
# Elastic Compliance Matrix: (Units=1/GPa)
#
#
# Indices 1 2 3 4 5 6 
#
# 1 0.009979 0.000610 -0.004039 0.000000 0.001177 0.000000
# 2 0.000610 0.014247 -0.003484 0.000000 -0.002817 0.000000
# 3 -0.004039 -0.003484 0.012281 0.000000 0.002483 0.000000
# 4 0.000000 0.000000 0.000000 0.020470 0.000000 0.005420
# 5 0.001177 -0.002817 0.002483 0.000000 0.019869 0.000000
# 6 0.000000 0.000000 0.000000 0.005420 0.000000 0.031768
#
#
# Mechanical properties :
#
#
# Convention : Reuss Voigt Hill
#
# Bulk Modulus (GPa) = 44.09112 47.95599 46.02355
# Shear Modulus (GPa) = 38.46090 43.10318 40.78204
#
# Velocity S-wave (km/s) = 3.72843 3.94703 3.83929
# Velocity P-wave (km/s) = 5.87120 6.17294 6.02396
#
# Compressibility (1/GPa) = 0.02268031
#
# Stress axis : x y z
#
# Youngs Moduli (GPa) = 100.21296 70.19018 81.42477
#
# Poissons Ratio (x) = -0.04282 0.32890
# Poissons Ratio (y) = -0.06113 0.28369
# Poissons Ratio (z) = 0.40479 0.24455
#
# Static dielectric constant tensor:
#      x y z
#    x 2.244010 0.000000 -0.075770 
#    y 0.000000 2.523580 0.000000 
#    z -0.075770 0.000000 2.237710 
# 
# From -- ./inp_files/313214.got.cif
#   From: 2010.05.17/outbox.cif.g08.bks.cpg/sg15_157_cif.got.tgz:313214.got - 2010.06.03 18:47:42.
