data_PCOD9270518
_publ_section_title
;
Structure prediction by ZEFSAII (Michael W. Deem and Ramdas Pophale) SiO2 
 PCOD9270518
Probable space group: C 2/C
;
_chemical_formula_sum "Si O2"
_cell_formula_units_Z 52
_cell_length_a 23.980200
_cell_length_b 19.185450
_cell_length_c 10.131957
_cell_angle_alpha 90.000000
_cell_angle_beta 145.819482
_cell_angle_gamma 90.000000
_cell_volume 2618.794985
_symmetry_space_group_name_H-M "C 2/C"
_symmetry_group_IT_number 15
_symmetry_cell_setting 'monoclinic'
loop_
_space_group_symop_operation_xyz
x,y,z
-x,y,1/2-z
-x,-y,-z
x,-y,1/2+z
1/2+x,1/2+y,z
1/2-x,1/2+y,1/2-z
1/2-x,1/2-y,-z
1/2+x,1/2-y,1/2+z
loop_
_atom_site_type_symbol
_atom_site_label
_atom_site_fract_x
_atom_site_fract_y
_atom_site_fract_z
Si Si1 0.199819 0.165335 0.460933
Si Si2 0.683854 0.271001 0.659142
Si Si3 0.886244 0.977110 0.761372
Si Si4 0.500000 0.186910 0.250000
Si Si5 0.210964 0.929928 0.652010
Si Si6 0.584775 0.897273 0.161695
Si Si7 0.072813 0.466099 0.492203
O O1 0.228077 0.215114 0.639112
O O2 0.152506 0.209882 0.249459
O O3 0.134010 0.096769 0.353369
O O4 0.306680 0.137179 0.612680
O O5 0.595450 0.234526 0.408110
O O6 0.702980 0.346287 0.634771
O O7 0.841839 0.962305 0.821221
O O8 0.833039 0.034916 0.566181
O O9 0.000000 0.000000 0.000000
O O10 0.535928 0.141958 0.443167
O O11 0.327364 0.945833 0.884247
O O12 0.496005 0.902554 0.093471
O O13 0.601821 0.979003 0.161618
O O14 0.000000 0.505289 0.250000
#
# Coordination Sequence:
#
# PCOD9270518 Si02
#       7
#     8   8   8   4   8   8   8
#     4   9  18  39  59  88 123 167 208 250 316 385
#     4   9  20  35  61  87 121 164 211 249 310 384
#     4  11  23  39  65  90 129 168 217 260 313 371
#     4  10  20  36  62  90 122 160 210 244 312 386
#     4  11  24  40  64  97 128 167 213 268 317 379
#     4  10  20  35  59  93 118 157 198 254 317 369
#     4  11  21  35  62  90 124 152 201 260 317 374
#
# _framework density 19.856462000000001
#
# number of rings (size 3 to 8) (size 9 to 14) (size 15 to 20)
#    0.000    1.846    2.308    2.308    6.462    0.000 
#    0.000    0.769    0.000    5.538    0.000    0.000 
#    0.000    0.000    0.000    0.000    0.000    0.000 
#
# Total GULP energy -144797.493030 kJ/mol
# GULP energy per Si atom -5569.134347 kJ/mol
# Density = 1.981127 g / cm^3
# Si number density = 19.856462 Si / 1000 Ang^3
#
#
#
# Elastic Constant Matrix: (Units=GPa)
#
#
# Indices 1 2 3 4 5 6 
#
# 1 79.5788 28.0965 27.8044 0.0000 20.5961 0.0000
# 2 28.0965 119.5389 44.4205 0.0000 10.8194 0.0000
# 3 27.8044 44.4205 114.1165 0.0000 15.9129 0.0000
# 4 0.0000 0.0000 0.0000 13.8844 0.0000 -0.5904
# 5 20.5961 10.8194 15.9129 0.0000 26.7186 0.0000
# 6 0.0000 0.0000 0.0000 -0.5904 0.0000 21.6689
#
#
#
# Elastic Compliance Matrix: (Units=1/GPa)
#
#
# Indices 1 2 3 4 5 6 
#
# 1 0.016827 -0.002343 -0.001648 0.000000 -0.011041 0.000000
# 2 -0.002343 0.010191 -0.003351 0.000000 -0.000325 0.000000
# 3 -0.001648 -0.003351 0.011017 0.000000 -0.003934 0.000000
# 4 0.000000 0.000000 0.000000 0.072107 0.000000 0.001965
# 5 -0.011041 -0.000325 -0.003934 0.000000 0.048413 0.000000
# 6 0.000000 0.000000 0.000000 0.001965 0.000000 0.046203
#
#
# Mechanical properties :
#
#
# Convention : Reuss Voigt Hill
#
# Bulk Modulus (GPa) = 42.82491 57.09747 49.96119
# Shear Modulus (GPa) = 22.00469 26.64857 24.32663
#
# Velocity S-wave (km/s) = 3.33256 3.66739 3.50397
# Velocity P-wave (km/s) = 6.03506 6.83743 6.44874
#
# Compressibility (1/GPa) = 0.02335089
#
# Stress axis : x y z
#
# Youngs Moduli (GPa) = 59.42909 98.12872 90.76546
#
# Poissons Ratio (x) = 0.22994 0.14960
# Poissons Ratio (y) = 0.13926 0.30412
# Poissons Ratio (z) = 0.09795 0.32879
#
# Static dielectric constant tensor:
#      x y z
#    x 1.760690 0.000000 -0.019450 
#    y 0.000000 1.761520 0.000000 
#    z -0.019450 0.000000 1.720110 
# 
# From -- ./inp_files/123907.got.cif
#   From: 2010.05.17/outbox.cif.g08.bks.cpg/sg15_62_cif.got.tgz:123907.got - 2010.06.03 18:47:42.
