data_PCOD9270737
_publ_section_title
;
Structure prediction by ZEFSAII (Michael W. Deem and Ramdas Pophale) SiO2 
 PCOD9270737
Probable space group: C 2/C
;
_chemical_formula_sum "Si O2"
_cell_formula_units_Z 56
_cell_length_a 16.825940
_cell_length_b 14.364160
_cell_length_c 14.959755
_cell_angle_alpha 90.000000
_cell_angle_beta 47.406261
_cell_angle_gamma 90.000000
_cell_volume 2661.722555
_symmetry_space_group_name_H-M "C 2/C"
_symmetry_group_IT_number 15
_symmetry_cell_setting 'monoclinic'
loop_
_space_group_symop_operation_xyz
x,y,z
-x,y,1/2-z
-x,-y,-z
x,-y,1/2+z
1/2+x,1/2+y,z
1/2-x,1/2+y,1/2-z
1/2-x,1/2-y,-z
1/2+x,1/2-y,1/2+z
loop_
_atom_site_type_symbol
_atom_site_label
_atom_site_fract_x
_atom_site_fract_y
_atom_site_fract_z
Si Si1 0.568706 0.212403 0.116363
Si Si2 0.889098 0.050944 0.328492
Si Si3 0.199189 0.127284 0.599716
Si Si4 0.759654 0.886280 0.227125
Si Si5 0.348818 0.716229 0.486409
Si Si6 0.045688 0.277292 0.440119
Si Si7 0.105543 0.061041 0.384786
O O1 0.500000 0.173020 0.250000
O O2 0.608607 0.314728 0.117124
O O3 0.683946 0.165487 0.012118
O O4 0.506816 0.201448 0.070175
O O5 0.898906 0.135174 0.387866
O O6 0.879370 0.074590 0.233150
O O7 0.000000 0.994371 0.250000
O O8 0.798656 0.980641 0.427843
O O9 0.182835 0.130551 0.719980
O O10 0.803483 0.823320 0.113717
O O11 0.638433 0.849590 0.338886
O O12 0.792655 0.992082 0.172786
O O13 0.250000 0.750000 0.500000
O O14 0.449018 0.778881 0.442062
O O15 0.091423 0.170345 0.420680
O O16 0.000000 0.000000 0.500000
#
# Coordination Sequence:
#
# PCOD9270737 Si02
#       7
#     8   8   8   8   8   8   8
#     4  10  20  35  63  90 126 168 205 255 332 389
#     4  11  21  36  62  90 122 155 210 267 309 375
#     4   9  21  36  58  94 125 162 209 263 317 389
#     4  10  22  40  61  95 137 170 215 273 336 386
#     4  12  25  39  65  94 127 175 222 266 331 386
#     4  11  23  40  65  96 136 172 218 276 332 393
#     4  11  21  38  63  97 128 168 219 267 327 388
#
# _framework density 21.039007000000002
#
# number of rings (size 3 to 8) (size 9 to 14) (size 15 to 20)
#    0.000    1.429    2.857    2.143    6.000    0.000 
#    0.000    0.000    3.143    8.571    0.000    0.000 
#    0.000    0.000    0.000    0.000    0.000    0.000 
#
# Total GULP energy -155877.386599 kJ/mol
# GULP energy per Si atom -5567.049521 kJ/mol
# Density = 2.099112 g / cm^3
# Si number density = 21.039007 Si / 1000 Ang^3
#
#
#
# Elastic Constant Matrix: (Units=GPa)
#
#
# Indices 1 2 3 4 5 6 
#
# 1 113.1284 24.1126 22.9577 0.0000 2.5935 0.0000
# 2 24.1126 41.9801 20.1371 0.0000 -10.3015 0.0000
# 3 22.9577 20.1371 110.3028 0.0000 13.6642 0.0000
# 4 0.0000 0.0000 0.0000 23.1621 0.0000 -4.6289
# 5 2.5935 -10.3015 13.6642 0.0000 24.2576 0.0000
# 6 0.0000 0.0000 0.0000 -4.6289 0.0000 20.5575
#
#
#
# Elastic Compliance Matrix: (Units=1/GPa)
#
#
# Indices 1 2 3 4 5 6 
#
# 1 0.010444 -0.006654 -0.000506 0.000000 -0.003657 0.000000
# 2 -0.006654 0.036448 -0.007820 0.000000 0.020595 0.000000
# 3 -0.000506 -0.007820 0.011829 0.000000 -0.009930 0.000000
# 4 0.000000 0.000000 0.000000 0.045208 0.000000 0.010179
# 5 -0.003657 0.020595 -0.009930 0.000000 0.055955 0.000000
# 6 0.000000 0.000000 0.000000 0.010179 0.000000 0.050936
#
#
# Mechanical properties :
#
#
# Convention : Reuss Voigt Hill
#
# Bulk Modulus (GPa) = 34.76954 44.42512 39.59733
# Shear Modulus (GPa) = 19.97070 26.80906 23.38988
#
# Velocity S-wave (km/s) = 3.08429 3.57354 3.33789
# Velocity P-wave (km/s) = 5.40795 6.17968 5.80665
#
# Compressibility (1/GPa) = 0.02876081
#
# Stress axis : x y z
#
# Youngs Moduli (GPa) = 95.74657 27.43671 84.53721
#
# Poissons Ratio (x) = 0.18255 0.04278
# Poissons Ratio (y) = 0.63707 0.66111
# Poissons Ratio (z) = 0.04845 0.21456
#
# Static dielectric constant tensor:
#      x y z
#    x 2.013050 0.000000 -0.080630 
#    y 0.000000 1.782380 0.000000 
#    z -0.080630 0.000000 1.796340 
# 
# From -- ./inp_files/162204.got.cif
#   From: 2010.05.17/outbox.cif.g08.bks.cpg/sg15_82_cif.got.tgz:162204.got - 2010.06.03 18:47:42.
