data_PCOD9270276
_publ_section_title
;
Structure prediction by ZEFSAII (Michael W. Deem and Ramdas Pophale) SiO2 
 PCOD9270276
Probable space group: C 2/C
;
_chemical_formula_sum "Si O2"
_cell_formula_units_Z 32
_cell_length_a 12.458072
_cell_length_b 23.250895
_cell_length_c 14.561491
_cell_angle_alpha 90.000000
_cell_angle_beta 158.884191
_cell_angle_gamma 90.000000
_cell_volume 1519.516524
_symmetry_space_group_name_H-M "C 2/C"
_symmetry_group_IT_number 15
_symmetry_cell_setting 'monoclinic'
loop_
_space_group_symop_operation_xyz
x,y,z
-x,y,1/2-z
-x,-y,-z
x,-y,1/2+z
1/2+x,1/2+y,z
1/2-x,1/2+y,1/2-z
1/2-x,1/2-y,-z
1/2+x,1/2-y,1/2+z
loop_
_atom_site_type_symbol
_atom_site_label
_atom_site_fract_x
_atom_site_fract_y
_atom_site_fract_z
Si Si1 0.500000 0.787744 0.750000
Si Si2 0.000000 0.045573 0.250000
Si Si3 0.194879 0.875341 0.646681
Si Si4 0.676200 0.657473 0.476046
Si Si5 0.692759 0.565830 0.816060
O O1 0.335260 0.828009 0.691892
O O2 0.250000 0.750000 0.500000
O O3 0.208553 0.090334 0.469370
O O4 0.167226 0.002455 0.314344
O O5 0.018483 0.845270 0.588166
O O6 0.972398 0.914168 0.407724
O O7 0.473505 0.911433 0.908405
O O8 0.000000 0.681921 0.750000
O O9 0.500000 0.684281 0.250000
O O10 0.500000 0.589770 0.750000
#
# Coordination Sequence:
#
# PCOD9270276 Si02
#       5
#     4   4   8   8   8
#     4  12  24  41  68  94 114 134 192 251 310 374
#     4   8  22  35  52  88 122 158 216 231 270 326
#     4  12  22  41  62  86 121 162 182 251 309 341
#     4  10  23  39  56  84 122 167 206 232 273 345
#     4  10  20  35  57  85 129 150 203 234 291 339
#
# _framework density 21.059331
#
# number of rings (size 3 to 8) (size 9 to 14) (size 15 to 20)
#    1.500    0.000    2.500    3.000    3.500    2.000 
#    0.000    0.000    0.000    4.500    0.000    0.000 
#    0.000    0.000    0.000    0.000    0.000    0.000 
#
# Total GULP energy -89310.677751 kJ/mol
# GULP energy per Si atom -5581.917359 kJ/mol
# Density = 2.101140 g / cm^3
# Si number density = 21.059331 Si / 1000 Ang^3
#
#
#
# Elastic Constant Matrix: (Units=GPa)
#
#
# Indices 1 2 3 4 5 6 
#
# 1 141.3095 26.6234 64.2134 -0.0121 -0.3849 0.0061
# 2 26.6234 101.6911 43.7014 -0.0558 -6.8694 -0.0194
# 3 64.2134 43.7014 185.8964 0.0016 -21.4328 -0.0359
# 4 -0.0121 -0.0558 0.0016 227.6857 0.0199 30.3382
# 5 -0.3849 -6.8694 -21.4328 0.0199 26.6255 -0.0073
# 6 0.0061 -0.0194 -0.0359 30.3382 -0.0073 25.2290
#
#
#
# Elastic Compliance Matrix: (Units=1/GPa)
#
#
# Indices 1 2 3 4 5 6 
#
# 1 0.008658 -0.001144 -0.003022 0.000002 -0.002603 -0.000010
# 2 -0.001144 0.011107 -0.002080 0.000002 0.001174 0.000004
# 3 -0.003022 -0.002080 0.007546 -0.000003 0.005494 0.000015
# 4 0.000002 0.000002 -0.000003 0.005230 -0.000008 -0.006289
# 5 -0.002603 0.001174 0.005494 -0.000008 0.042246 0.000031
# 6 -0.000010 0.000004 0.000015 -0.006289 0.000031 0.047200
#
#
# Mechanical properties :
#
#
# Convention : Reuss Voigt Hill
#
# Bulk Modulus (GPa) = 67.48602 77.55261 72.51931
# Shear Modulus (GPa) = 35.86335 75.53195 55.69765
#
# Velocity S-wave (km/s) = 4.13118 5.99534 5.14834
# Velocity P-wave (km/s) = 7.40748 9.21039 8.35769
#
# Compressibility (1/GPa) = 0.01481788
#
# Stress axis : x y z
#
# Youngs Moduli (GPa) = 115.49579 90.03671 132.52630
#
# Poissons Ratio (x) = 0.10300 0.40049
# Poissons Ratio (y) = 0.13212 0.27571
# Poissons Ratio (z) = 0.34902 0.18732
#
# Static dielectric constant tensor:
#      x y z
#    x 1.754210 0.000000 -0.004630 
#    y 0.000000 1.754360 -0.000020 
#    z -0.004630 -0.000020 1.734500 
# 
# From -- ./inp_files/149092.got.cif
#   From: 2010.05.17/outbox.cif.g08.bks.cpg/sg15_75_cif.got.tgz:149092.got - 2010.06.03 18:47:42.
