data_PCOD9270512
_publ_section_title
;
Structure prediction by ZEFSAII (Michael W. Deem and Ramdas Pophale) SiO2 
 PCOD9270512
Probable space group: C 2/C
;
_chemical_formula_sum "Si O2"
_cell_formula_units_Z 60
_cell_length_a 12.207434
_cell_length_b 20.264372
_cell_length_c 17.657750
_cell_angle_alpha 90.000000
_cell_angle_beta 37.784352
_cell_angle_gamma 90.000000
_cell_volume 2676.298579
_symmetry_space_group_name_H-M "C 2/C"
_symmetry_group_IT_number 15
_symmetry_cell_setting 'monoclinic'
loop_
_space_group_symop_operation_xyz
x,y,z
-x,y,1/2-z
-x,-y,-z
x,-y,1/2+z
1/2+x,1/2+y,z
1/2-x,1/2+y,1/2-z
1/2-x,1/2-y,-z
1/2+x,1/2-y,1/2+z
loop_
_atom_site_type_symbol
_atom_site_label
_atom_site_fract_x
_atom_site_fract_y
_atom_site_fract_z
Si Si1 0.804281 0.530781 0.120225
Si Si2 0.384410 0.347958 0.052594
Si Si3 0.500000 0.034328 0.250000
Si Si4 0.498271 0.764907 0.920882
Si Si5 0.339982 0.338131 0.395447
Si Si6 0.022694 0.048325 0.868664
Si Si7 0.254871 0.055776 0.975927
Si Si8 0.273155 0.870077 0.776299
O O1 0.672424 0.475847 0.228153
O O2 0.796048 0.589593 0.185865
O O3 0.741816 0.557995 0.073080
O O4 0.000000 0.500000 0.000000
O O5 0.574711 0.349845 0.905965
O O6 0.372212 0.274496 0.093437
O O7 0.392635 0.401962 0.116486
O O8 0.243680 0.375197 0.068840
O O9 0.651739 0.081559 0.200337
O O10 0.578108 0.987795 0.142178
O O11 0.384097 0.706631 0.944328
O O12 0.606229 0.805295 0.799114
O O13 0.350309 0.816081 0.033041
O O14 0.500000 0.327124 0.250000
O O15 0.364052 0.412064 0.412376
O O16 0.923080 0.983882 0.954765
#
# Coordination Sequence:
#
# PCOD9270512 Si02
#       8
#     8   8   4   8   8   8   8   8
#     4  12  26  41  64 103 140 179 226 284 345 412
#     4  11  24  43  68  96 134 183 225 274 341 423
#     4  12  24  38  72 104 140 170 222 290 352 408
#     4  10  24  38  59  95 130 176 227 270 332 402
#     4  10  20  35  59  90 129 169 210 276 339 403
#     4  11  22  40  65 100 135 171 218 277 356 411
#     4  12  23  42  65  99 136 178 221 277 346 409
#     4  12  24  43  65  98 138 178 225 283 342 410
#
# _framework density 22.419024
#
# number of rings (size 3 to 8) (size 9 to 14) (size 15 to 20)
#    0.000    0.800    4.000    4.000    6.533    0.000 
#    0.000    0.667    0.000    0.000    0.000    0.000 
#    0.000    0.000    0.000    0.000    0.000    0.000 
#
# Total GULP energy -167773.707463 kJ/mol
# GULP energy per Si atom -5592.456915 kJ/mol
# Density = 2.236800 g / cm^3
# Si number density = 22.419024 Si / 1000 Ang^3
#
#
#
# Elastic Constant Matrix: (Units=GPa)
#
#
# Indices 1 2 3 4 5 6 
#
# 1 60.7043 18.7069 -9.0901 0.0036 23.0691 -0.0024
# 2 18.7069 72.4731 11.9385 0.0081 3.2193 -0.0076
# 3 -9.0901 11.9385 71.1579 0.0149 8.8507 -0.0060
# 4 0.0036 0.0081 0.0149 21.5469 -0.0037 0.3808
# 5 23.0691 3.2193 8.8507 -0.0037 30.7892 0.0010
# 6 -0.0024 -0.0076 -0.0060 0.3808 0.0010 16.3298
#
#
#
# Elastic Compliance Matrix: (Units=1/GPa)
#
#
# Indices 1 2 3 4 5 6 
#
# 1 0.028748 -0.007688 0.007821 -0.000011 -0.022984 0.000005
# 2 -0.007688 0.016267 -0.004373 -0.000001 0.005316 0.000004
# 3 0.007821 -0.004373 0.017068 -0.000013 -0.010309 0.000006
# 4 -0.000011 -0.000001 -0.000013 0.046429 0.000018 -0.001083
# 5 -0.022984 0.005316 -0.010309 0.000018 0.052108 -0.000008
# 6 0.000005 0.000004 0.000006 -0.001083 -0.000008 0.061263
#
#
# Mechanical properties :
#
#
# Convention : Reuss Voigt Hill
#
# Bulk Modulus (GPa) = 18.65512 27.49398 23.07455
# Shear Modulus (GPa) = 20.14259 25.91853 23.03056
#
# Velocity S-wave (km/s) = 3.00068 3.40383 3.20859
# Velocity P-wave (km/s) = 4.51050 5.26672 4.90321
#
# Compressibility (1/GPa) = 0.05360459
#
# Stress axis : x y z
#
# Youngs Moduli (GPa) = 34.78478 61.47500 58.58826
#
# Poissons Ratio (x) = 0.47262 -0.45823
# Poissons Ratio (y) = 0.26742 0.25618
# Poissons Ratio (z) = -0.27206 0.26880
#
# Static dielectric constant tensor:
#      x y z
#    x 1.883530 0.000000 -0.007620 
#    y 0.000000 1.868510 0.000000 
#    z -0.007620 0.000000 1.809720 
# 
# From -- ./inp_files/200511.got.cif
#   From: 2010.05.17/outbox.cif.g08.bks.cpg/sg15_101_cif.got.tgz:200511.got - 2010.06.03 18:47:42.
