data_PCOD9270395
_publ_section_title
;
Structure prediction by ZEFSAII (Michael W. Deem and Ramdas Pophale) SiO2 
 PCOD9270395
Probable space group: C 2/C
;
_chemical_formula_sum "Si O2"
_cell_formula_units_Z 52
_cell_length_a 7.706259
_cell_length_b 18.863793
_cell_length_c 25.952348
_cell_angle_alpha 90.000000
_cell_angle_beta 42.454411
_cell_angle_gamma 90.000000
_cell_volume 2546.567622
_symmetry_space_group_name_H-M "C 2/C"
_symmetry_group_IT_number 15
_symmetry_cell_setting 'monoclinic'
loop_
_space_group_symop_operation_xyz
x,y,z
-x,y,1/2-z
-x,-y,-z
x,-y,1/2+z
1/2+x,1/2+y,z
1/2-x,1/2+y,1/2-z
1/2-x,1/2-y,-z
1/2+x,1/2-y,1/2+z
loop_
_atom_site_type_symbol
_atom_site_label
_atom_site_fract_x
_atom_site_fract_y
_atom_site_fract_z
Si Si1 0.678166 0.353226 0.042399
Si Si2 0.702954 0.084921 0.309256
Si Si3 0.907721 0.351069 0.455296
Si Si4 0.375363 0.989594 0.970382
Si Si5 0.991398 0.212117 0.117648
Si Si6 0.096093 0.281366 0.883790
Si Si7 0.500000 0.883682 0.750000
O O1 0.445978 0.302620 0.110078
O O2 0.882731 0.352557 0.044479
O O3 0.643215 0.434405 0.032345
O O4 0.825085 0.313627 0.963263
O O5 0.557834 0.050705 0.389695
O O6 0.670785 0.170872 0.319227
O O7 0.585101 0.068237 0.279707
O O8 0.000000 0.066490 0.250000
O O9 0.840747 0.431689 0.456230
O O10 0.025494 0.296479 0.388306
O O11 0.642552 0.318348 0.534898
O O12 0.500000 0.000000 0.000000
O O13 0.185819 0.201813 0.122335
O O14 0.737433 0.166974 0.182134
#
# Coordination Sequence:
#
# PCOD9270395 Si02
#       7
#     8   8   8   8   8   8   4
#     4   8  15  29  56  86 113 148 200 247 305 359
#     4  11  22  39  63  88 125 168 208 261 319 391
#     4   9  18  35  58  87 120 157 206 261 309 365
#     4   9  19  36  64  92 121 169 211 256 326 373
#     4  10  20  35  58  87 121 157 207 262 308 374
#     4   9  16  32  55  84 116 152 196 253 300 358
#     4  12  24  38  62  92 124 168 216 256 332 386
#
# _framework density 20.419643000000001
#
# number of rings (size 3 to 8) (size 9 to 14) (size 15 to 20)
#    0.000    2.462    1.538    1.846    0.000    3.692 
#    1.385    3.077    0.000    0.000    2.000    0.000 
#    0.000    0.000    0.000    0.000    0.000    0.000 
#
# Total GULP energy -144833.256462 kJ/mol
# GULP energy per Si atom -5570.509864 kJ/mol
# Density = 2.037317 g / cm^3
# Si number density = 20.419643 Si / 1000 Ang^3
#
#
#
# Elastic Constant Matrix: (Units=GPa)
#
#
# Indices 1 2 3 4 5 6 
#
# 1 85.4855 10.1025 26.6867 -0.0068 8.4307 0.0032
# 2 10.1025 112.5969 17.3167 -0.0176 -2.0015 0.0098
# 3 26.6867 17.3167 62.7020 -0.0254 5.0843 0.0074
# 4 -0.0068 -0.0176 -0.0254 14.7741 0.0070 8.3974
# 5 8.4307 -2.0015 5.0843 0.0070 26.7623 -0.0025
# 6 0.0032 0.0098 0.0074 8.3974 -0.0025 18.6361
#
#
#
# Elastic Compliance Matrix: (Units=1/GPa)
#
#
# Indices 1 2 3 4 5 6 
#
# 1 0.013789 -0.000455 -0.005473 -0.000002 -0.003338 0.000001
# 2 -0.000455 0.009328 -0.002489 0.000011 0.001314 -0.000009
# 3 -0.005473 -0.002489 0.019135 0.000043 -0.002097 -0.000025
# 4 -0.000002 0.000011 0.000043 0.090990 -0.000034 -0.041000
# 5 -0.003338 0.001314 -0.002097 -0.000034 0.038914 0.000021
# 6 0.000001 -0.000009 -0.000025 -0.041000 0.000021 0.072134
#
#
# Mechanical properties :
#
#
# Convention : Reuss Voigt Hill
#
# Bulk Modulus (GPa) = 39.33988 40.99955 40.16972
# Shear Modulus (GPa) = 18.54618 25.81307 22.17963
#
# Velocity S-wave (km/s) = 3.01699 3.55932 3.29932
# Velocity P-wave (km/s) = 5.60748 6.08389 5.85054
#
# Compressibility (1/GPa) = 0.02541950
#
# Stress axis : x y z
#
# Youngs Moduli (GPa) = 72.52009 107.20154 52.25977
#
# Poissons Ratio (x) = 0.04877 0.28599
# Poissons Ratio (y) = 0.03299 0.13008
# Poissons Ratio (z) = 0.39687 0.26684
#
# Static dielectric constant tensor:
#      x y z
#    x 1.785490 0.000000 0.033070 
#    y 0.000000 1.796380 0.000000 
#    z 0.033070 0.000000 1.737150 
# 
# From -- ./inp_files/289533.got.cif
#   From: 2010.05.17/outbox.cif.g08.bks.cpg/sg15_145_cif.got.tgz:289533.got - 2010.06.03 18:47:42.
