data_PCOD9270177
_publ_section_title
;
Structure prediction by ZEFSAII (Michael W. Deem and Ramdas Pophale) SiO2 
 PCOD9270177
Probable space group: C 2/C
;
_chemical_formula_sum "Si O2"
_cell_formula_units_Z 32
_cell_length_a 17.710443
_cell_length_b 9.669889
_cell_length_c 22.202359
_cell_angle_alpha 90.000000
_cell_angle_beta 23.948265
_cell_angle_gamma 90.000000
_cell_volume 1543.410646
_symmetry_space_group_name_H-M "C 2/C"
_symmetry_group_IT_number 15
_symmetry_cell_setting 'monoclinic'
loop_
_space_group_symop_operation_xyz
x,y,z
-x,y,1/2-z
-x,-y,-z
x,-y,1/2+z
1/2+x,1/2+y,z
1/2-x,1/2+y,1/2-z
1/2-x,1/2-y,-z
1/2+x,1/2-y,1/2+z
loop_
_atom_site_type_symbol
_atom_site_label
_atom_site_fract_x
_atom_site_fract_y
_atom_site_fract_z
Si Si1 0.196997 0.593281 0.929449
Si Si2 0.956181 0.349087 0.081777
Si Si3 0.515786 0.798389 0.806750
Si Si4 0.169121 0.064031 0.341081
O O1 0.050472 0.653876 0.986411
O O2 0.346410 0.832624 0.975231
O O3 0.401266 0.642347 0.760017
O O4 0.136687 0.432288 0.973591
O O5 0.912708 0.195320 0.135596
O O6 0.779523 0.445496 0.225818
O O7 0.500000 0.850902 0.750000
O O8 0.682305 0.877401 0.719483
O O9 0.000000 0.000000 0.500000
#
# Coordination Sequence:
#
# PCOD9270177 Si02
#       4
#     8   8   8   8
#     4   9  19  33  55  82 114 146 184 239 279 327
#     4   9  20  35  55  85 114 141 196 232 287 327
#     4  10  20  35  56  85 118 150 194 232 280 342
#     4  10  22  35  60  86 111 152 188 241 284 332
#
# _framework density 20.733302999999999
#
# number of rings (size 3 to 8) (size 9 to 14) (size 15 to 20)
#    0.000    2.500    0.000    0.750   24.500    0.000 
#    0.000    0.000    0.000    7.500    0.000    0.000 
#    0.000    0.000    0.000    0.000    0.000    0.000 
#
# Total GULP energy -89095.124371 kJ/mol
# GULP energy per Si atom -5568.445273 kJ/mol
# Density = 2.068611 g / cm^3
# Si number density = 20.733303 Si / 1000 Ang^3
#
#
#
# Elastic Constant Matrix: (Units=GPa)
#
#
# Indices 1 2 3 4 5 6 
#
# 1 94.4409 12.9410 3.8170 -0.0019 14.9195 -0.0003
# 2 12.9410 131.2364 33.7857 -0.0007 14.3483 0.0002
# 3 3.8170 33.7857 52.9927 -0.0002 20.9484 0.0016
# 4 -0.0019 -0.0007 -0.0002 28.9571 0.0005 3.1761
# 5 14.9195 14.3483 20.9484 0.0005 26.9937 0.0002
# 6 -0.0003 0.0002 0.0016 3.1761 0.0002 25.1857
#
#
#
# Elastic Compliance Matrix: (Units=1/GPa)
#
#
# Indices 1 2 3 4 5 6 
#
# 1 0.011950 -0.001068 0.003183 0.000001 -0.008508 0.000000
# 2 -0.001068 0.009216 -0.005908 0.000000 0.000276 0.000000
# 3 0.003183 -0.005908 0.031537 0.000001 -0.023093 -0.000002
# 4 0.000001 0.000000 0.000001 0.035018 -0.000002 -0.004416
# 5 -0.008508 0.000276 -0.023093 -0.000002 0.059522 0.000001
# 6 0.000000 0.000000 -0.000002 -0.004416 0.000001 0.040262
#
#
# Mechanical properties :
#
#
# Convention : Reuss Voigt Hill
#
# Bulk Modulus (GPa) = 22.16422 42.19525 32.17974
# Shear Modulus (GPa) = 23.79485 31.43574 27.61530
#
# Velocity S-wave (km/s) = 3.39139 3.89806 3.65352
# Velocity P-wave (km/s) = 5.10380 6.37616 5.77513
#
# Compressibility (1/GPa) = 0.04511776
#
# Stress axis : x y z
#
# Youngs Moduli (GPa) = 83.67988 108.50869 31.70911
#
# Poissons Ratio (x) = 0.11585 -0.10093
# Poissons Ratio (y) = 0.08935 0.18734
# Poissons Ratio (z) = -0.26636 0.64106
#
# Static dielectric constant tensor:
#      x y z
#    x 1.799340 0.000000 0.066630 
#    y 0.000000 1.829710 0.000000 
#    z 0.066630 0.000000 1.864250 
# 
# From -- ./inp_files/317215.got.cif
#   From: 2010.05.17/outbox.cif.g08.bks.cpg/sg15_159_cif.got.tgz:317215.got - 2010.06.03 18:47:42.
