data_PCOD9270132
_publ_section_title
;
Structure prediction by ZEFSAII (Michael W. Deem and Ramdas Pophale) SiO2 
 PCOD9270132
Probable space group: C 2/C
;
_chemical_formula_sum "Si O2"
_cell_formula_units_Z 60
_cell_length_a 24.427795
_cell_length_b 6.733592
_cell_length_c 21.496619
_cell_angle_alpha 90.000000
_cell_angle_beta 124.623181
_cell_angle_gamma 90.000000
_cell_volume 2909.723681
_symmetry_space_group_name_H-M "C 2/C"
_symmetry_group_IT_number 15
_symmetry_cell_setting 'monoclinic'
loop_
_space_group_symop_operation_xyz
x,y,z
-x,y,1/2-z
-x,-y,-z
x,-y,1/2+z
1/2+x,1/2+y,z
1/2-x,1/2+y,1/2-z
1/2-x,1/2-y,-z
1/2+x,1/2-y,1/2+z
loop_
_atom_site_type_symbol
_atom_site_label
_atom_site_fract_x
_atom_site_fract_y
_atom_site_fract_z
Si Si1 0.554344 0.463664 0.158359
Si Si2 0.836443 0.375000 0.750000
Si Si3 0.410228 0.872080 0.383045
Si Si4 0.222817 0.877921 0.383045
Si Si5 0.500000 0.375000 0.750000
Si Si6 0.160139 0.599567 0.446332
Si Si7 0.354015 0.213664 0.658359
Si Si8 0.963808 0.650433 0.053668
O O1 0.609205 0.299500 0.210653
O O2 0.586888 0.658166 0.148522
O O3 0.515327 0.508546 0.196645
O O4 0.501921 0.359871 0.078797
O O5 0.846942 0.494337 0.821252
O O6 0.775690 0.255662 0.678748
O O7 0.851448 0.549500 0.710653
O O8 0.420752 0.863259 0.463377
O O9 0.478021 0.986034 0.405526
O O10 0.177505 0.763966 0.405526
O O11 0.292625 0.886741 0.463377
O O12 0.188366 0.091835 0.351478
O O13 0.431318 0.258546 0.696645
O O14 0.173124 0.390130 0.421203
O O15 0.084997 0.625000 0.419993
#
# Coordination Sequence:
#
# PCOD9270132 Si02
#       8
#     8   8   8   8   4   8   8   8
#     4  11  21  34  54  85 116 149 185 238 291 347
#     4  10  20  35  56  75 112 150 189 232 286 331
#     4  10  20  39  56  82 116 151 188 239 286 346
#     4  10  20  39  56  82 116 151 188 239 286 346
#     4  12  20  30  56  86 122 144 194 238 308 352
#     4  10  22  36  59  83 115 150 191 232 290 348
#     4  11  21  34  54  85 116 149 185 238 291 347
#     4  10  22  36  59  83 115 150 191 232 290 348
#
# _framework density 20.620514
#
# number of rings (size 3 to 8) (size 9 to 14) (size 15 to 20)
#    0.000    1.600    2.667    2.400    3.733    0.000 
#    0.000    0.000    5.867    0.000    0.000    0.000 
#    0.000    0.000    0.000    0.000    0.000    0.000 
#
# Total GULP energy -167280.699184 kJ/mol
# GULP energy per Si atom -5576.023306 kJ/mol
# Density = 2.057358 g / cm^3
# Si number density = 20.620514 Si / 1000 Ang^3
#
#
#
# Elastic Constant Matrix: (Units=GPa)
#
#
# Indices 1 2 3 4 5 6 
#
# 1 23.2786 4.9763 -20.4890 0.0000 0.3435 0.0000
# 2 4.9763 124.6188 36.5453 0.0003 -0.3358 -0.0001
# 3 -20.4890 36.5453 114.8951 0.0000 -1.3185 0.0000
# 4 0.0000 0.0003 0.0000 27.7947 0.0000 -0.1642
# 5 0.3435 -0.3358 -1.3185 0.0000 5.7721 0.0000
# 6 0.0000 -0.0001 0.0000 -0.1642 0.0000 12.2763
#
#
#
# Elastic Compliance Matrix: (Units=1/GPa)
#
#
# Indices 1 2 3 4 5 6 
#
# 1 0.054189 -0.005511 0.011406 0.000000 -0.000940 0.000000
# 2 -0.005511 0.009411 -0.003976 0.000000 -0.000033 0.000000
# 3 0.011406 -0.003976 0.012023 0.000000 0.001836 0.000000
# 4 0.000000 0.000000 0.000000 0.035981 0.000000 0.000481
# 5 -0.000940 -0.000033 0.001836 0.000000 0.173720 0.000000
# 6 0.000000 0.000000 0.000000 0.000481 0.000000 0.081464
#
#
# Mechanical properties :
#
#
# Convention : Reuss Voigt Hill
#
# Bulk Modulus (GPa) = 12.58519 33.87308 23.22914
# Shear Modulus (GPa) = 12.83902 25.28596 19.06249
#
# Velocity S-wave (km/s) = 2.49797 3.50559 3.04376
# Velocity P-wave (km/s) = 3.79951 5.73132 4.86232
#
# Compressibility (1/GPa) = 0.07945845
#
# Stress axis : x y z
#
# Youngs Moduli (GPa) = 18.45406 106.26348 83.17120
#
# Poissons Ratio (x) = 0.58563 -0.94861
# Poissons Ratio (y) = 0.10170 0.33073
# Poissons Ratio (z) = -0.21048 0.42255
#
# Static dielectric constant tensor:
#      x y z
#    x 1.680320 0.000000 -0.001130 
#    y 0.000000 1.747620 0.000000 
#    z -0.001130 0.000000 1.786610 
# 
# From -- ./inp_files/284079.got.cif
#   From: 2010.05.17/outbox.cif.g08.bks.cpg/sg15_143_cif.got.tgz:284079.got - 2010.06.03 18:47:42.
