data_PCOD9270161
_publ_section_title
;
Structure prediction by ZEFSAII (Michael W. Deem and Ramdas Pophale) SiO2 
 PCOD9270161
Probable space group: C 2/C
;
_chemical_formula_sum "Si O2"
_cell_formula_units_Z 32
_cell_length_a 7.493175
_cell_length_b 7.112812
_cell_length_c 22.576396
_cell_angle_alpha 90.000000
_cell_angle_beta 91.188324
_cell_angle_gamma 90.000000
_cell_volume 1203.007697
_symmetry_space_group_name_H-M "C 2/C"
_symmetry_group_IT_number 15
_symmetry_cell_setting 'monoclinic'
loop_
_space_group_symop_operation_xyz
x,y,z
-x,y,1/2-z
-x,-y,-z
x,-y,1/2+z
1/2+x,1/2+y,z
1/2-x,1/2+y,1/2-z
1/2-x,1/2-y,-z
1/2+x,1/2-y,1/2+z
loop_
_atom_site_type_symbol
_atom_site_label
_atom_site_fract_x
_atom_site_fract_y
_atom_site_fract_z
Si Si1 0.983691 0.075172 0.065938
Si Si2 0.486250 0.920988 0.314423
Si Si3 0.583192 0.012376 0.565573
Si Si4 0.579151 0.511344 0.813617
O O1 0.023498 0.953741 0.125129
O O2 0.101211 0.261452 0.070273
O O3 0.767953 0.100587 0.069140
O O4 0.000000 0.000000 0.000000
O O5 0.500000 0.014493 0.250000
O O6 0.532974 0.026470 0.375923
O O7 0.583123 0.719147 0.312092
O O8 0.273120 0.899258 0.318760
O O9 0.500000 0.000000 0.500000
O O10 0.500000 0.565303 0.750000
#
# Coordination Sequence:
#
# PCOD9270161 Si02
#       4
#     8   8   8   8
#     4  10  20  35  56  83 117 154 197 247 300 359
#     4   9  19  37  58  83 118 159 202 249 303 362
#     4  10  20  35  56  83 117 154 197 247 300 359
#     4   9  19  37  58  83 118 159 202 249 303 362
#
# _framework density 26.599995
#
# number of rings (size 3 to 8) (size 9 to 14) (size 15 to 20)
#    0.000    2.500    0.000    1.500    0.000    2.000 
#    0.000   15.000    0.000    0.000    0.000    0.000 
#    0.000    0.000    0.000    0.000    0.000    0.000 
#
# Total GULP energy -89290.536042 kJ/mol
# GULP energy per Si atom -5580.658503 kJ/mol
# Density = 2.653945 g / cm^3
# Si number density = 26.599995 Si / 1000 Ang^3
#
#
#
# Elastic Constant Matrix: (Units=GPa)
#
#
# Indices 1 2 3 4 5 6 
#
# 1 91.2955 19.7571 35.5206 0.0000 13.4824 0.0000
# 2 19.7571 106.3876 25.7974 0.0000 6.7093 0.0000
# 3 35.5206 25.7974 341.5281 0.0000 0.0888 0.0000
# 4 0.0000 0.0000 0.0000 16.1309 0.0000 5.2538
# 5 13.4824 6.7093 0.0888 0.0000 51.1636 0.0000
# 6 0.0000 0.0000 0.0000 5.2538 0.0000 22.2772
#
#
#
# Elastic Compliance Matrix: (Units=1/GPa)
#
#
# Indices 1 2 3 4 5 6 
#
# 1 0.012226 -0.001807 -0.001134 0.000000 -0.002983 0.000000
# 2 -0.001807 0.009923 -0.000561 0.000000 -0.000824 0.000000
# 3 -0.001134 -0.000561 0.003088 0.000000 0.000367 0.000000
# 4 0.000000 0.000000 0.000000 0.067151 0.000000 -0.015837
# 5 -0.002983 -0.000824 0.000367 0.000000 0.020439 0.000000
# 6 0.000000 0.000000 0.000000 -0.015837 0.000000 0.048624
#
#
# Mechanical properties :
#
#
# Convention : Reuss Voigt Hill
#
# Bulk Modulus (GPa) = 54.84886 77.92903 66.38895
# Shear Modulus (GPa) = 28.64758 48.45673 38.55215
#
# Velocity S-wave (km/s) = 3.28529 4.27275 3.81114
# Velocity P-wave (km/s) = 5.92077 7.32817 6.66174
#
# Compressibility (1/GPa) = 0.01823192
#
# Stress axis : x y z
#
# Youngs Moduli (GPa) = 81.79016 100.77266 323.80289
#
# Poissons Ratio (x) = 0.18213 0.36729
# Poissons Ratio (y) = 0.14783 0.18177
# Poissons Ratio (z) = 0.09278 0.05657
#
# Static dielectric constant tensor:
#      x y z
#    x 2.024000 0.000000 -0.008670 
#    y 0.000000 2.167540 0.000000 
#    z -0.008670 0.000000 2.264410 
# 
# From -- ./inp_files/229211.got.cif
#   From: 2010.05.17/outbox.cif.g08.bks.cpg/sg15_115_cif.got.tgz:229211.got - 2010.06.03 18:47:42.
