data_PCOD9270604
_publ_section_title
;
Structure prediction by ZEFSAII (Michael W. Deem and Ramdas Pophale) SiO2 
 PCOD9270604
Probable space group: C 2/C
;
_chemical_formula_sum "Si O2"
_cell_formula_units_Z 40
_cell_length_a 21.330575
_cell_length_b 6.579343
_cell_length_c 18.436327
_cell_angle_alpha 90.000000
_cell_angle_beta 135.139377
_cell_angle_gamma 90.000000
_cell_volume 1825.094944
_symmetry_space_group_name_H-M "C 2/C"
_symmetry_group_IT_number 15
_symmetry_cell_setting 'monoclinic'
loop_
_space_group_symop_operation_xyz
x,y,z
-x,y,1/2-z
-x,-y,-z
x,-y,1/2+z
1/2+x,1/2+y,z
1/2-x,1/2+y,1/2-z
1/2-x,1/2-y,-z
1/2+x,1/2-y,1/2+z
loop_
_atom_site_type_symbol
_atom_site_label
_atom_site_fract_x
_atom_site_fract_y
_atom_site_fract_z
Si Si1 0.275707 0.148293 0.329158
Si Si2 0.561248 0.409089 0.989371
Si Si3 0.684874 0.966963 0.799917
Si Si4 0.511335 0.056523 0.841572
Si Si5 0.172395 0.284593 0.023298
O O1 0.364139 0.279051 0.409628
O O2 0.202280 0.288752 0.309094
O O3 0.268855 0.100285 0.238390
O O4 0.294406 0.943822 0.388540
O O5 0.516539 0.250759 0.898126
O O6 0.500000 0.500000 0.000000
O O7 0.607504 0.598661 0.989096
O O8 0.579048 0.933459 0.712857
O O9 0.735123 0.849426 0.907283
O O10 0.500000 0.124702 0.750000
O O11 0.603305 0.929230 0.922498
#
# Coordination Sequence:
#
# PCOD9270604 Si02
#       5
#     8   8   8   8   8
#     4  10  20  35  60  98 125 156 218 277 329 372
#     4  10  21  38  64  92 125 168 222 279 322 378
#     4  11  21  37  66  95 131 172 216 278 330 385
#     4  11  26  43  62  96 138 180 220 266 329 402
#     4  10  22  41  62  96 128 170 220 270 330 388
#
# _framework density 21.916668999999999
#
# number of rings (size 3 to 8) (size 9 to 14) (size 15 to 20)
#    0.000    1.600    2.000    2.400    2.800    6.400 
#    0.000    9.000    0.000    0.000    0.000    0.000 
#    0.000    0.000    0.000    0.000    0.000    0.000 
#
# Total GULP energy -111340.215463 kJ/mol
# GULP energy per Si atom -5567.010773 kJ/mol
# Density = 2.186679 g / cm^3
# Si number density = 21.916669 Si / 1000 Ang^3
#
#
#
# Elastic Constant Matrix: (Units=GPa)
#
#
# Indices 1 2 3 4 5 6 
#
# 1 65.0905 27.7238 37.1844 -0.0001 21.4420 0.0000
# 2 27.7238 116.6837 52.2292 0.0027 6.3380 -0.0003
# 3 37.1844 52.2292 137.8889 0.0001 8.1739 0.0000
# 4 -0.0001 0.0027 0.0001 429.6934 -0.0001 -33.4127
# 5 21.4420 6.3380 8.1739 -0.0001 18.7144 0.0000
# 6 0.0000 -0.0003 0.0000 -33.4127 0.0000 18.6091
#
#
#
# Elastic Compliance Matrix: (Units=1/GPa)
#
#
# Indices 1 2 3 4 5 6 
#
# 1 0.029693 -0.003150 -0.004990 0.000000 -0.030775 0.000000
# 2 -0.003150 0.010716 -0.003294 0.000000 0.001418 0.000000
# 3 -0.004990 -0.003294 0.009691 0.000000 0.002600 0.000000
# 4 0.000000 0.000000 0.000000 0.002705 0.000000 0.004857
# 5 -0.030775 0.001418 0.002600 0.000000 0.087079 0.000000
# 6 0.000000 0.000000 0.000000 0.004857 0.000000 0.062457
#
#
# Mechanical properties :
#
#
# Convention : Reuss Voigt Hill
#
# Bulk Modulus (GPa) = 36.71942 61.54863 49.13402
# Shear Modulus (GPa) = 21.34142 106.90510 64.12326
#
# Velocity S-wave (km/s) = 3.12389 6.99170 5.41491
# Velocity P-wave (km/s) = 5.45912 9.66036 7.84616
#
# Compressibility (1/GPa) = 0.02723355
#
# Stress axis : x y z
#
# Youngs Moduli (GPa) = 33.67764 93.32038 103.18566
#
# Poissons Ratio (x) = 0.29395 0.51489
# Poissons Ratio (y) = 0.10608 0.33985
# Poissons Ratio (z) = 0.16805 0.30736
#
# Static dielectric constant tensor:
#      x y z
#    x 1.764480 0.000000 0.001340 
#    y 0.000000 1.826760 0.000000 
#    z 0.001340 0.000000 1.814170 
# 
# From -- ./inp_files/170730.got.cif
#   From: 2010.05.17/outbox.cif.g08.bks.cpg/sg15_86_cif.got.tgz:170730.got - 2010.06.03 18:47:42.
