data_PCOD9270427
_publ_section_title
;
Structure prediction by ZEFSAII (Michael W. Deem and Ramdas Pophale) SiO2 
 PCOD9270427
Probable space group: C 2/C
;
_chemical_formula_sum "Si O2"
_cell_formula_units_Z 44
_cell_length_a 6.089407
_cell_length_b 23.488468
_cell_length_c 13.415342
_cell_angle_alpha 90.000000
_cell_angle_beta 87.833263
_cell_angle_gamma 90.000000
_cell_volume 1917.435773
_symmetry_space_group_name_H-M "C 2/C"
_symmetry_group_IT_number 15
_symmetry_cell_setting 'monoclinic'
loop_
_space_group_symop_operation_xyz
x,y,z
-x,y,1/2-z
-x,-y,-z
x,-y,1/2+z
1/2+x,1/2+y,z
1/2-x,1/2+y,1/2-z
1/2-x,1/2-y,-z
1/2+x,1/2-y,1/2+z
loop_
_atom_site_type_symbol
_atom_site_label
_atom_site_fract_x
_atom_site_fract_y
_atom_site_fract_z
Si Si1 0.703772 0.034255 0.879312
Si Si2 0.458851 0.280154 0.444909
Si Si3 0.869014 0.343280 0.163534
Si Si4 0.164811 0.665103 0.459018
Si Si5 0.000000 0.953327 0.750000
Si Si6 0.367559 0.935020 0.894104
O O1 0.684332 0.091129 0.815983
O O2 0.485251 0.995708 0.873651
O O3 0.732457 0.055787 0.993064
O O4 0.892658 0.993918 0.835246
O O5 0.250000 0.250000 0.500000
O O6 0.357178 0.313024 0.355532
O O7 0.582006 0.326137 0.513393
O O8 0.610855 0.227023 0.414618
O O9 0.000000 0.315434 0.250000
O O10 0.030844 0.340320 0.065407
O O11 0.060450 0.612942 0.399430
O O12 0.191032 0.921946 0.810526
#
# Coordination Sequence:
#
# PCOD9270427 Si02
#       6
#     8   8   8   8   4   8
#     4  10  23  39  58  89 128 163 206 260 320 379
#     4   9  19  37  60  83 111 154 199 249 307 371
#     4  10  20  35  58  91 117 150 200 255 308 367
#     4   9  20  39  60  82 118 160 198 250 311 372
#     4  12  22  38  62  92 126 166 214 260 314 378
#     4  10  22  40  61  89 125 168 210 259 318 381
#
# _framework density 22.947310999999999
#
# number of rings (size 3 to 8) (size 9 to 14) (size 15 to 20)
#    0.000    2.182    0.000    2.182    0.000   10.909 
#    1.636    0.000    8.000    0.000    0.000    0.000 
#    0.000    0.000    0.000    0.000    0.000    0.000 
#
# Total GULP energy -122759.831943 kJ/mol
# GULP energy per Si atom -5579.992361 kJ/mol
# Density = 2.289508 g / cm^3
# Si number density = 22.947311 Si / 1000 Ang^3
#
#
#
# Elastic Constant Matrix: (Units=GPa)
#
#
# Indices 1 2 3 4 5 6 
#
# 1 95.9348 35.7589 53.2367 0.0000 40.4352 0.0000
# 2 35.7589 103.4062 37.5344 0.0000 37.1461 0.0000
# 3 53.2367 37.5344 102.1432 0.0000 41.0991 0.0000
# 4 0.0000 0.0000 0.0000 -4.1101 0.0000 4.1303
# 5 40.4352 37.1461 41.0991 0.0000 60.7981 0.0000
# 6 0.0000 0.0000 0.0000 4.1303 0.0000 33.4827
#
#
#
# Elastic Compliance Matrix: (Units=1/GPa)
#
#
# Indices 1 2 3 4 5 6 
#
# 1 0.016823 -0.001439 -0.005620 0.000000 -0.006510 0.000000
# 2 -0.001439 0.012840 -0.001644 0.000000 -0.005777 0.000000
# 3 -0.005620 -0.001644 0.015680 0.000000 -0.005858 0.000000
# 4 0.000000 0.000000 0.000000 -0.216469 0.000000 0.026703
# 5 -0.006510 -0.005777 -0.005858 0.000000 0.028267 0.000000
# 6 0.000000 0.000000 0.000000 0.026703 0.000000 0.026572
#
#
# Mechanical properties :
#
#
# Convention : Reuss Voigt Hill
#
# Bulk Modulus (GPa) = 35.79393 61.61602 48.70497
# Shear Modulus (GPa) = -55.82241 29.69776 -13.06232
#
# Velocity S-wave (km/s) = -4.93752 3.60136 -2.38844
# Velocity P-wave (km/s) = 4.10772 6.64849 3.69656
#
# Compressibility (1/GPa) = 0.02793770
#
# Stress axis : x y z
#
# Youngs Moduli (GPa) = 59.44412 77.88130 63.77477
#
# Poissons Ratio (x) = 0.11207 0.35838
# Poissons Ratio (y) = 0.08554 0.10485
# Poissons Ratio (z) = 0.33405 0.12804
#
# Static dielectric constant tensor:
#      x y z
#    x 1.942000 0.000000 0.026220 
#    y 0.000000 1.861890 0.000000 
#    z 0.026220 0.000000 1.906900 
# 
# From -- ./inp_files/129452.got.cif
#   From: 2010.05.17/outbox.cif.g08.bks.cpg/sg15_65_cif.got.tgz:129452.got - 2010.06.03 18:47:42.
