data_PCOD9270734
_publ_section_title
;
Structure prediction by ZEFSAII (Michael W. Deem and Ramdas Pophale) SiO2 
 PCOD9270734
Probable space group: C 2/C
;
_chemical_formula_sum "Si O2"
_cell_formula_units_Z 48
_cell_length_a 8.888212
_cell_length_b 18.726567
_cell_length_c 12.693918
_cell_angle_alpha 90.000000
_cell_angle_beta 93.982730
_cell_angle_gamma 90.000000
_cell_volume 2107.745573
_symmetry_space_group_name_H-M "C 2/C"
_symmetry_group_IT_number 15
_symmetry_cell_setting 'monoclinic'
loop_
_space_group_symop_operation_xyz
x,y,z
-x,y,1/2-z
-x,-y,-z
x,-y,1/2+z
1/2+x,1/2+y,z
1/2-x,1/2+y,1/2-z
1/2-x,1/2-y,-z
1/2+x,1/2-y,1/2+z
loop_
_atom_site_type_symbol
_atom_site_label
_atom_site_fract_x
_atom_site_fract_y
_atom_site_fract_z
Si Si1 0.271475 0.775496 0.885610
Si Si2 0.182833 0.414145 0.498160
Si Si3 0.340757 0.076445 0.921336
Si Si4 0.500000 0.705068 0.250000
Si Si5 0.334446 0.553275 0.795012
Si Si6 0.000000 0.307051 0.750000
Si Si7 0.280043 0.389876 0.866511
O O1 0.424807 0.758523 0.834973
O O2 0.133364 0.751617 0.808422
O O3 0.250000 0.750000 0.000000
O O4 0.275431 0.861166 0.905125
O O5 0.172682 0.492919 0.546862
O O6 0.299982 0.410022 0.406489
O O7 0.014072 0.399717 0.445672
O O8 0.279232 0.081549 0.800444
O O9 0.241249 0.112432 0.008615
O O10 0.579054 0.655976 0.166153
O O11 0.500000 0.558249 0.750000
O O12 0.300026 0.470151 0.823365
O O13 0.870852 0.355003 0.690359
#
# Coordination Sequence:
#
# PCOD9270734 Si02
#       7
#     8   8   8   4   8   4   8
#     4  11  24  46  66  91 121 164 220 266 309 369
#     4  10  22  38  62  87 126 166 204 257 304 386
#     4  10  20  36  60  93 124 163 203 245 318 382
#     4  10  22  40  66  92 116 162 204 260 306 368
#     4  11  23  33  54  96 135 164 192 254 324 374
#     4  10  20  42  68  88 114 166 210 252 310 376
#     4  10  20  35  63  88 124 161 208 244 304 384
#
# _framework density 22.773147000000002
#
# number of rings (size 3 to 8) (size 9 to 14) (size 15 to 20)
#    0.000    1.667    2.500    2.500    7.000    1.333 
#    4.500    3.333    0.000    0.000    0.000    0.000 
#    0.000    0.000    0.000    0.000    0.000    0.000 
#
# Total GULP energy -134138.397210 kJ/mol
# GULP energy per Si atom -5589.099884 kJ/mol
# Density = 2.272131 g / cm^3
# Si number density = 22.773147 Si / 1000 Ang^3
#
#
#
# Elastic Constant Matrix: (Units=GPa)
#
#
# Indices 1 2 3 4 5 6 
#
# 1 113.1157 4.7296 28.1866 0.0000 -23.4675 0.0000
# 2 4.7296 15.6034 3.4997 0.0000 -11.4138 0.0000
# 3 28.1866 3.4997 121.0395 0.0000 -28.4802 0.0000
# 4 0.0000 0.0000 0.0000 25.5536 0.0000 -12.8169
# 5 -23.4675 -11.4138 -28.4802 0.0000 48.8102 0.0000
# 6 0.0000 0.0000 0.0000 -12.8169 0.0000 -4.9105
#
#
#
# Elastic Compliance Matrix: (Units=1/GPa)
#
#
# Indices 1 2 3 4 5 6 
#
# 1 0.010019 0.000249 -0.001383 0.000000 0.004068 0.000000
# 2 0.000249 0.077895 0.002323 0.000000 0.019690 0.000000
# 3 -0.001383 0.002323 0.009839 0.000000 0.005619 0.000000
# 4 0.000000 0.000000 0.000000 0.016947 0.000000 -0.044234
# 5 0.004068 0.019690 0.005619 0.000000 0.030327 0.000000
# 6 0.000000 0.000000 0.000000 -0.044234 0.000000 -0.088191
#
#
# Mechanical properties :
#
#
# Convention : Reuss Voigt Hill
#
# Bulk Modulus (GPa) = 9.98693 35.84339 22.91516
# Shear Modulus (GPa) = 56.92523 28.11350 42.51937
#
# Velocity S-wave (km/s) = 5.00509 3.51736 4.32566
# Velocity P-wave (km/s) = 6.14786 5.68060 5.91884
#
# Compressibility (1/GPa) = 0.10013086
#
# Stress axis : x y z
#
# Youngs Moduli (GPa) = 99.81308 12.83775 101.63822
#
# Poissons Ratio (x) = -0.00320 0.14057
# Poissons Ratio (y) = -0.02488 -0.23608
# Poissons Ratio (z) = 0.13805 -0.02982
#
# Static dielectric constant tensor:
#      x y z
#    x 1.848610 0.000000 -0.017620 
#    y 0.000000 1.946410 0.000000 
#    z -0.017620 0.000000 1.832430 
# 
# From -- ./inp_files/79315.got.cif
#   From: 2010.05.17/outbox.cif.g08.bks.cpg/sg15_40_cif.got.tgz:79315.got - 2010.06.03 18:47:42.
