data_PCOD9270901
_publ_section_title
;
Structure prediction by ZEFSAII (Michael W. Deem and Ramdas Pophale) SiO2 
 PCOD9270901
Probable space group: C 2/C
;
_chemical_formula_sum "Si O2"
_cell_formula_units_Z 44
_cell_length_a 11.570710
_cell_length_b 8.647812
_cell_length_c 20.663952
_cell_angle_alpha 90.000000
_cell_angle_beta 122.262701
_cell_angle_gamma 90.000000
_cell_volume 1748.435004
_symmetry_space_group_name_H-M "C 2/C"
_symmetry_group_IT_number 15
_symmetry_cell_setting 'monoclinic'
loop_
_space_group_symop_operation_xyz
x,y,z
-x,y,1/2-z
-x,-y,-z
x,-y,1/2+z
1/2+x,1/2+y,z
1/2-x,1/2+y,1/2-z
1/2-x,1/2-y,-z
1/2+x,1/2-y,1/2+z
loop_
_atom_site_type_symbol
_atom_site_label
_atom_site_fract_x
_atom_site_fract_y
_atom_site_fract_z
Si Si1 0.357821 0.740854 0.172181
Si Si2 0.732932 0.521042 0.710676
Si Si3 0.102211 0.170204 0.054040
Si Si4 0.193841 0.913127 0.349555
Si Si5 0.000000 0.338891 0.750000
Si Si6 0.209119 0.894630 0.029952
O O1 0.500000 0.732068 0.250000
O O2 0.247183 0.800657 0.191240
O O3 0.335588 0.579156 0.128768
O O4 0.338432 0.882790 0.117488
O O5 0.636661 0.423734 0.632266
O O6 0.693809 0.536016 0.773732
O O7 0.881898 0.440812 0.747811
O O8 0.165439 0.337709 0.085374
O O9 0.179256 0.077318 0.019282
O O10 0.942269 0.162131 0.992211
O O11 0.081144 0.779365 0.321814
O O12 0.250000 0.750000 0.000000
#
# Coordination Sequence:
#
# PCOD9270901 Si02
#       6
#     8   8   8   8   4   8
#     4  11  22  38  62  94 125 162 224 267 319 393
#     4  10  21  38  64  90 130 169 211 271 328 385
#     4   9  22  41  59  92 129 168 225 258 323 400
#     4  11  22  36  63  95 130 163 209 283 325 379
#     4  10  20  36  54  90 128 164 210 260 328 386
#     4  10  23  41  65  87 126 181 212 266 326 390
#
# _framework density 25.165361000000001
#
# number of rings (size 3 to 8) (size 9 to 14) (size 15 to 20)
#    0.000    1.818    1.818    2.182    5.091    0.727 
#    0.000    0.909    0.000    0.000    0.000    0.000 
#    0.000    0.000    0.000    0.000    0.000    0.000 
#
# Total GULP energy -122573.818653 kJ/mol
# GULP energy per Si atom -5571.537212 kJ/mol
# Density = 2.510808 g / cm^3
# Si number density = 25.165361 Si / 1000 Ang^3
#
#
#
# Elastic Constant Matrix: (Units=GPa)
#
#
# Indices 1 2 3 4 5 6 
#
# 1 60.0642 31.9074 19.7921 0.0000 6.6502 0.0000
# 2 31.9074 136.9457 22.2403 0.0000 21.2374 0.0000
# 3 19.7921 22.2403 86.5128 0.0000 28.9247 0.0000
# 4 0.0000 0.0000 0.0000 46.9180 0.0000 -0.6738
# 5 6.6502 21.2374 28.9247 0.0000 32.3087 0.0000
# 6 0.0000 0.0000 0.0000 -0.6738 0.0000 32.1923
#
#
#
# Elastic Compliance Matrix: (Units=1/GPa)
#
#
# Indices 1 2 3 4 5 6 
#
# 1 0.020125 -0.004392 -0.004361 0.000000 0.002648 0.000000
# 2 -0.004392 0.009101 0.000518 0.000000 -0.005542 0.000000
# 3 -0.004361 0.000518 0.017465 0.000000 -0.015078 0.000000
# 4 0.000000 0.000000 0.000000 0.021320 0.000000 0.000446
# 5 0.002648 -0.005542 -0.015078 0.000000 0.047548 0.000000
# 6 0.000000 0.000000 0.000000 0.000446 0.000000 0.031073
#
#
# Mechanical properties :
#
#
# Convention : Reuss Voigt Hill
#
# Bulk Modulus (GPa) = 33.08793 47.93356 40.51075
# Shear Modulus (GPa) = 28.87260 36.25601 32.56430
#
# Velocity S-wave (km/s) = 3.39088 3.79979 3.60114
# Velocity P-wave (km/s) = 5.33924 6.19193 5.78133
#
# Compressibility (1/GPa) = 0.03022250
#
# Stress axis : x y z
#
# Youngs Moduli (GPa) = 49.68831 109.88185 57.25820
#
# Poissons Ratio (x) = 0.48256 0.24968
# Poissons Ratio (y) = 0.21821 -0.02966
# Poissons Ratio (z) = 0.21667 -0.05692
#
# Static dielectric constant tensor:
#      x y z
#    x 2.038160 0.000000 -0.157630 
#    y 0.000000 2.143300 0.000000 
#    z -0.157630 0.000000 2.091730 
# 
# From -- ./inp_files/242277.got.cif
#   From: 2010.05.17/outbox.cif.g08.bks.cpg/sg15_122_cif.got.tgz:242277.got - 2010.06.03 18:47:42.
