data_PCOD9270972
_publ_section_title
;
Structure prediction by ZEFSAII (Michael W. Deem and Ramdas Pophale) SiO2 
 PCOD9270972
Probable space group: C 2/C
;
_chemical_formula_sum "Si O2"
_cell_formula_units_Z 44
_cell_length_a 10.588582
_cell_length_b 8.725973
_cell_length_c 25.692489
_cell_angle_alpha 90.000000
_cell_angle_beta 138.953496
_cell_angle_gamma 90.000000
_cell_volume 1558.855757
_symmetry_space_group_name_H-M "C 2/C"
_symmetry_group_IT_number 15
_symmetry_cell_setting 'monoclinic'
loop_
_space_group_symop_operation_xyz
x,y,z
-x,y,1/2-z
-x,-y,-z
x,-y,1/2+z
1/2+x,1/2+y,z
1/2-x,1/2+y,1/2-z
1/2-x,1/2-y,-z
1/2+x,1/2-y,1/2+z
loop_
_atom_site_type_symbol
_atom_site_label
_atom_site_fract_x
_atom_site_fract_y
_atom_site_fract_z
Si Si1 0.147753 0.748707 0.204187
Si Si2 0.308146 0.944368 0.610304
Si Si3 0.000000 0.965528 0.250000
Si Si4 0.441274 0.236867 0.627921
Si Si5 0.171966 0.063541 0.951366
Si Si6 0.350321 0.127600 0.904915
O O1 0.099729 0.860614 0.237152
O O2 0.376352 0.729292 0.277229
O O3 0.037047 0.591530 0.182369
O O4 0.013490 0.830312 0.119585
O O5 0.215582 0.919497 0.525059
O O6 0.224732 0.808095 0.620013
O O7 0.296638 0.126619 0.614560
O O8 0.198146 0.007944 0.340640
O O9 0.376837 0.392148 0.581125
O O10 0.495249 0.136302 0.592612
O O11 0.348993 0.104941 0.966963
#
# Coordination Sequence:
#
# PCOD9270972 Si02
#       6
#     8   8   4   8   8   8
#     4   9  17  34  57  76 106 146 177 214 268 320
#     4  10  20  36  56  81 111 140 177 224 268 316
#     4   6  12  28  52  72  92 134 174 204 250 304
#     4  11  21  35  59  82 104 143 184 219 265 316
#     4  10  20  36  56  81 111 140 177 224 268 316
#     4   9  19  36  55  75 111 145 173 217 271 318
#
# _framework density 28.225829999999998
#
# number of rings (size 3 to 8) (size 9 to 14) (size 15 to 20)
#    0.000    2.909    0.000    3.818    0.000    1.455 
#    0.000    3.636    0.000   39.273    0.000    0.000 
#    0.000    0.000    0.000    0.000    0.000    0.000 
#
# Total GULP energy -122631.129656 kJ/mol
# GULP energy per Si atom -5574.142257 kJ/mol
# Density = 2.816159 g / cm^3
# Si number density = 28.225830 Si / 1000 Ang^3
#
#
#
# Elastic Constant Matrix: (Units=GPa)
#
#
# Indices 1 2 3 4 5 6 
#
# 1 82.7304 8.9621 3.2188 0.0000 9.3753 0.0000
# 2 8.9621 86.3868 -10.9301 0.0000 15.3923 0.0000
# 3 3.2188 -10.9301 136.3833 0.0000 4.2821 0.0000
# 4 0.0000 0.0000 0.0000 43.8386 0.0000 1.7575
# 5 9.3753 15.3923 4.2821 0.0000 22.0798 0.0000
# 6 0.0000 0.0000 0.0000 1.7575 0.0000 30.3304
#
#
#
# Elastic Compliance Matrix: (Units=1/GPa)
#
#
# Indices 1 2 3 4 5 6 
#
# 1 0.012715 -0.000440 -0.000177 0.000000 -0.005058 0.000000
# 2 -0.000440 0.013487 0.001389 0.000000 -0.009485 0.000000
# 3 -0.000177 0.001389 0.007522 0.000000 -0.002352 0.000000
# 4 0.000000 0.000000 0.000000 0.022864 0.000000 -0.001325
# 5 -0.005058 -0.009485 -0.002352 0.000000 0.054506 0.000000
# 6 0.000000 0.000000 0.000000 -0.001325 0.000000 0.033047
#
#
# Mechanical properties :
#
#
# Convention : Reuss Voigt Hill
#
# Bulk Modulus (GPa) = 28.35388 34.22246 31.28817
# Shear Modulus (GPa) = 32.39332 39.53306 35.96319
#
# Velocity S-wave (km/s) = 3.39137 3.74652 3.57336
# Velocity P-wave (km/s) = 5.04008 5.55572 5.30417
#
# Compressibility (1/GPa) = 0.03526854
#
# Stress axis : x y z
#
# Youngs Moduli (GPa) = 78.64615 74.14406 132.95014
#
# Poissons Ratio (x) = 0.03264 0.02348
# Poissons Ratio (y) = 0.03462 -0.18468
# Poissons Ratio (z) = 0.01389 -0.10299
#
# Static dielectric constant tensor:
#      x y z
#    x 2.230830 0.000000 0.108900 
#    y 0.000000 2.256090 0.000000 
#    z 0.108900 0.000000 2.350530 
# 
# From -- ./inp_files/242065.got.cif
#   From: 2010.05.17/outbox.cif.g08.bks.cpg/sg15_122_cif.got.tgz:242065.got - 2010.06.03 18:47:42.
