data_PCOD9270817
_publ_section_title
;
Structure prediction by ZEFSAII (Michael W. Deem and Ramdas Pophale) SiO2 
 PCOD9270817
Probable space group: C 2/C
;
_chemical_formula_sum "Si O2"
_cell_formula_units_Z 40
_cell_length_a 15.703162
_cell_length_b 10.449547
_cell_length_c 17.852661
_cell_angle_alpha 90.000000
_cell_angle_beta 147.394577
_cell_angle_gamma 90.000000
_cell_volume 1578.540902
_symmetry_space_group_name_H-M "C 2/C"
_symmetry_group_IT_number 15
_symmetry_cell_setting 'monoclinic'
loop_
_space_group_symop_operation_xyz
x,y,z
-x,y,1/2-z
-x,-y,-z
x,-y,1/2+z
1/2+x,1/2+y,z
1/2-x,1/2+y,1/2-z
1/2-x,1/2-y,-z
1/2+x,1/2-y,1/2+z
loop_
_atom_site_type_symbol
_atom_site_label
_atom_site_fract_x
_atom_site_fract_y
_atom_site_fract_z
Si Si1 0.031741 0.210723 0.692045
Si Si2 0.329119 0.881351 0.085072
Si Si3 0.292553 0.739502 0.274226
Si Si4 0.719429 0.596746 0.097705
Si Si5 0.415990 0.092330 0.496956
O O1 0.623507 0.308069 0.472217
O O2 0.000000 0.149724 0.750000
O O3 0.175668 0.174966 0.741384
O O4 0.100691 0.351807 0.761563
O O5 0.500000 0.864192 0.250000
O O6 0.250000 0.750000 0.000000
O O7 0.278713 0.541533 0.936239
O O8 0.338549 0.963292 0.014409
O O9 0.343693 0.621622 0.366120
O O10 0.443444 0.820499 0.366942
O O11 0.201969 0.680378 0.137731
O O12 0.500000 0.000000 0.500000
#
# Coordination Sequence:
#
# PCOD9270817 Si02
#       5
#     8   8   8   8   8
#     4  10  20  35  72 105 137 166 229 284 354 397
#     4  12  28  50  68  96 144 196 231 274 347 429
#     4  10  22  45  68 107 136 172 229 293 349 406
#     4  10  22  42  73 105 138 176 228 296 344 413
#     4  12  26  45  71 101 139 179 226 291 352 404
#
# _framework density 25.339859000000001
#
# number of rings (size 3 to 8) (size 9 to 14) (size 15 to 20)
#    1.200    0.000    2.000    3.600    5.600    0.800 
#    3.600    2.000    0.000    0.000    0.000    0.000 
#    0.000    0.000    0.000    0.000    0.000    0.000 
#
# Total GULP energy -111730.421168 kJ/mol
# GULP energy per Si atom -5586.521058 kJ/mol
# Density = 2.528218 g / cm^3
# Si number density = 25.339859 Si / 1000 Ang^3
#
#
#
# Elastic Constant Matrix: (Units=GPa)
#
#
# Indices 1 2 3 4 5 6 
#
# 1 91.1455 9.7600 28.4004 0.0000 -32.1011 0.0000
# 2 9.7600 82.7350 49.9151 0.0000 3.8780 0.0000
# 3 28.4004 49.9151 150.7832 0.0000 -29.5693 0.0000
# 4 0.0000 0.0000 0.0000 36.9544 0.0000 -3.2231
# 5 -32.1011 3.8780 -29.5693 0.0000 34.6609 0.0000
# 6 0.0000 0.0000 0.0000 -3.2231 0.0000 31.7982
#
#
#
# Elastic Compliance Matrix: (Units=1/GPa)
#
#
# Indices 1 2 3 4 5 6 
#
# 1 0.017061 -0.003690 0.001426 0.000000 0.017431 0.000000
# 2 -0.003690 0.017537 -0.007404 0.000000 -0.011696 0.000000
# 3 0.001426 -0.007404 0.011092 0.000000 0.011612 0.000000
# 4 0.000000 0.000000 0.000000 0.027302 0.000000 0.002767
# 5 0.017431 -0.011696 0.011612 0.000000 0.056209 0.000000
# 6 0.000000 0.000000 0.000000 0.002767 0.000000 0.031729
#
#
# Mechanical properties :
#
#
# Convention : Reuss Voigt Hill
#
# Bulk Modulus (GPa) = 37.94478 55.64607 46.79543
# Shear Modulus (GPa) = 26.44792 36.45525 31.45158
#
# Velocity S-wave (km/s) = 3.23418 3.79707 3.52687
# Velocity P-wave (km/s) = 5.38084 6.42116 5.92388
#
# Compressibility (1/GPa) = 0.02635408
#
# Stress axis : x y z
#
# Youngs Moduli (GPa) = 58.61226 57.02095 90.15853
#
# Poissons Ratio (x) = 0.21042 -0.12860
# Poissons Ratio (y) = 0.21629 0.66755
# Poissons Ratio (z) = -0.08360 0.42220
#
# Static dielectric constant tensor:
#      x y z
#    x 2.079100 0.000000 -0.006170 
#    y 0.000000 2.022440 0.000000 
#    z -0.006170 0.000000 1.924250 
# 
# From -- ./inp_files/210819.got.cif
#   From: 2010.05.17/outbox.cif.g08.bks.cpg/sg15_106_cif.got.tgz:210819.got - 2010.06.03 18:47:42.
