data_PCOD9270545
_publ_section_title
;
Structure prediction by ZEFSAII (Michael W. Deem and Ramdas Pophale) SiO2 
 PCOD9270545
Probable space group: C 2/C
;
_chemical_formula_sum "Si O2"
_cell_formula_units_Z 56
_cell_length_a 15.116846
_cell_length_b 33.025028
_cell_length_c 7.976467
_cell_angle_alpha 90.000000
_cell_angle_beta 43.529723
_cell_angle_gamma 90.000000
_cell_volume 2742.612489
_symmetry_space_group_name_H-M "C 2/C"
_symmetry_group_IT_number 15
_symmetry_cell_setting 'monoclinic'
loop_
_space_group_symop_operation_xyz
x,y,z
-x,y,1/2-z
-x,-y,-z
x,-y,1/2+z
1/2+x,1/2+y,z
1/2-x,1/2+y,1/2-z
1/2-x,1/2-y,-z
1/2+x,1/2-y,1/2+z
loop_
_atom_site_type_symbol
_atom_site_label
_atom_site_fract_x
_atom_site_fract_y
_atom_site_fract_z
Si Si1 0.340238 0.121130 0.201752
Si Si2 0.084081 0.727264 0.891006
Si Si3 0.694798 0.209577 0.373551
Si Si4 0.000000 0.561935 0.750000
Si Si5 0.309687 0.441565 0.374345
Si Si6 0.775282 0.472690 0.376606
Si Si7 0.500000 0.165747 0.250000
Si Si8 0.544640 0.544636 0.379251
O O1 0.285457 0.162621 0.200100
O O2 0.248598 0.095577 0.447487
O O3 0.449888 0.137697 0.173218
O O4 0.406859 0.091886 0.977849
O O5 0.170765 0.766049 0.821297
O O6 0.146068 0.711926 0.632423
O O7 0.099538 0.695486 0.020891
O O8 0.928511 0.728073 0.063727
O O9 0.079153 0.533706 0.769017
O O10 0.249904 0.453940 0.273092
O O11 0.280219 0.481544 0.528988
O O12 0.457349 0.430694 0.125608
O O13 0.694023 0.451427 0.639765
O O14 0.500000 0.550501 0.250000
O O15 0.500000 0.500000 0.500000
#
# Coordination Sequence:
#
# PCOD9270545 Si02
#       8
#     8   8   8   4   8   8   4   8
#     4  11  22  35  55  87 118 152 192 245 304 342
#     4   9  18  35  62  88 117 150 203 230 287 359
#     4   9  19  37  61  90 116 158 193 238 290 362
#     4  12  24  37  54  78 120 160 190 246 294 353
#     4  10  20  36  58  84 111 150 198 253 294 344
#     4  10  21  36  57  81 111 157 206 239 290 358
#     4  10  20  35  60  86 112 154 186 234 286 365
#     4   8  16  33  56  77  99 137 191 240 283 333
#
# _framework density 20.418486999999999
#
# number of rings (size 3 to 8) (size 9 to 14) (size 15 to 20)
#    0.000    2.286    0.000    3.429    0.000    6.286 
#    0.000    0.000    9.429    0.000    0.000    0.000 
#    0.000    0.000    0.000    0.000    0.000    0.000 
#
# Total GULP energy -155886.114375 kJ/mol
# GULP energy per Si atom -5567.361228 kJ/mol
# Density = 2.037201 g / cm^3
# Si number density = 20.418487 Si / 1000 Ang^3
#
#
#
# Elastic Constant Matrix: (Units=GPa)
#
#
# Indices 1 2 3 4 5 6 
#
# 1 79.3155 28.3231 31.7660 0.0000 9.3720 0.0000
# 2 28.3231 87.2751 69.8101 0.0000 -9.0048 0.0000
# 3 31.7660 69.8101 104.7797 0.0000 2.2858 0.0000
# 4 0.0000 0.0000 0.0000 29.8367 0.0000 9.5780
# 5 9.3720 -9.0048 2.2858 0.0000 27.1591 0.0000
# 6 0.0000 0.0000 0.0000 9.5780 0.0000 28.0057
#
#
#
# Elastic Compliance Matrix: (Units=1/GPa)
#
#
# Indices 1 2 3 4 5 6 
#
# 1 0.015653 -0.004494 -0.001604 0.000000 -0.006757 0.000000
# 2 -0.004494 0.028557 -0.017937 0.000000 0.012529 0.000000
# 3 -0.001604 -0.017937 0.022139 0.000000 -0.007257 0.000000
# 4 0.000000 0.000000 0.000000 0.037649 0.000000 -0.012876
# 5 -0.006757 0.012529 -0.007257 0.000000 0.043916 0.000000
# 6 0.000000 0.000000 0.000000 -0.012876 0.000000 0.040111
#
#
# Mechanical properties :
#
#
# Convention : Reuss Voigt Hill
#
# Bulk Modulus (GPa) = 54.70727 59.01876 56.86301
# Shear Modulus (GPa) = 20.64511 26.43171 23.53841
#
# Velocity S-wave (km/s) = 3.18323 3.60182 3.39897
# Velocity P-wave (km/s) = 6.35309 6.80182 6.58128
#
# Compressibility (1/GPa) = 0.01827911
#
# Stress axis : x y z
#
# Youngs Moduli (GPa) = 63.88351 35.01826 45.16920
#
# Poissons Ratio (x) = 0.15737 0.07246
# Poissons Ratio (y) = 0.28709 0.81019
# Poissons Ratio (z) = 0.10248 0.62812
#
# Static dielectric constant tensor:
#      x y z
#    x 7.814510 0.000000 -10.612450 
#    y 0.000000 1.626520 0.000000 
#    z -10.612450 0.000000 20.397020 
# 
# From -- ./inp_files/52339.got.cif
#   From: 2010.05.17/outbox.cif.g08.bks.cpg/sg15_27_cif.got.tgz:52339.got - 2010.06.03 18:47:42.
