data_PCOD9270366
_publ_section_title
;
Structure prediction by ZEFSAII (Michael W. Deem and Ramdas Pophale) SiO2 
 PCOD9270366
Probable space group: C 2/C
;
_chemical_formula_sum "Si O2"
_cell_formula_units_Z 40
_cell_length_a 7.957673
_cell_length_b 11.795791
_cell_length_c 16.169449
_cell_angle_alpha 90.000000
_cell_angle_beta 79.177071
_cell_angle_gamma 90.000000
_cell_volume 1490.780476
_symmetry_space_group_name_H-M "C 2/C"
_symmetry_group_IT_number 15
_symmetry_cell_setting 'monoclinic'
loop_
_space_group_symop_operation_xyz
x,y,z
-x,y,1/2-z
-x,-y,-z
x,-y,1/2+z
1/2+x,1/2+y,z
1/2-x,1/2+y,1/2-z
1/2-x,1/2-y,-z
1/2+x,1/2-y,1/2+z
loop_
_atom_site_type_symbol
_atom_site_label
_atom_site_fract_x
_atom_site_fract_y
_atom_site_fract_z
Si Si1 0.191836 0.512722 0.056358
Si Si2 0.388185 0.338279 0.948652
Si Si3 0.417637 0.837737 0.151078
Si Si4 0.851871 0.080359 0.700915
Si Si5 0.419965 0.266134 0.415624
O O1 0.290655 0.457354 0.968254
O O2 0.317100 0.499199 0.125182
O O3 0.105200 0.634922 0.063726
O O4 0.037079 0.427670 0.094098
O O5 0.537537 0.332083 0.003953
O O6 0.250000 0.250000 0.000000
O O7 0.468127 0.278154 0.860704
O O8 0.327663 0.892543 0.239155
O O9 0.248811 0.808590 0.113884
O O10 0.000000 0.038343 0.750000
O O11 0.925418 0.199218 0.658725
#
# Coordination Sequence:
#
# PCOD9270366 Si02
#       5
#     8   8   8   8   8
#     4  10  21  39  62  83 115 157 194 238 295 348
#     4   9  20  38  58  88 121 152 196 243 287 350
#     4  10  20  35  58  85 116 149 191 242 288 341
#     4   9  20  38  56  83 117 149 194 245 288 347
#     4  10  21  39  61  84 116 157 197 238 292 350
#
# _framework density 26.831582000000001
#
# number of rings (size 3 to 8) (size 9 to 14) (size 15 to 20)
#    0.000    2.400    0.000    1.200    0.000    8.800 
#    0.000   22.000    0.000    0.000    0.000    0.000 
#    0.000    0.000    0.000    0.000    0.000    0.000 
#
# Total GULP energy -111949.399004 kJ/mol
# GULP energy per Si atom -5597.469950 kJ/mol
# Density = 2.677051 g / cm^3
# Si number density = 26.831582 Si / 1000 Ang^3
#
#
#
# Elastic Constant Matrix: (Units=GPa)
#
#
# Indices 1 2 3 4 5 6 
#
# 1 136.8326 30.1061 30.3663 0.0000 -7.5791 0.0000
# 2 30.1061 186.1086 32.2992 0.0000 -12.6850 0.0000
# 3 30.3663 32.2992 108.9543 0.0000 -23.1407 0.0000
# 4 0.0000 0.0000 0.0000 29.7355 0.0000 1.3990
# 5 -7.5791 -12.6850 -23.1407 0.0000 60.0536 0.0000
# 6 0.0000 0.0000 0.0000 1.3990 0.0000 42.7945
#
#
#
# Elastic Compliance Matrix: (Units=1/GPa)
#
#
# Indices 1 2 3 4 5 6 
#
# 1 0.007946 -0.000948 -0.001920 0.000000 0.000063 0.000000
# 2 -0.000948 0.005798 -0.001329 0.000000 0.000593 0.000000
# 3 -0.001920 -0.001329 0.010887 0.000000 0.003672 0.000000
# 4 0.000000 0.000000 0.000000 0.033682 0.000000 -0.001101
# 5 0.000063 0.000593 0.003672 0.000000 0.018200 0.000000
# 6 0.000000 0.000000 0.000000 -0.001101 0.000000 0.023403
#
#
# Mechanical properties :
#
#
# Convention : Reuss Voigt Hill
#
# Bulk Modulus (GPa) = 61.58604 68.60431 65.09518
# Shear Modulus (GPa) = 43.96674 49.12499 46.54586
#
# Velocity S-wave (km/s) = 4.05238 4.28350 4.16954
# Velocity P-wave (km/s) = 6.70062 7.07732 6.89155
#
# Compressibility (1/GPa) = 0.01623745
#
# Stress axis : x y z
#
# Youngs Moduli (GPa) = 125.84297 172.48723 91.85134
#
# Poissons Ratio (x) = 0.16350 0.17639
# Poissons Ratio (y) = 0.11929 0.12203
# Poissons Ratio (z) = 0.24167 0.22915
#
# Static dielectric constant tensor:
#      x y z
#    x 2.240990 0.000000 0.037180 
#    y 0.000000 2.091610 0.000000 
#    z 0.037180 0.000000 2.220580 
# 
# From -- ./inp_files/229775.got.cif
#   From: 2010.05.17/outbox.cif.g08.bks.cpg/sg15_115_cif.got.tgz:229775.got - 2010.06.03 18:47:42.
