data_PCOD9270081
_publ_section_title
;
Structure prediction by ZEFSAII (Michael W. Deem and Ramdas Pophale) SiO2 
 PCOD9270081
Probable space group: C 2/C
;
_chemical_formula_sum "Si O2"
_cell_formula_units_Z 40
_cell_length_a 16.787648
_cell_length_b 18.186177
_cell_length_c 11.153506
_cell_angle_alpha 90.000000
_cell_angle_beta 149.145142
_cell_angle_gamma 90.000000
_cell_volume 1746.408242
_symmetry_space_group_name_H-M "C 2/C"
_symmetry_group_IT_number 15
_symmetry_cell_setting 'monoclinic'
loop_
_space_group_symop_operation_xyz
x,y,z
-x,y,1/2-z
-x,-y,-z
x,-y,1/2+z
1/2+x,1/2+y,z
1/2-x,1/2+y,1/2-z
1/2-x,1/2-y,-z
1/2+x,1/2-y,1/2+z
loop_
_atom_site_type_symbol
_atom_site_label
_atom_site_fract_x
_atom_site_fract_y
_atom_site_fract_z
Si Si1 0.381684 0.690812 0.203298
Si Si2 0.737465 0.152818 0.382354
Si Si3 0.557692 0.232358 0.484273
Si Si4 0.174225 0.410376 0.030165
Si Si5 0.156636 0.576174 0.035697
O O1 0.500000 0.673565 0.250000
O O2 0.470908 0.736198 0.420822
O O3 0.250000 0.750000 0.000000
O O4 0.291309 0.620735 0.139965
O O5 0.867596 0.199861 0.487477
O O6 0.783025 0.103986 0.555136
O O7 0.610083 0.207165 0.275439
O O8 0.647878 0.110822 0.158141
O O9 0.666210 0.159466 0.609310
O O10 0.202344 0.491235 0.116272
O O11 0.000000 0.416624 0.750000
O O12 0.000000 0.582048 0.750000
#
# Coordination Sequence:
#
# PCOD9270081 Si02
#       5
#     8   8   8   8   8
#     4  11  21  35  56  82 112 145 181 223 271 324
#     4  10  20  36  57  80 108 143 183 226 270 321
#     4  10  20  35  55  80 107 141 186 225 266 321
#     4   9  20  36  57  81 108 144 184 225 269 322
#     4  10  21  36  56  83 111 142 182 226 273 324
#
# _framework density 22.904152
#
# number of rings (size 3 to 8) (size 9 to 14) (size 15 to 20)
#    0.000    2.000    0.000    4.800    0.000    8.800 
#    0.000    2.000    0.000    6.000    0.000    0.000 
#    0.000    0.000    0.000    0.000    0.000    0.000 
#
# Total GULP energy -111678.724544 kJ/mol
# GULP energy per Si atom -5583.936227 kJ/mol
# Density = 2.285202 g / cm^3
# Si number density = 22.904152 Si / 1000 Ang^3
#
#
#
# Elastic Constant Matrix: (Units=GPa)
#
#
# Indices 1 2 3 4 5 6 
#
# 1 131.5932 52.6519 11.5069 0.0000 -8.0917 0.0000
# 2 52.6519 128.3539 30.2044 0.0000 -4.5619 0.0000
# 3 11.5069 30.2044 43.0758 0.0000 -8.7725 0.0000
# 4 0.0000 0.0000 0.0000 22.6184 0.0000 -7.5968
# 5 -8.0917 -4.5619 -8.7725 0.0000 27.6873 0.0000
# 6 0.0000 0.0000 0.0000 -7.5968 0.0000 30.8463
#
#
#
# Elastic Compliance Matrix: (Units=1/GPa)
#
#
# Indices 1 2 3 4 5 6 
#
# 1 0.009226 -0.003872 0.000716 0.000000 0.002285 0.000000
# 2 -0.003872 0.010964 -0.006966 0.000000 -0.001532 0.000000
# 3 0.000716 -0.006966 0.029629 0.000000 0.008449 0.000000
# 4 0.000000 0.000000 0.000000 0.048199 0.000000 0.011870
# 5 0.002285 -0.001532 0.008449 0.000000 0.039210 0.000000
# 6 0.000000 0.000000 0.000000 0.011870 0.000000 0.035342
#
#
# Mechanical properties :
#
#
# Convention : Reuss Voigt Hill
#
# Bulk Modulus (GPa) = 33.81193 54.63883 44.22538
# Shear Modulus (GPa) = 24.67044 30.14106 27.40575
#
# Velocity S-wave (km/s) = 3.28551 3.63156 3.46286
# Velocity P-wave (km/s) = 5.40251 6.44139 5.94469
#
# Compressibility (1/GPa) = 0.02957536
#
# Stress axis : x y z
#
# Youngs Moduli (GPa) = 108.38574 91.20810 33.75118
#
# Poissons Ratio (x) = 0.35315 -0.02416
# Poissons Ratio (y) = 0.41966 0.23510
# Poissons Ratio (z) = -0.07757 0.63531
#
# Static dielectric constant tensor:
#      x y z
#    x 1.931790 0.000000 -0.054160 
#    y 0.000000 1.896950 0.000000 
#    z -0.054160 0.000000 2.035450 
# 
# From -- ./inp_files/106552.got.cif
#   From: 2010.05.17/outbox.cif.g08.bks.cpg/sg15_54_cif.got.tgz:106552.got - 2010.06.03 18:47:42.
