data_PCOD9270499
_publ_section_title
;
Structure prediction by ZEFSAII (Michael W. Deem and Ramdas Pophale) SiO2 
 PCOD9270499
Probable space group: C 2/C
;
_chemical_formula_sum "Si O2"
_cell_formula_units_Z 32
_cell_length_a 12.707130
_cell_length_b 12.980694
_cell_length_c 20.947528
_cell_angle_alpha 90.000000
_cell_angle_beta 157.940054
_cell_angle_gamma 90.000000
_cell_volume 1297.706643
_symmetry_space_group_name_H-M "C 2/C"
_symmetry_group_IT_number 15
_symmetry_cell_setting 'monoclinic'
loop_
_space_group_symop_operation_xyz
x,y,z
-x,y,1/2-z
-x,-y,-z
x,-y,1/2+z
1/2+x,1/2+y,z
1/2-x,1/2+y,1/2-z
1/2-x,1/2-y,-z
1/2+x,1/2-y,1/2+z
loop_
_atom_site_type_symbol
_atom_site_label
_atom_site_fract_x
_atom_site_fract_y
_atom_site_fract_z
Si Si1 0.003070 0.016479 0.855199
Si Si2 0.885369 0.541829 0.253242
Si Si3 0.026885 0.216416 0.193459
Si Si4 0.078299 0.234774 0.694729
O O1 0.875523 0.120056 0.752731
O O2 0.937955 0.907235 0.787453
O O3 0.338383 0.028480 0.047227
O O4 0.870965 0.008439 0.852681
O O5 0.816822 0.664260 0.209121
O O6 0.000000 0.503122 0.250000
O O7 0.000000 0.253729 0.250000
O O8 0.278928 0.260656 0.294086
O O9 0.750000 0.250000 0.000000
O O10 0.750000 0.250000 0.500000
#
# Coordination Sequence:
#
# PCOD9270499 Si02
#       4
#     8   8   8   8
#     4  10  21  39  59  86 121 160 204 253 308 365
#     4  10  20  35  59  89 121 160 205 253 305 365
#     4  11  25  44  66  93 126 165 209 257 310 371
#     4   9  21  40  60  92 128 165 208 257 310 369
#
# _framework density 24.658885999999999
#
# number of rings (size 3 to 8) (size 9 to 14) (size 15 to 20)
#    0.000    2.000    0.000    2.250    0.000   13.000 
#    0.000   17.500    0.000    0.000    0.000    0.000 
#    0.000    0.000    0.000    0.000    0.000    0.000 
#
# Total GULP energy -89473.715932 kJ/mol
# GULP energy per Si atom -5592.107246 kJ/mol
# Density = 2.460276 g / cm^3
# Si number density = 24.658886 Si / 1000 Ang^3
#
#
#
# Elastic Constant Matrix: (Units=GPa)
#
#
# Indices 1 2 3 4 5 6 
#
# 1 175.9183 1.2990 48.0620 -0.0006 22.3796 -0.0022
# 2 1.2990 184.9117 6.3547 0.0101 7.7442 -0.0019
# 3 48.0620 6.3547 74.4535 0.0254 29.6583 -0.0024
# 4 -0.0006 0.0101 0.0254 13.2737 -0.0023 17.1520
# 5 22.3796 7.7442 29.6583 -0.0023 44.1093 -0.0038
# 6 -0.0022 -0.0019 -0.0024 17.1520 -0.0038 7.8586
#
#
#
# Elastic Compliance Matrix: (Units=1/GPa)
#
#
# Indices 1 2 3 4 5 6 
#
# 1 0.006920 0.000125 -0.004194 -0.000004 -0.000713 0.000010
# 2 0.000125 0.005451 -0.000191 0.000003 -0.000892 -0.000005
# 3 -0.004194 -0.000191 0.020888 0.000023 -0.011884 -0.000050
# 4 -0.000004 0.000003 0.000023 -0.041388 -0.000008 0.090331
# 5 -0.000713 -0.000892 -0.011884 -0.000008 0.031180 0.000028
# 6 0.000010 -0.000005 -0.000050 0.090331 0.000028 -0.069906
#
#
# Mechanical properties :
#
#
# Convention : Reuss Voigt Hill
#
# Bulk Modulus (GPa) = 40.41784 60.74612 50.58198
# Shear Modulus (GPa) = -166.17257 38.35284 -63.90986
#
# Velocity S-wave (km/s) = -8.21796 3.94805 -5.09645
# Velocity P-wave (km/s) = 8.58021 6.74321 3.75161
#
# Compressibility (1/GPa) = 0.02474155
#
# Stress axis : x y z
#
# Youngs Moduli (GPa) = 144.50863 183.45139 47.87336
#
# Poissons Ratio (x) = -0.02300 0.20076
# Poissons Ratio (y) = -0.01812 0.00913
# Poissons Ratio (z) = 0.60602 0.03498
#
# Static dielectric constant tensor:
#      x y z
#    x 1.932660 0.000000 -0.033370 
#    y 0.000000 1.964110 0.000000 
#    z -0.033370 0.000000 1.875380 
# 
# From -- ./inp_files/237851.got.cif
#   From: 2010.05.17/outbox.cif.g08.bks.cpg/sg15_119_cif.got.tgz:237851.got - 2010.06.03 18:47:42.
