data_PCOD9270280
_publ_section_title
;
Structure prediction by ZEFSAII (Michael W. Deem and Ramdas Pophale) SiO2 
 PCOD9270280
Probable space group: C 2/C
;
_chemical_formula_sum "Si O2"
_cell_formula_units_Z 40
_cell_length_a 8.166212
_cell_length_b 27.007945
_cell_length_c 7.038723
_cell_angle_alpha 90.000000
_cell_angle_beta 92.276676
_cell_angle_gamma 90.000000
_cell_volume 1551.183295
_symmetry_space_group_name_H-M "C 2/C"
_symmetry_group_IT_number 15
_symmetry_cell_setting 'monoclinic'
loop_
_space_group_symop_operation_xyz
x,y,z
-x,y,1/2-z
-x,-y,-z
x,-y,1/2+z
1/2+x,1/2+y,z
1/2-x,1/2+y,1/2-z
1/2-x,1/2-y,-z
1/2+x,1/2-y,1/2+z
loop_
_atom_site_type_symbol
_atom_site_label
_atom_site_fract_x
_atom_site_fract_y
_atom_site_fract_z
Si Si1 0.307144 0.735767 0.786293
Si Si2 0.178465 0.524699 0.997800
Si Si3 0.184856 0.629601 0.837824
Si Si4 0.333370 0.436077 0.858545
Si Si5 0.697920 0.159078 0.273881
O O1 0.500000 0.736569 0.750000
O O2 0.250860 0.680156 0.744066
O O3 0.242404 0.785483 0.677709
O O4 0.250000 0.750000 0.000000
O O5 0.214135 0.569482 0.850632
O O6 0.316948 0.482152 0.996082
O O7 0.194068 0.549218 0.202858
O O8 0.000000 0.500000 0.000000
O O9 0.000000 0.630033 0.750000
O O10 0.238635 0.643668 0.058257
O O11 0.500000 0.432717 0.750000
O O12 0.276630 0.381746 0.917225
O O13 0.500000 0.157722 0.250000
#
# Coordination Sequence:
#
# PCOD9270280 Si02
#       5
#     8   8   8   8   8
#     4   9  19  38  60  84 119 160 201 250 305 360
#     4  11  22  39  59  82 117 160 197 236 298 372
#     4  10  20  35  57  86 115 151 199 248 298 358
#     4  11  22  36  57  86 114 146 194 252 298 344
#     4   9  19  38  58  78 112 155 195 236 295 368
#
# _framework density 25.786766
#
# number of rings (size 3 to 8) (size 9 to 14) (size 15 to 20)
#    0.000    2.000    0.000    4.800    0.000    1.600 
#    0.000   23.000    0.000    0.000    0.000    0.000 
#    0.000    0.000    0.000    0.000    0.000    0.000 
#
# Total GULP energy -111353.428150 kJ/mol
# GULP energy per Si atom -5567.671407 kJ/mol
# Density = 2.572807 g / cm^3
# Si number density = 25.786766 Si / 1000 Ang^3
#
#
#
# Elastic Constant Matrix: (Units=GPa)
#
#
# Indices 1 2 3 4 5 6 
#
# 1 87.0541 57.2226 14.4608 0.0000 -25.5913 0.0000
# 2 57.2226 298.6583 61.6163 0.0000 -31.2459 0.0000
# 3 14.4608 61.6163 53.9984 0.0000 -6.7723 0.0000
# 4 0.0000 0.0000 0.0000 34.9037 0.0000 4.2362
# 5 -25.5913 -31.2459 -6.7723 0.0000 29.4948 0.0000
# 6 0.0000 0.0000 0.0000 4.2362 0.0000 38.9846
#
#
#
# Elastic Compliance Matrix: (Units=1/GPa)
#
#
# Indices 1 2 3 4 5 6 
#
# 1 0.016315 -0.001655 -0.000953 0.000000 0.012184 0.000000
# 2 -0.001655 0.004952 -0.004869 0.000000 0.002692 0.000000
# 3 -0.000953 -0.004869 0.024279 0.000000 -0.000411 0.000000
# 4 0.000000 0.000000 0.000000 0.029033 0.000000 -0.003155
# 5 0.012184 0.002692 -0.000411 0.000000 0.047233 0.000000
# 6 0.000000 0.000000 0.000000 -0.003155 0.000000 0.025994
#
#
# Mechanical properties :
#
#
# Convention : Reuss Voigt Hill
#
# Bulk Modulus (GPa) = 32.68896 78.47889 55.58393
# Shear Modulus (GPa) = 28.90895 41.10402 35.00649
#
# Velocity S-wave (km/s) = 3.35188 3.99682 3.68847
# Velocity P-wave (km/s) = 5.26159 7.19717 6.30411
#
# Compressibility (1/GPa) = 0.03059137
#
# Stress axis : x y z
#
# Youngs Moduli (GPa) = 61.29437 201.95669 41.18761
#
# Poissons Ratio (x) = 0.33415 0.03925
# Poissons Ratio (y) = 0.10142 0.20056
# Poissons Ratio (z) = 0.05842 0.98341
#
# Static dielectric constant tensor:
#      x y z
#    x 1.967120 0.000000 0.025070 
#    y 0.000000 2.256480 0.000000 
#    z 0.025070 0.000000 2.309960 
# 
# From -- ./inp_files/23634.got.cif
#   From: 2010.05.17/outbox.cif.g08.bks.cpg/sg15_12_cif.got.tgz:23634.got - 2010.06.03 18:47:42.
