data_PCOD9270290
_publ_section_title
;
Structure prediction by ZEFSAII (Michael W. Deem and Ramdas Pophale) SiO2 
 PCOD9270290
Probable space group: C 2/C
;
_chemical_formula_sum "Si O2"
_cell_formula_units_Z 56
_cell_length_a 5.073900
_cell_length_b 24.187622
_cell_length_c 22.042876
_cell_angle_alpha 90.000000
_cell_angle_beta 92.828823
_cell_angle_gamma 90.000000
_cell_volume 2701.928150
_symmetry_space_group_name_H-M "C 2/C"
_symmetry_group_IT_number 15
_symmetry_cell_setting 'monoclinic'
loop_
_space_group_symop_operation_xyz
x,y,z
-x,y,1/2-z
-x,-y,-z
x,-y,1/2+z
1/2+x,1/2+y,z
1/2-x,1/2+y,1/2-z
1/2-x,1/2-y,-z
1/2+x,1/2-y,1/2+z
loop_
_atom_site_type_symbol
_atom_site_label
_atom_site_fract_x
_atom_site_fract_y
_atom_site_fract_z
Si Si1 0.303050 0.233217 0.190846
Si Si2 0.295073 0.232220 0.623802
Si Si3 0.858362 0.948769 0.917512
Si Si4 0.799055 0.151712 0.075869
Si Si5 0.307235 0.117073 0.556113
Si Si6 0.430378 0.889877 0.680288
Si Si7 0.719324 0.543483 0.947912
O O1 0.500000 0.242106 0.250000
O O2 0.494131 0.255950 0.140157
O O3 0.261008 0.166940 0.186310
O O4 0.016252 0.260366 0.179133
O O5 0.356126 0.283499 0.579714
O O6 0.315079 0.172337 0.595260
O O7 0.693758 0.942780 0.854752
O O8 0.941227 0.885162 0.927304
O O9 0.731544 0.967680 0.979554
O O10 0.115915 0.987338 0.916243
O O11 0.657470 0.131618 0.136329
O O12 0.642958 0.135287 0.013250
O O13 0.530674 0.073472 0.576915
O O14 0.028017 0.085808 0.557694
O O15 0.500000 0.904373 0.750000
#
# Coordination Sequence:
#
# PCOD9270290 Si02
#       7
#     8   8   8   8   8   8   8
#     4  10  21  37  58  87 117 154 197 248 297 356
#     4  11  21  36  59  87 121 155 194 242 299 353
#     4  10  20  37  57  85 115 154 195 243 298 354
#     4  10  21  35  57  88 123 150 189 247 306 351
#     4  11  22  38  57  89 120 158 196 239 288 361
#     4  10  20  35  57  87 122 151 194 246 307 357
#     4  10  23  36  61  82 120 157 197 238 291 351
#
# _framework density 20.725937999999999
#
# number of rings (size 3 to 8) (size 9 to 14) (size 15 to 20)
#    0.000    1.714    2.857    1.714    2.000    2.286 
#    0.000    4.286    0.000    3.429    0.000    0.000 
#    0.000    0.000    0.000    0.000    0.000    0.000 
#
# Total GULP energy -156187.548965 kJ/mol
# GULP energy per Si atom -5578.126749 kJ/mol
# Density = 2.067876 g / cm^3
# Si number density = 20.725938 Si / 1000 Ang^3
#
#
#
# Elastic Constant Matrix: (Units=GPa)
#
#
# Indices 1 2 3 4 5 6 
#
# 1 69.5871 20.7363 23.1877 0.0000 14.2318 0.0000
# 2 20.7363 107.6539 38.5166 0.0000 13.2506 0.0000
# 3 23.1877 38.5166 99.7030 0.0000 18.0680 0.0000
# 4 0.0000 0.0000 0.0000 26.1505 0.0000 4.7255
# 5 14.2318 13.2506 18.0680 0.0000 21.6064 0.0000
# 6 0.0000 0.0000 0.0000 4.7255 0.0000 31.1697
#
#
#
# Elastic Compliance Matrix: (Units=1/GPa)
#
#
# Indices 1 2 3 4 5 6 
#
# 1 0.017260 -0.001590 -0.001787 0.000000 -0.008899 0.000000
# 2 -0.001590 0.011180 -0.003414 0.000000 -0.002955 0.000000
# 3 -0.001787 -0.003414 0.013167 0.000000 -0.007740 0.000000
# 4 0.000000 0.000000 0.000000 0.039317 0.000000 -0.005961
# 5 -0.008899 -0.002955 -0.007740 0.000000 0.060428 0.000000
# 6 0.000000 0.000000 0.000000 -0.005961 0.000000 0.032986
#
#
# Mechanical properties :
#
#
# Convention : Reuss Voigt Hill
#
# Bulk Modulus (GPa) = 35.68226 49.09168 42.38697
# Shear Modulus (GPa) = 25.34694 28.75224 27.04959
#
# Velocity S-wave (km/s) = 3.50087 3.72863 3.61655
# Velocity P-wave (km/s) = 5.79613 6.50188 6.15912
#
# Compressibility (1/GPa) = 0.02802513
#
# Stress axis : x y z
#
# Youngs Moduli (GPa) = 57.93808 89.44243 75.94823
#
# Poissons Ratio (x) = 0.14219 0.13573
# Poissons Ratio (y) = 0.09211 0.25929
# Poissons Ratio (z) = 0.10355 0.30535
#
# Static dielectric constant tensor:
#      x y z
#    x 1.805830 0.000000 0.023910 
#    y 0.000000 1.726500 0.000000 
#    z 0.023910 0.000000 1.811910 
# 
# From -- ./inp_files/261183.got.cif
#   From: 2010.05.17/outbox.cif.g08.bks.cpg/sg15_131_cif.got.tgz:261183.got - 2010.06.03 18:47:42.
