data_PCOD9270811
_publ_section_title
;
Structure prediction by ZEFSAII (Michael W. Deem and Ramdas Pophale) SiO2 
 PCOD9270811
Probable space group: C 2/C
;
_chemical_formula_sum "Si O2"
_cell_formula_units_Z 40
_cell_length_a 14.624671
_cell_length_b 13.130238
_cell_length_c 24.919193
_cell_angle_alpha 90.000000
_cell_angle_beta 159.027362
_cell_angle_gamma 90.000000
_cell_volume 1712.699442
_symmetry_space_group_name_H-M "C 2/C"
_symmetry_group_IT_number 15
_symmetry_cell_setting 'monoclinic'
loop_
_space_group_symop_operation_xyz
x,y,z
-x,y,1/2-z
-x,-y,-z
x,-y,1/2+z
1/2+x,1/2+y,z
1/2-x,1/2+y,1/2-z
1/2-x,1/2-y,-z
1/2+x,1/2-y,1/2+z
loop_
_atom_site_type_symbol
_atom_site_label
_atom_site_fract_x
_atom_site_fract_y
_atom_site_fract_z
Si Si1 0.689884 0.874422 0.805602
Si Si2 0.769041 0.626897 0.381750
Si Si3 0.381191 0.549444 0.310086
Si Si4 0.228631 0.856894 0.083358
Si Si5 0.847306 0.861586 0.222389
O O1 0.500000 0.887056 0.750000
O O2 0.684691 0.950233 0.752414
O O3 0.661103 0.758239 0.767539
O O4 0.984637 0.881942 0.987282
O O5 0.500000 0.572855 0.250000
O O6 0.741362 0.621441 0.302586
O O7 0.751112 0.735475 0.401522
O O8 0.057623 0.597109 0.554599
O O9 0.630424 0.602720 0.472490
O O10 0.447123 0.439455 0.321922
O O11 0.500000 0.897865 0.250000
O O12 0.000000 0.862225 0.250000
#
# Coordination Sequence:
#
# PCOD9270811 Si02
#       5
#     8   8   8   8   8
#     4   8  18  38  64  95 131 169 218 269 327 391
#     4  10  20  37  66 100 130 162 224 279 323 387
#     4  10  20  35  67  96 130 176 215 268 341 375
#     4   8  18  35  59  95 130 164 218 267 326 394
#     4  10  20  40  67 102 129 161 224 283 316 389
#
# _framework density 23.354945000000001
#
# number of rings (size 3 to 8) (size 9 to 14) (size 15 to 20)
#    1.200    1.600    0.000    1.200    0.000    3.200 
#    0.000    9.000    4.400    3.600    0.000    0.000 
#    0.000    0.000    0.000    0.000    0.000    0.000 
#
# Total GULP energy -111363.561878 kJ/mol
# GULP energy per Si atom -5568.178094 kJ/mol
# Density = 2.330179 g / cm^3
# Si number density = 23.354945 Si / 1000 Ang^3
#
#
#
# Elastic Constant Matrix: (Units=GPa)
#
#
# Indices 1 2 3 4 5 6 
#
# 1 124.8788 14.5881 25.3949 -0.0036 10.5717 0.0012
# 2 14.5881 128.4330 -4.4380 0.0047 -19.3750 -0.0020
# 3 25.3949 -4.4380 112.1722 0.0166 6.3427 -0.0056
# 4 -0.0036 0.0047 0.0166 -32.6268 -0.0051 -12.2953
# 5 10.5717 -19.3750 6.3427 -0.0051 45.3410 -0.0010
# 6 0.0012 -0.0020 -0.0056 -12.2953 -0.0010 7.2212
#
#
#
# Elastic Compliance Matrix: (Units=1/GPa)
#
#
# Indices 1 2 3 4 5 6 
#
# 1 0.008763 -0.001421 -0.001905 0.000000 -0.002384 -0.000004
# 2 -0.001421 0.008555 0.000438 0.000000 0.003926 0.000003
# 3 -0.001905 0.000438 0.009402 0.000001 -0.000684 0.000010
# 4 0.000000 0.000000 0.000001 -0.018670 -0.000003 -0.031789
# 5 -0.002384 0.003926 -0.000684 -0.000003 0.024384 -0.000001
# 6 -0.000004 0.000003 0.000010 -0.031789 -0.000001 0.084355
#
#
# Mechanical properties :
#
#
# Convention : Reuss Voigt Hill
#
# Bulk Modulus (GPa) = 47.74589 48.50824 48.12706
# Shear Modulus (GPa) = 38.59614 25.98300 32.28957
#
# Velocity S-wave (km/s) = 4.06962 3.33907 3.72231
# Velocity P-wave (km/s) = 6.52459 5.97336 6.25505
#
# Compressibility (1/GPa) = 0.02094421
#
# Stress axis : x y z
#
# Youngs Moduli (GPa) = 114.11623 116.89221 106.35792
#
# Poissons Ratio (x) = 0.16608 0.20264
# Poissons Ratio (y) = 0.16214 -0.04660
# Poissons Ratio (z) = 0.21743 -0.05122
#
# Static dielectric constant tensor:
#      x y z
#    x 1.937320 0.000000 0.044490 
#    y 0.000000 1.950320 -0.000010 
#    z 0.044490 -0.000010 1.926870 
# 
# From -- ./inp_files/274757.got.cif
#   From: 2010.05.17/outbox.cif.g08.bks.cpg/sg15_138_cif.got.tgz:274757.got - 2010.06.03 18:47:42.
