data_PCOD9270871
_publ_section_title
;
Structure prediction by ZEFSAII (Michael W. Deem and Ramdas Pophale) SiO2 
 PCOD9270871
Probable space group: C 2/C
;
_chemical_formula_sum "Si O2"
_cell_formula_units_Z 56
_cell_length_a 14.906411
_cell_length_b 16.592110
_cell_length_c 15.010017
_cell_angle_alpha 90.000000
_cell_angle_beta 137.761414
_cell_angle_gamma 90.000000
_cell_volume 2495.553547
_symmetry_space_group_name_H-M "C 2/C"
_symmetry_group_IT_number 15
_symmetry_cell_setting 'monoclinic'
loop_
_space_group_symop_operation_xyz
x,y,z
-x,y,1/2-z
-x,-y,-z
x,-y,1/2+z
1/2+x,1/2+y,z
1/2-x,1/2+y,1/2-z
1/2-x,1/2-y,-z
1/2+x,1/2-y,1/2+z
loop_
_atom_site_type_symbol
_atom_site_label
_atom_site_fract_x
_atom_site_fract_y
_atom_site_fract_z
Si Si1 0.789014 0.142387 0.932344
Si Si2 0.340151 0.397546 0.657128
Si Si3 0.580647 0.668660 0.103399
Si Si4 0.038780 0.351601 0.676807
Si Si5 0.778658 0.210079 0.743285
Si Si6 0.795885 0.050405 0.421707
Si Si7 0.256969 0.076724 0.917535
O O1 0.718631 0.178340 0.793573
O O2 0.796282 0.045684 0.925556
O O3 0.764701 0.147566 0.020344
O O4 0.932054 0.183490 0.023102
O O5 0.500000 0.409027 0.750000
O O6 0.338781 0.348879 0.746902
O O7 0.270774 0.483239 0.623213
O O8 0.659692 0.738202 0.111946
O O9 0.586234 0.588517 0.048661
O O10 0.099480 0.273628 0.671588
O O11 0.159205 0.416049 0.777795
O O12 0.000000 0.327507 0.750000
O O13 0.911879 0.396348 0.540034
O O14 0.809079 0.133387 0.704698
O O15 0.801736 0.084783 0.526096
#
# Coordination Sequence:
#
# PCOD9270871 Si02
#       7
#     8   8   8   8   8   8   8
#     4  10  20  36  56  78 107 143 185 225 264 313
#     4   9  20  38  60  80 102 141 188 229 263 309
#     4  10  20  36  54  79 111 142 181 225 267 318
#     4   9  20  36  53  80 115 143 174 221 272 324
#     4  11  22  33  54  84 113 146 175 213 274 330
#     4   9  19  35  57  80 106 142 183 225 266 313
#     4  10  20  36  56  81 111 142 179 221 270 322
#
# _framework density 22.439910999999999
#
# number of rings (size 3 to 8) (size 9 to 14) (size 15 to 20)
#    0.000    2.286    0.000    2.143    0.000    9.714 
#    0.000    7.857    0.000    6.000    0.000    0.000 
#    0.000    0.000    0.000    0.000    0.000    0.000 
#
# Total GULP energy -156126.645224 kJ/mol
# GULP energy per Si atom -5575.951615 kJ/mol
# Density = 2.238884 g / cm^3
# Si number density = 22.439911 Si / 1000 Ang^3
#
#
#
# Elastic Constant Matrix: (Units=GPa)
#
#
# Indices 1 2 3 4 5 6 
#
# 1 46.9967 21.7687 4.8927 0.0000 1.9886 0.0000
# 2 21.7687 75.8875 22.3270 0.0000 -8.1743 0.0000
# 3 4.8927 22.3270 55.2845 0.0000 -4.0052 0.0000
# 4 0.0000 0.0000 0.0000 -39.1707 0.0000 36.0554
# 5 1.9886 -8.1743 -4.0052 0.0000 19.5241 0.0000
# 6 0.0000 0.0000 0.0000 36.0554 0.0000 7.3753
#
#
#
# Elastic Compliance Matrix: (Units=1/GPa)
#
#
# Indices 1 2 3 4 5 6 
#
# 1 0.025177 -0.008021 0.000591 0.000000 -0.005801 0.000000
# 2 -0.008021 0.018027 -0.006054 0.000000 0.007122 0.000000
# 3 0.000591 -0.006054 0.020599 0.000000 0.001631 0.000000
# 4 0.000000 0.000000 0.000000 -0.004642 0.000000 0.022692
# 5 -0.005801 0.007122 0.001631 0.000000 0.055126 0.000000
# 6 0.000000 0.000000 0.000000 0.022692 0.000000 0.024653
#
#
# Mechanical properties :
#
#
# Convention : Reuss Voigt Hill
#
# Bulk Modulus (GPa) = 27.14867 30.68286 28.91577
# Shear Modulus (GPa) = 28.06033 6.15776 17.10905
#
# Velocity S-wave (km/s) = 3.54003 1.65833 2.76422
# Velocity P-wave (km/s) = 5.36970 4.16771 4.80643
#
# Compressibility (1/GPa) = 0.03683421
#
# Stress axis : x y z
#
# Youngs Moduli (GPa) = 39.71826 55.47324 48.54559
#
# Poissons Ratio (x) = 0.44495 -0.02868
# Poissons Ratio (y) = 0.31858 0.29391
# Poissons Ratio (z) = -0.02347 0.33586
#
# Static dielectric constant tensor:
#      x y z
#    x 1.853100 0.000000 -0.035810 
#    y 0.000000 1.793320 0.000000 
#    z -0.035810 0.000000 1.925090 
# 
# From -- ./inp_files/211237.got.cif
#   From: 2010.05.17/outbox.cif.g08.bks.cpg/sg15_106_cif.got.tgz:211237.got - 2010.06.03 18:47:42.
