data_PCOD9270610
_publ_section_title
;
Structure prediction by ZEFSAII (Michael W. Deem and Ramdas Pophale) SiO2 
 PCOD9270610
Probable space group: C 2/C
;
_chemical_formula_sum "Si O2"
_cell_formula_units_Z 52
_cell_length_a 11.370698
_cell_length_b 12.774262
_cell_length_c 13.504636
_cell_angle_alpha 90.000000
_cell_angle_beta 89.663049
_cell_angle_gamma 90.000000
_cell_volume 1961.545187
_symmetry_space_group_name_H-M "C 2/C"
_symmetry_group_IT_number 15
_symmetry_cell_setting 'monoclinic'
loop_
_space_group_symop_operation_xyz
x,y,z
-x,y,1/2-z
-x,-y,-z
x,-y,1/2+z
1/2+x,1/2+y,z
1/2-x,1/2+y,1/2-z
1/2-x,1/2-y,-z
1/2+x,1/2-y,1/2+z
loop_
_atom_site_type_symbol
_atom_site_label
_atom_site_fract_x
_atom_site_fract_y
_atom_site_fract_z
Si Si1 0.118732 0.526603 0.939752
Si Si2 0.661387 0.825653 0.050622
Si Si3 0.944673 0.047246 0.880626
Si Si4 0.957651 0.168987 0.083739
Si Si5 0.802848 0.917018 0.205659
Si Si6 0.000000 0.571725 0.250000
Si Si7 0.709961 0.136049 0.121692
O O1 0.073642 0.502907 0.827141
O O2 0.187787 0.425762 0.980509
O O3 0.172779 0.620405 0.006957
O O4 0.000000 0.500000 0.000000
O O5 0.535576 0.769834 0.058327
O O6 0.707022 0.840945 0.161868
O O7 0.750000 0.750000 0.000000
O O8 0.067034 0.097763 0.841578
O O9 0.828973 0.079469 0.820823
O O10 0.929428 0.096860 0.987915
O O11 0.963956 0.922127 0.863238
O O12 0.168456 0.200035 0.369949
O O13 0.758142 0.026865 0.165059
O O14 0.909281 0.645997 0.312388
#
# Coordination Sequence:
#
# PCOD9270610 Si02
#       7
#     8   8   8   8   8   4   8
#     4   9  21  42  65  90 132 182 227 271 352 417
#     4  11  21  38  63  99 138 176 221 290 338 399
#     4   9  18  34  61  93 136 178 227 277 331 417
#     4  10  20  35  61 102 135 172 227 285 343 390
#     4   9  18  35  60  94 134 179 225 269 344 410
#     4  10  20  40  64  92 122 176 236 274 330 426
#     4   9  20  36  64  97 125 179 227 281 340 411
#
# _framework density 26.509715
#
# number of rings (size 3 to 8) (size 9 to 14) (size 15 to 20)
#    0.000    2.462    1.538    0.000    4.308    0.000 
#    2.769    3.077    0.000   49.846    0.000    0.000 
#    0.000    0.000    0.000    0.000    0.000    0.000 
#
# Total GULP energy -144937.059171 kJ/mol
# GULP energy per Si atom -5574.502276 kJ/mol
# Density = 2.644938 g / cm^3
# Si number density = 26.509715 Si / 1000 Ang^3
#
#
#
# Elastic Constant Matrix: (Units=GPa)
#
#
# Indices 1 2 3 4 5 6 
#
# 1 149.6334 27.7202 31.4877 0.0000 4.6376 0.0000
# 2 27.7202 44.2519 25.2327 0.0000 4.5656 0.0000
# 3 31.4877 25.2327 167.1104 0.0000 13.9341 0.0000
# 4 0.0000 0.0000 0.0000 15.7973 0.0000 -2.0899
# 5 4.6376 4.5656 13.9341 0.0000 43.4766 0.0000
# 6 0.0000 0.0000 0.0000 -2.0899 0.0000 37.2175
#
#
#
# Elastic Compliance Matrix: (Units=1/GPa)
#
#
# Indices 1 2 3 4 5 6 
#
# 1 0.007654 -0.004340 -0.000778 0.000000 -0.000111 0.000000
# 2 -0.004340 0.027275 -0.003186 0.000000 -0.001380 0.000000
# 3 -0.000778 -0.003186 0.006757 0.000000 -0.001748 0.000000
# 4 0.000000 0.000000 0.000000 0.063776 0.000000 0.003581
# 5 -0.000111 -0.001380 -0.001748 0.000000 0.023718 0.000000
# 6 0.000000 0.000000 0.000000 0.003581 0.000000 0.027070
#
#
# Mechanical properties :
#
#
# Convention : Reuss Voigt Hill
#
# Bulk Modulus (GPa) = 39.87121 58.87521 49.37321
# Shear Modulus (GPa) = 27.59126 37.73527 32.66327
#
# Velocity S-wave (km/s) = 3.22964 3.77696 3.51397
# Velocity P-wave (km/s) = 5.38334 6.42477 5.92697
#
# Compressibility (1/GPa) = 0.02508076
#
# Stress axis : x y z
#
# Youngs Moduli (GPa) = 130.64983 36.66326 147.98644
#
# Poissons Ratio (x) = 0.15911 0.11508
# Poissons Ratio (y) = 0.56698 0.47143
# Poissons Ratio (z) = 0.10160 0.11679
#
# Static dielectric constant tensor:
#      x y z
#    x 2.203500 0.000000 -0.077520 
#    y 0.000000 2.106230 0.000000 
#    z -0.077520 0.000000 2.097670 
# 
# From -- ./inp_files/153569.got.cif
#   From: 2010.05.17/outbox.cif.g08.bks.cpg/sg15_77_cif.got.tgz:153569.got - 2010.06.03 18:47:42.
