data_PCOD9270539
_publ_section_title
;
Structure prediction by ZEFSAII (Michael W. Deem and Ramdas Pophale) SiO2 
 PCOD9270539
Probable space group: C 2/C
;
_chemical_formula_sum "Si O2"
_cell_formula_units_Z 60
_cell_length_a 16.967493
_cell_length_b 9.875919
_cell_length_c 22.219761
_cell_angle_alpha 90.000000
_cell_angle_beta 120.830445
_cell_angle_gamma 90.000000
_cell_volume 3197.200117
_symmetry_space_group_name_H-M "C 2/C"
_symmetry_group_IT_number 15
_symmetry_cell_setting 'monoclinic'
loop_
_space_group_symop_operation_xyz
x,y,z
-x,y,1/2-z
-x,-y,-z
x,-y,1/2+z
1/2+x,1/2+y,z
1/2-x,1/2+y,1/2-z
1/2-x,1/2-y,-z
1/2+x,1/2-y,1/2+z
loop_
_atom_site_type_symbol
_atom_site_label
_atom_site_fract_x
_atom_site_fract_y
_atom_site_fract_z
Si Si1 0.148686 0.320076 0.149058
Si Si2 0.672296 0.429100 0.436326
Si Si3 0.638325 0.356655 0.289476
Si Si4 0.601604 0.648971 0.237135
Si Si5 0.889915 0.216125 0.127662
Si Si6 0.970163 0.478124 0.117600
Si Si7 0.500000 0.869858 0.750000
Si Si8 0.124340 0.691905 0.500648
O O1 0.254085 0.362627 0.183219
O O2 0.152566 0.196254 0.197258
O O3 0.073453 0.423346 0.146798
O O4 0.113632 0.292104 0.067801
O O5 0.629254 0.373513 0.357657
O O6 0.653996 0.589971 0.425505
O O7 0.778695 0.384480 0.474636
O O8 0.629035 0.340528 0.472719
O O9 0.597723 0.489090 0.243495
O O10 0.580649 0.223145 0.253712
O O11 0.497265 0.691390 0.183798
O O12 0.644742 0.712314 0.315847
O O13 0.896421 0.353875 0.091567
O O14 0.962981 0.540366 0.181266
O O15 0.947637 0.592794 0.059797
#
# Coordination Sequence:
#
# PCOD9270539 Si02
#       8
#     8   8   8   8   8   8   4   8
#     4  10  22  37  55  84 125 155 181 244 307 346
#     4   9  18  37  59  84 109 156 202 240 282 352
#     4  10  20  35  60  85 111 149 201 248 288 349
#     4   9  18  35  56  81 112 149 188 244 299 343
#     4   9  18  36  59  81 114 148 196 242 292 340
#     4  11  22  36  58  88 116 153 195 248 293 348
#     4  12  22  36  64  90 110 152 208 244 292 350
#     4  10  20  36  59  82 119 158 196 237 291 356
#
# _framework density 18.76642
#
# number of rings (size 3 to 8) (size 9 to 14) (size 15 to 20)
#    0.000    2.133    1.333    3.600    1.867    0.533 
#    0.000    2.667    2.933    0.000    0.000    0.000 
#    0.000    0.000    0.000    0.000    0.000    0.000 
#
# Total GULP energy -167049.618444 kJ/mol
# GULP energy per Si atom -5568.320615 kJ/mol
# Density = 1.872371 g / cm^3
# Si number density = 18.766420 Si / 1000 Ang^3
#
#
#
# Elastic Constant Matrix: (Units=GPa)
#
#
# Indices 1 2 3 4 5 6 
#
# 1 57.9780 26.8664 17.9802 0.0000 -12.8420 0.0000
# 2 26.8664 64.7954 31.7444 0.0000 -13.1411 0.0000
# 3 17.9802 31.7444 53.5213 0.0000 -11.1965 0.0000
# 4 0.0000 0.0000 0.0000 23.7215 0.0000 1.2562
# 5 -12.8420 -13.1411 -11.1965 0.0000 25.0459 0.0000
# 6 0.0000 0.0000 0.0000 1.2562 0.0000 15.4448
#
#
#
# Elastic Compliance Matrix: (Units=1/GPa)
#
#
# Indices 1 2 3 4 5 6 
#
# 1 0.022670 -0.006991 -0.001991 0.000000 0.007065 0.000000
# 2 -0.006991 0.024829 -0.011475 0.000000 0.004312 0.000000
# 3 -0.001991 -0.011475 0.027233 0.000000 0.005132 0.000000
# 4 0.000000 0.000000 0.000000 0.042338 0.000000 -0.003444
# 5 0.007065 0.004312 0.005132 0.000000 0.048106 0.000000
# 6 0.000000 0.000000 0.000000 -0.003444 0.000000 0.065027
#
#
# Mechanical properties :
#
#
# Convention : Reuss Voigt Hill
#
# Bulk Modulus (GPa) = 29.57190 36.60855 33.09022
# Shear Modulus (GPa) = 17.70594 19.48936 18.59765
#
# Velocity S-wave (km/s) = 3.07496 3.22611 3.15144
# Velocity P-wave (km/s) = 5.32910 5.78160 5.55995
#
# Compressibility (1/GPa) = 0.03381588
#
# Stress axis : x y z
#
# Youngs Moduli (GPa) = 44.11095 40.27604 36.72012
#
# Poissons Ratio (x) = 0.28159 0.07311
# Poissons Ratio (y) = 0.30840 0.42138
# Poissons Ratio (z) = 0.08783 0.46219
#
# Static dielectric constant tensor:
#      x y z
#    x 1.695440 0.000000 -0.000070 
#    y 0.000000 1.690150 0.000000 
#    z -0.000070 0.000000 1.658820 
# 
# From -- ./inp_files/247550.got.cif
#   From: 2010.05.17/outbox.cif.g08.bks.cpg/sg15_124_cif.got.tgz:247550.got - 2010.06.03 18:47:42.
