data_PCOD9270368
_publ_section_title
;
Structure prediction by ZEFSAII (Michael W. Deem and Ramdas Pophale) SiO2 
 PCOD9270368
Probable space group: C 2/C
;
_chemical_formula_sum "Si O2"
_cell_formula_units_Z 44
_cell_length_a 18.231784
_cell_length_b 12.361896
_cell_length_c 8.916134
_cell_angle_alpha 90.000000
_cell_angle_beta 124.961579
_cell_angle_gamma 90.000000
_cell_volume 1646.869293
_symmetry_space_group_name_H-M "C 2/C"
_symmetry_group_IT_number 15
_symmetry_cell_setting 'monoclinic'
loop_
_space_group_symop_operation_xyz
x,y,z
-x,y,1/2-z
-x,-y,-z
x,-y,1/2+z
1/2+x,1/2+y,z
1/2-x,1/2+y,1/2-z
1/2-x,1/2-y,-z
1/2+x,1/2-y,1/2+z
loop_
_atom_site_type_symbol
_atom_site_label
_atom_site_fract_x
_atom_site_fract_y
_atom_site_fract_z
Si Si1 0.825687 0.815222 0.298173
Si Si2 0.148347 0.054228 0.213299
Si Si3 0.485287 0.146939 0.937067
Si Si4 0.000000 0.854838 0.750000
Si Si5 0.368334 0.241110 0.028742
Si Si6 0.654181 0.114848 0.985601
O O1 0.724291 0.818463 0.117033
O O2 0.819692 0.737842 0.435432
O O3 0.862492 0.934574 0.364598
O O4 0.874637 0.763138 0.211511
O O5 0.136723 0.146072 0.071573
O O6 0.250195 0.058832 0.395427
O O7 0.076796 0.074516 0.260977
O O8 0.511753 0.265236 0.897498
O O9 0.445328 0.167797 0.050635
O O10 0.401856 0.111895 0.733075
O O11 0.423504 0.919135 0.984997
#
# Coordination Sequence:
#
# PCOD9270368 Si02
#       6
#     8   8   8   4   8   8
#     4  10  21  37  58  83 119 157 186 239 298 345
#     4  10  20  35  58  85 117 154 194 236 289 350
#     4   9  19  37  59  84 113 150 200 242 278 339
#     4   8  18  32  50  84 110 134 184 234 282 338
#     4   9  21  37  53  84 118 148 194 237 289 348
#     4   9  20  37  59  85 115 154 195 239 286 337
#
# _framework density 26.717358000000001
#
# number of rings (size 3 to 8) (size 9 to 14) (size 15 to 20)
#    0.000    2.909    0.000    0.000    0.000   19.636 
#    0.000    7.273    0.000    4.364    0.000    0.000 
#    0.000    0.000    0.000    0.000    0.000    0.000 
#
# Total GULP energy -123058.697589 kJ/mol
# GULP energy per Si atom -5593.577163 kJ/mol
# Density = 2.665655 g / cm^3
# Si number density = 26.717358 Si / 1000 Ang^3
#
#
#
# Elastic Constant Matrix: (Units=GPa)
#
#
# Indices 1 2 3 4 5 6 
#
# 1 177.1362 21.7254 58.7893 0.0000 -17.6754 0.0000
# 2 21.7254 139.3383 31.3275 0.0000 -12.3105 0.0000
# 3 58.7893 31.3275 129.5427 0.0000 -9.3657 0.0000
# 4 0.0000 0.0000 0.0000 14.1461 0.0000 -8.0222
# 5 -17.6754 -12.3105 -9.3657 0.0000 45.6167 0.0000
# 6 0.0000 0.0000 0.0000 -8.0222 0.0000 -38.0570
#
#
#
# Elastic Compliance Matrix: (Units=1/GPa)
#
#
# Indices 1 2 3 4 5 6 
#
# 1 0.006836 -0.000238 -0.002901 0.000000 0.001989 0.000000
# 2 -0.000238 0.007729 -0.001641 0.000000 0.001657 0.000000
# 3 -0.002901 -0.001641 0.009460 0.000000 0.000375 0.000000
# 4 0.000000 0.000000 0.000000 0.063143 0.000000 -0.013310
# 5 0.001989 0.001657 0.000375 0.000000 0.023217 0.000000
# 6 0.000000 0.000000 0.000000 -0.013310 0.000000 -0.023471
#
#
# Mechanical properties :
#
#
# Convention : Reuss Voigt Hill
#
# Bulk Modulus (GPa) = 69.13416 74.41129 71.77272
# Shear Modulus (GPa) = 49.36031 26.61947 37.98989
#
# Velocity S-wave (km/s) = 4.30292 3.15990 3.77492
# Velocity P-wave (km/s) = 7.11471 6.42068 6.77658
#
# Compressibility (1/GPa) = 0.01446463
#
# Stress axis : x y z
#
# Youngs Moduli (GPa) = 146.28886 129.37807 105.70779
#
# Poissons Ratio (x) = 0.03078 0.30665
# Poissons Ratio (y) = 0.03480 0.17351
# Poissons Ratio (z) = 0.42437 0.21237
#
# Static dielectric constant tensor:
#      x y z
#    x 2.183520 0.000000 0.163890 
#    y 0.000000 2.082170 0.000000 
#    z 0.163890 0.000000 2.219840 
# 
# From -- ./inp_files/54529.got.cif
#   From: 2010.05.17/outbox.cif.g08.bks.cpg/sg15_28_cif.got.tgz:54529.got - 2010.06.03 18:47:42.
