data_PCOD9270833
_publ_section_title
;
Structure prediction by ZEFSAII (Michael W. Deem and Ramdas Pophale) SiO2 
 PCOD9270833
Probable space group: C 2/C
;
_chemical_formula_sum "Si O2"
_cell_formula_units_Z 56
_cell_length_a 12.537266
_cell_length_b 27.374560
_cell_length_c 9.145108
_cell_angle_alpha 90.000000
_cell_angle_beta 78.084166
_cell_angle_gamma 90.000000
_cell_volume 3070.989523
_symmetry_space_group_name_H-M "C 2/C"
_symmetry_group_IT_number 15
_symmetry_cell_setting 'monoclinic'
loop_
_space_group_symop_operation_xyz
x,y,z
-x,y,1/2-z
-x,-y,-z
x,-y,1/2+z
1/2+x,1/2+y,z
1/2-x,1/2+y,1/2-z
1/2-x,1/2-y,-z
1/2+x,1/2-y,1/2+z
loop_
_atom_site_type_symbol
_atom_site_label
_atom_site_fract_x
_atom_site_fract_y
_atom_site_fract_z
Si Si1 0.384457 0.868847 0.230859
Si Si2 0.360809 0.952881 0.659193
Si Si3 0.109314 0.444093 0.507799
Si Si4 0.407488 0.233661 0.571581
Si Si5 0.639062 0.279640 0.488069
Si Si6 0.762084 0.638889 0.071661
Si Si7 0.818849 0.721192 0.282888
O O1 0.500000 0.890752 0.250000
O O2 0.398767 0.814363 0.170210
O O3 0.316567 0.865002 0.397294
O O4 0.343921 0.900666 0.105242
O O5 0.479706 0.933838 0.569849
O O6 0.352978 0.952258 0.836699
O O7 0.268649 0.915724 0.629799
O O8 0.363704 0.007015 0.591166
O O9 0.525321 0.256383 0.564529
O O10 0.307449 0.269908 0.637008
O O11 0.389679 0.217084 0.408499
O O12 0.750000 0.250000 0.500000
O O13 0.652791 0.331765 0.560741
O O14 0.643860 0.270447 0.312676
O O15 0.823582 0.674453 0.172412
#
# Coordination Sequence:
#
# PCOD9270833 Si02
#       7
#     8   8   8   8   8   8   8
#     4  12  21  32  52  79 108 155 192 232 283 347
#     4  10  20  36  51  77 109 143 189 244 283 357
#     4  10  21  33  55  76 107 146 192 233 299 346
#     4  11  23  37  58  77 119 157 202 247 284 338
#     4  10  21  35  52  78 111 152 199 236 283 342
#     4  11  21  35  52  76 115 147 199 235 286 345
#     4  10  22  39  54  82 109 155 204 246 291 336
#
# _framework density 18.235166
#
# number of rings (size 3 to 8) (size 9 to 14) (size 15 to 20)
#    0.000    1.429    2.857    3.857    4.000    0.000 
#    0.000    0.000    0.000    0.000    0.000    0.000 
#    0.000   41.143    0.000    0.000    0.000    0.000 
#
# Total GULP energy -156041.308266 kJ/mol
# GULP energy per Si atom -5572.903867 kJ/mol
# Density = 1.819366 g / cm^3
# Si number density = 18.235166 Si / 1000 Ang^3
#
#
#
# Elastic Constant Matrix: (Units=GPa)
#
#
# Indices 1 2 3 4 5 6 
#
# 1 59.4601 28.7984 27.5691 0.0000 -1.8721 0.0000
# 2 28.7984 57.8537 28.5249 0.0000 -3.9544 0.0000
# 3 27.5691 28.5249 123.4924 0.0000 15.6908 0.0000
# 4 0.0000 0.0000 0.0000 36.3216 0.0000 8.9854
# 5 -1.8721 -3.9544 15.6908 0.0000 20.5140 0.0000
# 6 0.0000 0.0000 0.0000 8.9854 0.0000 20.5900
#
#
#
# Elastic Compliance Matrix: (Units=1/GPa)
#
#
# Indices 1 2 3 4 5 6 
#
# 1 0.023123 -0.009713 -0.003266 0.000000 0.002736 0.000000
# 2 -0.009713 0.024842 -0.004503 0.000000 0.007347 0.000000
# 3 -0.003266 -0.004503 0.011093 0.000000 -0.009651 0.000000
# 4 0.000000 0.000000 0.000000 0.030864 0.000000 -0.013469
# 5 0.002736 0.007347 -0.009651 0.000000 0.057795 0.000000
# 6 0.000000 0.000000 0.000000 -0.013469 0.000000 0.054445
#
#
# Mechanical properties :
#
#
# Convention : Reuss Voigt Hill
#
# Bulk Modulus (GPa) = 41.50428 45.62122 43.56275
# Shear Modulus (GPa) = 20.39502 25.87938 23.13720
#
# Velocity S-wave (km/s) = 3.34794 3.77132 3.56592
# Velocity P-wave (km/s) = 6.14451 6.63599 6.39497
#
# Compressibility (1/GPa) = 0.02409390
#
# Stress axis : x y z
#
# Youngs Moduli (GPa) = 43.24765 40.25400 90.14425
#
# Poissons Ratio (x) = 0.39097 0.29443
# Poissons Ratio (y) = 0.42004 0.40596
# Poissons Ratio (z) = 0.14126 0.18128
#
# Static dielectric constant tensor:
#      x y z
#    x 1.644390 0.000000 0.017580 
#    y 0.000000 1.657480 0.000000 
#    z 0.017580 0.000000 1.687490 
# 
# From -- ./inp_files/34221.got.cif
#   From: 2010.05.17/outbox.cif.g08.bks.cpg/sg15_18_cif.got.tgz:34221.got - 2010.06.03 18:47:42.
