data_PCOD9270495
_publ_section_title
;
Structure prediction by ZEFSAII (Michael W. Deem and Ramdas Pophale) SiO2 
 PCOD9270495
Probable space group: C 2/C
;
_chemical_formula_sum "Si O2"
_cell_formula_units_Z 60
_cell_length_a 6.103304
_cell_length_b 29.085907
_cell_length_c 16.671331
_cell_angle_alpha 90.000000
_cell_angle_beta 92.623277
_cell_angle_gamma 90.000000
_cell_volume 2956.395508
_symmetry_space_group_name_H-M "C 2/C"
_symmetry_group_IT_number 15
_symmetry_cell_setting 'monoclinic'
loop_
_space_group_symop_operation_xyz
x,y,z
-x,y,1/2-z
-x,-y,-z
x,-y,1/2+z
1/2+x,1/2+y,z
1/2-x,1/2+y,1/2-z
1/2-x,1/2-y,-z
1/2+x,1/2-y,1/2+z
loop_
_atom_site_type_symbol
_atom_site_label
_atom_site_fract_x
_atom_site_fract_y
_atom_site_fract_z
Si Si1 0.294036 0.169799 0.188676
Si Si2 0.543905 0.403110 0.602847
Si Si3 0.731920 0.151095 0.974206
Si Si4 0.584131 0.928854 0.020539
Si Si5 0.500000 0.751506 0.250000
Si Si6 0.686756 0.512165 0.437576
Si Si7 0.555565 0.223535 0.451037
Si Si8 0.621844 0.301562 0.167559
O O1 0.500000 0.162111 0.250000
O O2 0.137072 0.126314 0.177396
O O3 0.170361 0.215953 0.213941
O O4 0.362396 0.179953 0.098460
O O5 0.375922 0.371047 0.548261
O O6 0.743908 0.416791 0.546855
O O7 0.423358 0.450809 0.623087
O O8 0.529027 0.117564 0.951327
O O9 0.875868 0.157635 0.896766
O O10 0.636190 0.200915 0.998757
O O11 0.709757 0.963035 0.083954
O O12 0.382374 0.958779 0.981966
O O13 0.368573 0.784978 0.189647
O O14 0.500000 0.500000 0.500000
O O15 0.750000 0.250000 0.500000
O O16 0.477752 0.258590 0.381739
O O17 0.500000 0.309652 0.250000
#
# Coordination Sequence:
#
# PCOD9270495 Si02
#       8
#     8   8   8   8   4   8   8   8
#     4  12  23  37  56  84 122 165 205 246 308 374
#     4  10  20  35  59  88 128 150 199 251 304 378
#     4  11  23  36  61  88 118 160 210 258 313 357
#     4   9  17  33  57  87 129 140 192 249 303 361
#     4  12  22  42  58  72 126 162 206 242 306 354
#     4   8  16  31  55  90 125 148 177 245 312 363
#     4  12  22  41  58  82 118 162 210 267 307 353
#     4  12  25  40  56  82 119 167 212 254 305 365
#
# _framework density 20.294985
#
# number of rings (size 3 to 8) (size 9 to 14) (size 15 to 20)
#    0.000    1.333    4.000    2.800    0.000    0.000 
#    0.000    0.000    0.000    0.000    0.000    0.000 
#  332.000    0.000    0.000    0.000    0.000    0.267 
#
# Total GULP energy -167279.660480 kJ/mol
# GULP energy per Si atom -5575.988683 kJ/mol
# Density = 2.024879 g / cm^3
# Si number density = 20.294985 Si / 1000 Ang^3
#
#
#
# Elastic Constant Matrix: (Units=GPa)
#
#
# Indices 1 2 3 4 5 6 
#
# 1 92.0215 32.4069 31.2798 0.0000 11.6420 0.0000
# 2 32.4069 88.3088 23.6831 0.0000 1.0365 0.0000
# 3 31.2798 23.6831 71.3442 0.0000 0.6863 0.0000
# 4 0.0000 0.0000 0.0000 4.6180 0.0000 5.3346
# 5 11.6420 1.0365 0.6863 0.0000 38.2560 0.0000
# 6 0.0000 0.0000 0.0000 5.3346 0.0000 52.3429
#
#
#
# Elastic Compliance Matrix: (Units=1/GPa)
#
#
# Indices 1 2 3 4 5 6 
#
# 1 0.014483 -0.003923 -0.005007 0.000000 -0.004211 0.000000
# 2 -0.003923 0.013496 -0.002769 0.000000 0.000878 0.000000
# 3 -0.005007 -0.002769 0.017119 0.000000 0.001292 0.000000
# 4 0.000000 0.000000 0.000000 0.245437 0.000000 -0.025014
# 5 -0.004211 0.000878 0.001292 0.000000 0.027374 0.000000
# 6 0.000000 0.000000 0.000000 -0.025014 0.000000 0.021654
#
#
# Mechanical properties :
#
#
# Convention : Reuss Voigt Hill
#
# Bulk Modulus (GPa) = 46.08214 47.37936 46.73075
# Shear Modulus (GPa) = 13.50645 29.99704 21.75175
#
# Velocity S-wave (km/s) = 2.58254 3.84872 3.27736
# Velocity P-wave (km/s) = 5.62567 6.56858 6.11532
#
# Compressibility (1/GPa) = 0.02170038
#
# Stress axis : x y z
#
# Youngs Moduli (GPa) = 69.04476 74.09829 58.41611
#
# Poissons Ratio (x) = 0.29066 0.29251
# Poissons Ratio (y) = 0.27084 0.16173
# Poissons Ratio (z) = 0.34573 0.20514
#
# Static dielectric constant tensor:
#      x y z
#    x 1.699270 0.000000 0.034590 
#    y 0.000000 1.758940 0.000000 
#    z 0.034590 0.000000 1.648560 
# 
# From -- ./inp_files/186529.got.cif
#   From: 2010.05.17/outbox.cif.g08.bks.cpg/sg15_94_cif.got.tgz:186529.got - 2010.06.03 18:47:42.
