data_PCOD9270256
_publ_section_title
;
Structure prediction by ZEFSAII (Michael W. Deem and Ramdas Pophale) SiO2 
 PCOD9270256
Probable space group: C 2/C
;
_chemical_formula_sum "Si O2"
_cell_formula_units_Z 48
_cell_length_a 11.697640
_cell_length_b 20.456317
_cell_length_c 12.069719
_cell_angle_alpha 90.000000
_cell_angle_beta 48.029488
_cell_angle_gamma 90.000000
_cell_volume 2147.323435
_symmetry_space_group_name_H-M "C 2/C"
_symmetry_group_IT_number 15
_symmetry_cell_setting 'monoclinic'
loop_
_space_group_symop_operation_xyz
x,y,z
-x,y,1/2-z
-x,-y,-z
x,-y,1/2+z
1/2+x,1/2+y,z
1/2-x,1/2+y,1/2-z
1/2-x,1/2-y,-z
1/2+x,1/2-y,1/2+z
loop_
_atom_site_type_symbol
_atom_site_label
_atom_site_fract_x
_atom_site_fract_y
_atom_site_fract_z
Si Si1 0.274733 0.779927 0.863502
Si Si2 0.948637 0.260674 0.534117
Si Si3 0.856670 0.112462 0.574578
Si Si4 0.702800 0.893862 0.941006
Si Si5 0.915513 0.457128 0.191095
Si Si6 0.307486 0.579719 0.137600
O O1 0.416259 0.770298 0.687480
O O2 0.255752 0.857829 0.886818
O O3 0.250000 0.750000 0.000000
O O4 0.128287 0.749082 0.893709
O O5 0.880814 0.189635 0.552556
O O6 0.873629 0.321643 0.518415
O O7 0.798809 0.093149 0.489399
O O8 0.719978 0.093837 0.747056
O O9 0.012679 0.075331 0.509324
O O10 0.562564 0.946106 0.017025
O O11 0.810032 0.900254 0.765084
O O12 0.815791 0.521340 0.286723
O O13 0.000000 0.436171 0.250000
#
# Coordination Sequence:
#
# PCOD9270256 Si02
#       6
#     8   8   8   8   8   8
#     4  10  21  36  55  80 112 148 190 235 279 331
#     4  10  20  35  57  84 111 145 183 232 287 334
#     4  10  20  36  56  82 114 144 181 229 283 340
#     4  10  20  35  58  84 111 144 185 233 282 337
#     4  10  21  36  55  80 111 149 188 228 275 335
#     4  10  21  36  56  80 111 150 187 229 280 331
#
# _framework density 22.35341
#
# number of rings (size 3 to 8) (size 9 to 14) (size 15 to 20)
#    0.000    2.000    0.000    3.500    0.000    2.667 
#    0.000    8.333    0.000    8.000    0.000    0.000 
#    0.000    0.000    0.000    0.000    0.000    0.000 
#
# Total GULP energy -133685.078304 kJ/mol
# GULP energy per Si atom -5570.211596 kJ/mol
# Density = 2.230253 g / cm^3
# Si number density = 22.353410 Si / 1000 Ang^3
#
#
#
# Elastic Constant Matrix: (Units=GPa)
#
#
# Indices 1 2 3 4 5 6 
#
# 1 28.7502 17.1833 25.5984 0.0000 -22.9026 0.0000
# 2 17.1833 97.8087 4.6785 0.0000 -10.1917 0.0000
# 3 25.5984 4.6785 65.4211 0.0000 -20.8258 0.0000
# 4 0.0000 0.0000 0.0000 11.1238 0.0000 -1.8858
# 5 -22.9026 -10.1917 -20.8258 0.0000 42.5224 0.0000
# 6 0.0000 0.0000 0.0000 -1.8858 0.0000 22.7563
#
#
#
# Elastic Compliance Matrix: (Units=1/GPa)
#
#
# Indices 1 2 3 4 5 6 
#
# 1 0.089164 -0.011010 -0.023284 0.000000 0.033981 0.000000
# 2 -0.011010 0.011846 0.002935 0.000000 -0.001654 0.000000
# 3 -0.023284 0.002935 0.024189 0.000000 0.000010 0.000000
# 4 0.000000 0.000000 0.000000 0.091178 0.000000 0.007556
# 5 0.033981 -0.001654 0.000010 0.000000 0.041428 0.000000
# 6 0.000000 0.000000 0.000000 0.007556 0.000000 0.044570
#
#
# Mechanical properties :
#
#
# Convention : Reuss Voigt Hill
#
# Bulk Modulus (GPa) = 16.00501 31.87783 23.94142
# Shear Modulus (GPa) = 12.95604 24.91515 18.93560
#
# Velocity S-wave (km/s) = 2.41010 3.34219 2.91366
# Velocity P-wave (km/s) = 3.86268 5.40235 4.69605
#
# Compressibility (1/GPa) = 0.06248042
#
# Stress axis : x y z
#
# Youngs Moduli (GPa) = 11.21530 84.41935 41.34027
#
# Poissons Ratio (x) = 0.92945 0.96256
# Poissons Ratio (y) = 0.12348 -0.12131
# Poissons Ratio (z) = 0.26114 -0.24773
#
# Static dielectric constant tensor:
#      x y z
#    x 1.827220 0.000000 -0.011520 
#    y 0.000000 1.851140 0.000000 
#    z -0.011520 0.000000 1.862620 
# 
# From -- ./inp_files/89413.got.cif
#   From: 2010.05.17/outbox.cif.g08.bks.cpg/sg15_45_cif.got.tgz:89413.got - 2010.06.03 18:47:42.
