data_PCOD9270195
_publ_section_title
;
Structure prediction by ZEFSAII (Michael W. Deem and Ramdas Pophale) SiO2 
 PCOD9270195
Probable space group: C 2/C
;
_chemical_formula_sum "Si O2"
_cell_formula_units_Z 56
_cell_length_a 12.721284
_cell_length_b 19.470510
_cell_length_c 16.840008
_cell_angle_alpha 90.000000
_cell_angle_beta 142.433989
_cell_angle_gamma 90.000000
_cell_volume 2543.015427
_symmetry_space_group_name_H-M "C 2/C"
_symmetry_group_IT_number 15
_symmetry_cell_setting 'monoclinic'
loop_
_space_group_symop_operation_xyz
x,y,z
-x,y,1/2-z
-x,-y,-z
x,-y,1/2+z
1/2+x,1/2+y,z
1/2-x,1/2+y,1/2-z
1/2-x,1/2-y,-z
1/2+x,1/2-y,1/2+z
loop_
_atom_site_type_symbol
_atom_site_label
_atom_site_fract_x
_atom_site_fract_y
_atom_site_fract_z
Si Si1 0.803448 0.432436 0.309236
Si Si2 0.233379 0.370070 0.767915
Si Si3 0.718693 0.725607 0.571041
Si Si4 0.801327 0.506268 0.148987
Si Si5 0.315439 0.059482 0.414620
Si Si6 0.339114 0.773166 0.317380
Si Si7 0.117361 0.091234 0.441634
O O1 0.735516 0.465056 0.187242
O O2 0.748380 0.484816 0.346339
O O3 0.778883 0.350667 0.298871
O O4 0.010254 0.444762 0.430813
O O5 0.206559 0.414792 0.829707
O O6 0.125727 0.399789 0.629542
O O7 0.219522 0.289580 0.773718
O O8 0.423649 0.388604 0.846542
O O9 0.750000 0.750000 0.500000
O O10 0.526073 0.756777 0.467685
O O11 0.835792 0.738052 0.718620
O O12 0.722315 0.643895 0.559781
O O13 0.676418 0.484128 0.003430
O O14 0.000000 0.489101 0.250000
O O15 0.179296 0.098539 0.388328
#
# Coordination Sequence:
#
# PCOD9270195 Si02
#       7
#     8   8   8   8   8   8   8
#     4  10  20  35  58  83 115 150 199 238 286 343
#     4  10  23  36  55  83 118 150 186 238 296 345
#     4  11  22  31  55  86 124 153 185 239 304 363
#     4  11  21  37  59  82 108 154 200 237 280 347
#     4  10  20  35  56  87 112 151 193 243 285 348
#     4  11  21  37  54  84 122 158 190 238 299 356
#     4  11  20  36  56  83 116 147 190 239 296 347
#
# _framework density 22.021100000000001
#
# number of rings (size 3 to 8) (size 9 to 14) (size 15 to 20)
#    0.000    1.429    2.857    3.857    0.000    2.286 
#    0.000    0.000    0.000    4.286    0.000    0.000 
#    0.000    0.000    0.000    0.000    0.000    0.000 
#
# Total GULP energy -156130.618003 kJ/mol
# GULP energy per Si atom -5576.093500 kJ/mol
# Density = 2.197098 g / cm^3
# Si number density = 22.021100 Si / 1000 Ang^3
#
#
#
# Elastic Constant Matrix: (Units=GPa)
#
#
# Indices 1 2 3 4 5 6 
#
# 1 18.6126 4.8031 -0.1458 -0.0004 -0.4005 -0.0001
# 2 4.8031 167.2938 7.1953 -0.0005 -17.4978 -0.0003
# 3 -0.1458 7.1953 57.5184 -0.0016 -12.1194 -0.0009
# 4 -0.0004 -0.0005 -0.0016 32.5408 -0.0008 -11.8489
# 5 -0.4005 -17.4978 -12.1194 -0.0008 20.9867 -0.0003
# 6 -0.0001 -0.0003 -0.0009 -11.8489 -0.0003 27.1138
#
#
#
# Elastic Compliance Matrix: (Units=1/GPa)
#
#
# Indices 1 2 3 4 5 6 
#
# 1 0.054135 -0.001578 0.000313 0.000001 -0.000102 0.000001
# 2 -0.001578 0.006602 0.000368 0.000000 0.005687 0.000000
# 3 0.000313 0.000368 0.019818 0.000002 0.011758 0.000002
# 4 0.000001 0.000000 0.000002 0.036546 0.000003 0.015971
# 5 -0.000102 0.005687 0.011758 0.000003 0.059179 0.000003
# 6 0.000001 0.000000 0.000002 0.015971 0.000003 0.043861
#
#
# Mechanical properties :
#
#
# Convention : Reuss Voigt Hill
#
# Bulk Modulus (GPa) = 12.69667 29.68109 21.18888
# Shear Modulus (GPa) = 20.14613 31.56641 25.85627
#
# Velocity S-wave (km/s) = 3.02794 3.79022 3.43032
# Velocity P-wave (km/s) = 4.24297 5.71507 5.03313
#
# Compressibility (1/GPa) = 0.07876080
#
# Stress axis : x y z
#
# Youngs Moduli (GPa) = 18.47247 151.47403 50.45961
#
# Poissons Ratio (x) = 0.23908 -0.01581
# Poissons Ratio (y) = 0.02916 -0.01859
# Poissons Ratio (z) = -0.00579 -0.05580
#
# Static dielectric constant tensor:
#      x y z
#    x 1.807280 0.000000 0.003090 
#    y 0.000000 1.925720 0.000000 
#    z 0.003090 0.000000 1.866260 
# 
# From -- ./inp_files/206291.got.cif
#   From: 2010.05.17/outbox.cif.g08.bks.cpg/sg15_104_cif.got.tgz:206291.got - 2010.06.03 18:47:42.
