data_PCOD9270359
_publ_section_title
;
Structure prediction by ZEFSAII (Michael W. Deem and Ramdas Pophale) SiO2 
 PCOD9270359
Probable space group: C 2/C
;
_chemical_formula_sum "Si O2"
_cell_formula_units_Z 56
_cell_length_a 6.772307
_cell_length_b 24.847553
_cell_length_c 16.657175
_cell_angle_alpha 90.000000
_cell_angle_beta 86.318418
_cell_angle_gamma 90.000000
_cell_volume 2797.205905
_symmetry_space_group_name_H-M "C 2/C"
_symmetry_group_IT_number 15
_symmetry_cell_setting 'monoclinic'
loop_
_space_group_symop_operation_xyz
x,y,z
-x,y,1/2-z
-x,-y,-z
x,-y,1/2+z
1/2+x,1/2+y,z
1/2-x,1/2+y,1/2-z
1/2-x,1/2-y,-z
1/2+x,1/2-y,1/2+z
loop_
_atom_site_type_symbol
_atom_site_label
_atom_site_fract_x
_atom_site_fract_y
_atom_site_fract_z
Si Si1 0.585587 0.768742 0.122022
Si Si2 0.567577 0.920218 0.974191
Si Si3 0.847224 0.775552 0.324803
Si Si4 0.938745 0.699735 0.062759
Si Si5 0.207471 0.099622 0.685616
Si Si6 0.177376 0.613473 0.646349
Si Si7 0.685179 0.482209 0.049629
O O1 0.385499 0.762293 0.177405
O O2 0.727130 0.718060 0.104884
O O3 0.699195 0.821699 0.151350
O O4 0.539653 0.787210 0.031969
O O5 0.534936 0.863900 0.930938
O O6 0.700553 0.963941 0.925890
O O7 0.690514 0.906975 0.054162
O O8 0.355601 0.947859 0.998435
O O9 0.000000 0.761600 0.250000
O O10 0.910767 0.738778 0.397004
O O11 0.856374 0.839939 0.337361
O O12 0.806045 0.091686 0.717639
O O13 0.446410 0.101196 0.667908
O O14 0.132419 0.054763 0.626474
O O15 0.500000 0.500000 0.000000
#
# Coordination Sequence:
#
# PCOD9270359 Si02
#       7
#     8   8   8   8   8   8   8
#     4   9  19  34  55  88 116 154 196 245 306 368
#     4   9  20  38  58  82 114 154 203 254 306 361
#     4  11  22  34  55  89 124 157 194 247 310 375
#     4  10  20  35  58  84 120 156 198 240 306 379
#     4   9  18  32  54  85 116 151 198 255 313 353
#     4   8  15  33  57  82 114 145 193 261 308 350
#     4  10  21  36  57  83 114 155 204 256 306 363
#
# _framework density 20.019977999999998
#
# number of rings (size 3 to 8) (size 9 to 14) (size 15 to 20)
#    0.000    2.571    0.000    2.143    0.000    7.429 
#    0.000    1.429    9.429    0.000    3.714    0.000 
#    0.000    0.000    0.000    0.000    0.000    0.000 
#
# Total GULP energy -156128.752922 kJ/mol
# GULP energy per Si atom -5576.026890 kJ/mol
# Density = 1.997441 g / cm^3
# Si number density = 20.019978 Si / 1000 Ang^3
#
#
#
# Elastic Constant Matrix: (Units=GPa)
#
#
# Indices 1 2 3 4 5 6 
#
# 1 112.3812 55.6341 49.1958 0.0000 4.5534 0.0000
# 2 55.6341 125.2829 42.7496 0.0000 4.4064 0.0000
# 3 49.1958 42.7496 83.1413 0.0000 3.0238 0.0000
# 4 0.0000 0.0000 0.0000 34.0135 0.0000 3.2919
# 5 4.5534 4.4064 3.0238 0.0000 42.4801 0.0000
# 6 0.0000 0.0000 0.0000 3.2919 0.0000 33.9534
#
#
#
# Elastic Compliance Matrix: (Units=1/GPa)
#
#
# Indices 1 2 3 4 5 6 
#
# 1 0.013464 -0.003937 -0.005920 0.000000 -0.000613 0.000000
# 2 -0.003937 0.010850 -0.003232 0.000000 -0.000473 0.000000
# 3 -0.005920 -0.003232 0.017202 0.000000 -0.000255 0.000000
# 4 0.000000 0.000000 0.000000 0.029679 0.000000 -0.002877
# 5 -0.000613 -0.000473 -0.000255 0.000000 0.023673 0.000000
# 6 0.000000 0.000000 0.000000 -0.002877 0.000000 0.029731
#
#
# Mechanical properties :
#
#
# Convention : Reuss Voigt Hill
#
# Bulk Modulus (GPa) = 65.20095 68.44048 66.82072
# Shear Modulus (GPa) = 32.07419 33.63778 32.85599
#
# Velocity S-wave (km/s) = 4.00698 4.10348 4.05552
# Velocity P-wave (km/s) = 7.35163 7.53072 7.44171
#
# Compressibility (1/GPa) = 0.01533720
#
# Stress axis : x y z
#
# Youngs Moduli (GPa) = 74.27348 92.16797 58.13404
#
# Poissons Ratio (x) = 0.36289 0.34415
# Poissons Ratio (y) = 0.29243 0.18788
# Poissons Ratio (z) = 0.43969 0.29787
#
# Static dielectric constant tensor:
#      x y z
#    x 1.809350 0.000000 -0.007940 
#    y 0.000000 1.670540 0.000000 
#    z -0.007940 0.000000 1.762690 
# 
# From -- ./inp_files/228095.got.cif
#   From: 2010.05.17/outbox.cif.g08.bks.cpg/sg15_115_cif.got.tgz:228095.got - 2010.06.03 18:47:42.
