data_PCOD9270318
_publ_section_title
;
Structure prediction by ZEFSAII (Michael W. Deem and Ramdas Pophale) SiO2 
 PCOD9270318
Probable space group: C 2/C
;
_chemical_formula_sum "Si O2"
_cell_formula_units_Z 60
_cell_length_a 22.455244
_cell_length_b 15.778737
_cell_length_c 15.058933
_cell_angle_alpha 90.000000
_cell_angle_beta 147.125199
_cell_angle_gamma 90.000000
_cell_volume 2896.197397
_symmetry_space_group_name_H-M "C 2/C"
_symmetry_group_IT_number 15
_symmetry_cell_setting 'monoclinic'
loop_
_space_group_symop_operation_xyz
x,y,z
-x,y,1/2-z
-x,-y,-z
x,-y,1/2+z
1/2+x,1/2+y,z
1/2-x,1/2+y,1/2-z
1/2-x,1/2-y,-z
1/2+x,1/2-y,1/2+z
loop_
_atom_site_type_symbol
_atom_site_label
_atom_site_fract_x
_atom_site_fract_y
_atom_site_fract_z
Si Si1 0.439067 0.763902 0.984896
Si Si2 0.439751 0.922866 0.870406
Si Si3 0.500000 0.967196 0.750000
Si Si4 0.252238 0.310107 0.643376
Si Si5 0.911063 0.933831 0.430705
Si Si6 0.226656 0.982709 0.072729
Si Si7 0.746944 0.496392 0.898835
Si Si8 0.370840 0.177985 0.695463
O O1 0.460084 0.829174 0.931734
O O2 0.311883 0.774264 0.854239
O O3 0.452299 0.663020 0.990279
O O4 0.499067 0.818595 0.139834
O O5 0.477107 0.923915 0.815266
O O6 0.310750 0.946258 0.712512
O O7 0.500000 0.000000 0.000000
O O8 0.378991 0.007887 0.579907
O O9 0.281349 0.407743 0.683104
O O10 0.354092 0.252474 0.746006
O O11 0.179564 0.300800 0.462201
O O12 0.866812 0.962435 0.472824
O O13 0.804603 0.935352 0.231789
O O14 0.000000 0.000000 0.500000
O O15 0.305441 0.900782 0.154214
O O16 0.192377 0.003186 0.928263
#
# Coordination Sequence:
#
# PCOD9270318 Si02
#       8
#     8   8   4   8   8   8   8   8
#     4  12  23  36  64  95 125 173 211 265 329 389
#     4  11  21  38  66  97 127 163 219 278 333 377
#     4  10  22  40  66  98 126 168 222 284 324 370
#     4  10  20  35  57  94 128 159 208 267 324 395
#     4  12  26  45  61  93 137 178 217 257 324 405
#     4  10  21  42  63  90 128 170 212 271 324 379
#     4  10  23  40  66  94 129 173 216 267 331 387
#     4  10  20  35  58  93 127 161 206 263 332 392
#
# _framework density 20.716820999999999
#
# number of rings (size 3 to 8) (size 9 to 14) (size 15 to 20)
#    0.000    1.333    2.667    3.600    3.733    0.533 
#    2.400    4.000    0.000    0.000    0.000    0.000 
#    0.000    0.000    0.000    0.000    0.000    0.000 
#
# Total GULP energy -167043.232483 kJ/mol
# GULP energy per Si atom -5568.107749 kJ/mol
# Density = 2.066967 g / cm^3
# Si number density = 20.716821 Si / 1000 Ang^3
#
#
#
# Elastic Constant Matrix: (Units=GPa)
#
#
# Indices 1 2 3 4 5 6 
#
# 1 129.6460 43.4974 14.8629 0.0000 -4.0333 0.0000
# 2 43.4974 80.1255 16.6355 0.0000 -5.8028 0.0000
# 3 14.8629 16.6355 44.3663 0.0000 -7.5906 0.0000
# 4 0.0000 0.0000 0.0000 24.7421 0.0000 -3.7770
# 5 -4.0333 -5.8028 -7.5906 0.0000 23.9503 0.0000
# 6 0.0000 0.0000 0.0000 -3.7770 0.0000 17.5420
#
#
#
# Elastic Compliance Matrix: (Units=1/GPa)
#
#
# Indices 1 2 3 4 5 6 
#
# 1 0.009506 -0.004879 -0.001357 0.000000 -0.000011 0.000000
# 2 -0.004879 0.016110 -0.004101 0.000000 0.001782 0.000000
# 3 -0.001357 -0.004101 0.025717 0.000000 0.006928 0.000000
# 4 0.000000 0.000000 0.000000 0.041791 0.000000 0.008998
# 5 -0.000011 0.001782 0.006928 0.000000 0.044379 0.000000
# 6 0.000000 0.000000 0.000000 0.008998 0.000000 0.058943
#
#
# Mechanical properties :
#
#
# Convention : Reuss Voigt Hill
#
# Bulk Modulus (GPa) = 32.61777 44.90326 38.76052
# Shear Modulus (GPa) = 21.99356 25.18967 23.59162
#
# Velocity S-wave (km/s) = 3.26180 3.49076 3.37822
# Velocity P-wave (km/s) = 5.47399 6.16191 5.82811
#
# Compressibility (1/GPa) = 0.03065813
#
# Stress axis : x y z
#
# Youngs Moduli (GPa) = 105.20135 62.07420 38.88443
#
# Poissons Ratio (x) = 0.30288 0.05276
# Poissons Ratio (y) = 0.51332 0.15947
# Poissons Ratio (z) = 0.14274 0.25457
#
# Static dielectric constant tensor:
#      x y z
#    x 1.788380 0.000000 0.033790 
#    y 0.000000 1.765990 0.000000 
#    z 0.033790 0.000000 1.802270 
# 
# From -- ./inp_files/168650.got.cif
#   From: 2010.05.17/outbox.cif.g08.bks.cpg/sg15_85_cif.got.tgz:168650.got - 2010.06.03 18:47:42.
