data_PCOD9270861
_publ_section_title
;
Structure prediction by ZEFSAII (Michael W. Deem and Ramdas Pophale) SiO2 
 PCOD9270861
Probable space group: C 2/C
;
_chemical_formula_sum "Si O2"
_cell_formula_units_Z 60
_cell_length_a 23.200035
_cell_length_b 11.881177
_cell_length_c 12.504225
_cell_angle_alpha 90.000000
_cell_angle_beta 118.868920
_cell_angle_gamma 90.000000
_cell_volume 3018.376454
_symmetry_space_group_name_H-M "C 2/C"
_symmetry_group_IT_number 15
_symmetry_cell_setting 'monoclinic'
loop_
_space_group_symop_operation_xyz
x,y,z
-x,y,1/2-z
-x,-y,-z
x,-y,1/2+z
1/2+x,1/2+y,z
1/2-x,1/2+y,1/2-z
1/2-x,1/2-y,-z
1/2+x,1/2-y,1/2+z
loop_
_atom_site_type_symbol
_atom_site_label
_atom_site_fract_x
_atom_site_fract_y
_atom_site_fract_z
Si Si1 0.189707 0.331333 0.920588
Si Si2 0.686816 0.267684 0.789155
Si Si3 0.841269 0.428922 0.378838
Si Si4 0.830532 0.172432 0.987114
Si Si5 0.054576 0.685307 0.223528
Si Si6 0.932217 0.645988 0.493159
Si Si7 0.723416 0.463658 0.664897
Si Si8 0.500000 0.964171 0.250000
O O1 0.129171 0.274304 0.802683
O O2 0.222886 0.426360 0.876105
O O3 0.250000 0.250000 0.000000
O O4 0.159833 0.372784 0.005770
O O5 0.646964 0.162037 0.704495
O O6 0.759567 0.222967 0.887317
O O7 0.693625 0.356971 0.699319
O O8 0.661631 0.320466 0.877509
O O9 0.888993 0.535880 0.423781
O O10 0.766865 0.471863 0.292133
O O11 0.884614 0.253799 0.985476
O O12 0.828102 0.046754 0.937536
O O13 0.030984 0.682886 0.081057
O O14 0.000000 0.741087 0.250000
O O15 0.055328 0.554151 0.262794
O O16 0.977338 0.609005 0.630864
#
# Coordination Sequence:
#
# PCOD9270861 Si02
#       8
#     8   8   8   8   8   8   8   4
#     4  12  22  37  61  96 128 168 216 264 331 384
#     4  10  20  36  53  87 120 170 204 251 334 386
#     4  11  21  32  58  82 129 164 204 260 322 392
#     4  10  23  35  58  85 129 168 210 262 325 399
#     4  10  23  40  59  91 131 170 213 265 331 395
#     4  12  22  42  60  93 127 175 217 271 329 399
#     4  11  21  37  55  88 128 171 204 262 323 398
#     4  10  24  36  62  86 124 172 220 268 324 388
#
# _framework density 19.878236000000001
#
# number of rings (size 3 to 8) (size 9 to 14) (size 15 to 20)
#    0.400    0.800    5.333    1.200    7.467    0.000 
#    0.000    0.000    0.000    0.000    1.733    2.800 
#    0.000    0.000    0.000    0.000    0.000    0.000 
#
# Total GULP energy -167449.694709 kJ/mol
# GULP energy per Si atom -5581.656490 kJ/mol
# Density = 1.983299 g / cm^3
# Si number density = 19.878236 Si / 1000 Ang^3
#
#
#
# Elastic Constant Matrix: (Units=GPa)
#
#
# Indices 1 2 3 4 5 6 
#
# 1 49.8810 16.3179 34.3970 0.0000 -7.4339 0.0000
# 2 16.3179 60.2700 28.2484 0.0000 -1.6102 0.0000
# 3 34.3970 28.2484 115.5666 0.0000 -10.4319 0.0000
# 4 0.0000 0.0000 0.0000 16.6137 0.0000 3.8339
# 5 -7.4339 -1.6102 -10.4319 0.0000 34.8789 0.0000
# 6 0.0000 0.0000 0.0000 3.8339 0.0000 11.6978
#
#
#
# Elastic Compliance Matrix: (Units=1/GPa)
#
#
# Indices 1 2 3 4 5 6 
#
# 1 0.026398 -0.003974 -0.006572 0.000000 0.003477 0.000000
# 2 -0.003974 0.019346 -0.003640 0.000000 -0.001043 0.000000
# 3 -0.006572 -0.003640 0.011672 0.000000 0.001922 0.000000
# 4 0.000000 0.000000 0.000000 0.065116 0.000000 -0.021341
# 5 0.003477 -0.001043 0.001922 0.000000 0.029939 0.000000
# 6 0.000000 0.000000 0.000000 -0.021341 0.000000 0.092480
#
#
# Mechanical properties :
#
#
# Convention : Reuss Voigt Hill
#
# Bulk Modulus (GPa) = 34.43000 42.62715 38.52857
# Shear Modulus (GPa) = 17.66757 22.42171 20.04464
#
# Velocity S-wave (km/s) = 2.98449 3.36214 3.17893
# Velocity P-wave (km/s) = 5.40688 6.04671 5.73572
#
# Compressibility (1/GPa) = 0.02904444
#
# Stress axis : x y z
#
# Youngs Moduli (GPa) = 37.88208 51.68962 85.67291
#
# Poissons Ratio (x) = 0.20542 0.56301
# Poissons Ratio (y) = 0.15055 0.31186
# Poissons Ratio (z) = 0.24895 0.18816
#
# Static dielectric constant tensor:
#      x y z
#    x 1.707880 0.000000 -0.019870 
#    y 0.000000 1.721050 0.000000 
#    z -0.019870 0.000000 1.739480 
# 
# From -- ./inp_files/117647.got.cif
#   From: 2010.05.17/outbox.cif.g08.bks.cpg/sg15_59_cif.got.tgz:117647.got - 2010.06.03 18:47:42.
