data_PCOD9270032
_publ_section_title
;
Structure prediction by ZEFSAII (Michael W. Deem and Ramdas Pophale) SiO2 
 PCOD9270032
Probable space group: C 2/C
;
_chemical_formula_sum "Si O2"
_cell_formula_units_Z 56
_cell_length_a 12.897449
_cell_length_b 21.562527
_cell_length_c 23.654031
_cell_angle_alpha 90.000000
_cell_angle_beta 27.059612
_cell_angle_gamma 90.000000
_cell_volume 2992.547626
_symmetry_space_group_name_H-M "C 2/C"
_symmetry_group_IT_number 15
_symmetry_cell_setting 'monoclinic'
loop_
_space_group_symop_operation_xyz
x,y,z
-x,y,1/2-z
-x,-y,-z
x,-y,1/2+z
1/2+x,1/2+y,z
1/2-x,1/2+y,1/2-z
1/2-x,1/2-y,-z
1/2+x,1/2-y,1/2+z
loop_
_atom_site_type_symbol
_atom_site_label
_atom_site_fract_x
_atom_site_fract_y
_atom_site_fract_z
Si Si1 0.015810 0.706597 0.808847
Si Si2 0.622936 0.670208 0.076860
Si Si3 0.680067 0.238661 0.116089
Si Si4 0.647708 0.434495 0.235063
Si Si5 0.501169 0.335693 0.387073
Si Si6 0.989977 0.343924 0.495090
Si Si7 0.169064 0.075117 0.222732
O O1 0.248979 0.670650 0.707363
O O2 0.000000 0.720221 0.750000
O O3 0.028011 0.768415 0.841757
O O4 0.788038 0.672835 0.942808
O O5 0.788599 0.675711 0.051090
O O6 0.468337 0.610332 0.161479
O O7 0.500000 0.219056 0.250000
O O8 0.544468 0.281415 0.136924
O O9 0.807896 0.180783 0.026125
O O10 0.868610 0.285659 0.050790
O O11 0.500000 0.436951 0.250000
O O12 0.500239 0.400890 0.354943
O O13 0.724877 0.504295 0.210510
O O14 0.853032 0.388773 0.119012
O O15 0.882183 0.383850 0.598494
O O16 0.000000 0.073674 0.250000
#
# Coordination Sequence:
#
# PCOD9270032 Si02
#       7
#     8   8   8   8   8   8   8
#     4  11  21  35  56  77 105 142 179 227 266 311
#     4  10  20  35  54  82 109 134 177 224 269 320
#     4  11  20  33  53  77 112 143 173 217 263 325
#     4  11  19  35  53  81 112 143 173 215 266 328
#     4  11  21  34  52  76 107 145 177 215 270 313
#     4  11  17  35  54  83 111 137 172 217 273 325
#     4   9  20  31  54  83 113 138 170 215 274 328
#
# _framework density 18.713152000000001
#
# number of rings (size 3 to 8) (size 9 to 14) (size 15 to 20)
#    0.000    1.429    4.286    3.429    0.000    1.143 
#    0.000    0.000    0.000    1.714    0.000    0.000 
#    0.000    0.000    0.000    0.000    0.000    0.000 
#
# Total GULP energy -156286.905385 kJ/mol
# GULP energy per Si atom -5581.675192 kJ/mol
# Density = 1.867056 g / cm^3
# Si number density = 18.713152 Si / 1000 Ang^3
#
#
#
# Elastic Constant Matrix: (Units=GPa)
#
#
# Indices 1 2 3 4 5 6 
#
# 1 29.4628 1.2798 21.4455 0.2522 3.8543 0.0323
# 2 1.2798 76.4681 50.9781 0.2717 12.8188 0.0658
# 3 21.4455 50.9781 131.7250 0.6016 33.8194 0.0986
# 4 0.2522 0.2717 0.6016 -54.5398 -0.1912 -6.9195
# 5 3.8543 12.8188 33.8194 -0.1912 24.8445 -0.0104
# 6 0.0323 0.0658 0.0986 -6.9195 -0.0104 3.9672
#
#
#
# Elastic Compliance Matrix: (Units=1/GPa)
#
#
# Indices 1 2 3 4 5 6 
#
# 1 0.040116 0.004983 -0.009534 0.000091 0.004185 -0.000003
# 2 0.004983 0.018245 -0.008081 0.000033 0.000814 -0.000084
# 3 -0.009534 -0.008081 0.016633 0.000156 -0.016992 0.000025
# 4 0.000091 0.000033 0.000156 -0.015009 -0.000369 -0.026185
# 5 0.004185 0.000814 -0.016992 -0.000369 0.062308 -0.000106
# 6 -0.000003 -0.000084 0.000025 -0.026185 -0.000106 0.206394
#
#
# Mechanical properties :
#
#
# Convention : Reuss Voigt Hill
#
# Bulk Modulus (GPa) = 20.10897 42.78473 31.44685
# Shear Modulus (GPa) = 13.49427 5.78456 9.63941
#
# Velocity S-wave (km/s) = 2.68827 1.76008 2.27208
# Velocity P-wave (km/s) = 4.51718 5.20035 4.87076
#
# Compressibility (1/GPa) = 0.04972904
#
# Stress axis : x y z
#
# Youngs Moduli (GPa) = 24.92752 54.81007 60.12151
#
# Poissons Ratio (x) = -0.27312 0.57322
# Poissons Ratio (y) = -0.12421 0.48585
# Poissons Ratio (z) = 0.23767 0.44293
#
# Static dielectric constant tensor:
#      x y z
#    x 1.661480 0.000020 -0.008910 
#    y 0.000020 1.643860 0.000030 
#    z -0.008910 0.000030 1.689630 
# 
# From -- ./inp_files/114685.got.cif
#   From: 2010.05.17/outbox.cif.g08.bks.cpg/sg15_58_cif.got.tgz:114685.got - 2010.06.03 18:47:42.
