data_PCOD9270949
_publ_section_title
;
Structure prediction by ZEFSAII (Michael W. Deem and Ramdas Pophale) SiO2 
 PCOD9270949
Probable space group: C 2/C
;
_chemical_formula_sum "Si O2"
_cell_formula_units_Z 60
_cell_length_a 22.583354
_cell_length_b 12.804716
_cell_length_c 32.308457
_cell_angle_alpha 90.000000
_cell_angle_beta 162.252639
_cell_angle_gamma 90.000000
_cell_volume 2847.860320
_symmetry_space_group_name_H-M "C 2/C"
_symmetry_group_IT_number 15
_symmetry_cell_setting 'monoclinic'
loop_
_space_group_symop_operation_xyz
x,y,z
-x,y,1/2-z
-x,-y,-z
x,-y,1/2+z
1/2+x,1/2+y,z
1/2-x,1/2+y,1/2-z
1/2-x,1/2-y,-z
1/2+x,1/2-y,1/2+z
loop_
_atom_site_type_symbol
_atom_site_label
_atom_site_fract_x
_atom_site_fract_y
_atom_site_fract_z
Si Si1 0.043652 0.862368 0.127063
Si Si2 0.751294 0.063461 0.195013
Si Si3 0.310456 0.671129 0.312120
Si Si4 0.146659 0.335188 0.903284
Si Si5 0.105708 0.112370 0.572682
Si Si6 0.170744 0.510064 0.553739
Si Si7 0.500000 0.675467 0.750000
Si Si8 0.536053 0.011924 0.663967
O O1 0.144338 0.960871 0.216372
O O2 0.162429 0.763734 0.222977
O O3 0.064995 0.852475 0.092123
O O4 0.815643 0.865611 0.984038
O O5 0.766592 0.055314 0.155298
O O6 0.840258 0.155973 0.282584
O O7 0.520826 0.061312 0.052665
O O8 0.504030 0.677887 0.468659
O O9 0.193349 0.567256 0.248123
O O10 0.983651 0.260479 0.775696
O O11 0.082307 0.437200 0.884450
O O12 0.250000 0.250000 0.000000
O O13 0.337027 0.094345 0.725975
O O14 0.000000 0.000000 0.500000
O O15 0.315730 0.598824 0.632321
O O16 0.090217 0.449980 0.459373
#
# Coordination Sequence:
#
# PCOD9270949 Si02
#       8
#     8   8   8   8   8   8   4   8
#     4  12  22  37  63  93 125 167 197 261 312 366
#     4  10  21  38  57  84 123 164 214 245 297 374
#     4  10  21  36  60  87 122 157 213 254 299 367
#     4  12  23  34  54  93 136 155 197 239 328 392
#     4  10  21  40  59  80 125 168 215 244 292 373
#     4  10  20  36  56  76 122 163 197 242 293 361
#     4  12  24  34  56  96 128 164 188 252 318 398
#     4  10  20  41  52  81 128 167 196 249 298 376
#
# _framework density 21.068449000000001
#
# number of rings (size 3 to 8) (size 9 to 14) (size 15 to 20)
#    0.000    1.333    6.667    1.600    3.733    3.200 
#    0.000    0.000    0.000    0.000    0.000    5.600 
#    0.000    0.000    0.000    0.000    0.000    0.000 
#
# Total GULP energy -167115.559724 kJ/mol
# GULP energy per Si atom -5570.518657 kJ/mol
# Density = 2.102050 g / cm^3
# Si number density = 21.068449 Si / 1000 Ang^3
#
#
#
# Elastic Constant Matrix: (Units=GPa)
#
#
# Indices 1 2 3 4 5 6 
#
# 1 87.6518 21.8136 60.3403 0.0070 -22.6871 -0.0133
# 2 21.8136 18.1737 25.6153 0.0051 -0.9602 -0.0063
# 3 60.3403 25.6153 115.1948 -0.0384 -24.7356 0.0094
# 4 0.0070 0.0051 -0.0384 26.9892 -0.0233 0.4579
# 5 -22.6871 -0.9602 -24.7356 -0.0233 35.4923 0.0002
# 6 -0.0133 -0.0063 0.0094 0.4579 0.0002 20.2632
#
#
#
# Elastic Compliance Matrix: (Units=1/GPa)
#
#
# Indices 1 2 3 4 5 6 
#
# 1 0.022389 -0.018716 -0.005411 -0.000001 0.010033 0.000011
# 2 -0.018716 0.100428 -0.017068 -0.000057 -0.021141 0.000028
# 3 -0.005411 -0.017068 0.017015 0.000036 0.007938 -0.000018
# 4 -0.000001 -0.000057 0.000036 0.037066 0.000047 -0.000838
# 5 0.010033 -0.021141 0.007938 0.000047 0.039549 -0.000005
# 6 0.000011 0.000028 -0.000018 -0.000838 -0.000005 0.049369
#
#
# Mechanical properties :
#
#
# Convention : Reuss Voigt Hill
#
# Bulk Modulus (GPa) = 17.40869 48.50654 32.95761
# Shear Modulus (GPa) = 13.61086 24.09902 18.85494
#
# Velocity S-wave (km/s) = 2.54447 3.38575 2.99480
# Velocity P-wave (km/s) = 4.11258 6.19336 5.25695
#
# Compressibility (1/GPa) = 0.05744258
#
# Stress axis : x y z
#
# Youngs Moduli (GPa) = 44.66561 9.95734 58.77090
#
# Poissons Ratio (x) = 0.18636 0.31802
# Poissons Ratio (y) = 0.83594 1.00310
# Poissons Ratio (z) = 0.24170 0.16995
#
# Static dielectric constant tensor:
#      x y z
#    x 1.575070 0.000500 0.131750 
#    y 0.000500 1.823400 -0.000140 
#    z 0.131750 -0.000140 1.887890 
# 
# From -- ./inp_files/317972.got.cif
#   From: 2010.05.17/outbox.cif.g08.bks.cpg/sg15_159_cif.got.tgz:317972.got - 2010.06.03 18:47:42.
