data_PCOD9270659
_publ_section_title
;
Structure prediction by ZEFSAII (Michael W. Deem and Ramdas Pophale) SiO2 
 PCOD9270659
Probable space group: C 2/C
;
_chemical_formula_sum "Si O2"
_cell_formula_units_Z 52
_cell_length_a 13.748011
_cell_length_b 20.494245
_cell_length_c 18.335200
_cell_angle_alpha 90.000000
_cell_angle_beta 151.691520
_cell_angle_gamma 90.000000
_cell_volume 2449.830037
_symmetry_space_group_name_H-M "C 2/C"
_symmetry_group_IT_number 15
_symmetry_cell_setting 'monoclinic'
loop_
_space_group_symop_operation_xyz
x,y,z
-x,y,1/2-z
-x,-y,-z
x,-y,1/2+z
1/2+x,1/2+y,z
1/2-x,1/2+y,1/2-z
1/2-x,1/2-y,-z
1/2+x,1/2-y,1/2+z
loop_
_atom_site_type_symbol
_atom_site_label
_atom_site_fract_x
_atom_site_fract_y
_atom_site_fract_z
Si Si1 0.463893 0.774795 0.608342
Si Si2 0.500000 0.036704 0.750000
Si Si3 0.116611 0.356128 0.437503
Si Si4 0.982999 0.220408 0.340644
Si Si5 0.696979 0.542995 0.150503
Si Si6 0.107006 0.621568 0.095407
Si Si7 0.402581 0.309882 0.945817
O O1 0.250000 0.750000 0.500000
O O2 0.451991 0.840317 0.548876
O O3 0.520669 0.715331 0.592990
O O4 0.664405 0.785310 0.789999
O O5 0.372955 0.085646 0.613809
O O6 0.627798 0.990217 0.781618
O O7 0.969376 0.296910 0.314368
O O8 0.332802 0.316752 0.578736
O O9 0.048314 0.385228 0.471433
O O10 0.786865 0.174850 0.206354
O O11 0.014995 0.218103 0.449164
O O12 0.792798 0.560077 0.294570
O O13 0.624381 0.613805 0.076598
O O14 0.500000 0.500000 0.000000
#
# Coordination Sequence:
#
# PCOD9270659 Si02
#       7
#     8   4   8   8   8   8   8
#     4  10  20  35  61  93 120 160 207 269 329 376
#     4  12  26  38  66  92 124 178 220 256 322 396
#     4  11  22  36  62  95 128 161 210 268 327 386
#     4   9  20  35  60  94 126 154 202 262 339 380
#     4  10  24  43  61  86 126 178 219 254 312 397
#     4  10  22  40  63  90 130 168 207 272 326 382
#     4  10  21  38  64  89 131 159 213 267 328 384
#
# _framework density 21.225963
#
# number of rings (size 3 to 8) (size 9 to 14) (size 15 to 20)
#    0.000    2.154    1.538    2.769    8.615    3.077 
#    0.000    0.000    0.000    0.000    0.000    0.000 
#    0.000    0.000    0.000    0.000    0.000    0.000 
#
# Total GULP energy -144774.451349 kJ/mol
# GULP energy per Si atom -5568.248129 kJ/mol
# Density = 2.117765 g / cm^3
# Si number density = 21.225963 Si / 1000 Ang^3
#
#
#
# Elastic Constant Matrix: (Units=GPa)
#
#
# Indices 1 2 3 4 5 6 
#
# 1 121.1348 36.1599 30.9789 0.0039 -1.5100 0.0137
# 2 36.1599 93.9487 21.0494 -0.0093 -12.6884 0.0021
# 3 30.9789 21.0494 50.2839 -0.0108 0.2864 0.0059
# 4 0.0039 -0.0093 -0.0108 28.8195 0.0001 7.0629
# 5 -1.5100 -12.6884 0.2864 0.0001 41.0683 0.0101
# 6 0.0137 0.0021 0.0059 7.0629 0.0101 20.2728
#
#
#
# Elastic Compliance Matrix: (Units=1/GPa)
#
#
# Indices 1 2 3 4 5 6 
#
# 1 0.010455 -0.002920 -0.005216 -0.000003 -0.000482 -0.000004
# 2 -0.002920 0.013140 -0.003724 0.000004 0.003978 -0.000002
# 3 -0.005216 -0.003724 0.024668 0.000010 -0.001514 -0.000006
# 4 -0.000003 0.000004 0.000010 0.037938 0.000004 -0.013217
# 5 -0.000482 0.003978 -0.001514 0.000004 0.025572 -0.000014
# 6 -0.000004 -0.000002 -0.000006 -0.013217 -0.000014 0.053932
#
#
# Mechanical properties :
#
#
# Convention : Reuss Voigt Hill
#
# Bulk Modulus (GPa) = 40.74586 49.08265 44.91426
# Shear Modulus (GPa) = 25.30294 29.84406 27.57350
#
# Velocity S-wave (km/s) = 3.45639 3.75376 3.60814
# Velocity P-wave (km/s) = 5.93016 6.47778 6.21001
#
# Compressibility (1/GPa) = 0.02454237
#
# Stress axis : x y z
#
# Youngs Moduli (GPa) = 95.64866 76.10477 40.53848
#
# Poissons Ratio (x) = 0.22226 0.21144
# Poissons Ratio (y) = 0.27933 0.15096
# Poissons Ratio (z) = 0.49889 0.28341
#
# Static dielectric constant tensor:
#      x y z
#    x 1.908530 0.000000 -0.003280 
#    y 0.000000 1.738990 0.000000 
#    z -0.003280 0.000000 1.886210 
# 
# From -- ./inp_files/245390.got.cif
#   From: 2010.05.17/outbox.cif.g08.bks.cpg/sg15_123_cif.got.tgz:245390.got - 2010.06.03 18:47:42.
