data_PCOD9270341
_publ_section_title
;
Structure prediction by ZEFSAII (Michael W. Deem and Ramdas Pophale) SiO2 
 PCOD9270341
Probable space group: C 2/C
;
_chemical_formula_sum "Si O2"
_cell_formula_units_Z 32
_cell_length_a 17.821415
_cell_length_b 4.966354
_cell_length_c 13.961826
_cell_angle_alpha 90.000000
_cell_angle_beta 115.258179
_cell_angle_gamma 90.000000
_cell_volume 1117.583206
_symmetry_space_group_name_H-M "C 2/C"
_symmetry_group_IT_number 15
_symmetry_cell_setting 'monoclinic'
loop_
_space_group_symop_operation_xyz
x,y,z
-x,y,1/2-z
-x,-y,-z
x,-y,1/2+z
1/2+x,1/2+y,z
1/2-x,1/2+y,1/2-z
1/2-x,1/2-y,-z
1/2+x,1/2-y,1/2+z
loop_
_atom_site_type_symbol
_atom_site_label
_atom_site_fract_x
_atom_site_fract_y
_atom_site_fract_z
Si Si1 0.678042 0.609072 0.154619
Si Si2 0.388456 0.402130 0.191486
Si Si3 0.820385 0.594825 0.597333
Si Si4 0.428905 0.862328 0.901158
O O1 0.679718 0.508013 0.266193
O O2 0.762550 0.526485 0.150611
O O3 0.607903 0.408393 0.073106
O O4 0.641527 0.907067 0.135344
O O5 0.397908 0.699505 0.152752
O O6 0.445601 0.243227 0.300506
O O7 0.360297 0.195037 0.093942
O O8 0.750000 0.750000 0.500000
O O9 0.500000 0.000000 0.000000
#
# Coordination Sequence:
#
# PCOD9270341 Si02
#       4
#     8   8   8   8
#     4  10  20  35  58  82 113 143 192 237 286 335
#     4  10  20  36  56  81 114 146 192 235 286 337
#     4  12  22  35  55  86 121 148 180 235 297 355
#     4  10  20  35  61  83 107 143 199 244 275 324
#
# _framework density 28.633215
#
# number of rings (size 3 to 8) (size 9 to 14) (size 15 to 20)
#    1.500    0.000    2.500    4.500    0.000    0.000 
#    0.000    0.000    0.000    9.000    0.000    0.000 
#    0.000    0.000    0.000    0.000    0.000    0.000 
#
# Total GULP energy -89129.728544 kJ/mol
# GULP energy per Si atom -5570.608034 kJ/mol
# Density = 2.856804 g / cm^3
# Si number density = 28.633215 Si / 1000 Ang^3
#
#
#
# Elastic Constant Matrix: (Units=GPa)
#
#
# Indices 1 2 3 4 5 6 
#
# 1 59.1850 3.7393 25.9908 0.0000 -2.4361 0.0000
# 2 3.7393 164.1197 2.6084 0.0000 1.0190 0.0001
# 3 25.9908 2.6084 88.6064 0.0002 14.3951 -0.0001
# 4 0.0000 0.0000 0.0002 38.6214 0.0001 13.7890
# 5 -2.4361 1.0190 14.3951 0.0001 52.2470 0.0000
# 6 0.0000 0.0001 -0.0001 13.7890 0.0000 16.7144
#
#
#
# Elastic Compliance Matrix: (Units=1/GPa)
#
#
# Indices 1 2 3 4 5 6 
#
# 1 0.019757 -0.000368 -0.006213 0.000000 0.002640 0.000000
# 2 -0.000368 0.006103 -0.000052 0.000000 -0.000122 0.000000
# 3 -0.006213 -0.000052 0.013773 0.000000 -0.004084 0.000000
# 4 0.000000 0.000000 0.000000 0.036703 0.000000 -0.030279
# 5 0.002640 -0.000122 -0.004084 0.000000 0.020390 0.000000
# 6 0.000000 0.000000 0.000000 -0.030279 0.000000 0.084808
#
#
# Mechanical properties :
#
#
# Convention : Reuss Voigt Hill
#
# Bulk Modulus (GPa) = 37.92630 41.84311 39.88470
# Shear Modulus (GPa) = 24.55922 40.15472 32.35697
#
# Velocity S-wave (km/s) = 2.93186 3.74890 3.36527
# Velocity P-wave (km/s) = 4.97347 5.77791 5.39072
#
# Compressibility (1/GPa) = 0.02636693
#
# Stress axis : x y z
#
# Youngs Moduli (GPa) = 50.61597 163.85176 72.60398
#
# Poissons Ratio (x) = 0.06026 0.45111
# Poissons Ratio (y) = 0.01862 0.00377
# Poissons Ratio (z) = 0.31449 0.00852
#
# Static dielectric constant tensor:
#      x y z
#    x 2.788440 0.000000 -0.038520 
#    y 0.000000 2.370350 0.000000 
#    z -0.038520 0.000000 2.405860 
# 
# From -- ./inp_files/217350.got.cif
#   From: 2010.05.17/outbox.cif.g08.bks.cpg/sg15_109_cif.got.tgz:217350.got - 2010.06.03 18:47:42.
