data_PCOD9270013
_publ_section_title
;
Structure prediction by ZEFSAII (Michael W. Deem and Ramdas Pophale) SiO2 
 PCOD9270013
Probable space group: C 2/C
;
_chemical_formula_sum "Si O2"
_cell_formula_units_Z 56
_cell_length_a 25.090194
_cell_length_b 14.025391
_cell_length_c 9.423879
_cell_angle_alpha 90.000000
_cell_angle_beta 136.010435
_cell_angle_gamma 90.000000
_cell_volume 2303.233932
_symmetry_space_group_name_H-M "C 2/C"
_symmetry_group_IT_number 15
_symmetry_cell_setting 'monoclinic'
loop_
_space_group_symop_operation_xyz
x,y,z
-x,y,1/2-z
-x,-y,-z
x,-y,1/2+z
1/2+x,1/2+y,z
1/2-x,1/2+y,1/2-z
1/2-x,1/2-y,-z
1/2+x,1/2-y,1/2+z
loop_
_atom_site_type_symbol
_atom_site_label
_atom_site_fract_x
_atom_site_fract_y
_atom_site_fract_z
Si Si1 0.698329 0.886208 0.790467
Si Si2 0.896469 0.753505 0.262795
Si Si3 0.618781 0.439871 0.373929
Si Si4 0.855199 0.094746 0.276426
Si Si5 0.211079 0.472260 0.100605
Si Si6 0.667070 0.801339 0.172317
Si Si7 0.517505 0.903369 0.952527
O O1 0.670060 0.778501 0.754242
O O2 0.665540 0.946973 0.598628
O O3 0.789948 0.904357 0.955997
O O4 0.670562 0.931778 0.884738
O O5 0.917828 0.864009 0.304203
O O6 0.967251 0.683468 0.418483
O O7 0.867399 0.734608 0.044950
O O8 0.612637 0.546775 0.303871
O O9 0.591852 0.421930 0.483143
O O10 0.823720 0.203420 0.221857
O O11 0.785021 0.024542 0.181438
O O12 0.227661 0.382467 0.237118
O O13 0.604255 0.866090 0.128969
O O14 0.500000 0.912919 0.750000
O O15 0.500000 0.000000 0.000000
#
# Coordination Sequence:
#
# PCOD9270013 Si02
#       7
#     8   8   8   8   8   8   8
#     4   9  16  28  46  70  96 123 158 201 239 284
#     4   9  17  30  51  71  92 128 166 196 236 290
#     4   9  17  31  48  70  96 126 162 199 240 288
#     4   9  18  32  49  70  98 128 160 199 240 288
#     4   9  17  29  46  68  94 126 157 191 240 288
#     4   9  18  33  50  70 100 131 158 196 245 290
#     4  10  20  35  54  75  98 128 164 200 239 286
#
# _framework density 24.313638999999998
#
# number of rings (size 3 to 8) (size 9 to 14) (size 15 to 20)
#    0.000    2.857    0.000    1.286    0.000    3.429 
#    0.000   10.000    0.000    0.000    0.000    0.000 
#    0.000    0.000    0.000    0.000    0.000    0.000 
#
# Total GULP energy -156074.357136 kJ/mol
# GULP energy per Si atom -5574.084183 kJ/mol
# Density = 2.425830 g / cm^3
# Si number density = 24.313639 Si / 1000 Ang^3
#
#
#
# Elastic Constant Matrix: (Units=GPa)
#
#
# Indices 1 2 3 4 5 6 
#
# 1 51.5168 20.8933 8.0576 0.0000 -5.8315 0.0000
# 2 20.8933 128.4548 15.0621 0.0000 3.9539 0.0000
# 3 8.0576 15.0621 17.2827 0.0000 0.4482 0.0000
# 4 0.0000 0.0000 0.0000 30.4573 0.0000 -8.4079
# 5 -5.8315 3.9539 0.4482 0.0000 22.7321 0.0000
# 6 0.0000 0.0000 0.0000 -8.4079 0.0000 43.9784
#
#
#
# Elastic Compliance Matrix: (Units=1/GPa)
#
#
# Indices 1 2 3 4 5 6 
#
# 1 0.022603 -0.002918 -0.008163 0.000000 0.006467 0.000000
# 2 -0.002918 0.009090 -0.006504 0.000000 -0.002201 0.000000
# 3 -0.008163 -0.006504 0.067395 0.000000 -0.002291 0.000000
# 4 0.000000 0.000000 0.000000 0.034662 0.000000 0.006627
# 5 0.006467 -0.002201 -0.002291 0.000000 0.046078 0.000000
# 6 0.000000 0.000000 0.000000 0.006627 0.000000 0.024005
#
#
# Mechanical properties :
#
#
# Convention : Reuss Voigt Hill
#
# Bulk Modulus (GPa) = 15.64505 31.69780 23.67143
# Shear Modulus (GPa) = 19.20786 29.64966 24.42876
#
# Velocity S-wave (km/s) = 2.81375 3.49587 3.17319
# Velocity P-wave (km/s) = 4.12370 5.41851 4.81483
#
# Compressibility (1/GPa) = 0.06391798
#
# Stress axis : x y z
#
# Youngs Moduli (GPa) = 44.24108 110.01158 14.83787
#
# Poissons Ratio (x) = 0.32106 0.12111
# Poissons Ratio (y) = 0.12911 0.09651
# Poissons Ratio (z) = 0.36112 0.71555
#
# Static dielectric constant tensor:
#      x y z
#    x 2.044520 0.000000 0.040090 
#    y 0.000000 2.097600 0.000000 
#    z 0.040090 0.000000 2.081820 
# 
# From -- ./inp_files/117169.got.cif
#   From: 2010.05.17/outbox.cif.g08.bks.cpg/sg15_59_cif.got.tgz:117169.got - 2010.06.03 18:47:42.
