data_PCOD9270759
_publ_section_title
;
Structure prediction by ZEFSAII (Michael W. Deem and Ramdas Pophale) SiO2 
 PCOD9270759
Probable space group: C 2/C
;
_chemical_formula_sum "Si O2"
_cell_formula_units_Z 52
_cell_length_a 15.687867
_cell_length_b 23.531302
_cell_length_c 8.722318
_cell_angle_alpha 90.000000
_cell_angle_beta 58.575406
_cell_angle_gamma 90.000000
_cell_volume 2747.623987
_symmetry_space_group_name_H-M "C 2/C"
_symmetry_group_IT_number 15
_symmetry_cell_setting 'monoclinic'
loop_
_space_group_symop_operation_xyz
x,y,z
-x,y,1/2-z
-x,-y,-z
x,-y,1/2+z
1/2+x,1/2+y,z
1/2-x,1/2+y,1/2-z
1/2-x,1/2-y,-z
1/2+x,1/2-y,1/2+z
loop_
_atom_site_type_symbol
_atom_site_label
_atom_site_fract_x
_atom_site_fract_y
_atom_site_fract_z
Si Si1 0.114101 0.559665 0.680519
Si Si2 0.266027 0.974720 0.719309
Si Si3 0.313254 0.158739 0.679019
Si Si4 0.000000 0.851016 0.250000
Si Si5 0.548987 0.731202 0.427490
Si Si6 0.695421 0.420598 0.086681
Si Si7 0.345700 0.715617 0.471203
O O1 0.155567 0.509193 0.748513
O O2 0.178092 0.560687 0.464339
O O3 0.128275 0.617279 0.761384
O O4 0.000000 0.549377 0.750000
O O5 0.206321 0.023546 0.682926
O O6 0.205457 0.938150 0.899490
O O7 0.380839 0.214973 0.597258
O O8 0.283117 0.123184 0.556428
O O9 0.207639 0.172885 0.861835
O O10 0.962956 0.810317 0.419916
O O11 0.908785 0.890419 0.286925
O O12 0.436619 0.747219 0.474787
O O13 0.601112 0.697800 0.236928
O O14 0.250000 0.750000 0.500000
#
# Coordination Sequence:
#
# PCOD9270759 Si02
#       7
#     8   8   8   4   8   8   8
#     4  10  20  35  64  89 118 154 201 250 317 373
#     4   9  21  42  62  87 124 152 201 269 309 365
#     4  10  21  39  58  89 122 163 203 245 309 372
#     4  12  24  40  62  90 128 162 212 256 308 364
#     4  10  22  39  58  89 124 164 205 253 295 365
#     4  10  22  42  62  92 120 164 205 256 320 362
#     4   9  19  38  60  79 121 161 205 247 291 353
#
# _framework density 18.925443000000001
#
# number of rings (size 3 to 8) (size 9 to 14) (size 15 to 20)
#    0.000    2.154    1.538    0.462    6.462    1.231 
#    2.769    0.000    0.000    0.000    0.000    0.000 
#    0.000    0.000    0.000    0.000    0.000    0.000 
#
# Total GULP energy -144886.092765 kJ/mol
# GULP energy per Si atom -5572.542029 kJ/mol
# Density = 1.888237 g / cm^3
# Si number density = 18.925443 Si / 1000 Ang^3
#
#
#
# Elastic Constant Matrix: (Units=GPa)
#
#
# Indices 1 2 3 4 5 6 
#
# 1 67.7312 15.9572 28.2563 0.0000 1.0008 0.0000
# 2 15.9572 57.7943 29.2698 0.0000 -0.6670 0.0000
# 3 28.2563 29.2698 77.3309 0.0000 9.7903 0.0000
# 4 0.0000 0.0000 0.0000 29.3109 0.0000 -5.4849
# 5 1.0008 -0.6670 9.7903 0.0000 22.9337 0.0000
# 6 0.0000 0.0000 0.0000 -5.4849 0.0000 8.2741
#
#
#
# Elastic Compliance Matrix: (Units=1/GPa)
#
#
# Indices 1 2 3 4 5 6 
#
# 1 0.017665 -0.001828 -0.005982 0.000000 0.001730 0.000000
# 2 -0.001828 0.022007 -0.008196 0.000000 0.004219 0.000000
# 3 -0.005982 -0.008196 0.019257 0.000000 -0.008198 0.000000
# 4 0.000000 0.000000 0.000000 0.038948 0.000000 0.025819
# 5 0.001730 0.004219 -0.008198 0.000000 0.047151 0.000000
# 6 0.000000 0.000000 0.000000 0.025819 0.000000 0.137975
#
#
# Mechanical properties :
#
#
# Convention : Reuss Voigt Hill
#
# Bulk Modulus (GPa) = 37.14988 38.86920 38.00954
# Shear Modulus (GPa) = 15.43275 20.72862 18.08068
#
# Velocity S-wave (km/s) = 2.85871 3.31309 3.09425
# Velocity P-wave (km/s) = 5.52888 5.93448 5.73527
#
# Compressibility (1/GPa) = 0.02691799
#
# Stress axis : x y z
#
# Youngs Moduli (GPa) = 56.60975 45.44035 51.92874
#
# Poissons Ratio (x) = 0.08306 0.31062
# Poissons Ratio (y) = 0.10348 0.42560
# Poissons Ratio (z) = 0.33862 0.37242
#
# Static dielectric constant tensor:
#      x y z
#    x 1.670500 0.000000 0.009070 
#    y 0.000000 1.657780 0.000000 
#    z 0.009070 0.000000 1.670670 
# 
# From -- ./inp_files/42066.got.cif
#   From: 2010.05.17/outbox.cif.g08.bks.cpg/sg15_22_cif.got.tgz:42066.got - 2010.06.03 18:47:42.
