data_PCOD9270849
_publ_section_title
;
Structure prediction by ZEFSAII (Michael W. Deem and Ramdas Pophale) SiO2 
 PCOD9270849
Probable space group: C 2/C
;
_chemical_formula_sum "Si O2"
_cell_formula_units_Z 52
_cell_length_a 20.018090
_cell_length_b 16.843311
_cell_length_c 18.225507
_cell_angle_alpha 90.000000
_cell_angle_beta 152.692031
_cell_angle_gamma 90.000000
_cell_volume 2819.211837
_symmetry_space_group_name_H-M "C 2/C"
_symmetry_group_IT_number 15
_symmetry_cell_setting 'monoclinic'
loop_
_space_group_symop_operation_xyz
x,y,z
-x,y,1/2-z
-x,-y,-z
x,-y,1/2+z
1/2+x,1/2+y,z
1/2-x,1/2+y,1/2-z
1/2-x,1/2-y,-z
1/2+x,1/2-y,1/2+z
loop_
_atom_site_type_symbol
_atom_site_label
_atom_site_fract_x
_atom_site_fract_y
_atom_site_fract_z
Si Si1 0.864645 0.897176 0.386139
Si Si2 0.961492 0.348102 0.797723
Si Si3 0.755648 0.718911 0.847099
Si Si4 0.324026 0.337792 0.784700
Si Si5 0.136999 0.461243 0.673095
Si Si6 0.000000 0.722874 0.750000
Si Si7 0.749922 0.212831 0.902546
O O1 0.835411 0.851483 0.280978
O O2 0.671522 0.729203 0.147486
O O3 0.801833 0.840024 0.387225
O O4 0.771518 0.977151 0.303189
O O5 0.844404 0.277586 0.701445
O O6 0.902614 0.424394 0.786051
O O7 0.000000 0.361295 0.750000
O O8 0.112883 0.320005 0.980964
O O9 0.963653 0.894442 0.929492
O O10 0.181935 0.387177 0.666179
O O11 0.305777 0.295063 0.688797
O O12 0.000000 0.500000 0.500000
O O13 0.884245 0.772281 0.588427
O O14 0.890635 0.675708 0.695404
#
# Coordination Sequence:
#
# PCOD9270849 Si02
#       7
#     8   8   8   8   8   4   8
#     4  11  20  38  60  85 119 154 201 246 293 351
#     4  11  22  40  60  91 121 153 195 247 308 359
#     4  10  20  36  65  89 111 150 198 254 295 344
#     4  10  21  37  62  88 112 150 205 248 292 345
#     4  11  24  38  61  86 120 159 198 242 299 360
#     4  10  20  36  52  88 120 146 192 246 298 342
#     4  10  21  35  61  86 115 154 200 249 290 348
#
# _framework density 18.444872
#
# number of rings (size 3 to 8) (size 9 to 14) (size 15 to 20)
#    0.000    1.538    4.615    0.923    2.154    0.000 
#    1.385    0.000    0.000    0.000    0.000    0.000 
#    0.000    0.000    0.000    0.000    0.000    0.000 
#
# Total GULP energy -144890.097265 kJ/mol
# GULP energy per Si atom -5572.696049 kJ/mol
# Density = 1.840289 g / cm^3
# Si number density = 18.444872 Si / 1000 Ang^3
#
#
#
# Elastic Constant Matrix: (Units=GPa)
#
#
# Indices 1 2 3 4 5 6 
#
# 1 113.6378 32.6380 42.5073 -0.0013 5.8532 -0.0011
# 2 32.6380 69.5452 40.8954 -0.0013 -5.6129 -0.0013
# 3 42.5073 40.8954 104.6521 -0.0014 5.2718 -0.0014
# 4 -0.0013 -0.0013 -0.0014 24.7986 -0.0009 10.7053
# 5 5.8532 -5.6129 5.2718 -0.0009 25.5255 -0.0008
# 6 -0.0011 -0.0013 -0.0014 10.7053 -0.0008 12.9066
#
#
#
# Elastic Compliance Matrix: (Units=1/GPa)
#
#
# Indices 1 2 3 4 5 6 
#
# 1 0.011101 -0.003717 -0.002917 0.000000 -0.002760 0.000000
# 2 -0.003717 0.020763 -0.006949 0.000000 0.006853 0.000001
# 3 -0.002917 -0.006949 0.013641 0.000000 -0.003676 0.000000
# 4 0.000000 0.000000 0.000000 0.062817 0.000001 -0.052104
# 5 -0.002760 0.006853 -0.003676 0.000001 0.042076 0.000002
# 6 0.000000 0.000001 0.000000 -0.052104 0.000002 0.120697
#
#
# Mechanical properties :
#
#
# Convention : Reuss Voigt Hill
#
# Bulk Modulus (GPa) = 54.53119 57.76849 56.14984
# Shear Modulus (GPa) = 16.42709 24.09909 20.26309
#
# Velocity S-wave (km/s) = 2.98754 3.61854 3.31807
# Velocity P-wave (km/s) = 6.44431 6.98899 6.72217
#
# Compressibility (1/GPa) = 0.01833813
#
# Stress axis : x y z
#
# Youngs Moduli (GPa) = 90.08284 48.16256 73.30739
#
# Poissons Ratio (x) = 0.17902 0.21387
# Poissons Ratio (y) = 0.33483 0.50942
# Poissons Ratio (z) = 0.26281 0.33469
#
# Static dielectric constant tensor:
#      x y z
#    x 1.660980 0.000000 0.002840 
#    y 0.000000 1.648530 0.000000 
#    z 0.002840 0.000000 1.630960 
# 
# From -- ./inp_files/215607.got.cif
#   From: 2010.05.17/outbox.cif.g08.bks.cpg/sg15_108_cif.got.tgz:215607.got - 2010.06.03 18:47:42.
