data_PCOD9270105
_publ_section_title
;
Structure prediction by ZEFSAII (Michael W. Deem and Ramdas Pophale) SiO2 
 PCOD9270105
Probable space group: C 2/C
;
_chemical_formula_sum "Si O2"
_cell_formula_units_Z 44
_cell_length_a 17.257970
_cell_length_b 20.958914
_cell_length_c 5.442452
_cell_angle_alpha 90.000000
_cell_angle_beta 112.709641
_cell_angle_gamma 90.000000
_cell_volume 1815.962277
_symmetry_space_group_name_H-M "C 2/C"
_symmetry_group_IT_number 15
_symmetry_cell_setting 'monoclinic'
loop_
_space_group_symop_operation_xyz
x,y,z
-x,y,1/2-z
-x,-y,-z
x,-y,1/2+z
1/2+x,1/2+y,z
1/2-x,1/2+y,1/2-z
1/2-x,1/2-y,-z
1/2+x,1/2-y,1/2+z
loop_
_atom_site_type_symbol
_atom_site_label
_atom_site_fract_x
_atom_site_fract_y
_atom_site_fract_z
Si Si1 0.095514 0.316996 0.081004
Si Si2 0.806676 0.060872 0.804908
Si Si3 0.130172 0.922295 0.617234
Si Si4 0.000000 0.149706 0.250000
Si Si5 0.386693 0.034050 0.984448
Si Si6 0.905464 0.265763 0.921343
O O1 0.093837 0.391700 0.024201
O O2 0.135988 0.300585 0.395141
O O3 0.133447 0.278755 0.894140
O O4 0.998923 0.295636 0.997375
O O5 0.834762 0.100102 0.601122
O O6 0.714936 0.033420 0.640294
O O7 0.867757 0.999269 0.902695
O O8 0.810402 0.092843 0.075673
O O9 0.042433 0.892816 0.592091
O O10 0.070105 0.195176 0.458475
O O11 0.414625 0.994100 0.779949
#
# Coordination Sequence:
#
# PCOD9270105 Si02
#       6
#     8   8   8   4   8   8
#     4   9  19  35  59  78 112 150 181 231 287 314
#     4  10  20  36  51  81 126 141 178 231 278 324
#     4  10  20  35  55  84 113 150 178 232 271 343
#     4  10  22  36  66  82 106 156 194 218 292 330
#     4  12  20  35  60  86 108 160 183 216 282 355
#     4   9  20  40  53  79 115 143 187 248 267 314
#
# _framework density 24.229576000000002
#
# number of rings (size 3 to 8) (size 9 to 14) (size 15 to 20)
#    0.000    2.182    3.636    1.091    0.000    9.455 
#    0.000   10.909    0.000   15.273    0.000    0.000 
#    0.000    0.000    0.000    0.000    0.000    0.000 
#
# Total GULP energy -122812.358140 kJ/mol
# GULP energy per Si atom -5582.379915 kJ/mol
# Density = 2.417443 g / cm^3
# Si number density = 24.229576 Si / 1000 Ang^3
#
#
#
# Elastic Constant Matrix: (Units=GPa)
#
#
# Indices 1 2 3 4 5 6 
#
# 1 42.0976 38.3663 31.9465 0.0000 -17.5601 0.0000
# 2 38.3663 89.4183 20.1162 0.0000 -1.9608 0.0000
# 3 31.9465 20.1162 217.3504 0.0000 -44.6452 0.0000
# 4 0.0000 0.0000 0.0000 18.2835 0.0000 -1.3737
# 5 -17.5601 -1.9608 -44.6452 0.0000 27.9976 0.0000
# 6 0.0000 0.0000 0.0000 -1.3737 0.0000 18.7857
#
#
#
# Elastic Compliance Matrix: (Units=1/GPa)
#
#
# Indices 1 2 3 4 5 6 
#
# 1 0.064231 -0.026984 0.001403 0.000000 0.040633 0.000000
# 2 -0.026984 0.022790 -0.001921 0.000000 -0.018391 0.000000
# 3 0.001403 -0.001921 0.007027 0.000000 0.011951 0.000000
# 4 0.000000 0.000000 0.000000 0.054996 0.000000 0.004021
# 5 0.040633 -0.018391 0.011951 0.000000 0.078972 0.000000
# 6 0.000000 0.000000 0.000000 0.004021 0.000000 0.053526
#
#
# Mechanical properties :
#
#
# Convention : Reuss Voigt Hill
#
# Bulk Modulus (GPa) = 25.61143 58.85825 42.23484
# Shear Modulus (GPa) = 14.30362 30.24252 22.27307
#
# Velocity S-wave (km/s) = 2.43232 3.53677 3.03521
# Velocity P-wave (km/s) = 4.29901 6.40492 5.45456
#
# Compressibility (1/GPa) = 0.03904506
#
# Stress axis : x y z
#
# Youngs Moduli (GPa) = 15.56871 43.87868 142.30262
#
# Poissons Ratio (x) = 1.18402 -0.19965
# Poissons Ratio (y) = 0.42011 0.27334
# Poissons Ratio (z) = -0.02184 0.08428
#
# Static dielectric constant tensor:
#      x y z
#    x 1.917620 0.000000 -0.021620 
#    y 0.000000 1.920310 0.000000 
#    z -0.021620 0.000000 2.046550 
# 
# From -- ./inp_files/12951.got.cif
#   From: 2010.05.17/outbox.cif.g08.bks.cpg/sg15_7_cif.got.tgz:12951.got - 2010.06.03 18:47:42.
