data_PCOD9270210
_publ_section_title
;
Structure prediction by ZEFSAII (Michael W. Deem and Ramdas Pophale) SiO2 
 PCOD9270210
Probable space group: C 2/C
;
_chemical_formula_sum "Si O2"
_cell_formula_units_Z 56
_cell_length_a 11.160125
_cell_length_b 19.753825
_cell_length_c 17.885293
_cell_angle_alpha 90.000000
_cell_angle_beta 127.242617
_cell_angle_gamma 90.000000
_cell_volume 3138.867833
_symmetry_space_group_name_H-M "C 2/C"
_symmetry_group_IT_number 15
_symmetry_cell_setting 'monoclinic'
loop_
_space_group_symop_operation_xyz
x,y,z
-x,y,1/2-z
-x,-y,-z
x,-y,1/2+z
1/2+x,1/2+y,z
1/2-x,1/2+y,1/2-z
1/2-x,1/2-y,-z
1/2+x,1/2-y,1/2+z
loop_
_atom_site_type_symbol
_atom_site_label
_atom_site_fract_x
_atom_site_fract_y
_atom_site_fract_z
Si Si1 0.388239 0.240849 0.639277
Si Si2 0.351512 0.135768 0.244170
Si Si3 0.921387 0.305975 0.932559
Si Si4 0.547760 0.689604 0.061237
Si Si5 0.522627 0.061850 0.951526
Si Si6 0.772896 0.096732 0.935189
Si Si7 0.349443 0.979902 0.244213
O O1 0.500000 0.248002 0.750000
O O2 0.241710 0.286852 0.595153
O O3 0.476893 0.264903 0.600460
O O4 0.328387 0.164474 0.612648
O O5 0.500000 0.135415 0.250000
O O6 0.390670 0.173236 0.335940
O O7 0.214495 0.169316 0.147341
O O8 0.309834 0.057603 0.245794
O O9 0.983518 0.369450 0.002899
O O10 0.024355 0.239108 0.981523
O O11 0.439516 0.624112 0.014495
O O12 0.683916 0.058361 0.968336
O O13 0.396926 0.057196 0.838609
O O14 0.500000 0.000000 0.000000
O O15 0.767665 0.056352 0.855146
O O16 0.500000 0.980130 0.250000
#
# Coordination Sequence:
#
# PCOD9270210 Si02
#       7
#     8   8   8   8   8   8   8
#     4  11  18  33  59  91 121 138 179 241 302 335
#     4  11  24  41  55  79 112 157 202 230 281 351
#     4  11  21  35  58  88 112 147 190 238 290 341
#     4  11  22  36  61  86 115 148 182 247 297 334
#     4  11  18  31  57  86 116 154 182 224 281 345
#     4  10  20  35  56  91 118 141 186 237 292 342
#     4   9  20  34  54  80 114 150 184 228 271 341
#
# _framework density 17.840827999999998
#
# number of rings (size 3 to 8) (size 9 to 14) (size 15 to 20)
#    0.000    1.429    5.714    2.143    0.000    1.143 
#    0.000    0.000    0.000    0.000    0.000    0.000 
#    0.000    0.000    0.000    0.000    0.000    0.000 
#
# Total GULP energy -156217.984819 kJ/mol
# GULP energy per Si atom -5579.213744 kJ/mol
# Density = 1.780022 g / cm^3
# Si number density = 17.840828 Si / 1000 Ang^3
#
#
#
# Elastic Constant Matrix: (Units=GPa)
#
#
# Indices 1 2 3 4 5 6 
#
# 1 43.4229 40.5466 41.1428 0.0000 8.2354 0.0000
# 2 40.5466 89.1405 53.1679 0.0000 3.8598 0.0000
# 3 41.1428 53.1679 140.8531 0.0000 9.1137 0.0000
# 4 0.0000 0.0000 0.0000 30.6300 0.0000 -16.9583
# 5 8.2354 3.8598 9.1137 0.0000 19.4745 0.0000
# 6 0.0000 0.0000 0.0000 -16.9583 0.0000 14.3398
#
#
#
# Elastic Compliance Matrix: (Units=1/GPa)
#
#
# Indices 1 2 3 4 5 6 
#
# 1 0.048104 -0.017339 -0.006613 0.000000 -0.013811 0.000000
# 2 -0.017339 0.020729 -0.003061 0.000000 0.004656 0.000000
# 3 -0.006613 -0.003061 0.010278 0.000000 -0.001407 0.000000
# 4 0.000000 0.000000 0.000000 0.094561 0.000000 0.111828
# 5 -0.013811 0.004656 -0.001407 0.000000 0.056925 0.000000
# 6 0.000000 0.000000 0.000000 0.111828 0.000000 0.201984
#
#
# Mechanical properties :
#
#
# Convention : Reuss Voigt Hill
#
# Bulk Modulus (GPa) = 39.86298 60.34790 50.10544
# Shear Modulus (GPa) = 10.10163 22.12614 16.11389
#
# Velocity S-wave (km/s) = 2.38210 3.52546 3.00859
# Velocity P-wave (km/s) = 5.47339 7.10430 6.34149
#
# Compressibility (1/GPa) = 0.02508593
#
# Stress axis : x y z
#
# Youngs Moduli (GPa) = 20.78815 48.24095 97.29755
#
# Poissons Ratio (x) = 0.83643 0.64340
# Poissons Ratio (y) = 0.36044 0.29787
# Poissons Ratio (z) = 0.13747 0.14769
#
# Static dielectric constant tensor:
#      x y z
#    x 1.592450 0.000000 -0.017920 
#    y 0.000000 1.637430 0.000000 
#    z -0.017920 0.000000 1.644390 
# 
# From -- ./inp_files/136464.got.cif
#   From: 2010.05.17/outbox.cif.g08.bks.cpg/sg15_69_cif.got.tgz:136464.got - 2010.06.03 18:47:42.
