data_PCOD9270540
_publ_section_title
;
Structure prediction by ZEFSAII (Michael W. Deem and Ramdas Pophale) SiO2 
 PCOD9270540
Probable space group: C 2/C
;
_chemical_formula_sum "Si O2"
_cell_formula_units_Z 40
_cell_length_a 9.016595
_cell_length_b 19.767264
_cell_length_c 15.838811
_cell_angle_alpha 90.000000
_cell_angle_beta 46.865702
_cell_angle_gamma 90.000000
_cell_volume 2060.096991
_symmetry_space_group_name_H-M "C 2/C"
_symmetry_group_IT_number 15
_symmetry_cell_setting 'monoclinic'
loop_
_space_group_symop_operation_xyz
x,y,z
-x,y,1/2-z
-x,-y,-z
x,-y,1/2+z
1/2+x,1/2+y,z
1/2-x,1/2+y,1/2-z
1/2-x,1/2-y,-z
1/2+x,1/2-y,1/2+z
loop_
_atom_site_type_symbol
_atom_site_label
_atom_site_fract_x
_atom_site_fract_y
_atom_site_fract_z
Si Si1 0.087899 0.446665 0.120278
Si Si2 0.297151 0.380526 0.286314
Si Si3 0.097799 0.290664 0.497794
Si Si4 0.091425 0.156459 0.949292
Si Si5 0.357235 0.098827 0.387628
O O1 0.251022 0.385785 0.055059
O O2 0.172517 0.521286 0.071952
O O3 0.000000 0.447533 0.250000
O O4 0.893095 0.430635 0.139535
O O5 0.500000 0.408673 0.250000
O O6 0.225070 0.316135 0.368310
O O7 0.348027 0.359576 0.171156
O O8 0.250000 0.250000 0.500000
O O9 0.046257 0.355908 0.574967
O O10 0.924910 0.237722 0.537453
O O11 0.864182 0.127860 0.049770
O O12 0.500000 0.101224 0.250000
#
# Coordination Sequence:
#
# PCOD9270540 Si02
#       5
#     8   8   8   8   8
#     4   9  21  38  58  85 114 152 190 233 285 342
#     4  11  20  38  60  83 112 150 191 232 282 347
#     4  10  21  32  58  86 110 148 189 233 282 332
#     4  10  21  37  61  84 114 151 190 235 285 338
#     4  10  20  35  60  85 116 151 193 228 282 349
#
# _framework density 19.416561000000002
#
# number of rings (size 3 to 8) (size 9 to 14) (size 15 to 20)
#    0.000    2.000    4.000    0.600    5.600    1.600 
#    0.000    0.000    0.000    0.000    0.000    0.000 
#    0.000    0.000    0.000    0.000    0.000    0.000 
#
# Total GULP energy -111498.215418 kJ/mol
# GULP energy per Si atom -5574.910771 kJ/mol
# Density = 1.937237 g / cm^3
# Si number density = 19.416561 Si / 1000 Ang^3
#
#
#
# Elastic Constant Matrix: (Units=GPa)
#
#
# Indices 1 2 3 4 5 6 
#
# 1 89.4739 52.3190 15.1600 0.0000 -16.6009 0.0001
# 2 52.3190 102.4931 9.4665 0.0000 -13.5265 0.0000
# 3 15.1600 9.4665 75.5972 0.0000 -2.7327 0.0001
# 4 0.0000 0.0000 0.0000 23.0286 0.0000 14.5401
# 5 -16.6009 -13.5265 -2.7327 0.0000 21.4041 -0.0001
# 6 0.0001 0.0000 0.0001 14.5401 -0.0001 -46.3862
#
#
#
# Elastic Compliance Matrix: (Units=1/GPa)
#
#
# Indices 1 2 3 4 5 6 
#
# 1 0.017624 -0.007660 -0.002266 0.000000 0.008539 0.000000
# 2 -0.007660 0.014065 -0.000119 0.000000 0.002932 0.000000
# 3 -0.002266 -0.000119 0.013694 0.000000 -0.000085 0.000000
# 4 0.000000 0.000000 0.000000 0.036250 0.000000 0.011363
# 5 0.008539 0.002932 -0.000085 0.000000 0.055185 0.000000
# 6 0.000000 0.000000 0.000000 0.011363 0.000000 -0.017996
#
#
# Mechanical properties :
#
#
# Convention : Reuss Voigt Hill
#
# Bulk Modulus (GPa) = 39.53825 46.82834 43.18330
# Shear Modulus (GPa) = 33.93435 12.31721 23.12578
#
# Velocity S-wave (km/s) = 4.18509 2.52140 3.45488
# Velocity P-wave (km/s) = 6.61518 5.71373 6.18091
#
# Compressibility (1/GPa) = 0.02529196
#
# Stress axis : x y z
#
# Youngs Moduli (GPa) = 56.74112 71.09877 73.02288
#
# Poissons Ratio (x) = 0.54463 0.16550
# Poissons Ratio (y) = 0.43464 0.00870
# Poissons Ratio (z) = 0.12860 0.00847
#
# Static dielectric constant tensor:
#      x y z
#    x 1.699050 0.000000 0.000400 
#    y 0.000000 1.729680 0.000000 
#    z 0.000400 0.000000 1.665860 
# 
# From -- ./inp_files/76818.got.cif
#   From: 2010.05.17/outbox.cif.g08.bks.cpg/sg15_39_cif.got.tgz:76818.got - 2010.06.03 18:47:42.
