data_PCOD9270043
_publ_section_title
;
Structure prediction by ZEFSAII (Michael W. Deem and Ramdas Pophale) SiO2 
 PCOD9270043
Probable space group: C 2/C
;
_chemical_formula_sum "Si O2"
_cell_formula_units_Z 64
_cell_length_a 21.577444
_cell_length_b 12.758034
_cell_length_c 14.226768
_cell_angle_alpha 90.000000
_cell_angle_beta 104.617029
_cell_angle_gamma 90.000000
_cell_volume 3789.668455
_symmetry_space_group_name_H-M "C 2/C"
_symmetry_group_IT_number 15
_symmetry_cell_setting 'monoclinic'
loop_
_space_group_symop_operation_xyz
x,y,z
-x,y,1/2-z
-x,-y,-z
x,-y,1/2+z
1/2+x,1/2+y,z
1/2-x,1/2+y,1/2-z
1/2-x,1/2-y,-z
1/2+x,1/2-y,1/2+z
loop_
_atom_site_type_symbol
_atom_site_label
_atom_site_fract_x
_atom_site_fract_y
_atom_site_fract_z
Si Si1 0.227339 0.511842 0.368206
Si Si2 0.236594 0.474477 0.094220
Si Si3 0.387007 0.539419 0.697064
Si Si4 0.451773 0.259716 0.311722
Si Si5 0.639416 0.610735 0.153475
Si Si6 0.539758 0.415185 0.457944
Si Si7 0.329152 0.848984 0.804632
Si Si8 0.283862 0.809494 0.257560
O O1 0.225370 0.522423 0.478992
O O2 0.298209 0.544087 0.356876
O O3 0.181128 0.594531 0.299535
O O4 0.209394 0.397546 0.320399
O O5 0.312793 0.476682 0.142450
O O6 0.200454 0.571406 0.130293
O O7 0.214958 0.371202 0.142829
O O8 0.406395 0.653959 0.742884
O O9 0.398924 0.458071 0.785399
O O10 0.428804 0.528007 0.619913
O O11 0.500000 0.216957 0.250000
O O12 0.494426 0.323633 0.401952
O O13 0.403232 0.179799 0.341848
O O14 0.665440 0.715572 0.213275
O O15 0.595595 0.629220 0.046199
O O16 0.500000 0.500000 0.500000
O O17 0.284030 0.746898 0.786459
#
# Coordination Sequence:
#
# PCOD9270043 Si02
#       8
#     8   8   8   8   8   8   8   8
#     4  10  21  35  56  85 115 146 185 243 288 334
#     4  11  20  34  58  86 116 147 182 243 289 337
#     4  11  19  35  54  85 115 143 183 230 287 329
#     4  10  21  36  57  81 117 153 191 228 275 345
#     4  11  20  36  57  83 116 148 186 232 290 340
#     4  11  23  35  57  81 115 154 184 230 275 352
#     4  10  20  36  57  83 116 148 187 240 287 335
#     4  10  20  35  54  84 116 144 183 243 288 337
#
# _framework density 16.888020999999998
#
# number of rings (size 3 to 8) (size 9 to 14) (size 15 to 20)
#    0.000    1.500    7.500    0.000    0.000    4.500 
#    2.250    0.000    0.000    6.750    0.000    0.000 
#    0.000    0.000    0.000    0.000    0.000    0.000 
#
# Total GULP energy -178417.751506 kJ/mol
# GULP energy per Si atom -5575.554735 kJ/mol
# Density = 1.684958 g / cm^3
# Si number density = 16.888021 Si / 1000 Ang^3
#
#
#
# Elastic Constant Matrix: (Units=GPa)
#
#
# Indices 1 2 3 4 5 6 
#
# 1 87.6566 20.7154 20.3131 0.0000 5.0923 0.0000
# 2 20.7154 42.4939 0.6195 0.0000 -4.6925 0.0000
# 3 20.3131 0.6195 87.5093 0.0000 -3.6302 0.0000
# 4 0.0000 0.0000 0.0000 13.6236 0.0000 4.0813
# 5 5.0923 -4.6925 -3.6302 0.0000 20.8298 0.0000
# 6 0.0000 0.0000 0.0000 4.0813 0.0000 28.7338
#
#
#
# Elastic Compliance Matrix: (Units=1/GPa)
#
#
# Indices 1 2 3 4 5 6 
#
# 1 0.014357 -0.007592 -0.003521 0.000000 -0.005834 0.000000
# 2 -0.007592 0.028148 0.001917 0.000000 0.008531 0.000000
# 3 -0.003521 0.001917 0.012374 0.000000 0.003449 0.000000
# 4 0.000000 0.000000 0.000000 0.076664 0.000000 -0.010889
# 5 -0.005834 0.008531 0.003449 0.000000 0.051957 0.000000
# 6 0.000000 0.000000 0.000000 -0.010889 0.000000 0.036349
#
#
# Mechanical properties :
#
#
# Convention : Reuss Voigt Hill
#
# Bulk Modulus (GPa) = 27.40673 33.43955 30.42314
# Shear Modulus (GPa) = 19.96775 24.37155 22.16965
#
# Velocity S-wave (km/s) = 3.44228 3.80297 3.62711
# Velocity P-wave (km/s) = 5.66240 6.25517 5.96615
#
# Compressibility (1/GPa) = 0.03648738
#
# Stress axis : x y z
#
# Youngs Moduli (GPa) = 69.65180 35.52669 80.81359
#
# Poissons Ratio (x) = 0.26971 0.28454
# Poissons Ratio (y) = 0.52879 -0.15491
# Poissons Ratio (z) = 0.24524 -0.06810
#
# Static dielectric constant tensor:
#      x y z
#    x 1.579780 0.000000 0.007990 
#    y 0.000000 1.569880 0.000000 
#    z 0.007990 0.000000 1.580470 
# 
# From -- ./inp_files/172973.got.cif
#   From: 2010.05.17/outbox.cif.g08.bks.cpg/sg15_87_cif.got.tgz:172973.got - 2010.06.03 18:47:42.
