data_PCOD9270560
_publ_section_title
;
Structure prediction by ZEFSAII (Michael W. Deem and Ramdas Pophale) SiO2 
 PCOD9270560
Probable space group: C 2/C
;
_chemical_formula_sum "Si O2"
_cell_formula_units_Z 56
_cell_length_a 12.898228
_cell_length_b 22.755797
_cell_length_c 14.649269
_cell_angle_alpha 90.000000
_cell_angle_beta 142.337081
_cell_angle_gamma 90.000000
_cell_volume 2627.179915
_symmetry_space_group_name_H-M "C 2/C"
_symmetry_group_IT_number 15
_symmetry_cell_setting 'monoclinic'
loop_
_space_group_symop_operation_xyz
x,y,z
-x,y,1/2-z
-x,-y,-z
x,-y,1/2+z
1/2+x,1/2+y,z
1/2-x,1/2+y,1/2-z
1/2-x,1/2-y,-z
1/2+x,1/2-y,1/2+z
loop_
_atom_site_type_symbol
_atom_site_label
_atom_site_fract_x
_atom_site_fract_y
_atom_site_fract_z
Si Si1 0.916508 0.826777 0.370035
Si Si2 0.670644 0.036652 0.102444
Si Si3 0.641149 0.253750 0.631100
Si Si4 0.193009 0.672217 0.096522
Si Si5 0.685624 0.983895 0.398277
Si Si6 0.196001 0.650893 0.890357
Si Si7 0.976134 0.043552 0.843349
O O1 0.806526 0.785403 0.228409
O O2 0.815081 0.822899 0.396125
O O3 0.925066 0.892734 0.342658
O O4 0.095621 0.798085 0.518237
O O5 0.661324 0.106308 0.113230
O O6 0.829532 0.004345 0.259635
O O7 0.500000 0.000000 0.000000
O O8 0.699197 0.029942 0.014623
O O9 0.680325 0.292934 0.748468
O O10 0.483907 0.208258 0.530604
O O11 0.255285 0.664095 0.035039
O O12 0.500000 0.010108 0.250000
O O13 0.847227 0.023018 0.489099
O O14 0.692001 0.918457 0.361803
O O15 0.000000 0.670926 0.750000
O O16 0.000000 0.046835 0.750000
#
# Coordination Sequence:
#
# PCOD9270560 Si02
#       7
#     8   8   8   8   8   8   8
#     4  11  23  40  62  87 123 162 210 252 309 364
#     4  10  21  37  63  89 122 164 201 253 313 367
#     4  10  23  38  58  88 124 167 209 250 285 378
#     4  10  21  38  54  86 128 163 205 241 301 353
#     4   9  21  38  57  91 127 152 198 258 305 371
#     4  10  20  35  60  88 129 165 196 245 302 375
#     4  10  23  43  66  91 120 161 208 264 319 370
#
# _framework density 21.315631
#
# number of rings (size 3 to 8) (size 9 to 14) (size 15 to 20)
#    0.000    2.000    1.429    0.857    6.000    5.714 
#    0.000    2.143    0.000    0.000    0.000    0.000 
#    0.000    0.000    0.000    0.000    0.000    0.000 
#
# Total GULP energy -156366.923152 kJ/mol
# GULP energy per Si atom -5584.532970 kJ/mol
# Density = 2.126712 g / cm^3
# Si number density = 21.315631 Si / 1000 Ang^3
#
#
#
# Elastic Constant Matrix: (Units=GPa)
#
#
# Indices 1 2 3 4 5 6 
#
# 1 23.5643 28.8325 17.7630 0.0000 3.8829 0.0000
# 2 28.8325 161.7938 73.9706 0.0000 8.7951 0.0000
# 3 17.7630 73.9706 154.3116 0.0000 13.2862 0.0000
# 4 0.0000 0.0000 0.0000 33.4260 0.0000 -7.3608
# 5 3.8829 8.7951 13.2862 0.0000 20.9003 0.0000
# 6 0.0000 0.0000 0.0000 -7.3608 0.0000 24.1484
#
#
#
# Elastic Compliance Matrix: (Units=1/GPa)
#
#
# Indices 1 2 3 4 5 6 
#
# 1 0.055382 -0.008801 -0.001681 0.000000 -0.005517 0.000000
# 2 -0.008801 0.009333 -0.003452 0.000000 -0.000098 0.000000
# 3 -0.001681 -0.003452 0.008650 0.000000 -0.003734 0.000000
# 4 0.000000 0.000000 0.000000 0.032069 0.000000 0.009775
# 5 -0.005517 -0.000098 -0.003734 0.000000 0.051286 0.000000
# 6 0.000000 0.000000 0.000000 0.009775 0.000000 0.044390
#
#
# Mechanical properties :
#
#
# Convention : Reuss Voigt Hill
#
# Bulk Modulus (GPa) = 21.97995 64.53356 43.25675
# Shear Modulus (GPa) = 20.47971 30.30186 25.39078
#
# Velocity S-wave (km/s) = 3.10301 3.77447 3.45509
# Velocity P-wave (km/s) = 4.81376 7.02399 6.02116
#
# Compressibility (1/GPa) = 0.04549602
#
# Stress axis : x y z
#
# Youngs Moduli (GPa) = 18.05648 107.15029 115.60326
#
# Poissons Ratio (x) = 0.94300 0.19437
# Poissons Ratio (y) = 0.15891 0.39909
# Poissons Ratio (z) = 0.03036 0.36991
#
# Static dielectric constant tensor:
#      x y z
#    x 1.792340 0.000000 -0.004330 
#    y 0.000000 1.781350 0.000000 
#    z -0.004330 0.000000 1.816460 
# 
# From -- ./inp_files/207005.got.cif
#   From: 2010.05.17/outbox.cif.g08.bks.cpg/sg15_104_cif.got.tgz:207005.got - 2010.06.03 18:47:42.
