data_PCOD9270182
_publ_section_title
;
Structure prediction by ZEFSAII (Michael W. Deem and Ramdas Pophale) SiO2 
 PCOD9270182
Probable space group: C 2/C
;
_chemical_formula_sum "Si O2"
_cell_formula_units_Z 44
_cell_length_a 7.345127
_cell_length_b 28.393303
_cell_length_c 12.429647
_cell_angle_alpha 90.000000
_cell_angle_beta 141.699726
_cell_angle_gamma 90.000000
_cell_volume 1606.621337
_symmetry_space_group_name_H-M "C 2/C"
_symmetry_group_IT_number 15
_symmetry_cell_setting 'monoclinic'
loop_
_space_group_symop_operation_xyz
x,y,z
-x,y,1/2-z
-x,-y,-z
x,-y,1/2+z
1/2+x,1/2+y,z
1/2-x,1/2+y,1/2-z
1/2-x,1/2-y,-z
1/2+x,1/2-y,1/2+z
loop_
_atom_site_type_symbol
_atom_site_label
_atom_site_fract_x
_atom_site_fract_y
_atom_site_fract_z
Si Si1 0.551304 0.178767 0.663771
Si Si2 0.923367 0.928287 0.872204
Si Si3 0.500000 0.778598 0.750000
Si Si4 0.509765 0.903026 0.502282
Si Si5 0.217690 0.963999 0.200492
Si Si6 0.394545 0.769260 0.914459
O O1 0.500000 0.150322 0.750000
O O2 0.654454 0.143663 0.618177
O O3 0.290576 0.204878 0.474217
O O4 0.745558 0.220928 0.806388
O O5 0.627173 0.909787 0.677409
O O6 0.191083 0.904217 0.932202
O O7 0.998434 0.928547 0.034393
O O8 0.918726 0.984525 0.848835
O O9 0.406416 0.802963 0.816240
O O10 0.224559 0.745930 0.594241
O O11 0.324558 0.945328 0.364973
O O12 0.500000 0.968606 0.250000
#
# Coordination Sequence:
#
# PCOD9270182 Si02
#       6
#     8   8   4   8   8   8
#     4  11  21  37  55  92 126 159 208 257 311 361
#     4   9  18  34  55  81 110 155 191 239 307 361
#     4   8  16  38  62  80 102 150 206 246 310 368
#     4  10  20  35  56  85 119 159 197 247 304 361
#     4   9  17  33  59  84 111 150 203 246 298 371
#     4   9  19  36  63  84 114 161 205 255 305 372
#
# _framework density 27.386664
#
# number of rings (size 3 to 8) (size 9 to 14) (size 15 to 20)
#    0.000    2.545    0.000    2.727    0.000    0.000 
#   22.909    0.000    2.000   50.182    0.000    0.000 
#    0.000    0.000    0.000    0.000    0.000    0.000 
#
# Total GULP energy -122607.612493 kJ/mol
# GULP energy per Si atom -5573.073295 kJ/mol
# Density = 2.732433 g / cm^3
# Si number density = 27.386664 Si / 1000 Ang^3
#
#
#
# Elastic Constant Matrix: (Units=GPa)
#
#
# Indices 1 2 3 4 5 6 
#
# 1 78.9782 3.1182 50.0481 0.0000 10.5700 0.0000
# 2 3.1182 114.7610 50.3566 0.0000 -0.7932 0.0000
# 3 50.0481 50.3566 219.4310 0.0000 -37.2412 0.0000
# 4 0.0000 0.0000 0.0000 32.3171 0.0000 -5.7239
# 5 10.5700 -0.7932 -37.2412 0.0000 55.3288 0.0000
# 6 0.0000 0.0000 0.0000 -5.7239 0.0000 1.5787
#
#
#
# Elastic Compliance Matrix: (Units=1/GPa)
#
#
# Indices 1 2 3 4 5 6 
#
# 1 0.016985 0.001896 -0.005481 0.000000 -0.006907 0.000000
# 2 0.001896 0.010018 -0.003125 0.000000 -0.002322 0.000000
# 3 -0.005481 -0.003125 0.007558 0.000000 0.006090 0.000000
# 4 0.000000 0.000000 0.000000 0.086474 0.000000 0.313523
# 5 -0.006907 -0.002322 0.006090 0.000000 0.023459 0.000000
# 6 0.000000 0.000000 0.000000 0.313523 0.000000 1.770142
#
#
# Mechanical properties :
#
#
# Convention : Reuss Voigt Hill
#
# Bulk Modulus (GPa) = 47.30609 68.91289 58.10949
# Shear Modulus (GPa) = 2.58384 38.48807 20.53595
#
# Velocity S-wave (km/s) = 0.97238 3.75288 2.74131
# Velocity P-wave (km/s) = 4.30948 6.63297 5.59321
#
# Compressibility (1/GPa) = 0.02113893
#
# Stress axis : x y z
#
# Youngs Moduli (GPa) = 58.87667 99.82388 132.30711
#
# Poissons Ratio (x) = -0.18925 0.72520
# Poissons Ratio (y) = -0.11162 0.41352
# Poissons Ratio (z) = 0.32271 0.31200
#
# Static dielectric constant tensor:
#      x y z
#    x 2.494170 0.000000 -0.091350 
#    y 0.000000 2.162800 0.000000 
#    z -0.091350 0.000000 2.208420 
# 
# From -- ./inp_files/148619.got.cif
#   From: 2010.05.17/outbox.cif.g08.bks.cpg/sg15_75_cif.got.tgz:148619.got - 2010.06.03 18:47:42.
