data_PCOD9270842
_publ_section_title
;
Structure prediction by ZEFSAII (Michael W. Deem and Ramdas Pophale) SiO2 
 PCOD9270842
Probable space group: C 2/C
;
_chemical_formula_sum "Si O2"
_cell_formula_units_Z 56
_cell_length_a 18.397339
_cell_length_b 19.651615
_cell_length_c 8.626023
_cell_angle_alpha 90.000000
_cell_angle_beta 72.235432
_cell_angle_gamma 90.000000
_cell_volume 2969.928398
_symmetry_space_group_name_H-M "C 2/C"
_symmetry_group_IT_number 15
_symmetry_cell_setting 'monoclinic'
loop_
_space_group_symop_operation_xyz
x,y,z
-x,y,1/2-z
-x,-y,-z
x,-y,1/2+z
1/2+x,1/2+y,z
1/2-x,1/2+y,1/2-z
1/2-x,1/2-y,-z
1/2+x,1/2-y,1/2+z
loop_
_atom_site_type_symbol
_atom_site_label
_atom_site_fract_x
_atom_site_fract_y
_atom_site_fract_z
Si Si1 0.424271 0.042464 0.993651
Si Si2 0.408745 0.420384 0.817288
Si Si3 0.281022 0.056930 0.622440
Si Si4 0.608631 0.857670 0.270786
Si Si5 0.030026 0.327185 0.901420
Si Si6 0.418967 0.272386 0.894361
Si Si7 0.676101 0.469145 0.919520
O O1 0.417123 0.082447 0.832605
O O2 0.417630 0.105422 0.118519
O O3 0.500000 0.000000 0.000000
O O4 0.353709 0.991133 0.039138
O O5 0.500000 0.425952 0.750000
O O6 0.386229 0.347648 0.905779
O O7 0.373706 0.425502 0.667702
O O8 0.376093 0.481475 0.942151
O O9 0.317524 0.121021 0.682799
O O10 0.231084 0.070226 0.502647
O O11 0.229123 0.016377 0.777883
O O12 0.539366 0.844734 0.435105
O O13 0.623168 0.788791 0.166628
O O14 0.000000 0.318925 0.750000
O O15 0.066967 0.258826 0.945275
O O16 0.500000 0.276880 0.750000
#
# Coordination Sequence:
#
# PCOD9270842 Si02
#       7
#     8   8   8   8   8   8   8
#     4  11  21  30  54  83 117 174 211 234 266 326
#     4  10  20  43  70  88 108 141 192 254 318 367
#     4  11  21  35  52  82 130 158 189 248 290 332
#     4  10  20  36  52  81 124 165 201 235 282 335
#     4  10  21  31  52  89 122 153 214 240 269 333
#     4   8  18  38  60  82 116 156 192 248 294 346
#     4  10  23  37  59  91 116 142 193 248 313 362
#
# _framework density 18.855674
#
# number of rings (size 3 to 8) (size 9 to 14) (size 15 to 20)
#    0.000    2.000    2.857    1.714    4.000    0.000 
#    0.000   10.714    0.000    0.000    0.000    0.000 
#    0.000    0.000    0.000    0.000    0.000    0.000 
#
# Total GULP energy -156135.227129 kJ/mol
# GULP energy per Si atom -5576.258112 kJ/mol
# Density = 1.881276 g / cm^3
# Si number density = 18.855674 Si / 1000 Ang^3
#
#
#
# Elastic Constant Matrix: (Units=GPa)
#
#
# Indices 1 2 3 4 5 6 
#
# 1 113.3249 39.7709 41.7326 0.0000 33.4204 0.0000
# 2 39.7709 94.4718 30.4067 0.0000 28.0351 0.0000
# 3 41.7326 30.4067 92.4569 0.0000 37.8437 0.0000
# 4 0.0000 0.0000 0.0000 10.0054 0.0000 3.5854
# 5 33.4204 28.0351 37.8437 0.0000 43.3911 0.0000
# 6 0.0000 0.0000 0.0000 3.5854 0.0000 9.5369
#
#
#
# Elastic Compliance Matrix: (Units=1/GPa)
#
#
# Indices 1 2 3 4 5 6 
#
# 1 0.012324 -0.002752 -0.002333 0.000000 -0.005679 0.000000
# 2 -0.002752 0.013814 -0.000801 0.000000 -0.006107 0.000000
# 3 -0.002333 -0.000801 0.017395 0.000000 -0.012856 0.000000
# 4 0.000000 0.000000 0.000000 0.115507 0.000000 -0.043425
# 5 -0.005679 -0.006107 -0.012856 0.000000 0.042579 0.000000
# 6 0.000000 0.000000 0.000000 -0.043425 0.000000 0.121181
#
#
# Mechanical properties :
#
#
# Convention : Reuss Voigt Hill
#
# Bulk Modulus (GPa) = 31.48635 58.23046 44.85840
# Shear Modulus (GPa) = 14.48612 25.14291 19.81452
#
# Velocity S-wave (km/s) = 2.77476 3.65559 3.24520
# Velocity P-wave (km/s) = 5.19621 6.98334 6.15498
#
# Compressibility (1/GPa) = 0.03175979
#
# Stress axis : x y z
#
# Youngs Moduli (GPa) = 81.14248 72.39154 57.48898
#
# Poissons Ratio (x) = 0.19921 0.13413
# Poissons Ratio (y) = 0.22329 0.04607
# Poissons Ratio (z) = 0.18931 0.05801
#
# Static dielectric constant tensor:
#      x y z
#    x 1.674990 0.000000 -0.000200 
#    y 0.000000 1.666610 0.000000 
#    z -0.000200 0.000000 1.671590 
# 
# From -- ./inp_files/49700.got.cif
#   From: 2010.05.17/outbox.cif.g08.bks.cpg/sg15_25_cif.got.tgz:49700.got - 2010.06.03 18:47:42.
