data_PCOD9270165
_publ_section_title
;
Structure prediction by ZEFSAII (Michael W. Deem and Ramdas Pophale) SiO2 
 PCOD9270165
Probable space group: C 2/C
;
_chemical_formula_sum "Si O2"
_cell_formula_units_Z 32
_cell_length_a 8.783205
_cell_length_b 23.235377
_cell_length_c 13.361790
_cell_angle_alpha 90.000000
_cell_angle_beta 148.497171
_cell_angle_gamma 90.000000
_cell_volume 1424.910140
_symmetry_space_group_name_H-M "C 2/C"
_symmetry_group_IT_number 15
_symmetry_cell_setting 'monoclinic'
loop_
_space_group_symop_operation_xyz
x,y,z
-x,y,1/2-z
-x,-y,-z
x,-y,1/2+z
1/2+x,1/2+y,z
1/2-x,1/2+y,1/2-z
1/2-x,1/2-y,-z
1/2+x,1/2-y,1/2+z
loop_
_atom_site_type_symbol
_atom_site_label
_atom_site_fract_x
_atom_site_fract_y
_atom_site_fract_z
Si Si1 0.197844 0.499794 0.272847
Si Si2 0.799844 0.682307 0.039462
Si Si3 0.287491 0.609855 0.222385
Si Si4 0.228020 0.127801 0.655022
O O1 0.500000 0.500000 0.500000
O O2 0.197551 0.542505 0.179766
O O3 0.138456 0.431979 0.226102
O O4 0.000000 0.525422 0.250000
O O5 0.000000 0.674829 0.250000
O O6 0.002407 0.650113 0.071122
O O7 0.750000 0.750000 0.000000
O O8 0.477476 0.656467 0.876877
O O9 0.500000 0.622091 0.250000
O O10 0.494898 0.617483 0.435625
O O11 0.500000 0.157991 0.750000
#
# Coordination Sequence:
#
# PCOD9270165 Si02
#       4
#     8   8   8   8
#     4   9  16  32  55  77 107 145 178 215 272 332
#     4  10  22  40  59  79 111 151 189 228 274 328
#     4  10  20  35  56  84 113 144 183 230 277 325
#     4   9  19  37  58  80 109 148 186 225 276 331
#
# _framework density 22.457556
#
# number of rings (size 3 to 8) (size 9 to 14) (size 15 to 20)
#    0.000    2.500    0.000    3.750    0.000    3.000 
#    0.000   26.250    0.000    0.000    0.000    0.000 
#    0.000    0.000    0.000    0.000    0.000    0.000 
#
# Total GULP energy -89166.604496 kJ/mol
# GULP energy per Si atom -5572.912781 kJ/mol
# Density = 2.240644 g / cm^3
# Si number density = 22.457556 Si / 1000 Ang^3
#
#
#
# Elastic Constant Matrix: (Units=GPa)
#
#
# Indices 1 2 3 4 5 6 
#
# 1 164.3927 80.3672 42.5388 0.0000 57.5519 0.0000
# 2 80.3672 117.9322 24.9451 0.0000 28.8749 0.0000
# 3 42.5388 24.9451 90.8338 0.0000 29.3962 0.0000
# 4 0.0000 0.0000 0.0000 34.7871 0.0000 6.6333
# 5 57.5519 28.8749 29.3962 0.0000 53.1003 0.0000
# 6 0.0000 0.0000 0.0000 6.6333 0.0000 21.5446
#
#
#
# Elastic Compliance Matrix: (Units=1/GPa)
#
#
# Indices 1 2 3 4 5 6 
#
# 1 0.012835 -0.006064 -0.001110 0.000000 -0.010000 0.000000
# 2 -0.006064 0.012751 -0.000664 0.000000 0.000006 0.000000
# 3 -0.001110 -0.000664 0.013651 0.000000 -0.005993 0.000000
# 4 0.000000 0.000000 0.000000 0.030539 0.000000 -0.009403
# 5 -0.010000 0.000006 -0.005993 0.000000 0.032985 0.000000
# 6 0.000000 0.000000 0.000000 -0.009403 0.000000 0.049310
#
#
# Mechanical properties :
#
#
# Convention : Reuss Voigt Hill
#
# Bulk Modulus (GPa) = 42.44066 74.31788 58.37927
# Shear Modulus (GPa) = 28.47385 36.90690 32.69037
#
# Velocity S-wave (km/s) = 3.56462 4.05829 3.81944
# Velocity P-wave (km/s) = 5.99009 7.42456 6.74556
#
# Compressibility (1/GPa) = 0.02356231
#
# Stress axis : x y z
#
# Youngs Moduli (GPa) = 77.90992 78.42714 73.25648
#
# Poissons Ratio (x) = 0.47557 0.08128
# Poissons Ratio (y) = 0.47243 0.04863
# Poissons Ratio (z) = 0.08644 0.05206
#
# Static dielectric constant tensor:
#      x y z
#    x 1.891210 0.000000 -0.005380 
#    y 0.000000 1.888520 0.000000 
#    z -0.005380 0.000000 1.847060 
# 
# From -- ./inp_files/22762.got.cif
#   From: 2010.05.17/outbox.cif.g08.bks.cpg/sg15_12_cif.got.tgz:22762.got - 2010.06.03 18:47:42.
