data_PCOD9270202
_publ_section_title
;
Structure prediction by ZEFSAII (Michael W. Deem and Ramdas Pophale) SiO2 
 PCOD9270202
Probable space group: C 2/C
;
_chemical_formula_sum "Si O2"
_cell_formula_units_Z 48
_cell_length_a 8.478181
_cell_length_b 19.307197
_cell_length_c 19.913333
_cell_angle_alpha 90.000000
_cell_angle_beta 140.456830
_cell_angle_gamma 90.000000
_cell_volume 2075.262518
_symmetry_space_group_name_H-M "C 2/C"
_symmetry_group_IT_number 15
_symmetry_cell_setting 'monoclinic'
loop_
_space_group_symop_operation_xyz
x,y,z
-x,y,1/2-z
-x,-y,-z
x,-y,1/2+z
1/2+x,1/2+y,z
1/2-x,1/2+y,1/2-z
1/2-x,1/2-y,-z
1/2+x,1/2-y,1/2+z
loop_
_atom_site_type_symbol
_atom_site_label
_atom_site_fract_x
_atom_site_fract_y
_atom_site_fract_z
Si Si1 0.586369 0.255502 0.516531
Si Si2 0.500000 0.288534 0.250000
Si Si3 0.860513 0.902378 0.451203
Si Si4 0.000000 0.031472 0.250000
Si Si5 0.528218 0.585796 0.666333
Si Si6 0.881240 0.534527 0.138603
Si Si7 0.536077 0.893862 0.556585
O O1 0.750000 0.250000 0.500000
O O2 0.784434 0.253225 0.642245
O O3 0.402063 0.319781 0.468518
O O4 0.440253 0.183765 0.462335
O O5 0.403850 0.342587 0.274835
O O6 0.871941 0.913424 0.374993
O O7 0.106236 0.936061 0.561855
O O8 0.648772 0.956766 0.403256
O O9 0.804673 0.071927 0.140149
O O10 0.872606 0.978672 0.259749
O O11 0.224618 0.581344 0.562544
O O12 0.000000 0.533478 0.250000
O O13 0.984732 0.590139 0.118704
#
# Coordination Sequence:
#
# PCOD9270202 Si02
#       7
#     8   4   8   4   8   8   8
#     4  11  19  37  57  86 124 156 198 243 295 370
#     4   9  18  30  58  84 113 162 200 228 297 354
#     4  10  20  35  57  85 121 146 192 247 293 350
#     4  11  20  34  60  82 107 154 200 244 289 348
#     4   9  18  35  55  84 113 147 191 247 289 350
#     4  10  20  35  56  88 113 153 194 244 298 348
#     4  10  21  36  55  84 118 151 198 246 293 355
#
# _framework density 23.129605000000002
#
# number of rings (size 3 to 8) (size 9 to 14) (size 15 to 20)
#    0.000    2.000    5.000    1.500    1.167    0.000 
#    1.500    0.000    0.000    0.000    0.000   14.000 
#    0.000    0.000    0.000    0.000    0.000    0.000 
#
# Total GULP energy -133764.367766 kJ/mol
# GULP energy per Si atom -5573.515324 kJ/mol
# Density = 2.307696 g / cm^3
# Si number density = 23.129605 Si / 1000 Ang^3
#
#
#
# Elastic Constant Matrix: (Units=GPa)
#
#
# Indices 1 2 3 4 5 6 
#
# 1 27.2135 8.6843 24.4622 0.0000 6.7368 0.0001
# 2 8.6843 161.0586 61.2984 -0.0002 6.2737 -0.0001
# 3 24.4622 61.2984 119.1900 -0.0014 -17.2933 -0.0005
# 4 0.0000 -0.0002 -0.0014 33.9401 -0.0007 -0.2786
# 5 6.7368 6.2737 -17.2933 -0.0007 31.3305 -0.0002
# 6 0.0001 -0.0001 -0.0005 -0.2786 -0.0002 9.5923
#
#
#
# Elastic Compliance Matrix: (Units=1/GPa)
#
#
# Indices 1 2 3 4 5 6 
#
# 1 0.056152 0.004301 -0.016972 -0.000001 -0.022303 -0.000002
# 2 0.004301 0.008556 -0.006159 0.000000 -0.006038 0.000000
# 3 -0.016972 -0.006159 0.017120 0.000001 0.014333 0.000001
# 4 -0.000001 0.000000 0.000001 0.029471 0.000001 0.000856
# 5 -0.022303 -0.006038 0.014333 0.000001 0.045834 0.000002
# 6 -0.000002 0.000000 0.000001 0.000856 0.000002 0.104275
#
#
# Mechanical properties :
#
#
# Convention : Reuss Voigt Hill
#
# Bulk Modulus (GPa) = 22.64132 55.15022 38.89577
# Shear Modulus (GPa) = 15.93415 29.17371 22.55393
#
# Velocity S-wave (km/s) = 2.62755 3.55535 3.12606
# Velocity P-wave (km/s) = 4.36068 6.38356 5.46650
#
# Compressibility (1/GPa) = 0.04416703
#
# Stress axis : x y z
#
# Youngs Moduli (GPa) = 17.80892 116.87221 58.40987
#
# Poissons Ratio (x) = -0.50262 0.99134
# Poissons Ratio (y) = -0.07659 0.35975
# Poissons Ratio (z) = 0.30226 0.71983
#
# Static dielectric constant tensor:
#      x y z
#    x 2.004370 0.000000 0.086340 
#    y 0.000000 1.936440 0.000000 
#    z 0.086340 0.000000 1.911920 
# 
# From -- ./inp_files/88529.got.cif
#   From: 2010.05.17/outbox.cif.g08.bks.cpg/sg15_45_cif.got.tgz:88529.got - 2010.06.03 18:47:42.
