data_PCOD9270411
_publ_section_title
;
Structure prediction by ZEFSAII (Michael W. Deem and Ramdas Pophale) SiO2 
 PCOD9270411
Probable space group: C 2/C
;
_chemical_formula_sum "Si O2"
_cell_formula_units_Z 64
_cell_length_a 28.938916
_cell_length_b 13.690207
_cell_length_c 10.240831
_cell_angle_alpha 90.000000
_cell_angle_beta 39.737818
_cell_angle_gamma 90.000000
_cell_volume 2593.674947
_symmetry_space_group_name_H-M "C 2/C"
_symmetry_group_IT_number 15
_symmetry_cell_setting 'monoclinic'
loop_
_space_group_symop_operation_xyz
x,y,z
-x,y,1/2-z
-x,-y,-z
x,-y,1/2+z
1/2+x,1/2+y,z
1/2-x,1/2+y,1/2-z
1/2-x,1/2-y,-z
1/2+x,1/2-y,1/2+z
loop_
_atom_site_type_symbol
_atom_site_label
_atom_site_fract_x
_atom_site_fract_y
_atom_site_fract_z
Si Si1 0.325021 0.261873 0.757476
Si Si2 0.572331 0.216327 0.729836
Si Si3 0.437021 0.205055 0.159376
Si Si4 0.318621 0.945116 0.188639
Si Si5 0.314829 0.744651 0.735167
Si Si6 0.704186 0.410517 0.026124
Si Si7 0.097412 0.494006 0.232774
Si Si8 0.077729 0.120287 0.624858
O O1 0.387759 0.232876 0.720828
O O2 0.317791 0.170979 0.674730
O O3 0.359211 0.359293 0.619502
O O4 0.250000 0.250000 0.000000
O O5 0.628536 0.257299 0.504564
O O6 0.564208 0.100024 0.734695
O O7 0.491038 0.249275 0.932375
O O8 0.358881 0.209543 0.262255
O O9 0.442135 0.273518 0.272774
O O10 0.449419 0.092459 0.168810
O O11 0.377446 0.973947 0.173166
O O12 0.246805 0.990789 0.406489
O O13 0.335304 0.988042 0.010905
O O14 0.297235 0.636445 0.826042
O O15 0.251007 0.823486 0.850837
O O16 0.623702 0.424743 0.144318
O O17 0.000000 0.076921 0.750000
#
# Coordination Sequence:
#
# PCOD9270411 Si02
#       8
#     8   8   8   8   8   8   8   8
#     4  11  24  39  62  94 126 163 212 273 327 393
#     4  11  21  34  55  89 130 169 209 260 323 400
#     4  11  20  35  56  87 131 171 207 259 326 402
#     4  11  23  39  63  93 130 168 221 262 332 387
#     4  10  20  35  58  89 119 166 223 260 316 372
#     4  10  21  39  64  86 122 176 218 271 312 389
#     4  11  21  36  55  92 133 176 211 258 325 409
#     4  11  22  40  62  92 127 172 215 265 333 392
#
# _framework density 24.675412999999999
#
# number of rings (size 3 to 8) (size 9 to 14) (size 15 to 20)
#    0.000    1.250    5.000    1.500    1.750    1.000 
#    0.000    1.250    0.000    0.750    0.000    0.000 
#    0.000    0.000    0.000    0.000    0.000    0.000 
#
# Total GULP energy -178573.258591 kJ/mol
# GULP energy per Si atom -5580.414331 kJ/mol
# Density = 2.461925 g / cm^3
# Si number density = 24.675413 Si / 1000 Ang^3
#
#
#
# Elastic Constant Matrix: (Units=GPa)
#
#
# Indices 1 2 3 4 5 6 
#
# 1 76.5583 -4.4174 10.6261 0.0000 -20.7437 0.0000
# 2 -4.4174 13.1224 2.1455 0.0000 4.5459 0.0000
# 3 10.6261 2.1455 134.2672 0.0000 -0.8609 0.0000
# 4 0.0000 0.0000 0.0000 28.2689 0.0000 6.3274
# 5 -20.7437 4.5459 -0.8609 0.0000 51.3983 0.0000
# 6 0.0000 0.0000 0.0000 6.3274 0.0000 6.1387
#
#
#
# Elastic Compliance Matrix: (Units=1/GPa)
#
#
# Indices 1 2 3 4 5 6 
#
# 1 0.014970 0.003249 -0.001200 0.000000 0.005734 0.000000
# 2 0.003249 0.079547 -0.001565 0.000000 -0.005750 0.000000
# 3 -0.001200 -0.001565 0.007566 0.000000 -0.000219 0.000000
# 4 0.000000 0.000000 0.000000 0.045983 0.000000 -0.047396
# 5 0.005734 -0.005750 -0.000219 0.000000 0.022275 0.000000
# 6 0.000000 0.000000 0.000000 -0.047396 0.000000 0.211753
#
#
# Mechanical properties :
#
#
# Convention : Reuss Voigt Hill
#
# Bulk Modulus (GPa) = 9.70393 26.73961 18.22177
# Shear Modulus (GPa) = 12.03436 31.53409 21.78423
#
# Velocity S-wave (km/s) = 2.21080 3.57873 2.97447
# Velocity P-wave (km/s) = 3.23389 5.28550 4.38147
#
# Compressibility (1/GPa) = 0.10305108
#
# Stress axis : x y z
#
# Youngs Moduli (GPa) = 66.80202 12.57116 132.16325
#
# Poissons Ratio (x) = -0.04084 0.15858
# Poissons Ratio (y) = -0.21704 0.20685
# Poissons Ratio (z) = 0.08015 0.01968
#
# Static dielectric constant tensor:
#      x y z
#    x 2.006330 0.000000 -0.004850 
#    y 0.000000 1.963750 0.000000 
#    z -0.004850 0.000000 2.089250 
# 
# From -- ./inp_files/127296.got.cif
#   From: 2010.05.17/outbox.cif.g08.bks.cpg/sg15_64_cif.got.tgz:127296.got - 2010.06.03 18:47:42.
