data_PCOD9270932
_publ_section_title
;
Structure prediction by ZEFSAII (Michael W. Deem and Ramdas Pophale) SiO2 
 PCOD9270932
Probable space group: C 2/C
;
_chemical_formula_sum "Si O2"
_cell_formula_units_Z 52
_cell_length_a 14.702199
_cell_length_b 11.720141
_cell_length_c 19.076840
_cell_angle_alpha 90.000000
_cell_angle_beta 48.139586
_cell_angle_gamma 90.000000
_cell_volume 2448.191383
_symmetry_space_group_name_H-M "C 2/C"
_symmetry_group_IT_number 15
_symmetry_cell_setting 'monoclinic'
loop_
_space_group_symop_operation_xyz
x,y,z
-x,y,1/2-z
-x,-y,-z
x,-y,1/2+z
1/2+x,1/2+y,z
1/2-x,1/2+y,1/2-z
1/2-x,1/2-y,-z
1/2+x,1/2-y,1/2+z
loop_
_atom_site_type_symbol
_atom_site_label
_atom_site_fract_x
_atom_site_fract_y
_atom_site_fract_z
Si Si1 0.726255 0.788907 0.177772
Si Si2 0.706687 0.043073 0.376655
Si Si3 0.458938 0.510595 0.191224
Si Si4 0.066122 0.240745 0.380589
Si Si5 0.003562 0.881982 0.456834
Si Si6 0.500000 0.947483 0.250000
Si Si7 0.036148 0.494238 0.079559
O O1 0.737337 0.666753 0.134489
O O2 0.691980 0.764855 0.276218
O O3 0.857725 0.842532 0.105756
O O4 0.617181 0.867062 0.205216
O O5 0.812491 0.990783 0.273694
O O6 0.658349 0.982706 0.472128
O O7 0.581637 0.051839 0.396164
O O8 0.500000 0.513297 0.250000
O O9 0.482632 0.632274 0.139898
O O10 0.518911 0.413133 0.112240
O O11 0.076146 0.204569 0.456159
O O12 0.987630 0.356410 0.414717
O O13 0.000000 0.000000 0.500000
O O14 0.532570 0.017820 0.163678
#
# Coordination Sequence:
#
# PCOD9270932 Si02
#       7
#     8   8   8   8   8   4   8
#     4  10  20  36  59  90 122 154 203 255 299 365
#     4  10  21  35  56  80 120 163 189 243 309 367
#     4  10  21  34  55  86 119 148 202 252 301 348
#     4   9  19  33  56  84 115 154 191 247 302 360
#     4  10  20  38  59  86 121 165 205 245 306 376
#     4  10  22  34  60  92 128 152 200 264 304 344
#     4  10  20  36  55  85 118 156 196 241 312 359
#
# _framework density 21.240169999999999
#
# number of rings (size 3 to 8) (size 9 to 14) (size 15 to 20)
#    0.000    2.154    1.538    1.846    9.692    3.077 
#    0.000    0.000    1.692    3.692    0.000    0.000 
#    0.000    0.000    0.000    0.000    0.000    0.000 
#
# Total GULP energy -144907.808519 kJ/mol
# GULP energy per Si atom -5573.377251 kJ/mol
# Density = 2.119183 g / cm^3
# Si number density = 21.240170 Si / 1000 Ang^3
#
#
#
# Elastic Constant Matrix: (Units=GPa)
#
#
# Indices 1 2 3 4 5 6 
#
# 1 45.9534 9.1015 18.9849 0.0000 17.3514 0.0000
# 2 9.1015 11.3573 9.1109 0.0000 4.8382 0.0000
# 3 18.9849 9.1109 122.7151 0.0000 16.0816 0.0000
# 4 0.0000 0.0000 0.0000 31.4357 0.0000 2.7068
# 5 17.3514 4.8382 16.0816 0.0000 38.5548 0.0000
# 6 0.0000 0.0000 0.0000 2.7068 0.0000 18.3884
#
#
#
# Elastic Compliance Matrix: (Units=1/GPa)
#
#
# Indices 1 2 3 4 5 6 
#
# 1 0.030101 -0.018107 -0.001941 0.000000 -0.010465 0.000000
# 2 -0.018107 0.107824 -0.004759 0.000000 -0.003397 0.000000
# 3 -0.001941 -0.004759 0.009108 0.000000 -0.002328 0.000000
# 4 0.000000 0.000000 0.000000 0.032219 0.000000 -0.004743
# 5 -0.010465 -0.003397 -0.002328 0.000000 0.032044 0.000000
# 6 0.000000 0.000000 0.000000 -0.004743 0.000000 0.055080
#
#
# Mechanical properties :
#
#
# Convention : Reuss Voigt Hill
#
# Bulk Modulus (GPa) = 10.26497 28.26895 19.26696
# Shear Modulus (GPa) = 14.34869 27.19767 20.77318
#
# Velocity S-wave (km/s) = 2.60194 3.58227 3.13071
# Velocity P-wave (km/s) = 3.72426 5.51799 4.70735
#
# Compressibility (1/GPa) = 0.09741867
#
# Stress axis : x y z
#
# Youngs Moduli (GPa) = 33.22172 9.27433 109.79742
#
# Poissons Ratio (x) = 0.16793 0.21312
# Poissons Ratio (y) = 0.60155 0.52252
# Poissons Ratio (z) = 0.06449 0.04414
#
# Static dielectric constant tensor:
#      x y z
#    x 1.776170 0.000000 0.024760 
#    y 0.000000 1.828860 0.000000 
#    z 0.024760 0.000000 1.825530 
# 
# From -- ./inp_files/248572.got.cif
#   From: 2010.05.17/outbox.cif.g08.bks.cpg/sg15_125_cif.got.tgz:248572.got - 2010.06.03 18:47:42.
