data_PCOD9270914
_publ_section_title
;
Structure prediction by ZEFSAII (Michael W. Deem and Ramdas Pophale) SiO2 
 PCOD9270914
Probable space group: C 2/C
;
_chemical_formula_sum "Si O2"
_cell_formula_units_Z 64
_cell_length_a 8.629812
_cell_length_b 14.173192
_cell_length_c 27.734905
_cell_angle_alpha 90.000000
_cell_angle_beta 81.402744
_cell_angle_gamma 90.000000
_cell_volume 3354.193648
_symmetry_space_group_name_H-M "C 2/C"
_symmetry_group_IT_number 15
_symmetry_cell_setting 'monoclinic'
loop_
_space_group_symop_operation_xyz
x,y,z
-x,y,1/2-z
-x,-y,-z
x,-y,1/2+z
1/2+x,1/2+y,z
1/2-x,1/2+y,1/2-z
1/2-x,1/2-y,-z
1/2+x,1/2-y,1/2+z
loop_
_atom_site_type_symbol
_atom_site_label
_atom_site_fract_x
_atom_site_fract_y
_atom_site_fract_z
Si Si1 0.173037 0.002393 0.091219
Si Si2 0.980911 0.197636 0.194486
Si Si3 0.834750 0.459603 0.988917
Si Si4 0.711085 0.799763 0.886372
Si Si5 0.336795 0.155914 0.629015
Si Si6 0.856828 0.314640 0.906658
Si Si7 0.662671 0.462271 0.857445
Si Si8 0.811828 0.393439 0.408154
O O1 0.273974 0.097478 0.090791
O O2 0.993891 0.032868 0.102968
O O3 0.215968 0.931269 0.133049
O O4 0.218690 0.953210 0.039321
O O5 0.152118 0.200747 0.160639
O O6 0.000000 0.211042 0.250000
O O7 0.877896 0.280739 0.173982
O O8 0.899054 0.096307 0.185933
O O9 0.858093 0.362015 0.959159
O O10 0.771987 0.536349 0.953293
O O11 0.000000 0.500000 0.000000
O O12 0.530028 0.785800 0.881667
O O13 0.754043 0.712476 0.918624
O O14 0.266022 0.230791 0.594577
O O15 0.501195 0.111416 0.605248
O O16 0.794895 0.396144 0.874171
O O17 0.736894 0.566020 0.861596
#
# Coordination Sequence:
#
# PCOD9270914 Si02
#       8
#     8   8   8   8   8   8   8   8
#     4  11  20  36  56  82 114 155 187 232 275 321
#     4   9  20  40  63  87 108 136 182 233 285 352
#     4  11  20  36  55  81 116 151 202 232 262 329
#     4  10  20  36  58  80 113 150 182 229 289 325
#     4  10  20  36  58  80 115 148 180 228 287 326
#     4  10  20  36  55  81 113 152 186 230 274 326
#     4   9  20  37  58  80 113 147 183 230 286 325
#     4  10  20  36  55  79 112 152 186 229 272 325
#
# _framework density 19.080593
#
# number of rings (size 3 to 8) (size 9 to 14) (size 15 to 20)
#    0.000    2.000    2.500    2.250    0.000    3.000 
#    0.000    7.500    0.000    0.000    0.000    0.000 
#    0.000    0.000    0.000    0.000    0.000    0.000 
#
# Total GULP energy -178193.830632 kJ/mol
# GULP energy per Si atom -5568.557207 kJ/mol
# Density = 1.903716 g / cm^3
# Si number density = 19.080593 Si / 1000 Ang^3
#
#
#
# Elastic Constant Matrix: (Units=GPa)
#
#
# Indices 1 2 3 4 5 6 
#
# 1 79.6450 2.1731 24.3674 0.0000 7.7292 0.0000
# 2 2.1731 89.0952 30.4933 0.0000 15.3493 0.0000
# 3 24.3674 30.4933 77.6022 0.0000 17.8161 0.0000
# 4 0.0000 0.0000 0.0000 19.0280 0.0000 8.9303
# 5 7.7292 15.3493 17.8161 0.0000 19.2529 0.0000
# 6 0.0000 0.0000 0.0000 8.9303 0.0000 41.5943
#
#
#
# Elastic Compliance Matrix: (Units=1/GPa)
#
#
# Indices 1 2 3 4 5 6 
#
# 1 0.014149 0.001674 -0.004431 0.000000 -0.002914 0.000000
# 2 0.001674 0.013988 -0.004200 0.000000 -0.007937 0.000000
# 3 -0.004431 -0.004200 0.018730 0.000000 -0.012205 0.000000
# 4 0.000000 0.000000 0.000000 0.058443 0.000000 -0.012548
# 5 -0.002914 -0.007937 -0.012205 0.000000 0.070732 0.000000
# 6 0.000000 0.000000 0.000000 -0.012548 0.000000 0.026736
#
#
# Mechanical properties :
#
#
# Convention : Reuss Voigt Hill
#
# Bulk Modulus (GPa) = 30.34766 40.04555 35.19661
# Shear Modulus (GPa) = 21.96096 28.59561 25.27828
#
# Velocity S-wave (km/s) = 3.39626 3.87547 3.64375
# Velocity P-wave (km/s) = 5.59633 6.40772 6.01572
#
# Compressibility (1/GPa) = 0.03295146
#
# Stress axis : x y z
#
# Youngs Moduli (GPa) = 70.67839 71.49013 53.39018
#
# Poissons Ratio (x) = -0.11964 0.23659
# Poissons Ratio (y) = -0.11828 0.22422
# Poissons Ratio (z) = 0.31321 0.30023
#
# Static dielectric constant tensor:
#      x y z
#    x 1.683510 0.000000 0.030340 
#    y 0.000000 1.721600 0.000000 
#    z 0.030340 0.000000 1.644510 
# 
# From -- ./inp_files/288773.got.cif
#   From: 2010.05.17/outbox.cif.g08.bks.cpg/sg15_145_cif.got.tgz:288773.got - 2010.06.03 18:47:42.
