data_PCOD9270741
_publ_section_title
;
Structure prediction by ZEFSAII (Michael W. Deem and Ramdas Pophale) SiO2 
 PCOD9270741
Probable space group: C 2/C
;
_chemical_formula_sum "Si O2"
_cell_formula_units_Z 48
_cell_length_a 12.038230
_cell_length_b 13.262085
_cell_length_c 12.403878
_cell_angle_alpha 90.000000
_cell_angle_beta 111.659811
_cell_angle_gamma 90.000000
_cell_volume 1840.478366
_symmetry_space_group_name_H-M "C 2/C"
_symmetry_group_IT_number 15
_symmetry_cell_setting 'monoclinic'
loop_
_space_group_symop_operation_xyz
x,y,z
-x,y,1/2-z
-x,-y,-z
x,-y,1/2+z
1/2+x,1/2+y,z
1/2-x,1/2+y,1/2-z
1/2-x,1/2-y,-z
1/2+x,1/2-y,1/2+z
loop_
_atom_site_type_symbol
_atom_site_label
_atom_site_fract_x
_atom_site_fract_y
_atom_site_fract_z
Si Si1 0.731641 0.721945 0.157277
Si Si2 0.094147 0.568645 0.196351
Si Si3 0.363415 0.220033 0.666037
Si Si4 0.029874 0.978959 0.383503
Si Si5 0.229014 0.573896 0.042483
Si Si6 0.050212 0.232381 0.916893
O O1 0.783072 0.611049 0.206383
O O2 0.714592 0.791666 0.254451
O O3 0.833283 0.761363 0.115454
O O4 0.602830 0.719924 0.054790
O O5 0.141053 0.525233 0.100602
O O6 0.000000 0.525266 0.250000
O O7 0.026303 0.669338 0.130520
O O8 0.500000 0.230149 0.750000
O O9 0.310471 0.326793 0.603231
O O10 0.344306 0.126018 0.579835
O O11 0.173092 0.989494 0.442822
O O12 0.000000 0.022648 0.250000
O O13 0.980033 0.866177 0.359223
O O14 0.000000 0.000000 0.500000
#
# Coordination Sequence:
#
# PCOD9270741 Si02
#       6
#     8   8   8   8   8   8
#     4   9  19  34  63  89 120 169 223 275 319 395
#     4   9  18  36  64  89 123 165 228 276 325 390
#     4  10  20  35  63  91 137 171 234 278 342 400
#     4  12  29  43  68 101 144 178 219 281 358 414
#     4  10  23  37  62  99 136 180 223 287 346 410
#     4  10  21  39  64  96 125 170 223 277 334 402
#
# _framework density 26.080178
#
# number of rings (size 3 to 8) (size 9 to 14) (size 15 to 20)
#    0.000    2.000    0.000    3.000   16.333    0.000 
#    0.000    0.000    0.000   22.000    0.000    0.000 
#    0.000    0.000    0.000    0.000    0.000    0.000 
#
# Total GULP energy -133860.197564 kJ/mol
# GULP energy per Si atom -5577.508232 kJ/mol
# Density = 2.602082 g / cm^3
# Si number density = 26.080178 Si / 1000 Ang^3
#
#
#
# Elastic Constant Matrix: (Units=GPa)
#
#
# Indices 1 2 3 4 5 6 
#
# 1 143.2935 6.1176 46.5546 0.0000 -22.7152 0.0000
# 2 6.1176 40.5036 5.6243 0.0000 8.4516 0.0000
# 3 46.5546 5.6243 149.1562 0.0000 4.6728 0.0000
# 4 0.0000 0.0000 0.0000 17.6754 0.0000 20.5158
# 5 -22.7152 8.4516 4.6728 0.0000 65.4267 0.0000
# 6 0.0000 0.0000 0.0000 20.5158 0.0000 19.8860
#
#
#
# Elastic Compliance Matrix: (Units=1/GPa)
#
#
# Indices 1 2 3 4 5 6 
#
# 1 0.008446 -0.001598 -0.002680 0.000000 0.003330 0.000000
# 2 -0.001598 0.025785 -0.000352 0.000000 -0.003861 0.000000
# 3 -0.002680 -0.000352 0.007599 0.000000 -0.001428 0.000000
# 4 0.000000 0.000000 0.000000 -0.286529 0.000000 0.295603
# 5 0.003330 -0.003861 -0.001428 0.000000 0.017041 0.000000
# 6 0.000000 0.000000 0.000000 0.295603 0.000000 -0.254678
#
#
# Mechanical properties :
#
#
# Convention : Reuss Voigt Hill
#
# Bulk Modulus (GPa) = 30.70516 49.94958 40.32737
# Shear Modulus (GPa) = -10.81739 38.90807 14.04534
#
# Velocity S-wave (km/s) = -2.03881 3.86666 2.32317
# Velocity P-wave (km/s) = 2.50132 6.25529 4.76367
#
# Compressibility (1/GPa) = 0.03256781
#
# Stress axis : x y z
#
# Youngs Moduli (GPa) = 118.40582 38.78208 131.59798
#
# Poissons Ratio (x) = 0.06199 0.35269
# Poissons Ratio (y) = 0.18925 0.04639
# Poissons Ratio (z) = 0.31734 0.01367
#
# Static dielectric constant tensor:
#      x y z
#    x 1.923930 0.000000 0.116890 
#    y 0.000000 2.091530 0.000000 
#    z 0.116890 0.000000 1.803340 
# 
# From -- ./inp_files/87862.got.cif
#   From: 2010.05.17/outbox.cif.g08.bks.cpg/sg15_44_cif.got.tgz:87862.got - 2010.06.03 18:47:42.
