data_PCOD9270925
_publ_section_title
;
Structure prediction by ZEFSAII (Michael W. Deem and Ramdas Pophale) SiO2 
 PCOD9270925
Probable space group: C 2/C
;
_chemical_formula_sum "Si O2"
_cell_formula_units_Z 48
_cell_length_a 8.620647
_cell_length_b 18.893646
_cell_length_c 21.377131
_cell_angle_alpha 90.000000
_cell_angle_beta 42.355280
_cell_angle_gamma 90.000000
_cell_volume 2345.785186
_symmetry_space_group_name_H-M "C 2/C"
_symmetry_group_IT_number 15
_symmetry_cell_setting 'monoclinic'
loop_
_space_group_symop_operation_xyz
x,y,z
-x,y,1/2-z
-x,-y,-z
x,-y,1/2+z
1/2+x,1/2+y,z
1/2-x,1/2+y,1/2-z
1/2-x,1/2-y,-z
1/2+x,1/2-y,1/2+z
loop_
_atom_site_type_symbol
_atom_site_label
_atom_site_fract_x
_atom_site_fract_y
_atom_site_fract_z
Si Si1 0.000000 0.715394 0.250000
Si Si2 0.299946 0.056854 0.568460
Si Si3 0.500000 0.483674 0.750000
Si Si4 0.793329 0.838233 0.039492
Si Si5 0.885111 0.034777 0.594554
Si Si6 0.407723 0.789960 0.064927
Si Si7 0.359130 0.401172 0.668759
O O1 0.844891 0.762776 0.341688
O O2 0.818769 0.662643 0.271021
O O3 0.395375 0.135528 0.534558
O O4 0.089940 0.051361 0.582248
O O5 0.500000 0.000000 0.500000
O O6 0.199174 0.036322 0.666561
O O7 0.442453 0.432640 0.709361
O O8 0.955814 0.772638 0.010370
O O9 0.932994 0.873440 0.938593
O O10 0.765168 0.895380 0.102893
O O11 0.557212 0.806873 0.082877
O O12 0.752278 0.969453 0.665292
O O13 0.000000 0.000000 0.500000
#
# Coordination Sequence:
#
# PCOD9270925 Si02
#       7
#     4   8   4   8   8   8   8
#     4  10  21  36  56  82 117 152 184 236 291 346
#     4  11  22  36  60  87 116 154 196 245 290 340
#     4  10  21  36  56  84 117 148 194 240 283 344
#     4   9  19  37  59  79 114 155 191 238 287 349
#     4   9  18  35  57  85 111 145 194 235 286 344
#     4  10  20  36  55  82 116 152 191 234 294 344
#     4   9  19  36  57  83 113 150 190 235 288 338
#
# _framework density 20.462233000000001
#
# number of rings (size 3 to 8) (size 9 to 14) (size 15 to 20)
#    0.000    2.333    0.000    3.500    0.000    6.000 
#    0.000    5.000    0.000    0.000    0.000    1.167 
#    0.000    0.000    0.000    0.000    0.000    0.000 
#
# Total GULP energy -133799.327395 kJ/mol
# GULP energy per Si atom -5574.971975 kJ/mol
# Density = 2.041566 g / cm^3
# Si number density = 20.462233 Si / 1000 Ang^3
#
#
#
# Elastic Constant Matrix: (Units=GPa)
#
#
# Indices 1 2 3 4 5 6 
#
# 1 33.3885 17.8043 17.8283 -0.0018 3.0744 0.0026
# 2 17.8043 132.9090 25.8378 0.0000 7.2017 0.0006
# 3 17.8283 25.8378 61.7329 0.0022 -5.1280 -0.0004
# 4 -0.0018 0.0000 0.0022 16.8082 0.0000 0.1421
# 5 3.0744 7.2017 -5.1280 0.0000 24.8161 -0.0014
# 6 0.0026 0.0006 -0.0004 0.1421 -0.0014 42.9145
#
#
#
# Elastic Compliance Matrix: (Units=1/GPa)
#
#
# Indices 1 2 3 4 5 6 
#
# 1 0.037362 -0.002710 -0.010149 0.000005 -0.005939 -0.000003
# 2 -0.002710 0.008635 -0.003064 0.000000 -0.002803 0.000000
# 3 -0.010149 -0.003064 0.020950 -0.000004 0.006476 0.000001
# 4 0.000005 0.000000 -0.000004 0.059496 -0.000001 -0.000197
# 5 -0.005939 -0.002803 0.006476 -0.000001 0.043184 0.000002
# 6 -0.000003 0.000000 0.000001 -0.000197 0.000002 0.023303
#
#
# Mechanical properties :
#
#
# Convention : Reuss Voigt Hill
#
# Bulk Modulus (GPa) = 28.49006 38.99682 33.74344
# Shear Modulus (GPa) = 21.14378 28.01176 24.57777
#
# Velocity S-wave (km/s) = 3.21800 3.70395 3.46949
# Velocity P-wave (km/s) = 5.26885 6.11487 5.70756
#
# Compressibility (1/GPa) = 0.03509996
#
# Stress axis : x y z
#
# Youngs Moduli (GPa) = 26.76533 115.81382 47.73215
#
# Poissons Ratio (x) = 0.31387 0.48444
# Poissons Ratio (y) = 0.07254 0.14626
# Poissons Ratio (z) = 0.27164 0.35487
#
# Static dielectric constant tensor:
#      x y z
#    x 1.733560 0.000000 -0.035860 
#    y 0.000000 1.768890 0.000000 
#    z -0.035860 0.000000 1.779590 
# 
# From -- ./inp_files/233412.got.cif
#   From: 2010.05.17/outbox.cif.g08.bks.cpg/sg15_117_cif.got.tgz:233412.got - 2010.06.03 18:47:42.
