data_PCOD9270531
_publ_section_title
;
Structure prediction by ZEFSAII (Michael W. Deem and Ramdas Pophale) SiO2 
 PCOD9270531
Probable space group: C 2/C
;
_chemical_formula_sum "Si O2"
_cell_formula_units_Z 64
_cell_length_a 14.221421
_cell_length_b 18.322344
_cell_length_c 13.928688
_cell_angle_alpha 90.000000
_cell_angle_beta 123.037396
_cell_angle_gamma 90.000000
_cell_volume 3042.575949
_symmetry_space_group_name_H-M "C 2/C"
_symmetry_group_IT_number 15
_symmetry_cell_setting 'monoclinic'
loop_
_space_group_symop_operation_xyz
x,y,z
-x,y,1/2-z
-x,-y,-z
x,-y,1/2+z
1/2+x,1/2+y,z
1/2-x,1/2+y,1/2-z
1/2-x,1/2-y,-z
1/2+x,1/2-y,1/2+z
loop_
_atom_site_type_symbol
_atom_site_label
_atom_site_fract_x
_atom_site_fract_y
_atom_site_fract_z
Si Si1 0.775814 0.107008 0.990858
Si Si2 0.912834 0.392376 0.780620
Si Si3 0.035173 0.228743 0.379413
Si Si4 0.666066 0.631064 0.161364
Si Si5 0.861321 0.442277 0.253932
Si Si6 0.933224 0.616109 0.511416
Si Si7 0.904148 0.040712 0.558381
Si Si8 0.648315 0.521487 0.751426
O O1 0.686696 0.111880 0.853735
O O2 0.857636 0.174246 0.057792
O O3 0.691452 0.088709 0.031284
O O4 0.855903 0.039531 0.008332
O O5 0.797114 0.347978 0.731365
O O6 0.877289 0.474290 0.726703
O O7 0.960906 0.398111 0.915518
O O8 0.000000 0.363917 0.750000
O O9 0.065385 0.299132 0.458775
O O10 0.000000 0.245299 0.250000
O O11 0.925645 0.190842 0.364398
O O12 0.648633 0.565287 0.228592
O O13 0.642529 0.597060 0.043763
O O14 0.763010 0.446837 0.276593
O O15 0.975569 0.419840 0.368027
O O16 0.868622 0.046394 0.649341
O O17 0.037938 0.046173 0.632580
#
# Coordination Sequence:
#
# PCOD9270531 Si02
#       8
#     8   8   8   8   8   8   8   8
#     4  12  21  39  68  99 135 165 216 280 338 400
#     4  11  24  43  66  92 128 174 225 284 337 392
#     4  12  25  44  68  98 139 179 221 271 331 413
#     4  11  22  40  65  97 129 172 217 273 339 396
#     4  11  23  39  66  98 134 166 223 277 347 395
#     4  12  27  42  64  96 134 183 227 265 337 403
#     4  11  20  35  64  96 132 159 218 272 342 384
#     4  10  20  35  59  98 126 169 203 273 337 396
#
# _framework density 21.034808000000002
#
# number of rings (size 3 to 8) (size 9 to 14) (size 15 to 20)
#    0.000    0.750    3.750    6.750    1.750    1.000 
#    0.000    0.625    5.500    0.000    0.000    0.000 
#    0.000    0.000    0.000    0.000    0.000    0.000 
#
# Total GULP energy -178849.211190 kJ/mol
# GULP energy per Si atom -5589.037850 kJ/mol
# Density = 2.098693 g / cm^3
# Si number density = 21.034808 Si / 1000 Ang^3
#
#
#
# Elastic Constant Matrix: (Units=GPa)
#
#
# Indices 1 2 3 4 5 6 
#
# 1 116.9208 9.5264 21.4874 0.0000 4.4351 0.0000
# 2 9.5264 23.0213 13.5888 0.0000 -0.5223 0.0000
# 3 21.4874 13.5888 113.9788 0.0000 2.8791 0.0000
# 4 0.0000 0.0000 0.0000 17.9622 0.0000 4.6968
# 5 4.4351 -0.5223 2.8791 0.0000 43.3825 0.0000
# 6 0.0000 0.0000 0.0000 4.6968 0.0000 17.3959
#
#
#
# Elastic Compliance Matrix: (Units=1/GPa)
#
#
# Indices 1 2 3 4 5 6 
#
# 1 0.009074 -0.002988 -0.001332 0.000000 -0.000875 0.000000
# 2 -0.002988 0.047748 -0.005160 0.000000 0.001223 0.000000
# 3 -0.001332 -0.005160 0.009654 0.000000 -0.000567 0.000000
# 4 0.000000 0.000000 0.000000 0.059902 0.000000 -0.016173
# 5 -0.000875 0.001223 -0.000567 0.000000 0.023193 0.000000
# 6 0.000000 0.000000 0.000000 -0.016173 0.000000 0.061852
#
#
# Mechanical properties :
#
#
# Convention : Reuss Voigt Hill
#
# Bulk Modulus (GPa) = 21.04600 38.12511 29.58555
# Shear Modulus (GPa) = 20.30683 29.70267 25.00475
#
# Velocity S-wave (km/s) = 3.11045 3.76183 3.45154
# Velocity P-wave (km/s) = 4.78820 6.08544 5.47538
#
# Compressibility (1/GPa) = 0.04751497
#
# Stress axis : x y z
#
# Youngs Moduli (GPa) = 110.20088 20.94319 103.58133
#
# Poissons Ratio (x) = 0.06259 0.13800
# Poissons Ratio (y) = 0.32933 0.53450
# Poissons Ratio (z) = 0.14682 0.10807
#
# Static dielectric constant tensor:
#      x y z
#    x 1.762510 0.000000 -0.005780 
#    y 0.000000 1.743330 0.000000 
#    z -0.005780 0.000000 1.799910 
# 
# From -- ./inp_files/155520.got.cif
#   From: 2010.05.17/outbox.cif.g08.bks.cpg/sg15_78_cif.got.tgz:155520.got - 2010.06.03 18:47:42.
