data_PCOD9270169
_publ_section_title
;
Structure prediction by ZEFSAII (Michael W. Deem and Ramdas Pophale) SiO2 
 PCOD9270169
Probable space group: C 2/C
;
_chemical_formula_sum "Si O2"
_cell_formula_units_Z 56
_cell_length_a 20.008685
_cell_length_b 26.975822
_cell_length_c 8.332695
_cell_angle_alpha 90.000000
_cell_angle_beta 35.866011
_cell_angle_gamma 90.000000
_cell_volume 2635.093812
_symmetry_space_group_name_H-M "C 2/C"
_symmetry_group_IT_number 15
_symmetry_cell_setting 'monoclinic'
loop_
_space_group_symop_operation_xyz
x,y,z
-x,y,1/2-z
-x,-y,-z
x,-y,1/2+z
1/2+x,1/2+y,z
1/2-x,1/2+y,1/2-z
1/2-x,1/2-y,-z
1/2+x,1/2-y,1/2+z
loop_
_atom_site_type_symbol
_atom_site_label
_atom_site_fract_x
_atom_site_fract_y
_atom_site_fract_z
Si Si1 0.873165 0.670890 0.475722
Si Si2 0.758207 0.982500 0.510864
Si Si3 0.373913 0.058325 0.530977
Si Si4 0.306945 0.206618 0.280082
Si Si5 0.614890 0.332123 0.924564
Si Si6 0.880902 0.056873 0.072767
Si Si7 0.379684 0.289750 0.923691
O O1 0.881105 0.617044 0.541003
O O2 0.862298 0.670844 0.303352
O O3 0.000000 0.695846 0.250000
O O4 0.749073 0.690770 0.780158
O O5 0.864321 0.012772 0.230597
O O6 0.704700 0.950997 0.471860
O O7 0.789157 0.951563 0.608579
O O8 0.675558 0.026841 0.727177
O O9 0.500000 0.039460 0.250000
O O10 0.250000 0.250000 0.500000
O O11 0.213604 0.178843 0.357955
O O12 0.381440 0.236639 0.007303
O O13 0.628145 0.388355 0.834642
O O14 0.615292 0.293700 0.777523
O O15 0.500000 0.329019 0.250000
O O16 0.000000 0.054238 0.750000
O O17 0.500000 0.314990 0.750000
#
# Coordination Sequence:
#
# PCOD9270169 Si02
#       7
#     8   8   8   8   8   8   8
#     4  10  22  41  63  89 122 160 202 251 302 357
#     4  10  20  35  56  84 117 153 196 240 288 347
#     4  10  20  36  58  84 116 154 195 241 292 347
#     4  10  22  38  58  85 116 153 196 245 300 355
#     4  11  22  39  61  88 122 160 202 249 301 361
#     4  10  21  36  57  85 118 155 194 240 292 348
#     4  11  24  41  63  91 120 157 201 250 305 363
#
# _framework density 21.251615000000001
#
# number of rings (size 3 to 8) (size 9 to 14) (size 15 to 20)
#    0.000    1.714    0.000    4.714    0.000    6.857 
#    0.000    3.571    0.000    6.857    0.000    0.000 
#    0.000    0.000    0.000    0.000    0.000    0.000 
#
# Total GULP energy -156067.408120 kJ/mol
# GULP energy per Si atom -5573.836004 kJ/mol
# Density = 2.120325 g / cm^3
# Si number density = 21.251615 Si / 1000 Ang^3
#
#
#
# Elastic Constant Matrix: (Units=GPa)
#
#
# Indices 1 2 3 4 5 6 
#
# 1 83.2014 -16.5463 22.2604 0.0000 -5.0020 0.0000
# 2 -16.5463 37.6859 22.3826 0.0000 0.1944 0.0000
# 3 22.2604 22.3826 112.5704 0.0000 -21.6340 0.0000
# 4 0.0000 0.0000 0.0000 -24.8482 0.0000 1.0938
# 5 -5.0020 0.1944 -21.6340 0.0000 36.1191 0.0000
# 6 0.0000 0.0000 0.0000 1.0938 0.0000 10.4041
#
#
#
# Elastic Compliance Matrix: (Units=1/GPa)
#
#
# Indices 1 2 3 4 5 6 
#
# 1 0.015285 0.009785 -0.005166 0.000000 -0.001030 0.000000
# 2 0.009785 0.036935 -0.010235 0.000000 -0.004974 0.000000
# 3 -0.005166 -0.010235 0.013350 0.000000 0.007336 0.000000
# 4 0.000000 0.000000 0.000000 -0.040059 0.000000 0.004211
# 5 -0.001030 -0.004974 0.007336 0.000000 0.031964 0.000000
# 6 0.000000 0.000000 0.000000 0.004211 0.000000 0.095673
#
#
# Mechanical properties :
#
#
# Convention : Reuss Voigt Hill
#
# Bulk Modulus (GPa) = 18.40335 32.18345 25.29340
# Shear Modulus (GPa) = 27.39822 18.02574 22.71198
#
# Velocity S-wave (km/s) = 3.59448 2.91556 3.27267
# Velocity P-wave (km/s) = 5.08975 5.14887 5.11940
#
# Compressibility (1/GPa) = 0.05433794
#
# Stress axis : x y z
#
# Youngs Moduli (GPa) = 65.42301 27.07426 74.90827
#
# Poissons Ratio (x) = -0.26491 0.38698
# Poissons Ratio (y) = -0.64014 0.76667
# Poissons Ratio (z) = 0.33798 0.27710
#
# Static dielectric constant tensor:
#      x y z
#    x 1.771600 0.000000 -0.034230 
#    y 0.000000 1.782060 0.000000 
#    z -0.034230 0.000000 1.824610 
# 
# From -- ./inp_files/59348.got.cif
#   From: 2010.05.17/outbox.cif.g08.bks.cpg/sg15_30_cif.got.tgz:59348.got - 2010.06.03 18:47:42.
