data_PCOD9270766
_publ_section_title
;
Structure prediction by ZEFSAII (Michael W. Deem and Ramdas Pophale) SiO2 
 PCOD9270766
Probable space group: C 2/C
;
_chemical_formula_sum "Si O2"
_cell_formula_units_Z 60
_cell_length_a 27.483449
_cell_length_b 8.974156
_cell_length_c 11.521427
_cell_angle_alpha 90.000000
_cell_angle_beta 70.328370
_cell_angle_gamma 90.000000
_cell_volume 2675.807046
_symmetry_space_group_name_H-M "C 2/C"
_symmetry_group_IT_number 15
_symmetry_cell_setting 'monoclinic'
loop_
_space_group_symop_operation_xyz
x,y,z
-x,y,1/2-z
-x,-y,-z
x,-y,1/2+z
1/2+x,1/2+y,z
1/2-x,1/2+y,1/2-z
1/2-x,1/2-y,-z
1/2+x,1/2-y,1/2+z
loop_
_atom_site_type_symbol
_atom_site_label
_atom_site_fract_x
_atom_site_fract_y
_atom_site_fract_z
Si Si1 0.445880 0.075506 0.579666
Si Si2 0.851220 0.709579 0.539044
Si Si3 0.990502 0.175974 0.500393
Si Si4 0.113792 0.298143 0.863915
Si Si5 0.615012 0.445859 0.163955
Si Si6 0.188630 0.799483 0.678463
Si Si7 0.297178 0.922629 0.541026
Si Si8 0.500000 0.630308 0.750000
O O1 0.405902 0.124511 0.511265
O O2 0.467325 0.234125 0.608225
O O3 0.500000 0.000000 0.500000
O O4 0.412058 0.948715 0.670530
O O5 0.862250 0.863606 0.466540
O O6 0.827988 0.740758 0.683675
O O7 0.812985 0.593541 0.509157
O O8 0.997566 0.220089 0.631660
O O9 0.932160 0.225705 0.520659
O O10 0.000000 0.000000 0.500000
O O11 0.125284 0.173121 0.759498
O O12 0.162100 0.348605 0.901669
O O13 0.643006 0.598340 0.166564
O O14 0.553316 0.459815 0.203222
O O15 0.240289 0.899379 0.638339
O O16 0.199362 0.664803 0.582342
#
# Coordination Sequence:
#
# PCOD9270766 Si02
#       8
#     8   8   8   8   8   8   8   4
#     4   9  19  40  61  91 131 177 223 268 332 415
#     4  11  25  45  71  98 139 183 228 282 355 415
#     4  10  20  35  64  92 131 174 222 279 340 406
#     4   9  22  41  66  93 136 179 223 282 343 411
#     4  11  25  42  70 104 137 183 231 284 353 417
#     4  11  28  46  72 102 134 179 238 292 352 417
#     4  10  26  49  69  98 137 176 236 293 350 419
#     4  10  22  38  58  96 136 172 216 276 340 400
#
# _framework density 22.423141999999999
#
# number of rings (size 3 to 8) (size 9 to 14) (size 15 to 20)
#    0.000    1.867    1.333    0.000   13.067    1.600 
#    0.000    0.000    0.000    0.000    0.000    0.000 
#    0.000    0.000    0.000    0.000    0.000    0.000 
#
# Total GULP energy -167492.324648 kJ/mol
# GULP energy per Si atom -5583.077488 kJ/mol
# Density = 2.237211 g / cm^3
# Si number density = 22.423142 Si / 1000 Ang^3
#
#
#
# Elastic Constant Matrix: (Units=GPa)
#
#
# Indices 1 2 3 4 5 6 
#
# 1 96.2541 5.7696 11.5584 0.0000 -32.9154 0.0000
# 2 5.7696 90.0844 8.7173 0.0000 -16.3554 0.0000
# 3 11.5584 8.7173 69.1372 0.0000 -12.8356 0.0000
# 4 0.0000 0.0000 0.0000 22.6551 0.0000 3.0579
# 5 -32.9154 -16.3554 -12.8356 0.0000 23.0472 0.0000
# 6 0.0000 0.0000 0.0000 3.0579 0.0000 27.3628
#
#
#
# Elastic Compliance Matrix: (Units=1/GPa)
#
#
# Indices 1 2 3 4 5 6 
#
# 1 0.022450 0.005044 0.002485 0.000000 0.037026 0.000000
# 2 0.005044 0.013876 0.000639 0.000000 0.017407 0.000000
# 3 0.002485 0.000639 0.016407 0.000000 0.013140 0.000000
# 4 0.000000 0.000000 0.000000 0.044816 0.000000 -0.005008
# 5 0.037026 0.017407 0.013140 0.000000 0.115939 0.000000
# 6 0.000000 0.000000 0.000000 -0.005008 0.000000 0.037106
#
#
# Mechanical properties :
#
#
# Convention : Reuss Voigt Hill
#
# Bulk Modulus (GPa) = 14.47834 34.17405 24.32620
# Shear Modulus (GPa) = 19.43389 29.90837 24.67113
#
# Velocity S-wave (km/s) = 2.94715 3.65611 3.32060
# Velocity P-wave (km/s) = 4.24874 5.75295 5.05709
#
# Compressibility (1/GPa) = 0.06906868
#
# Stress axis : x y z
#
# Youngs Moduli (GPa) = 44.54357 72.06615 60.94774
#
# Poissons Ratio (x) = -0.36350 -0.15144
# Poissons Ratio (y) = -0.22468 -0.03893
# Poissons Ratio (z) = -0.11068 -0.04603
#
# Static dielectric constant tensor:
#      x y z
#    x 1.826320 0.000000 0.003430 
#    y 0.000000 1.889430 0.000000 
#    z 0.003430 0.000000 1.851260 
# 
# From -- ./inp_files/180516.got.cif
#   From: 2010.05.17/outbox.cif.g08.bks.cpg/sg15_91_cif.got.tgz:180516.got - 2010.06.03 18:47:42.
