data_PCOD9270594
_publ_section_title
;
Structure prediction by ZEFSAII (Michael W. Deem and Ramdas Pophale) SiO2 
 PCOD9270594
Probable space group: C 2/C
;
_chemical_formula_sum "Si O2"
_cell_formula_units_Z 56
_cell_length_a 25.517970
_cell_length_b 7.104785
_cell_length_c 17.713235
_cell_angle_alpha 90.000000
_cell_angle_beta 137.635199
_cell_angle_gamma 90.000000
_cell_volume 2164.000101
_symmetry_space_group_name_H-M "C 2/C"
_symmetry_group_IT_number 15
_symmetry_cell_setting 'monoclinic'
loop_
_space_group_symop_operation_xyz
x,y,z
-x,y,1/2-z
-x,-y,-z
x,-y,1/2+z
1/2+x,1/2+y,z
1/2-x,1/2+y,1/2-z
1/2-x,1/2-y,-z
1/2+x,1/2-y,1/2+z
loop_
_atom_site_type_symbol
_atom_site_label
_atom_site_fract_x
_atom_site_fract_y
_atom_site_fract_z
Si Si1 0.160387 0.121165 0.557047
Si Si2 0.996298 0.966343 0.834368
Si Si3 0.284203 0.047508 0.571367
Si Si4 0.286468 0.985378 0.414531
Si Si5 0.376236 0.484808 0.324222
Si Si6 0.052474 0.539798 0.672535
Si Si7 0.413288 0.840065 0.453208
O O1 0.232909 0.026497 0.592173
O O2 0.157345 0.333646 0.523683
O O3 0.084600 0.007827 0.452604
O O4 0.155652 0.142700 0.642146
O O5 0.931094 0.076078 0.813801
O O6 0.976871 0.747283 0.832535
O O7 0.000000 0.003610 0.750000
O O8 0.250000 0.250000 0.500000
O O9 0.275263 0.919151 0.487702
O O10 0.372896 0.019309 0.693636
O O11 0.203231 0.059199 0.297010
O O12 0.328869 0.848171 0.401617
O O13 0.423835 0.643737 0.420202
O O14 0.082657 0.529406 0.617450
O O15 0.976515 0.406880 0.582234
#
# Coordination Sequence:
#
# PCOD9270594 Si02
#       7
#     8   8   8   8   8   8   8
#     4  11  21  37  59  88 120 155 201 244 307 358
#     4  11  20  36  61  88 114 153 201 255 297 349
#     4  10  20  35  60  95 117 151 208 262 295 344
#     4  11  20  38  62  90 113 159 209 249 297 352
#     4  11  23  38  58  90 126 155 196 255 308 370
#     4  10  20  36  58  86 121 152 200 257 298 357
#     4  10  21  37  58  87 121 161 201 245 308 367
#
# _framework density 25.878001000000001
#
# number of rings (size 3 to 8) (size 9 to 14) (size 15 to 20)
#    0.000    1.429    1.429    8.143    0.000    0.000 
#    0.000    0.714    3.143    0.000    0.000    0.000 
#    0.000    0.000    0.000    0.000    0.000    0.000 
#
# Total GULP energy -156226.741928 kJ/mol
# GULP energy per Si atom -5579.526497 kJ/mol
# Density = 2.581910 g / cm^3
# Si number density = 25.878001 Si / 1000 Ang^3
#
#
#
# Elastic Constant Matrix: (Units=GPa)
#
#
# Indices 1 2 3 4 5 6 
#
# 1 183.4742 29.8953 42.3022 0.0000 -17.4794 0.0000
# 2 29.8953 26.6870 9.7368 0.0002 -6.0004 0.0001
# 3 42.3022 9.7368 158.8214 0.0001 -1.7412 0.0000
# 4 0.0000 0.0002 0.0001 19.1821 0.0000 -2.6088
# 5 -17.4794 -6.0004 -1.7412 0.0000 45.8807 0.0000
# 6 0.0000 0.0001 0.0000 -2.6088 0.0000 38.9571
#
#
#
# Elastic Compliance Matrix: (Units=1/GPa)
#
#
# Indices 1 2 3 4 5 6 
#
# 1 0.007092 -0.007032 -0.001439 0.000000 0.001728 0.000000
# 2 -0.007032 0.046446 -0.000938 0.000000 0.003360 0.000000
# 3 -0.001439 -0.000938 0.006733 0.000000 -0.000415 0.000000
# 4 0.000000 0.000000 0.000000 0.052611 0.000000 0.003523
# 5 0.001728 0.003360 -0.000415 0.000000 0.022878 0.000000
# 6 0.000000 0.000000 0.000000 0.003523 0.000000 0.025905
#
#
# Mechanical properties :
#
#
# Convention : Reuss Voigt Hill
#
# Bulk Modulus (GPa) = 24.12296 59.20568 41.66432
# Shear Modulus (GPa) = 25.73342 39.94055 32.83699
#
# Velocity S-wave (km/s) = 3.15685 3.93290 3.56605
# Velocity P-wave (km/s) = 4.75706 6.59939 5.75246
#
# Compressibility (1/GPa) = 0.04145428
#
# Stress axis : x y z
#
# Youngs Moduli (GPa) = 140.99419 21.53036 148.53081
#
# Poissons Ratio (x) = 0.15139 0.21374
# Poissons Ratio (y) = 0.99142 0.13928
# Poissons Ratio (z) = 0.20290 0.02019
#
# Static dielectric constant tensor:
#      x y z
#    x 2.097870 0.000000 -0.060830 
#    y 0.000000 2.198740 0.000000 
#    z -0.060830 0.000000 2.033480 
# 
# From -- ./inp_files/222099.got.cif
#   From: 2010.05.17/outbox.cif.g08.bks.cpg/sg15_112_cif.got.tgz:222099.got - 2010.06.03 18:47:42.
