data_PCOD9270600
_publ_section_title
;
Structure prediction by ZEFSAII (Michael W. Deem and Ramdas Pophale) SiO2 
 PCOD9270600
Probable space group: C 2/C
;
_chemical_formula_sum "Si O2"
_cell_formula_units_Z 44
_cell_length_a 10.223761
_cell_length_b 18.228301
_cell_length_c 11.857725
_cell_angle_alpha 90.000000
_cell_angle_beta 112.902499
_cell_angle_gamma 90.000000
_cell_volume 2035.622773
_symmetry_space_group_name_H-M "C 2/C"
_symmetry_group_IT_number 15
_symmetry_cell_setting 'monoclinic'
loop_
_space_group_symop_operation_xyz
x,y,z
-x,y,1/2-z
-x,-y,-z
x,-y,1/2+z
1/2+x,1/2+y,z
1/2-x,1/2+y,1/2-z
1/2-x,1/2-y,-z
1/2+x,1/2-y,1/2+z
loop_
_atom_site_type_symbol
_atom_site_label
_atom_site_fract_x
_atom_site_fract_y
_atom_site_fract_z
Si Si1 0.326702 0.940269 0.007959
Si Si2 0.850803 0.680301 0.152126
Si Si3 0.141273 0.067459 0.664428
Si Si4 0.867561 0.600445 0.936768
Si Si5 0.000000 0.177856 0.750000
Si Si6 0.363270 0.403496 0.768781
O O1 0.219912 0.924023 0.073231
O O2 0.357363 0.027248 0.011653
O O3 0.477348 0.900247 0.067451
O O4 0.254261 0.918307 0.866443
O O5 0.852321 0.666306 0.019629
O O6 0.713894 0.645324 0.164135
O O7 0.000000 0.645483 0.250000
O O8 0.871704 0.764655 0.194800
O O9 0.016163 0.124628 0.648044
O O10 0.095186 0.983178 0.666029
O O11 0.251906 0.088025 0.801176
O O12 0.500000 0.372176 0.750000
#
# Coordination Sequence:
#
# PCOD9270600 Si02
#       6
#     8   8   8   8   4   8
#     4  10  20  35  60  96 129 155 214 273 300 365
#     4  10  21  43  63  84 129 174 203 251 315 385
#     4  11  22  37  61  97 128 161 211 268 317 359
#     4  10  20  35  65  92 123 173 211 253 313 385
#     4  10  24  42  60  88 136 166 206 260 320 372
#     4  11  22  38  64  94 125 165 214 259 317 368
#
# _framework density 21.615006000000001
#
# number of rings (size 3 to 8) (size 9 to 14) (size 15 to 20)
#    0.545    1.091    4.545    0.545    0.000    2.909 
#    0.000    5.455    0.000    0.000    0.000    0.000 
#    0.000    0.000    0.000    0.000    0.000    0.000 
#
# Total GULP energy -122914.917874 kJ/mol
# GULP energy per Si atom -5587.041722 kJ/mol
# Density = 2.156581 g / cm^3
# Si number density = 21.615006 Si / 1000 Ang^3
#
#
#
# Elastic Constant Matrix: (Units=GPa)
#
#
# Indices 1 2 3 4 5 6 
#
# 1 100.3720 31.1600 3.7682 0.0000 -26.4126 0.0000
# 2 31.1600 90.4295 7.4443 0.0000 -20.9197 0.0000
# 3 3.7682 7.4443 56.6081 0.0000 -12.8694 0.0000
# 4 0.0000 0.0000 0.0000 11.8253 0.0000 -4.7294
# 5 -26.4126 -20.9197 -12.8694 0.0000 51.1017 0.0000
# 6 0.0000 0.0000 0.0000 -4.7294 0.0000 30.4591
#
#
#
# Elastic Compliance Matrix: (Units=1/GPa)
#
#
# Indices 1 2 3 4 5 6 
#
# 1 0.012279 -0.003073 0.000789 0.000000 0.005287 0.000000
# 2 -0.003073 0.012997 -0.000696 0.000000 0.003557 0.000000
# 3 0.000789 -0.000696 0.018809 0.000000 0.004860 0.000000
# 4 0.000000 0.000000 0.000000 0.090164 0.000000 0.014000
# 5 0.005287 0.003557 0.004860 0.000000 0.024982 0.000000
# 6 0.000000 0.000000 0.000000 0.014000 0.000000 0.035005
#
#
# Mechanical properties :
#
#
# Convention : Reuss Voigt Hill
#
# Bulk Modulus (GPa) = 26.22946 36.90607 31.56777
# Shear Modulus (GPa) = 23.48482 32.34634 27.91558
#
# Velocity S-wave (km/s) = 3.29979 3.87263 3.59763
# Velocity P-wave (km/s) = 5.16521 6.09161 5.64744
#
# Compressibility (1/GPa) = 0.03812507
#
# Stress axis : x y z
#
# Youngs Moduli (GPa) = 81.44302 76.93862 53.16565
#
# Poissons Ratio (x) = 0.23641 -0.04193
# Poissons Ratio (y) = 0.25025 0.03700
# Poissons Ratio (z) = -0.06424 0.05355
#
# Static dielectric constant tensor:
#      x y z
#    x 1.820950 0.000000 0.054290 
#    y 0.000000 1.796400 0.000000 
#    z 0.054290 0.000000 1.772010 
# 
# From -- ./inp_files/78311.got.cif
#   From: 2010.05.17/outbox.cif.g08.bks.cpg/sg15_40_cif.got.tgz:78311.got - 2010.06.03 18:47:42.
