data_PCOD9270057
_publ_section_title
;
Structure prediction by ZEFSAII (Michael W. Deem and Ramdas Pophale) SiO2 
 PCOD9270057
Probable space group: C 2/C
;
_chemical_formula_sum "Si O2"
_cell_formula_units_Z 52
_cell_length_a 19.806504
_cell_length_b 21.398132
_cell_length_c 9.743234
_cell_angle_alpha 90.000000
_cell_angle_beta 39.881970
_cell_angle_gamma 90.000000
_cell_volume 2647.804278
_symmetry_space_group_name_H-M "C 2/C"
_symmetry_group_IT_number 15
_symmetry_cell_setting 'monoclinic'
loop_
_space_group_symop_operation_xyz
x,y,z
-x,y,1/2-z
-x,-y,-z
x,-y,1/2+z
1/2+x,1/2+y,z
1/2-x,1/2+y,1/2-z
1/2-x,1/2-y,-z
1/2+x,1/2-y,1/2+z
loop_
_atom_site_type_symbol
_atom_site_label
_atom_site_fract_x
_atom_site_fract_y
_atom_site_fract_z
Si Si1 0.000000 0.975780 0.250000
Si Si2 0.320759 0.578537 0.508627
Si Si3 0.838735 0.520941 0.147902
Si Si4 0.880023 0.773591 0.431544
Si Si5 0.096769 0.567550 0.182691
Si Si6 0.219499 0.161334 0.672758
Si Si7 0.145481 0.894065 0.850450
O O1 0.904783 0.022407 0.369124
O O2 0.959166 0.932542 0.438772
O O3 0.211947 0.541327 0.703742
O O4 0.334173 0.626746 0.614065
O O5 0.333188 0.610745 0.343442
O O6 0.916702 0.552061 0.136266
O O7 0.743856 0.567975 0.260912
O O8 0.883835 0.495294 0.935504
O O9 0.856277 0.808597 0.323449
O O10 0.797967 0.718154 0.586170
O O11 0.863828 0.826877 0.568728
O O12 0.000000 0.751494 0.250000
O O13 0.000000 0.597929 0.250000
O O14 0.202911 0.608534 0.010575
#
# Coordination Sequence:
#
# PCOD9270057 Si02
#       7
#     4   8   8   8   8   8   8
#     4  10  22  32  62 102 124 158 198 246 318 376
#     4  10  22  36  59  88 132 154 193 256 314 366
#     4  10  20  35  54  87 121 154 193 248 311 364
#     4  11  23  41  66  85 116 162 214 248 297 364
#     4  11  20  36  59  85 118 157 201 247 303 368
#     4  10  24  42  59  88 119 162 204 253 302 360
#     4  11  20  36  60  87 124 157 198 253 306 365
#
# _framework density 19.638914
#
# number of rings (size 3 to 8) (size 9 to 14) (size 15 to 20)
#    0.000    1.538    3.846    1.385    2.154    0.615 
#    0.000    0.000    0.000    0.000    0.000    0.000 
#    0.000    0.000    0.000    0.000    0.000    0.000 
#
# Total GULP energy -145050.986818 kJ/mol
# GULP energy per Si atom -5578.884108 kJ/mol
# Density = 1.959421 g / cm^3
# Si number density = 19.638914 Si / 1000 Ang^3
#
#
#
# Elastic Constant Matrix: (Units=GPa)
#
#
# Indices 1 2 3 4 5 6 
#
# 1 52.3512 -6.3650 -3.6767 0.0016 1.0844 -0.0004
# 2 -6.3650 49.1003 -10.2836 0.0004 6.4870 -0.0001
# 3 -3.6767 -10.2836 26.0594 0.0015 5.8397 -0.0004
# 4 0.0016 0.0004 0.0015-3329.8654 -0.0017 755.2952
# 5 1.0844 6.4870 5.8397 -0.0017 34.4520 0.0004
# 6 -0.0004 -0.0001 -0.0004 755.2952 0.0004 -156.7341
#
#
#
# Elastic Compliance Matrix: (Units=1/GPa)
#
#
# Indices 1 2 3 4 5 6 
#
# 1 0.019960 0.003889 0.004840 0.000000 -0.002181 0.000000
# 2 0.003889 0.024171 0.011574 0.000000 -0.006636 0.000000
# 3 0.004840 0.011574 0.045890 0.000000 -0.010110 0.000000
# 4 0.000000 0.000000 0.000000 0.003227 0.000000 0.015551
# 5 -0.002181 -0.006636 -0.010110 0.000000 0.032058 0.000000
# 6 0.000000 0.000000 0.000000 0.015551 0.000000 0.068562
#
#
# Mechanical properties :
#
#
# Convention : Reuss Voigt Hill
#
# Bulk Modulus (GPa) = 7.65539 9.65114 8.65327
# Shear Modulus (GPa) = 25.40603 -680.57374 -327.58385
#
# Velocity S-wave (km/s) = 3.60065 -18.63587 -12.92925
# Velocity P-wave (km/s) = 4.60356 21.40411 14.78079
#
# Compressibility (1/GPa) = 0.13062688
#
# Stress axis : x y z
#
# Youngs Moduli (GPa) = 50.10101 41.37113 21.79134
#
# Poissons Ratio (x) = -0.16090 -0.10546
# Poissons Ratio (y) = -0.19485 -0.25222
# Poissons Ratio (z) = -0.24247 -0.47884
#
# Static dielectric constant tensor:
#      x y z
#    x 1.758810 0.000000 -0.047380 
#    y 0.000000 1.670490 0.000000 
#    z -0.047380 0.000000 1.722950 
# 
# From -- ./inp_files/40769.got.cif
#   From: 2010.05.17/outbox.cif.g08.bks.cpg/sg15_21_cif.got.tgz:40769.got - 2010.06.03 18:47:42.
