data_PCOD9270440
_publ_section_title
;
Structure prediction by ZEFSAII (Michael W. Deem and Ramdas Pophale) SiO2 
 PCOD9270440
Probable space group: C 2/C
;
_chemical_formula_sum "Si O2"
_cell_formula_units_Z 28
_cell_length_a 12.025813
_cell_length_b 19.748996
_cell_length_c 5.796531
_cell_angle_alpha 90.000000
_cell_angle_beta 109.189478
_cell_angle_gamma 90.000000
_cell_volume 1300.171100
_symmetry_space_group_name_H-M "C 2/C"
_symmetry_group_IT_number 15
_symmetry_cell_setting 'monoclinic'
loop_
_space_group_symop_operation_xyz
x,y,z
-x,y,1/2-z
-x,-y,-z
x,-y,1/2+z
1/2+x,1/2+y,z
1/2-x,1/2+y,1/2-z
1/2-x,1/2-y,-z
1/2+x,1/2-y,1/2+z
loop_
_atom_site_type_symbol
_atom_site_label
_atom_site_fract_x
_atom_site_fract_y
_atom_site_fract_z
Si Si1 0.668110 0.781275 0.637463
Si Si2 0.000000 0.961917 0.250000
Si Si3 0.967687 0.612858 0.968919
Si Si4 0.793887 0.854792 0.089985
O O1 0.750000 0.750000 0.500000
O O2 0.544810 0.817789 0.509632
O O3 0.651619 0.716767 0.792819
O O4 0.748376 0.840136 0.802544
O O5 0.885458 0.914249 0.173963
O O6 0.000000 0.000000 0.500000
O O7 0.828966 0.628507 0.866104
O O8 0.000000 0.575762 0.750000
O O9 0.000000 0.585691 0.250000
#
# Coordination Sequence:
#
# PCOD9270440 Si02
#       4
#     8   4   8   8
#     4  10  20  35  67 109 143 171 209 295 383 428
#     4  12  32  52  72  94 138 208 258 292 336 418
#     4  10  20  35  58  99 139 165 207 270 360 427
#     4  10  24  41  65  99 142 178 238 289 354 425
#
# _framework density 21.535627000000002
#
# number of rings (size 3 to 8) (size 9 to 14) (size 15 to 20)
#    0.000    1.714    2.857    0.000   14.000    0.000 
#    0.000    0.000    0.000   22.286    0.000    0.000 
#    0.000    0.000    0.000    0.000    0.000    0.000 
#
# Total GULP energy -77992.851103 kJ/mol
# GULP energy per Si atom -5570.917936 kJ/mol
# Density = 2.148661 g / cm^3
# Si number density = 21.535627 Si / 1000 Ang^3
#
#
#
# Elastic Constant Matrix: (Units=GPa)
#
#
# Indices 1 2 3 4 5 6 
#
# 1 178.8560 69.3896 65.6023 0.0000 16.7307 0.0000
# 2 69.3896 98.6095 57.3946 0.0000 21.3509 0.0000
# 3 65.6023 57.3946 143.6034 0.0000 -8.1564 0.0000
# 4 0.0000 0.0000 0.0000 18.5626 0.0000 15.3993
# 5 16.7307 21.3509 -8.1564 0.0000 42.3370 0.0000
# 6 0.0000 0.0000 0.0000 15.3993 0.0000 19.5934
#
#
#
# Elastic Compliance Matrix: (Units=1/GPa)
#
#
# Indices 1 2 3 4 5 6 
#
# 1 0.008127 -0.004136 -0.002147 0.000000 -0.001540 0.000000
# 2 -0.004136 0.018443 -0.005983 0.000000 -0.008819 0.000000
# 3 -0.002147 -0.005983 0.010672 0.000000 0.005922 0.000000
# 4 0.000000 0.000000 0.000000 0.154808 0.000000 -0.121670
# 5 -0.001540 -0.008819 0.005922 0.000000 0.029817 0.000000
# 6 0.000000 0.000000 0.000000 -0.121670 0.000000 0.146664
#
#
# Mechanical properties :
#
#
# Convention : Reuss Voigt Hill
#
# Bulk Modulus (GPa) = 78.67397 89.53799 84.10598
# Shear Modulus (GPa) = 12.58497 31.34409 21.96453
#
# Velocity S-wave (km/s) = 2.42002 3.81918 3.19708
# Velocity P-wave (km/s) = 6.66483 7.81762 7.26413
#
# Compressibility (1/GPa) = 0.01271068
#
# Stress axis : x y z
#
# Youngs Moduli (GPa) = 123.04294 54.22093 93.70286
#
# Poissons Ratio (x) = 0.22425 0.20120
# Poissons Ratio (y) = 0.50889 0.56060
# Poissons Ratio (z) = 0.26420 0.32439
#
# Static dielectric constant tensor:
#      x y z
#    x 1.692230 0.000000 -0.089850 
#    y 0.000000 1.742100 0.000000 
#    z -0.089850 0.000000 1.924210 
# 
# From -- ./inp_files/3448.got.cif
#   From: 2010.05.17/outbox.cif.g08.bks.cpg/sg15_2_cif.got.tgz:3448.got - 2010.06.03 18:47:42.
