data_PCOD9270253
_publ_section_title
;
Structure prediction by ZEFSAII (Michael W. Deem and Ramdas Pophale) SiO2 
 PCOD9270253
Probable space group: C 2/C
;
_chemical_formula_sum "Si O2"
_cell_formula_units_Z 56
_cell_length_a 13.696204
_cell_length_b 23.173475
_cell_length_c 9.008825
_cell_angle_alpha 90.000000
_cell_angle_beta 105.909971
_cell_angle_gamma 90.000000
_cell_volume 2749.769337
_symmetry_space_group_name_H-M "C 2/C"
_symmetry_group_IT_number 15
_symmetry_cell_setting 'monoclinic'
loop_
_space_group_symop_operation_xyz
x,y,z
-x,y,1/2-z
-x,-y,-z
x,-y,1/2+z
1/2+x,1/2+y,z
1/2-x,1/2+y,1/2-z
1/2-x,1/2-y,-z
1/2+x,1/2-y,1/2+z
loop_
_atom_site_type_symbol
_atom_site_label
_atom_site_fract_x
_atom_site_fract_y
_atom_site_fract_z
Si Si1 0.995264 0.098694 0.579517
Si Si2 0.294658 0.557064 0.983454
Si Si3 0.712816 0.436761 0.662159
Si Si4 0.206787 0.313819 0.805280
Si Si5 0.075017 0.234997 0.397353
Si Si6 0.586011 0.729584 0.957182
Si Si7 0.778001 0.674368 0.541824
O O1 0.898501 0.076286 0.449532
O O2 0.970779 0.167563 0.586774
O O3 0.000000 0.075545 0.750000
O O4 0.096034 0.076493 0.537797
O O5 0.296330 0.557167 0.163493
O O6 0.219131 0.608989 0.909474
O O7 0.258770 0.497048 0.900825
O O8 0.784413 0.382009 0.650133
O O9 0.123049 0.270942 0.839998
O O10 0.203151 0.316360 0.625928
O O11 0.312828 0.287354 0.909483
O O12 0.140940 0.284816 0.347312
O O13 0.161805 0.196050 0.507627
O O14 0.000000 0.203030 0.250000
O O15 0.997130 0.262281 0.479975
#
# Coordination Sequence:
#
# PCOD9270253 Si02
#       7
#     8   8   8   8   8   8   8
#     4  11  22  33  55  89 120 158 192 241 305 375
#     4  11  21  40  57  84 115 158 202 251 301 357
#     4  10  22  38  59  80 120 159 202 251 298 358
#     4   9  20  37  55  86 113 158 194 242 296 358
#     4  11  21  37  57  89 118 162 189 248 301 365
#     4  10  20  35  57  83 124 151 195 240 299 357
#     4  10  22  36  61  85 120 156 206 235 307 362
#
# _framework density 20.365344
#
# number of rings (size 3 to 8) (size 9 to 14) (size 15 to 20)
#    0.000    1.714    2.857    1.714    2.000    0.000 
#    5.143    0.000    0.000    0.857    0.000    0.000 
#    0.000    0.000    0.000    0.000    0.000    0.000 
#
# Total GULP energy -156066.616106 kJ/mol
# GULP energy per Si atom -5573.807718 kJ/mol
# Density = 2.031899 g / cm^3
# Si number density = 20.365344 Si / 1000 Ang^3
#
#
#
# Elastic Constant Matrix: (Units=GPa)
#
#
# Indices 1 2 3 4 5 6 
#
# 1 78.9639 36.0396 18.9627 0.0000 -12.2608 0.0000
# 2 36.0396 157.8688 25.5002 0.0000 -12.1621 0.0000
# 3 18.9627 25.5002 61.9033 0.0000 -7.4241 0.0000
# 4 0.0000 0.0000 0.0000 26.5380 0.0000 -5.9890
# 5 -12.2608 -12.1621 -7.4241 0.0000 27.0644 0.0000
# 6 0.0000 0.0000 0.0000 -5.9890 0.0000 22.1590
#
#
#
# Elastic Compliance Matrix: (Units=1/GPa)
#
#
# Indices 1 2 3 4 5 6 
#
# 1 0.015362 -0.002637 -0.003027 0.000000 0.004944 0.000000
# 2 -0.002637 0.007388 -0.002048 0.000000 0.001563 0.000000
# 3 -0.003027 -0.002048 0.018251 0.000000 0.002715 0.000000
# 4 0.000000 0.000000 0.000000 0.040129 0.000000 0.010846
# 5 0.004944 0.001563 0.002715 0.000000 0.040636 0.000000
# 6 0.000000 0.000000 0.000000 0.010846 0.000000 0.048060
#
#
# Mechanical properties :
#
#
# Convention : Reuss Voigt Hill
#
# Bulk Modulus (GPa) = 39.09761 51.08234 45.08997
# Shear Modulus (GPa) = 25.80317 29.70116 27.75217
#
# Velocity S-wave (km/s) = 3.56338 3.82307 3.69550
# Velocity P-wave (km/s) = 6.01415 6.68021 6.35591
#
# Compressibility (1/GPa) = 0.02557701
#
# Stress axis : x y z
#
# Youngs Moduli (GPa) = 65.09504 135.36086 54.79294
#
# Poissons Ratio (x) = 0.35698 0.16583
# Poissons Ratio (y) = 0.17167 0.11221
# Poissons Ratio (z) = 0.19701 0.27720
#
# Static dielectric constant tensor:
#      x y z
#    x 1.720940 0.000000 -0.012300 
#    y 0.000000 1.795510 0.000000 
#    z -0.012300 0.000000 1.807700 
# 
# From -- ./inp_files/42289.got.cif
#   From: 2010.05.17/outbox.cif.g08.bks.cpg/sg15_22_cif.got.tgz:42289.got - 2010.06.03 18:47:42.
