data_PCOD9270311
_publ_section_title
;
Structure prediction by ZEFSAII (Michael W. Deem and Ramdas Pophale) SiO2 
 PCOD9270311
Probable space group: C 2/C
;
_chemical_formula_sum "Si O2"
_cell_formula_units_Z 56
_cell_length_a 15.064570
_cell_length_b 14.683595
_cell_length_c 16.481728
_cell_angle_alpha 90.000000
_cell_angle_beta 49.268999
_cell_angle_gamma 90.000000
_cell_volume 2762.713297
_symmetry_space_group_name_H-M "C 2/C"
_symmetry_group_IT_number 15
_symmetry_cell_setting 'monoclinic'
loop_
_space_group_symop_operation_xyz
x,y,z
-x,y,1/2-z
-x,-y,-z
x,-y,1/2+z
1/2+x,1/2+y,z
1/2-x,1/2+y,1/2-z
1/2-x,1/2-y,-z
1/2+x,1/2-y,1/2+z
loop_
_atom_site_type_symbol
_atom_site_label
_atom_site_fract_x
_atom_site_fract_y
_atom_site_fract_z
Si Si1 0.000000 0.866970 0.750000
Si Si2 0.987277 0.391206 0.001918
Si Si3 0.797575 0.647968 0.481360
Si Si4 0.406453 0.397594 0.079767
Si Si5 0.899368 0.006219 0.934887
Si Si6 0.160082 0.728016 0.294764
Si Si7 0.500000 0.813045 0.750000
Si Si8 0.921973 0.224182 0.134621
O O1 0.063011 0.806851 0.781261
O O2 0.081928 0.933042 0.647194
O O3 0.966365 0.327494 0.093086
O O4 0.872056 0.367618 0.017875
O O5 0.000000 0.500000 0.000000
O O6 0.099319 0.348061 0.887795
O O7 0.750000 0.750000 0.500000
O O8 0.686804 0.583565 0.542959
O O9 0.895068 0.631106 0.353525
O O10 0.476760 0.453720 0.106180
O O11 0.324412 0.322720 0.167757
O O12 0.348134 0.461343 0.047608
O O13 0.500071 0.338897 0.971262
O O14 0.288581 0.704294 0.188514
O O15 0.064716 0.743698 0.281059
#
# Coordination Sequence:
#
# PCOD9270311 Si02
#       8
#     4   8   8   8   8   8   4   8
#     4  10  24  39  63  94 114 164 218 260 291 383
#     4  10  23  41  60  94 126 162 210 265 313 389
#     4  11  22  38  64  88 127 166 201 261 322 369
#     4   9  20  38  58  90 124 157 196 262 298 366
#     4  10  20  38  60  90 122 154 209 252 305 365
#     4  10  20  38  64  85 123 165 199 248 323 365
#     4  10  20  35  57  92 118 154 206 242 307 375
#     4  10  21  43  61  86 129 164 204 255 321 365
#
# _framework density 20.269928
#
# number of rings (size 3 to 8) (size 9 to 14) (size 15 to 20)
#    0.000    2.000    0.000    4.286    2.000    3.429 
#   12.857    2.857    0.000    0.000    0.000    0.000 
#    0.000    0.000    0.000    0.000    0.000    0.000 
#
# Total GULP energy -156225.473053 kJ/mol
# GULP energy per Si atom -5579.481180 kJ/mol
# Density = 2.022379 g / cm^3
# Si number density = 20.269928 Si / 1000 Ang^3
#
#
#
# Elastic Constant Matrix: (Units=GPa)
#
#
# Indices 1 2 3 4 5 6 
#
# 1 68.9154 38.8560 25.1458 0.0000 3.4454 0.0000
# 2 38.8560 127.1327 19.3851 0.0000 10.3605 0.0000
# 3 25.1458 19.3851 55.9918 0.0000 6.7272 0.0000
# 4 0.0000 0.0000 0.0000 18.3319 0.0000 0.2206
# 5 3.4454 10.3605 6.7272 0.0000 26.6479 0.0000
# 6 0.0000 0.0000 0.0000 0.2206 0.0000 21.4456
#
#
#
# Elastic Compliance Matrix: (Units=1/GPa)
#
#
# Indices 1 2 3 4 5 6 
#
# 1 0.020010 -0.005094 -0.007374 0.000000 0.001255 0.000000
# 2 -0.005094 0.009777 -0.000742 0.000000 -0.002955 0.000000
# 3 -0.007374 -0.000742 0.021945 0.000000 -0.004298 0.000000
# 4 0.000000 0.000000 0.000000 0.054556 0.000000 -0.000561
# 5 0.001255 -0.002955 -0.004298 0.000000 0.039598 0.000000
# 6 0.000000 0.000000 0.000000 -0.000561 0.000000 0.046635
#
#
# Mechanical properties :
#
#
# Convention : Reuss Voigt Hill
#
# Bulk Modulus (GPa) = 39.50668 46.53486 43.02077
# Shear Modulus (GPa) = 21.98979 24.52862 23.25921
#
# Velocity S-wave (km/s) = 3.29728 3.48242 3.39111
# Velocity P-wave (km/s) = 5.83341 6.25916 6.05003
#
# Compressibility (1/GPa) = 0.02531217
#
# Stress axis : x y z
#
# Youngs Moduli (GPa) = 49.97425 102.28505 45.56916
#
# Poissons Ratio (x) = 0.52101 0.33602
# Poissons Ratio (y) = 0.25455 0.03382
# Poissons Ratio (z) = 0.36850 0.07591
#
# Static dielectric constant tensor:
#      x y z
#    x 1.735870 0.000000 0.036630 
#    y 0.000000 1.740160 0.000000 
#    z 0.036630 0.000000 1.750630 
# 
# From -- ./inp_files/205378.got.cif
#   From: 2010.05.17/outbox.cif.g08.bks.cpg/sg15_103_cif.got.tgz:205378.got - 2010.06.03 18:47:42.
