data_PCOD9270807
_publ_section_title
;
Structure prediction by ZEFSAII (Michael W. Deem and Ramdas Pophale) SiO2 
 PCOD9270807
Probable space group: C 2/C
;
_chemical_formula_sum "Si O2"
_cell_formula_units_Z 28
_cell_length_a 13.516459
_cell_length_b 10.052960
_cell_length_c 18.860498
_cell_angle_alpha 90.000000
_cell_angle_beta 154.201579
_cell_angle_gamma 90.000000
_cell_volume 1115.334671
_symmetry_space_group_name_H-M "C 2/C"
_symmetry_group_IT_number 15
_symmetry_cell_setting 'monoclinic'
loop_
_space_group_symop_operation_xyz
x,y,z
-x,y,1/2-z
-x,-y,-z
x,-y,1/2+z
1/2+x,1/2+y,z
1/2-x,1/2+y,1/2-z
1/2-x,1/2-y,-z
1/2+x,1/2-y,1/2+z
loop_
_atom_site_type_symbol
_atom_site_label
_atom_site_fract_x
_atom_site_fract_y
_atom_site_fract_z
Si Si1 0.164037 0.728338 0.651302
Si Si2 0.178942 0.836580 0.808100
Si Si3 0.500000 0.926044 0.250000
Si Si4 0.846663 0.140565 0.509377
O O1 0.153964 0.838913 0.707424
O O2 0.180601 0.806096 0.588025
O O3 0.385846 0.636516 0.801997
O O4 0.933966 0.642573 0.498754
O O5 0.000000 0.895817 0.750000
O O6 0.135995 0.676447 0.788832
O O7 0.685367 0.013168 0.410126
O O8 0.750000 0.250000 0.500000
#
# Coordination Sequence:
#
# PCOD9270807 Si02
#       4
#     8   8   4   8
#     4  10  20  35  67  85 117 163 198 230 310 360
#     4   9  21  39  64  87 119 154 204 245 291 354
#     4  10  22  38  66  84 126 150 202 252 296 336
#     4  11  20  39  61  86 122 161 198 242 299 360
#
# _framework density 25.104572000000001
#
# number of rings (size 3 to 8) (size 9 to 14) (size 15 to 20)
#    0.857    1.143    2.857    0.857    0.000    4.571 
#    0.000    1.429   18.857    0.000    0.000    0.000 
#    0.000    0.000    0.000    0.000    0.000    0.000 
#
# Total GULP energy -78289.749818 kJ/mol
# GULP energy per Si atom -5592.124987 kJ/mol
# Density = 2.504743 g / cm^3
# Si number density = 25.104572 Si / 1000 Ang^3
#
#
#
# Elastic Constant Matrix: (Units=GPa)
#
#
# Indices 1 2 3 4 5 6 
#
# 1 151.9596 16.3453 67.9525 0.0008 -8.7648 0.0002
# 2 16.3453 68.9638 18.7257 -0.0002 8.0724 0.0000
# 3 67.9525 18.7257 199.0525 0.0020 20.6281 0.0009
# 4 0.0008 -0.0002 0.0020 23.5489 0.0017 7.0439
# 5 -8.7648 8.0724 20.6281 0.0017 60.3577 0.0004
# 6 0.0002 0.0000 0.0009 7.0439 0.0004 12.0737
#
#
#
# Elastic Compliance Matrix: (Units=1/GPa)
#
#
# Indices 1 2 3 4 5 6 
#
# 1 0.008167 -0.001426 -0.002899 0.000000 0.002368 0.000000
# 2 -0.001426 0.015274 -0.000743 0.000000 -0.001996 0.000000
# 3 -0.002899 -0.000743 0.006341 0.000000 -0.002489 0.000000
# 4 0.000000 0.000000 0.000000 0.051442 -0.000001 -0.030012
# 5 0.002368 -0.001996 -0.002489 -0.000001 0.018029 0.000000
# 6 0.000000 0.000000 0.000000 -0.030012 0.000000 0.100334
#
#
# Mechanical properties :
#
#
# Convention : Reuss Voigt Hill
#
# Bulk Modulus (GPa) = 50.90180 69.55807 60.22993
# Shear Modulus (GPa) = 23.11897 40.32621 31.72259
#
# Velocity S-wave (km/s) = 3.03794 4.01225 3.55860
# Velocity P-wave (km/s) = 5.71186 7.01653 6.39754
#
# Compressibility (1/GPa) = 0.01964567
#
# Stress axis : x y z
#
# Youngs Moduli (GPa) = 122.44255 65.47201 157.69321
#
# Poissons Ratio (x) = 0.09334 0.45720
# Poissons Ratio (y) = 0.17455 0.11723
# Poissons Ratio (z) = 0.35500 0.04867
#
# Static dielectric constant tensor:
#      x y z
#    x 1.988650 0.000000 -0.025270 
#    y 0.000000 2.125490 0.000000 
#    z -0.025270 0.000000 2.033110 
# 
# From -- ./inp_files/83539.got.cif
#   From: 2010.05.17/outbox.cif.g08.bks.cpg/sg15_42_cif.got.tgz:83539.got - 2010.06.03 18:47:42.
