data_PCOD9270315
_publ_section_title
;
Structure prediction by ZEFSAII (Michael W. Deem and Ramdas Pophale) SiO2 
 PCOD9270315
Probable space group: C 2/C
;
_chemical_formula_sum "Si O2"
_cell_formula_units_Z 56
_cell_length_a 6.447599
_cell_length_b 24.426630
_cell_length_c 19.348764
_cell_angle_alpha 90.000000
_cell_angle_beta 115.550735
_cell_angle_gamma 90.000000
_cell_volume 2749.282783
_symmetry_space_group_name_H-M "C 2/C"
_symmetry_group_IT_number 15
_symmetry_cell_setting 'monoclinic'
loop_
_space_group_symop_operation_xyz
x,y,z
-x,y,1/2-z
-x,-y,-z
x,-y,1/2+z
1/2+x,1/2+y,z
1/2-x,1/2+y,1/2-z
1/2-x,1/2-y,-z
1/2+x,1/2-y,1/2+z
loop_
_atom_site_type_symbol
_atom_site_label
_atom_site_fract_x
_atom_site_fract_y
_atom_site_fract_z
Si Si1 0.637075 0.322329 0.463522
Si Si2 0.878030 0.720682 0.454945
Si Si3 0.930335 0.160208 0.384309
Si Si4 0.133645 0.067836 0.590503
Si Si5 0.500000 0.035680 0.750000
Si Si6 0.500000 0.147949 0.250000
Si Si7 0.769165 0.557640 0.306735
Si Si8 0.131605 0.953223 0.933888
O O1 0.487057 0.268497 0.423188
O O2 0.622585 0.323364 0.544960
O O3 0.524405 0.378742 0.423937
O O4 0.904324 0.313486 0.485683
O O5 0.750000 0.750000 0.500000
O O6 0.678093 0.682456 0.396017
O O7 0.722821 0.179670 0.307273
O O8 0.946814 0.094201 0.388867
O O9 0.336271 0.068752 0.675119
O O10 0.218602 0.063223 0.522725
O O11 0.987356 0.012290 0.580560
O O12 0.650619 0.995713 0.723319
O O13 0.414943 0.108394 0.299472
O O14 0.500000 0.566263 0.250000
O O15 0.801948 0.548863 0.393388
#
# Coordination Sequence:
#
# PCOD9270315 Si02
#       8
#     8   8   8   8   4   4   8   8
#     4   9  20  39  64  83 115 161 210 262 302 370
#     4   9  19  40  64  83 111 157 216 256 315 365
#     4  10  20  35  57  93 123 156 199 252 313 380
#     4  10  21  39  61  94 127 164 212 259 313 382
#     4  11  22  38  58  86 130 170 214 252 311 380
#     4  11  22  32  58  92 134 156 200 254 321 386
#     4  11  20  37  56  82 131 181 200 242 311 376
#     4  10  20  38  57  91 129 165 212 246 302 383
#
# _framework density 20.368950000000002
#
# number of rings (size 3 to 8) (size 9 to 14) (size 15 to 20)
#    0.000    2.000    2.857    0.857    2.000    0.571 
#    7.714    0.000    9.429    0.000    0.000    0.000 
#    0.000    0.000    0.000    0.000    0.000    0.000 
#
# Total GULP energy -156264.545164 kJ/mol
# GULP energy per Si atom -5580.876613 kJ/mol
# Density = 2.032259 g / cm^3
# Si number density = 20.368950 Si / 1000 Ang^3
#
#
#
# Elastic Constant Matrix: (Units=GPa)
#
#
# Indices 1 2 3 4 5 6 
#
# 1 116.8689 34.3355 51.1881 0.0000 11.8300 0.0000
# 2 34.3355 89.0101 28.7716 0.0000 23.3461 0.0000
# 3 51.1881 28.7716 110.0276 0.0000 14.9065 0.0000
# 4 0.0000 0.0000 0.0000 3.1983 0.0000 6.0117
# 5 11.8300 23.3461 14.9065 0.0000 49.6312 0.0000
# 6 0.0000 0.0000 0.0000 6.0117 0.0000 24.3722
#
#
#
# Elastic Compliance Matrix: (Units=1/GPa)
#
#
# Indices 1 2 3 4 5 6 
#
# 1 0.011407 -0.002939 -0.004542 0.000000 0.000028 0.000000
# 2 -0.002939 0.014355 -0.001633 0.000000 -0.005561 0.000000
# 3 -0.004542 -0.001633 0.011861 0.000000 -0.001712 0.000000
# 4 0.000000 0.000000 0.000000 0.582933 0.000000 -0.143787
# 5 0.000028 -0.005561 -0.001712 0.000000 0.023272 0.000000
# 6 0.000000 0.000000 0.000000 -0.143787 0.000000 0.076497
#
#
# Mechanical properties :
#
#
# Convention : Reuss Voigt Hill
#
# Bulk Modulus (GPa) = 51.56201 60.49965 56.03083
# Shear Modulus (GPa) = 6.71126 28.88110 17.79618
#
# Velocity S-wave (km/s) = 1.81714 3.76958 2.95903
# Velocity P-wave (km/s) = 5.45634 6.97945 6.26436
#
# Compressibility (1/GPa) = 0.01939412
#
# Stress axis : x y z
#
# Youngs Moduli (GPa) = 87.66820 69.66220 84.31345
#
# Poissons Ratio (x) = 0.20476 0.38294
# Poissons Ratio (y) = 0.25768 0.13767
# Poissons Ratio (z) = 0.39818 0.11375
#
# Static dielectric constant tensor:
#      x y z
#    x 1.761020 0.000000 -0.001070 
#    y 0.000000 1.755430 0.000000 
#    z -0.001070 0.000000 1.767180 
# 
# From -- ./inp_files/228561.got.cif
#   From: 2010.05.17/outbox.cif.g08.bks.cpg/sg15_115_cif.got.tgz:228561.got - 2010.06.03 18:47:42.
