data_PCOD9270945
_publ_section_title
;
Structure prediction by ZEFSAII (Michael W. Deem and Ramdas Pophale) SiO2 
 PCOD9270945
Probable space group: C 2/C
;
_chemical_formula_sum "Si O2"
_cell_formula_units_Z 48
_cell_length_a 10.002404
_cell_length_b 22.088597
_cell_length_c 13.676512
_cell_angle_alpha 90.000000
_cell_angle_beta 44.772719
_cell_angle_gamma 90.000000
_cell_volume 2128.155043
_symmetry_space_group_name_H-M "C 2/C"
_symmetry_group_IT_number 15
_symmetry_cell_setting 'monoclinic'
loop_
_space_group_symop_operation_xyz
x,y,z
-x,y,1/2-z
-x,-y,-z
x,-y,1/2+z
1/2+x,1/2+y,z
1/2-x,1/2+y,1/2-z
1/2-x,1/2-y,-z
1/2+x,1/2-y,1/2+z
loop_
_atom_site_type_symbol
_atom_site_label
_atom_site_fract_x
_atom_site_fract_y
_atom_site_fract_z
Si Si1 0.000000 0.271407 0.750000
Si Si2 0.000000 0.980262 0.750000
Si Si3 0.714151 0.424508 0.474921
Si Si4 0.293327 0.182822 0.674870
Si Si5 0.500000 0.024995 0.250000
Si Si6 0.560360 0.878080 0.574954
Si Si7 0.009139 0.913997 0.094379
Si Si8 0.500000 0.823006 0.250000
O O1 0.811287 0.231055 0.839101
O O2 0.994617 0.315916 0.844473
O O3 0.155504 0.938157 0.616451
O O4 0.948160 0.027335 0.689603
O O5 0.834487 0.481507 0.373197
O O6 0.531149 0.421297 0.499204
O O7 0.843065 0.366630 0.382145
O O8 0.430494 0.137764 0.543451
O O9 0.124866 0.140546 0.801664
O O10 0.399756 0.211021 0.712719
O O11 0.554961 0.068278 0.312823
O O12 0.776512 0.896397 0.491372
#
# Coordination Sequence:
#
# PCOD9270945 Si02
#       8
#     4   4   8   8   4   8   8   4
#     4  11  23  37  68  90 114 153 206 262 300 358
#     4  12  19  34  59  89 119 173 196 235 298 358
#     4  10  22  37  58  87 128 164 198 237 299 358
#     4  11  20  41  63  86 117 160 202 248 313 351
#     4  10  20  36  55  94 124 159 200 252 284 360
#     4  11  21  36  61  92 117 150 209 255 295 350
#     4  11  20  36  60  87 120 162 204 247 290 359
#     4   9  24  41  60  89 127 159 196 249 294 368
#
# _framework density 22.554746999999999
#
# number of rings (size 3 to 8) (size 9 to 14) (size 15 to 20)
#    0.000    1.333    5.000    1.000    0.000    1.333 
#    3.000    5.833    0.000    0.000    0.000    0.000 
#    0.000    0.000    0.000    0.000    0.000    0.000 
#
# Total GULP energy -134018.237767 kJ/mol
# GULP energy per Si atom -5584.093240 kJ/mol
# Density = 2.250341 g / cm^3
# Si number density = 22.554747 Si / 1000 Ang^3
#
#
#
# Elastic Constant Matrix: (Units=GPa)
#
#
# Indices 1 2 3 4 5 6 
#
# 1 70.5887 -9.0925 0.9804 0.0000 7.0139 0.0000
# 2 -9.0925 32.7977 -3.5313 0.0000 -3.3578 0.0000
# 3 0.9804 -3.5313 102.4453 0.0000 -2.5497 0.0000
# 4 0.0000 0.0000 0.0000 12.1894 0.0000 5.3667
# 5 7.0139 -3.3578 -2.5497 0.0000 13.0831 0.0000
# 6 0.0000 0.0000 0.0000 5.3667 0.0000 2.8525
#
#
#
# Elastic Compliance Matrix: (Units=1/GPa)
#
#
# Indices 1 2 3 4 5 6 
#
# 1 0.015351 0.003478 -0.000211 0.000000 -0.007378 -0.000001
# 2 0.003478 0.032270 0.001245 0.000000 0.006661 0.000000
# 3 -0.000211 0.001245 0.009865 0.000000 0.002355 0.000000
# 4 0.000000 0.000000 0.000000 0.477938 -0.000001 -0.899201
# 5 -0.007378 0.006661 0.002355 -0.000001 0.082558 0.000002
# 6 -0.000001 0.000000 0.000000 -0.899201 0.000002 2.042342
#
#
# Mechanical properties :
#
#
# Convention : Reuss Voigt Hill
#
# Bulk Modulus (GPa) = 15.03559 20.28277 17.65918
# Shear Modulus (GPa) = 1.87023 20.12333 10.99678
#
# Velocity S-wave (km/s) = 0.91159 2.99021 2.21047
# Velocity P-wave (km/s) = 2.79083 4.57537 3.78964
#
# Compressibility (1/GPa) = 0.06650888
#
# Stress axis : x y z
#
# Youngs Moduli (GPa) = 65.14429 30.98857 101.37006
#
# Poissons Ratio (x) = -0.10777 0.02135
# Poissons Ratio (y) = -0.22654 -0.12619
# Poissons Ratio (z) = 0.01372 -0.03858
#
# Static dielectric constant tensor:
#      x y z
#    x 1.884400 0.000000 0.007060 
#    y 0.000000 1.827990 0.000000 
#    z 0.007060 0.000000 1.880500 
# 
# From -- ./inp_files/89845.got.cif
#   From: 2010.05.17/outbox.cif.g08.bks.cpg/sg15_45_cif.got.tgz:89845.got - 2010.06.03 18:47:42.
