data_PCOD9270963
_publ_section_title
;
Structure prediction by ZEFSAII (Michael W. Deem and Ramdas Pophale) SiO2 
 PCOD9270963
Probable space group: C 2/C
;
_chemical_formula_sum "Si O2"
_cell_formula_units_Z 40
_cell_length_a 9.455726
_cell_length_b 29.991829
_cell_length_c 15.669198
_cell_angle_alpha 90.000000
_cell_angle_beta 155.496993
_cell_angle_gamma 90.000000
_cell_volume 1842.984013
_symmetry_space_group_name_H-M "C 2/C"
_symmetry_group_IT_number 15
_symmetry_cell_setting 'monoclinic'
loop_
_space_group_symop_operation_xyz
x,y,z
-x,y,1/2-z
-x,-y,-z
x,-y,1/2+z
1/2+x,1/2+y,z
1/2-x,1/2+y,1/2-z
1/2-x,1/2-y,-z
1/2+x,1/2-y,1/2+z
loop_
_atom_site_type_symbol
_atom_site_label
_atom_site_fract_x
_atom_site_fract_y
_atom_site_fract_z
Si Si1 0.645686 0.356566 0.925654
Si Si2 0.415226 0.280871 0.473673
Si Si3 0.763374 0.549742 0.542027
Si Si4 0.787909 0.027822 0.706042
Si Si5 0.812549 0.809597 0.235863
O O1 0.500000 0.359617 0.750000
O O2 0.504881 0.316891 0.908341
O O3 0.580289 0.402716 0.941389
O O4 0.040939 0.344594 0.124987
O O5 0.595058 0.234496 0.592686
O O6 0.521808 0.296568 0.436706
O O7 0.000000 0.275339 0.250000
O O8 0.521064 0.508615 0.383009
O O9 0.000000 0.536200 0.750000
O O10 0.062485 0.558927 0.638651
O O11 0.000000 0.051865 0.750000
O O12 0.500000 0.000000 0.500000
O O13 0.000000 0.822678 0.250000
#
# Coordination Sequence:
#
# PCOD9270963 Si02
#       5
#     8   8   8   8   8
#     4  11  22  38  57  79 111 153 192 229 280 346
#     4  10  20  36  56  80 110 149 189 226 279 347
#     4  11  21  37  60  86 113 146 190 239 286 342
#     4   9  19  36  58  83 111 147 184 226 284 346
#     4  11  21  35  57  84 112 145 186 238 284 329
#
# _framework density 21.703931000000001
#
# number of rings (size 3 to 8) (size 9 to 14) (size 15 to 20)
#    0.000    1.600    0.000    9.000    0.000    0.800 
#    0.000    0.000    0.000   10.800    0.000    0.000 
#    0.000    0.000    0.000    0.000    0.000    0.000 
#
# Total GULP energy -111447.650097 kJ/mol
# GULP energy per Si atom -5572.382505 kJ/mol
# Density = 2.165453 g / cm^3
# Si number density = 21.703931 Si / 1000 Ang^3
#
#
#
# Elastic Constant Matrix: (Units=GPa)
#
#
# Indices 1 2 3 4 5 6 
#
# 1 69.2539 -17.7952 -12.4669 0.0000 -4.7805 0.0000
# 2 -17.7952 86.3083 12.5188 0.0000 -5.5664 0.0000
# 3 -12.4669 12.5188 78.3000 0.0001 -35.9894 0.0000
# 4 0.0000 0.0000 0.0001 31.2607 0.0000 -15.4949
# 5 -4.7805 -5.5664 -35.9894 0.0000 35.0129 0.0000
# 6 0.0000 0.0000 0.0000 -15.4949 0.0000 31.4439
#
#
#
# Elastic Compliance Matrix: (Units=1/GPa)
#
#
# Indices 1 2 3 4 5 6 
#
# 1 0.017133 0.003190 0.006684 0.000000 0.009717 0.000000
# 2 0.003190 0.012456 -0.000707 0.000000 0.001689 0.000000
# 3 0.006684 -0.000707 0.027138 0.000000 0.028695 0.000000
# 4 0.000000 0.000000 0.000000 0.042328 0.000000 0.020858
# 5 0.009717 0.001689 0.028695 0.000000 0.059651 0.000000
# 6 0.000000 0.000000 0.000000 0.020858 0.000000 0.042081
#
#
# Mechanical properties :
#
#
# Convention : Reuss Voigt Hill
#
# Bulk Modulus (GPa) = 13.32264 22.04171 17.68217
# Shear Modulus (GPa) = 24.09936 36.31720 30.20828
#
# Velocity S-wave (km/s) = 3.33583 4.09504 3.73478
# Velocity P-wave (km/s) = 4.58135 5.70410 5.17327
#
# Compressibility (1/GPa) = 0.07506021
#
# Stress axis : x y z
#
# Youngs Moduli (GPa) = 58.36584 80.28550 36.84861
#
# Poissons Ratio (x) = -0.25609 -0.24631
# Poissons Ratio (y) = -0.18617 0.02607
# Poissons Ratio (z) = -0.39014 0.05680
#
# Static dielectric constant tensor:
#      x y z
#    x 1.943930 0.000000 -0.040640 
#    y 0.000000 1.756400 0.000000 
#    z -0.040640 0.000000 1.831860 
# 
# From -- ./inp_files/25821.got.cif
#   From: 2010.05.17/outbox.cif.g08.bks.cpg/sg15_13_cif.got.tgz:25821.got - 2010.06.03 18:47:42.
