data_PCOD9270739
_publ_section_title
;
Structure prediction by ZEFSAII (Michael W. Deem and Ramdas Pophale) SiO2 
 PCOD9270739
Probable space group: C 2/C
;
_chemical_formula_sum "Si O2"
_cell_formula_units_Z 48
_cell_length_a 22.739285
_cell_length_b 20.472726
_cell_length_c 14.623644
_cell_angle_alpha 90.000000
_cell_angle_beta 20.991207
_cell_angle_gamma 90.000000
_cell_volume 2438.729200
_symmetry_space_group_name_H-M "C 2/C"
_symmetry_group_IT_number 15
_symmetry_cell_setting 'monoclinic'
loop_
_space_group_symop_operation_xyz
x,y,z
-x,y,1/2-z
-x,-y,-z
x,-y,1/2+z
1/2+x,1/2+y,z
1/2-x,1/2+y,1/2-z
1/2-x,1/2-y,-z
1/2+x,1/2-y,1/2+z
loop_
_atom_site_type_symbol
_atom_site_label
_atom_site_fract_x
_atom_site_fract_y
_atom_site_fract_z
Si Si1 0.749570 0.643633 0.010007
Si Si2 0.443335 0.681494 0.727170
Si Si3 0.965207 0.424661 0.067165
Si Si4 0.500749 0.743736 0.139852
Si Si5 0.064005 0.667016 0.261346
Si Si6 0.225396 0.645095 0.317580
O O1 0.566276 0.672555 0.287745
O O2 0.809857 0.630677 0.025182
O O3 0.797505 0.588333 0.868290
O O4 0.862515 0.704101 0.809215
O O5 0.500000 0.681729 0.750000
O O6 0.450450 0.757285 0.685172
O O7 0.582193 0.639972 0.476072
O O8 0.260155 0.655260 0.980368
O O9 0.000000 0.500000 0.000000
O O10 0.973533 0.381683 0.962489
O O11 0.113692 0.398874 0.915683
O O12 0.500000 0.742142 0.250000
O O13 0.670589 0.779912 0.870569
O O14 0.000000 0.661772 0.250000
#
# Coordination Sequence:
#
# PCOD9270739 Si02
#       6
#     8   8   8   8   8   8
#     4   9  19  33  54  92 116 154 195 252 317 352
#     4  10  20  38  62  89 128 158 204 258 322 371
#     4  11  23  40  62  84 123 171 212 248 296 384
#     4   8  16  29  51  88 124 145 182 248 320 365
#     4  10  23  38  59  94 120 165 209 256 304 375
#     4  10  20  35  63  91 120 159 199 261 317 366
#
# _framework density 19.682380999999999
#
# number of rings (size 3 to 8) (size 9 to 14) (size 15 to 20)
#    0.000    2.333    1.667    1.500    9.333    1.333 
#    0.000    0.000    3.667    2.000    0.000    0.000 
#    0.000    0.000    0.000    0.000    0.000    0.000 
#
# Total GULP energy -133690.653041 kJ/mol
# GULP energy per Si atom -5570.443877 kJ/mol
# Density = 1.963758 g / cm^3
# Si number density = 19.682381 Si / 1000 Ang^3
#
#
#
# Elastic Constant Matrix: (Units=GPa)
#
#
# Indices 1 2 3 4 5 6 
#
# 1 90.6697 35.7824 17.0830 0.0003 5.9678 -0.0005
# 2 35.7824 68.0013 16.6241 -0.0018 16.0999 0.0012
# 3 17.0830 16.6241 72.1976 0.0004 -5.1988 0.0009
# 4 0.0003 -0.0018 0.0004 19.3911 0.0003 5.3043
# 5 5.9678 16.0999 -5.1988 0.0003 33.2947 0.0000
# 6 -0.0005 0.0012 0.0009 5.3043 0.0000 15.0956
#
#
#
# Elastic Compliance Matrix: (Units=1/GPa)
#
#
# Indices 1 2 3 4 5 6 
#
# 1 0.014134 -0.007201 -0.001636 -0.000001 0.000693 0.000002
# 2 -0.007201 0.021823 -0.004033 0.000003 -0.009892 -0.000003
# 3 -0.001636 -0.004033 0.015503 -0.000001 0.004664 0.000000
# 4 -0.000001 0.000003 -0.000001 0.057054 -0.000002 -0.020048
# 5 0.000693 -0.009892 0.004664 -0.000002 0.035422 0.000001
# 6 0.000002 -0.000003 0.000000 -0.020048 0.000001 0.073289
#
#
# Mechanical properties :
#
#
# Convention : Reuss Voigt Hill
#
# Bulk Modulus (GPa) = 38.88377 41.09419 39.98898
# Shear Modulus (GPa) = 19.87772 24.31488 22.09630
#
# Velocity S-wave (km/s) = 3.18138 3.51859 3.35422
# Velocity P-wave (km/s) = 5.77004 6.11811 5.94662
#
# Compressibility (1/GPa) = 0.02571767
#
# Stress axis : x y z
#
# Youngs Moduli (GPa) = 70.75308 45.82341 64.50549
#
# Poissons Ratio (x) = 0.32999 0.10554
# Poissons Ratio (y) = 0.50952 0.26017
# Poissons Ratio (z) = 0.11576 0.18482
#
# Static dielectric constant tensor:
#      x y z
#    x 1.737510 0.000000 0.000770 
#    y 0.000000 1.703970 0.000000 
#    z 0.000770 0.000000 1.764490 
# 
# From -- ./inp_files/174497.got.cif
#   From: 2010.05.17/outbox.cif.g08.bks.cpg/sg15_88_cif.got.tgz:174497.got - 2010.06.03 18:47:42.
