data_PCOD9270155
_publ_section_title
;
Structure prediction by ZEFSAII (Michael W. Deem and Ramdas Pophale) SiO2 
 PCOD9270155
Probable space group: C 2/C
;
_chemical_formula_sum "Si O2"
_cell_formula_units_Z 36
_cell_length_a 16.696453
_cell_length_b 7.266673
_cell_length_c 12.606275
_cell_angle_alpha 90.000000
_cell_angle_beta 70.468328
_cell_angle_gamma 90.000000
_cell_volume 1441.478195
_symmetry_space_group_name_H-M "C 2/C"
_symmetry_group_IT_number 15
_symmetry_cell_setting 'monoclinic'
loop_
_space_group_symop_operation_xyz
x,y,z
-x,y,1/2-z
-x,-y,-z
x,-y,1/2+z
1/2+x,1/2+y,z
1/2-x,1/2+y,1/2-z
1/2-x,1/2-y,-z
1/2+x,1/2-y,1/2+z
loop_
_atom_site_type_symbol
_atom_site_label
_atom_site_fract_x
_atom_site_fract_y
_atom_site_fract_z
Si Si1 0.000000 0.647740 0.750000
Si Si2 0.650613 0.641509 0.770115
Si Si3 0.146806 0.295556 0.315233
Si Si4 0.152844 0.803820 0.037751
Si Si5 0.569306 0.647511 0.010583
O O1 0.910141 0.584419 0.738770
O O2 0.965096 0.747732 0.872663
O O3 0.752488 0.666275 0.732712
O O4 0.636272 0.420233 0.785993
O O5 0.615755 0.706870 0.671670
O O6 0.604162 0.740394 0.888909
O O7 0.117517 0.306507 0.452034
O O8 0.147093 0.019225 0.013217
O O9 0.250000 0.750000 0.000000
O O10 0.500000 0.500000 0.000000
#
# Coordination Sequence:
#
# PCOD9270155 Si02
#       5
#     4   8   8   8   8
#     4  12  20  34  52  82 112 138 184 232 266 316
#     4  10  20  35  56  83 109 142 183 222 271 324
#     4  10  21  35  57  80 110 145 178 226 271 318
#     4   9  17  32  51  76 109 140 172 218 268 315
#     4  11  18  32  55  83 107 139 185 226 265 314
#
# _framework density 24.974361999999999
#
# number of rings (size 3 to 8) (size 9 to 14) (size 15 to 20)
#    0.000    1.778    6.667    0.000    0.000    0.889 
#    0.000    0.000    0.000   10.667    0.000    0.000 
#    0.000    0.000    0.000    0.000    0.000    0.000 
#
# Total GULP energy -100347.837706 kJ/mol
# GULP energy per Si atom -5574.879873 kJ/mol
# Density = 2.491752 g / cm^3
# Si number density = 24.974362 Si / 1000 Ang^3
#
#
#
# Elastic Constant Matrix: (Units=GPa)
#
#
# Indices 1 2 3 4 5 6 
#
# 1 86.6768 -5.2831 49.8965 0.0000 24.5885 0.0000
# 2 -5.2831 68.7182 34.8441 0.0000 9.5951 0.0000
# 3 49.8965 34.8441 255.4567 0.0000 29.2361 0.0000
# 4 0.0000 0.0000 0.0000 24.4995 0.0000 0.0929
# 5 24.5885 9.5951 29.2361 0.0000 51.1753 0.0000
# 6 0.0000 0.0000 0.0000 0.0929 0.0000 21.7555
#
#
#
# Elastic Compliance Matrix: (Units=1/GPa)
#
#
# Indices 1 2 3 4 5 6 
#
# 1 0.015095 0.003410 -0.002686 0.000000 -0.006358 0.000000
# 2 0.003410 0.016566 -0.002549 0.000000 -0.003288 0.000000
# 3 -0.002686 -0.002549 0.004905 0.000000 -0.001034 0.000000
# 4 0.000000 0.000000 0.000000 0.040818 0.000000 -0.000174
# 5 -0.006358 -0.003288 -0.001034 0.000000 0.023802 0.000000
# 6 0.000000 0.000000 0.000000 -0.000174 0.000000 0.045966
#
#
# Mechanical properties :
#
#
# Convention : Reuss Voigt Hill
#
# Bulk Modulus (GPa) = 30.38066 63.30743 46.84404
# Shear Modulus (GPa) = 30.90718 41.57900 36.24309
#
# Velocity S-wave (km/s) = 3.52171 4.08471 3.81361
# Velocity P-wave (km/s) = 5.35982 6.90293 6.17973
#
# Compressibility (1/GPa) = 0.03291568
#
# Stress axis : x y z
#
# Youngs Moduli (GPa) = 66.24878 60.36405 203.86456
#
# Poissons Ratio (x) = -0.20585 0.54755
# Poissons Ratio (y) = -0.22591 0.51973
# Poissons Ratio (z) = 0.17793 0.15389
#
# Static dielectric constant tensor:
#      x y z
#    x 2.046870 0.000000 0.028610 
#    y 0.000000 2.038770 0.000000 
#    z 0.028610 0.000000 2.026220 
# 
# From -- ./inp_files/94024.got.cif
#   From: 2010.05.17/outbox.cif.g08.bks.cpg/sg15_48_cif.got.tgz:94024.got - 2010.06.03 18:47:42.
