data_PCOD9270996
_publ_section_title
;
Structure prediction by ZEFSAII (Michael W. Deem and Ramdas Pophale) SiO2 
 PCOD9270996
Probable space group: C 2/C
;
_chemical_formula_sum "Si O2"
_cell_formula_units_Z 48
_cell_length_a 12.382105
_cell_length_b 23.927320
_cell_length_c 15.506121
_cell_angle_alpha 90.000000
_cell_angle_beta 150.094887
_cell_angle_gamma 90.000000
_cell_volume 2290.411849
_symmetry_space_group_name_H-M "C 2/C"
_symmetry_group_IT_number 15
_symmetry_cell_setting 'monoclinic'
loop_
_space_group_symop_operation_xyz
x,y,z
-x,y,1/2-z
-x,-y,-z
x,-y,1/2+z
1/2+x,1/2+y,z
1/2-x,1/2+y,1/2-z
1/2-x,1/2-y,-z
1/2+x,1/2-y,1/2+z
loop_
_atom_site_type_symbol
_atom_site_label
_atom_site_fract_x
_atom_site_fract_y
_atom_site_fract_z
Si Si1 0.895871 0.835584 0.767022
Si Si2 0.744977 0.614777 0.734587
Si Si3 0.156008 0.072701 0.938641
Si Si4 0.773926 0.716644 0.643081
Si Si5 0.544710 0.087231 0.101642
Si Si6 0.249389 0.008245 0.647844
O O1 0.745553 0.782463 0.639217
O O2 0.760517 0.877951 0.731786
O O3 0.000000 0.858806 0.750000
O O4 0.087604 0.808483 0.954706
O O5 0.504406 0.604884 0.607239
O O6 0.776962 0.678339 0.729964
O O7 0.786857 0.574050 0.682088
O O8 0.911969 0.592045 0.921288
O O9 0.000000 0.056557 0.750000
O O10 0.362713 0.106504 0.045399
O O11 0.256913 0.020085 0.059530
O O12 0.000000 0.711020 0.750000
O O13 0.619130 0.027340 0.189827
O O14 0.000000 0.000000 0.500000
#
# Coordination Sequence:
#
# PCOD9270996 Si02
#       6
#     8   8   8   8   8   8
#     4  11  22  39  61  86 115 151 195 244 293 343
#     4  10  21  39  59  88 120 154 193 237 289 346
#     4   9  20  37  59  84 119 156 192 237 288 342
#     4  11  22  39  61  86 116 152 193 243 292 344
#     4  11  21  38  61  86 117 156 195 239 288 342
#     4  10  20  36  56  84 117 153 191 232 283 341
#
# _framework density 20.956928999999999
#
# number of rings (size 3 to 8) (size 9 to 14) (size 15 to 20)
#    0.000    1.667    0.000    7.000    0.000    1.333 
#    0.000   18.333    0.000    4.000    0.000    0.000 
#    0.000    0.000    0.000    0.000    0.000    0.000 
#
# Total GULP energy -133915.872956 kJ/mol
# GULP energy per Si atom -5579.828040 kJ/mol
# Density = 2.090923 g / cm^3
# Si number density = 20.956929 Si / 1000 Ang^3
#
#
#
# Elastic Constant Matrix: (Units=GPa)
#
#
# Indices 1 2 3 4 5 6 
#
# 1 103.5701 39.9194 20.5327 0.0000 -0.2027 0.0000
# 2 39.9194 47.9752 -9.9275 -0.0001 6.1386 0.0000
# 3 20.5327 -9.9275 65.9956 -0.0005 4.5894 0.0001
# 4 0.0000 -0.0001 -0.0005 23.7341 0.0001 5.4674
# 5 -0.2027 6.1386 4.5894 0.0001 27.4998 0.0001
# 6 0.0000 0.0000 0.0001 5.4674 0.0001 25.2180
#
#
#
# Elastic Compliance Matrix: (Units=1/GPa)
#
#
# Indices 1 2 3 4 5 6 
#
# 1 0.018190 -0.017642 -0.008697 0.000000 0.005524 0.000000
# 2 -0.017642 0.039449 0.012186 0.000001 -0.010970 0.000000
# 3 -0.008697 0.012186 0.020119 0.000001 -0.006142 0.000000
# 4 0.000000 0.000001 0.000001 0.044348 0.000000 -0.009615
# 5 0.005524 -0.010970 -0.006142 0.000000 0.039878 0.000000
# 6 0.000000 0.000000 0.000000 -0.009615 0.000000 0.041739
#
#
# Mechanical properties :
#
#
# Convention : Reuss Voigt Hill
#
# Bulk Modulus (GPa) = 20.22216 35.39891 27.81053
# Shear Modulus (GPa) = 20.11949 26.42481 23.27215
#
# Velocity S-wave (km/s) = 3.10181 3.55478 3.33599
# Velocity P-wave (km/s) = 4.74327 5.81176 5.30449
#
# Compressibility (1/GPa) = 0.04945071
#
# Stress axis : x y z
#
# Youngs Moduli (GPa) = 54.97417 25.34893 49.70501
#
# Poissons Ratio (x) = 0.44722 0.43231
# Poissons Ratio (y) = 0.96988 -0.60571
# Poissons Ratio (z) = 0.47813 -0.30890
#
# Static dielectric constant tensor:
#      x y z
#    x 1.789010 0.000000 -0.008670 
#    y 0.000000 1.744600 0.000000 
#    z -0.008670 0.000000 1.814310 
# 
# From -- ./inp_files/32545.got.cif
#   From: 2010.05.17/outbox.cif.g08.bks.cpg/sg15_17_cif.got.tgz:32545.got - 2010.06.03 18:47:42.
