data_PCOD9270426
_publ_section_title
;
Structure prediction by ZEFSAII (Michael W. Deem and Ramdas Pophale) SiO2 
 PCOD9270426
Probable space group: C 2/C
;
_chemical_formula_sum "Si O2"
_cell_formula_units_Z 40
_cell_length_a 6.540605
_cell_length_b 28.709915
_cell_length_c 11.137173
_cell_angle_alpha 90.000000
_cell_angle_beta 44.333385
_cell_angle_gamma 90.000000
_cell_volume 1461.496209
_symmetry_space_group_name_H-M "C 2/C"
_symmetry_group_IT_number 15
_symmetry_cell_setting 'monoclinic'
loop_
_space_group_symop_operation_xyz
x,y,z
-x,y,1/2-z
-x,-y,-z
x,-y,1/2+z
1/2+x,1/2+y,z
1/2-x,1/2+y,1/2-z
1/2-x,1/2-y,-z
1/2+x,1/2-y,1/2+z
loop_
_atom_site_type_symbol
_atom_site_label
_atom_site_fract_x
_atom_site_fract_y
_atom_site_fract_z
Si Si1 0.510820 0.595573 0.005369
Si Si2 0.577801 0.073606 0.381091
Si Si3 0.552151 0.316028 0.366133
Si Si4 0.293941 0.967029 0.208053
Si Si5 0.437496 0.274146 0.650543
O O1 0.369539 0.592386 0.195586
O O2 0.205573 0.598024 0.055927
O O3 0.679961 0.640898 0.888535
O O4 0.677019 0.550713 0.883932
O O5 0.507255 0.069902 0.551595
O O6 0.579128 0.018755 0.345146
O O7 0.500000 0.332850 0.250000
O O8 0.340509 0.298204 0.565817
O O9 0.731347 0.269377 0.264392
O O10 0.000000 0.969710 0.250000
O O11 0.500000 0.302027 0.750000
O O12 0.750000 0.250000 0.500000
#
# Coordination Sequence:
#
# PCOD9270426 Si02
#       5
#     8   8   8   8   8
#     4  10  20  35  58  90 129 160 214 279 319 378
#     4   9  18  34  54  81 121 166 206 265 323 365
#     4  11  21  40  68 103 126 168 227 275 333 404
#     4   9  17  33  58  82 119 173 218 256 321 392
#     4   9  21  44  68  88 131 172 205 271 347 406
#
# _framework density 27.369212999999998
#
# number of rings (size 3 to 8) (size 9 to 14) (size 15 to 20)
#    0.000    2.400    0.000    3.000    0.000    0.000 
#   25.200    1.000   57.200    0.000    0.000    0.000 
#    0.000    0.000    0.000    0.000    0.000    0.000 
#
# Total GULP energy -111549.576649 kJ/mol
# GULP energy per Si atom -5577.478832 kJ/mol
# Density = 2.730692 g / cm^3
# Si number density = 27.369213 Si / 1000 Ang^3
#
#
#
# Elastic Constant Matrix: (Units=GPa)
#
#
# Indices 1 2 3 4 5 6 
#
# 1 85.3643 2.6404 72.0756 0.0000 35.3412 0.0000
# 2 2.6404 121.2930 52.8459 0.0000 7.4932 0.0000
# 3 72.0756 52.8459 202.3573 0.0000 28.1787 0.0000
# 4 0.0000 0.0000 0.0000 -6.4519 0.0000 -19.3970
# 5 35.3412 7.4932 28.1787 0.0000 66.0939 0.0000
# 6 0.0000 0.0000 0.0000 -19.3970 0.0000 -1.9352
#
#
#
# Elastic Compliance Matrix: (Units=1/GPa)
#
#
# Indices 1 2 3 4 5 6 
#
# 1 0.021304 0.003218 -0.007220 0.000000 -0.008678 0.000000
# 2 0.003218 0.009789 -0.003517 0.000000 -0.001331 0.000000
# 3 -0.007220 -0.003517 0.008334 0.000000 0.000706 0.000000
# 4 0.000000 0.000000 0.000000 0.005320 0.000000 -0.053324
# 5 -0.008678 -0.001331 0.000706 0.000000 0.019620 0.000000
# 6 0.000000 0.000000 0.000000 -0.053324 0.000000 0.017737
#
#
# Mechanical properties :
#
#
# Convention : Reuss Voigt Hill
#
# Bulk Modulus (GPa) = 41.00392 73.79315 57.39854
# Shear Modulus (GPa) = 47.49663 30.30489 38.90076
#
# Velocity S-wave (km/s) = 4.17034 3.33116 3.77415
# Velocity P-wave (km/s) = 6.18088 6.46654 6.32532
#
# Compressibility (1/GPa) = 0.02438791
#
# Stress axis : x y z
#
# Youngs Moduli (GPa) = 46.94023 102.15438 119.99745
#
# Poissons Ratio (x) = -0.32873 0.86637
# Poissons Ratio (y) = -0.15105 0.42206
# Poissons Ratio (z) = 0.33890 0.35931
#
# Static dielectric constant tensor:
#      x y z
#    x 2.262260 0.000000 0.019890 
#    y 0.000000 2.117340 0.000000 
#    z 0.019890 0.000000 2.186100 
# 
# From -- ./inp_files/82001.got.cif
#   From: 2010.05.17/outbox.cif.g08.bks.cpg/sg15_42_cif.got.tgz:82001.got - 2010.06.03 18:47:42.
