data_PCOD9270150
_publ_section_title
;
Structure prediction by ZEFSAII (Michael W. Deem and Ramdas Pophale) SiO2 
 PCOD9270150
Probable space group: C 2/C
;
_chemical_formula_sum "Si O2"
_cell_formula_units_Z 32
_cell_length_a 26.212048
_cell_length_b 7.957198
_cell_length_c 14.763963
_cell_angle_alpha 90.000000
_cell_angle_beta 29.009224
_cell_angle_gamma 90.000000
_cell_volume 1493.349310
_symmetry_space_group_name_H-M "C 2/C"
_symmetry_group_IT_number 15
_symmetry_cell_setting 'monoclinic'
loop_
_space_group_symop_operation_xyz
x,y,z
-x,y,1/2-z
-x,-y,-z
x,-y,1/2+z
1/2+x,1/2+y,z
1/2-x,1/2+y,1/2-z
1/2-x,1/2-y,-z
1/2+x,1/2-y,1/2+z
loop_
_atom_site_type_symbol
_atom_site_label
_atom_site_fract_x
_atom_site_fract_y
_atom_site_fract_z
Si Si1 0.685908 0.512815 0.621682
Si Si2 0.773047 0.229627 0.115849
Si Si3 0.596964 0.839267 0.261895
Si Si4 0.387188 0.017296 0.558901
O O1 0.688478 0.645500 0.699292
O O2 0.680384 0.618607 0.537809
O O3 0.603970 0.361656 0.749937
O O4 0.800231 0.420813 0.444357
O O5 0.710977 0.110205 0.281126
O O6 0.859991 0.339665 0.030095
O O7 0.493045 0.914222 0.378598
O O8 0.601883 0.899306 0.358584
#
# Coordination Sequence:
#
# PCOD9270150 Si02
#       4
#     8   8   8   8
#     4   9  19  37  58  82 114 148 184 236 287 331
#     4  10  20  35  56  82 116 150 186 229 280 338
#     4   9  19  37  59  80 112 151 188 234 284 330
#     4  10  20  35  57  84 114 151 190 231 277 336
#
# _framework density 21.428341
#
# number of rings (size 3 to 8) (size 9 to 14) (size 15 to 20)
#    0.000    2.500    0.000    1.500    0.000    2.000 
#    0.000    7.500    0.000    6.000    0.000    0.000 
#    0.000    0.000    0.000    0.000    0.000    0.000 
#
# Total GULP energy -89461.687128 kJ/mol
# GULP energy per Si atom -5591.355446 kJ/mol
# Density = 2.137957 g / cm^3
# Si number density = 21.428341 Si / 1000 Ang^3
#
#
#
# Elastic Constant Matrix: (Units=GPa)
#
#
# Indices 1 2 3 4 5 6 
#
# 1 40.5873 30.2962 21.3429 0.0001 -17.4430 -0.0001
# 2 30.2962 140.5801 31.2418 0.0002 -13.1163 -0.0002
# 3 21.3429 31.2418 42.2075 0.0001 -13.7407 -0.0001
# 4 0.0001 0.0002 0.0001 22.2097 -0.0001 -17.7590
# 5 -17.4430 -13.1163 -13.7407 -0.0001 19.8316 0.0000
# 6 -0.0001 -0.0002 -0.0001 -17.7590 0.0000 37.5920
#
#
#
# Elastic Compliance Matrix: (Units=1/GPa)
#
#
# Indices 1 2 3 4 5 6 
#
# 1 0.046971 -0.005017 -0.009902 0.000000 0.031134 0.000000
# 2 -0.005017 0.009091 -0.004741 0.000000 -0.001685 0.000000
# 3 -0.009902 -0.004741 0.036610 0.000000 0.013521 0.000000
# 4 0.000000 0.000000 0.000000 0.072358 0.000000 0.034183
# 5 0.031134 -0.001685 0.013521 0.000000 0.086063 0.000000
# 6 0.000000 0.000000 0.000000 0.034183 0.000000 0.042750
#
#
# Mechanical properties :
#
#
# Convention : Reuss Voigt Hill
#
# Bulk Modulus (GPa) = 18.74326 43.23741 30.99034
# Shear Modulus (GPa) = 14.24718 25.29294 19.77006
#
# Velocity S-wave (km/s) = 2.58132 3.43935 3.04075
# Velocity P-wave (km/s) = 4.20121 5.99947 5.17899
#
# Compressibility (1/GPa) = 0.05335251
#
# Stress axis : x y z
#
# Youngs Moduli (GPa) = 21.28992 109.99956 27.31462
#
# Poissons Ratio (x) = 0.55188 0.27047
# Poissons Ratio (y) = 0.10681 0.12949
# Poissons Ratio (z) = 0.21081 0.52146
#
# Static dielectric constant tensor:
#      x y z
#    x 1.758040 0.000000 0.012390 
#    y 0.000000 1.773470 0.000000 
#    z 0.012390 0.000000 1.780980 
# 
# From -- ./inp_files/125767.got.cif
#   From: 2010.05.17/outbox.cif.g08.bks.cpg/sg15_63_cif.got.tgz:125767.got - 2010.06.03 18:47:42.
