data_PCOD9270876
_publ_section_title
;
Structure prediction by ZEFSAII (Michael W. Deem and Ramdas Pophale) SiO2 
 PCOD9270876
Probable space group: C 2/C
;
_chemical_formula_sum "Si O2"
_cell_formula_units_Z 48
_cell_length_a 7.634143
_cell_length_b 21.153446
_cell_length_c 14.117407
_cell_angle_alpha 90.000000
_cell_angle_beta 99.724064
_cell_angle_gamma 90.000000
_cell_volume 2247.043187
_symmetry_space_group_name_H-M "C 2/C"
_symmetry_group_IT_number 15
_symmetry_cell_setting 'monoclinic'
loop_
_space_group_symop_operation_xyz
x,y,z
-x,y,1/2-z
-x,-y,-z
x,-y,1/2+z
1/2+x,1/2+y,z
1/2-x,1/2+y,1/2-z
1/2-x,1/2-y,-z
1/2+x,1/2-y,1/2+z
loop_
_atom_site_type_symbol
_atom_site_label
_atom_site_fract_x
_atom_site_fract_y
_atom_site_fract_z
Si Si1 0.582222 0.944258 0.573476
Si Si2 0.377563 0.555361 0.953884
Si Si3 0.625766 0.690385 0.596821
Si Si4 0.495420 0.813020 0.007572
Si Si5 0.708936 0.485594 0.255012
Si Si6 0.816364 0.346468 0.293326
O O1 0.762948 0.929631 0.534503
O O2 0.482322 0.877397 0.551979
O O3 0.500000 0.000000 0.500000
O O4 0.650412 0.968566 0.681382
O O5 0.460161 0.621458 0.927798
O O6 0.266742 0.527518 0.854691
O O7 0.500000 0.500000 0.000000
O O8 0.513078 0.750184 0.555320
O O9 0.807501 0.688218 0.549811
O O10 0.688035 0.691157 0.711212
O O11 0.639116 0.813899 0.104188
O O12 0.500000 0.503381 0.250000
O O13 0.741673 0.416665 0.303147
O O14 0.000000 0.354726 0.250000
#
# Coordination Sequence:
#
# PCOD9270876 Si02
#       6
#     8   8   8   8   8   8
#     4  11  21  34  57  84 109 143 184 227 272 324
#     4  10  20  36  54  80 114 140 183 226 275 324
#     4   8  17  30  51  76 106 139 172 226 269 319
#     4   9  16  32  50  79 108 132 182 224 267 317
#     4  11  21  34  54  81 110 147 181 223 277 323
#     4   9  17  32  55  77 102 145 183 217 269 331
#
# _framework density 21.361405000000001
#
# number of rings (size 3 to 8) (size 9 to 14) (size 15 to 20)
#    0.000    2.333    3.333    1.000    0.000    0.000 
#    3.000    0.833    0.000    9.000    0.000    0.000 
#    0.000    0.000    0.000    0.000    0.000    0.000 
#
# Total GULP energy -133829.308605 kJ/mol
# GULP energy per Si atom -5576.221192 kJ/mol
# Density = 2.131279 g / cm^3
# Si number density = 21.361405 Si / 1000 Ang^3
#
#
#
# Elastic Constant Matrix: (Units=GPa)
#
#
# Indices 1 2 3 4 5 6 
#
# 1 41.1349 12.8399 13.2976 0.0000 -0.3443 0.0000
# 2 12.8399 167.2322 113.2097 0.0000 40.4266 0.0000
# 3 13.2976 113.2097 156.7957 0.0000 33.6005 0.0000
# 4 0.0000 0.0000 0.0000 37.2861 0.0000 10.3731
# 5 -0.3443 40.4266 33.6005 0.0000 29.7582 0.0000
# 6 0.0000 0.0000 0.0000 10.3731 0.0000 21.5607
#
#
#
# Elastic Compliance Matrix: (Units=1/GPa)
#
#
# Indices 1 2 3 4 5 6 
#
# 1 0.025548 -0.001911 -0.001856 0.000000 0.004987 0.000000
# 2 -0.001911 0.013673 -0.007553 0.000000 -0.010070 0.000000
# 3 -0.001856 -0.007553 0.012920 0.000000 -0.004350 0.000000
# 4 0.000000 0.000000 0.000000 0.030964 0.000000 -0.014897
# 5 0.004987 -0.010070 -0.004350 0.000000 0.052253 0.000000
# 6 0.000000 0.000000 0.000000 -0.014897 0.000000 0.053548
#
#
# Mechanical properties :
#
#
# Convention : Reuss Voigt Hill
#
# Bulk Modulus (GPa) = 33.89371 71.53969 52.71670
# Shear Modulus (GPa) = 22.58555 32.77536 27.68045
#
# Velocity S-wave (km/s) = 3.25515 3.92130 3.60365
# Velocity P-wave (km/s) = 5.47990 7.35289 6.48437
#
# Compressibility (1/GPa) = 0.02950400
#
# Stress axis : x y z
#
# Youngs Moduli (GPa) = 39.14153 73.13427 77.39717
#
# Poissons Ratio (x) = 0.13975 0.14362
# Poissons Ratio (y) = 0.07479 0.58455
# Poissons Ratio (z) = 0.07263 0.55235
#
# Static dielectric constant tensor:
#      x y z
#    x 1.869130 0.000000 0.019080 
#    y 0.000000 1.824550 0.000000 
#    z 0.019080 0.000000 1.718720 
# 
# From -- ./inp_files/135872.got.cif
#   From: 2010.05.17/outbox.cif.g08.bks.cpg/sg15_68_cif.got.tgz:135872.got - 2010.06.03 18:47:42.
