data_PCOD9270404
_publ_section_title
;
Structure prediction by ZEFSAII (Michael W. Deem and Ramdas Pophale) SiO2 
 PCOD9270404
Probable space group: C 2/C
;
_chemical_formula_sum "Si O2"
_cell_formula_units_Z 48
_cell_length_a 24.007074
_cell_length_b 10.091052
_cell_length_c 8.585805
_cell_angle_alpha 90.000000
_cell_angle_beta 102.939257
_cell_angle_gamma 90.000000
_cell_volume 2027.153656
_symmetry_space_group_name_H-M "C 2/C"
_symmetry_group_IT_number 15
_symmetry_cell_setting 'monoclinic'
loop_
_space_group_symop_operation_xyz
x,y,z
-x,y,1/2-z
-x,-y,-z
x,-y,1/2+z
1/2+x,1/2+y,z
1/2-x,1/2+y,1/2-z
1/2-x,1/2-y,-z
1/2+x,1/2-y,1/2+z
loop_
_atom_site_type_symbol
_atom_site_label
_atom_site_fract_x
_atom_site_fract_y
_atom_site_fract_z
Si Si1 0.000000 0.904818 0.250000
Si Si2 0.790365 0.928448 0.980372
Si Si3 0.122322 0.431743 0.222408
Si Si4 0.331060 0.328777 0.682777
Si Si5 0.000000 0.654491 0.750000
Si Si6 0.545956 0.362454 0.578073
Si Si7 0.336432 0.843554 0.578160
O O1 0.046468 0.841837 0.393112
O O2 0.968854 0.994947 0.358579
O O3 0.827474 0.812930 0.085782
O O4 0.816579 0.072787 0.032646
O O5 0.792710 0.884617 0.800604
O O6 0.726232 0.904956 0.997396
O O7 0.167861 0.330668 0.336138
O O8 0.141587 0.581715 0.256904
O O9 0.058793 0.421001 0.255935
O O10 0.125097 0.388147 0.044503
O O11 0.395143 0.339483 0.793331
O O12 0.998248 0.757798 0.605557
#
# Coordination Sequence:
#
# PCOD9270404 Si02
#       7
#     4   8   8   8   4   8   8
#     4   9  16  28  50  75 116 157 192 235 290 345
#     4  10  21  37  60  89 121 153 193 244 294 351
#     4  10  22  40  60  83 117 156 198 245 293 350
#     4  10  20  35  58  88 120 151 192 242 293 348
#     4   9  20  38  56  79 114 151 196 249 288 341
#     4   9  17  31  51  81 116 152 192 240 290 341
#     4  10  22  40  60  86 119 156 197 242 295 354
#
# _framework density 23.678519999999999
#
# number of rings (size 3 to 8) (size 9 to 14) (size 15 to 20)
#    0.000    2.333    0.000    2.000    0.000    4.000 
#    0.000    5.000    0.000    5.000    0.000    0.000 
#    0.000    1.333    0.000    0.000    0.000    0.000 
#
# Total GULP energy -133679.255765 kJ/mol
# GULP energy per Si atom -5569.968990 kJ/mol
# Density = 2.362463 g / cm^3
# Si number density = 23.678520 Si / 1000 Ang^3
#
#
#
# Elastic Constant Matrix: (Units=GPa)
#
#
# Indices 1 2 3 4 5 6 
#
# 1 97.8826 -12.7300 10.5160 0.0000 -12.5441 0.0000
# 2 -12.7300 39.9444 0.5490 0.0000 0.9744 0.0000
# 3 10.5160 0.5490 54.8390 0.0000 -7.1147 0.0000
# 4 0.0000 0.0000 0.0000 24.7682 0.0000 8.7663
# 5 -12.5441 0.9744 -7.1147 0.0000 20.3091 0.0000
# 6 0.0000 0.0000 0.0000 8.7663 0.0000 24.6504
#
#
#
# Elastic Compliance Matrix: (Units=1/GPa)
#
#
# Indices 1 2 3 4 5 6 
#
# 1 0.011673 0.003580 -0.001426 0.000000 0.006539 0.000000
# 2 0.003580 0.026172 -0.000864 0.000000 0.000653 0.000000
# 3 -0.001426 -0.000864 0.019285 0.000000 0.005917 0.000000
# 4 0.000000 0.000000 0.000000 0.046188 0.000000 -0.016426
# 5 0.006539 0.000653 0.005917 0.000000 0.055319 0.000000
# 6 0.000000 0.000000 0.000000 -0.016426 0.000000 0.046409
#
#
# Mechanical properties :
#
#
# Convention : Reuss Voigt Hill
#
# Bulk Modulus (GPa) = 16.74744 21.03735 18.89239
# Shear Modulus (GPa) = 22.48524 26.90094 24.69309
#
# Velocity S-wave (km/s) = 3.08491 3.37425 3.23282
# Velocity P-wave (km/s) = 4.44714 4.90761 4.68304
#
# Compressibility (1/GPa) = 0.05971060
#
# Stress axis : x y z
#
# Youngs Moduli (GPa) = 85.66702 38.20914 51.85408
#
# Poissons Ratio (x) = -0.13680 0.07394
# Poissons Ratio (y) = -0.30671 0.04479
# Poissons Ratio (z) = 0.12216 0.03301
#
# Static dielectric constant tensor:
#      x y z
#    x 2.017220 0.000000 0.005920 
#    y 0.000000 2.090170 0.000000 
#    z 0.005920 0.000000 1.986680 
# 
# From -- ./inp_files/64905.got.cif
#   From: 2010.05.17/outbox.cif.g08.bks.cpg/sg15_33_cif.got.tgz:64905.got - 2010.06.03 18:47:42.
