data_PCOD9270149
_publ_section_title
;
Structure prediction by ZEFSAII (Michael W. Deem and Ramdas Pophale) SiO2 
 PCOD9270149
Probable space group: C 2/C
;
_chemical_formula_sum "Si O2"
_cell_formula_units_Z 32
_cell_length_a 7.920337
_cell_length_b 14.289120
_cell_length_c 13.858675
_cell_angle_alpha 90.000000
_cell_angle_beta 77.188460
_cell_angle_gamma 90.000000
_cell_volume 1529.403605
_symmetry_space_group_name_H-M "C 2/C"
_symmetry_group_IT_number 15
_symmetry_cell_setting 'monoclinic'
loop_
_space_group_symop_operation_xyz
x,y,z
-x,y,1/2-z
-x,-y,-z
x,-y,1/2+z
1/2+x,1/2+y,z
1/2-x,1/2+y,1/2-z
1/2-x,1/2-y,-z
1/2+x,1/2-y,1/2+z
loop_
_atom_site_type_symbol
_atom_site_label
_atom_site_fract_x
_atom_site_fract_y
_atom_site_fract_z
Si Si1 0.265019 0.559734 0.513584
Si Si2 0.575778 0.557058 0.342234
Si Si3 0.898507 0.365735 0.039147
Si Si4 0.837495 0.720443 0.337545
O O1 0.420343 0.598236 0.428271
O O2 0.345164 0.526888 0.604650
O O3 0.193385 0.465469 0.469822
O O4 0.095883 0.621971 0.546344
O O5 0.500000 0.527476 0.250000
O O6 0.722974 0.635120 0.310614
O O7 0.785375 0.308556 0.129107
O O8 0.897551 0.312768 0.936431
O O9 0.000000 0.739553 0.250000
#
# Coordination Sequence:
#
# PCOD9270149 Si02
#       4
#     8   8   8   8
#     4   9  19  37  59  82 112 150 191 239 286 331
#     4  10  20  35  56  82 115 153 191 232 283 340
#     4   9  19  37  58  81 114 151 189 238 287 334
#     4  10  20  35  57  84 117 152 187 232 286 345
#
# _framework density 20.923189000000001
#
# number of rings (size 3 to 8) (size 9 to 14) (size 15 to 20)
#    0.000    2.500    0.000    1.500    0.000    2.000 
#    0.000    7.500    0.000    0.000    0.000    0.000 
#    0.000    0.000    0.000    0.000    0.000    0.000 
#
# Total GULP energy -89448.786477 kJ/mol
# GULP energy per Si atom -5590.549155 kJ/mol
# Density = 2.087557 g / cm^3
# Si number density = 20.923189 Si / 1000 Ang^3
#
#
#
# Elastic Constant Matrix: (Units=GPa)
#
#
# Indices 1 2 3 4 5 6 
#
# 1 165.5985 30.0627 73.2379 0.0000 -14.1728 0.0000
# 2 30.0627 30.6720 24.3375 0.0000 -15.8087 0.0000
# 3 73.2379 24.3375 85.1983 0.0000 -13.5402 0.0000
# 4 0.0000 0.0000 0.0000 10.5120 0.0000 -18.5668
# 5 -14.1728 -15.8087 -13.5402 0.0000 48.3341 0.0000
# 6 0.0000 0.0000 0.0000 -18.5668 0.0000 30.2580
#
#
#
# Elastic Compliance Matrix: (Units=1/GPa)
#
#
# Indices 1 2 3 4 5 6 
#
# 1 0.010100 -0.004154 -0.007578 0.000000 -0.000520 0.000000
# 2 -0.004154 0.050176 -0.008737 0.000000 0.012746 0.000000
# 3 -0.007578 -0.008737 0.020869 0.000000 0.000767 0.000000
# 4 0.000000 0.000000 0.000000 -1.135223 0.000000 -0.696592
# 5 -0.000520 0.012746 0.000767 0.000000 0.024920 0.000000
# 6 0.000000 0.000000 0.000000 -0.696592 0.000000 -0.394392
#
#
# Mechanical properties :
#
#
# Convention : Reuss Voigt Hill
#
# Bulk Modulus (GPa) = 24.87091 59.63833 42.25462
# Shear Modulus (GPa) = -3.65174 28.07619 12.21222
#
# Velocity S-wave (km/s) = -1.32253 3.66713 2.41855
# Velocity P-wave (km/s) = 3.09523 6.81878 5.29510
#
# Compressibility (1/GPa) = 0.04020761
#
# Stress axis : x y z
#
# Youngs Moduli (GPa) = 99.01216 19.92969 47.91821
#
# Poissons Ratio (x) = 0.08279 0.36312
# Poissons Ratio (y) = 0.41133 0.41864
# Poissons Ratio (z) = 0.75030 0.17412
#
# Static dielectric constant tensor:
#      x y z
#    x 1.740060 0.000000 0.005370 
#    y 0.000000 1.772360 0.000000 
#    z 0.005370 0.000000 1.714300 
# 
# From -- ./inp_files/75509.got.cif
#   From: 2010.05.17/outbox.cif.g08.bks.cpg/sg15_38_cif.got.tgz:75509.got - 2010.06.03 18:47:42.
