data_PCOD9270865
_publ_section_title
;
Structure prediction by ZEFSAII (Michael W. Deem and Ramdas Pophale) SiO2 
 PCOD9270865
Probable space group: C 2/C
;
_chemical_formula_sum "Si O2"
_cell_formula_units_Z 44
_cell_length_a 25.618273
_cell_length_b 19.113376
_cell_length_c 8.513804
_cell_angle_alpha 90.000000
_cell_angle_beta 153.081388
_cell_angle_gamma 90.000000
_cell_volume 1887.316692
_symmetry_space_group_name_H-M "C 2/C"
_symmetry_group_IT_number 15
_symmetry_cell_setting 'monoclinic'
loop_
_space_group_symop_operation_xyz
x,y,z
-x,y,1/2-z
-x,-y,-z
x,-y,1/2+z
1/2+x,1/2+y,z
1/2-x,1/2+y,1/2-z
1/2-x,1/2-y,-z
1/2+x,1/2-y,1/2+z
loop_
_atom_site_type_symbol
_atom_site_label
_atom_site_fract_x
_atom_site_fract_y
_atom_site_fract_z
Si Si1 0.500000 0.669177 0.250000
Si Si2 0.909674 0.093257 0.635524
Si Si3 0.873123 0.711076 0.302019
Si Si4 0.814905 0.310773 0.982612
Si Si5 0.125671 0.063064 0.430461
Si Si6 0.804158 0.339534 0.295632
O O1 0.538020 0.724326 0.485483
O O2 0.613504 0.623208 0.527363
O O3 0.803111 0.144907 0.358675
O O4 0.000000 0.120499 0.750000
O O5 0.864022 0.014473 0.477129
O O6 0.999030 0.075518 0.015564
O O7 0.884822 0.676839 0.507830
O O8 0.750000 0.750000 0.000000
O O9 0.872016 0.664802 0.142791
O O10 0.778755 0.229310 0.910972
O O11 0.862955 0.333486 0.282819
O O12 0.226568 0.090275 0.590478
#
# Coordination Sequence:
#
# PCOD9270865 Si02
#       6
#     4   8   8   8   8   8
#     4  12  20  36  58  84 118 156 188 240 300 344
#     4  11  22  33  51  88 126 153 189 232 295 362
#     4  10  20  36  56  80 111 149 195 240 278 341
#     4  10  20  37  52  77 117 150 197 232 271 343
#     4  11  21  33  54  83 125 156 184 233 296 364
#     4  10  20  36  54  75 114 152 195 230 272 343
#
# _framework density 23.313521000000001
#
# number of rings (size 3 to 8) (size 9 to 14) (size 15 to 20)
#    0.000    1.455    6.364    2.182    0.000    0.000 
#    0.000    0.909    0.000    0.000    0.000    1.273 
#    2.727    0.000    0.000    0.000    0.000    0.000 
#
# Total GULP energy -122521.172125 kJ/mol
# GULP energy per Si atom -5569.144188 kJ/mol
# Density = 2.326046 g / cm^3
# Si number density = 23.313521 Si / 1000 Ang^3
#
#
#
# Elastic Constant Matrix: (Units=GPa)
#
#
# Indices 1 2 3 4 5 6 
#
# 1 148.1554 9.4135 24.9414 0.0000 -28.1490 0.0000
# 2 9.4135 71.5721 19.0146 0.0000 12.0390 0.0000
# 3 24.9414 19.0146 50.7252 0.0000 -27.4881 0.0000
# 4 0.0000 0.0000 0.0000 27.2260 0.0000 -0.3018
# 5 -28.1490 12.0390 -27.4881 0.0000 48.2092 0.0000
# 6 0.0000 0.0000 0.0000 -0.3018 0.0000 25.5318
#
#
#
# Elastic Compliance Matrix: (Units=1/GPa)
#
#
# Indices 1 2 3 4 5 6 
#
# 1 0.007844 -0.001567 -0.000833 0.000000 0.004496 0.000000
# 2 -0.001567 0.020532 -0.014761 0.000000 -0.014459 0.000000
# 3 -0.000833 -0.014761 0.039639 0.000000 0.025801 0.000000
# 4 0.000000 0.000000 0.000000 0.036734 0.000000 0.000434
# 5 0.004496 -0.014459 0.025801 0.000000 0.041690 0.000000
# 6 0.000000 0.000000 0.000000 0.000434 0.000000 0.039172
#
#
# Mechanical properties :
#
#
# Convention : Reuss Voigt Hill
#
# Bulk Modulus (GPa) = 29.68031 41.91016 35.79524
# Shear Modulus (GPa) = 21.62972 34.66561 28.14767
#
# Velocity S-wave (km/s) = 3.04925 3.86026 3.47847
# Velocity P-wave (km/s) = 5.01555 6.15505 5.61428
#
# Compressibility (1/GPa) = 0.03369236
#
# Stress axis : x y z
#
# Youngs Moduli (GPa) = 127.49095 48.70524 25.22785
#
# Poissons Ratio (x) = 0.07630 0.02101
# Poissons Ratio (y) = 0.19973 0.37239
# Poissons Ratio (z) = 0.10620 0.71895
#
# Static dielectric constant tensor:
#      x y z
#    x 2.090160 0.000000 -0.126220 
#    y 0.000000 1.929510 0.000000 
#    z -0.126220 0.000000 2.077670 
# 
# From -- ./inp_files/49280.got.cif
#   From: 2010.05.17/outbox.cif.g08.bks.cpg/sg15_25_cif.got.tgz:49280.got - 2010.06.03 18:47:42.
