data_PCOD9270201
_publ_section_title
;
Structure prediction by ZEFSAII (Michael W. Deem and Ramdas Pophale) SiO2 
 PCOD9270201
Probable space group: C 2/C
;
_chemical_formula_sum "Si O2"
_cell_formula_units_Z 44
_cell_length_a 8.337732
_cell_length_b 11.411072
_cell_length_c 29.667275
_cell_angle_alpha 90.000000
_cell_angle_beta 51.698371
_cell_angle_gamma 90.000000
_cell_volume 2215.073802
_symmetry_space_group_name_H-M "C 2/C"
_symmetry_group_IT_number 15
_symmetry_cell_setting 'monoclinic'
loop_
_space_group_symop_operation_xyz
x,y,z
-x,y,1/2-z
-x,-y,-z
x,-y,1/2+z
1/2+x,1/2+y,z
1/2-x,1/2+y,1/2-z
1/2-x,1/2-y,-z
1/2+x,1/2-y,1/2+z
loop_
_atom_site_type_symbol
_atom_site_label
_atom_site_fract_x
_atom_site_fract_y
_atom_site_fract_z
Si Si1 0.461271 0.985152 0.559102
Si Si2 0.137142 0.141284 0.495590
Si Si3 0.949311 0.136658 0.353458
Si Si4 0.923979 0.598345 0.654526
Si Si5 0.660821 0.530069 0.403639
Si Si6 0.000000 0.990555 0.750000
O O1 0.685924 0.955163 0.536100
O O2 0.291307 0.885201 0.595077
O O3 0.500000 0.000000 0.500000
O O4 0.393696 0.085914 0.605382
O O5 0.250000 0.250000 0.500000
O O6 0.955850 0.085266 0.556256
O O7 0.095973 0.137960 0.449031
O O8 0.005194 0.272030 0.346574
O O9 0.994045 0.086941 0.296164
O O10 0.072087 0.064609 0.370416
O O11 0.706645 0.566502 0.713780
O O12 0.099355 0.505320 0.639601
#
# Coordination Sequence:
#
# PCOD9270201 Si02
#       6
#     8   8   8   8   8   4
#     4  10  20  37  59  94 132 157 198 246 299 386
#     4  10  20  35  56  87 130 161 188 240 297 360
#     4  11  23  41  66  88 122 167 205 257 314 357
#     4  10  24  42  61  90 121 161 209 256 314 357
#     4  10  22  37  57  92 117 154 209 238 290 380
#     4  10  26  44  58  88 118 154 220 268 300 366
#
# _framework density 19.863897999999999
#
# number of rings (size 3 to 8) (size 9 to 14) (size 15 to 20)
#    0.000    1.818    1.818    1.091    2.545    4.364 
#    0.000    0.000    0.000    0.000    0.000    0.000 
#    0.000    0.000    0.000    0.000    0.000    0.000 
#
# Total GULP energy -122538.258025 kJ/mol
# GULP energy per Si atom -5569.920819 kJ/mol
# Density = 1.981869 g / cm^3
# Si number density = 19.863898 Si / 1000 Ang^3
#
#
#
# Elastic Constant Matrix: (Units=GPa)
#
#
# Indices 1 2 3 4 5 6 
#
# 1 71.7922 7.2258 31.0337 0.0000 -2.9585 0.0000
# 2 7.2258 66.6125 22.0209 0.0000 1.2440 0.0000
# 3 31.0337 22.0209 119.2507 0.0000 -0.2057 0.0000
# 4 0.0000 0.0000 0.0000 8.9013 0.0000 1.6357
# 5 -2.9585 1.2440 -0.2057 0.0000 53.2547 0.0000
# 6 0.0000 0.0000 0.0000 1.6357 0.0000 40.8614
#
#
#
# Elastic Compliance Matrix: (Units=1/GPa)
#
#
# Indices 1 2 3 4 5 6 
#
# 1 0.015743 -0.000394 -0.004023 0.000000 0.000868 0.000000
# 2 -0.000394 0.016006 -0.002854 0.000000 -0.000407 0.000000
# 3 -0.004023 -0.002854 0.009959 0.000000 -0.000118 0.000000
# 4 0.000000 0.000000 0.000000 0.113175 0.000000 -0.004530
# 5 0.000868 -0.000407 -0.000118 0.000000 0.018835 0.000000
# 6 0.000000 0.000000 0.000000 -0.004530 0.000000 0.024654
#
#
# Mechanical properties :
#
#
# Convention : Reuss Voigt Hill
#
# Bulk Modulus (GPa) = 36.80889 42.02402 39.41645
# Shear Modulus (GPa) = 22.52551 33.76183 28.14367
#
# Velocity S-wave (km/s) = 3.37113 4.12716 3.76816
# Velocity P-wave (km/s) = 5.80719 6.62670 6.23044
#
# Compressibility (1/GPa) = 0.02716735
#
# Stress axis : x y z
#
# Youngs Moduli (GPa) = 63.51836 62.47671 100.40802
#
# Poissons Ratio (x) = 0.02462 0.40392
# Poissons Ratio (y) = 0.02504 0.28654
# Poissons Ratio (z) = 0.25552 0.17830
#
# Static dielectric constant tensor:
#      x y z
#    x 0.326030 0.000000 -0.806330 
#    y 0.000000 1.722210 0.000000 
#    z -0.806330 0.000000 1.263350 
# 
# From -- ./inp_files/230149.got.cif
#   From: 2010.05.17/outbox.cif.g08.bks.cpg/sg15_116_cif.got.tgz:230149.got - 2010.06.03 18:47:42.
