data_PCOD9270193
_publ_section_title
;
Structure prediction by ZEFSAII (Michael W. Deem and Ramdas Pophale) SiO2 
 PCOD9270193
Probable space group: C 2/C
;
_chemical_formula_sum "Si O2"
_cell_formula_units_Z 64
_cell_length_a 18.610437
_cell_length_b 19.870840
_cell_length_c 13.747104
_cell_angle_alpha 90.000000
_cell_angle_beta 31.052494
_cell_angle_gamma 90.000000
_cell_volume 2622.315115
_symmetry_space_group_name_H-M "C 2/C"
_symmetry_group_IT_number 15
_symmetry_cell_setting 'monoclinic'
loop_
_space_group_symop_operation_xyz
x,y,z
-x,y,1/2-z
-x,-y,-z
x,-y,1/2+z
1/2+x,1/2+y,z
1/2-x,1/2+y,1/2-z
1/2-x,1/2-y,-z
1/2+x,1/2-y,1/2+z
loop_
_atom_site_type_symbol
_atom_site_label
_atom_site_fract_x
_atom_site_fract_y
_atom_site_fract_z
Si Si1 0.555013 0.599549 0.790112
Si Si2 0.141085 0.632881 0.023688
Si Si3 0.844664 0.388554 0.282069
Si Si4 0.560376 0.379239 0.499298
Si Si5 0.583901 0.217826 0.447641
Si Si6 0.035067 0.757315 0.097401
Si Si7 0.753482 0.620138 0.108841
Si Si8 0.449350 0.002570 0.921878
O O1 0.500000 0.570265 0.750000
O O2 0.717485 0.618878 0.582293
O O3 0.455907 0.663757 0.932342
O O4 0.570336 0.577959 0.885935
O O5 0.159742 0.703921 0.947472
O O6 0.103272 0.571977 0.996336
O O7 0.000000 0.638098 0.250000
O O8 0.694592 0.393929 0.407875
O O9 0.822772 0.373710 0.422551
O O10 0.948753 0.328595 0.128761
O O11 0.921666 0.460436 0.178655
O O12 0.563041 0.296709 0.493319
O O13 0.408552 0.393379 0.717286
O O14 0.582255 0.220853 0.331835
O O15 0.706075 0.183453 0.368922
O O16 0.000000 0.762892 0.250000
O O17 0.824103 0.555052 0.075106
O O18 0.500000 0.999240 0.750000
#
# Coordination Sequence:
#
# PCOD9270193 Si02
#       8
#     8   8   8   8   8   8   8   8
#     4  10  23  41  59  87 124 152 187 245 302 352
#     4  10  20  38  65  88 110 153 202 238 287 353
#     4  10  20  37  58  85 120 158 201 248 288 341
#     4  11  22  35  57  88 122 156 194 241 301 356
#     4  10  20  35  56  86 121 157 200 244 288 351
#     4   9  20  35  59  86 115 150 190 239 294 346
#     4  10  21  36  57  83 120 158 192 242 299 347
#     4   8  18  39  61  83 112 152 198 241 286 341
#
# _framework density 24.405915
#
# number of rings (size 3 to 8) (size 9 to 14) (size 15 to 20)
#    0.000    2.250    0.000    3.000    0.000   12.500 
#    0.000   10.000    0.000    3.000    0.000    0.000 
#    0.000    0.000    0.000    0.000    0.000    0.000 
#
# Total GULP energy -178193.503858 kJ/mol
# GULP energy per Si atom -5568.546996 kJ/mol
# Density = 2.435037 g / cm^3
# Si number density = 24.405915 Si / 1000 Ang^3
#
#
#
# Elastic Constant Matrix: (Units=GPa)
#
#
# Indices 1 2 3 4 5 6 
#
# 1 139.8432 1.6060 31.9701 -0.0004 -18.9744 0.0000
# 2 1.6060 52.5978 5.9364 -0.0002 -11.1265 0.0001
# 3 31.9701 5.9364 116.0721 -0.0006 -27.8262 0.0003
# 4 -0.0004 -0.0002 -0.0006 12.7140 0.0002 0.3657
# 5 -18.9744 -11.1265 -27.8262 0.0002 46.7218 0.0000
# 6 0.0000 0.0001 0.0003 0.3657 0.0000 3.2630
#
#
#
# Elastic Compliance Matrix: (Units=1/GPa)
#
#
# Indices 1 2 3 4 5 6 
#
# 1 0.007831 0.000434 -0.001624 0.000000 0.002317 0.000000
# 2 0.000434 0.020047 0.000049 0.000000 0.004979 -0.000001
# 3 -0.001624 0.000049 0.010388 0.000000 0.005539 -0.000001
# 4 0.000000 0.000000 0.000000 0.078908 0.000000 -0.008844
# 5 0.002317 0.004979 0.005539 0.000000 0.026829 -0.000001
# 6 0.000000 -0.000001 -0.000001 -0.008844 -0.000001 0.307455
#
#
# Mechanical properties :
#
#
# Convention : Reuss Voigt Hill
#
# Bulk Modulus (GPa) = 27.78955 43.05976 35.42466
# Shear Modulus (GPa) = 10.73573 30.47314 20.60443
#
# Velocity S-wave (km/s) = 2.09961 3.53738 2.90873
# Velocity P-wave (km/s) = 4.15800 5.86221 5.08205
#
# Compressibility (1/GPa) = 0.03598475
#
# Stress axis : x y z
#
# Youngs Moduli (GPa) = 127.69016 49.88325 96.26525
#
# Poissons Ratio (x) = -0.02166 0.15632
# Poissons Ratio (y) = -0.05545 -0.00470
# Poissons Ratio (z) = 0.20735 -0.00244
#
# Static dielectric constant tensor:
#      x y z
#    x 1.849580 0.000000 -0.104200 
#    y 0.000000 2.127340 0.000000 
#    z -0.104200 0.000000 1.850090 
# 
# From -- ./inp_files/164218.got.cif
#   From: 2010.05.17/outbox.cif.g08.bks.cpg/sg15_83_cif.got.tgz:164218.got - 2010.06.03 18:47:42.
