data_PCOD9270133
_publ_section_title
;
Structure prediction by ZEFSAII (Michael W. Deem and Ramdas Pophale) SiO2 
 PCOD9270133
Probable space group: C 2/C
;
_chemical_formula_sum "Si O2"
_cell_formula_units_Z 48
_cell_length_a 8.754857
_cell_length_b 16.390764
_cell_length_c 18.123908
_cell_angle_alpha 90.000000
_cell_angle_beta 120.515840
_cell_angle_gamma 90.000000
_cell_volume 2240.524748
_symmetry_space_group_name_H-M "C 2/C"
_symmetry_group_IT_number 15
_symmetry_cell_setting 'monoclinic'
loop_
_space_group_symop_operation_xyz
x,y,z
-x,y,1/2-z
-x,-y,-z
x,-y,1/2+z
1/2+x,1/2+y,z
1/2-x,1/2+y,1/2-z
1/2-x,1/2-y,-z
1/2+x,1/2-y,1/2+z
loop_
_atom_site_type_symbol
_atom_site_label
_atom_site_fract_x
_atom_site_fract_y
_atom_site_fract_z
Si Si1 0.456415 0.688916 0.324993
Si Si2 0.903083 0.768976 0.097584
Si Si3 0.526169 0.978184 0.592086
Si Si4 0.848764 0.351213 0.368170
Si Si5 0.337563 0.101298 0.162070
Si Si6 0.651516 0.185244 0.064346
O O1 0.500000 0.676563 0.250000
O O2 0.362173 0.777057 0.313698
O O3 0.337377 0.619155 0.333999
O O4 0.647943 0.692126 0.411391
O O5 0.833227 0.843390 0.129339
O O6 0.895017 0.691261 0.149035
O O7 0.083518 0.762533 0.095737
O O8 0.750000 0.750000 0.000000
O O9 0.345212 0.954470 0.590680
O O10 0.636949 0.894421 0.614167
O O11 0.500000 0.000000 0.500000
O O12 0.618407 0.057119 0.650036
O O13 0.009092 0.331007 0.465141
O O14 0.500000 0.068362 0.250000
#
# Coordination Sequence:
#
# PCOD9270133 Si02
#       6
#     8   8   8   8   8   8
#     4  11  21  33  51  77 107 141 183 230 277 333
#     4   8  15  30  53  76 100 135 176 216 265 328
#     4   9  18  35  56  78 105 140 181 225 276 338
#     4   9  18  32  52  78 104 134 174 224 275 320
#     4  10  20  35  56  77 106 150 189 224 283 347
#     4   9  17  33  54  76 104 138 178 221 268 332
#
# _framework density 21.423552000000001
#
# number of rings (size 3 to 8) (size 9 to 14) (size 15 to 20)
#    0.000    2.667    0.000    3.500    0.000    0.667 
#    0.000    5.000    0.000   14.000    0.000    0.000 
#    0.000    0.000    0.000    0.000    0.000    0.000 
#
# Total GULP energy -133616.058364 kJ/mol
# GULP energy per Si atom -5567.335765 kJ/mol
# Density = 2.137479 g / cm^3
# Si number density = 21.423552 Si / 1000 Ang^3
#
#
#
# Elastic Constant Matrix: (Units=GPa)
#
#
# Indices 1 2 3 4 5 6 
#
# 1 150.7538 53.7974 23.6123 0.0000 -13.6440 0.0000
# 2 53.7974 86.9294 -3.6981 0.0000 -12.8052 0.0000
# 3 23.6123 -3.6981 54.9945 0.0000 -9.7750 0.0000
# 4 0.0000 0.0000 0.0000 17.3336 0.0000 -9.3974
# 5 -13.6440 -12.8052 -9.7750 0.0000 28.5609 0.0000
# 6 0.0000 0.0000 0.0000 -9.3974 0.0000 36.5452
#
#
#
# Elastic Compliance Matrix: (Units=1/GPa)
#
#
# Indices 1 2 3 4 5 6 
#
# 1 0.009506 -0.006023 -0.004429 0.000000 0.000325 0.000000
# 2 -0.006023 0.016329 0.004764 0.000000 0.006074 0.000000
# 3 -0.004429 0.004764 0.021731 0.000000 0.007458 0.000000
# 4 0.000000 0.000000 0.000000 0.067037 0.000000 0.017238
# 5 0.000325 0.006074 0.007458 0.000000 0.040444 0.000000
# 6 0.000000 0.000000 0.000000 0.017238 0.000000 0.031796
#
#
# Mechanical properties :
#
#
# Convention : Reuss Voigt Hill
#
# Bulk Modulus (GPa) = 27.63281 48.90010 38.26646
# Shear Modulus (GPa) = 23.77758 31.08568 27.43163
#
# Velocity S-wave (km/s) = 3.33510 3.81334 3.58221
# Velocity P-wave (km/s) = 5.26848 6.50105 5.91695
#
# Compressibility (1/GPa) = 0.03618886
#
# Stress axis : x y z
#
# Youngs Moduli (GPa) = 105.19814 61.24216 46.01715
#
# Poissons Ratio (x) = 0.36889 0.20380
# Poissons Ratio (y) = 0.63365 -0.21922
# Poissons Ratio (z) = 0.46589 -0.29174
#
# Static dielectric constant tensor:
#      x y z
#    x 1.830970 0.000000 -0.016920 
#    y 0.000000 1.829340 0.000000 
#    z -0.016920 0.000000 1.865250 
# 
# From -- ./inp_files/189854.got.cif
#   From: 2010.05.17/outbox.cif.g08.bks.cpg/sg15_95_cif.got.tgz:189854.got - 2010.06.03 18:47:42.
