data_PCOD9270101
_publ_section_title
;
Structure prediction by ZEFSAII (Michael W. Deem and Ramdas Pophale) SiO2 
 PCOD9270101
Probable space group: C 2/C
;
_chemical_formula_sum "Si O2"
_cell_formula_units_Z 40
_cell_length_a 18.942183
_cell_length_b 5.695819
_cell_length_c 13.967319
_cell_angle_alpha 90.000000
_cell_angle_beta 90.599318
_cell_angle_gamma 90.000000
_cell_volume 1506.869008
_symmetry_space_group_name_H-M "C 2/C"
_symmetry_group_IT_number 15
_symmetry_cell_setting 'monoclinic'
loop_
_space_group_symop_operation_xyz
x,y,z
-x,y,1/2-z
-x,-y,-z
x,-y,1/2+z
1/2+x,1/2+y,z
1/2-x,1/2+y,1/2-z
1/2-x,1/2-y,-z
1/2+x,1/2-y,1/2+z
loop_
_atom_site_type_symbol
_atom_site_label
_atom_site_fract_x
_atom_site_fract_y
_atom_site_fract_z
Si Si1 0.964412 0.742390 0.896218
Si Si2 0.723277 0.953048 0.875625
Si Si3 0.095424 0.950014 0.787314
Si Si4 0.935333 0.649223 0.097308
Si Si5 0.243767 0.445182 0.651847
O O1 0.911306 0.837068 0.816331
O O2 0.039256 0.823654 0.854401
O O3 0.986622 0.469367 0.901316
O O4 0.941180 0.808105 0.001689
O O5 0.643488 0.963537 0.916494
O O6 0.762125 0.702132 0.896735
O O7 0.712933 0.951071 0.758883
O O8 0.769564 0.189181 0.895421
O O9 0.172643 0.932581 0.828666
O O10 0.072721 0.217739 0.802351
#
# Coordination Sequence:
#
# PCOD9270101 Si02
#       5
#     8   8   8   8   8
#     4  10  21  35  56  82 116 150 194 234 298 346
#     4   9  17  32  57  79 111 151 196 235 292 341
#     4  10  20  35  55  83 114 148 195 238 291 345
#     4  10  20  37  56  82 115 156 189 243 289 352
#     4   9  17  32  55  83 108 152 195 239 285 350
#
# _framework density 26.545107000000002
#
# number of rings (size 3 to 8) (size 9 to 14) (size 15 to 20)
#    0.000    2.400    2.000    0.600    0.000    3.200 
#    0.000    1.000    0.000    0.000    0.000   15.400 
#    0.000    0.000    0.000    0.000    0.000    0.000 
#
# Total GULP energy -111444.169443 kJ/mol
# GULP energy per Si atom -5572.208472 kJ/mol
# Density = 2.648469 g / cm^3
# Si number density = 26.545107 Si / 1000 Ang^3
#
#
#
# Elastic Constant Matrix: (Units=GPa)
#
#
# Indices 1 2 3 4 5 6 
#
# 1 63.2176 -3.6794 18.9242 0.0000 -13.9813 0.0000
# 2 -3.6794 130.6325 38.8899 0.0000 19.1265 0.0000
# 3 18.9242 38.8899 120.7199 0.0000 3.0384 0.0000
# 4 0.0000 0.0000 0.0000 27.0155 0.0000 -21.9588
# 5 -13.9813 19.1265 3.0384 0.0000 22.0663 0.0000
# 6 0.0000 0.0000 0.0000 -21.9588 0.0000 20.8132
#
#
#
# Elastic Compliance Matrix: (Units=1/GPa)
#
#
# Indices 1 2 3 4 5 6 
#
# 1 0.019724 -0.000412 -0.003294 0.000000 0.013308 0.000000
# 2 -0.000412 0.009705 -0.002854 0.000000 -0.008281 0.000000
# 3 -0.003294 -0.002854 0.009743 0.000000 -0.000955 0.000000
# 4 0.000000 0.000000 0.000000 0.259867 0.000000 0.274170
# 5 0.013308 -0.008281 -0.000955 0.000000 0.061059 0.000000
# 6 0.000000 0.000000 0.000000 0.274170 0.000000 0.337306
#
#
# Mechanical properties :
#
#
# Convention : Reuss Voigt Hill
#
# Bulk Modulus (GPa) = 38.38385 46.98217 42.68301
# Shear Modulus (GPa) = 6.95209 31.34135 19.14672
#
# Velocity S-wave (km/s) = 1.62008 3.43983 2.68860
# Velocity P-wave (km/s) = 4.24156 5.78913 5.07468
#
# Compressibility (1/GPa) = 0.02605263
#
# Stress axis : x y z
#
# Youngs Moduli (GPa) = 50.70058 103.03561 102.63437
#
# Poissons Ratio (x) = 0.04248 0.33808
# Poissons Ratio (y) = 0.02090 0.29287
# Poissons Ratio (z) = 0.16701 0.29402
#
# Static dielectric constant tensor:
#      x y z
#    x 2.024430 0.000000 0.005010 
#    y 0.000000 2.701700 0.000000 
#    z 0.005010 0.000000 2.016040 
# 
# From -- ./inp_files/170721.got.cif
#   From: 2010.05.17/outbox.cif.g08.bks.cpg/sg15_86_cif.got.tgz:170721.got - 2010.06.03 18:47:42.
