data_PCOD9270106
_publ_section_title
;
Structure prediction by ZEFSAII (Michael W. Deem and Ramdas Pophale) SiO2 
 PCOD9270106
Probable space group: C 2/C
;
_chemical_formula_sum "Si O2"
_cell_formula_units_Z 64
_cell_length_a 14.537862
_cell_length_b 25.355862
_cell_length_c 13.186311
_cell_angle_alpha 90.000000
_cell_angle_beta 45.555218
_cell_angle_gamma 90.000000
_cell_volume 3470.205523
_symmetry_space_group_name_H-M "C 2/C"
_symmetry_group_IT_number 15
_symmetry_cell_setting 'monoclinic'
loop_
_space_group_symop_operation_xyz
x,y,z
-x,y,1/2-z
-x,-y,-z
x,-y,1/2+z
1/2+x,1/2+y,z
1/2-x,1/2+y,1/2-z
1/2-x,1/2-y,-z
1/2+x,1/2-y,1/2+z
loop_
_atom_site_type_symbol
_atom_site_label
_atom_site_fract_x
_atom_site_fract_y
_atom_site_fract_z
Si Si1 0.938177 0.786369 0.189421
Si Si2 0.524364 0.128157 0.111796
Si Si3 0.822316 0.264112 0.050531
Si Si4 0.709460 0.066017 0.278245
Si Si5 0.007443 0.089693 0.361276
Si Si6 0.093014 0.102327 0.857657
Si Si7 0.203956 0.464462 0.399521
Si Si8 0.633770 0.476785 0.026564
O O1 0.799279 0.759922 0.280070
O O2 0.903873 0.847585 0.217278
O O3 0.000000 0.770605 0.250000
O O4 0.057318 0.774317 0.024049
O O5 0.500000 0.135431 0.250000
O O6 0.386772 0.114403 0.167250
O O7 0.608428 0.178408 0.010026
O O8 0.602543 0.074783 0.027943
O O9 0.750000 0.250000 0.000000
O O10 0.843363 0.084595 0.224202
O O11 0.655152 0.019741 0.392762
O O12 0.752014 0.037173 0.140420
O O13 0.934481 0.121299 0.506488
O O14 0.000000 0.105976 0.250000
O O15 0.938970 0.032369 0.428173
O O16 0.220751 0.067829 0.745866
O O17 0.973104 0.067049 0.914563
O O18 0.309909 0.475138 0.404473
#
# Coordination Sequence:
#
# PCOD9270106 Si02
#       8
#     8   8   8   8   8   8   8   8
#     4  10  20  35  55  84 115 147 190 237 294 360
#     4  12  24  37  53  81 120 159 192 237 298 360
#     4  10  22  37  58  83 119 154 192 242 300 362
#     4  11  22  35  53  82 112 161 202 237 292 351
#     4  11  20  35  56  80 114 147 197 253 287 338
#     4  11  20  31  56  84 105 150 192 231 295 347
#     4  12  20  35  55  75 118 156 196 230 283 349
#     4  11  19  33  55  78 114 153 195 247 279 339
#
# _framework density 18.442710999999999
#
# number of rings (size 3 to 8) (size 9 to 14) (size 15 to 20)
#    0.000    1.000    6.250    3.375    1.750    2.000 
#    0.000    0.000    0.000    0.000    0.000    3.500 
#    0.000    0.000    0.000    0.000    0.000    0.000 
#
# Total GULP energy -178340.877669 kJ/mol
# GULP energy per Si atom -5573.152427 kJ/mol
# Density = 1.840073 g / cm^3
# Si number density = 18.442711 Si / 1000 Ang^3
#
#
#
# Elastic Constant Matrix: (Units=GPa)
#
#
# Indices 1 2 3 4 5 6 
#
# 1 74.0138 10.8120 31.8297 0.0000 -3.3656 0.0000
# 2 10.8120 34.6849 1.5538 0.0000 -11.6406 0.0000
# 3 31.8297 1.5538 68.6997 0.0000 -13.8192 0.0000
# 4 0.0000 0.0000 0.0000 22.0400 0.0000 -9.0446
# 5 -3.3656 -11.6406 -13.8192 0.0000 31.2904 0.0000
# 6 0.0000 0.0000 0.0000 -9.0446 0.0000 20.3997
#
#
#
# Elastic Compliance Matrix: (Units=1/GPa)
#
#
# Indices 1 2 3 4 5 6 
#
# 1 0.018279 -0.006850 -0.009253 0.000000 -0.004669 0.000000
# 2 -0.006850 0.035736 0.005369 0.000000 0.014929 0.000000
# 3 -0.009253 0.005369 0.020768 0.000000 0.010174 0.000000
# 4 0.000000 0.000000 0.000000 0.055463 0.000000 0.024591
# 5 -0.004669 0.014929 0.010174 0.000000 0.041504 0.000000
# 6 0.000000 0.000000 0.000000 0.024591 0.000000 0.059923
#
#
# Mechanical properties :
#
#
# Convention : Reuss Voigt Hill
#
# Bulk Modulus (GPa) = 18.75694 29.53214 24.14454
# Shear Modulus (GPa) = 18.45608 23.62623 21.04115
#
# Velocity S-wave (km/s) = 3.16686 3.58307 3.38137
# Velocity P-wave (km/s) = 4.85432 5.75895 5.32588
#
# Compressibility (1/GPa) = 0.05331359
#
# Stress axis : x y z
#
# Youngs Moduli (GPa) = 54.70866 27.98293 48.15027
#
# Poissons Ratio (x) = 0.19169 0.44554
# Poissons Ratio (y) = 0.37477 -0.25850
# Poissons Ratio (z) = 0.50622 -0.15023
#
# Static dielectric constant tensor:
#      x y z
#    x 1.624410 0.000000 0.004970 
#    y 0.000000 1.647360 0.000000 
#    z 0.004970 0.000000 1.735330 
# 
# From -- ./inp_files/157086.got.cif
#   From: 2010.05.17/outbox.cif.g08.bks.cpg/sg15_79_cif.got.tgz:157086.got - 2010.06.03 18:47:42.
