data_PCOD9270458
_publ_section_title
;
Structure prediction by ZEFSAII (Michael W. Deem and Ramdas Pophale) SiO2 
 PCOD9270458
Probable space group: C 2/C
;
_chemical_formula_sum "Si O2"
_cell_formula_units_Z 56
_cell_length_a 15.150627
_cell_length_b 22.041374
_cell_length_c 17.950240
_cell_angle_alpha 90.000000
_cell_angle_beta 23.989149
_cell_angle_gamma 90.000000
_cell_volume 2437.070248
_symmetry_space_group_name_H-M "C 2/C"
_symmetry_group_IT_number 15
_symmetry_cell_setting 'monoclinic'
loop_
_space_group_symop_operation_xyz
x,y,z
-x,y,1/2-z
-x,-y,-z
x,-y,1/2+z
1/2+x,1/2+y,z
1/2-x,1/2+y,1/2-z
1/2-x,1/2-y,-z
1/2+x,1/2-y,1/2+z
loop_
_atom_site_type_symbol
_atom_site_label
_atom_site_fract_x
_atom_site_fract_y
_atom_site_fract_z
Si Si1 0.251554 0.441427 0.911170
Si Si2 0.789640 0.722055 0.387915
Si Si3 0.749206 0.692616 0.082034
Si Si4 0.355132 0.331510 0.220898
Si Si5 0.286281 0.954680 0.338838
Si Si6 0.817529 0.320363 0.309040
Si Si7 0.600383 0.534068 0.815336
O O1 0.500000 0.445197 0.750000
O O2 0.225663 0.373080 0.899516
O O3 0.250490 0.488724 0.845639
O O4 0.049759 0.455412 0.123502
O O5 0.750000 0.750000 0.500000
O O6 0.598776 0.681493 0.505050
O O7 0.809797 0.778760 0.315818
O O8 0.000000 0.683925 0.250000
O O9 0.500000 0.693989 0.250000
O O10 0.796156 0.757172 0.083545
O O11 0.922473 0.687311 0.881728
O O12 0.207493 0.326143 0.261934
O O13 0.369221 0.398977 0.242354
O O14 0.236089 0.884988 0.402814
O O15 0.189445 0.959832 0.330211
O O16 0.143492 0.005148 0.492326
#
# Coordination Sequence:
#
# PCOD9270458 Si02
#       7
#     8   8   8   8   8   8   8
#     4  10  22  39  58  88 125 158 206 249 302 373
#     4   9  19  37  58  81 119 149 186 245 309 364
#     4  10  21  36  55  87 119 160 199 244 308 354
#     4  10  20  38  58  91 114 152 205 247 303 369
#     4   9  21  41  58  88 118 158 206 254 302 363
#     4  10  20  35  59  84 119 153 205 253 294 360
#     4  10  21  40  64  84 121 161 203 251 309 364
#
# _framework density 22.97841
#
# number of rings (size 3 to 8) (size 9 to 14) (size 15 to 20)
#    0.000    2.286    0.000    1.714    2.000    2.286 
#   10.286    0.000    0.000    0.000    0.000    0.000 
#    0.000    0.000    0.000    0.000    0.000    0.000 
#
# Total GULP energy -156019.358486 kJ/mol
# GULP energy per Si atom -5572.119946 kJ/mol
# Density = 2.292611 g / cm^3
# Si number density = 22.978410 Si / 1000 Ang^3
#
#
#
# Elastic Constant Matrix: (Units=GPa)
#
#
# Indices 1 2 3 4 5 6 
#
# 1 50.7142 23.6399 10.1671 -0.0381 -11.9436 0.0179
# 2 23.6399 176.4399 31.4227 0.1022 9.8269 -0.0193
# 3 10.1671 31.4227 91.1526 0.3085 -17.7099 -0.0316
# 4 -0.0381 0.1022 0.3085 37.6148 -0.0153 10.6688
# 5 -11.9436 9.8269 -17.7099 -0.0153 38.5699 -0.0108
# 6 0.0179 -0.0193 -0.0316 10.6688 -0.0108 36.1482
#
#
#
# Elastic Compliance Matrix: (Units=1/GPa)
#
#
# Indices 1 2 3 4 5 6 
#
# 1 0.023303 -0.003628 0.000256 0.000041 0.008258 -0.000023
# 2 -0.003628 0.006879 -0.002773 -0.000002 -0.004149 0.000002
# 3 0.000256 -0.002773 0.013231 -0.000111 0.006861 0.000045
# 4 0.000041 -0.000002 -0.000111 0.029015 -0.000028 -0.008564
# 5 0.008258 -0.004149 0.006861 -0.000028 0.032691 0.000018
# 6 -0.000023 0.000002 0.000045 -0.008564 0.000018 0.030191
#
#
# Mechanical properties :
#
#
# Convention : Reuss Voigt Hill
#
# Bulk Modulus (GPa) = 32.13034 49.86291 40.99663
# Shear Modulus (GPa) = 31.65063 39.33837 35.49450
#
# Velocity S-wave (km/s) = 3.71537 4.14209 3.93452
# Velocity P-wave (km/s) = 5.69372 6.68003 6.20650
#
# Compressibility (1/GPa) = 0.03112323
#
# Stress axis : x y z
#
# Youngs Moduli (GPa) = 42.91313 145.37893 75.57831
#
# Poissons Ratio (x) = 0.52738 -0.01932
# Poissons Ratio (y) = 0.15567 0.20956
# Poissons Ratio (z) = -0.01097 0.40309
#
# Static dielectric constant tensor:
#      x y z
#    x 1.909100 0.000010 0.032190 
#    y 0.000010 1.835810 0.000150 
#    z 0.032190 0.000150 1.751800 
# 
# From -- ./inp_files/250006.got.cif
#   From: 2010.05.17/outbox.cif.g08.bks.cpg/sg15_126_cif.got.tgz:250006.got - 2010.06.03 18:47:42.
