data_PCOD9270877
_publ_section_title
;
Structure prediction by ZEFSAII (Michael W. Deem and Ramdas Pophale) SiO2 
 PCOD9270877
Probable space group: C 2/C
;
_chemical_formula_sum "Si O2"
_cell_formula_units_Z 64
_cell_length_a 27.703118
_cell_length_b 13.238852
_cell_length_c 10.071010
_cell_angle_alpha 90.000000
_cell_angle_beta 96.304649
_cell_angle_gamma 90.000000
_cell_volume 3671.279415
_symmetry_space_group_name_H-M "C 2/C"
_symmetry_group_IT_number 15
_symmetry_cell_setting 'monoclinic'
loop_
_space_group_symop_operation_xyz
x,y,z
-x,y,1/2-z
-x,-y,-z
x,-y,1/2+z
1/2+x,1/2+y,z
1/2-x,1/2+y,1/2-z
1/2-x,1/2-y,-z
1/2+x,1/2-y,1/2+z
loop_
_atom_site_type_symbol
_atom_site_label
_atom_site_fract_x
_atom_site_fract_y
_atom_site_fract_z
Si Si1 0.188075 0.594478 0.171471
Si Si2 0.294867 0.696455 0.191765
Si Si3 0.133513 0.148129 0.050310
Si Si4 0.863166 0.207092 0.754390
Si Si5 0.964484 0.113926 0.854335
Si Si6 0.291454 0.930749 0.112301
Si Si7 0.970160 0.121750 0.365759
Si Si8 0.318879 0.434497 0.449646
O O1 0.242284 0.644162 0.191141
O O2 0.152150 0.681248 0.209244
O O3 0.186692 0.498170 0.265597
O O4 0.179923 0.563859 0.016884
O O5 0.325941 0.686913 0.334856
O O6 0.287948 0.812792 0.149257
O O7 0.322191 0.637512 0.079747
O O8 0.080615 0.167243 0.098760
O O9 0.144354 0.028062 0.035704
O O10 0.137206 0.193434 0.904045
O O11 0.914985 0.174427 0.828591
O O12 0.827080 0.129367 0.818220
O O13 0.000000 0.151371 0.750000
O O14 0.956344 0.994472 0.825919
O O15 0.992106 0.121222 0.001492
O O16 0.236790 0.970986 0.069486
O O17 0.000000 0.165180 0.250000
#
# Coordination Sequence:
#
# PCOD9270877 Si02
#       8
#     8   8   8   8   8   8   8   8
#     4  11  24  40  60  86 115 161 201 249 295 352
#     4  11  23  39  57  85 122 159 200 245 292 349
#     4  12  24  34  58  92 120 160 201 237 290 364
#     4  12  23  37  58  85 120 159 201 237 298 355
#     4  10  20  36  54  80 120 152 188 236 289 357
#     4  11  23  41  58  83 122 159 204 244 293 341
#     4  10  22  34  53  86 118 156 191 234 291 358
#     4  11  21  37  56  84 123 166 195 233 297 350
#
# _framework density 17.432614000000001
#
# number of rings (size 3 to 8) (size 9 to 14) (size 15 to 20)
#    0.000    1.000    6.250    1.500    5.250    0.500 
#    0.000    0.000    0.000    0.000    0.000    4.375 
#    0.000    0.000    0.000    0.000    0.000    0.000 
#
# Total GULP energy -178684.348380 kJ/mol
# GULP energy per Si atom -5583.885887 kJ/mol
# Density = 1.739294 g / cm^3
# Si number density = 17.432614 Si / 1000 Ang^3
#
#
#
# Elastic Constant Matrix: (Units=GPa)
#
#
# Indices 1 2 3 4 5 6 
#
# 1 60.0189 5.9619 34.8377 0.0000 -10.7215 0.0000
# 2 5.9619 58.5382 44.5981 0.0000 -9.2502 0.0000
# 3 34.8377 44.5981 115.7915 0.0000 -16.8806 0.0000
# 4 0.0000 0.0000 0.0000 36.8254 0.0000 4.5253
# 5 -10.7215 -9.2502 -16.8806 0.0000 27.7286 0.0000
# 6 0.0000 0.0000 0.0000 4.5253 0.0000 29.0303
#
#
#
# Elastic Compliance Matrix: (Units=1/GPa)
#
#
# Indices 1 2 3 4 5 6 
#
# 1 0.021417 0.004209 -0.007301 0.000000 0.005241 0.000000
# 2 0.004209 0.025181 -0.010429 0.000000 0.003679 0.000000
# 3 -0.007301 -0.010429 0.015288 0.000000 0.003005 0.000000
# 4 0.000000 0.000000 0.000000 0.027685 0.000000 -0.004316
# 5 0.005241 0.003679 0.003005 0.000000 0.041147 0.000000
# 6 0.000000 0.000000 0.000000 -0.004316 0.000000 0.035120
#
#
# Mechanical properties :
#
#
# Convention : Reuss Voigt Hill
#
# Bulk Modulus (GPa) = 28.69867 45.01599 36.85733
# Shear Modulus (GPa) = 24.45070 28.64691 26.54881
#
# Velocity S-wave (km/s) = 3.74917 4.05815 3.90672
# Velocity P-wave (km/s) = 5.93634 6.91643 6.44504
#
# Compressibility (1/GPa) = 0.03484483
#
# Stress axis : x y z
#
# Youngs Moduli (GPa) = 46.69131 39.71291 65.41276
#
# Poissons Ratio (x) = -0.16716 0.47757
# Poissons Ratio (y) = -0.19653 0.68216
# Poissons Ratio (z) = 0.34089 0.41415
#
# Static dielectric constant tensor:
#      x y z
#    x 1.621660 0.000000 -0.012740 
#    y 0.000000 1.570950 0.000000 
#    z -0.012740 0.000000 1.607970 
# 
# From -- ./inp_files/69382.got.cif
#   From: 2010.05.17/outbox.cif.g08.bks.cpg/sg15_35_cif.got.tgz:69382.got - 2010.06.03 18:47:42.
