data_PCOD9270381
_publ_section_title
;
Structure prediction by ZEFSAII (Michael W. Deem and Ramdas Pophale) SiO2 
 PCOD9270381
Probable space group: C 2/C
;
_chemical_formula_sum "Si O2"
_cell_formula_units_Z 48
_cell_length_a 7.505993
_cell_length_b 24.513492
_cell_length_c 11.405760
_cell_angle_alpha 90.000000
_cell_angle_beta 83.849618
_cell_angle_gamma 90.000000
_cell_volume 2086.558649
_symmetry_space_group_name_H-M "C 2/C"
_symmetry_group_IT_number 15
_symmetry_cell_setting 'monoclinic'
loop_
_space_group_symop_operation_xyz
x,y,z
-x,y,1/2-z
-x,-y,-z
x,-y,1/2+z
1/2+x,1/2+y,z
1/2-x,1/2+y,1/2-z
1/2-x,1/2-y,-z
1/2+x,1/2-y,1/2+z
loop_
_atom_site_type_symbol
_atom_site_label
_atom_site_fract_x
_atom_site_fract_y
_atom_site_fract_z
Si Si1 0.102353 0.429523 0.542397
Si Si2 0.709402 0.763583 0.848102
Si Si3 0.861154 0.547711 0.855960
Si Si4 0.484925 0.559023 0.940132
Si Si5 0.960619 0.820856 0.004709
Si Si6 0.660388 0.810587 0.595759
O O1 0.107427 0.483241 0.621679
O O2 0.271585 0.434801 0.440367
O O3 0.135051 0.375406 0.614318
O O4 0.923958 0.427092 0.476506
O O5 0.664443 0.700462 0.879640
O O6 0.703447 0.780361 0.714206
O O7 0.536413 0.790696 0.924597
O O8 0.879635 0.789910 0.898270
O O9 0.653210 0.557338 0.839597
O O10 0.000000 0.567496 0.750000
O O11 0.534961 0.614036 0.008541
O O12 0.500000 0.500000 0.000000
O O13 0.170507 0.805049 0.002333
#
# Coordination Sequence:
#
# PCOD9270381 Si02
#       6
#     8   8   8   8   8   8
#     4   9  20  37  57  83 121 153 195 254 294 359
#     4  10  21  34  58  89 113 152 199 247 303 352
#     4  10  20  35  58  86 117 156 200 248 304 360
#     4   9  19  38  57  81 119 158 194 242 305 357
#     4  10  20  38  58  83 123 153 196 259 296 362
#     4  10  20  37  59  85 115 157 200 242 303 361
#
# _framework density 23.004387000000001
#
# number of rings (size 3 to 8) (size 9 to 14) (size 15 to 20)
#    0.000    2.333    0.000    2.000    2.333    0.667 
#    0.000   11.667    0.000    0.000    0.000    0.000 
#    0.000    0.000    0.000    0.000    0.000    0.000 
#
# Total GULP energy -133672.867297 kJ/mol
# GULP energy per Si atom -5569.702804 kJ/mol
# Density = 2.295203 g / cm^3
# Si number density = 23.004387 Si / 1000 Ang^3
#
#
#
# Elastic Constant Matrix: (Units=GPa)
#
#
# Indices 1 2 3 4 5 6 
#
# 1 116.7693 8.5142 1.4206 0.0000 -14.3550 0.0000
# 2 8.5142 109.6740 17.4541 0.0000 8.4314 0.0000
# 3 1.4206 17.4541 52.9240 0.0000 -4.5869 0.0000
# 4 0.0000 0.0000 0.0000 4.0717 0.0000 -10.6584
# 5 -14.3550 8.4314 -4.5869 0.0000 36.1220 0.0000
# 6 0.0000 0.0000 0.0000 -10.6584 0.0000 30.5870
#
#
#
# Elastic Compliance Matrix: (Units=1/GPa)
#
#
# Indices 1 2 3 4 5 6 
#
# 1 0.009121 -0.001083 0.000453 0.000000 0.003935 0.000000
# 2 -0.001083 0.010015 -0.003553 0.000000 -0.003219 0.000000
# 3 0.000453 -0.003553 0.020366 0.000000 0.003596 0.000000
# 4 0.000000 0.000000 0.000000 2.796016 0.000000 0.974302
# 5 0.003935 -0.003219 0.003596 0.000000 0.030456 0.000000
# 6 0.000000 0.000000 0.000000 0.974302 0.000000 0.372200
#
#
# Mechanical properties :
#
#
# Convention : Reuss Voigt Hill
#
# Bulk Modulus (GPa) = 32.11546 37.12725 34.62135
# Shear Modulus (GPa) = 1.53519 30.95470 16.24495
#
# Velocity S-wave (km/s) = 0.81780 3.67222 2.66026
# Velocity P-wave (km/s) = 3.85780 5.84419 4.95162
#
# Compressibility (1/GPa) = 0.03113765
#
# Stress axis : x y z
#
# Youngs Moduli (GPa) = 109.63614 99.85160 49.10105
#
# Poissons Ratio (x) = 0.10811 -0.02226
# Poissons Ratio (y) = 0.11871 0.17445
# Poissons Ratio (z) = -0.04970 0.35475
#
# Static dielectric constant tensor:
#      x y z
#    x 1.872630 0.000000 -0.042010 
#    y 0.000000 1.923530 0.000000 
#    z -0.042010 0.000000 1.879090 
# 
# From -- ./inp_files/80217.got.cif
#   From: 2010.05.17/outbox.cif.g08.bks.cpg/sg15_41_cif.got.tgz:80217.got - 2010.06.03 18:47:42.
