data_PCOD9270062
_publ_section_title
;
Structure prediction by ZEFSAII (Michael W. Deem and Ramdas Pophale) SiO2 
 PCOD9270062
Probable space group: C 2/C
;
_chemical_formula_sum "Si O2"
_cell_formula_units_Z 44
_cell_length_a 12.075987
_cell_length_b 24.288110
_cell_length_c 13.306394
_cell_angle_alpha 90.000000
_cell_angle_beta 143.721678
_cell_angle_gamma 90.000000
_cell_volume 2309.321149
_symmetry_space_group_name_H-M "C 2/C"
_symmetry_group_IT_number 15
_symmetry_cell_setting 'monoclinic'
loop_
_space_group_symop_operation_xyz
x,y,z
-x,y,1/2-z
-x,-y,-z
x,-y,1/2+z
1/2+x,1/2+y,z
1/2-x,1/2+y,1/2-z
1/2-x,1/2-y,-z
1/2+x,1/2-y,1/2+z
loop_
_atom_site_type_symbol
_atom_site_label
_atom_site_fract_x
_atom_site_fract_y
_atom_site_fract_z
Si Si1 0.158156 0.546130 0.611969
Si Si2 0.500000 0.487139 0.750000
Si Si3 0.923512 0.838733 0.994059
Si Si4 0.907743 0.943615 0.475820
Si Si5 0.141544 0.641069 0.446648
Si Si6 0.323591 0.265349 0.197350
O O1 0.340949 0.522546 0.688672
O O2 0.223211 0.562588 0.771796
O O3 0.095142 0.596628 0.496593
O O4 0.000000 0.500000 0.500000
O O5 0.397404 0.452598 0.587214
O O6 0.840946 0.866000 0.035862
O O7 0.770313 0.793322 0.847591
O O8 0.969688 0.889237 0.956227
O O9 0.103229 0.802791 0.157939
O O10 0.000000 0.000000 0.500000
O O11 0.169156 0.698752 0.524352
O O12 0.000000 0.637407 0.250000
O O13 0.500000 0.260473 0.250000
#
# Coordination Sequence:
#
# PCOD9270062 Si02
#       6
#     8   4   8   8   8   8
#     4  11  24  39  62  92 123 167 208 252 309 370
#     4  10  24  42  60  88 124 158 212 258 304 362
#     4  11  20  37  59  87 128 160 202 248 322 372
#     4  10  22  41  62  86 121 166 200 252 311 359
#     4  11  21  32  56  89 128 159 199 255 301 375
#     4  10  20  35  54  91 126 161 199 254 318 370
#
# _framework density 19.053218000000001
#
# number of rings (size 3 to 8) (size 9 to 14) (size 15 to 20)
#    0.000    1.455    1.818    6.000    8.909    0.000 
#    0.000    0.000    0.000    1.091    0.000    0.000 
#    0.000    0.000    0.000    0.000    0.000    0.000 
#
# Total GULP energy -122696.821320 kJ/mol
# GULP energy per Si atom -5577.128242 kJ/mol
# Density = 1.900985 g / cm^3
# Si number density = 19.053218 Si / 1000 Ang^3
#
#
#
# Elastic Constant Matrix: (Units=GPa)
#
#
# Indices 1 2 3 4 5 6 
#
# 1 35.5016 25.9647 25.4541 0.0000 -5.7853 0.0000
# 2 25.9647 125.9114 51.1095 0.0000 -2.0332 0.0000
# 3 25.4541 51.1095 130.6664 -0.0001 -13.7332 0.0000
# 4 0.0000 0.0000 -0.0001 27.3017 0.0000 0.6105
# 5 -5.7853 -2.0332 -13.7332 0.0000 32.9339 0.0000
# 6 0.0000 0.0000 0.0000 0.6105 0.0000 40.8897
#
#
#
# Elastic Compliance Matrix: (Units=1/GPa)
#
#
# Indices 1 2 3 4 5 6 
#
# 1 0.036092 -0.005586 -0.004409 0.000000 0.004157 0.000000
# 2 -0.005586 0.010337 -0.003128 0.000000 -0.001648 0.000000
# 3 -0.004409 -0.003128 0.010075 0.000000 0.003234 0.000000
# 4 0.000000 0.000000 0.000000 0.036640 0.000000 -0.000547
# 5 0.004157 -0.001648 0.003234 0.000000 0.032341 0.000000
# 6 0.000000 0.000000 0.000000 -0.000547 0.000000 0.024464
#
#
# Mechanical properties :
#
#
# Convention : Reuss Voigt Hill
#
# Bulk Modulus (GPa) = 33.04921 55.23734 44.14327
# Shear Modulus (GPa) = 26.84108 32.86178 29.85143
#
# Velocity S-wave (km/s) = 3.75739 4.15750 3.96250
# Velocity P-wave (km/s) = 6.01726 7.21806 6.64484
#
# Compressibility (1/GPa) = 0.03025791
#
# Stress axis : x y z
#
# Youngs Moduli (GPa) = 27.70732 96.73779 99.25082
#
# Poissons Ratio (x) = 0.54036 0.43760
# Poissons Ratio (y) = 0.15477 0.31049
# Poissons Ratio (z) = 0.12216 0.30263
#
# Static dielectric constant tensor:
#      x y z
#    x 1.649750 0.000000 0.026450 
#    y 0.000000 1.710400 0.000000 
#    z 0.026450 0.000000 1.781010 
# 
# From -- ./inp_files/91384.got.cif
#   From: 2010.05.17/outbox.cif.g08.bks.cpg/sg15_46_cif.got.tgz:91384.got - 2010.06.03 18:47:42.
