data_PCOD9270513
_publ_section_title
;
Structure prediction by ZEFSAII (Michael W. Deem and Ramdas Pophale) SiO2 
 PCOD9270513
Probable space group: C 2/C
;
_chemical_formula_sum "Si O2"
_cell_formula_units_Z 36
_cell_length_a 20.891170
_cell_length_b 10.097667
_cell_length_c 25.038256
_cell_angle_alpha 90.000000
_cell_angle_beta 159.962911
_cell_angle_gamma 90.000000
_cell_volume 1809.719177
_symmetry_space_group_name_H-M "C 2/C"
_symmetry_group_IT_number 15
_symmetry_cell_setting 'monoclinic'
loop_
_space_group_symop_operation_xyz
x,y,z
-x,y,1/2-z
-x,-y,-z
x,-y,1/2+z
1/2+x,1/2+y,z
1/2-x,1/2+y,1/2-z
1/2-x,1/2-y,-z
1/2+x,1/2-y,1/2+z
loop_
_atom_site_type_symbol
_atom_site_label
_atom_site_fract_x
_atom_site_fract_y
_atom_site_fract_z
Si Si1 0.445827 0.923228 0.379656
Si Si2 0.128141 0.670870 0.564588
Si Si3 0.552369 0.426965 0.115769
Si Si4 0.408322 0.327087 0.564728
Si Si5 0.500000 0.277011 0.750000
O O1 0.488759 0.858098 0.472044
O O2 0.222549 0.945156 0.207031
O O3 0.508244 0.816254 0.385823
O O4 0.551887 0.062541 0.463100
O O5 0.336199 0.637752 0.746614
O O6 0.091902 0.818826 0.517929
O O7 0.470822 0.564842 0.071083
O O8 0.484531 0.359708 0.683388
O O9 0.186461 0.310398 0.393364
#
# Coordination Sequence:
#
# PCOD9270513 Si02
#       5
#     8   8   8   8   4
#     4   9  20  35  61  90 125 151 182 260 311 358
#     4   9  20  33  53  96 123 146 182 226 352 337
#     4  10  20  35  59  91 121 154 182 261 301 359
#     4  11  22  42  64  83 126 151 219 235 291 360
#     4  10  26  40  60  88 110 184 202 244 270 352
#
# _framework density 19.892589999999998
#
# number of rings (size 3 to 8) (size 9 to 14) (size 15 to 20)
#    1.333    0.889    0.000    2.667    3.111    2.667 
#    0.000    0.000    0.000   22.667    0.000    0.000 
#    0.000    0.000    0.000    0.000    0.000    0.000 
#
# Total GULP energy -100396.502182 kJ/mol
# GULP energy per Si atom -5577.583455 kJ/mol
# Density = 1.984731 g / cm^3
# Si number density = 19.892590 Si / 1000 Ang^3
#
#
#
# Elastic Constant Matrix: (Units=GPa)
#
#
# Indices 1 2 3 4 5 6 
#
# 1 67.1309 33.3445 21.5486 0.0003 2.3080 0.0001
# 2 33.3445 76.6587 21.1320 0.0023 -6.6056 0.0019
# 3 21.5486 21.1320 54.0851 0.0034 7.0112 0.0016
# 4 0.0003 0.0023 0.0034 22.5199 0.0014 1.3929
# 5 2.3080 -6.6056 7.0112 0.0014 21.9710 0.0007
# 6 0.0001 0.0019 0.0016 1.3929 0.0007 -6.7168
#
#
#
# Elastic Compliance Matrix: (Units=1/GPa)
#
#
# Indices 1 2 3 4 5 6 
#
# 1 0.020395 -0.007843 -0.004671 0.000002 -0.003010 -0.000003
# 2 -0.007843 0.018579 -0.005179 -0.000002 0.008062 0.000004
# 3 -0.004671 -0.005179 0.023484 -0.000003 -0.008561 0.000003
# 4 0.000002 -0.000002 -0.000003 0.043843 -0.000003 0.009092
# 5 -0.003010 0.008062 -0.008561 -0.000003 0.050986 0.000005
# 6 -0.000003 0.000004 0.000003 0.009092 0.000005 -0.146995
#
#
# Mechanical properties :
#
#
# Convention : Reuss Voigt Hill
#
# Bulk Modulus (GPa) = 36.94064 38.88054 37.91059
# Shear Modulus (GPa) = 91.40345 15.67813 53.54079
#
# Velocity S-wave (km/s) = 6.78589 2.81043 5.19359
# Velocity P-wave (km/s) = 8.94472 5.48808 7.42048
#
# Compressibility (1/GPa) = 0.02707046
#
# Stress axis : x y z
#
# Youngs Moduli (GPa) = 49.03216 53.82483 42.58241
#
# Poissons Ratio (x) = 0.42214 0.19891
# Poissons Ratio (y) = 0.38455 0.22055
# Poissons Ratio (z) = 0.22904 0.27878
#
# Static dielectric constant tensor:
#      x y z
#    x 1.729630 0.000000 -0.036590 
#    y 0.000000 1.666330 0.000000 
#    z -0.036590 0.000000 1.750870 
# 
# From -- ./inp_files/283273.got.cif
#   From: 2010.05.17/outbox.cif.g08.bks.cpg/sg15_142_cif.got.tgz:283273.got - 2010.06.03 18:47:42.
