data_PCOD9270763
_publ_section_title
;
Structure prediction by ZEFSAII (Michael W. Deem and Ramdas Pophale) SiO2 
 PCOD9270763
Probable space group: C 2/C
;
_chemical_formula_sum "Si O2"
_cell_formula_units_Z 56
_cell_length_a 13.648070
_cell_length_b 12.613587
_cell_length_c 16.727338
_cell_angle_alpha 90.000000
_cell_angle_beta 58.320769
_cell_angle_gamma 90.000000
_cell_volume 2450.569489
_symmetry_space_group_name_H-M "C 2/C"
_symmetry_group_IT_number 15
_symmetry_cell_setting 'monoclinic'
loop_
_space_group_symop_operation_xyz
x,y,z
-x,y,1/2-z
-x,-y,-z
x,-y,1/2+z
1/2+x,1/2+y,z
1/2-x,1/2+y,1/2-z
1/2-x,1/2-y,-z
1/2+x,1/2-y,1/2+z
loop_
_atom_site_type_symbol
_atom_site_label
_atom_site_fract_x
_atom_site_fract_y
_atom_site_fract_z
Si Si1 0.103454 0.671861 0.489877
Si Si2 0.265324 0.692071 0.878067
Si Si3 0.500000 0.273051 0.250000
Si Si4 0.500000 0.689126 0.250000
Si Si5 0.714924 0.081260 0.053566
Si Si6 0.384150 0.139734 0.700379
Si Si7 0.049252 0.583604 0.338000
Si Si8 0.648380 0.612269 0.040661
O O1 0.077371 0.613585 0.417615
O O2 0.226861 0.637455 0.472352
O O3 0.113173 0.799862 0.489934
O O4 0.998213 0.646598 0.595102
O O5 0.398581 0.662293 0.831997
O O6 0.252916 0.812901 0.911854
O O7 0.221082 0.672890 0.809327
O O8 0.200238 0.618373 0.967872
O O9 0.560297 0.194336 0.286870
O O10 0.596596 0.772978 0.239760
O O11 0.554799 0.623157 0.152845
O O12 0.582702 0.050508 0.126725
O O13 0.817853 0.998033 0.014936
O O14 0.374519 0.015315 0.723862
#
# Coordination Sequence:
#
# PCOD9270763 Si02
#       8
#     8   8   4   4   8   8   8   8
#     4  10  20  35  64  91 116 152 210 254 295 363
#     4  10  22  39  62  90 125 160 209 255 312 366
#     4  10  25  39  56  90 134 160 197 261 314 366
#     4  10  25  37  56  94 144 152 197 257 326 368
#     4  10  20  40  67  86 117 162 211 256 295 374
#     4  11  20  39  64  94 118 162 205 267 297 363
#     4  11  20  39  66  92 115 160 219 254 298 359
#     4  10  21  39  60  92 125 161 198 256 310 364
#
# _framework density 22.85183
#
# number of rings (size 3 to 8) (size 9 to 14) (size 15 to 20)
#    0.000    1.714    2.857    1.714    2.000    0.571 
#    0.000    2.857    0.000    0.000    0.000    0.000 
#    0.000    0.000    0.000    0.000    0.000    0.000 
#
# Total GULP energy -156273.178038 kJ/mol
# GULP energy per Si atom -5581.184930 kJ/mol
# Density = 2.279982 g / cm^3
# Si number density = 22.851830 Si / 1000 Ang^3
#
#
#
# Elastic Constant Matrix: (Units=GPa)
#
#
# Indices 1 2 3 4 5 6 
#
# 1 58.9336 35.5122 12.7699 0.0000 7.6312 0.0000
# 2 35.5122 70.8916 7.9098 0.0000 2.2489 0.0000
# 3 12.7699 7.9098 50.1963 0.0000 -1.6957 0.0000
# 4 0.0000 0.0000 0.0000 14.3094 0.0000 -11.3646
# 5 7.6312 2.2489 -1.6957 0.0000 34.6808 0.0000
# 6 0.0000 0.0000 0.0000 -11.3646 0.0000 20.0110
#
#
#
# Elastic Compliance Matrix: (Units=1/GPa)
#
#
# Indices 1 2 3 4 5 6 
#
# 1 0.026170 -0.012400 -0.004879 0.000000 -0.005193 0.000000
# 2 -0.012400 0.020272 0.000008 0.000000 0.001414 0.000000
# 3 -0.004879 0.000008 0.021233 0.000000 0.002111 0.000000
# 4 0.000000 0.000000 0.000000 0.127304 0.000000 0.072298
# 5 -0.005193 0.001414 0.002111 0.000000 0.029989 0.000000
# 6 0.000000 0.000000 0.000000 0.072298 0.000000 0.091032
#
#
# Mechanical properties :
#
#
# Convention : Reuss Voigt Hill
#
# Bulk Modulus (GPa) = 30.18198 32.48947 31.33573
# Shear Modulus (GPa) = 13.82793 22.05553 17.94173
#
# Velocity S-wave (km/s) = 2.46257 3.11006 2.80506
# Velocity P-wave (km/s) = 4.61758 5.21008 4.92275
#
# Compressibility (1/GPa) = 0.03313235
#
# Stress axis : x y z
#
# Youngs Moduli (GPa) = 38.21145 49.32886 47.09632
#
# Poissons Ratio (x) = 0.61170 0.22979
# Poissons Ratio (y) = 0.47384 -0.00038
# Poissons Ratio (z) = 0.18644 -0.00040
#
# Static dielectric constant tensor:
#      x y z
#    x 1.829180 0.000000 -0.031650 
#    y 0.000000 1.928300 0.000000 
#    z -0.031650 0.000000 1.924460 
# 
# From -- ./inp_files/197811.got.cif
#   From: 2010.05.17/outbox.cif.g08.bks.cpg/sg15_99_cif.got.tgz:197811.got - 2010.06.03 18:47:42.
