data_PCOD9270676
_publ_section_title
;
Structure prediction by ZEFSAII (Michael W. Deem and Ramdas Pophale) SiO2 
 PCOD9270676
Probable space group: C 2/C
;
_chemical_formula_sum "Si O2"
_cell_formula_units_Z 40
_cell_length_a 5.473490
_cell_length_b 18.815611
_cell_length_c 16.259556
_cell_angle_alpha 90.000000
_cell_angle_beta 106.634610
_cell_angle_gamma 90.000000
_cell_volume 1604.444735
_symmetry_space_group_name_H-M "C 2/C"
_symmetry_group_IT_number 15
_symmetry_cell_setting 'monoclinic'
loop_
_space_group_symop_operation_xyz
x,y,z
-x,y,1/2-z
-x,-y,-z
x,-y,1/2+z
1/2+x,1/2+y,z
1/2-x,1/2+y,1/2-z
1/2-x,1/2-y,-z
1/2+x,1/2-y,1/2+z
loop_
_atom_site_type_symbol
_atom_site_label
_atom_site_fract_x
_atom_site_fract_y
_atom_site_fract_z
Si Si1 0.471185 0.609683 0.892079
Si Si2 0.276146 0.118721 0.283797
Si Si3 0.687721 0.640640 0.460233
Si Si4 0.500000 0.839680 0.250000
Si Si5 0.500000 0.516490 0.750000
Si Si6 0.361348 0.775036 0.401425
O O1 0.609912 0.559946 0.838678
O O2 0.599689 0.688659 0.907267
O O3 0.205066 0.615686 0.819104
O O4 0.422075 0.587311 0.981070
O O5 0.500000 0.150053 0.250000
O O6 0.306560 0.115138 0.385441
O O7 0.000000 0.155301 0.250000
O O8 0.214635 0.040067 0.242479
O O9 0.451536 0.694336 0.420213
O O10 0.915054 0.681885 0.529314
O O11 0.362072 0.794357 0.306000
#
# Coordination Sequence:
#
# PCOD9270676 Si02
#       6
#     8   8   8   4   4   8
#     4  11  21  41  68 100 141 177 235 290 346 426
#     4  10  26  48  69  99 138 190 241 293 349 418
#     4  10  24  41  65 101 136 183 235 289 357 419
#     4  10  20  35  62 100 131 188 226 280 348 414
#     4  10  24  41  72 102 135 192 236 292 348 420
#     4  10  21  39  64  99 140 182 231 287 355 418
#
# _framework density 24.930743
#
# number of rings (size 3 to 8) (size 9 to 14) (size 15 to 20)
#    0.600    1.200    2.000    0.600    5.600    0.800 
#    0.000    2.000    0.000    0.000    0.000    0.000 
#    0.000    0.000    0.000    0.000    0.000    0.000 
#
# Total GULP energy -111498.161727 kJ/mol
# GULP energy per Si atom -5574.908086 kJ/mol
# Density = 2.487400 g / cm^3
# Si number density = 24.930743 Si / 1000 Ang^3
#
#
#
# Elastic Constant Matrix: (Units=GPa)
#
#
# Indices 1 2 3 4 5 6 
#
# 1 123.1227 11.3095 35.3853 0.0000 -14.5046 0.0000
# 2 11.3095 59.7314 11.4694 0.0000 0.4383 0.0000
# 3 35.3853 11.4694 151.4053 0.0000 -45.2056 0.0000
# 4 0.0000 0.0000 0.0000 16.6233 0.0000 0.6917
# 5 -14.5046 0.4383 -45.2056 0.0000 57.8287 0.0000
# 6 0.0000 0.0000 0.0000 0.6917 0.0000 24.6751
#
#
#
# Elastic Compliance Matrix: (Units=1/GPa)
#
#
# Indices 1 2 3 4 5 6 
#
# 1 0.008840 -0.001355 -0.001693 0.000000 0.000904 0.000000
# 2 -0.001355 0.017294 -0.001479 0.000000 -0.001627 0.000000
# 3 -0.001693 -0.001479 0.009117 0.000000 0.006713 0.000000
# 4 0.000000 0.000000 0.000000 0.060227 0.000000 -0.001688
# 5 0.000904 -0.001627 0.006713 0.000000 0.022779 0.000000
# 6 0.000000 0.000000 0.000000 -0.001688 0.000000 0.040574
#
#
# Mechanical properties :
#
#
# Convention : Reuss Voigt Hill
#
# Bulk Modulus (GPa) = 38.17503 50.06530 44.12016
# Shear Modulus (GPa) = 28.30963 38.23178 33.27070
#
# Velocity S-wave (km/s) = 3.37342 3.92027 3.65708
# Velocity P-wave (km/s) = 5.52440 6.37312 5.96388
#
# Compressibility (1/GPa) = 0.02619513
#
# Stress axis : x y z
#
# Youngs Moduli (GPa) = 113.12719 57.82288 109.68423
#
# Poissons Ratio (x) = 0.07836 0.18575
# Poissons Ratio (y) = 0.15330 0.16225
# Poissons Ratio (z) = 0.19158 0.08554
#
# Static dielectric constant tensor:
#      x y z
#    x 2.055150 0.000000 -0.070550 
#    y 0.000000 2.015210 0.000000 
#    z -0.070550 0.000000 2.011620 
# 
# From -- ./inp_files/129561.got.cif
#   From: 2010.05.17/outbox.cif.g08.bks.cpg/sg15_65_cif.got.tgz:129561.got - 2010.06.03 18:47:42.
