data_PCOD9270823
_publ_section_title
;
Structure prediction by ZEFSAII (Michael W. Deem and Ramdas Pophale) SiO2 
 PCOD9270823
Probable space group: C 2/C
;
_chemical_formula_sum "Si O2"
_cell_formula_units_Z 60
_cell_length_a 29.902853
_cell_length_b 13.287824
_cell_length_c 25.116744
_cell_angle_alpha 90.000000
_cell_angle_beta 159.612591
_cell_angle_gamma 90.000000
_cell_volume 3476.687672
_symmetry_space_group_name_H-M "C 2/C"
_symmetry_group_IT_number 15
_symmetry_cell_setting 'monoclinic'
loop_
_space_group_symop_operation_xyz
x,y,z
-x,y,1/2-z
-x,-y,-z
x,-y,1/2+z
1/2+x,1/2+y,z
1/2-x,1/2+y,1/2-z
1/2-x,1/2-y,-z
1/2+x,1/2-y,1/2+z
loop_
_atom_site_type_symbol
_atom_site_label
_atom_site_fract_x
_atom_site_fract_y
_atom_site_fract_z
Si Si1 0.000000 0.095029 0.750000
Si Si2 0.604805 0.081536 0.136939
Si Si3 0.472030 0.762983 0.564814
Si Si4 0.639188 0.412959 0.303642
Si Si5 0.384837 0.791855 0.585126
Si Si6 0.361073 0.452412 0.787331
Si Si7 0.756744 0.776323 0.735296
Si Si8 0.334897 0.447769 0.371902
O O1 0.059938 0.043903 0.765194
O O2 0.105783 0.172941 0.891830
O O3 0.555415 0.148789 0.130667
O O4 0.638227 0.161511 0.127835
O O5 0.738925 0.022629 0.295508
O O6 0.500000 0.000000 0.000000
O O7 0.554184 0.664605 0.673111
O O8 0.411077 0.802153 0.551680
O O9 0.364868 0.732319 0.402099
O O10 0.752567 0.342909 0.451439
O O11 0.695300 0.498512 0.328317
O O12 0.500000 0.834522 0.750000
O O13 0.315428 0.341920 0.753100
O O14 0.325321 0.520791 0.798747
O O15 0.514283 0.455477 0.948800
O O16 0.713568 0.664701 0.673519
#
# Coordination Sequence:
#
# PCOD9270823 Si02
#       8
#     4   8   8   8   8   8   8   8
#     4   8  20  32  52  76 100 140 174 224 274 328
#     4  11  21  31  49  78 104 145 192 214 258 327
#     4  11  20  32  55  77 111 155 170 218 277 313
#     4  11  19  35  54  76 110 137 182 223 275 327
#     4   9  20  34  50  77 106 143 177 215 274 331
#     4  10  21  33  54  78 104 150 186 214 272 325
#     4  11  21  35  51  76 115 151 180 221 265 327
#     4  10  20  36  49  75 115 140 186 223 253 327
#
# _framework density 17.257805000000001
#
# number of rings (size 3 to 8) (size 9 to 14) (size 15 to 20)
#    0.400    1.333    1.333    6.000    1.867    1.067 
#    0.000    0.000    0.000    0.000    0.000    0.933 
#    2.000    0.000    0.000    0.000    0.000    0.000 
#
# Total GULP energy -167243.963641 kJ/mol
# GULP energy per Si atom -5574.798788 kJ/mol
# Density = 1.721853 g / cm^3
# Si number density = 17.257805 Si / 1000 Ang^3
#
#
#
# Elastic Constant Matrix: (Units=GPa)
#
#
# Indices 1 2 3 4 5 6 
#
# 1 89.3836 31.8520 8.6617 -0.0001 8.9487 -0.0001
# 2 31.8520 87.0131 3.6245 0.0001 7.7461 0.0001
# 3 8.6617 3.6245 27.3641 0.0002 4.0795 0.0002
# 4 -0.0001 0.0001 0.0002 18.5290 0.0000 11.7313
# 5 8.9487 7.7461 4.0795 0.0000 20.6018 0.0000
# 6 -0.0001 0.0001 0.0002 11.7313 0.0000 22.4946
#
#
#
# Elastic Compliance Matrix: (Units=1/GPa)
#
#
# Indices 1 2 3 4 5 6 
#
# 1 0.013440 -0.004475 -0.003135 0.000000 -0.003535 0.000000
# 2 -0.004475 0.013404 0.000106 0.000000 -0.003117 0.000000
# 3 -0.003135 0.000106 0.038461 0.000000 -0.006294 0.000000
# 4 0.000000 0.000000 0.000000 0.080574 0.000000 -0.042021
# 5 -0.003535 -0.003117 -0.006294 0.000000 0.052493 0.000000
# 6 0.000000 0.000000 0.000000 -0.042021 0.000000 0.066369
#
#
# Mechanical properties :
#
#
# Convention : Reuss Voigt Hill
#
# Bulk Modulus (GPa) = 19.88177 32.44857 26.16517
# Shear Modulus (GPa) = 16.86264 22.96659 19.91461
#
# Velocity S-wave (km/s) = 3.12925 3.65196 3.40067
# Velocity P-wave (km/s) = 4.96002 6.05190 5.53296
#
# Compressibility (1/GPa) = 0.05029733
#
# Stress axis : x y z
#
# Youngs Moduli (GPa) = 74.40540 74.60703 26.00053
#
# Poissons Ratio (x) = 0.33383 0.08150
# Poissons Ratio (y) = 0.33293 -0.00275
# Poissons Ratio (z) = 0.23323 -0.00788
#
# Static dielectric constant tensor:
#      x y z
#    x 1.604850 0.000000 0.017720 
#    y 0.000000 1.584650 0.000000 
#    z 0.017720 0.000000 1.615850 
# 
# From -- ./inp_files/284754.got.cif
#   From: 2010.05.17/outbox.cif.g08.bks.cpg/sg15_143_cif.got.tgz:284754.got - 2010.06.03 18:47:42.
