data_PCOD9270186
_publ_section_title
;
Structure prediction by ZEFSAII (Michael W. Deem and Ramdas Pophale) SiO2 
 PCOD9270186
Probable space group: C 2/C
;
_chemical_formula_sum "Si O2"
_cell_formula_units_Z 48
_cell_length_a 17.086639
_cell_length_b 28.785976
_cell_length_c 16.549273
_cell_angle_alpha 90.000000
_cell_angle_beta 162.835542
_cell_angle_gamma 90.000000
_cell_volume 2402.195843
_symmetry_space_group_name_H-M "C 2/C"
_symmetry_group_IT_number 15
_symmetry_cell_setting 'monoclinic'
loop_
_space_group_symop_operation_xyz
x,y,z
-x,y,1/2-z
-x,-y,-z
x,-y,1/2+z
1/2+x,1/2+y,z
1/2-x,1/2+y,1/2-z
1/2-x,1/2-y,-z
1/2+x,1/2-y,1/2+z
loop_
_atom_site_type_symbol
_atom_site_label
_atom_site_fract_x
_atom_site_fract_y
_atom_site_fract_z
Si Si1 0.438417 0.223013 0.981584
Si Si2 0.129387 0.376435 0.610187
Si Si3 0.132506 0.907554 0.202625
Si Si4 0.265389 0.015162 0.959475
Si Si5 0.233086 0.592916 0.038311
Si Si6 0.737075 0.174056 0.540886
O O1 0.567867 0.176396 0.074799
O O2 0.642173 0.264148 0.162383
O O3 0.394219 0.214166 0.033684
O O4 0.236474 0.380154 0.625579
O O5 0.845969 0.401293 0.341890
O O6 0.340168 0.400471 0.878430
O O7 0.204878 0.954227 0.321520
O O8 0.179451 0.866179 0.313808
O O9 0.000000 0.016640 0.750000
O O10 0.321862 0.961398 0.995061
O O11 0.500000 0.032575 0.250000
O O12 0.500000 0.595362 0.250000
O O13 0.000000 0.609629 0.750000
O O14 0.000000 0.186668 0.750000
O O15 0.500000 0.156766 0.250000
#
# Coordination Sequence:
#
# PCOD9270186 Si02
#       6
#     8   8   8   8   8   8
#     4  11  23  39  57  80 111 148 189 236 289 335
#     4  11  23  39  60  84 111 148 189 234 288 340
#     4  11  21  35  56  84 119 155 192 227 267 322
#     4  10  20  35  56  85 121 158 191 225 267 318
#     4  10  22  40  62  86 113 146 184 231 289 345
#     4  11  21  34  53  80 115 154 193 229 268 318
#
# _framework density 19.981718000000001
#
# number of rings (size 3 to 8) (size 9 to 14) (size 15 to 20)
#    0.000    1.333    0.000    8.000    0.000    3.333 
#    0.000    0.000    0.000    3.000    0.000    0.000 
#    0.000    0.000    0.000    0.000    0.000    0.000 
#
# Total GULP energy -134060.841765 kJ/mol
# GULP energy per Si atom -5585.868407 kJ/mol
# Density = 1.993624 g / cm^3
# Si number density = 19.981718 Si / 1000 Ang^3
#
#
#
# Elastic Constant Matrix: (Units=GPa)
#
#
# Indices 1 2 3 4 5 6 
#
# 1 100.1470 43.4699 24.8386 0.0093 5.4212 0.0056
# 2 43.4699 42.2562 22.0556 0.0000 7.5396 0.0006
# 3 24.8386 22.0556 108.5903 0.0432 3.2621 0.0254
# 4 0.0093 0.0000 0.0432 46.8263 0.0116 23.2141
# 5 5.4212 7.5396 3.2621 0.0116 24.5511 0.0043
# 6 0.0056 0.0006 0.0254 23.2141 0.0043 28.8356
#
#
#
# Elastic Compliance Matrix: (Units=1/GPa)
#
#
# Indices 1 2 3 4 5 6 
#
# 1 0.018133 -0.018774 -0.000389 -0.000004 0.001813 0.000000
# 2 -0.018774 0.047338 -0.005028 0.000011 -0.009724 0.000000
# 3 -0.000389 -0.005028 0.010311 -0.000008 0.000260 -0.000002
# 4 -0.000004 0.000011 -0.000008 0.035539 -0.000013 -0.028611
# 5 0.001813 -0.009724 0.000260 -0.000013 0.043283 0.000004
# 6 0.000000 0.000000 -0.000002 -0.028611 0.000004 0.057713
#
#
# Mechanical properties :
#
#
# Convention : Reuss Voigt Hill
#
# Bulk Modulus (GPa) = 36.49706 47.96907 42.23306
# Shear Modulus (GPa) = 18.53001 30.75122 24.64062
#
# Velocity S-wave (km/s) = 3.04854 3.92722 3.51544
# Velocity P-wave (km/s) = 5.54043 6.68002 6.13674
#
# Compressibility (1/GPa) = 0.02739947
#
# Stress axis : x y z
#
# Youngs Moduli (GPa) = 55.14904 21.12470 96.98026
#
# Poissons Ratio (x) = 0.39660 0.03772
# Poissons Ratio (y) = 1.03537 0.48765
# Poissons Ratio (z) = 0.02145 0.10622
#
# Static dielectric constant tensor:
#      x y z
#    x 1.656230 0.000000 0.004750 
#    y 0.000000 1.740430 0.000000 
#    z 0.004750 0.000000 1.698070 
# 
# From -- ./inp_files/157697.got.cif
#   From: 2010.05.17/outbox.cif.g08.bks.cpg/sg15_79_cif.got.tgz:157697.got - 2010.06.03 18:47:42.
