data_PCOD9270217
_publ_section_title
;
Structure prediction by ZEFSAII (Michael W. Deem and Ramdas Pophale) SiO2 
 PCOD9270217
Probable space group: C 2/C
;
_chemical_formula_sum "Si O2"
_cell_formula_units_Z 40
_cell_length_a 16.905567
_cell_length_b 12.513410
_cell_length_c 8.355677
_cell_angle_alpha 90.000000
_cell_angle_beta 52.855156
_cell_angle_gamma 90.000000
_cell_volume 1408.984356
_symmetry_space_group_name_H-M "C 2/C"
_symmetry_group_IT_number 15
_symmetry_cell_setting 'monoclinic'
loop_
_space_group_symop_operation_xyz
x,y,z
-x,y,1/2-z
-x,-y,-z
x,-y,1/2+z
1/2+x,1/2+y,z
1/2-x,1/2+y,1/2-z
1/2-x,1/2-y,-z
1/2+x,1/2-y,1/2+z
loop_
_atom_site_type_symbol
_atom_site_label
_atom_site_fract_x
_atom_site_fract_y
_atom_site_fract_z
Si Si1 0.500000 0.847935 0.750000
Si Si2 0.234698 0.690319 0.688719
Si Si3 0.637077 0.596374 0.365069
Si Si4 0.162522 0.531353 0.534221
Si Si5 0.000000 0.968108 0.750000
Si Si6 0.939505 0.267690 0.489962
O O1 0.597502 0.924846 0.622962
O O2 0.488139 0.779478 0.603484
O O3 0.250000 0.750000 0.500000
O O4 0.180409 0.785670 0.849662
O O5 0.347656 0.684234 0.610377
O O6 0.324268 0.912541 0.305544
O O7 0.727060 0.529629 0.174331
O O8 0.588412 0.540824 0.575125
O O9 0.548925 0.594089 0.340695
O O10 0.106798 0.614576 0.487587
O O11 0.000000 0.259745 0.250000
#
# Coordination Sequence:
#
# PCOD9270217 Si02
#       6
#     4   8   8   8   4   8
#     4  12  24  37  74 119 136 182 240 306 358 433
#     4   8  19  41  63  90 135 190 229 276 362 433
#     4   9  20  35  60  88 132 175 229 288 340 426
#     4  10  22  39  66 102 138 184 236 286 361 433
#     4  10  20  35  56  99 120 174 238 286 352 399
#     4  10  21  39  67 101 142 183 237 295 359 427
#
# _framework density 28.389241999999999
#
# number of rings (size 3 to 8) (size 9 to 14) (size 15 to 20)
#    0.000    2.800    1.000    0.600    5.600    2.400 
#   10.800    0.000    2.200   22.800    0.000    0.000 
#    0.000    0.000    0.000    0.000    0.000    0.000 
#
# Total GULP energy -112023.128426 kJ/mol
# GULP energy per Si atom -5601.156421 kJ/mol
# Density = 2.832463 g / cm^3
# Si number density = 28.389242 Si / 1000 Ang^3
#
#
#
# Elastic Constant Matrix: (Units=GPa)
#
#
# Indices 1 2 3 4 5 6 
#
# 1 209.1164 61.3959 81.2327 0.0000 7.8816 0.0000
# 2 61.3959 130.8077 81.3546 0.0000 9.5989 0.0000
# 3 81.2327 81.3546 179.0862 0.0000 -10.3014 0.0000
# 4 0.0000 0.0000 0.0000 45.0306 0.0000 -2.7282
# 5 7.8816 9.5989 -10.3014 0.0000 58.5175 0.0000
# 6 0.0000 0.0000 0.0000 -2.7282 0.0000 34.2194
#
#
#
# Elastic Compliance Matrix: (Units=1/GPa)
#
#
# Indices 1 2 3 4 5 6 
#
# 1 0.006080 -0.001440 -0.002159 0.000000 -0.000963 0.000000
# 2 -0.001440 0.011412 -0.004675 0.000000 -0.002501 0.000000
# 3 -0.002159 -0.004675 0.008837 0.000000 0.002613 0.000000
# 4 0.000000 0.000000 0.000000 0.022315 0.000000 0.001779
# 5 -0.000963 -0.002501 0.002613 0.000000 0.018089 0.000000
# 6 0.000000 0.000000 0.000000 0.001779 0.000000 0.029365
#
#
# Mechanical properties :
#
#
# Convention : Reuss Voigt Hill
#
# Bulk Modulus (GPa) = 102.23896 107.44186 104.84041
# Shear Modulus (GPa) = 43.13880 47.22199 45.18039
#
# Velocity S-wave (km/s) = 3.90237 4.08288 3.99364
# Velocity P-wave (km/s) = 7.50973 7.75594 7.63383
#
# Compressibility (1/GPa) = 0.00978101
#
# Stress axis : x y z
#
# Youngs Moduli (GPa) = 164.47923 87.62973 113.16041
#
# Poissons Ratio (x) = 0.12621 0.24430
# Poissons Ratio (y) = 0.23690 0.52898
# Poissons Ratio (z) = 0.35509 0.40963
#
# Static dielectric constant tensor:
#      x y z
#    x 2.245900 0.000000 -0.092500 
#    y 0.000000 2.425190 0.000000 
#    z -0.092500 0.000000 2.233800 
# 
# From -- ./inp_files/48315.got.cif
#   From: 2010.05.17/outbox.cif.g08.bks.cpg/sg15_25_cif.got.tgz:48315.got - 2010.06.03 18:47:42.
