data_PCOD9270525
_publ_section_title
;
Structure prediction by ZEFSAII (Michael W. Deem and Ramdas Pophale) SiO2 
 PCOD9270525
Probable space group: C 2/C
;
_chemical_formula_sum "Si O2"
_cell_formula_units_Z 48
_cell_length_a 18.182135
_cell_length_b 17.976411
_cell_length_c 15.164311
_cell_angle_alpha 90.000000
_cell_angle_beta 153.715553
_cell_angle_gamma 90.000000
_cell_volume 2194.853051
_symmetry_space_group_name_H-M "C 2/C"
_symmetry_group_IT_number 15
_symmetry_cell_setting 'monoclinic'
loop_
_space_group_symop_operation_xyz
x,y,z
-x,y,1/2-z
-x,-y,-z
x,-y,1/2+z
1/2+x,1/2+y,z
1/2-x,1/2+y,1/2-z
1/2-x,1/2-y,-z
1/2+x,1/2-y,1/2+z
loop_
_atom_site_type_symbol
_atom_site_label
_atom_site_fract_x
_atom_site_fract_y
_atom_site_fract_z
Si Si1 0.120475 0.296442 0.802698
Si Si2 0.912148 0.788885 0.746555
Si Si3 0.304970 0.076643 0.764139
Si Si4 0.316946 0.098475 0.284199
Si Si5 0.825154 0.623298 0.596671
Si Si6 0.533380 0.322291 0.056291
O O1 0.173777 0.368503 0.805120
O O2 0.000000 0.322702 0.750000
O O3 0.055990 0.236615 0.659634
O O4 0.250000 0.250000 0.000000
O O5 0.849584 0.706004 0.663259
O O6 0.778382 0.855618 0.602354
O O7 0.000000 0.808794 0.750000
O O8 0.027549 0.783432 0.954706
O O9 0.255044 0.081422 0.606454
O O10 0.185395 0.120656 0.703628
O O11 0.295492 0.989440 0.773776
O O12 0.493769 0.108502 0.975210
O O13 0.147469 0.139431 0.132119
O O14 0.000000 0.592166 0.750000
#
# Coordination Sequence:
#
# PCOD9270525 Si02
#       6
#     8   8   8   8   8   8
#     4  12  25  47  72 106 138 193 260 308 356 420
#     4  10  20  36  61 100 130 168 222 274 344 419
#     4  11  24  44  69 104 144 190 226 294 376 439
#     4  11  26  45  69 103 144 184 243 297 366 429
#     4  10  20  35  59  94 138 169 218 273 338 431
#     4  12  24  44  75  99 140 185 236 306 355 433
#
# _framework density 21.869346
#
# number of rings (size 3 to 8) (size 9 to 14) (size 15 to 20)
#    0.000    1.000    3.333    3.500    2.333    0.667 
#    0.000    5.000    0.000    0.000    0.000    0.000 
#    0.000    0.000    0.000    0.000    0.000    0.000 
#
# Total GULP energy -133669.994349 kJ/mol
# GULP energy per Si atom -5569.583098 kJ/mol
# Density = 2.181957 g / cm^3
# Si number density = 21.869346 Si / 1000 Ang^3
#
#
#
# Elastic Constant Matrix: (Units=GPa)
#
#
# Indices 1 2 3 4 5 6 
#
# 1 126.9243 19.2500 27.6806 0.0000 1.1555 0.0000
# 2 19.2500 49.5079 11.5470 0.0000 -1.3765 0.0000
# 3 27.6806 11.5470 82.5615 0.0000 -14.7908 0.0000
# 4 0.0000 0.0000 0.0000 14.8995 0.0000 10.4390
# 5 1.1555 -1.3765 -14.7908 0.0000 47.1734 0.0000
# 6 0.0000 0.0000 0.0000 10.4390 0.0000 16.5794
#
#
#
# Elastic Compliance Matrix: (Units=1/GPa)
#
#
# Indices 1 2 3 4 5 6 
#
# 1 0.008934 -0.002852 -0.002809 0.000000 -0.001183 0.000000
# 2 -0.002852 0.021795 -0.002083 0.000000 0.000053 0.000000
# 3 -0.002809 -0.002083 0.014141 0.000000 0.004442 0.000000
# 4 0.000000 0.000000 0.000000 0.120096 0.000000 -0.075617
# 5 -0.001183 0.000053 0.004442 0.000000 0.022622 0.000000
# 6 0.000000 0.000000 0.000000 -0.075617 0.000000 0.107927
#
#
# Mechanical properties :
#
#
# Convention : Reuss Voigt Hill
#
# Bulk Modulus (GPa) = 34.03178 41.77208 37.90193
# Shear Modulus (GPa) = 15.58623 29.09821 22.34222
#
# Velocity S-wave (km/s) = 2.67254 3.65162 3.19975
# Velocity P-wave (km/s) = 5.01183 6.07630 5.56955
#
# Compressibility (1/GPa) = 0.02938430
#
# Stress axis : x y z
#
# Youngs Moduli (GPa) = 111.92574 45.88237 70.71730
#
# Poissons Ratio (x) = 0.13085 0.19861
# Poissons Ratio (y) = 0.31919 0.14728
# Poissons Ratio (z) = 0.31434 0.09556
#
# Static dielectric constant tensor:
#      x y z
#    x 1.782900 0.000000 0.052720 
#    y 0.000000 1.841530 0.000000 
#    z 0.052720 0.000000 1.977810 
# 
# From -- ./inp_files/163323.got.cif
#   From: 2010.05.17/outbox.cif.g08.bks.cpg/sg15_82_cif.got.tgz:163323.got - 2010.06.03 18:47:42.
