data_PCOD9270331
_publ_section_title
;
Structure prediction by ZEFSAII (Michael W. Deem and Ramdas Pophale) SiO2 
 PCOD9270331
Probable space group: C 2/C
;
_chemical_formula_sum "Si O2"
_cell_formula_units_Z 56
_cell_length_a 16.560432
_cell_length_b 17.297431
_cell_length_c 25.335405
_cell_angle_alpha 90.000000
_cell_angle_beta 24.814912
_cell_angle_gamma 90.000000
_cell_volume 3045.846499
_symmetry_space_group_name_H-M "C 2/C"
_symmetry_group_IT_number 15
_symmetry_cell_setting 'monoclinic'
loop_
_space_group_symop_operation_xyz
x,y,z
-x,y,1/2-z
-x,-y,-z
x,-y,1/2+z
1/2+x,1/2+y,z
1/2-x,1/2+y,1/2-z
1/2-x,1/2-y,-z
1/2+x,1/2-y,1/2+z
loop_
_atom_site_type_symbol
_atom_site_label
_atom_site_fract_x
_atom_site_fract_y
_atom_site_fract_z
Si Si1 0.226338 0.484459 0.373142
Si Si2 0.340096 0.673660 0.130375
Si Si3 0.455206 0.095595 0.336651
Si Si4 0.031651 0.887347 0.057487
Si Si5 0.861229 0.457496 0.465663
Si Si6 0.675826 0.846301 0.333150
Si Si7 0.982303 0.057158 0.131708
O O1 0.256046 0.502131 0.416696
O O2 0.251555 0.397635 0.337414
O O3 0.346907 0.538045 0.262034
O O4 0.000000 0.500000 0.500000
O O5 0.388453 0.763051 0.109128
O O6 0.401705 0.625895 0.144880
O O7 0.112163 0.659917 0.257144
O O8 0.439566 0.635925 0.020090
O O9 0.500000 0.068424 0.250000
O O10 0.236127 0.125162 0.465404
O O11 0.470951 0.024671 0.368258
O O12 0.856127 0.840803 0.186803
O O13 0.988300 0.978219 0.093431
O O14 0.697516 0.425400 0.524126
O O15 0.007825 0.395047 0.403112
#
# Coordination Sequence:
#
# PCOD9270331 Si02
#       7
#     8   8   8   8   8   8   8
#     4   9  18  35  55  77 106 143 185 220 257 314
#     4  11  21  35  56  82 113 140 173 227 283 325
#     4   9  19  36  59  80 102 141 186 226 267 319
#     4   9  20  38  55  78 106 142 186 222 264 322
#     4  10  20  36  57  79 109 145 186 222 261 323
#     4  10  22  35  54  83 112 142 176 223 277 325
#     4  10  20  35  58  81 106 146 186 221 262 319
#
# _framework density 18.385694000000001
#
# number of rings (size 3 to 8) (size 9 to 14) (size 15 to 20)
#    0.000    2.286    0.000    3.429    0.000    6.857 
#    0.000   11.429    0.000    1.714    0.000    0.000 
#    0.000    0.000    0.000    0.000    0.000    0.000 
#
# Total GULP energy -156161.478740 kJ/mol
# GULP energy per Si atom -5577.195669 kJ/mol
# Density = 1.834385 g / cm^3
# Si number density = 18.385694 Si / 1000 Ang^3
#
#
#
# Elastic Constant Matrix: (Units=GPa)
#
#
# Indices 1 2 3 4 5 6 
#
# 1 80.0360 43.2517 24.1611 -0.0031 13.1724 0.0008
# 2 43.2517 60.6766 23.5778 -0.0153 16.6366 0.0061
# 3 24.1611 23.5778 86.7327 -0.0292 4.3652 0.0071
# 4 -0.0031 -0.0153 -0.0292 8.3386 0.0096 -2.8566
# 5 13.1724 16.6366 4.3652 0.0096 23.4042 -0.0019
# 6 0.0008 0.0061 0.0071 -2.8566 -0.0019 11.2020
#
#
#
# Elastic Compliance Matrix: (Units=1/GPa)
#
#
# Indices 1 2 3 4 5 6 
#
# 1 0.020667 -0.013497 -0.002004 -0.000022 -0.001664 0.000001
# 2 -0.013497 0.031556 -0.004111 0.000054 -0.014068 -0.000002
# 3 -0.002004 -0.004111 0.013125 0.000037 0.001602 0.000004
# 4 -0.000022 0.000054 0.000037 0.131403 -0.000084 0.033508
# 5 -0.001664 -0.014068 0.001602 -0.000084 0.053365 -0.000006
# 6 0.000001 -0.000002 0.000004 0.033508 -0.000006 0.097815
#
#
# Mechanical properties :
#
#
# Convention : Reuss Voigt Hill
#
# Bulk Modulus (GPa) = 38.27807 45.49183 41.88495
# Shear Modulus (GPa) = 12.63062 17.68595 15.15829
#
# Velocity S-wave (km/s) = 2.62388 3.10488 2.87446
# Velocity P-wave (km/s) = 5.48127 6.13600 5.81785
#
# Compressibility (1/GPa) = 0.02612462
#
# Stress axis : x y z
#
# Youngs Moduli (GPa) = 48.38615 31.68933 76.19140
#
# Poissons Ratio (x) = 0.42771 0.15272
# Poissons Ratio (y) = 0.65306 0.31319
# Poissons Ratio (z) = 0.09699 0.13026
#
# Static dielectric constant tensor:
#      x y z
#    x 1.659240 0.000070 0.002890 
#    y 0.000070 1.621570 -0.000020 
#    z 0.002890 -0.000020 1.650460 
# 
# From -- ./inp_files/98392.got.cif
#   From: 2010.05.17/outbox.cif.g08.bks.cpg/sg15_50_cif.got.tgz:98392.got - 2010.06.03 18:47:42.
