data_PCOD9270496
_publ_section_title
;
Structure prediction by ZEFSAII (Michael W. Deem and Ramdas Pophale) SiO2 
 PCOD9270496
Probable space group: C 2/C
;
_chemical_formula_sum "Si O2"
_cell_formula_units_Z 52
_cell_length_a 17.940646
_cell_length_b 14.117410
_cell_length_c 11.653184
_cell_angle_alpha 90.000000
_cell_angle_beta 66.337899
_cell_angle_gamma 90.000000
_cell_volume 2703.330663
_symmetry_space_group_name_H-M "C 2/C"
_symmetry_group_IT_number 15
_symmetry_cell_setting 'monoclinic'
loop_
_space_group_symop_operation_xyz
x,y,z
-x,y,1/2-z
-x,-y,-z
x,-y,1/2+z
1/2+x,1/2+y,z
1/2-x,1/2+y,1/2-z
1/2-x,1/2-y,-z
1/2+x,1/2-y,1/2+z
loop_
_atom_site_type_symbol
_atom_site_label
_atom_site_fract_x
_atom_site_fract_y
_atom_site_fract_z
Si Si1 0.930275 0.368319 0.705547
Si Si2 0.588797 0.603740 0.633762
Si Si3 0.287337 0.743007 0.851852
Si Si4 0.595219 0.608516 0.158264
Si Si5 0.124136 0.200991 0.364786
Si Si6 0.500000 0.052181 0.750000
Si Si7 0.951316 0.709207 0.938800
O O1 0.842086 0.336355 0.801338
O O2 0.937459 0.323579 0.576374
O O3 0.000000 0.328761 0.750000
O O4 0.949059 0.480088 0.700823
O O5 0.500000 0.606771 0.750000
O O6 0.650642 0.655598 0.682884
O O7 0.614107 0.494630 0.598009
O O8 0.597289 0.655420 0.504196
O O9 0.207755 0.741213 0.822898
O O10 0.250000 0.750000 0.000000
O O11 0.500000 0.604270 0.250000
O O12 0.638042 0.626486 0.253606
O O13 0.600071 0.699460 0.071144
O O14 0.046711 0.262286 0.373802
O O15 0.442763 0.119626 0.860593
#
# Coordination Sequence:
#
# PCOD9270496 Si02
#       7
#     8   8   8   8   8   4   8
#     4  10  22  36  62  93 109 157 210 242 292 356
#     4  10  20  35  59  89 112 153 203 243 283 358
#     4  10  20  38  56  85 125 154 189 247 300 343
#     4   9  20  36  59  86 114 153 193 233 302 352
#     4  10  20  36  60  80 123 158 184 240 311 345
#     4  10  22  38  64  90 114 156 208 250 300 346
#     4  11  19  42  63  84 121 152 201 253 293 361
#
# _framework density 19.235531000000002
#
# number of rings (size 3 to 8) (size 9 to 14) (size 15 to 20)
#    0.462    1.538    2.308    3.692    0.000    6.769 
#    2.769    2.308    0.000    0.000    0.000    0.000 
#    0.000    0.000    0.000    0.000    0.000    0.000 
#
# Total GULP energy -144741.926832 kJ/mol
# GULP energy per Si atom -5566.997186 kJ/mol
# Density = 1.919175 g / cm^3
# Si number density = 19.235531 Si / 1000 Ang^3
#
#
#
# Elastic Constant Matrix: (Units=GPa)
#
#
# Indices 1 2 3 4 5 6 
#
# 1 78.5181 30.3795 20.7963 0.0000 0.8632 0.0000
# 2 30.3795 130.0468 33.1993 0.0000 5.7312 0.0000
# 3 20.7963 33.1993 80.2149 0.0000 9.6850 0.0000
# 4 0.0000 0.0000 0.0000 23.1373 0.0000 10.7557
# 5 0.8632 5.7312 9.6850 0.0000 29.5870 0.0000
# 6 0.0000 0.0000 0.0000 10.7557 0.0000 11.9788
#
#
#
# Elastic Compliance Matrix: (Units=1/GPa)
#
#
# Indices 1 2 3 4 5 6 
#
# 1 0.014511 -0.002731 -0.002753 0.000000 0.001007 0.000000
# 2 -0.002731 0.009120 -0.002981 0.000000 -0.000711 0.000000
# 3 -0.002753 -0.002981 0.014924 0.000000 -0.004228 0.000000
# 4 0.000000 0.000000 0.000000 0.074185 0.000000 -0.066611
# 5 0.001007 -0.000711 -0.004228 0.000000 0.035291 0.000000
# 6 0.000000 0.000000 0.000000 -0.066611 0.000000 0.143290
#
#
# Mechanical properties :
#
#
# Convention : Reuss Voigt Hill
#
# Bulk Modulus (GPa) = 46.24292 50.83667 48.53980
# Shear Modulus (GPa) = 15.84987 26.56760 21.20874
#
# Velocity S-wave (km/s) = 2.87364 3.72045 3.32412
# Velocity P-wave (km/s) = 5.92477 6.70384 6.32631
#
# Compressibility (1/GPa) = 0.02162493
#
# Stress axis : x y z
#
# Youngs Moduli (GPa) = 68.91402 109.65129 67.00476
#
# Poissons Ratio (x) = 0.29949 0.18448
# Poissons Ratio (y) = 0.18823 0.19971
# Poissons Ratio (z) = 0.18973 0.32682
#
# Static dielectric constant tensor:
#      x y z
#    x 1.724150 0.000000 0.054070 
#    y 0.000000 1.750070 0.000000 
#    z 0.054070 0.000000 1.730410 
# 
# From -- ./inp_files/105228.got.cif
#   From: 2010.05.17/outbox.cif.g08.bks.cpg/sg15_53_cif.got.tgz:105228.got - 2010.06.03 18:47:42.
