data_PCOD9270093
_publ_section_title
;
Structure prediction by ZEFSAII (Michael W. Deem and Ramdas Pophale) SiO2 
 PCOD9270093
Probable space group: C 2/C
;
_chemical_formula_sum "Si O2"
_cell_formula_units_Z 56
_cell_length_a 11.582603
_cell_length_b 15.339573
_cell_length_c 19.990482
_cell_angle_alpha 90.000000
_cell_angle_beta 141.945109
_cell_angle_gamma 90.000000
_cell_volume 2189.357592
_symmetry_space_group_name_H-M "C 2/C"
_symmetry_group_IT_number 15
_symmetry_cell_setting 'monoclinic'
loop_
_space_group_symop_operation_xyz
x,y,z
-x,y,1/2-z
-x,-y,-z
x,-y,1/2+z
1/2+x,1/2+y,z
1/2-x,1/2+y,1/2-z
1/2-x,1/2-y,-z
1/2+x,1/2-y,1/2+z
loop_
_atom_site_type_symbol
_atom_site_label
_atom_site_fract_x
_atom_site_fract_y
_atom_site_fract_z
Si Si1 0.749144 0.163921 0.213259
Si Si2 0.851532 0.380946 0.105605
Si Si3 0.282102 0.389218 0.131681
Si Si4 0.905325 0.233444 0.515030
Si Si5 0.330054 0.310702 0.606479
Si Si6 0.619036 0.455497 0.469664
Si Si7 0.700364 0.981903 0.230599
O O1 0.600603 0.241426 0.139879
O O2 0.793970 0.135267 0.156981
O O3 0.962545 0.183432 0.331684
O O4 0.653338 0.084266 0.208061
O O5 0.811756 0.289443 0.123225
O O6 0.058165 0.420223 0.205012
O O7 0.812976 0.344951 0.012925
O O8 0.716479 0.463703 0.049887
O O9 0.500000 0.368553 0.250000
O O10 0.283831 0.434487 0.058729
O O11 0.206563 0.448111 0.157134
O O12 0.153651 0.302803 0.067886
O O13 0.750000 0.250000 0.500000
O O14 0.886756 0.132435 0.489538
O O15 0.407912 0.476358 0.353536
#
# Coordination Sequence:
#
# PCOD9270093 Si02
#       7
#     8   8   8   8   8   8   8
#     4  11  21  38  60  88 116 156 198 251 300 352
#     4  11  21  38  57  88 118 156 190 246 297 364
#     4   9  19  32  53  85 117 146 189 244 294 344
#     4  10  20  35  55  84 120 155 189 247 301 357
#     4  10  23  37  59  86 125 151 196 243 309 357
#     4  10  20  35  55  82 115 147 196 236 294 354
#     4  11  20  33  62  89 112 149 199 250 293 348
#
# _framework density 25.578278999999998
#
# number of rings (size 3 to 8) (size 9 to 14) (size 15 to 20)
#    0.000    1.714    1.429    4.286    4.000    1.714 
#    0.000    0.714    3.143    0.000    0.000    0.000 
#    0.000    0.000    0.000    0.000    0.000    0.000 
#
# Total GULP energy -156673.003283 kJ/mol
# GULP energy per Si atom -5595.464403 kJ/mol
# Density = 2.552006 g / cm^3
# Si number density = 25.578279 Si / 1000 Ang^3
#
#
#
# Elastic Constant Matrix: (Units=GPa)
#
#
# Indices 1 2 3 4 5 6 
#
# 1 69.8419 12.6536 1.4517 0.0000 8.4438 0.0000
# 2 12.6536 186.3439 19.1437 0.0000 11.3410 0.0000
# 3 1.4517 19.1437 67.3472 -0.0002 17.6011 0.0000
# 4 0.0000 0.0000 -0.0002 28.8614 0.0000 5.2745
# 5 8.4438 11.3410 17.6011 0.0000 33.1241 0.0000
# 6 0.0000 0.0000 0.0000 5.2745 0.0000 31.3225
#
#
#
# Elastic Compliance Matrix: (Units=1/GPa)
#
#
# Indices 1 2 3 4 5 6 
#
# 1 0.014943 -0.000870 0.000979 0.000000 -0.004031 0.000000
# 2 -0.000870 0.005622 -0.001317 0.000000 -0.001003 0.000000
# 3 0.000979 -0.001317 0.017592 0.000000 -0.009146 0.000000
# 4 0.000000 0.000000 0.000000 0.035749 0.000000 -0.006020
# 5 -0.004031 -0.001003 -0.009146 0.000000 0.036421 0.000000
# 6 0.000000 0.000000 0.000000 -0.006020 0.000000 0.032940
#
#
# Mechanical properties :
#
#
# Convention : Reuss Voigt Hill
#
# Bulk Modulus (GPa) = 27.97967 43.33679 35.65823
# Shear Modulus (GPa) = 31.72680 38.01387 34.87033
#
# Velocity S-wave (km/s) = 3.52572 3.85928 3.69627
# Velocity P-wave (km/s) = 5.24756 6.06946 5.67341
#
# Compressibility (1/GPa) = 0.03574024
#
# Stress axis : x y z
#
# Youngs Moduli (GPa) = 66.92237 177.87727 56.84358
#
# Poissons Ratio (x) = 0.15473 -0.05564
# Poissons Ratio (y) = 0.05821 0.07487
# Poissons Ratio (z) = -0.06550 0.23428
#
# Static dielectric constant tensor:
#      x y z
#    x 2.012770 0.000000 -0.019050 
#    y 0.000000 2.047960 0.000000 
#    z -0.019050 0.000000 2.036960 
# 
# From -- ./inp_files/296610.got.cif
#   From: 2010.05.17/outbox.cif.g08.bks.cpg/sg15_149_cif.got.tgz:296610.got - 2010.06.03 18:47:42.
