data_PCOD9270478
_publ_section_title
;
Structure prediction by ZEFSAII (Michael W. Deem and Ramdas Pophale) SiO2 
 PCOD9270478
Probable space group: C 2/C
;
_chemical_formula_sum "Si O2"
_cell_formula_units_Z 64
_cell_length_a 23.668353
_cell_length_b 22.974457
_cell_length_c 14.285705
_cell_angle_alpha 90.000000
_cell_angle_beta 157.600107
_cell_angle_gamma 90.000000
_cell_volume 2960.180493
_symmetry_space_group_name_H-M "C 2/C"
_symmetry_group_IT_number 15
_symmetry_cell_setting 'monoclinic'
loop_
_space_group_symop_operation_xyz
x,y,z
-x,y,1/2-z
-x,-y,-z
x,-y,1/2+z
1/2+x,1/2+y,z
1/2-x,1/2+y,1/2-z
1/2-x,1/2-y,-z
1/2+x,1/2-y,1/2+z
loop_
_atom_site_type_symbol
_atom_site_label
_atom_site_fract_x
_atom_site_fract_y
_atom_site_fract_z
Si Si1 0.636602 0.035493 0.167836
Si Si2 0.187997 0.053609 0.233020
Si Si3 0.623505 0.684789 0.161440
Si Si4 0.002611 0.767972 0.860962
Si Si5 0.931417 0.666641 0.390647
Si Si6 0.776030 0.162919 0.591854
Si Si7 0.191505 0.301857 0.158384
Si Si8 0.149017 0.033361 0.836604
O O1 0.686013 0.024896 0.137705
O O2 0.598251 0.103585 0.114459
O O3 0.778830 0.025502 0.451979
O O4 0.500000 0.000000 0.000000
O O5 0.200341 0.123191 0.262212
O O6 0.183417 0.021749 0.324936
O O7 0.027328 0.043300 0.938337
O O8 0.629772 0.702494 0.281485
O O9 0.677308 0.736049 0.175956
O O10 0.447855 0.679594 0.868327
O O11 0.000000 0.747471 0.750000
O O12 0.041506 0.714313 0.988687
O O13 0.135309 0.815617 0.059534
O O14 0.073001 0.664040 0.538297
O O15 0.793223 0.683351 0.112223
O O16 0.679663 0.188072 0.529681
O O17 0.776854 0.092469 0.591240
#
# Coordination Sequence:
#
# PCOD9270478 Si02
#       8
#     8   8   8   8   8   8   8   8
#     4  11  24  41  59  94 128 158 206 260 318 378
#     4  10  20  42  67  89 122 161 214 258 310 372
#     4   9  20  37  61  95 119 158 209 250 310 371
#     4  10  22  41  58  83 123 165 211 257 295 369
#     4  10  22  38  58  87 121 160 200 244 322 371
#     4   9  19  36  60  89 122 150 199 260 308 372
#     4  10  20  35  59  86 121 157 194 251 315 366
#     4   9  21  41  66  89 117 167 211 260 308 366
#
# _framework density 21.620303
#
# number of rings (size 3 to 8) (size 9 to 14) (size 15 to 20)
#    0.000    2.250    0.000    1.500    1.750    8.000 
#    6.750    7.500    0.000    0.000    0.000    0.000 
#    0.000    0.000    0.000    0.000    0.000    0.000 
#
# Total GULP energy -178622.723131 kJ/mol
# GULP energy per Si atom -5581.960098 kJ/mol
# Density = 2.157109 g / cm^3
# Si number density = 21.620303 Si / 1000 Ang^3
#
#
#
# Elastic Constant Matrix: (Units=GPa)
#
#
# Indices 1 2 3 4 5 6 
#
# 1 131.8038 27.5244 12.5474 0.0000 -2.5225 0.0000
# 2 27.5244 48.4628 8.0069 0.0000 -10.3669 0.0000
# 3 12.5474 8.0069 24.1121 0.0000 -9.0549 0.0000
# 4 0.0000 0.0000 0.0000 27.3217 0.0000 4.4328
# 5 -2.5225 -10.3669 -9.0549 0.0000 29.3970 0.0000
# 6 0.0000 0.0000 0.0000 4.4328 0.0000 21.7271
#
#
#
# Elastic Compliance Matrix: (Units=1/GPa)
#
#
# Indices 1 2 3 4 5 6 
#
# 1 0.008933 -0.004899 -0.003825 0.000000 -0.002139 0.000000
# 2 -0.004899 0.025560 -0.003066 0.000000 0.007649 0.000000
# 3 -0.003825 -0.003066 0.049701 0.000000 0.013900 0.000000
# 4 0.000000 0.000000 0.000000 0.037854 0.000000 -0.007723
# 5 -0.002139 0.007649 0.013900 0.000000 0.040812 0.000000
# 6 0.000000 0.000000 0.000000 -0.007723 0.000000 0.047601
#
#
# Mechanical properties :
#
#
# Convention : Reuss Voigt Hill
#
# Bulk Modulus (GPa) = 16.49786 33.39291 24.94538
# Shear Modulus (GPa) = 19.66591 26.10917 22.88754
#
# Velocity S-wave (km/s) = 3.01924 3.47886 3.25716
# Velocity P-wave (km/s) = 4.44991 5.62275 5.07035
#
# Compressibility (1/GPa) = 0.06061392
#
# Stress axis : x y z
#
# Youngs Moduli (GPa) = 111.93988 39.12412 20.12014
#
# Poissons Ratio (x) = 0.19168 0.07696
# Poissons Ratio (y) = 0.54843 0.06168
# Poissons Ratio (z) = 0.42820 0.11994
#
# Static dielectric constant tensor:
#      x y z
#    x 1.820250 0.000000 0.012760 
#    y 0.000000 1.770390 0.000000 
#    z 0.012760 0.000000 1.852000 
# 
# From -- ./inp_files/115016.got.cif
#   From: 2010.05.17/outbox.cif.g08.bks.cpg/sg15_58_cif.got.tgz:115016.got - 2010.06.03 18:47:42.
