data_PCOD9270488
_publ_section_title
;
Structure prediction by ZEFSAII (Michael W. Deem and Ramdas Pophale) SiO2 
 PCOD9270488
Probable space group: C 2/C
;
_chemical_formula_sum "Si O2"
_cell_formula_units_Z 36
_cell_length_a 11.325819
_cell_length_b 9.614328
_cell_length_c 12.523538
_cell_angle_alpha 90.000000
_cell_angle_beta 85.807853
_cell_angle_gamma 90.000000
_cell_volume 1360.041246
_symmetry_space_group_name_H-M "C 2/C"
_symmetry_group_IT_number 15
_symmetry_cell_setting 'monoclinic'
loop_
_space_group_symop_operation_xyz
x,y,z
-x,y,1/2-z
-x,-y,-z
x,-y,1/2+z
1/2+x,1/2+y,z
1/2-x,1/2+y,1/2-z
1/2-x,1/2-y,-z
1/2+x,1/2-y,1/2+z
loop_
_atom_site_type_symbol
_atom_site_label
_atom_site_fract_x
_atom_site_fract_y
_atom_site_fract_z
Si Si1 0.000000 0.390604 0.250000
Si Si2 0.688733 0.421999 0.623216
Si Si3 0.892233 0.365643 0.468947
Si Si4 0.418653 0.674053 0.932535
Si Si5 0.295390 0.304873 0.665102
O O1 0.949627 0.451251 0.366020
O O2 0.894705 0.297115 0.207243
O O3 0.803287 0.458981 0.544121
O O4 0.669542 0.263224 0.588370
O O5 0.572594 0.513841 0.606842
O O6 0.716908 0.424631 0.746150
O O7 0.975926 0.277279 0.544186
O O8 0.331032 0.735986 0.848928
O O9 0.347078 0.657337 0.047490
#
# Coordination Sequence:
#
# PCOD9270488 Si02
#       5
#     4   8   8   8   8
#     4   8  16  36  54  72 116 154 180 242 298 342
#     4  10  20  35  59  88 116 154 201 252 303 358
#     4   9  19  35  57  87 116 150 201 246 296 370
#     4  10  20  38  58  81 119 159 193 249 310 354
#     4   9  20  36  54  81 117 154 200 247 300 370
#
# _framework density 26.469784000000001
#
# number of rings (size 3 to 8) (size 9 to 14) (size 15 to 20)
#    0.000    2.667    0.000    0.667    0.000    6.222 
#    0.000   18.889    0.000    0.000    0.000    0.000 
#    0.000    0.000    0.000    0.000    0.000    0.000 
#
# Total GULP energy -100480.755239 kJ/mol
# GULP energy per Si atom -5582.264180 kJ/mol
# Density = 2.640954 g / cm^3
# Si number density = 26.469784 Si / 1000 Ang^3
#
#
#
# Elastic Constant Matrix: (Units=GPa)
#
#
# Indices 1 2 3 4 5 6 
#
# 1 96.4801 16.9556 47.8473 0.0000 19.7539 0.0000
# 2 16.9556 68.9227 39.3149 0.0000 0.6627 0.0000
# 3 47.8473 39.3149 116.3589 0.0000 27.6559 0.0000
# 4 0.0000 0.0000 0.0000 2.6076 0.0000 13.7634
# 5 19.7539 0.6627 27.6559 0.0000 27.5644 0.0000
# 6 0.0000 0.0000 0.0000 13.7634 0.0000 38.2308
#
#
#
# Elastic Compliance Matrix: (Units=1/GPa)
#
#
# Indices 1 2 3 4 5 6 
#
# 1 0.013678 -0.001118 -0.003839 0.000000 -0.005924 0.000000
# 2 -0.001118 0.019304 -0.008066 0.000000 0.008430 0.000000
# 3 -0.003839 -0.008066 0.016018 0.000000 -0.013126 0.000000
# 4 0.000000 0.000000 0.000000 -0.426021 0.000000 0.153371
# 5 -0.005924 0.008430 -0.013126 0.000000 0.053491 0.000000
# 6 0.000000 0.000000 0.000000 0.153371 0.000000 -0.029058
#
#
# Mechanical properties :
#
#
# Convention : Reuss Voigt Hill
#
# Bulk Modulus (GPa) = 43.56631 54.44414 49.00523
# Shear Modulus (GPa) = -15.67940 25.52348 4.92204
#
# Velocity S-wave (km/s) = -2.43647 3.10861 1.36511
# Velocity P-wave (km/s) = 2.92907 5.78771 4.58678
#
# Compressibility (1/GPa) = 0.02295352
#
# Stress axis : x y z
#
# Youngs Moduli (GPa) = 73.11030 51.80202 62.43092
#
# Poissons Ratio (x) = 0.05793 0.23964
# Poissons Ratio (y) = 0.08176 0.50359
# Poissons Ratio (z) = 0.28064 0.41785
#
# Static dielectric constant tensor:
#      x y z
#    x 2.125580 0.000000 -0.076000 
#    y 0.000000 2.156610 0.000000 
#    z -0.076000 0.000000 2.151960 
# 
# From -- ./inp_files/84356.got.cif
#   From: 2010.05.17/outbox.cif.g08.bks.cpg/sg15_43_cif.got.tgz:84356.got - 2010.06.03 18:47:42.
