data_PCOD9270022
_publ_section_title
;
Structure prediction by ZEFSAII (Michael W. Deem and Ramdas Pophale) SiO2 
 PCOD9270022
Probable space group: C 2/C
;
_chemical_formula_sum "Si O2"
_cell_formula_units_Z 56
_cell_length_a 13.903425
_cell_length_b 26.623900
_cell_length_c 9.012995
_cell_angle_alpha 90.000000
_cell_angle_beta 114.541464
_cell_angle_gamma 90.000000
_cell_volume 3034.884323
_symmetry_space_group_name_H-M "C 2/C"
_symmetry_group_IT_number 15
_symmetry_cell_setting 'monoclinic'
loop_
_space_group_symop_operation_xyz
x,y,z
-x,y,1/2-z
-x,-y,-z
x,-y,1/2+z
1/2+x,1/2+y,z
1/2-x,1/2+y,1/2-z
1/2-x,1/2-y,-z
1/2+x,1/2-y,1/2+z
loop_
_atom_site_type_symbol
_atom_site_label
_atom_site_fract_x
_atom_site_fract_y
_atom_site_fract_z
Si Si1 0.787965 0.616120 0.922174
Si Si2 0.271340 0.276887 0.786000
Si Si3 0.626067 0.307352 0.336619
Si Si4 0.925999 0.467708 0.338727
Si Si5 0.635130 0.150687 0.002218
Si Si6 0.615393 0.073580 0.244674
Si Si7 0.900374 0.312972 0.316984
O O1 0.672498 0.638358 0.813280
O O2 0.851722 0.572300 0.873880
O O3 0.856871 0.666763 0.945026
O O4 0.798896 0.600219 0.098674
O O5 0.178466 0.238007 0.775399
O O6 0.220969 0.317901 0.646424
O O7 0.358183 0.242133 0.760606
O O8 0.328822 0.298582 0.968266
O O9 0.500000 0.305213 0.250000
O O10 0.859251 0.514608 0.234902
O O11 0.000000 0.448241 0.250000
O O12 0.000000 0.500000 0.500000
O O13 0.614191 0.100181 0.083018
O O14 0.656053 0.149852 0.839522
O O15 0.524446 0.180621 0.915527
O O16 0.500000 0.080448 0.250000
#
# Coordination Sequence:
#
# PCOD9270022 Si02
#       7
#     8   8   8   8   8   8   8
#     4  11  21  36  53  82 112 146 187 225 288 340
#     4  10  20  35  54  79 110 146 192 235 280 325
#     4  10  21  36  58  82 110 151 198 238 274 331
#     4  11  21  33  54  84 117 142 176 229 294 348
#     4  11  20  33  52  77 118 146 178 225 280 339
#     4  11  20  33  53  80 112 148 178 222 285 347
#     4  10  22  31  50  80 111 147 180 223 280 334
#
# _framework density 18.452103999999999
#
# number of rings (size 3 to 8) (size 9 to 14) (size 15 to 20)
#    0.000    1.429    5.714    1.286    4.000    0.571 
#    0.000    0.000    0.000    0.857    0.000    0.000 
#    0.000    0.000    0.000    0.000    0.000    0.000 
#
# Total GULP energy -155881.203705 kJ/mol
# GULP energy per Si atom -5567.185847 kJ/mol
# Density = 1.841011 g / cm^3
# Si number density = 18.452104 Si / 1000 Ang^3
#
#
#
# Elastic Constant Matrix: (Units=GPa)
#
#
# Indices 1 2 3 4 5 6 
#
# 1 70.1139 33.0451 23.9454 0.0000 12.6302 0.0000
# 2 33.0451 87.6408 29.3251 0.0000 3.2167 0.0000
# 3 23.9454 29.3251 78.6348 0.0000 -0.8755 0.0000
# 4 0.0000 0.0000 0.0000 29.1281 0.0000 -4.4783
# 5 12.6302 3.2167 -0.8755 0.0000 29.6449 0.0000
# 6 0.0000 0.0000 0.0000 -4.4783 0.0000 33.5112
#
#
#
# Elastic Compliance Matrix: (Units=1/GPa)
#
#
# Indices 1 2 3 4 5 6 
#
# 1 0.019790 -0.005856 -0.003930 0.000000 -0.007912 0.000000
# 2 -0.005856 0.014842 -0.003743 0.000000 0.000774 0.000000
# 3 -0.003930 -0.003743 0.015338 0.000000 0.002534 0.000000
# 4 0.000000 0.000000 0.000000 0.035051 0.000000 0.004684
# 5 -0.007912 0.000774 0.002534 0.000000 0.037095 0.000000
# 6 0.000000 0.000000 0.000000 0.004684 0.000000 0.030467
#
#
# Mechanical properties :
#
#
# Convention : Reuss Voigt Hill
#
# Bulk Modulus (GPa) = 43.64783 45.44675 44.54729
# Shear Modulus (GPa) = 26.69794 28.46176 27.57985
#
# Velocity S-wave (km/s) = 3.80791 3.93169 3.87029
# Velocity P-wave (km/s) = 6.56046 6.73008 6.64581
#
# Compressibility (1/GPa) = 0.02291064
#
# Stress axis : x y z
#
# Youngs Moduli (GPa) = 50.52981 67.37431 65.19731
#
# Poissons Ratio (x) = 0.39457 0.25626
# Poissons Ratio (y) = 0.29592 0.24405
# Poissons Ratio (z) = 0.19861 0.25220
#
# Static dielectric constant tensor:
#      x y z
#    x 1.750600 0.000000 -0.104520 
#    y 0.000000 1.735750 0.000000 
#    z -0.104520 0.000000 1.730030 
# 
# From -- ./inp_files/42723.got.cif
#   From: 2010.05.17/outbox.cif.g08.bks.cpg/sg15_22_cif.got.tgz:42723.got - 2010.06.03 18:47:42.
