data_PCOD9270572
_publ_section_title
;
Structure prediction by ZEFSAII (Michael W. Deem and Ramdas Pophale) SiO2 
 PCOD9270572
Probable space group: C 2/C
;
_chemical_formula_sum "Si O2"
_cell_formula_units_Z 60
_cell_length_a 23.935358
_cell_length_b 14.430425
_cell_length_c 14.924888
_cell_angle_alpha 90.000000
_cell_angle_beta 146.044128
_cell_angle_gamma 90.000000
_cell_volume 2879.356742
_symmetry_space_group_name_H-M "C 2/C"
_symmetry_group_IT_number 15
_symmetry_cell_setting 'monoclinic'
loop_
_space_group_symop_operation_xyz
x,y,z
-x,y,1/2-z
-x,-y,-z
x,-y,1/2+z
1/2+x,1/2+y,z
1/2-x,1/2+y,1/2-z
1/2-x,1/2-y,-z
1/2+x,1/2-y,1/2+z
loop_
_atom_site_type_symbol
_atom_site_label
_atom_site_fract_x
_atom_site_fract_y
_atom_site_fract_z
Si Si1 0.182720 0.177738 0.989960
Si Si2 0.768076 0.088403 0.260099
Si Si3 0.077961 0.323894 0.955350
Si Si4 0.500000 0.155818 0.750000
Si Si5 0.608667 0.279969 0.220567
Si Si6 0.298663 0.379647 0.313772
Si Si7 0.961743 0.523192 0.547983
Si Si8 0.789044 0.748330 0.451031
O O1 0.181469 0.120173 0.079662
O O2 0.108770 0.265267 0.909524
O O3 0.299134 0.207918 0.140827
O O4 0.139431 0.143483 0.837527
O O5 0.770559 0.171698 0.190230
O O6 0.811987 0.985847 0.302608
O O7 0.649762 0.064757 0.112283
O O8 0.187896 0.344593 0.140250
O O9 0.036307 0.427077 0.894963
O O10 0.999427 0.264584 0.908839
O O11 0.520489 0.094530 0.688433
O O12 0.402078 0.213490 0.602101
O O13 0.624744 0.318973 0.142836
O O14 0.296749 0.349352 0.414599
O O15 0.000000 0.500000 0.500000
O O16 0.750000 0.750000 0.500000
#
# Coordination Sequence:
#
# PCOD9270572 Si02
#       8
#     8   8   8   4   8   8   8   8
#     4  10  20  36  59  87 125 158 195 249 308 378
#     4  10  21  42  60  92 126 161 219 254 311 391
#     4  10  20  36  63  89 124 154 199 245 330 365
#     4  10  26  40  64 100 126 160 226 256 320 400
#     4  10  20  35  60  90 121 158 195 256 316 367
#     4  10  23  41  64  91 123 166 209 263 313 377
#     4  10  22  36  60  95 124 156 197 270 321 369
#     4  11  24  44  66  90 130 176 211 267 324 383
#
# _framework density 20.837987999999999
#
# number of rings (size 3 to 8) (size 9 to 14) (size 15 to 20)
#    0.000    1.867    2.667    1.200    7.467    1.067 
#    7.200    0.667    2.933    0.000    0.000    0.000 
#    0.000    0.000    0.000    0.000    0.000    0.000 
#
# Total GULP energy -167062.671107 kJ/mol
# GULP energy per Si atom -5568.755704 kJ/mol
# Density = 2.079056 g / cm^3
# Si number density = 20.837988 Si / 1000 Ang^3
#
#
#
# Elastic Constant Matrix: (Units=GPa)
#
#
# Indices 1 2 3 4 5 6 
#
# 1 103.4260 24.6333 13.2410 0.0000 -9.7906 0.0000
# 2 24.6333 63.8136 10.2938 0.0000 -2.0520 0.0000
# 3 13.2410 10.2938 30.6953 0.0000 -9.5775 0.0000
# 4 0.0000 0.0000 0.0000 16.1367 0.0000 -3.3203
# 5 -9.7906 -2.0520 -9.5775 0.0000 38.0609 0.0000
# 6 0.0000 0.0000 0.0000 -3.3203 0.0000 17.9797
#
#
#
# Elastic Compliance Matrix: (Units=1/GPa)
#
#
# Indices 1 2 3 4 5 6 
#
# 1 0.011122 -0.003757 -0.002939 0.000000 0.001919 0.000000
# 2 -0.003757 0.017847 -0.004737 0.000000 -0.001196 0.000000
# 3 -0.002939 -0.004737 0.038111 0.000000 0.008579 0.000000
# 4 0.000000 0.000000 0.000000 0.064418 0.000000 0.011896
# 5 0.001919 -0.001196 0.008579 0.000000 0.028862 0.000000
# 6 0.000000 0.000000 0.000000 0.011896 0.000000 0.057815
#
#
# Mechanical properties :
#
#
# Convention : Reuss Voigt Hill
#
# Bulk Modulus (GPa) = 22.61802 32.69679 27.65740
# Shear Modulus (GPa) = 19.54810 24.41990 21.98400
#
# Velocity S-wave (km/s) = 3.06616 3.42701 3.25159
# Velocity P-wave (km/s) = 4.83869 5.60216 5.23436
#
# Compressibility (1/GPa) = 0.04421253
#
# Stress axis : x y z
#
# Youngs Moduli (GPa) = 89.91573 56.03244 26.23887
#
# Poissons Ratio (x) = 0.21054 0.07711
# Poissons Ratio (y) = 0.33785 0.12431
# Poissons Ratio (z) = 0.26424 0.26545
#
# Static dielectric constant tensor:
#      x y z
#    x 1.822290 0.000000 -0.057740 
#    y 0.000000 1.799950 0.000000 
#    z -0.057740 0.000000 1.776210 
# 
# From -- ./inp_files/168663.got.cif
#   From: 2010.05.17/outbox.cif.g08.bks.cpg/sg15_85_cif.got.tgz:168663.got - 2010.06.03 18:47:42.
