data_PCOD9270120
_publ_section_title
;
Structure prediction by ZEFSAII (Michael W. Deem and Ramdas Pophale) SiO2 
 PCOD9270120
Probable space group: C 2/C
;
_chemical_formula_sum "Si O2"
_cell_formula_units_Z 64
_cell_length_a 12.769333
_cell_length_b 19.537252
_cell_length_c 12.332569
_cell_angle_alpha 90.000000
_cell_angle_beta 97.325961
_cell_angle_gamma 90.000000
_cell_volume 3051.584838
_symmetry_space_group_name_H-M "C 2/C"
_symmetry_group_IT_number 15
_symmetry_cell_setting 'monoclinic'
loop_
_space_group_symop_operation_xyz
x,y,z
-x,y,1/2-z
-x,-y,-z
x,-y,1/2+z
1/2+x,1/2+y,z
1/2-x,1/2+y,1/2-z
1/2-x,1/2-y,-z
1/2+x,1/2-y,1/2+z
loop_
_atom_site_type_symbol
_atom_site_label
_atom_site_fract_x
_atom_site_fract_y
_atom_site_fract_z
Si Si1 0.106163 0.233201 0.559235
Si Si2 0.146017 0.958663 0.481905
Si Si3 0.825513 0.796909 0.661695
Si Si4 0.262990 0.095595 0.201848
Si Si5 0.740640 0.955215 0.210356
Si Si6 0.921950 0.080554 0.888218
Si Si7 0.199879 0.695443 0.652658
Si Si8 0.114112 0.713505 0.397760
O O1 0.096853 0.219052 0.428172
O O2 0.211073 0.275229 0.599277
O O3 0.116712 0.157347 0.607624
O O4 0.007756 0.268417 0.605073
O O5 0.183840 0.915913 0.590439
O O6 0.242740 0.966702 0.414072
O O7 0.047915 0.922349 0.410017
O O8 0.110756 0.033637 0.514469
O O9 0.805477 0.872192 0.708597
O O10 0.847581 0.749691 0.769034
O O11 0.349802 0.149839 0.171901
O O12 0.309897 0.021758 0.241187
O O13 0.856540 0.952395 0.281799
O O14 0.693584 0.879046 0.207195
O O15 0.149397 0.698047 0.526561
O O16 0.319002 0.722520 0.641986
#
# Coordination Sequence:
#
# PCOD9270120 Si02
#       8
#     8   8   8   8   8   8   8   8
#     4  11  22  39  61  86 125 156 208 260 310 369
#     4  10  20  35  55  86 128 154 204 246 312 385
#     4  10  23  40  58  91 118 163 207 258 316 361
#     4  10  22  38  60  89 125 165 203 254 313 372
#     4  11  19  36  60  84 118 166 204 250 309 376
#     4  10  21  33  54  90 118 160 195 255 315 371
#     4  10  20  38  60  89 119 158 211 248 308 373
#     4  10  22  38  61  92 123 162 205 257 310 367
#
# _framework density 20.972708000000001
#
# number of rings (size 3 to 8) (size 9 to 14) (size 15 to 20)
#    0.000    1.750    2.500    1.875    3.500    2.500 
#    0.000    1.250    0.000    4.500    0.000    0.000 
#    0.000    0.000    0.000    0.000    0.000    0.000 
#
# Total GULP energy -178509.981749 kJ/mol
# GULP energy per Si atom -5578.436930 kJ/mol
# Density = 2.092497 g / cm^3
# Si number density = 20.972708 Si / 1000 Ang^3
#
#
#
# Elastic Constant Matrix: (Units=GPa)
#
#
# Indices 1 2 3 4 5 6 
#
# 1 35.7088 9.4771 -4.5455 0.0000 -8.9133 0.0000
# 2 9.4771 107.4141 17.9351 0.0000 -4.5879 0.0000
# 3 -4.5455 17.9351 84.7627 0.0000 -9.2030 0.0000
# 4 0.0000 0.0000 0.0000 36.2601 0.0000 2.0983
# 5 -8.9133 -4.5879 -9.2030 0.0000 22.8922 0.0000
# 6 0.0000 0.0000 0.0000 2.0983 0.0000 14.7322
#
#
#
# Elastic Compliance Matrix: (Units=1/GPa)
#
#
# Indices 1 2 3 4 5 6 
#
# 1 0.032696 -0.002945 0.003863 0.000000 0.013693 0.000000
# 2 -0.002945 0.009946 -0.002269 0.000000 -0.000066 0.000000
# 3 0.003863 -0.002269 0.013174 0.000000 0.006345 0.000000
# 4 0.000000 0.000000 0.000000 0.027808 0.000000 -0.003961
# 5 0.013693 -0.000066 0.006345 0.000000 0.051552 0.000000
# 6 0.000000 0.000000 0.000000 -0.003961 0.000000 0.068443
#
#
# Mechanical properties :
#
#
# Convention : Reuss Voigt Hill
#
# Bulk Modulus (GPa) = 18.82783 30.40210 24.61497
# Shear Modulus (GPa) = 22.31898 28.44483 25.38191
#
# Velocity S-wave (km/s) = 3.26573 3.68676 3.48262
# Velocity P-wave (km/s) = 4.81838 5.71406 5.28523
#
# Compressibility (1/GPa) = 0.05311286
#
# Stress axis : x y z
#
# Youngs Moduli (GPa) = 30.58520 100.54570 75.90727
#
# Poissons Ratio (x) = 0.29610 -0.29324
# Poissons Ratio (y) = 0.09007 0.17227
# Poissons Ratio (z) = -0.11816 0.22819
#
# Static dielectric constant tensor:
#      x y z
#    x 1.763590 0.000000 0.007160 
#    y 0.000000 1.780400 0.000000 
#    z 0.007160 0.000000 1.795260 
# 
# From -- ./inp_files/98789.got.cif
#   From: 2010.05.17/outbox.cif.g08.bks.cpg/sg15_50_cif.got.tgz:98789.got - 2010.06.03 18:47:42.
