data_PCOD9270449
_publ_section_title
;
Structure prediction by ZEFSAII (Michael W. Deem and Ramdas Pophale) SiO2 
 PCOD9270449
Probable space group: C 2/C
;
_chemical_formula_sum "Si O2"
_cell_formula_units_Z 56
_cell_length_a 16.544519
_cell_length_b 11.618668
_cell_length_c 17.898481
_cell_angle_alpha 90.000000
_cell_angle_beta 52.365103
_cell_angle_gamma 90.000000
_cell_volume 2724.625453
_symmetry_space_group_name_H-M "C 2/C"
_symmetry_group_IT_number 15
_symmetry_cell_setting 'monoclinic'
loop_
_space_group_symop_operation_xyz
x,y,z
-x,y,1/2-z
-x,-y,-z
x,-y,1/2+z
1/2+x,1/2+y,z
1/2-x,1/2+y,1/2-z
1/2-x,1/2-y,-z
1/2+x,1/2-y,1/2+z
loop_
_atom_site_type_symbol
_atom_site_label
_atom_site_fract_x
_atom_site_fract_y
_atom_site_fract_z
Si Si1 0.567745 0.911639 0.917997
Si Si2 0.563153 0.265650 0.926526
Si Si3 0.900453 0.327636 0.757437
Si Si4 0.752581 0.841821 0.249565
Si Si5 0.792665 0.031240 0.107915
Si Si6 0.379960 0.657613 0.445312
Si Si7 0.250269 0.670510 0.387241
O O1 0.564739 0.908823 0.831089
O O2 0.681967 0.924102 0.885324
O O3 0.519242 0.788611 0.970582
O O4 0.500000 0.000000 0.000000
O O5 0.645387 0.171128 0.853336
O O6 0.625902 0.367910 0.928126
O O7 0.497754 0.320260 0.896131
O O8 0.839089 0.220819 0.752372
O O9 0.814872 0.404896 0.847784
O O10 0.000000 0.297085 0.750000
O O11 0.733090 0.760754 0.188050
O O12 0.783113 0.960335 0.191594
O O13 0.832482 0.944425 0.022271
O O14 0.349694 0.637720 0.376928
O O15 0.324201 0.772826 0.508224
#
# Coordination Sequence:
#
# PCOD9270449 Si02
#       7
#     8   8   8   8   8   8   8
#     4  10  20  35  59  82 119 155 195 243 302 352
#     4  10  20  35  60  85 113 157 201 240 296 362
#     4  10  22  38  59  86 118 156 204 248 298 376
#     4   9  19  38  57  78 119 154 191 248 308 351
#     4  10  20  37  61  82 116 159 199 245 304 360
#     4   9  17  31  54  84 113 141 196 243 293 348
#     4   8  17  32  50  80 114 144 182 248 291 343
#
# _framework density 20.553284999999999
#
# number of rings (size 3 to 8) (size 9 to 14) (size 15 to 20)
#    0.000    2.571    0.000    2.143    2.000    0.571 
#    5.143    2.857   25.143    0.000    0.000    0.000 
#    0.000    0.000    0.000    0.000    0.000    0.000 
#
# Total GULP energy -156011.260948 kJ/mol
# GULP energy per Si atom -5571.830748 kJ/mol
# Density = 2.050650 g / cm^3
# Si number density = 20.553285 Si / 1000 Ang^3
#
#
#
# Elastic Constant Matrix: (Units=GPa)
#
#
# Indices 1 2 3 4 5 6 
#
# 1 154.7263 24.2234 33.8338 0.0000 3.0672 0.0000
# 2 24.2234 53.9152 3.0089 0.0000 -3.1922 0.0000
# 3 33.8338 3.0089 39.9597 0.0000 0.8595 0.0000
# 4 0.0000 0.0000 0.0000 27.1575 0.0000 -4.3680
# 5 3.0672 -3.1922 0.8595 0.0000 25.3889 0.0000
# 6 0.0000 0.0000 0.0000 -4.3680 0.0000 6.0426
#
#
#
# Elastic Compliance Matrix: (Units=1/GPa)
#
#
# Indices 1 2 3 4 5 6 
#
# 1 0.008562 -0.003532 -0.006957 0.000000 -0.001243 0.000000
# 2 -0.003532 0.020229 0.001405 0.000000 0.002923 0.000000
# 3 -0.006957 0.001405 0.030810 0.000000 -0.000026 0.000000
# 4 0.000000 0.000000 0.000000 0.041667 0.000000 0.030120
# 5 -0.001243 0.002923 -0.000026 0.000000 0.039906 0.000000
# 6 0.000000 0.000000 0.000000 0.030120 0.000000 0.187265
#
#
# Mechanical properties :
#
#
# Convention : Reuss Voigt Hill
#
# Bulk Modulus (GPa) = 24.13540 41.19261 32.66400
# Shear Modulus (GPa) = 13.87277 24.22012 19.04645
#
# Velocity S-wave (km/s) = 2.60083 3.43652 3.04745
# Velocity P-wave (km/s) = 4.55932 5.98595 5.32067
#
# Compressibility (1/GPa) = 0.04143292
#
# Stress axis : x y z
#
# Youngs Moduli (GPa) = 116.79754 49.43339 32.45685
#
# Poissons Ratio (x) = 0.17460 0.22579
# Poissons Ratio (y) = 0.41254 -0.04559
# Poissons Ratio (z) = 0.81251 -0.06943
#
# Static dielectric constant tensor:
#      x y z
#    x 1.761440 0.000000 -0.011090 
#    y 0.000000 1.819230 0.000000 
#    z -0.011090 0.000000 1.753050 
# 
# From -- ./inp_files/204387.got.cif
#   From: 2010.05.17/outbox.cif.g08.bks.cpg/sg15_103_cif.got.tgz:204387.got - 2010.06.03 18:47:42.
