data_PCOD9270068
_publ_section_title
;
Structure prediction by ZEFSAII (Michael W. Deem and Ramdas Pophale) SiO2 
 PCOD9270068
Probable space group: C 2/C
;
_chemical_formula_sum "Si O2"
_cell_formula_units_Z 36
_cell_length_a 10.014771
_cell_length_b 9.756219
_cell_length_c 21.870632
_cell_angle_alpha 90.000000
_cell_angle_beta 70.034209
_cell_angle_gamma 90.000000
_cell_volume 2008.463774
_symmetry_space_group_name_H-M "C 2/C"
_symmetry_group_IT_number 15
_symmetry_cell_setting 'monoclinic'
loop_
_space_group_symop_operation_xyz
x,y,z
-x,y,1/2-z
-x,-y,-z
x,-y,1/2+z
1/2+x,1/2+y,z
1/2-x,1/2+y,1/2-z
1/2-x,1/2-y,-z
1/2+x,1/2-y,1/2+z
loop_
_atom_site_type_symbol
_atom_site_label
_atom_site_fract_x
_atom_site_fract_y
_atom_site_fract_z
Si Si1 0.492298 0.918494 0.369607
Si Si2 0.769479 0.358261 0.644235
Si Si3 0.000000 0.770434 0.750000
Si Si4 0.671005 0.566666 0.907953
Si Si5 0.071155 0.852019 0.559117
O O1 0.524550 0.826769 0.304714
O O2 0.334872 0.980457 0.384347
O O3 0.475617 0.805937 0.426059
O O4 0.611166 0.030329 0.362652
O O5 0.639899 0.357823 0.712700
O O6 0.831781 0.203737 0.632633
O O7 0.693459 0.376615 0.590212
O O8 0.561841 0.450015 0.905508
O O9 0.626028 0.612981 0.983280
#
# Coordination Sequence:
#
# PCOD9270068 Si02
#       5
#     8   8   4   8   8
#     4  10  20  35  55  75  99 135 174 209 249 298
#     4  10  20  35  55  75  99 135 174 209 249 298
#     4   8  20  36  50  72 104 132 168 218 256 288
#     4   9  19  35  53  77 108 134 161 204 254 303
#     4   9  19  35  53  77 108 134 161 204 254 303
#
# _framework density 17.924147999999999
#
# number of rings (size 3 to 8) (size 9 to 14) (size 15 to 20)
#    0.000    3.111    0.000    2.667    0.000   12.444 
#    0.000    4.444    0.000    0.000    0.000    0.000 
#    0.000    0.000    0.000    0.000    0.000    0.000 
#
# Total GULP energy -100346.288939 kJ/mol
# GULP energy per Si atom -5574.793830 kJ/mol
# Density = 1.788335 g / cm^3
# Si number density = 17.924148 Si / 1000 Ang^3
#
#
#
# Elastic Constant Matrix: (Units=GPa)
#
#
# Indices 1 2 3 4 5 6 
#
# 1 110.8945 81.1543 12.8193 0.0000 -32.0298 0.0000
# 2 81.1543 78.5481 3.1514 0.0000 -24.0591 0.0000
# 3 12.8193 3.1514 41.6895 0.0000 -18.2320 0.0000
# 4 0.0000 0.0000 0.0000 11.4785 0.0000 -16.3043
# 5 -32.0298 -24.0591 -18.2320 0.0000 18.8910 0.0000
# 6 0.0000 0.0000 0.0000 -16.3043 0.0000 50.5487
#
#
#
# Elastic Compliance Matrix: (Units=1/GPa)
#
#
# Indices 1 2 3 4 5 6 
#
# 1 0.044458 -0.036049 0.003360 0.000000 0.032711 0.000000
# 2 -0.036049 0.061290 0.023980 0.000000 0.040080 0.000000
# 3 0.003360 0.023980 0.064001 0.000000 0.098005 0.000000
# 4 0.000000 0.000000 0.000000 0.160782 0.000000 0.051860
# 5 0.032711 0.040080 0.098005 0.000000 0.254027 0.000000
# 6 0.000000 0.000000 0.000000 0.051860 0.000000 0.036510
#
#
# Mechanical properties :
#
#
# Convention : Reuss Voigt Hill
#
# Bulk Modulus (GPa) = 6.56467 47.26467 26.91467
# Shear Modulus (GPa) = 7.25410 25.11744 16.18577
#
# Velocity S-wave (km/s) = 2.01393 3.74748 3.00828
# Velocity P-wave (km/s) = 3.01302 6.71947 5.20719
#
# Compressibility (1/GPa) = 0.15233069
#
# Stress axis : x y z
#
# Youngs Moduli (GPa) = 22.49292 16.31576 15.62470
#
# Poissons Ratio (x) = 0.58817 -0.05249
# Poissons Ratio (y) = 0.81085 -0.37467
# Poissons Ratio (z) = -0.07557 -0.39125
#
# Static dielectric constant tensor:
#      x y z
#    x 1.598650 0.000000 -0.011290 
#    y 0.000000 1.602540 0.000000 
#    z -0.011290 0.000000 1.653480 
# 
# From -- ./inp_files/229538.got.cif
#   From: 2010.05.17/outbox.cif.g08.bks.cpg/sg15_115_cif.got.tgz:229538.got - 2010.06.03 18:47:42.
