data_PCOD9270281
_publ_section_title
;
Structure prediction by ZEFSAII (Michael W. Deem and Ramdas Pophale) SiO2 
 PCOD9270281
Probable space group: C 2/C
;
_chemical_formula_sum "Si O2"
_cell_formula_units_Z 48
_cell_length_a 12.168731
_cell_length_b 26.571158
_cell_length_c 8.836177
_cell_angle_alpha 90.000000
_cell_angle_beta 49.807645
_cell_angle_gamma 90.000000
_cell_volume 2182.461236
_symmetry_space_group_name_H-M "C 2/C"
_symmetry_group_IT_number 15
_symmetry_cell_setting 'monoclinic'
loop_
_space_group_symop_operation_xyz
x,y,z
-x,y,1/2-z
-x,-y,-z
x,-y,1/2+z
1/2+x,1/2+y,z
1/2-x,1/2+y,1/2-z
1/2-x,1/2-y,-z
1/2+x,1/2-y,1/2+z
loop_
_atom_site_type_symbol
_atom_site_label
_atom_site_fract_x
_atom_site_fract_y
_atom_site_fract_z
Si Si1 0.835906 0.055801 0.957981
Si Si2 0.901310 0.699496 0.137174
Si Si3 0.146601 0.843731 0.702804
Si Si4 0.819149 0.345004 0.022097
Si Si5 0.037989 0.188965 0.890161
Si Si6 0.157658 0.046288 0.186172
O O1 0.735979 0.102383 0.996263
O O2 0.000000 0.063959 0.750000
O O3 0.774022 0.004704 0.936618
O O4 0.842635 0.045814 0.131717
O O5 0.780557 0.691545 0.117977
O O6 0.830750 0.694145 0.368779
O O7 0.974305 0.753397 0.048184
O O8 0.024724 0.657219 0.039284
O O9 0.205464 0.897437 0.596897
O O10 0.000000 0.826094 0.750000
O O11 0.069528 0.849180 0.934661
O O12 0.703212 0.327337 0.248831
O O13 0.000000 0.188358 0.750000
O O14 0.000000 0.044649 0.250000
#
# Coordination Sequence:
#
# PCOD9270281 Si02
#       6
#     8   8   8   8   8   8
#     4  11  20  35  59  88 118 152 202 249 298 350
#     4  11  22  38  61  89 124 154 200 251 301 342
#     4  11  24  41  61  88 127 157 196 248 304 360
#     4  11  21  35  61  93 119 150 202 260 291 344
#     4  12  20  37  65  92 113 162 211 243 285 355
#     4  10  20  35  57  86 116 152 199 250 292 344
#
# _framework density 21.993517000000001
#
# number of rings (size 3 to 8) (size 9 to 14) (size 15 to 20)
#    0.000    1.000    5.000    5.000    0.000    2.000 
#    0.000    1.667    0.000    0.000    0.000    0.000 
#    0.000    0.000    0.000    0.000    0.000    0.000 
#
# Total GULP energy -133840.095907 kJ/mol
# GULP energy per Si atom -5576.670663 kJ/mol
# Density = 2.194346 g / cm^3
# Si number density = 21.993517 Si / 1000 Ang^3
#
#
#
# Elastic Constant Matrix: (Units=GPa)
#
#
# Indices 1 2 3 4 5 6 
#
# 1 123.8116 26.5052 10.5389 0.0000 10.7580 0.0000
# 2 26.5052 110.7404 9.8721 0.0000 11.6164 0.0000
# 3 10.5389 9.8721 14.2089 0.0000 -3.4380 0.0000
# 4 0.0000 0.0000 0.0000 11.1013 0.0000 10.1077
# 5 10.7580 11.6164 -3.4380 0.0000 31.0908 0.0000
# 6 0.0000 0.0000 0.0000 10.1077 0.0000 12.3600
#
#
#
# Elastic Compliance Matrix: (Units=1/GPa)
#
#
# Indices 1 2 3 4 5 6 
#
# 1 0.009225 -0.001234 -0.006829 0.000000 -0.003486 0.000000
# 2 -0.001234 0.010432 -0.007370 0.000000 -0.004286 0.000000
# 3 -0.006829 -0.007370 0.084051 0.000000 0.014411 0.000000
# 4 0.000000 0.000000 0.000000 0.352682 0.000000 -0.288416
# 5 -0.003486 -0.004286 0.014411 0.000000 0.036565 0.000000
# 6 0.000000 0.000000 0.000000 -0.288416 0.000000 0.316767
#
#
# Mechanical properties :
#
#
# Convention : Reuss Voigt Hill
#
# Bulk Modulus (GPa) = 13.72814 38.06594 25.89704
# Shear Modulus (GPa) = 5.78124 24.36674 15.07399
#
# Velocity S-wave (km/s) = 1.62306 3.33213 2.62082
# Velocity P-wave (km/s) = 3.12536 5.67005 4.57807
#
# Compressibility (1/GPa) = 0.07284306
#
# Stress axis : x y z
#
# Youngs Moduli (GPa) = 108.40042 95.85944 11.89755
#
# Poissons Ratio (x) = 0.11824 0.08125
# Poissons Ratio (y) = 0.13371 0.08769
# Poissons Ratio (z) = 0.74025 0.70649
#
# Static dielectric constant tensor:
#      x y z
#    x 1.877770 0.000000 0.077690 
#    y 0.000000 1.853860 0.000000 
#    z 0.077690 0.000000 1.944010 
# 
# From -- ./inp_files/33390.got.cif
#   From: 2010.05.17/outbox.cif.g08.bks.cpg/sg15_17_cif.got.tgz:33390.got - 2010.06.03 18:47:42.
