data_PCOD9270767
_publ_section_title
;
Structure prediction by ZEFSAII (Michael W. Deem and Ramdas Pophale) SiO2 
 PCOD9270767
Probable space group: C 2/C
;
_chemical_formula_sum "Si O2"
_cell_formula_units_Z 64
_cell_length_a 18.743788
_cell_length_b 14.225639
_cell_length_c 25.116943
_cell_angle_alpha 90.000000
_cell_angle_beta 26.257140
_cell_angle_gamma 90.000000
_cell_volume 2962.862444
_symmetry_space_group_name_H-M "C 2/C"
_symmetry_group_IT_number 15
_symmetry_cell_setting 'monoclinic'
loop_
_space_group_symop_operation_xyz
x,y,z
-x,y,1/2-z
-x,-y,-z
x,-y,1/2+z
1/2+x,1/2+y,z
1/2-x,1/2+y,1/2-z
1/2-x,1/2-y,-z
1/2+x,1/2-y,1/2+z
loop_
_atom_site_type_symbol
_atom_site_label
_atom_site_fract_x
_atom_site_fract_y
_atom_site_fract_z
Si Si1 0.562272 0.771511 0.960291
Si Si2 0.347829 0.127993 0.389678
Si Si3 0.043328 0.750562 0.086333
Si Si4 0.259135 0.141491 0.693767
Si Si5 0.653831 0.154171 0.745554
Si Si6 0.734758 0.038155 0.381843
Si Si7 0.979901 0.169677 0.324610
Si Si8 0.174444 0.442380 0.044751
O O1 0.548798 0.779110 0.905444
O O2 0.680970 0.685017 0.894749
O O3 0.634534 0.868124 0.934662
O O4 0.379564 0.771596 0.102267
O O5 0.500000 0.126412 0.250000
O O6 0.208138 0.195910 0.462295
O O7 0.409595 0.168895 0.404811
O O8 0.281406 0.024068 0.444244
O O9 0.921762 0.824186 0.195262
O O10 0.289651 0.116954 0.734973
O O11 0.300857 0.053451 0.628697
O O12 0.561790 0.255187 0.808633
O O13 0.511132 0.087176 0.820853
O O14 0.699192 0.021363 0.467608
O O15 0.916648 0.073327 0.247865
O O16 0.799503 0.144032 0.462171
O O17 0.000000 0.207570 0.250000
#
# Coordination Sequence:
#
# PCOD9270767 Si02
#       8
#     8   8   8   8   8   8   8   8
#     4  10  20  37  60  88 117 148 195 250 291 346
#     4  11  24  41  58  88 120 157 198 234 298 357
#     4  10  23  40  63  83 119 156 196 244 294 354
#     4  11  20  36  62  90 117 147 191 254 298 346
#     4  10  22  35  55  88 118 155 199 235 299 349
#     4  10  20  35  64  93 112 146 202 254 299 332
#     4   9  20  38  59  85 118 153 201 249 286 346
#     4  11  21  38  60  87 119 157 198 242 294 353
#
# _framework density 21.600733000000002
#
# number of rings (size 3 to 8) (size 9 to 14) (size 15 to 20)
#    0.000    1.750    1.250    3.000    1.750    1.500 
#    2.250    0.625    0.000    2.250    0.000    0.000 
#    0.000    0.000    0.000    0.000    0.000    0.000 
#
# Total GULP energy -178590.582635 kJ/mol
# GULP energy per Si atom -5580.955707 kJ/mol
# Density = 2.155157 g / cm^3
# Si number density = 21.600733 Si / 1000 Ang^3
#
#
#
# Elastic Constant Matrix: (Units=GPa)
#
#
# Indices 1 2 3 4 5 6 
#
# 1 43.2365 8.3374 0.7877 0.0016 -8.0797 0.0011
# 2 8.3374 47.6476 14.6656 0.0011 9.8491 0.0020
# 3 0.7877 14.6656 82.4642 0.0019 -7.8035 0.0025
# 4 0.0016 0.0011 0.0019 17.3065 0.0008 4.4188
# 5 -8.0797 9.8491 -7.8035 0.0008 23.8284 -0.0013
# 6 0.0011 0.0020 0.0025 4.4188 -0.0013 10.4683
#
#
#
# Elastic Compliance Matrix: (Units=1/GPa)
#
#
# Indices 1 2 3 4 5 6 
#
# 1 0.027205 -0.008314 0.002494 -0.000003 0.013478 0.000001
# 2 -0.008314 0.027812 -0.006420 0.000002 -0.016417 -0.000006
# 3 0.002494 -0.006420 0.014010 -0.000002 0.008087 -0.000001
# 4 -0.000003 0.000002 -0.000002 0.064762 -0.000006 -0.027336
# 5 0.013478 -0.016417 0.008087 -0.000006 0.055971 0.000010
# 6 0.000001 -0.000006 -0.000001 -0.027336 0.000010 0.107065
#
#
# Mechanical properties :
#
#
# Convention : Reuss Voigt Hill
#
# Bulk Modulus (GPa) = 22.44849 24.54773 23.49811
# Shear Modulus (GPa) = 14.87416 20.29114 17.58265
#
# Velocity S-wave (km/s) = 2.62696 3.06824 2.85614
# Velocity P-wave (km/s) = 4.42902 4.89297 4.66676
#
# Compressibility (1/GPa) = 0.04454642
#
# Stress axis : x y z
#
# Youngs Moduli (GPa) = 36.75788 35.95593 71.37889
#
# Poissons Ratio (x) = 0.29894 -0.17803
# Poissons Ratio (y) = 0.30560 0.45827
# Poissons Ratio (z) = -0.09168 0.23085
#
# Static dielectric constant tensor:
#      x y z
#    x 1.800730 0.000000 -0.028090 
#    y 0.000000 1.768620 0.000000 
#    z -0.028090 0.000000 1.842750 
# 
# From -- ./inp_files/277625.got.cif
#   From: 2010.05.17/outbox.cif.g08.bks.cpg/sg15_139_cif.got.tgz:277625.got - 2010.06.03 18:47:42.
