data_PCOD9270073
_publ_section_title
;
Structure prediction by ZEFSAII (Michael W. Deem and Ramdas Pophale) SiO2 
 PCOD9270073
Probable space group: C 2/C
;
_chemical_formula_sum "Si O2"
_cell_formula_units_Z 32
_cell_length_a 23.965757
_cell_length_b 9.558014
_cell_length_c 5.242285
_cell_angle_alpha 90.000000
_cell_angle_beta 78.596714
_cell_angle_gamma 90.000000
_cell_volume 1177.119762
_symmetry_space_group_name_H-M "C 2/C"
_symmetry_group_IT_number 15
_symmetry_cell_setting 'monoclinic'
loop_
_space_group_symop_operation_xyz
x,y,z
-x,y,1/2-z
-x,-y,-z
x,-y,1/2+z
1/2+x,1/2+y,z
1/2-x,1/2+y,1/2-z
1/2-x,1/2-y,-z
1/2+x,1/2-y,1/2+z
loop_
_atom_site_type_symbol
_atom_site_label
_atom_site_fract_x
_atom_site_fract_y
_atom_site_fract_z
Si Si1 0.724873 0.907632 0.044498
Si Si2 0.944601 0.819554 0.464768
Si Si3 0.412001 0.082994 0.848244
Si Si4 0.129761 0.052396 0.799917
O O1 0.737989 0.012670 0.797713
O O2 0.655835 0.105147 0.600169
O O3 0.750000 0.750000 0.000000
O O4 0.939831 0.722517 0.713231
O O5 0.888118 0.806776 0.327963
O O6 0.000000 0.798386 0.250000
O O7 0.930198 0.974579 0.580085
O O8 0.428265 0.971926 0.611165
O O9 0.157150 0.956410 0.552545
#
# Coordination Sequence:
#
# PCOD9270073 Si02
#       4
#     8   8   8   8
#     4  10  21  43  67  93 126 160 200 252 311 367
#     4  10  20  35  55  78 112 150 195 234 282 340
#     4  10  24  40  56  81 119 155 184 235 292 338
#     4   8  19  32  50  74 104 140 182 244 290 308
#
# _framework density 27.184998
#
# number of rings (size 3 to 8) (size 9 to 14) (size 15 to 20)
#    1.500    1.000    0.000    1.500    3.500    1.000 
#    4.500    0.000    0.000    0.000    0.000    0.000 
#    0.000    0.000    0.000    0.000    0.000    0.000 
#
# Total GULP energy -89385.106152 kJ/mol
# GULP energy per Si atom -5586.569135 kJ/mol
# Density = 2.712312 g / cm^3
# Si number density = 27.184998 Si / 1000 Ang^3
#
#
#
# Elastic Constant Matrix: (Units=GPa)
#
#
# Indices 1 2 3 4 5 6 
#
# 1 88.7708 25.8888 38.3531 0.0000 -11.5385 0.0000
# 2 25.8888 145.6982 51.0694 0.0000 -1.9974 0.0000
# 3 38.3531 51.0694 216.4329 0.0000 -7.6287 0.0000
# 4 0.0000 0.0000 0.0000 51.7403 0.0000 -9.5915
# 5 -11.5385 -1.9974 -7.6287 0.0000 55.3361 0.0000
# 6 0.0000 0.0000 0.0000 -9.5915 0.0000 24.8596
#
#
#
# Elastic Compliance Matrix: (Units=1/GPa)
#
#
# Indices 1 2 3 4 5 6 
#
# 1 0.012824 -0.001612 -0.001809 0.000000 0.002367 0.000000
# 2 -0.001612 0.007685 -0.001537 0.000000 -0.000271 0.000000
# 3 -0.001809 -0.001537 0.005314 0.000000 0.000300 0.000000
# 4 0.000000 0.000000 0.000000 0.020816 0.000000 0.008031
# 5 0.002367 -0.000271 0.000300 0.000000 0.018596 0.000000
# 6 0.000000 0.000000 0.000000 0.008031 0.000000 0.043325
#
#
# Mechanical properties :
#
#
# Convention : Reuss Voigt Hill
#
# Bulk Modulus (GPa) = 62.86491 75.72492 69.29492
# Shear Modulus (GPa) = 40.39444 48.75990 44.57717
#
# Velocity S-wave (km/s) = 3.85893 4.23972 4.05380
# Velocity P-wave (km/s) = 6.55974 7.20298 6.88887
#
# Compressibility (1/GPa) = 0.01590713
#
# Stress axis : x y z
#
# Youngs Moduli (GPa) = 77.97755 130.12215 188.17623
#
# Poissons Ratio (x) = 0.20980 0.34035
# Poissons Ratio (y) = 0.12572 0.28926
# Poissons Ratio (z) = 0.14104 0.20002
#
# Static dielectric constant tensor:
#      x y z
#    x 2.290940 0.000000 0.123430 
#    y 0.000000 2.179510 0.000000 
#    z 0.123430 0.000000 2.255780 
# 
# From -- ./inp_files/14822.got.cif
#   From: 2010.05.17/outbox.cif.g08.bks.cpg/sg15_8_cif.got.tgz:14822.got - 2010.06.03 18:47:42.
