data_PCOD9270437
_publ_section_title
;
Structure prediction by ZEFSAII (Michael W. Deem and Ramdas Pophale) SiO2 
 PCOD9270437
Probable space group: C 2/C
;
_chemical_formula_sum "Si O2"
_cell_formula_units_Z 52
_cell_length_a 8.537447
_cell_length_b 20.252085
_cell_length_c 22.101738
_cell_angle_alpha 90.000000
_cell_angle_beta 137.623562
_cell_angle_gamma 90.000000
_cell_volume 2575.628468
_symmetry_space_group_name_H-M "C 2/C"
_symmetry_group_IT_number 15
_symmetry_cell_setting 'monoclinic'
loop_
_space_group_symop_operation_xyz
x,y,z
-x,y,1/2-z
-x,-y,-z
x,-y,1/2+z
1/2+x,1/2+y,z
1/2-x,1/2+y,1/2-z
1/2-x,1/2-y,-z
1/2+x,1/2-y,1/2+z
loop_
_atom_site_type_symbol
_atom_site_label
_atom_site_fract_x
_atom_site_fract_y
_atom_site_fract_z
Si Si1 0.000000 0.729272 0.250000
Si Si2 0.002673 0.549230 0.075514
Si Si3 0.000000 0.093174 0.250000
Si Si4 0.778280 0.977103 0.898891
Si Si5 0.701781 0.354715 0.267927
Si Si6 0.063120 0.605527 0.969524
Si Si7 0.418190 0.364662 0.856546
Si Si8 0.500000 0.084254 0.750000
O O1 0.089039 0.782581 0.226136
O O2 0.225738 0.685175 0.326936
O O3 0.873966 0.568386 0.100198
O O4 0.279094 0.551122 0.164916
O O5 0.954592 0.598383 0.006016
O O6 0.922187 0.473518 0.041094
O O7 0.078703 0.136075 0.215086
O O8 0.842594 0.937140 0.857430
O O9 0.630176 0.039087 0.835798
O O10 0.000000 0.000000 0.000000
O O11 0.500000 0.391943 0.250000
O O12 0.911523 0.357464 0.376315
O O13 0.804369 0.379334 0.234061
O O14 0.315494 0.639350 0.045500
#
# Coordination Sequence:
#
# PCOD9270437 Si02
#       8
#     4   8   4   8   8   8   8   4
#     4  10  25  43  66  88 124 178 228 268 300 386
#     4  10  20  35  58  95 129 161 197 254 330 395
#     4  10  22  34  64  92 124 172 200 260 320 396
#     4  12  23  37  62 101 133 161 203 266 334 409
#     4  10  25  42  63  94 124 177 222 270 311 382
#     4  10  21  38  61  92 129 167 205 268 319 390
#     4  11  22  42  63  94 131 167 216 262 327 382
#     4  12  23  41  66  96 134 172 208 274 340 372
#
# _framework density 20.189247999999999
#
# number of rings (size 3 to 8) (size 9 to 14) (size 15 to 20)
#    0.462    0.923    3.077    2.308    3.231    1.231 
#    0.000    0.000    0.000   12.000    0.000    0.000 
#    0.000    0.000    0.000    0.000    0.000    0.000 
#
# Total GULP energy -144825.967725 kJ/mol
# GULP energy per Si atom -5570.229528 kJ/mol
# Density = 2.014330 g / cm^3
# Si number density = 20.189248 Si / 1000 Ang^3
#
#
#
# Elastic Constant Matrix: (Units=GPa)
#
#
# Indices 1 2 3 4 5 6 
#
# 1 138.1634 29.7345 32.7230 -0.0001 0.0130 0.0000
# 2 29.7345 47.3158 12.5669 0.0000 5.8722 0.0000
# 3 32.7230 12.5669 69.7563 0.0002 1.1217 0.0003
# 4 -0.0001 0.0000 0.0002 5.8533 0.0001 8.9975
# 5 0.0130 5.8722 1.1217 0.0001 29.2986 0.0001
# 6 0.0000 0.0000 0.0003 8.9975 0.0001 27.9658
#
#
#
# Elastic Compliance Matrix: (Units=1/GPa)
#
#
# Indices 1 2 3 4 5 6 
#
# 1 0.009110 -0.004962 -0.003398 0.000000 0.001121 0.000000
# 2 -0.004962 0.025453 -0.002177 0.000000 -0.005016 0.000000
# 3 -0.003398 -0.002177 0.016325 -0.000001 -0.000187 0.000000
# 4 0.000000 0.000000 -0.000001 0.338002 -0.000001 -0.108746
# 5 0.001121 -0.005016 -0.000187 -0.000001 0.035143 0.000000
# 6 0.000000 0.000000 0.000000 -0.108746 0.000000 0.070745
#
#
# Mechanical properties :
#
#
# Convention : Reuss Voigt Hill
#
# Bulk Modulus (GPa) = 33.54036 45.03158 39.28597
# Shear Modulus (GPa) = 9.50948 24.63764 17.07356
#
# Velocity S-wave (km/s) = 2.17265 3.49712 2.91121
# Velocity P-wave (km/s) = 4.78988 6.21768 5.54989
#
# Compressibility (1/GPa) = 0.02981482
#
# Stress axis : x y z
#
# Youngs Moduli (GPa) = 109.76616 39.28739 61.25649
#
# Poissons Ratio (x) = 0.19493 0.20814
# Poissons Ratio (y) = 0.54463 0.13337
# Poissons Ratio (z) = 0.37296 0.08554
#
# Static dielectric constant tensor:
#      x y z
#    x 1.754850 0.000000 0.015610 
#    y 0.000000 1.724150 0.000000 
#    z 0.015610 0.000000 1.720790 
# 
# From -- ./inp_files/266185.got.cif
#   From: 2010.05.17/outbox.cif.g08.bks.cpg/sg15_134_cif.got.tgz:266185.got - 2010.06.03 18:47:42.
