data_PCOD9270363
_publ_section_title
;
Structure prediction by ZEFSAII (Michael W. Deem and Ramdas Pophale) SiO2 
 PCOD9270363
Probable space group: C 2/C
;
_chemical_formula_sum "Si O2"
_cell_formula_units_Z 36
_cell_length_a 24.052184
_cell_length_b 13.411649
_cell_length_c 5.411033
_cell_angle_alpha 90.000000
_cell_angle_beta 59.799581
_cell_angle_gamma 90.000000
_cell_volume 1508.574915
_symmetry_space_group_name_H-M "C 2/C"
_symmetry_group_IT_number 15
_symmetry_cell_setting 'monoclinic'
loop_
_space_group_symop_operation_xyz
x,y,z
-x,y,1/2-z
-x,-y,-z
x,-y,1/2+z
1/2+x,1/2+y,z
1/2-x,1/2+y,1/2-z
1/2-x,1/2-y,-z
1/2+x,1/2-y,1/2+z
loop_
_atom_site_type_symbol
_atom_site_label
_atom_site_fract_x
_atom_site_fract_y
_atom_site_fract_z
Si Si1 0.595599 0.212307 0.341856
Si Si2 0.000000 0.603091 0.250000
Si Si3 0.182172 0.877610 0.254694
Si Si4 0.731576 0.594276 0.144486
Si Si5 0.628607 0.894796 0.280072
O O1 0.525514 0.177176 0.408171
O O2 0.614407 0.160515 0.555876
O O3 0.614577 0.326936 0.340205
O O4 0.634693 0.173414 0.011859
O O5 0.937403 0.546982 0.497415
O O6 0.228008 0.854669 0.918444
O O7 0.186150 0.997157 0.270281
O O8 0.206735 0.842337 0.468018
O O9 0.802871 0.555462 0.917253
#
# Coordination Sequence:
#
# PCOD9270363 Si02
#       5
#     8   4   8   8   8
#     4  10  20  35  58  85 115 147 191 235 277 336
#     4   8  22  36  54  88 110 152 192 234 270 332
#     4  10  21  36  55  83 121 149 182 230 291 345
#     4  10  21  36  55  83 121 149 182 230 291 345
#     4  10  20  35  58  85 115 147 191 235 277 336
#
# _framework density 23.863579999999999
#
# number of rings (size 3 to 8) (size 9 to 14) (size 15 to 20)
#    1.333    0.889    0.000    3.333    0.000    5.333 
#    0.000    0.000    0.000   10.667    0.000    0.000 
#    0.000    0.000    0.000    0.000    0.000    0.000 
#
# Total GULP energy -100300.575918 kJ/mol
# GULP energy per Si atom -5572.254218 kJ/mol
# Density = 2.380927 g / cm^3
# Si number density = 23.863580 Si / 1000 Ang^3
#
#
#
# Elastic Constant Matrix: (Units=GPa)
#
#
# Indices 1 2 3 4 5 6 
#
# 1 100.5555 42.3958 52.9930 0.0000 20.1705 0.0000
# 2 42.3958 74.8871 19.2061 0.0000 2.1290 0.0000
# 3 52.9930 19.2061 136.4904 0.0000 56.1122 0.0000
# 4 0.0000 0.0000 0.0000 26.8811 0.0000 3.4525
# 5 20.1705 2.1290 56.1122 0.0000 59.9875 0.0000
# 6 0.0000 0.0000 0.0000 3.4525 0.0000 3.1939
#
#
#
# Elastic Compliance Matrix: (Units=1/GPa)
#
#
# Indices 1 2 3 4 5 6 
#
# 1 0.015865 -0.007720 -0.004863 0.000000 -0.000512 0.000000
# 2 -0.007720 0.017785 -0.000508 0.000000 0.002440 0.000000
# 3 -0.004863 -0.000508 0.013984 0.000000 -0.011427 0.000000
# 4 0.000000 0.000000 0.000000 0.043198 0.000000 -0.046696
# 5 -0.000512 0.002440 -0.011427 0.000000 0.027445 0.000000
# 6 0.000000 0.000000 0.000000 -0.046696 0.000000 0.363573
#
#
# Mechanical properties :
#
#
# Convention : Reuss Voigt Hill
#
# Bulk Modulus (GPa) = 46.61740 60.12477 53.37109
# Shear Modulus (GPa) = 9.70528 31.16838 20.43683
#
# Velocity S-wave (km/s) = 2.01886 3.61793 2.92961
# Velocity P-wave (km/s) = 5.00118 6.53471 5.81869
#
# Compressibility (1/GPa) = 0.02145122
#
# Stress axis : x y z
#
# Youngs Moduli (GPa) = 63.03157 56.22732 71.50993
#
# Poissons Ratio (x) = 0.43407 0.34775
# Poissons Ratio (y) = 0.48660 0.03636
# Poissons Ratio (z) = 0.30652 0.02859
#
# Static dielectric constant tensor:
#      x y z
#    x 1.970520 0.000000 0.030760 
#    y 0.000000 1.960120 0.000000 
#    z 0.030760 0.000000 1.968580 
# 
# From -- ./inp_files/15184.got.cif
#   From: 2010.05.17/outbox.cif.g08.bks.cpg/sg15_8_cif.got.tgz:15184.got - 2010.06.03 18:47:42.
