data_PCOD9270970
_publ_section_title
;
Structure prediction by ZEFSAII (Michael W. Deem and Ramdas Pophale) SiO2 
 PCOD9270970
Probable space group: C 2/C
;
_chemical_formula_sum "Si O2"
_cell_formula_units_Z 56
_cell_length_a 25.092550
_cell_length_b 22.167269
_cell_length_c 18.630422
_cell_angle_alpha 90.000000
_cell_angle_beta 18.233223
_cell_angle_gamma 90.000000
_cell_volume 3242.391168
_symmetry_space_group_name_H-M "C 2/C"
_symmetry_group_IT_number 15
_symmetry_cell_setting 'monoclinic'
loop_
_space_group_symop_operation_xyz
x,y,z
-x,y,1/2-z
-x,-y,-z
x,-y,1/2+z
1/2+x,1/2+y,z
1/2-x,1/2+y,1/2-z
1/2-x,1/2-y,-z
1/2+x,1/2-y,1/2+z
loop_
_atom_site_type_symbol
_atom_site_label
_atom_site_fract_x
_atom_site_fract_y
_atom_site_fract_z
Si Si1 0.830171 0.086809 0.433915
Si Si2 0.126132 0.272571 0.021202
Si Si3 0.469964 0.064426 0.496783
Si Si4 0.314970 0.908721 0.522212
Si Si5 0.173334 0.990858 0.823109
Si Si6 0.600430 0.173755 0.805634
Si Si7 0.168156 0.957574 0.994355
O O1 0.827460 0.072273 0.353776
O O2 0.682156 0.134158 0.637019
O O3 0.000000 0.114253 0.250000
O O4 0.807482 0.025528 0.506849
O O5 0.205948 0.337633 0.938322
O O6 0.000000 0.259739 0.250000
O O7 0.035428 0.285023 0.061407
O O8 0.258345 0.218751 0.845127
O O9 0.452123 0.122517 0.570579
O O10 0.648787 0.073125 0.226433
O O11 0.500000 0.000000 0.500000
O O12 0.293713 0.049924 0.680833
O O13 0.500000 0.921733 0.250000
O O14 0.288087 0.944867 0.629565
O O15 0.138238 0.963244 0.947049
O O16 0.000000 0.000000 0.000000
O O17 0.000000 0.933509 0.250000
#
# Coordination Sequence:
#
# PCOD9270970 Si02
#       7
#     8   8   8   8   8   8   8
#     4  11  20  32  54  78 113 155 191 222 278 336
#     4  11  23  34  50  77 112 155 197 226 270 342
#     4  10  20  37  58  76 111 149 194 237 294 344
#     4  11  22  36  53  79 117 156 190 234 281 339
#     4  11  21  33  53  84 114 149 192 243 289 338
#     4  12  22  37  52  79 114 160 192 235 278 339
#     4  10  20  36  56  81 106 150 197 239 289 345
#
# _framework density 17.271204999999998
#
# number of rings (size 3 to 8) (size 9 to 14) (size 15 to 20)
#    0.000    1.143    5.714    5.143    2.000    0.000 
#    0.000    0.000    0.000    0.000    0.000    4.000 
#    0.000    3.429    0.000    0.286    0.000    0.000 
#
# Total GULP energy -156063.145423 kJ/mol
# GULP energy per Si atom -5573.683765 kJ/mol
# Density = 1.723189 g / cm^3
# Si number density = 17.271205 Si / 1000 Ang^3
#
#
#
# Elastic Constant Matrix: (Units=GPa)
#
#
# Indices 1 2 3 4 5 6 
#
# 1 109.2848 36.9514 50.1943 0.0142 -10.3496 0.0093
# 2 36.9514 87.1127 36.2473 0.0232 4.1645 0.0065
# 3 50.1943 36.2473 106.6673 0.0129 -0.4350 -0.0086
# 4 0.0142 0.0232 0.0129 24.9270 -0.0126 -7.0854
# 5 -10.3496 4.1645 -0.4350 -0.0126 31.8835 0.0002
# 6 0.0093 0.0065 -0.0086 -7.0854 0.0002 12.4563
#
#
#
# Elastic Compliance Matrix: (Units=1/GPa)
#
#
# Indices 1 2 3 4 5 6 
#
# 1 0.013099 -0.003754 -0.004869 -0.000003 0.004676 -0.000013
# 2 -0.003754 0.014551 -0.003191 -0.000016 -0.003163 -0.000016
# 3 -0.004869 -0.003191 0.012747 0.000003 -0.000990 0.000016
# 4 -0.000003 -0.000016 0.000003 0.047854 0.000020 0.027221
# 5 0.004676 -0.003163 -0.000990 0.000020 0.033282 0.000008
# 6 -0.000013 -0.000016 0.000016 0.027221 0.000008 0.095764
#
#
# Mechanical properties :
#
#
# Convention : Reuss Voigt Hill
#
# Bulk Modulus (GPa) = 59.63738 61.09452 60.36595
# Shear Modulus (GPa) = 20.28283 25.83148 23.05715
#
# Velocity S-wave (km/s) = 3.43063 3.87154 3.65774
# Velocity P-wave (km/s) = 7.09205 7.44551 7.27093
#
# Compressibility (1/GPa) = 0.01676801
#
# Stress axis : x y z
#
# Youngs Moduli (GPa) = 76.34244 68.72571 78.45221
#
# Poissons Ratio (x) = 0.25798 0.38201
# Poissons Ratio (y) = 0.28657 0.25035
# Poissons Ratio (z) = 0.37173 0.21931
#
# Static dielectric constant tensor:
#      x y z
#    x 1.638850 -0.000010 -0.046900 
#    y -0.000010 1.556110 0.000020 
#    z -0.046900 0.000020 1.713700 
# 
# From -- ./inp_files/63791.got.cif
#   From: 2010.05.17/outbox.cif.g08.bks.cpg/sg15_32_cif.got.tgz:63791.got - 2010.06.03 18:47:42.
