data_PCOD9270175
_publ_section_title
;
Structure prediction by ZEFSAII (Michael W. Deem and Ramdas Pophale) SiO2 
 PCOD9270175
Probable space group: C 2/C
;
_chemical_formula_sum "Si O2"
_cell_formula_units_Z 40
_cell_length_a 26.951195
_cell_length_b 5.793736
_cell_length_c 20.913852
_cell_angle_alpha 90.000000
_cell_angle_beta 150.574832
_cell_angle_gamma 90.000000
_cell_volume 1604.373575
_symmetry_space_group_name_H-M "C 2/C"
_symmetry_group_IT_number 15
_symmetry_cell_setting 'monoclinic'
loop_
_space_group_symop_operation_xyz
x,y,z
-x,y,1/2-z
-x,-y,-z
x,-y,1/2+z
1/2+x,1/2+y,z
1/2-x,1/2+y,1/2-z
1/2-x,1/2-y,-z
1/2+x,1/2-y,1/2+z
loop_
_atom_site_type_symbol
_atom_site_label
_atom_site_fract_x
_atom_site_fract_y
_atom_site_fract_z
Si Si1 0.118718 0.753302 0.675054
Si Si2 0.633875 0.116858 0.832375
Si Si3 0.506767 0.268834 0.164336
Si Si4 0.153587 0.978741 0.436651
Si Si5 0.597145 0.255963 0.123681
O O1 0.146574 0.758583 0.780911
O O2 0.148926 0.497358 0.682819
O O3 0.996384 0.748692 0.530317
O O4 0.152224 0.995222 0.680303
O O5 0.647152 0.249180 0.913549
O O6 0.526005 0.995735 0.705394
O O7 0.727327 0.938021 0.932053
O O8 0.582827 0.392270 0.299310
O O9 0.398616 0.376177 0.059130
O O10 0.543019 0.278066 0.132613
#
# Coordination Sequence:
#
# PCOD9270175 Si02
#       5
#     8   8   8   8   8
#     4   9  17  32  58  81 112 153 194 246 295 362
#     4  10  20  37  57  84 123 157 205 248 312 370
#     4  10  20  35  56  85 116 155 202 252 303 369
#     4  10  21  35  56  86 118 159 198 248 312 365
#     4   9  17  32  56  85 109 151 201 239 300 356
#
# _framework density 24.931847999999999
#
# number of rings (size 3 to 8) (size 9 to 14) (size 15 to 20)
#    0.000    2.400    2.000    0.600    0.000    3.200 
#    0.000    0.000    0.000   12.000    0.000    0.000 
#    0.000    0.000    0.000    0.000    0.000    0.000 
#
# Total GULP energy -111389.217072 kJ/mol
# GULP energy per Si atom -5569.460854 kJ/mol
# Density = 2.487510 g / cm^3
# Si number density = 24.931848 Si / 1000 Ang^3
#
#
#
# Elastic Constant Matrix: (Units=GPa)
#
#
# Indices 1 2 3 4 5 6 
#
# 1 73.6041 28.2669 46.8298 0.0000 19.1728 0.0000
# 2 28.2669 154.2395 29.9435 -0.0002 19.7617 -0.0001
# 3 46.8298 29.9435 61.0463 -0.0001 -8.2337 0.0000
# 4 0.0000 -0.0002 -0.0001 42.2292 0.0000 -17.2664
# 5 19.1728 19.7617 -8.2337 0.0000 39.4917 0.0000
# 6 0.0000 -0.0001 0.0000 -17.2664 0.0000 13.4055
#
#
#
# Elastic Compliance Matrix: (Units=1/GPa)
#
#
# Indices 1 2 3 4 5 6 
#
# 1 0.050333 0.004239 -0.045553 0.000000 -0.036055 0.000000
# 2 0.004239 0.008370 -0.008437 0.000000 -0.008005 0.000000
# 3 -0.045553 -0.008437 0.060724 0.000000 0.038998 0.000001
# 4 0.000000 0.000000 0.000000 0.050025 0.000000 0.064433
# 5 -0.036055 -0.008005 0.038998 0.000000 0.054963 0.000000
# 6 0.000000 0.000000 0.000001 0.064433 0.000000 0.157587
#
#
# Mechanical properties :
#
#
# Convention : Reuss Voigt Hill
#
# Bulk Modulus (GPa) = 50.19063 55.44115 52.81589
# Shear Modulus (GPa) = 10.24285 31.28193 20.76239
#
# Velocity S-wave (km/s) = 2.02910 3.54601 2.88890
# Velocity P-wave (km/s) = 5.06602 6.24908 5.68839
#
# Compressibility (1/GPa) = 0.01992404
#
# Stress axis : x y z
#
# Youngs Moduli (GPa) = 19.86778 119.47135 16.46797
#
# Poissons Ratio (x) = -0.50640 0.75017
# Poissons Ratio (y) = -0.08421 0.13894
# Poissons Ratio (z) = 0.90504 1.00797
#
# Static dielectric constant tensor:
#      x y z
#    x 1.955590 0.000000 -0.003930 
#    y 0.000000 2.341240 0.000000 
#    z -0.003930 0.000000 1.928640 
# 
# From -- ./inp_files/175127.got.cif
#   From: 2010.05.17/outbox.cif.g08.bks.cpg/sg15_88_cif.got.tgz:175127.got - 2010.06.03 18:47:42.
