data_PCOD9270770
_publ_section_title
;
Structure prediction by ZEFSAII (Michael W. Deem and Ramdas Pophale) SiO2 
 PCOD9270770
Probable space group: C 2/C
;
_chemical_formula_sum "Si O2"
_cell_formula_units_Z 44
_cell_length_a 16.517555
_cell_length_b 14.305894
_cell_length_c 9.297095
_cell_angle_alpha 90.000000
_cell_angle_beta 68.086513
_cell_angle_gamma 90.000000
_cell_volume 2038.159939
_symmetry_space_group_name_H-M "C 2/C"
_symmetry_group_IT_number 15
_symmetry_cell_setting 'monoclinic'
loop_
_space_group_symop_operation_xyz
x,y,z
-x,y,1/2-z
-x,-y,-z
x,-y,1/2+z
1/2+x,1/2+y,z
1/2-x,1/2+y,1/2-z
1/2-x,1/2-y,-z
1/2+x,1/2-y,1/2+z
loop_
_atom_site_type_symbol
_atom_site_label
_atom_site_fract_x
_atom_site_fract_y
_atom_site_fract_z
Si Si1 0.500000 0.019381 0.250000
Si Si2 0.698108 0.250468 0.883697
Si Si3 0.127969 0.957045 0.468456
Si Si4 0.884436 0.438576 0.079809
Si Si5 0.761291 0.081602 0.331585
Si Si6 0.974404 0.142697 0.919797
O O1 0.445079 0.955821 0.176432
O O2 0.438549 0.078687 0.397525
O O3 0.683323 0.144302 0.848938
O O4 0.745175 0.318631 0.740810
O O5 0.750000 0.250000 0.000000
O O6 0.600903 0.294608 0.961390
O O7 0.189803 0.915971 0.549458
O O8 0.061086 0.880171 0.452348
O O9 0.182798 0.012096 0.310008
O O10 0.069880 0.040721 0.575297
O O11 0.831837 0.533818 0.088920
O O12 0.000000 0.183754 0.750000
#
# Coordination Sequence:
#
# PCOD9270770 Si02
#       6
#     4   8   8   8   8   8
#     4  10  24  44  70  90 126 188 220 272 322 388
#     4  11  25  40  65  95 132 176 223 274 333 398
#     4  10  20  35  64  94 129 169 210 267 344 401
#     4  11  23  45  67  94 133 171 230 271 327 396
#     4  11  22  42  67  97 134 172 215 281 341 396
#     4  10  20  36  60  94 131 165 214 267 333 399
#
# _framework density 21.588099
#
# number of rings (size 3 to 8) (size 9 to 14) (size 15 to 20)
#    0.000    1.455    1.818    4.364    1.273    1.455 
#    0.000    3.636    0.000    0.000    0.000    0.000 
#    0.000    0.000    0.000    0.000    0.000    0.000 
#
# Total GULP energy -122998.213838 kJ/mol
# GULP energy per Si atom -5590.827902 kJ/mol
# Density = 2.153896 g / cm^3
# Si number density = 21.588099 Si / 1000 Ang^3
#
#
#
# Elastic Constant Matrix: (Units=GPa)
#
#
# Indices 1 2 3 4 5 6 
#
# 1 98.8675 22.8922 34.7753 0.0000 29.5121 0.0000
# 2 22.8922 89.2414 22.7254 0.0000 8.4980 0.0000
# 3 34.7753 22.7254 79.1676 0.0000 11.5962 0.0000
# 4 0.0000 0.0000 0.0000 21.9170 0.0000 -9.0964
# 5 29.5121 8.4980 11.5962 0.0000 42.8618 0.0000
# 6 0.0000 0.0000 0.0000 -9.0964 0.0000 19.1717
#
#
#
# Elastic Compliance Matrix: (Units=1/GPa)
#
#
# Indices 1 2 3 4 5 6 
#
# 1 0.014722 -0.001766 -0.004713 0.000000 -0.008511 0.000000
# 2 -0.001766 0.012397 -0.002708 0.000000 -0.000509 0.000000
# 3 -0.004713 -0.002708 0.015541 0.000000 -0.000422 0.000000
# 4 0.000000 0.000000 0.000000 0.056815 0.000000 0.026957
# 5 -0.008511 -0.000509 -0.000422 0.000000 0.029407 0.000000
# 6 0.000000 0.000000 0.000000 0.026957 0.000000 0.064950
#
#
# Mechanical properties :
#
#
# Convention : Reuss Voigt Hill
#
# Bulk Modulus (GPa) = 41.17739 47.56249 44.36994
# Shear Modulus (GPa) = 22.69626 29.24902 25.97264
#
# Velocity S-wave (km/s) = 3.24594 3.68485 3.47234
# Velocity P-wave (km/s) = 5.75879 6.33907 6.05588
#
# Compressibility (1/GPa) = 0.02428517
#
# Stress axis : x y z
#
# Youngs Moduli (GPa) = 67.92628 80.66672 64.34574
#
# Poissons Ratio (x) = 0.14244 0.30327
# Poissons Ratio (y) = 0.11994 0.17427
# Poissons Ratio (z) = 0.32015 0.21847
#
# Static dielectric constant tensor:
#      x y z
#    x 1.773340 0.000000 -0.041610 
#    y 0.000000 1.783650 0.000000 
#    z -0.041610 0.000000 1.786860 
# 
# From -- ./inp_files/47014.got.cif
#   From: 2010.05.17/outbox.cif.g08.bks.cpg/sg15_24_cif.got.tgz:47014.got - 2010.06.03 18:47:42.
