data_PCOD9270605
_publ_section_title
;
Structure prediction by ZEFSAII (Michael W. Deem and Ramdas Pophale) SiO2 
 PCOD9270605
Probable space group: C 2/C
;
_chemical_formula_sum "Si O2"
_cell_formula_units_Z 64
_cell_length_a 9.089444
_cell_length_b 28.431992
_cell_length_c 23.898978
_cell_angle_alpha 90.000000
_cell_angle_beta 152.257406
_cell_angle_gamma 90.000000
_cell_volume 2875.038977
_symmetry_space_group_name_H-M "C 2/C"
_symmetry_group_IT_number 15
_symmetry_cell_setting 'monoclinic'
loop_
_space_group_symop_operation_xyz
x,y,z
-x,y,1/2-z
-x,-y,-z
x,-y,1/2+z
1/2+x,1/2+y,z
1/2-x,1/2+y,1/2-z
1/2-x,1/2-y,-z
1/2+x,1/2-y,1/2+z
loop_
_atom_site_type_symbol
_atom_site_label
_atom_site_fract_x
_atom_site_fract_y
_atom_site_fract_z
Si Si1 0.887245 0.018278 0.876631
Si Si2 0.892002 0.740660 0.648643
Si Si3 0.414396 0.418977 0.282682
Si Si4 0.188818 0.899316 0.073403
Si Si5 0.368774 0.685505 0.516538
Si Si6 0.133812 0.088161 0.140891
Si Si7 0.469205 0.687998 0.803660
Si Si8 0.153046 0.161817 0.241611
O O1 0.500000 0.017688 0.750000
O O2 0.998890 0.964785 0.908329
O O3 0.012764 0.045795 0.864597
O O4 0.966314 0.051976 0.955709
O O5 0.536574 0.723105 0.532511
O O6 0.000000 0.742876 0.750000
O O7 0.104360 0.700792 0.692226
O O8 0.982616 0.792240 0.657239
O O9 0.500000 0.438299 0.250000
O O10 0.561810 0.366933 0.332498
O O11 0.047056 0.409492 0.175740
O O12 0.102932 0.860193 0.090807
O O13 0.021154 0.882663 0.960956
O O14 0.374872 0.701930 0.583557
O O15 0.021300 0.673304 0.377534
O O16 0.500000 0.084721 0.250000
O O17 0.102761 0.116062 0.187442
O O18 0.500000 0.706621 0.750000
O O19 0.000000 0.153647 0.250000
#
# Coordination Sequence:
#
# PCOD9270605 Si02
#       8
#     8   8   8   8   8   8   8   8
#     4   9  20  37  65  95 129 173 217 271 327 400
#     4   9  21  40  67  91 126 170 220 263 329 398
#     4  10  20  35  60  98 128 156 214 280 330 379
#     4  11  20  39  67  94 124 176 222 267 328 398
#     4  11  21  42  71  90 129 179 216 268 340 396
#     4  11  23  42  64  93 132 176 225 266 321 400
#     4  10  20  35  63  99 128 159 216 280 327 377
#     4  11  26  45  65  94 137 175 217 274 334 394
#
# _framework density 22.260567000000002
#
# number of rings (size 3 to 8) (size 9 to 14) (size 15 to 20)
#    0.000    1.750    3.750    0.375    0.000    7.500 
#    0.000    1.250    0.000    2.250    0.000    0.000 
#    0.000    0.000    0.000    0.000    0.000    0.000 
#
# Total GULP energy -178398.706419 kJ/mol
# GULP energy per Si atom -5574.959576 kJ/mol
# Density = 2.220990 g / cm^3
# Si number density = 22.260567 Si / 1000 Ang^3
#
#
#
# Elastic Constant Matrix: (Units=GPa)
#
#
# Indices 1 2 3 4 5 6 
#
# 1 126.7098 52.7431 32.2019 -0.1907 -7.2837 0.2303
# 2 52.7431 103.2143 16.1536 0.0057 4.2497 -0.0038
# 3 32.2019 16.1536 53.5526 -0.6788 -3.0521 0.8173
# 4 -0.1907 0.0057 -0.6788 903.7541 -0.0901 -980.6241
# 5 -7.2837 4.2497 -3.0521 -0.0901 20.2395 0.1159
# 6 0.2303 -0.0038 0.8173 -980.6241 0.1159 1134.4204
#
#
#
# Elastic Compliance Matrix: (Units=1/GPa)
#
#
# Indices 1 2 3 4 5 6 
#
# 1 0.011694 -0.005356 -0.005156 0.000000 0.004555 0.000001
# 2 -0.005356 0.012762 -0.000899 0.000002 -0.004743 0.000004
# 3 -0.005156 -0.000899 0.022141 -0.000010 0.001672 -0.000024
# 4 0.000000 0.000002 -0.000010 0.017833 -0.000011 0.015415
# 5 0.004555 -0.004743 0.001672 -0.000011 0.052296 -0.000017
# 6 0.000001 0.000004 -0.000024 0.015415 -0.000017 0.014207
#
#
# Mechanical properties :
#
#
# Convention : Reuss Voigt Hill
#
# Bulk Modulus (GPa) = 42.06488 53.96377 48.01433
# Shear Modulus (GPa) = 30.92541 423.84134 227.38337
#
# Velocity S-wave (km/s) = 3.73130 13.81352 10.11771
# Velocity P-wave (km/s) = 6.12382 16.69468 12.57405
#
# Compressibility (1/GPa) = 0.02377280
#
# Stress axis : x y z
#
# Youngs Moduli (GPa) = 85.51486 78.36015 45.16597
#
# Poissons Ratio (x) = 0.41971 0.23290
# Poissons Ratio (y) = 0.45803 0.04060
# Poissons Ratio (z) = 0.44095 0.07044
#
# Static dielectric constant tensor:
#      x y z
#    x 1.813880 0.000000 0.007320 
#    y 0.000000 1.885790 -0.000020 
#    z 0.007320 -0.000020 1.656610 
# 
# From -- ./inp_files/266747.got.cif
#   From: 2010.05.17/outbox.cif.g08.bks.cpg/sg15_134_cif.got.tgz:266747.got - 2010.06.03 18:47:42.
