data_PCOD9270480
_publ_section_title
;
Structure prediction by ZEFSAII (Michael W. Deem and Ramdas Pophale) SiO2 
 PCOD9270480
Probable space group: C 2/C
;
_chemical_formula_sum "Si O2"
_cell_formula_units_Z 64
_cell_length_a 16.208671
_cell_length_b 31.839326
_cell_length_c 9.955747
_cell_angle_alpha 90.000000
_cell_angle_beta 140.009397
_cell_angle_gamma 90.000000
_cell_volume 3301.928925
_symmetry_space_group_name_H-M "C 2/C"
_symmetry_group_IT_number 15
_symmetry_cell_setting 'monoclinic'
loop_
_space_group_symop_operation_xyz
x,y,z
-x,y,1/2-z
-x,-y,-z
x,-y,1/2+z
1/2+x,1/2+y,z
1/2-x,1/2+y,1/2-z
1/2-x,1/2-y,-z
1/2+x,1/2-y,1/2+z
loop_
_atom_site_type_symbol
_atom_site_label
_atom_site_fract_x
_atom_site_fract_y
_atom_site_fract_z
Si Si1 0.055177 0.034934 0.469814
Si Si2 0.832509 0.472597 0.214446
Si Si3 0.902100 0.803230 0.249010
Si Si4 0.436734 0.059713 0.308170
Si Si5 0.177733 0.385140 0.382231
Si Si6 0.422535 0.631446 0.016309
Si Si7 0.610529 0.865573 0.573233
Si Si8 0.389422 0.204572 0.216289
O O1 0.206939 0.027094 0.648442
O O2 0.035375 0.084493 0.479532
O O3 0.000000 0.029673 0.250000
O O4 0.000000 0.000000 0.500000
O O5 0.856121 0.517723 0.179824
O O6 0.814621 0.435344 0.085140
O O7 0.951385 0.457008 0.453120
O O8 0.928860 0.833394 0.409202
O O9 0.918097 0.753037 0.288969
O O10 0.000000 0.814840 0.250000
O O11 0.751318 0.804409 0.021120
O O12 0.500000 0.075695 0.250000
O O13 0.360255 0.096184 0.288808
O O14 0.277124 0.373505 0.390534
O O15 0.199930 0.364634 0.554254
O O16 0.035007 0.374163 0.156837
O O17 0.500000 0.641475 0.250000
O O18 0.608564 0.822567 0.648199
O O19 0.500000 0.191263 0.250000
#
# Coordination Sequence:
#
# PCOD9270480 Si02
#       8
#     8   8   8   8   8   8   8   8
#     4  10  23  40  58  80 115 162 206 247 294 352
#     4   9  21  36  53  76 117 149 192 241 301 348
#     4  10  23  42  66  94 124 161 197 252 311 368
#     4  10  21  31  55  85 110 150 193 248 299 354
#     4   9  20  37  56  82 121 155 191 248 298 343
#     4  10  22  41  62  85 124 161 203 250 301 360
#     4  10  20  35  59  87 114 154 198 243 300 366
#     4  10  21  41  67  90 126 155 200 250 313 366
#
# _framework density 19.382611000000001
#
# number of rings (size 3 to 8) (size 9 to 14) (size 15 to 20)
#    0.000    2.250    0.000    1.125    8.750    4.500 
#    2.250    0.625    0.000    0.000    0.000    0.000 
#    0.000    0.000    0.000    0.000    0.000    0.000 
#
# Total GULP energy -178474.033644 kJ/mol
# GULP energy per Si atom -5577.313551 kJ/mol
# Density = 1.933850 g / cm^3
# Si number density = 19.382611 Si / 1000 Ang^3
#
#
#
# Elastic Constant Matrix: (Units=GPa)
#
#
# Indices 1 2 3 4 5 6 
#
# 1 85.5150 60.5874 28.1245 0.0000 -18.8846 0.0000
# 2 60.5874 110.3972 51.0488 0.0000 -27.4546 0.0000
# 3 28.1245 51.0488 36.2606 0.0000 -12.9594 0.0000
# 4 0.0000 0.0000 0.0000 23.4910 0.0000 -11.0321
# 5 -18.8846 -27.4546 -12.9594 0.0000 33.2909 0.0000
# 6 0.0000 0.0000 0.0000 -11.0321 0.0000 32.2299
#
#
#
# Elastic Compliance Matrix: (Units=1/GPa)
#
#
# Indices 1 2 3 4 5 6 
#
# 1 0.019338 -0.009870 -0.000107 0.000000 0.002788 0.000000
# 2 -0.009870 0.033151 -0.036296 0.000000 0.007612 0.000000
# 3 -0.000107 -0.036296 0.079036 0.000000 0.000773 0.000000
# 4 0.000000 0.000000 0.000000 0.050723 0.000000 0.017362
# 5 0.002788 0.007612 0.000773 0.000000 0.038198 0.000000
# 6 0.000000 0.000000 0.000000 0.017362 0.000000 0.036970
#
#
# Mechanical properties :
#
#
# Convention : Reuss Voigt Hill
#
# Bulk Modulus (GPa) = 25.65461 56.85491 41.25476
# Shear Modulus (GPa) = 13.77579 23.96317 18.86948
#
# Velocity S-wave (km/s) = 2.66884 3.51995 3.12352
# Velocity P-wave (km/s) = 4.77091 6.77619 5.85996
#
# Compressibility (1/GPa) = 0.03897935
#
# Stress axis : x y z
#
# Youngs Moduli (GPa) = 51.71282 30.16463 12.65244
#
# Poissons Ratio (x) = 0.29772 0.00136
# Poissons Ratio (y) = 0.51039 0.45923
# Poissons Ratio (z) = 0.00554 1.09485
#
# Static dielectric constant tensor:
#      x y z
#    x 1.679650 0.000000 0.013280 
#    y 0.000000 1.681920 0.000000 
#    z 0.013280 0.000000 1.705370 
# 
# From -- ./inp_files/44858.got.cif
#   From: 2010.05.17/outbox.cif.g08.bks.cpg/sg15_23_cif.got.tgz:44858.got - 2010.06.03 18:47:42.
