data_PCOD9270543
_publ_section_title
;
Structure prediction by ZEFSAII (Michael W. Deem and Ramdas Pophale) SiO2 
 PCOD9270543
Probable space group: C 2/C
;
_chemical_formula_sum "Si O2"
_cell_formula_units_Z 52
_cell_length_a 20.184435
_cell_length_b 13.671411
_cell_length_c 18.418511
_cell_angle_alpha 90.000000
_cell_angle_beta 150.572237
_cell_angle_gamma 90.000000
_cell_volume 2497.204257
_symmetry_space_group_name_H-M "C 2/C"
_symmetry_group_IT_number 15
_symmetry_cell_setting 'monoclinic'
loop_
_space_group_symop_operation_xyz
x,y,z
-x,y,1/2-z
-x,-y,-z
x,-y,1/2+z
1/2+x,1/2+y,z
1/2-x,1/2+y,1/2-z
1/2-x,1/2-y,-z
1/2+x,1/2-y,1/2+z
loop_
_atom_site_type_symbol
_atom_site_label
_atom_site_fract_x
_atom_site_fract_y
_atom_site_fract_z
Si Si1 0.178179 0.520003 0.047773
Si Si2 0.720296 0.807016 0.899040
Si Si3 0.714441 0.676027 0.261270
Si Si4 0.793370 0.151668 0.738091
Si Si5 0.500000 0.047061 0.250000
Si Si6 0.533914 0.594757 0.200015
Si Si7 0.583552 0.430406 0.502214
O O1 0.166606 0.619273 0.083001
O O2 0.181082 0.423983 0.101520
O O3 0.333297 0.524605 0.166579
O O4 0.079190 0.512611 0.886485
O O5 0.676896 0.729684 0.796996
O O6 0.606486 0.885868 0.808375
O O7 0.750000 0.750000 0.000000
O O8 0.856341 0.857768 0.000681
O O9 0.747486 0.780758 0.260549
O O10 0.592744 0.678218 0.203349
O O11 0.673870 0.599575 0.158066
O O12 0.932519 0.094904 0.884029
O O13 0.500000 0.622688 0.250000
O O14 0.425599 0.533698 0.049026
#
# Coordination Sequence:
#
# PCOD9270543 Si02
#       7
#     8   8   8   8   4   8   8
#     4   9  21  35  60  89 126 159 201 248 315 373
#     4  11  21  31  52  89 126 161 194 236 323 377
#     4   9  21  38  57  94 121 162 211 244 322 371
#     4  10  20  36  57  86 127 158 202 250 304 379
#     4  12  20  36  54  92 134 156 192 260 316 386
#     4   9  18  34  60  90 121 152 212 260 302 361
#     4  10  20  35  60  85 122 163 200 262 305 367
#
# _framework density 20.823287000000001
#
# number of rings (size 3 to 8) (size 9 to 14) (size 15 to 20)
#    0.923    1.231    1.538    2.308    4.308    0.000 
#    0.000    3.077    0.000    0.923    2.000    0.000 
#    0.000    0.000    0.000    0.000    0.000    0.000 
#
# Total GULP energy -144866.259230 kJ/mol
# GULP energy per Si atom -5571.779201 kJ/mol
# Density = 2.077589 g / cm^3
# Si number density = 20.823287 Si / 1000 Ang^3
#
#
#
# Elastic Constant Matrix: (Units=GPa)
#
#
# Indices 1 2 3 4 5 6 
#
# 1 106.0495 33.1619 -3.8430 0.0000 -21.0832 0.0000
# 2 33.1619 46.2709 12.4405 0.0000 -7.5091 0.0001
# 3 -3.8430 12.4405 75.1726 0.0000 -15.2468 0.0001
# 4 0.0000 0.0000 0.0000 14.6720 0.0000 -4.9904
# 5 -21.0832 -7.5091 -15.2468 0.0000 25.0396 0.0001
# 6 0.0000 0.0001 0.0001 -4.9904 0.0001 31.3854
#
#
#
# Elastic Compliance Matrix: (Units=1/GPa)
#
#
# Indices 1 2 3 4 5 6 
#
# 1 0.015437 -0.010331 0.005142 0.000000 0.013031 0.000000
# 2 -0.010331 0.030127 -0.006213 0.000000 -0.003447 0.000000
# 3 0.005142 -0.006213 0.017221 0.000000 0.012952 0.000000
# 4 0.000000 0.000000 0.000000 0.072054 0.000000 0.011457
# 5 0.013031 -0.003447 0.012952 0.000000 0.057761 0.000000
# 6 0.000000 0.000000 0.000000 0.011457 0.000000 0.033684
#
#
# Mechanical properties :
#
#
# Convention : Reuss Voigt Hill
#
# Bulk Modulus (GPa) = 25.01273 34.55687 29.78480
# Shear Modulus (GPa) = 19.05374 26.60165 22.82770
#
# Velocity S-wave (km/s) = 3.02821 3.57808 3.31457
# Velocity P-wave (km/s) = 4.92593 5.80531 5.38360
#
# Compressibility (1/GPa) = 0.03997965
#
# Stress axis : x y z
#
# Youngs Moduli (GPa) = 64.77912 33.19248 58.06934
#
# Poissons Ratio (x) = 0.34292 -0.29858
# Poissons Ratio (y) = 0.66926 0.36080
# Poissons Ratio (z) = -0.33308 0.20623
#
# Static dielectric constant tensor:
#      x y z
#    x 1.746960 0.000000 0.005250 
#    y 0.000000 1.746660 0.000000 
#    z 0.005250 0.000000 1.783850 
# 
# From -- ./inp_files/215611.got.cif
#   From: 2010.05.17/outbox.cif.g08.bks.cpg/sg15_108_cif.got.tgz:215611.got - 2010.06.03 18:47:42.
