data_PCOD9270445
_publ_section_title
;
Structure prediction by ZEFSAII (Michael W. Deem and Ramdas Pophale) SiO2 
 PCOD9270445
Probable space group: C 2/C
;
_chemical_formula_sum "Si O2"
_cell_formula_units_Z 44
_cell_length_a 24.806260
_cell_length_b 13.909950
_cell_length_c 5.665227
_cell_angle_alpha 90.000000
_cell_angle_beta 84.005126
_cell_angle_gamma 90.000000
_cell_volume 1944.117938
_symmetry_space_group_name_H-M "C 2/C"
_symmetry_group_IT_number 15
_symmetry_cell_setting 'monoclinic'
loop_
_space_group_symop_operation_xyz
x,y,z
-x,y,1/2-z
-x,-y,-z
x,-y,1/2+z
1/2+x,1/2+y,z
1/2-x,1/2+y,1/2-z
1/2-x,1/2-y,-z
1/2+x,1/2-y,1/2+z
loop_
_atom_site_type_symbol
_atom_site_label
_atom_site_fract_x
_atom_site_fract_y
_atom_site_fract_z
Si Si1 0.271393 0.544174 0.087474
Si Si2 0.448320 0.091717 0.657336
Si Si3 0.897097 0.735994 0.061715
Si Si4 0.000000 0.264897 0.750000
Si Si5 0.343550 0.096451 0.470778
Si Si6 0.300983 0.734935 0.307016
O O1 0.289933 0.492826 0.322409
O O2 0.205609 0.536649 0.113946
O O3 0.286882 0.655159 0.120258
O O4 0.500000 0.037336 0.750000
O O5 0.473197 0.165469 0.456271
O O6 0.396602 0.043102 0.553632
O O7 0.423313 0.160363 0.867923
O O8 0.865522 0.672268 0.268298
O O9 0.948561 0.788152 0.158019
O O10 0.852846 0.796104 0.939212
O O11 0.316922 0.164700 0.681325
O O12 0.250000 0.750000 0.500000
#
# Coordination Sequence:
#
# PCOD9270445 Si02
#       6
#     8   8   8   4   8   8
#     4  12  27  40  56  84 124 160 197 246 300 351
#     4   8  15  28  51  83 112 139 184 247 293 329
#     4   9  17  29  56  82 113 142 193 241 295 333
#     4   8  14  28  46  88 114 136 174 252 298 330
#     4  10  20  35  59  81 112 155 198 241 289 348
#     4  11  21  37  60  84 114 155 205 243 290 352
#
# _framework density 22.632372
#
# number of rings (size 3 to 8) (size 9 to 14) (size 15 to 20)
#    0.000    2.182    1.818    1.636    5.091    0.000 
#    0.000    0.000    0.000    1.091    0.000    1.273 
#    0.000    0.000    0.000    0.000    0.000    0.000 
#
# Total GULP energy -122979.360941 kJ/mol
# GULP energy per Si atom -5589.970952 kJ/mol
# Density = 2.258086 g / cm^3
# Si number density = 22.632372 Si / 1000 Ang^3
#
#
#
# Elastic Constant Matrix: (Units=GPa)
#
#
# Indices 1 2 3 4 5 6 
#
# 1 130.1166 28.2293 48.3129 0.0000 29.5048 0.0000
# 2 28.2293 62.6380 27.0252 0.0000 10.7304 0.0000
# 3 48.3129 27.0252 124.8042 0.0000 1.0212 0.0000
# 4 0.0000 0.0000 0.0000 36.6288 0.0000 12.2823
# 5 29.5048 10.7304 1.0212 0.0000 62.3252 0.0000
# 6 0.0000 0.0000 0.0000 12.2823 0.0000 19.0766
#
#
#
# Elastic Compliance Matrix: (Units=1/GPa)
#
#
# Indices 1 2 3 4 5 6 
#
# 1 0.010547 -0.002465 -0.003512 0.000000 -0.004511 0.000000
# 2 -0.002465 0.018754 -0.003090 0.000000 -0.002011 0.000000
# 3 -0.003512 -0.003090 0.010025 0.000000 0.002030 0.000000
# 4 0.000000 0.000000 0.000000 0.034818 0.000000 -0.022417
# 5 -0.004511 -0.002011 0.002030 0.000000 0.018493 0.000000
# 6 0.000000 0.000000 0.000000 -0.022417 0.000000 0.066853
#
#
# Mechanical properties :
#
#
# Convention : Reuss Voigt Hill
#
# Bulk Modulus (GPa) = 47.19136 58.29928 52.74532
# Shear Modulus (GPa) = 27.07257 37.87221 32.47239
#
# Velocity S-wave (km/s) = 3.46235 4.09512 3.79195
# Velocity P-wave (km/s) = 6.07292 6.94083 6.52133
#
# Compressibility (1/GPa) = 0.02119032
#
# Stress axis : x y z
#
# Youngs Moduli (GPa) = 94.81107 53.32336 99.75375
#
# Poissons Ratio (x) = 0.13145 0.35036
# Poissons Ratio (y) = 0.23373 0.30825
# Poissons Ratio (z) = 0.33300 0.16478
#
# Static dielectric constant tensor:
#      x y z
#    x 1.922070 0.000000 0.065940 
#    y 0.000000 1.761370 0.000000 
#    z 0.065940 0.000000 1.938980 
# 
# From -- ./inp_files/15143.got.cif
#   From: 2010.05.17/outbox.cif.g08.bks.cpg/sg15_8_cif.got.tgz:15143.got - 2010.06.03 18:47:42.
