data_PCOD9270548
_publ_section_title
;
Structure prediction by ZEFSAII (Michael W. Deem and Ramdas Pophale) SiO2 
 PCOD9270548
Probable space group: C 2/C
;
_chemical_formula_sum "Si O2"
_cell_formula_units_Z 40
_cell_length_a 11.479665
_cell_length_b 31.369506
_cell_length_c 5.206017
_cell_angle_alpha 90.000000
_cell_angle_beta 98.546730
_cell_angle_gamma 90.000000
_cell_volume 1853.927085
_symmetry_space_group_name_H-M "C 2/C"
_symmetry_group_IT_number 15
_symmetry_cell_setting 'monoclinic'
loop_
_space_group_symop_operation_xyz
x,y,z
-x,y,1/2-z
-x,-y,-z
x,-y,1/2+z
1/2+x,1/2+y,z
1/2-x,1/2+y,1/2-z
1/2-x,1/2-y,-z
1/2+x,1/2-y,1/2+z
loop_
_atom_site_type_symbol
_atom_site_label
_atom_site_fract_x
_atom_site_fract_y
_atom_site_fract_z
Si Si1 0.753842 0.387329 0.553959
Si Si2 0.881826 0.636484 0.592059
Si Si3 0.113207 0.808752 0.467825
Si Si4 0.637810 0.972730 0.775459
Si Si5 0.332391 0.227392 0.730679
O O1 0.783175 0.380054 0.262003
O O2 0.644179 0.355877 0.587879
O O3 0.764718 0.437373 0.618557
O O4 0.853964 0.372062 0.788338
O O5 0.891347 0.687477 0.613753
O O6 0.000000 0.617136 0.750000
O O7 0.240483 0.795313 0.393313
O O8 0.093568 0.765341 0.620647
O O9 0.000000 0.813140 0.250000
O O10 0.500000 0.957707 0.750000
O O11 0.650314 0.989882 0.490512
O O12 0.250000 0.250000 0.500000
#
# Coordination Sequence:
#
# PCOD9270548 Si02
#       5
#     8   8   8   8   8
#     4  11  22  40  56  88 120 149 198 239 290 358
#     4  11  22  34  59  83 119 156 191 240 289 339
#     4  10  23  38  58  79 116 161 201 247 289 338
#     4  10  20  35  60  87 115 147 182 233 302 362
#     4  10  21  37  52  81 113 151 205 240 284 334
#
# _framework density 21.57582
#
# number of rings (size 3 to 8) (size 9 to 14) (size 15 to 20)
#    0.000    1.600    2.000    3.000    2.800    1.600 
#    0.000    0.000    0.000    1.200    0.000    0.000 
#    0.000    0.000    0.000    0.000    0.000    0.000 
#
# Total GULP energy -111339.762295 kJ/mol
# GULP energy per Si atom -5566.988115 kJ/mol
# Density = 2.152671 g / cm^3
# Si number density = 21.575820 Si / 1000 Ang^3
#
#
#
# Elastic Constant Matrix: (Units=GPa)
#
#
# Indices 1 2 3 4 5 6 
#
# 1 32.1949 12.6832 3.6810 0.0000 12.9871 0.0000
# 2 12.6832 98.5821 14.5934 0.0000 14.0029 0.0000
# 3 3.6810 14.5934 71.2234 0.0000 20.1061 0.0000
# 4 0.0000 0.0000 0.0000 43.4134 0.0000 7.2223
# 5 12.9871 14.0029 20.1061 0.0000 34.1195 0.0000
# 6 0.0000 0.0000 0.0000 7.2223 0.0000 12.4351
#
#
#
# Elastic Compliance Matrix: (Units=1/GPa)
#
#
# Indices 1 2 3 4 5 6 
#
# 1 0.037980 -0.003205 0.002883 0.000000 -0.014840 0.000000
# 2 -0.003205 0.011121 -0.001402 0.000000 -0.002518 0.000000
# 3 0.002883 -0.001402 0.017185 0.000000 -0.010649 0.000000
# 4 0.000000 0.000000 0.000000 0.025498 0.000000 -0.014809
# 5 -0.014840 -0.002518 -0.010649 0.000000 0.042266 0.000000
# 6 0.000000 0.000000 0.000000 -0.014809 0.000000 0.089019
#
#
# Mechanical properties :
#
#
# Convention : Reuss Voigt Hill
#
# Bulk Modulus (GPa) = 15.91401 29.32395 22.61898
# Shear Modulus (GPa) = 20.20495 29.39645 24.80070
#
# Velocity S-wave (km/s) = 3.06349 3.69517 3.39406
# Velocity P-wave (km/s) = 4.46152 5.64148 5.08584
#
# Compressibility (1/GPa) = 0.06283771
#
# Stress axis : x y z
#
# Youngs Moduli (GPa) = 26.32948 89.91639 58.19125
#
# Poissons Ratio (x) = 0.28820 -0.16778
# Poissons Ratio (y) = 0.08439 0.08160
# Poissons Ratio (z) = -0.07591 0.12609
#
# Static dielectric constant tensor:
#      x y z
#    x 1.810880 0.000000 -0.057620 
#    y 0.000000 1.773350 0.000000 
#    z -0.057620 0.000000 1.786680 
# 
# From -- ./inp_files/5071.got.cif
#   From: 2010.05.17/outbox.cif.g08.bks.cpg/sg15_3_cif.got.tgz:5071.got - 2010.06.03 18:47:42.
