data_PCOD9270546
_publ_section_title
;
Structure prediction by ZEFSAII (Michael W. Deem and Ramdas Pophale) SiO2 
 PCOD9270546
Probable space group: C 2/C
;
_chemical_formula_sum "Si O2"
_cell_formula_units_Z 48
_cell_length_a 23.229548
_cell_length_b 22.759376
_cell_length_c 10.076885
_cell_angle_alpha 90.000000
_cell_angle_beta 29.024112
_cell_angle_gamma 90.000000
_cell_volume 2584.807447
_symmetry_space_group_name_H-M "C 2/C"
_symmetry_group_IT_number 15
_symmetry_cell_setting 'monoclinic'
loop_
_space_group_symop_operation_xyz
x,y,z
-x,y,1/2-z
-x,-y,-z
x,-y,1/2+z
1/2+x,1/2+y,z
1/2-x,1/2+y,1/2-z
1/2-x,1/2-y,-z
1/2+x,1/2-y,1/2+z
loop_
_atom_site_type_symbol
_atom_site_label
_atom_site_fract_x
_atom_site_fract_y
_atom_site_fract_z
Si Si1 0.685675 0.379300 0.603537
Si Si2 0.204479 0.880994 0.886071
Si Si3 0.978907 0.795961 0.100985
Si Si4 0.375609 0.219195 0.080567
Si Si5 0.806160 0.722718 0.754006
Si Si6 0.912224 0.002307 0.301848
O O1 0.707838 0.384051 0.718058
O O2 0.790287 0.345564 0.315633
O O3 0.663984 0.440215 0.574681
O O4 0.565747 0.339144 0.840483
O O5 0.321925 0.846646 0.699013
O O6 0.099199 0.838654 0.150848
O O7 0.169642 0.944860 0.012161
O O8 0.900052 0.755283 0.164674
O O9 0.934729 0.750858 0.497664
O O10 0.276172 0.254927 0.198394
O O11 0.500000 0.217690 0.750000
O O12 0.750000 0.750000 0.000000
O O13 0.000000 0.007103 0.250000
O O14 0.000000 0.000000 0.000000
#
# Coordination Sequence:
#
# PCOD9270546 Si02
#       6
#     8   8   8   8   8   8
#     4  11  21  38  60  84 126 159 198 246 313 364
#     4  12  23  40  60  89 126 162 197 258 314 358
#     4  11  21  37  59  93 121 152 201 251 310 368
#     4  12  22  37  61  93 121 162 203 244 314 381
#     4  10  20  35  60  86 119 161 194 244 308 368
#     4  12  24  38  61  91 122 165 208 261 308 360
#
# _framework density 18.570046999999999
#
# number of rings (size 3 to 8) (size 9 to 14) (size 15 to 20)
#    0.000    0.667   10.000    1.000    2.333    0.000 
#    0.000    0.000    0.000    4.000    0.000    0.000 
#    0.000    0.000    0.000    0.000    0.000    0.000 
#
# Total GULP energy -133912.269817 kJ/mol
# GULP energy per Si atom -5579.677909 kJ/mol
# Density = 1.852778 g / cm^3
# Si number density = 18.570047 Si / 1000 Ang^3
#
#
#
# Elastic Constant Matrix: (Units=GPa)
#
#
# Indices 1 2 3 4 5 6 
#
# 1 126.9233 67.4018 36.5779 -0.0001 0.4321 0.0001
# 2 67.4018 183.6909 51.0319 0.0000 0.2992 0.0000
# 3 36.5779 51.0319 69.4013 -0.0002 5.0095 0.0001
# 4 -0.0001 0.0000 -0.0002 39.0755 0.0001 -7.1965
# 5 0.4321 0.2992 5.0095 0.0001 19.2868 -0.0001
# 6 0.0001 0.0000 0.0001 -7.1965 -0.0001 36.9479
#
#
#
# Elastic Compliance Matrix: (Units=1/GPa)
#
#
# Indices 1 2 3 4 5 6 
#
# 1 0.010380 -0.002860 -0.003418 0.000000 0.000700 0.000000
# 2 -0.002860 0.007658 -0.004198 0.000000 0.001036 0.000000
# 3 -0.003418 -0.004198 0.019656 0.000000 -0.004964 0.000000
# 4 0.000000 0.000000 0.000000 0.026544 0.000000 0.005170
# 5 0.000700 0.001036 -0.004964 0.000000 0.053106 0.000000
# 6 0.000000 0.000000 0.000000 0.005170 0.000000 0.028072
#
#
# Mechanical properties :
#
#
# Convention : Reuss Voigt Hill
#
# Bulk Modulus (GPa) = 59.73503 76.67096 68.20300
# Shear Modulus (GPa) = 29.07807 34.06231 31.57019
#
# Velocity S-wave (km/s) = 3.96139 4.28747 4.12765
# Velocity P-wave (km/s) = 7.29114 8.11708 7.71517
#
# Compressibility (1/GPa) = 0.01674060
#
# Stress axis : x y z
#
# Youngs Moduli (GPa) = 96.33451 130.57928 50.87528
#
# Poissons Ratio (x) = 0.37351 0.17390
# Poissons Ratio (y) = 0.27556 0.21359
# Poissons Ratio (z) = 0.32929 0.54822
#
# Static dielectric constant tensor:
#      x y z
#    x 1.650380 0.000000 0.002680 
#    y 0.000000 1.778970 0.000000 
#    z 0.002680 0.000000 1.764500 
# 
# From -- ./inp_files/67480.got.cif
#   From: 2010.05.17/outbox.cif.g08.bks.cpg/sg15_34_cif.got.tgz:67480.got - 2010.06.03 18:47:42.
