data_PCOD9270769
_publ_section_title
;
Structure prediction by ZEFSAII (Michael W. Deem and Ramdas Pophale) SiO2 
 PCOD9270769
Probable space group: C 2/C
;
_chemical_formula_sum "Si O2"
_cell_formula_units_Z 48
_cell_length_a 9.020026
_cell_length_b 22.524269
_cell_length_c 11.743309
_cell_angle_alpha 90.000000
_cell_angle_beta 79.493634
_cell_angle_gamma 90.000000
_cell_volume 2345.881984
_symmetry_space_group_name_H-M "C 2/C"
_symmetry_group_IT_number 15
_symmetry_cell_setting 'monoclinic'
loop_
_space_group_symop_operation_xyz
x,y,z
-x,y,1/2-z
-x,-y,-z
x,-y,1/2+z
1/2+x,1/2+y,z
1/2-x,1/2+y,1/2-z
1/2-x,1/2-y,-z
1/2+x,1/2-y,1/2+z
loop_
_atom_site_type_symbol
_atom_site_label
_atom_site_fract_x
_atom_site_fract_y
_atom_site_fract_z
Si Si1 0.794223 0.176394 0.108696
Si Si2 0.143925 0.298334 0.955204
Si Si3 0.000000 0.690842 0.250000
Si Si4 0.144024 0.107315 0.799758
Si Si5 0.000000 0.992048 0.750000
Si Si6 0.835762 0.685247 0.619965
Si Si7 0.897747 0.888905 0.923715
O O1 0.640323 0.153101 0.185125
O O2 0.805660 0.245116 0.144758
O O3 0.947755 0.146057 0.121433
O O4 0.765290 0.171342 0.977765
O O5 0.058145 0.274614 0.854095
O O6 0.252990 0.351929 0.903344
O O7 0.250000 0.250000 0.000000
O O8 0.010209 0.318745 0.057711
O O9 0.285069 0.142743 0.728848
O O10 0.000000 0.132764 0.750000
O O11 0.130560 0.037240 0.773182
O O12 0.123639 0.110909 0.937153
O O13 0.071798 0.951359 0.641401
#
# Coordination Sequence:
#
# PCOD9270769 Si02
#       7
#     8   8   4   8   4   8   8
#     4  10  20  35  64  93 136 177 220 275 355 418
#     4  11  24  42  62 103 142 179 226 280 358 434
#     4  10  24  37  58  90 144 183 214 268 342 424
#     4  10  23  40  69  97 131 181 236 289 338 406
#     4  10  24  43  68  96 132 185 254 288 338 410
#     4  10  21  38  60  97 137 177 218 283 349 416
#     4  12  22  43  70 102 134 182 236 295 348 424
#
# _framework density 20.461387999999999
#
# number of rings (size 3 to 8) (size 9 to 14) (size 15 to 20)
#    0.500    1.000    3.333    1.500    3.500    0.667 
#    0.000    0.833    0.000    6.000    0.000    0.000 
#    0.000    0.000    0.000    0.000    0.000    0.000 
#
# Total GULP energy -133940.450363 kJ/mol
# GULP energy per Si atom -5580.852098 kJ/mol
# Density = 2.041482 g / cm^3
# Si number density = 20.461388 Si / 1000 Ang^3
#
#
#
# Elastic Constant Matrix: (Units=GPa)
#
#
# Indices 1 2 3 4 5 6 
#
# 1 127.1151 43.4523 55.8056 0.0000 -19.0018 0.0000
# 2 43.4523 85.0768 55.3052 0.0000 -6.7701 0.0000
# 3 55.8056 55.3052 147.5725 0.0000 -8.4358 0.0000
# 4 0.0000 0.0000 0.0000 33.4538 0.0000 -10.1842
# 5 -19.0018 -6.7701 -8.4358 0.0000 51.6974 0.0000
# 6 0.0000 0.0000 0.0000 -10.1842 0.0000 6.9627
#
#
#
# Elastic Compliance Matrix: (Units=1/GPa)
#
#
# Indices 1 2 3 4 5 6 
#
# 1 0.010642 -0.003557 -0.002518 0.000000 0.003035 0.000000
# 2 -0.003557 0.016791 -0.004943 0.000000 0.000085 0.000000
# 3 -0.002518 -0.004943 0.009580 0.000000 -0.000009 0.000000
# 4 0.000000 0.000000 0.000000 0.053886 0.000000 0.078819
# 5 0.003035 0.000085 -0.000009 0.000000 0.020468 0.000000
# 6 0.000000 0.000000 0.000000 0.078819 0.000000 0.258910
#
#
# Mechanical properties :
#
#
# Convention : Reuss Voigt Hill
#
# Bulk Modulus (GPa) = 66.76512 74.32118 70.54315
# Shear Modulus (GPa) = 12.58481 32.10287 22.34384
#
# Velocity S-wave (km/s) = 2.48271 3.96529 3.30813
# Velocity P-wave (km/s) = 6.39681 7.57405 7.01018
#
# Compressibility (1/GPa) = 0.01497788
#
# Stress axis : x y z
#
# Youngs Moduli (GPa) = 93.96921 59.55740 104.38196
#
# Poissons Ratio (x) = 0.21185 0.26281
# Poissons Ratio (y) = 0.33425 0.51591
# Poissons Ratio (z) = 0.23659 0.29437
#
# Static dielectric constant tensor:
#      x y z
#    x 1.766470 0.000000 0.022840 
#    y 0.000000 1.713870 0.000000 
#    z 0.022840 0.000000 1.813590 
# 
# From -- ./inp_files/79183.got.cif
#   From: 2010.05.17/outbox.cif.g08.bks.cpg/sg15_40_cif.got.tgz:79183.got - 2010.06.03 18:47:42.
