data_PCOD9270194
_publ_section_title
;
Structure prediction by ZEFSAII (Michael W. Deem and Ramdas Pophale) SiO2 
 PCOD9270194
Probable space group: C 2/C
;
_chemical_formula_sum "Si O2"
_cell_formula_units_Z 60
_cell_length_a 23.015688
_cell_length_b 8.842938
_cell_length_c 20.652703
_cell_angle_alpha 90.000000
_cell_angle_beta 139.172847
_cell_angle_gamma 90.000000
_cell_volume 2748.075070
_symmetry_space_group_name_H-M "C 2/C"
_symmetry_group_IT_number 15
_symmetry_cell_setting 'monoclinic'
loop_
_space_group_symop_operation_xyz
x,y,z
-x,y,1/2-z
-x,-y,-z
x,-y,1/2+z
1/2+x,1/2+y,z
1/2-x,1/2+y,1/2-z
1/2-x,1/2-y,-z
1/2+x,1/2-y,1/2+z
loop_
_atom_site_type_symbol
_atom_site_label
_atom_site_fract_x
_atom_site_fract_y
_atom_site_fract_z
Si Si1 0.114411 0.875821 0.432067
Si Si2 0.000000 0.695997 0.250000
Si Si3 0.549950 0.023091 0.676600
Si Si4 0.501397 0.645719 0.400125
Si Si5 0.326881 0.347347 0.822626
Si Si6 0.753315 0.025319 0.882981
Si Si7 0.585894 0.883439 0.014952
Si Si8 0.162967 0.296116 0.591702
O O1 0.214615 0.934438 0.527076
O O2 0.102232 0.743491 0.474681
O O3 0.081894 0.806281 0.337312
O O4 0.051382 0.015915 0.401666
O O5 0.986635 0.584364 0.298258
O O6 0.516282 0.195817 0.651742
O O7 0.653453 0.020338 0.776552
O O8 0.514928 0.942694 0.581008
O O9 0.405387 0.586780 0.343617
O O10 0.568876 0.703809 0.514455
O O11 0.305855 0.454073 0.865638
O O12 0.376070 0.195114 0.888934
O O13 0.233367 0.307329 0.709875
O O14 0.783501 0.197863 0.915652
O O15 0.641774 0.035340 0.051715
#
# Coordination Sequence:
#
# PCOD9270194 Si02
#       8
#     8   4   8   8   8   8   8   8
#     4   9  21  42  61  90 116 157 202 257 301 365
#     4  10  22  44  68  82 118 158 208 256 322 346
#     4  10  21  41  63  89 116 163 206 262 301 360
#     4  10  22  38  62  90 128 159 203 244 307 362
#     4  11  21  36  58  94 131 171 197 240 297 362
#     4  10  21  37  58  93 130 156 209 242 297 364
#     4   9  21  37  57  86 123 164 204 238 298 352
#     4  10  20  35  56  86 131 168 204 237 283 365
#
# _framework density 21.833465
#
# number of rings (size 3 to 8) (size 9 to 14) (size 15 to 20)
#    0.000    2.133    1.333    0.800    1.867    6.933 
#   12.000    0.000    2.933    8.800    0.000    0.000 
#    0.000    0.000    0.000    0.000    0.000    0.000 
#
# Total GULP energy -167157.849673 kJ/mol
# GULP energy per Si atom -5571.928322 kJ/mol
# Density = 2.178377 g / cm^3
# Si number density = 21.833465 Si / 1000 Ang^3
#
#
#
# Elastic Constant Matrix: (Units=GPa)
#
#
# Indices 1 2 3 4 5 6 
#
# 1 18.7104 16.5272 23.9008 0.0000 9.3769 0.0000
# 2 16.5272 122.5535 47.2259 0.0000 6.5124 0.0000
# 3 23.9008 47.2259 154.8985 0.0000 24.1941 0.0000
# 4 0.0000 0.0000 0.0000 41.5431 0.0000 3.9965
# 5 9.3769 6.5124 24.1941 0.0000 32.8527 0.0000
# 6 0.0000 0.0000 0.0000 3.9965 0.0000 13.0601
#
#
#
# Elastic Compliance Matrix: (Units=1/GPa)
#
#
# Indices 1 2 3 4 5 6 
#
# 1 0.076287 -0.006637 -0.007404 0.000000 -0.015006 0.000000
# 2 -0.006637 0.009826 -0.002218 0.000000 0.001580 0.000000
# 3 -0.007404 -0.002218 0.008899 0.000000 -0.004001 0.000000
# 4 0.000000 0.000000 0.000000 0.024801 0.000000 -0.007589
# 5 -0.015006 0.001580 -0.004001 0.000000 0.037355 0.000000
# 6 0.000000 0.000000 0.000000 -0.007589 0.000000 0.078891
#
#
# Mechanical properties :
#
#
# Convention : Reuss Voigt Hill
#
# Bulk Modulus (GPa) = 16.00173 52.38559 34.19366
# Shear Modulus (GPa) = 17.27654 31.39176 24.33415
#
# Velocity S-wave (km/s) = 2.81603 3.79592 3.34209
# Velocity P-wave (km/s) = 4.23300 6.57703 5.53063
#
# Compressibility (1/GPa) = 0.06249324
#
# Stress axis : x y z
#
# Youngs Moduli (GPa) = 13.10841 101.77418 112.36587
#
# Poissons Ratio (x) = 0.67552 0.83191
# Poissons Ratio (y) = 0.08701 0.24927
# Poissons Ratio (z) = 0.09705 0.22577
#
# Static dielectric constant tensor:
#      x y z
#    x 1.832960 0.000000 0.005090 
#    y 0.000000 1.820190 0.000000 
#    z 0.005090 0.000000 1.879640 
# 
# From -- ./inp_files/255183.got.cif
#   From: 2010.05.17/outbox.cif.g08.bks.cpg/sg15_128_cif.got.tgz:255183.got - 2010.06.03 18:47:42.
