data_PCOD9270031
_publ_section_title
;
Structure prediction by ZEFSAII (Michael W. Deem and Ramdas Pophale) SiO2 
 PCOD9270031
Probable space group: C 2/C
;
_chemical_formula_sum "Si O2"
_cell_formula_units_Z 64
_cell_length_a 11.460190
_cell_length_b 19.221149
_cell_length_c 16.885969
_cell_angle_alpha 90.000000
_cell_angle_beta 88.922248
_cell_angle_gamma 90.000000
_cell_volume 3718.949778
_symmetry_space_group_name_H-M "C 2/C"
_symmetry_group_IT_number 15
_symmetry_cell_setting 'monoclinic'
loop_
_space_group_symop_operation_xyz
x,y,z
-x,y,1/2-z
-x,-y,-z
x,-y,1/2+z
1/2+x,1/2+y,z
1/2-x,1/2+y,1/2-z
1/2-x,1/2-y,-z
1/2+x,1/2-y,1/2+z
loop_
_atom_site_type_symbol
_atom_site_label
_atom_site_fract_x
_atom_site_fract_y
_atom_site_fract_z
Si Si1 0.381771 0.425396 0.643518
Si Si2 0.510522 0.889385 0.155376
Si Si3 0.831496 0.816965 0.513217
Si Si4 0.439544 0.234063 0.961876
Si Si5 0.349832 0.438719 0.830017
Si Si6 0.771625 0.540996 0.933477
Si Si7 0.726604 0.057851 0.917617
Si Si8 0.738071 0.158615 0.446714
O O1 0.327450 0.360142 0.596333
O O2 0.356277 0.426273 0.736940
O O3 0.522396 0.423844 0.634366
O O4 0.326966 0.496373 0.609374
O O5 0.500000 0.883226 0.250000
O O6 0.391754 0.922434 0.124424
O O7 0.621545 0.935398 0.124119
O O8 0.521243 0.814955 0.110785
O O9 0.750000 0.750000 0.500000
O O10 0.794191 0.874872 0.449933
O O11 0.961000 0.785475 0.509743
O O12 0.326954 0.277994 0.937732
O O13 0.391568 0.184481 0.032376
O O14 0.309990 0.514820 0.857954
O O15 0.254948 0.388059 0.870003
O O16 0.727419 0.610705 0.978106
O O17 0.806396 0.490738 0.006454
#
# Coordination Sequence:
#
# PCOD9270031 Si02
#       8
#     8   8   8   8   8   8   8   8
#     4  10  21  35  58  83 113 142 182 233 280 325
#     4  11  21  35  54  80 113 144 180 230 282 330
#     4  11  21  37  58  82 114 146 186 226 277 333
#     4  10  20  35  54  82 105 146 186 221 274 331
#     4  10  20  36  57  84 110 142 186 231 280 322
#     4   9  20  35  56  80 107 141 186 229 271 326
#     4  10  21  35  58  82 108 148 185 230 272 333
#     4   9  19  35  57  79 104 142 188 228 264 332
#
# _framework density 17.209159
#
# number of rings (size 3 to 8) (size 9 to 14) (size 15 to 20)
#    0.000    2.000    2.500    1.125    1.750    2.500 
#    0.000    0.000    0.000    0.000    0.000    0.000 
#    0.000    0.000    0.000    0.000    0.000    0.000 
#
# Total GULP energy -178288.782525 kJ/mol
# GULP energy per Si atom -5571.524454 kJ/mol
# Density = 1.716999 g / cm^3
# Si number density = 17.209159 Si / 1000 Ang^3
#
#
#
# Elastic Constant Matrix: (Units=GPa)
#
#
# Indices 1 2 3 4 5 6 
#
# 1 52.5408 30.0413 48.4458 0.0000 -5.2236 0.0000
# 2 30.0413 98.4700 39.7112 0.0000 -7.8641 0.0000
# 3 48.4458 39.7112 90.9012 0.0000 -8.9199 0.0000
# 4 0.0000 0.0000 0.0000 8.7068 0.0000 -5.4444
# 5 -5.2236 -7.8641 -8.9199 0.0000 25.3501 0.0000
# 6 0.0000 0.0000 0.0000 -5.4444 0.0000 42.0403
#
#
#
# Elastic Compliance Matrix: (Units=1/GPa)
#
#
# Indices 1 2 3 4 5 6 
#
# 1 0.038835 -0.004247 -0.018836 0.000000 0.000057 0.000000
# 2 -0.004247 0.012890 -0.003171 0.000000 0.002008 0.000000
# 3 -0.018836 -0.003171 0.022732 0.000000 0.003134 0.000000
# 4 0.000000 0.000000 0.000000 0.124973 0.000000 0.016184
# 5 0.000057 0.002008 0.003134 0.000000 0.041185 0.000000
# 6 0.000000 0.000000 0.000000 0.016184 0.000000 0.025883
#
#
# Mechanical properties :
#
#
# Convention : Reuss Voigt Hill
#
# Bulk Modulus (GPa) = 45.55877 53.14542 49.35209
# Shear Modulus (GPa) = 15.32230 23.46702 19.39466
#
# Velocity S-wave (km/s) = 2.98712 3.69675 3.36072
# Velocity P-wave (km/s) = 6.19905 7.01216 6.61810
#
# Compressibility (1/GPa) = 0.02194967
#
# Stress axis : x y z
#
# Youngs Moduli (GPa) = 25.75012 77.57883 43.99018
#
# Poissons Ratio (x) = 0.32947 0.82860
# Poissons Ratio (y) = 0.10936 0.13948
# Poissons Ratio (z) = 0.48503 0.24598
#
# Static dielectric constant tensor:
#      x y z
#    x 1.577370 0.000000 -0.012800 
#    y 0.000000 1.615550 0.000000 
#    z -0.012800 0.000000 1.573170 
# 
# From -- ./inp_files/146060.got.cif
#   From: 2010.05.17/outbox.cif.g08.bks.cpg/sg15_74_cif.got.tgz:146060.got - 2010.06.03 18:47:42.
