data_PCOD9270236
_publ_section_title
;
Structure prediction by ZEFSAII (Michael W. Deem and Ramdas Pophale) SiO2 
 PCOD9270236
Probable space group: C 2/C
;
_chemical_formula_sum "Si O2"
_cell_formula_units_Z 64
_cell_length_a 31.507414
_cell_length_b 18.242889
_cell_length_c 8.461338
_cell_angle_alpha 90.000000
_cell_angle_beta 139.207344
_cell_angle_gamma 90.000000
_cell_volume 3177.413564
_symmetry_space_group_name_H-M "C 2/C"
_symmetry_group_IT_number 15
_symmetry_cell_setting 'monoclinic'
loop_
_space_group_symop_operation_xyz
x,y,z
-x,y,1/2-z
-x,-y,-z
x,-y,1/2+z
1/2+x,1/2+y,z
1/2-x,1/2+y,1/2-z
1/2-x,1/2-y,-z
1/2+x,1/2-y,1/2+z
loop_
_atom_site_type_symbol
_atom_site_label
_atom_site_fract_x
_atom_site_fract_y
_atom_site_fract_z
Si Si1 0.820031 0.322344 0.533101
Si Si2 0.210779 0.101715 0.517759
Si Si3 0.980771 0.219299 0.369840
Si Si4 0.972363 0.926280 0.346804
Si Si5 0.251255 0.330583 0.832333
Si Si6 0.942301 0.673648 0.188566
Si Si7 0.677795 0.463878 0.604497
Si Si8 0.146368 0.746244 0.827743
O O1 0.774032 0.365243 0.279594
O O2 0.791058 0.334625 0.626528
O O3 0.806311 0.233983 0.482940
O O4 0.892289 0.349674 0.688806
O O5 0.212104 0.049864 0.369206
O O6 0.173200 0.174440 0.355446
O O7 0.177839 0.048667 0.554244
O O8 0.004074 0.137419 0.470274
O O9 0.016323 0.264808 0.606333
O O10 0.000000 0.242741 0.250000
O O11 0.904745 0.233522 0.179174
O O12 0.000000 0.911993 0.250000
O O13 0.895652 0.935270 0.108350
O O14 0.000000 0.000000 0.500000
O O15 0.282453 0.409348 0.895866
O O16 0.202460 0.304996 0.555693
O O17 0.000000 0.631825 0.250000
O O18 0.892077 0.706797 0.920123
#
# Coordination Sequence:
#
# PCOD9270236 Si02
#       8
#     8   8   8   8   8   8   8   8
#     4  10  20  37  56  84 111 144 186 232 289 337
#     4  11  23  36  56  78 113 149 188 237 279 336
#     4  11  21  33  52  78 109 146 185 229 274 330
#     4  12  24  37  53  74 110 154 192 230 272 331
#     4  10  21  35  59  82 111 146 187 240 282 334
#     4  10  20  35  57  82 111 143 184 234 285 340
#     4  12  23  38  55  82 112 150 194 232 284 333
#     4  10  20  37  56  81 110 148 190 232 285 331
#
# _framework density 20.142168999999999
#
# number of rings (size 3 to 8) (size 9 to 14) (size 15 to 20)
#    0.000    1.250    0.000    8.250    0.000    5.000 
#    0.000    0.000    0.000    0.000    0.000   14.875 
#    0.000    0.000    0.000    0.000    0.000    0.000 
#
# Total GULP energy -178468.564006 kJ/mol
# GULP energy per Si atom -5577.142625 kJ/mol
# Density = 2.009632 g / cm^3
# Si number density = 20.142169 Si / 1000 Ang^3
#
#
#
# Elastic Constant Matrix: (Units=GPa)
#
#
# Indices 1 2 3 4 5 6 
#
# 1 105.8286 7.5872 18.8958 0.0000 7.8189 0.0000
# 2 7.5872 38.1693 20.1367 0.0000 6.6511 0.0000
# 3 18.8958 20.1367 55.7057 0.0000 1.8151 0.0000
# 4 0.0000 0.0000 0.0000 2.0912 0.0000 7.5825
# 5 7.8189 6.6511 1.8151 0.0000 40.4781 0.0000
# 6 0.0000 0.0000 0.0000 7.5825 0.0000 20.1222
#
#
#
# Elastic Compliance Matrix: (Units=1/GPa)
#
#
# Indices 1 2 3 4 5 6 
#
# 1 0.010190 0.000106 -0.003435 0.000000 -0.001832 0.000000
# 2 0.000106 0.033333 -0.011924 0.000000 -0.004963 0.000000
# 3 -0.003435 -0.011924 0.023376 0.000000 0.001575 0.000000
# 4 0.000000 0.000000 0.000000 -1.305412 0.000000 0.491908
# 5 -0.001832 -0.004963 0.001575 0.000000 0.025803 0.000000
# 6 0.000000 0.000000 0.000000 0.491908 0.000000 -0.135665
#
#
# Mechanical properties :
#
#
# Convention : Reuss Voigt Hill
#
# Bulk Modulus (GPa) = 27.47760 32.54922 30.01341
# Shear Modulus (GPa) = -3.82925 22.74389 9.45732
#
# Velocity S-wave (km/s) = -1.38030 3.36395 2.16921
# Velocity P-wave (km/s) = 3.33633 5.59313 4.60512
#
# Compressibility (1/GPa) = 0.03639329
#
# Stress axis : x y z
#
# Youngs Moduli (GPa) = 98.13201 30.00000 42.77953
#
# Poissons Ratio (x) = -0.00318 0.14696
# Poissons Ratio (y) = -0.01039 0.51009
# Poissons Ratio (z) = 0.33711 0.35771
#
# Static dielectric constant tensor:
#      x y z
#    x 1.820160 0.000000 0.004870 
#    y 0.000000 1.683990 0.000000 
#    z 0.004870 0.000000 1.723340 
# 
# From -- ./inp_files/70637.got.cif
#   From: 2010.05.17/outbox.cif.g08.bks.cpg/sg15_36_cif.got.tgz:70637.got - 2010.06.03 18:47:42.
