data_PCOD9270568
_publ_section_title
;
Structure prediction by ZEFSAII (Michael W. Deem and Ramdas Pophale) SiO2 
 PCOD9270568
Probable space group: C 2/C
;
_chemical_formula_sum "Si O2"
_cell_formula_units_Z 32
_cell_length_a 13.872031
_cell_length_b 8.959338
_cell_length_c 10.190748
_cell_angle_alpha 90.000000
_cell_angle_beta 84.615203
_cell_angle_gamma 90.000000
_cell_volume 1260.959703
_symmetry_space_group_name_H-M "C 2/C"
_symmetry_group_IT_number 15
_symmetry_cell_setting 'monoclinic'
loop_
_space_group_symop_operation_xyz
x,y,z
-x,y,1/2-z
-x,-y,-z
x,-y,1/2+z
1/2+x,1/2+y,z
1/2-x,1/2+y,1/2-z
1/2-x,1/2-y,-z
1/2+x,1/2-y,1/2+z
loop_
_atom_site_type_symbol
_atom_site_label
_atom_site_fract_x
_atom_site_fract_y
_atom_site_fract_z
Si Si1 0.129838 0.890675 0.930551
Si Si2 0.141211 0.727292 0.680237
Si Si3 0.049154 0.224850 0.926593
Si Si4 0.691313 0.898578 0.747831
O O1 0.089269 0.819581 0.801196
O O2 0.244841 0.868056 0.892556
O O3 0.102662 0.064372 0.928816
O O4 0.064895 0.814214 0.050328
O O5 0.083176 0.694143 0.556444
O O6 0.234446 0.836103 0.650091
O O7 0.175231 0.574249 0.743296
O O8 0.093351 0.317583 0.801798
#
# Coordination Sequence:
#
# PCOD9270568 Si02
#       4
#     8   8   8   8
#     4   9  21  36  61  91 110 156 208 234 291 374
#     4  10  21  39  57  89 123 156 194 249 295 347
#     4  11  20  40  63  82 124 161 188 252 306 331
#     4  10  20  35  60  90 117 155 206 236 288 368
#
# _framework density 25.377497000000002
#
# number of rings (size 3 to 8) (size 9 to 14) (size 15 to 20)
#    1.500    0.500    2.500    1.500    0.000    1.000 
#    0.000    7.500    0.000    6.000    0.000    0.000 
#    0.000    0.000    0.000    0.000    0.000    0.000 
#
# Total GULP energy -89158.620612 kJ/mol
# GULP energy per Si atom -5572.413788 kJ/mol
# Density = 2.531974 g / cm^3
# Si number density = 25.377497 Si / 1000 Ang^3
#
#
#
# Elastic Constant Matrix: (Units=GPa)
#
#
# Indices 1 2 3 4 5 6 
#
# 1 115.5197 36.3285 14.1223 0.0000 -36.9041 0.0000
# 2 36.3285 105.3414 25.1328 0.0000 2.6971 0.0000
# 3 14.1223 25.1328 50.3265 0.0000 -9.8274 0.0000
# 4 0.0000 0.0000 0.0000 19.0965 0.0000 1.6994
# 5 -36.9041 2.6971 -9.8274 0.0000 48.6860 0.0000
# 6 0.0000 0.0000 0.0000 1.6994 0.0000 -38.4509
#
#
#
# Elastic Compliance Matrix: (Units=1/GPa)
#
#
# Indices 1 2 3 4 5 6 
#
# 1 0.013628 -0.005184 0.000872 0.000000 0.010794 0.000000
# 2 -0.005184 0.012895 -0.006133 0.000000 -0.005882 0.000000
# 3 0.000872 -0.006133 0.023823 0.000000 0.005810 0.000000
# 4 0.000000 0.000000 0.000000 0.052160 0.000000 0.002305
# 5 0.010794 -0.005882 0.005810 0.000000 0.030220 0.000000
# 6 0.000000 0.000000 0.000000 0.002305 0.000000 -0.025905
#
#
# Mechanical properties :
#
#
# Convention : Reuss Voigt Hill
#
# Bulk Modulus (GPa) = 33.94966 46.92831 40.43899
# Shear Modulus (GPa) = 36.35554 18.90658 27.63106
#
# Velocity S-wave (km/s) = 3.78906 2.73245 3.30328
# Velocity P-wave (km/s) = 5.70522 5.33735 5.52435
#
# Compressibility (1/GPa) = 0.02945538
#
# Stress axis : x y z
#
# Youngs Moduli (GPa) = 73.37586 77.55048 41.97641
#
# Poissons Ratio (x) = 0.40206 -0.03662
# Poissons Ratio (y) = 0.38042 0.25746
# Poissons Ratio (z) = -0.06402 0.47565
#
# Static dielectric constant tensor:
#      x y z
#    x 1.861030 0.000000 -0.166040 
#    y 0.000000 1.919560 0.000000 
#    z -0.166040 0.000000 1.895860 
# 
# From -- ./inp_files/93495.got.cif
#   From: 2010.05.17/outbox.cif.g08.bks.cpg/sg15_47_cif.got.tgz:93495.got - 2010.06.03 18:47:42.
