data_PCOD9270428
_publ_section_title
;
Structure prediction by ZEFSAII (Michael W. Deem and Ramdas Pophale) SiO2 
 PCOD9270428
Probable space group: C 2/C
;
_chemical_formula_sum "Si O2"
_cell_formula_units_Z 52
_cell_length_a 7.247562
_cell_length_b 16.096758
_cell_length_c 24.709372
_cell_angle_alpha 90.000000
_cell_angle_beta 124.696175
_cell_angle_gamma 90.000000
_cell_volume 2370.063868
_symmetry_space_group_name_H-M "C 2/C"
_symmetry_group_IT_number 15
_symmetry_cell_setting 'monoclinic'
loop_
_space_group_symop_operation_xyz
x,y,z
-x,y,1/2-z
-x,-y,-z
x,-y,1/2+z
1/2+x,1/2+y,z
1/2-x,1/2+y,1/2-z
1/2-x,1/2-y,-z
1/2+x,1/2-y,1/2+z
loop_
_atom_site_type_symbol
_atom_site_label
_atom_site_fract_x
_atom_site_fract_y
_atom_site_fract_z
Si Si1 0.633356 0.777264 0.830211
Si Si2 0.016710 0.453778 0.688265
Si Si3 0.636912 0.394214 0.371941
Si Si4 0.668385 0.723446 0.425167
Si Si5 0.348423 0.099175 0.589981
Si Si6 0.752410 0.461912 0.963012
Si Si7 0.000000 0.006522 0.750000
O O1 0.500000 0.767434 0.750000
O O2 0.577891 0.866071 0.845814
O O3 0.577086 0.702329 0.861555
O O4 0.902230 0.779933 0.868980
O O5 0.889065 0.532116 0.642668
O O6 0.273268 0.455588 0.711867
O O7 0.000000 0.456055 0.750000
O O8 0.898785 0.392897 0.394807
O O9 0.613921 0.460453 0.416232
O O10 0.492849 0.434805 0.300425
O O11 0.750000 0.750000 0.500000
O O12 0.734049 0.809656 0.405909
O O13 0.745351 0.627446 0.430621
O O14 0.202939 0.062590 0.516446
O O15 0.000000 0.500000 0.000000
#
# Coordination Sequence:
#
# PCOD9270428 Si02
#       7
#     8   8   8   8   8   8   4
#     4  10  20  35  58  91 125 169 215 260 322 395
#     4  10  22  38  65  91 130 166 216 264 325 384
#     4   9  17  32  60  83 118 166 202 248 322 374
#     4   9  18  35  61  87 121 171 212 255 327 391
#     4   8  17  36  57  88 118 158 214 258 305 390
#     4   9  17  31  60  89 116 160 214 256 313 383
#     4  10  20  38  62  84 126 170 206 258 322 380
#
# _framework density 21.940338000000001
#
# number of rings (size 3 to 8) (size 9 to 14) (size 15 to 20)
#    0.000    2.769    0.769    0.923    4.308    0.000 
#    0.000    3.846   13.538    0.000    0.000    0.000 
#    0.000    0.000    0.000    0.000    0.000    0.000 
#
# Total GULP energy -144769.527903 kJ/mol
# GULP energy per Si atom -5568.058765 kJ/mol
# Density = 2.189040 g / cm^3
# Si number density = 21.940338 Si / 1000 Ang^3
#
#
#
# Elastic Constant Matrix: (Units=GPa)
#
#
# Indices 1 2 3 4 5 6 
#
# 1 47.7335 37.3457 13.5225 0.0000 7.9540 0.0000
# 2 37.3457 246.8272 58.6601 0.0000 -5.4453 0.0000
# 3 13.5225 58.6601 91.2014 0.0000 13.0341 0.0000
# 4 0.0000 0.0000 0.0000 42.8026 0.0000 3.3326
# 5 7.9540 -5.4453 13.0341 0.0000 20.7973 0.0000
# 6 0.0000 0.0000 0.0000 3.3326 0.0000 25.2912
#
#
#
# Elastic Compliance Matrix: (Units=1/GPa)
#
#
# Indices 1 2 3 4 5 6 
#
# 1 0.026092 -0.004333 0.000556 0.000000 -0.011462 0.000000
# 2 -0.004333 0.005745 -0.003849 0.000000 0.005574 0.000000
# 3 0.000556 -0.003849 0.014864 0.000000 -0.010536 0.000000
# 4 0.000000 0.000000 0.000000 0.023605 0.000000 -0.003110
# 5 -0.011462 0.005574 -0.010536 0.000000 0.060529 0.000000
# 6 0.000000 0.000000 0.000000 -0.003110 0.000000 0.039949
#
#
# Mechanical properties :
#
#
# Convention : Reuss Voigt Hill
#
# Bulk Modulus (GPa) = 31.79738 67.20207 49.49973
# Shear Modulus (GPa) = 25.44290 36.19381 30.81836
#
# Velocity S-wave (km/s) = 3.40904 4.06599 3.75192
# Velocity P-wave (km/s) = 5.47901 7.26216 6.43267
#
# Compressibility (1/GPa) = 0.03144913
#
# Stress axis : x y z
#
# Youngs Moduli (GPa) = 38.32595 174.07328 67.27799
#
# Poissons Ratio (x) = 0.75424 -0.03743
# Poissons Ratio (y) = 0.16606 0.25896
# Poissons Ratio (z) = -0.02132 0.67002
#
# Static dielectric constant tensor:
#      x y z
#    x 1.889830 0.000000 0.017790 
#    y 0.000000 1.867350 0.000000 
#    z 0.017790 0.000000 1.861520 
# 
# From -- ./inp_files/307860.got.cif
#   From: 2010.05.17/outbox.cif.g08.bks.cpg/sg15_154_cif.got.tgz:307860.got - 2010.06.03 18:47:42.
