data_PCOD9270191
_publ_section_title
;
Structure prediction by ZEFSAII (Michael W. Deem and Ramdas Pophale) SiO2 
 PCOD9270191
Probable space group: C 2/C
;
_chemical_formula_sum "Si O2"
_cell_formula_units_Z 52
_cell_length_a 19.823128
_cell_length_b 9.481047
_cell_length_c 15.383511
_cell_angle_alpha 90.000000
_cell_angle_beta 84.307552
_cell_angle_gamma 90.000000
_cell_volume 2876.981015
_symmetry_space_group_name_H-M "C 2/C"
_symmetry_group_IT_number 15
_symmetry_cell_setting 'monoclinic'
loop_
_space_group_symop_operation_xyz
x,y,z
-x,y,1/2-z
-x,-y,-z
x,-y,1/2+z
1/2+x,1/2+y,z
1/2-x,1/2+y,1/2-z
1/2-x,1/2-y,-z
1/2+x,1/2-y,1/2+z
loop_
_atom_site_type_symbol
_atom_site_label
_atom_site_fract_x
_atom_site_fract_y
_atom_site_fract_z
Si Si1 0.857702 0.053761 0.128084
Si Si2 0.000000 0.834945 0.250000
Si Si3 0.148522 0.167602 0.030978
Si Si4 0.242991 0.707260 0.901402
Si Si5 0.711073 0.113235 0.396040
Si Si6 0.991930 0.060871 0.403898
Si Si7 0.352258 0.715470 0.749140
O O1 0.802519 0.174134 0.137651
O O2 0.932981 0.119983 0.124429
O O3 0.849323 0.938553 0.204650
O O4 0.849499 0.961337 0.039933
O O5 0.931678 0.748685 0.242359
O O6 0.984358 0.935780 0.334556
O O7 0.211436 0.151718 0.088333
O O8 0.075072 0.156918 0.085375
O O9 0.163672 0.308793 0.973730
O O10 0.208721 0.554689 0.897909
O O11 0.315845 0.705795 0.845861
O O12 0.250000 0.750000 0.000000
O O13 0.688021 0.178344 0.307908
O O14 0.000000 0.000000 0.500000
#
# Coordination Sequence:
#
# PCOD9270191 Si02
#       7
#     8   4   8   8   8   8   8
#     4   9  19  36  57  88 110 148 197 235 287 346
#     4  10  20  36  64  88 108 152 212 246 294 344
#     4   9  17  35  59  81 115 149 189 241 284 341
#     4  12  22  35  57  86 119 150 192 237 293 349
#     4  10  20  35  56  86 116 152 190 233 301 348
#     4   9  18  33  59  87 113 145 196 249 287 338
#     4  10  22  38  61  83 113 151 197 248 290 342
#
# _framework density 18.074503
#
# number of rings (size 3 to 8) (size 9 to 14) (size 15 to 20)
#    0.000    2.154    1.538    2.769    2.154    1.231 
#    0.000    0.769    0.000    0.923    0.000    0.000 
#    0.000    0.000    0.000    0.000    0.000    0.000 
#
# Total GULP energy -144997.494989 kJ/mol
# GULP energy per Si atom -5576.826730 kJ/mol
# Density = 1.803336 g / cm^3
# Si number density = 18.074503 Si / 1000 Ang^3
#
#
#
# Elastic Constant Matrix: (Units=GPa)
#
#
# Indices 1 2 3 4 5 6 
#
# 1 145.9338 42.2168 47.8441 0.0000 -12.1676 0.0000
# 2 42.2168 83.9912 23.3047 0.0000 -10.8861 0.0000
# 3 47.8441 23.3047 102.6134 0.0000 -5.2682 0.0000
# 4 0.0000 0.0000 0.0000 5.2022 0.0000 0.1596
# 5 -12.1676 -10.8861 -5.2682 0.0000 29.2914 0.0000
# 6 0.0000 0.0000 0.0000 0.1596 0.0000 27.7303
#
#
#
# Elastic Compliance Matrix: (Units=1/GPa)
#
#
# Indices 1 2 3 4 5 6 
#
# 1 0.009099 -0.003389 -0.003374 0.000000 0.001913 0.000000
# 2 -0.003389 0.014514 -0.001526 0.000000 0.003712 0.000000
# 3 -0.003374 -0.001526 0.011672 0.000000 0.000131 0.000000
# 4 0.000000 0.000000 0.000000 0.192259 0.000000 -0.001107
# 5 0.001913 0.003712 0.000131 0.000000 0.036337 0.000000
# 6 0.000000 0.000000 0.000000 -0.001107 0.000000 0.036068
#
#
# Mechanical properties :
#
#
# Convention : Reuss Voigt Hill
#
# Bulk Modulus (GPa) = 53.45774 62.14107 57.79941
# Shear Modulus (GPa) = 15.49130 27.05630 21.27380
#
# Velocity S-wave (km/s) = 2.93077 3.87322 3.43447
# Velocity P-wave (km/s) = 6.41039 7.37954 6.91197
#
# Compressibility (1/GPa) = 0.01870636
#
# Stress axis : x y z
#
# Youngs Moduli (GPa) = 109.90678 68.89976 85.67651
#
# Poissons Ratio (x) = 0.23350 0.28910
# Poissons Ratio (y) = 0.37248 0.13070
# Poissons Ratio (z) = 0.37087 0.10511
#
# Static dielectric constant tensor:
#      x y z
#    x 1.645980 0.000000 0.002760 
#    y 0.000000 1.587240 0.000000 
#    z 0.002760 0.000000 1.645940 
# 
# From -- ./inp_files/166228.got.cif
#   From: 2010.05.17/outbox.cif.g08.bks.cpg/sg15_84_cif.got.tgz:166228.got - 2010.06.03 18:47:42.
