data_PCOD9270012
_publ_section_title
;
Structure prediction by ZEFSAII (Michael W. Deem and Ramdas Pophale) SiO2 
 PCOD9270012
Probable space group: C 2/C
;
_chemical_formula_sum "Si O2"
_cell_formula_units_Z 64
_cell_length_a 19.401390
_cell_length_b 29.501883
_cell_length_c 16.038576
_cell_angle_alpha 90.000000
_cell_angle_beta 21.977619
_cell_angle_gamma 90.000000
_cell_volume 3435.608615
_symmetry_space_group_name_H-M "C 2/C"
_symmetry_group_IT_number 15
_symmetry_cell_setting 'monoclinic'
loop_
_space_group_symop_operation_xyz
x,y,z
-x,y,1/2-z
-x,-y,-z
x,-y,1/2+z
1/2+x,1/2+y,z
1/2-x,1/2+y,1/2-z
1/2-x,1/2-y,-z
1/2+x,1/2-y,1/2+z
loop_
_atom_site_type_symbol
_atom_site_label
_atom_site_fract_x
_atom_site_fract_y
_atom_site_fract_z
Si Si1 0.609758 0.033810 0.206417
Si Si2 0.215598 0.604810 0.357483
Si Si3 0.873380 0.428716 0.317103
Si Si4 0.887595 0.049823 0.027055
Si Si5 0.470460 0.803336 0.382773
Si Si6 0.387190 0.298738 0.963867
Si Si7 0.754094 0.962454 0.282944
Si Si8 0.429784 0.395492 0.957800
O O1 0.500000 0.053657 0.250000
O O2 0.795843 0.052551 0.039356
O O3 0.453109 0.035715 0.453595
O O4 0.656433 0.981451 0.133440
O O5 0.321746 0.593547 0.153516
O O6 0.156119 0.656409 0.441534
O O7 0.361319 0.586945 0.264309
O O8 0.025868 0.576965 0.573210
O O9 0.685934 0.405453 0.496346
O O10 0.000000 0.408780 0.250000
O O11 0.803369 0.006319 0.171595
O O12 0.105197 0.041209 0.795898
O O13 0.500000 0.805763 0.250000
O O14 0.405519 0.752375 0.475468
O O15 0.673914 0.808390 0.189549
O O16 0.500000 0.300065 0.750000
O O17 0.452439 0.341676 0.943211
O O18 0.810252 0.919920 0.162704
#
# Coordination Sequence:
#
# PCOD9270012 Si02
#       8
#     8   8   8   8   8   8   8   8
#     4  11  22  35  54  76 106 138 175 226 268 317
#     4  11  21  34  53  73  97 139 181 221 259 312
#     4  11  22  32  46  74 102 135 179 222 260 302
#     4  10  20  35  54  75 103 139 175 217 269 318
#     4  11  21  36  50  73 108 143 181 223 263 309
#     4  11  22  34  51  73 105 146 181 221 264 306
#     4  10  20  36  53  74 104 139 178 218 268 315
#     4  11  22  34  52  73  98 143 180 222 263 311
#
# _framework density 18.628430999999999
#
# number of rings (size 3 to 8) (size 9 to 14) (size 15 to 20)
#    0.000    1.250    3.750    4.500    1.750    0.500 
#    0.000    2.500    0.000    0.000    0.000    0.000 
#    0.000    1.000    0.500    0.000    0.000    0.000 
#
# Total GULP energy -178505.375016 kJ/mol
# GULP energy per Si atom -5578.292969 kJ/mol
# Density = 1.858603 g / cm^3
# Si number density = 18.628431 Si / 1000 Ang^3
#
#
#
# Elastic Constant Matrix: (Units=GPa)
#
#
# Indices 1 2 3 4 5 6 
#
# 1 94.7251 17.2930 22.6829 0.0570 -33.7618 -0.0099
# 2 17.2930 95.4289 6.8997 0.0440 10.4279 -0.0054
# 3 22.6829 6.8997 65.7860 0.0817 -28.9920 0.0020
# 4 0.0570 0.0440 0.0817 27.0196 0.0077 2.6948
# 5 -33.7618 10.4279 -28.9920 0.0077 35.8909 -0.0027
# 6 -0.0099 -0.0054 0.0020 2.6948 -0.0027 24.7770
#
#
#
# Elastic Compliance Matrix: (Units=1/GPa)
#
#
# Indices 1 2 3 4 5 6 
#
# 1 0.018888 -0.006255 0.004308 -0.000051 0.023065 0.000014
# 2 -0.006255 0.013584 -0.005591 0.000012 -0.014346 -0.000002
# 3 0.004308 -0.005591 0.026092 -0.000088 0.026754 0.000011
# 4 -0.000051 0.000012 -0.000088 0.037416 -0.000130 -0.004069
# 5 0.023065 -0.014346 0.026754 -0.000130 0.075338 0.000026
# 6 0.000014 -0.000002 0.000011 -0.004069 0.000026 0.040803
#
#
# Mechanical properties :
#
#
# Convention : Reuss Voigt Hill
#
# Bulk Modulus (GPa) = 22.99361 38.85457 30.92409
# Shear Modulus (GPa) = 20.68744 31.47514 26.08129
#
# Velocity S-wave (km/s) = 3.33608 4.11497 3.74582
# Velocity P-wave (km/s) = 5.21625 6.59396 5.94515
#
# Compressibility (1/GPa) = 0.04349035
#
# Stress axis : x y z
#
# Youngs Moduli (GPa) = 52.94437 73.61427 38.32546
#
# Poissons Ratio (x) = 0.46042 -0.16512
# Poissons Ratio (y) = 0.33114 0.21427
# Poissons Ratio (z) = -0.22810 0.41156
#
# Static dielectric constant tensor:
#      x y z
#    x 1.704470 0.000010 0.015400 
#    y 0.000010 1.664250 0.000050 
#    z 0.015400 0.000050 1.656550 
# 
# From -- ./inp_files/217176.got.cif
#   From: 2010.05.17/outbox.cif.g08.bks.cpg/sg15_109_cif.got.tgz:217176.got - 2010.06.03 18:47:42.
