data_PCOD9270731
_publ_section_title
;
Structure prediction by ZEFSAII (Michael W. Deem and Ramdas Pophale) SiO2 
 PCOD9270731
Probable space group: C 2/C
;
_chemical_formula_sum "Si O2"
_cell_formula_units_Z 64
_cell_length_a 12.583256
_cell_length_b 17.262474
_cell_length_c 31.835378
_cell_angle_alpha 90.000000
_cell_angle_beta 29.509117
_cell_angle_gamma 90.000000
_cell_volume 3406.175536
_symmetry_space_group_name_H-M "C 2/C"
_symmetry_group_IT_number 15
_symmetry_cell_setting 'monoclinic'
loop_
_space_group_symop_operation_xyz
x,y,z
-x,y,1/2-z
-x,-y,-z
x,-y,1/2+z
1/2+x,1/2+y,z
1/2-x,1/2+y,1/2-z
1/2-x,1/2-y,-z
1/2+x,1/2-y,1/2+z
loop_
_atom_site_type_symbol
_atom_site_label
_atom_site_fract_x
_atom_site_fract_y
_atom_site_fract_z
Si Si1 0.795233 0.588756 0.071909
Si Si2 0.751370 0.040331 0.844069
Si Si3 0.302434 0.036497 0.972798
Si Si4 0.152064 0.827574 0.463858
Si Si5 0.502875 0.750790 0.633607
Si Si6 0.362640 0.633800 0.982532
Si Si7 0.490877 0.276645 0.702859
Si Si8 0.346394 0.194249 0.579472
O O1 0.805888 0.511680 0.095660
O O2 0.777587 0.568920 0.028790
O O3 0.596469 0.640526 0.155974
O O4 0.006482 0.643804 0.003786
O O5 0.724218 0.131694 0.862229
O O6 0.000000 0.023885 0.750000
O O7 0.559479 0.021465 0.877731
O O8 0.217036 0.101098 0.970449
O O9 0.178751 0.955840 0.011480
O O10 0.360836 0.785263 0.372579
O O11 0.003721 0.853973 0.475853
O O12 0.007347 0.762795 0.537762
O O13 0.520107 0.678585 0.595664
O O14 0.635451 0.821577 0.567279
O O15 0.638536 0.727816 0.627952
O O16 0.256346 0.771311 0.725840
O O17 0.500000 0.264360 0.750000
#
# Coordination Sequence:
#
# PCOD9270731 Si02
#       8
#     8   8   8   8   8   8   8   8
#     4  10  22  39  60  86 120 156 196 248 303 349
#     4  11  23  36  58  93 119 149 194 257 301 351
#     4  11  23  40  62  83 123 165 196 241 303 363
#     4  10  22  40  61  87 115 161 206 236 292 363
#     4  10  20  35  63  88 116 155 197 247 300 349
#     4  10  20  37  62  88 114 159 202 240 292 362
#     4  11  22  37  61  89 122 149 196 260 294 353
#     4   9  20  39  58  83 119 153 198 238 287 367
#
# _framework density 18.789401999999999
#
# number of rings (size 3 to 8) (size 9 to 14) (size 15 to 20)
#    0.000    1.750    1.250    3.750    7.000    4.500 
#    0.000    0.000    0.000    0.000    0.000    0.000 
#    0.000    0.000    0.000    0.000    0.000    0.000 
#
# Total GULP energy -178661.968154 kJ/mol
# GULP energy per Si atom -5583.186505 kJ/mol
# Density = 1.874664 g / cm^3
# Si number density = 18.789402 Si / 1000 Ang^3
#
#
#
# Elastic Constant Matrix: (Units=GPa)
#
#
# Indices 1 2 3 4 5 6 
#
# 1 53.9936 33.0308 27.8491 0.0014 -19.1139 -0.0011
# 2 33.0308 113.5614 27.0188 -0.0061 -6.3026 -0.0009
# 3 27.8491 27.0188 87.3687 0.0005 -31.7156 0.0008
# 4 0.0014 -0.0061 0.0005 19.8362 0.0000 5.8981
# 5 -19.1139 -6.3026 -31.7156 0.0000 29.1161 -0.0023
# 6 -0.0011 -0.0009 0.0008 5.8981 -0.0023 33.5139
#
#
#
# Elastic Compliance Matrix: (Units=1/GPa)
#
#
# Indices 1 2 3 4 5 6 
#
# 1 0.029467 -0.007391 -0.001101 -0.000005 0.016545 0.000003
# 2 -0.007391 0.011422 -0.003375 0.000004 -0.006055 -0.000001
# 3 -0.001101 -0.003375 0.020366 -0.000002 0.020731 0.000001
# 4 -0.000005 0.000004 -0.000002 0.053197 -0.000005 -0.009362
# 5 0.016545 -0.006055 0.020731 -0.000005 0.066477 0.000005
# 6 0.000003 -0.000001 0.000001 -0.009362 0.000005 0.031486
#
#
# Mechanical properties :
#
#
# Convention : Reuss Voigt Hill
#
# Bulk Modulus (GPa) = 26.65100 47.85791 37.25445
# Shear Modulus (GPa) = 20.10821 27.62825 23.86823
#
# Velocity S-wave (km/s) = 3.27492 3.83876 3.56800
# Velocity P-wave (km/s) = 5.33994 6.72117 6.06997
#
# Compressibility (1/GPa) = 0.03752205
#
# Stress axis : x y z
#
# Youngs Moduli (GPa) = 33.93648 87.54801 49.10209
#
# Poissons Ratio (x) = 0.64703 0.05407
# Poissons Ratio (y) = 0.25081 0.16570
# Poissons Ratio (z) = 0.03737 0.29544
#
# Static dielectric constant tensor:
#      x y z
#    x 1.651540 0.000000 -0.005810 
#    y 0.000000 1.642750 0.000000 
#    z -0.005810 0.000000 1.664100 
# 
# From -- ./inp_files/311625.got.cif
#   From: 2010.05.17/outbox.cif.g08.bks.cpg/sg15_156_cif.got.tgz:311625.got - 2010.06.03 18:47:42.
