data_PCOD9270536
_publ_section_title
;
Structure prediction by ZEFSAII (Michael W. Deem and Ramdas Pophale) SiO2 
 PCOD9270536
Probable space group: C 2/C
;
_chemical_formula_sum "Si O2"
_cell_formula_units_Z 52
_cell_length_a 17.084448
_cell_length_b 12.736428
_cell_length_c 22.026726
_cell_angle_alpha 90.000000
_cell_angle_beta 24.128315
_cell_angle_gamma 90.000000
_cell_volume 1959.249768
_symmetry_space_group_name_H-M "C 2/C"
_symmetry_group_IT_number 15
_symmetry_cell_setting 'monoclinic'
loop_
_space_group_symop_operation_xyz
x,y,z
-x,y,1/2-z
-x,-y,-z
x,-y,1/2+z
1/2+x,1/2+y,z
1/2-x,1/2+y,1/2-z
1/2-x,1/2-y,-z
1/2+x,1/2-y,1/2+z
loop_
_atom_site_type_symbol
_atom_site_label
_atom_site_fract_x
_atom_site_fract_y
_atom_site_fract_z
Si Si1 0.000000 0.444573 0.250000
Si Si2 0.711292 0.853088 0.443294
Si Si3 0.239838 0.130310 0.447396
Si Si4 0.325937 0.585212 0.327782
Si Si5 0.474846 0.621898 0.539337
Si Si6 0.557913 0.115689 0.837862
Si Si7 0.783132 0.612529 0.228374
O O1 0.966314 0.384898 0.335510
O O2 0.831628 0.526313 0.355184
O O3 0.715535 0.871332 0.513374
O O4 0.809754 0.739786 0.368929
O O5 0.799144 0.958577 0.354281
O O6 0.494903 0.838057 0.572886
O O7 0.025218 0.123964 0.575153
O O8 0.500000 0.614826 0.250000
O O9 0.338463 0.604865 0.247324
O O10 0.124553 0.637609 0.491213
O O11 0.500000 0.500000 0.500000
O O12 0.263711 0.669272 0.682176
O O13 0.644385 0.666490 0.376121
O O14 0.639306 0.003349 0.805080
#
# Coordination Sequence:
#
# PCOD9270536 Si02
#       7
#     4   8   8   8   8   8   8
#     4  12  18  34  56  88 126 152 202 240 292 352
#     4  10  22  37  56  90 132 162 187 241 306 379
#     4  11  20  36  59  90 128 163 193 237 309 367
#     4  11  24  38  57  87 120 161 200 251 302 353
#     4  10  20  35  60  83 115 163 207 242 281 358
#     4  10  21  34  58  80 118 155 201 248 282 354
#     4  10  20  39  55  83 122 156 206 248 292 348
#
# _framework density 26.540769999999998
#
# number of rings (size 3 to 8) (size 9 to 14) (size 15 to 20)
#    0.000    1.538    6.154    1.846    7.538    0.000 
#    0.000    0.000    0.000    0.000    2.000    2.154 
#    0.000    0.000    0.000    0.000    0.000    0.000 
#
# Total GULP energy -145149.923932 kJ/mol
# GULP energy per Si atom -5582.689382 kJ/mol
# Density = 2.648036 g / cm^3
# Si number density = 26.540770 Si / 1000 Ang^3
#
#
#
# Elastic Constant Matrix: (Units=GPa)
#
#
# Indices 1 2 3 4 5 6 
#
# 1 201.9371 26.4852 52.4149 -0.0252 -3.9191 0.0079
# 2 26.4852 49.6092 4.4984 0.0186 -4.9279 -0.0058
# 3 52.4149 4.4984 150.7595 -0.0204 -21.1269 0.0149
# 4 -0.0252 0.0186 -0.0204 47.1704 0.0053 -15.1435
# 5 -3.9191 -4.9279 -21.1269 0.0053 50.3611 -0.0062
# 6 0.0079 -0.0058 0.0149 -15.1435 -0.0062 28.8986
#
#
#
# Elastic Compliance Matrix: (Units=1/GPa)
#
#
# Indices 1 2 3 4 5 6 
#
# 1 0.005865 -0.003015 -0.002047 0.000004 -0.000697 0.000001
# 2 -0.003015 0.021922 0.000703 -0.000010 0.002205 0.000000
# 3 -0.002047 0.000703 0.007768 0.000001 0.003168 -0.000002
# 4 0.000004 -0.000010 0.000001 0.025488 -0.000001 0.013356
# 5 -0.000697 0.002205 0.003168 -0.000001 0.021347 0.000003
# 6 0.000001 0.000000 -0.000002 0.013356 0.000003 0.041603
#
#
# Mechanical properties :
#
#
# Convention : Reuss Voigt Hill
#
# Bulk Modulus (GPa) = 37.26067 63.23366 50.24716
# Shear Modulus (GPa) = 35.29670 46.54650 40.92160
#
# Velocity S-wave (km/s) = 3.65074 4.19235 3.93089
# Velocity P-wave (km/s) = 5.64270 6.87832 6.29092
#
# Compressibility (1/GPa) = 0.02683795
#
# Stress axis : x y z
#
# Youngs Moduli (GPa) = 170.49607 45.61530 128.73767
#
# Poissons Ratio (x) = 0.13753 0.26352
# Poissons Ratio (y) = 0.51404 -0.09052
# Poissons Ratio (z) = 0.34899 -0.03207
#
# Static dielectric constant tensor:
#      x y z
#    x -0.706980 -0.000230 1.727110 
#    y -0.000230 2.233110 0.000150 
#    z 1.727110 0.000150 1.065100 
# 
# From -- ./inp_files/245005.got.cif
#   From: 2010.05.17/outbox.cif.g08.bks.cpg/sg15_123_cif.got.tgz:245005.got - 2010.06.03 18:47:42.
