data_PCOD9270079
_publ_section_title
;
Structure prediction by ZEFSAII (Michael W. Deem and Ramdas Pophale) SiO2 
 PCOD9270079
Probable space group: C 2/C
;
_chemical_formula_sum "Si O2"
_cell_formula_units_Z 52
_cell_length_a 23.267985
_cell_length_b 9.769754
_cell_length_c 25.756200
_cell_angle_alpha 90.000000
_cell_angle_beta 20.199819
_cell_angle_gamma 90.000000
_cell_volume 2021.690995
_symmetry_space_group_name_H-M "C 2/C"
_symmetry_group_IT_number 15
_symmetry_cell_setting 'monoclinic'
loop_
_space_group_symop_operation_xyz
x,y,z
-x,y,1/2-z
-x,-y,-z
x,-y,1/2+z
1/2+x,1/2+y,z
1/2-x,1/2+y,1/2-z
1/2-x,1/2-y,-z
1/2+x,1/2-y,1/2+z
loop_
_atom_site_type_symbol
_atom_site_label
_atom_site_fract_x
_atom_site_fract_y
_atom_site_fract_z
Si Si1 0.011826 0.916122 0.625090
Si Si2 0.587636 0.777957 0.424901
Si Si3 0.678684 0.336553 0.183123
Si Si4 0.306589 0.946399 0.712222
Si Si5 0.030471 0.584842 0.127457
Si Si6 0.500000 0.369010 0.750000
Si Si7 0.146047 0.666893 0.695579
O O1 0.914867 0.771745 0.708474
O O2 0.056544 0.939647 0.648925
O O3 0.174551 0.900974 0.452930
O O4 0.896824 0.046615 0.715754
O O5 0.673663 0.768666 0.408657
O O6 0.410216 0.849941 0.583900
O O7 0.628517 0.628248 0.368118
O O8 0.685599 0.896038 0.310246
O O9 0.541165 0.223827 0.287422
O O10 0.777732 0.402288 0.051323
O O11 0.417438 0.937704 0.671054
O O12 0.988406 0.451955 0.195977
O O13 0.646006 0.268715 0.646581
#
# Coordination Sequence:
#
# PCOD9270079 Si02
#       7
#     8   8   8   8   8   4   8
#     4  10  20  35  57  81 108 140 177 220 269 321
#     4   9  19  35  53  76 107 142 181 223 267 316
#     4  10  20  35  55  79 110 145 182 225 272 322
#     4   9  19  35  53  76 107 142 181 223 267 316
#     4  10  20  35  55  79 110 145 182 225 272 322
#     4   8  22  36  60  80 110 140 180 220 274 324
#     4  10  20  35  57  81 108 140 177 220 269 321
#
# _framework density 25.721043999999999
#
# number of rings (size 3 to 8) (size 9 to 14) (size 15 to 20)
#    0.923    1.538    0.000    2.308    0.000    3.077 
#    0.000    3.846    0.000    3.692    0.000    0.000 
#    0.000    0.000    0.000    0.000    0.000    0.000 
#
# Total GULP energy -145157.031617 kJ/mol
# GULP energy per Si atom -5582.962754 kJ/mol
# Density = 2.566250 g / cm^3
# Si number density = 25.721044 Si / 1000 Ang^3
#
#
#
# Elastic Constant Matrix: (Units=GPa)
#
#
# Indices 1 2 3 4 5 6 
#
# 1 40.0070 -6.9526 -7.4150 0.0001 4.0744 0.0012
# 2 -6.9526 102.6737 35.2461 -0.0010 4.3051 0.0011
# 3 -7.4150 35.2461 98.7015 -0.0083 0.7746 0.0053
# 4 0.0001 -0.0010 -0.0083 40.6054 0.0033 -3.2031
# 5 4.0744 4.3051 0.7746 0.0033 18.5965 -0.0019
# 6 0.0012 0.0011 0.0053 -3.2031 -0.0019 21.8468
#
#
#
# Elastic Compliance Matrix: (Units=1/GPa)
#
#
# Indices 1 2 3 4 5 6 
#
# 1 0.026159 0.001525 0.001469 0.000001 -0.006145 -0.000002
# 2 0.001525 0.011298 -0.003898 0.000000 -0.002787 0.000000
# 3 0.001469 -0.003898 0.011633 0.000002 0.000096 -0.000002
# 4 0.000001 0.000000 0.000002 0.024915 -0.000004 0.003653
# 5 -0.006145 -0.002787 0.000096 -0.000004 0.055761 0.000005
# 6 -0.000002 0.000000 -0.000002 0.003653 0.000005 0.046309
#
#
# Mechanical properties :
#
#
# Convention : Reuss Voigt Hill
#
# Bulk Modulus (GPa) = 21.15012 31.45990 26.30501
# Shear Modulus (GPa) = 25.82056 30.90998 28.36527
#
# Velocity S-wave (km/s) = 3.17183 3.47037 3.32445
# Velocity P-wave (km/s) = 4.65346 5.32125 4.99852
#
# Compressibility (1/GPa) = 0.04728105
#
# Stress axis : x y z
#
# Youngs Moduli (GPa) = 38.22818 88.51256 85.96137
#
# Poissons Ratio (x) = -0.13496 -0.12627
# Poissons Ratio (y) = -0.05829 0.33508
# Poissons Ratio (z) = -0.05615 0.34502
#
# Static dielectric constant tensor:
#      x y z
#    x 2.143970 0.000000 0.008810 
#    y 0.000000 2.026870 0.000000 
#    z 0.008810 0.000000 2.039360 
# 
# From -- ./inp_files/320176.got.cif
#   From: 2010.05.17/outbox.cif.g08.bks.cpg/sg15_161_cif.got.tgz:320176.got - 2010.06.03 18:47:42.
