data_PCOD9270446
_publ_section_title
;
Structure prediction by ZEFSAII (Michael W. Deem and Ramdas Pophale) SiO2 
 PCOD9270446
Probable space group: C 2/C
;
_chemical_formula_sum "Si O2"
_cell_formula_units_Z 40
_cell_length_a 22.077678
_cell_length_b 9.786025
_cell_length_c 9.596063
_cell_angle_alpha 90.000000
_cell_angle_beta 128.310860
_cell_angle_gamma 90.000000
_cell_volume 1626.798268
_symmetry_space_group_name_H-M "C 2/C"
_symmetry_group_IT_number 15
_symmetry_cell_setting 'monoclinic'
loop_
_space_group_symop_operation_xyz
x,y,z
-x,y,1/2-z
-x,-y,-z
x,-y,1/2+z
1/2+x,1/2+y,z
1/2-x,1/2+y,1/2-z
1/2-x,1/2-y,-z
1/2+x,1/2-y,1/2+z
loop_
_atom_site_type_symbol
_atom_site_label
_atom_site_fract_x
_atom_site_fract_y
_atom_site_fract_z
Si Si1 0.070166 0.039151 0.774719
Si Si2 0.427907 0.284910 0.985433
Si Si3 0.338066 0.217170 0.585772
Si Si4 0.844415 0.604278 0.054590
Si Si5 0.674928 0.328220 0.232740
O O1 0.136019 0.040708 0.752693
O O2 0.000000 0.955435 0.750000
O O3 0.013174 0.151879 0.616307
O O4 0.113767 0.108890 0.967806
O O5 0.396635 0.269619 0.787187
O O6 0.414167 0.146569 0.051538
O O7 0.250000 0.250000 0.500000
O O8 0.353346 0.292881 0.461690
O O9 0.346537 0.055108 0.587223
O O10 0.766056 0.641955 0.859990
O O11 0.839680 0.696017 0.188159
#
# Coordination Sequence:
#
# PCOD9270446 Si02
#       5
#     8   8   8   8   8
#     4   7  17  37  57  76 118 152 181 224 295 345
#     4   8  17  37  52  81 114 144 186 233 279 330
#     4  12  22  33  56  91 117 140 196 248 272 331
#     4  10  20  37  55  82 115 154 190 225 294 341
#     4  10  20  35  59  81 112 156 184 228 292 346
#
# _framework density 24.588173999999999
#
# number of rings (size 3 to 8) (size 9 to 14) (size 15 to 20)
#    1.200    1.200    2.000    1.200    0.000    0.800 
#    0.000   18.000    0.000    1.200    0.000    0.000 
#    0.000    0.000    0.000    0.000    0.000    0.000 
#
# Total GULP energy -111486.044392 kJ/mol
# GULP energy per Si atom -5574.302220 kJ/mol
# Density = 2.453221 g / cm^3
# Si number density = 24.588174 Si / 1000 Ang^3
#
#
#
# Elastic Constant Matrix: (Units=GPa)
#
#
# Indices 1 2 3 4 5 6 
#
# 1 52.7405 -16.3508 5.3526 0.0000 4.1327 0.0000
# 2 -16.3508 102.5888 7.0867 0.0000 -4.3021 0.0000
# 3 5.3526 7.0867 190.0400 0.0000 -20.3760 0.0000
# 4 0.0000 0.0000 0.0000 19.1331 0.0000 -11.3951
# 5 4.1327 -4.3021 -20.3760 0.0000 42.6704 0.0000
# 6 0.0000 0.0000 0.0000 -11.3951 0.0000 26.0898
#
#
#
# Elastic Compliance Matrix: (Units=1/GPa)
#
#
# Indices 1 2 3 4 5 6 
#
# 1 0.020206 0.003197 -0.000910 0.000000 -0.002069 0.000000
# 2 0.003197 0.010308 -0.000418 0.000000 0.000530 0.000000
# 3 -0.000910 -0.000418 0.005595 0.000000 0.002718 0.000000
# 4 0.000000 0.000000 0.000000 0.070641 0.000000 0.030854
# 5 -0.002069 0.000530 0.002718 0.000000 0.024987 0.000000
# 6 0.000000 0.000000 0.000000 0.030854 0.000000 0.051805
#
#
# Mechanical properties :
#
#
# Convention : Reuss Voigt Hill
#
# Bulk Modulus (GPa) = 25.09607 37.50512 31.30059
# Shear Modulus (GPa) = 25.89505 40.86404 33.37955
#
# Velocity S-wave (km/s) = 3.24875 4.08111 3.68848
# Velocity P-wave (km/s) = 4.92963 6.12321 5.55855
#
# Compressibility (1/GPa) = 0.03984688
#
# Stress axis : x y z
#
# Youngs Moduli (GPa) = 49.48947 97.00994 178.74252
#
# Poissons Ratio (x) = -0.31010 0.16269
# Poissons Ratio (y) = -0.15820 0.07464
# Poissons Ratio (z) = 0.04505 0.04051
#
# Static dielectric constant tensor:
#      x y z
#    x 2.011950 0.000000 -0.052780 
#    y 0.000000 2.151090 0.000000 
#    z -0.052780 0.000000 1.956680 
# 
# From -- ./inp_files/64930.got.cif
#   From: 2010.05.17/outbox.cif.g08.bks.cpg/sg15_33_cif.got.tgz:64930.got - 2010.06.03 18:47:42.
