data_PCOD9270460
_publ_section_title
;
Structure prediction by ZEFSAII (Michael W. Deem and Ramdas Pophale) SiO2 
 PCOD9270460
Probable space group: C 2/C
;
_chemical_formula_sum "Si O2"
_cell_formula_units_Z 52
_cell_length_a 10.832367
_cell_length_b 25.780045
_cell_length_c 13.672406
_cell_angle_alpha 90.000000
_cell_angle_beta 132.118347
_cell_angle_gamma 90.000000
_cell_volume 2832.148685
_symmetry_space_group_name_H-M "C 2/C"
_symmetry_group_IT_number 15
_symmetry_cell_setting 'monoclinic'
loop_
_space_group_symop_operation_xyz
x,y,z
-x,y,1/2-z
-x,-y,-z
x,-y,1/2+z
1/2+x,1/2+y,z
1/2-x,1/2+y,1/2-z
1/2-x,1/2-y,-z
1/2+x,1/2-y,1/2+z
loop_
_atom_site_type_symbol
_atom_site_label
_atom_site_fract_x
_atom_site_fract_y
_atom_site_fract_z
Si Si1 0.241740 0.409696 0.238041
Si Si2 0.079174 0.700183 0.688621
Si Si3 0.081220 0.746029 0.081012
Si Si4 0.500000 0.022872 0.750000
Si Si5 0.405303 0.959536 0.516206
Si Si6 0.946634 0.152627 0.608465
Si Si7 0.052429 0.643882 0.388447
O O1 0.151283 0.353122 0.180620
O O2 0.132257 0.442193 0.258351
O O3 0.430539 0.393129 0.363140
O O4 0.241634 0.440657 0.134858
O O5 0.231248 0.738802 0.792804
O O6 0.000000 0.685928 0.750000
O O7 0.954035 0.728958 0.548811
O O8 0.979381 0.796709 0.060116
O O9 0.016580 0.697317 0.107830
O O10 0.396932 0.987110 0.617703
O O11 0.509598 0.906856 0.587440
O O12 0.500000 0.000000 0.500000
O O13 0.752188 0.141606 0.500202
O O14 0.000000 0.163301 0.750000
O O15 0.000000 0.638693 0.250000
#
# Coordination Sequence:
#
# PCOD9270460 Si02
#       7
#     8   8   8   4   8   8   8
#     4  10  20  38  62  87 117 155 200 240 300 356
#     4  11  21  37  57  86 120 161 199 241 287 359
#     4  11  22  36  56  88 119 159 195 240 296 355
#     4  10  20  38  64  90 116 152 200 250 298 360
#     4  10  20  35  59  85 109 149 199 240 290 352
#     4  11  21  37  60  89 122 155 194 244 299 357
#     4  12  21  36  58  85 119 152 194 247 297 346
#
# _framework density 18.360617999999999
#
# number of rings (size 3 to 8) (size 9 to 14) (size 15 to 20)
#    0.000    1.231    4.615    3.231    0.000    0.000 
#    0.000    0.769    3.385    0.000    0.000    0.000 
#    0.000    0.000    0.000    0.000    0.000    0.000 
#
# Total GULP energy -144873.911772 kJ/mol
# GULP energy per Si atom -5572.073530 kJ/mol
# Density = 1.831883 g / cm^3
# Si number density = 18.360618 Si / 1000 Ang^3
#
#
#
# Elastic Constant Matrix: (Units=GPa)
#
#
# Indices 1 2 3 4 5 6 
#
# 1 55.5862 30.7734 22.0846 0.0000 -7.7573 0.0000
# 2 30.7734 106.0967 46.8795 0.0000 3.3847 0.0000
# 3 22.0846 46.8795 99.3608 0.0000 -14.6733 0.0000
# 4 0.0000 0.0000 0.0000 39.7394 0.0000 -15.5788
# 5 -7.7573 3.3847 -14.6733 0.0000 29.1934 0.0000
# 6 0.0000 0.0000 0.0000 -15.5788 0.0000 41.2956
#
#
#
# Elastic Compliance Matrix: (Units=1/GPa)
#
#
# Indices 1 2 3 4 5 6 
#
# 1 0.022807 -0.006288 -0.001188 0.000000 0.006192 0.000000
# 2 -0.006288 0.014226 -0.006270 0.000000 -0.006472 0.000000
# 3 -0.001188 -0.006270 0.014418 0.000000 0.007658 0.000000
# 4 0.000000 0.000000 0.000000 0.029531 0.000000 0.011141
# 5 0.006192 -0.006472 0.007658 0.000000 0.040499 0.000000
# 6 0.000000 0.000000 0.000000 0.011141 0.000000 0.028418
#
#
# Mechanical properties :
#
#
# Convention : Reuss Voigt Hill
#
# Bulk Modulus (GPa) = 41.73846 51.16874 46.45360
# Shear Modulus (GPa) = 26.97180 32.79942 29.88561
#
# Velocity S-wave (km/s) = 3.83692 4.23117 4.03886
# Velocity P-wave (km/s) = 6.51239 7.19720 6.86334
#
# Compressibility (1/GPa) = 0.02395872
#
# Stress axis : x y z
#
# Youngs Moduli (GPa) = 43.84549 70.29322 69.35931
#
# Poissons Ratio (x) = 0.44199 0.08241
# Poissons Ratio (y) = 0.27569 0.43490
# Poissons Ratio (z) = 0.05210 0.44075
#
# Static dielectric constant tensor:
#      x y z
#    x 1.644990 0.000000 -0.020100 
#    y 0.000000 1.640070 0.000000 
#    z -0.020100 0.000000 1.645680 
# 
# From -- ./inp_files/148146.got.cif
#   From: 2010.05.17/outbox.cif.g08.bks.cpg/sg15_75_cif.got.tgz:148146.got - 2010.06.03 18:47:42.
