data_PCOD9271478
_publ_section_title
;
Structure prediction by ZEFSAII (Michael W. Deem and Ramdas Pophale) SiO2 
 PCOD9271478
Probable space group: C 2/C
;
_chemical_formula_sum "Si O2"
_cell_formula_units_Z 64
_cell_length_a 16.617026
_cell_length_b 10.750066
_cell_length_c 31.994542
_cell_angle_alpha 90.000000
_cell_angle_beta 146.548264
_cell_angle_gamma 90.000000
_cell_volume 3150.479097
_symmetry_space_group_name_H-M "C 2/C"
_symmetry_group_IT_number 15
_symmetry_cell_setting 'monoclinic'
loop_
_space_group_symop_operation_xyz
x,y,z
-x,y,1/2-z
-x,-y,-z
x,-y,1/2+z
1/2+x,1/2+y,z
1/2-x,1/2+y,1/2-z
1/2-x,1/2-y,-z
1/2+x,1/2-y,1/2+z
loop_
_atom_site_type_symbol
_atom_site_label
_atom_site_fract_x
_atom_site_fract_y
_atom_site_fract_z
Si Si1 0.921358 0.748810 0.061431
Si Si2 0.003408 0.988706 0.150946
Si Si3 0.419455 0.136682 0.966255
Si Si4 0.951057 0.501751 0.351704
Si Si5 0.766590 0.105086 0.003864
Si Si6 0.753148 0.599448 0.206166
Si Si7 0.492710 0.397870 0.961599
Si Si8 0.795619 0.876414 0.198511
O O1 0.023879 0.644928 0.126387
O O2 0.989773 0.875009 0.111199
O O3 0.750000 0.750000 0.000000
O O4 0.915664 0.701332 0.010555
O O5 0.062344 0.946089 0.221595
O O6 0.125785 0.085434 0.186344
O O7 0.843793 0.049748 0.078644
O O8 0.262208 0.122868 0.874353
O O9 0.496395 0.250420 0.973965
O O10 0.500000 0.000000 0.000000
O O11 0.109928 0.447128 0.425449
O O12 0.876616 0.503976 0.274102
O O13 0.841351 0.436088 0.335928
O O14 0.750000 0.250000 0.000000
O O15 0.878208 0.077643 0.014906
O O16 0.811040 0.736970 0.222752
O O17 0.664204 0.572867 0.126251
O O18 0.500000 0.500000 0.000000
#
# Coordination Sequence:
#
# PCOD9271478 Si02
#       8
#     8   8   8   8   8   8   8   8
#     4  12  23  37  62  89 124 156 203 251 311 368
#     4  10  20  36  59  89 124 161 205 247 307 373
#     4  11  22  38  62  93 121 162 206 259 314 372
#     4  11  20  35  61  91 119 153 204 249 297 358
#     4  11  22  38  63  90 121 162 205 256 301 369
#     4   9  19  35  60  87 118 157 205 246 295 365
#     4  10  22  41  62  87 123 164 207 251 312 373
#     4  10  20  38  59  90 122 160 204 254 304 365
#
# _framework density 20.314368999999999
#
# number of rings (size 3 to 8) (size 9 to 14) (size 15 to 20)
#    0.000    1.500    3.750    3.750    0.000    0.000 
#    0.000    1.250    0.000    0.000    0.000    0.000 
#    0.000    0.000    0.000    0.000    0.000    0.000 
#
# Total GULP energy -178180.148739 kJ/mol
# GULP energy per Si atom -5568.129648 kJ/mol
# Density = 2.026813 g / cm^3
# Si number density = 20.314369 Si / 1000 Ang^3
#
#
#
# Elastic Constant Matrix: (Units=GPa)
#
#
# Indices 1 2 3 4 5 6 
#
# 1 30.2329 -6.5321 24.8277 0.0000 0.2674 0.0000
# 2 -6.5321 64.7568 31.7568 0.0000 -3.0675 0.0000
# 3 24.8277 31.7568 168.4576 0.0000 -1.3426 0.0000
# 4 0.0000 0.0000 0.0000 30.9165 0.0000 -1.3604
# 5 0.2674 -3.0675 -1.3426 0.0000 30.3182 0.0000
# 6 0.0000 0.0000 0.0000 -1.3604 0.0000 22.4944
#
#
#
# Elastic Compliance Matrix: (Units=1/GPa)
#
#
# Indices 1 2 3 4 5 6 
#
# 1 0.040926 0.007813 -0.007504 0.000000 0.000097 0.000000
# 2 0.007813 0.018583 -0.004642 0.000000 0.001606 0.000000
# 3 -0.007504 -0.004642 0.007917 0.000000 -0.000053 0.000000
# 4 0.000000 0.000000 0.000000 0.032431 0.000000 0.001961
# 5 0.000097 0.001606 -0.000053 0.000000 0.033143 0.000000
# 6 0.000000 0.000000 0.000000 0.001961 0.000000 0.044574
#
#
# Mechanical properties :
#
#
# Convention : Reuss Voigt Hill
#
# Bulk Modulus (GPa) = 17.01844 40.39470 28.70657
# Shear Modulus (GPa) = 24.29230 30.97214 27.63222
#
# Velocity S-wave (km/s) = 3.46181 3.90890 3.69213
# Velocity P-wave (km/s) = 4.93706 6.34828 5.68662
#
# Compressibility (1/GPa) = 0.05875979
#
# Stress axis : x y z
#
# Youngs Moduli (GPa) = 24.43438 53.81295 126.31404
#
# Poissons Ratio (x) = -0.42043 0.94784
# Poissons Ratio (y) = -0.19090 0.58633
# Poissons Ratio (z) = 0.18335 0.24979
#
# Static dielectric constant tensor:
#      x y z
#    x 1.725340 0.000000 -0.019450 
#    y 0.000000 1.753770 0.000000 
#    z -0.019450 0.000000 1.765730 
# 
# From -- ./inp_files/316232.got.cif
#   From: 2010.05.17/outbox.cif.g08.bks.cpg/sg15_159_cif.got.tgz:316232.got - 2010.06.03 18:47:42.
