data_PCOD9271069
_publ_section_title
;
Structure prediction by ZEFSAII (Michael W. Deem and Ramdas Pophale) SiO2 
 PCOD9271069
Probable space group: C 2/C
;
_chemical_formula_sum "Si O2"
_cell_formula_units_Z 48
_cell_length_a 5.224617
_cell_length_b 27.076711
_cell_length_c 15.832896
_cell_angle_alpha 90.000000
_cell_angle_beta 101.294141
_cell_angle_gamma 90.000000
_cell_volume 2196.433103
_symmetry_space_group_name_H-M "C 2/C"
_symmetry_group_IT_number 15
_symmetry_cell_setting 'monoclinic'
loop_
_space_group_symop_operation_xyz
x,y,z
-x,y,1/2-z
-x,-y,-z
x,-y,1/2+z
1/2+x,1/2+y,z
1/2-x,1/2+y,1/2-z
1/2-x,1/2-y,-z
1/2+x,1/2-y,1/2+z
loop_
_atom_site_type_symbol
_atom_site_label
_atom_site_fract_x
_atom_site_fract_y
_atom_site_fract_z
Si Si1 0.168219 0.024884 0.936490
Si Si2 0.290718 0.140209 0.565282
Si Si3 0.000000 0.437222 0.750000
Si Si4 0.793754 0.791907 0.070464
Si Si5 0.500000 0.297469 0.250000
Si Si6 0.000000 0.993448 0.250000
Si Si7 0.500000 0.867039 0.250000
Si Si8 0.458757 0.923196 0.932704
O O1 0.361181 0.980042 0.922445
O O2 0.293454 0.071406 0.990308
O O3 0.050452 0.037771 0.837797
O O4 0.000000 0.000000 0.000000
O O5 0.518626 0.180724 0.566464
O O6 0.405625 0.109227 0.654447
O O7 0.268975 0.109006 0.477824
O O8 0.019554 0.168248 0.563718
O O9 0.258624 0.471363 0.761605
O O10 0.994005 0.408143 0.660589
O O11 0.910761 0.767557 0.163075
O O12 0.750000 0.750000 0.000000
O O13 0.251272 0.332701 0.249345
#
# Coordination Sequence:
#
# PCOD9271069 Si02
#       8
#     8   8   4   8   4   4   4   8
#     4  10  20  38  57  81 115 153 202 243 290 343
#     4  10  21  36  58  85 116 148 190 234 286 343
#     4  10  20  36  58  76 112 159 192 231 300 346
#     4  10  20  37  61  85 114 150 186 229 285 346
#     4   8  16  32  56  80 112 145 176 215 282 346
#     4  10  20  36  57  80 109 153 200 241 291 344
#     4   8  16  34  51  80 113 147 174 223 291 338
#     4  10  22  37  57  84 114 156 196 244 288 346
#
# _framework density 21.853611999999998
#
# number of rings (size 3 to 8) (size 9 to 14) (size 15 to 20)
#    0.000    2.333    1.667    0.500    2.333    0.000 
#    3.000    1.667    0.000    2.000    0.000    0.000 
#    0.000    0.000    0.000    0.000    0.000    0.000 
#
# Total GULP energy -133712.856862 kJ/mol
# GULP energy per Si atom -5571.369036 kJ/mol
# Density = 2.180387 g / cm^3
# Si number density = 21.853612 Si / 1000 Ang^3
#
#
#
# Elastic Constant Matrix: (Units=GPa)
#
#
# Indices 1 2 3 4 5 6 
#
# 1 115.2296 8.0435 7.0289 0.0000 1.1135 0.0000
# 2 8.0435 28.4787 27.2034 0.0000 10.8131 0.0000
# 3 7.0289 27.2034 223.3695 0.0000 1.0240 0.0000
# 4 0.0000 0.0000 0.0000 -23.9849 0.0000 -3.8911
# 5 1.1135 10.8131 1.0240 0.0000 25.4174 0.0000
# 6 0.0000 0.0000 0.0000 -3.8911 0.0000 23.0020
#
#
#
# Elastic Compliance Matrix: (Units=1/GPa)
#
#
# Indices 1 2 3 4 5 6 
#
# 1 0.008868 -0.002888 0.000069 0.000000 0.000838 0.000000
# 2 -0.002888 0.049320 -0.005821 0.000000 -0.020621 0.000000
# 3 0.000069 -0.005821 0.005173 0.000000 0.002265 0.000000
# 4 0.000000 0.000000 0.000000 -0.040579 0.000000 -0.006865
# 5 0.000838 -0.020621 0.002265 0.000000 0.047988 0.000000
# 6 0.000000 0.000000 0.000000 -0.006865 0.000000 0.042313
#
#
# Mechanical properties :
#
#
# Convention : Reuss Voigt Hill
#
# Bulk Modulus (GPa) = 21.70164 50.18104 35.94134
# Shear Modulus (GPa) = 34.31164 26.54036 30.42600
#
# Velocity S-wave (km/s) = 3.96671 3.48869 3.73535
# Velocity P-wave (km/s) = 5.56163 6.26420 5.92334
#
# Compressibility (1/GPa) = 0.04607946
#
# Stress axis : x y z
#
# Youngs Moduli (GPa) = 112.76947 20.27591 193.30160
#
# Poissons Ratio (x) = 0.05856 -0.01331
# Poissons Ratio (y) = 0.32572 1.12522
# Poissons Ratio (z) = -0.00777 0.11803
#
# Static dielectric constant tensor:
#      x y z
#    x 1.862780 0.000000 0.034310 
#    y 0.000000 1.778330 0.000000 
#    z 0.034310 0.000000 1.977440 
# 
# From -- ./inp_files/130386.got.cif
#   From: 2010.05.17/outbox.cif.g08.bks.cpg/sg15_66_cif.got.tgz:130386.got - 2010.06.03 18:47:42.
