data_PCOD9271007
_publ_section_title
;
Structure prediction by ZEFSAII (Michael W. Deem and Ramdas Pophale) SiO2 
 PCOD9271007
Probable space group: C 2/C
;
_chemical_formula_sum "Si O2"
_cell_formula_units_Z 52
_cell_length_a 22.516813
_cell_length_b 13.051474
_cell_length_c 8.837561
_cell_angle_alpha 90.000000
_cell_angle_beta 117.075542
_cell_angle_gamma 90.000000
_cell_volume 2312.530999
_symmetry_space_group_name_H-M "C 2/C"
_symmetry_group_IT_number 15
_symmetry_cell_setting 'monoclinic'
loop_
_space_group_symop_operation_xyz
x,y,z
-x,y,1/2-z
-x,-y,-z
x,-y,1/2+z
1/2+x,1/2+y,z
1/2-x,1/2+y,1/2-z
1/2-x,1/2-y,-z
1/2+x,1/2-y,1/2+z
loop_
_atom_site_type_symbol
_atom_site_label
_atom_site_fract_x
_atom_site_fract_y
_atom_site_fract_z
Si Si1 0.076187 0.371138 0.355315
Si Si2 0.860862 0.972598 0.188055
Si Si3 0.865190 0.545938 0.876798
Si Si4 0.440957 0.430240 0.996949
Si Si5 0.000000 0.748737 0.250000
Si Si6 0.877324 0.747949 0.311485
Si Si7 0.716726 0.893846 0.935724
O O1 0.084772 0.478135 0.460561
O O2 0.102611 0.384959 0.215775
O O3 0.112822 0.291004 0.507335
O O4 0.000000 0.342244 0.250000
O O5 0.880714 0.869678 0.302434
O O6 0.876897 0.068856 0.312097
O O7 0.913125 0.982058 0.114816
O O8 0.788812 0.944821 0.039894
O O9 0.821505 0.467425 0.727296
O O10 0.817933 0.602246 0.940588
O O11 0.500000 0.500000 0.000000
O O12 0.466131 0.320327 0.082209
O O13 0.062987 0.701588 0.229073
O O14 0.805220 0.714545 0.162011
#
# Coordination Sequence:
#
# PCOD9271007 Si02
#       7
#     8   8   8   8   4   8   8
#     4  10  20  36  56  85 113 152 192 241 293 342
#     4  11  22  38  61  88 113 160 196 248 302 356
#     4   9  20  37  58  83 113 153 198 239 278 355
#     4  11  19  39  61  84 118 147 210 247 298 352
#     4  10  22  40  60  88 122 162 200 240 314 358
#     4  10  22  37  57  84 124 155 193 244 304 356
#     4  10  20  38  60  84 121 155 200 240 297 358
#
# _framework density 22.486186
#
# number of rings (size 3 to 8) (size 9 to 14) (size 15 to 20)
#    0.000    1.846    3.077    1.846    2.154    0.000 
#    6.923    0.769    0.000    0.000    0.000    0.000 
#    0.000    0.000    0.000    0.000    0.000    0.000 
#
# Total GULP energy -145012.334722 kJ/mol
# GULP energy per Si atom -5577.397489 kJ/mol
# Density = 2.243501 g / cm^3
# Si number density = 22.486186 Si / 1000 Ang^3
#
#
#
# Elastic Constant Matrix: (Units=GPa)
#
#
# Indices 1 2 3 4 5 6 
#
# 1 66.2046 11.5157 53.2671 0.0000 -2.0204 0.0000
# 2 11.5157 31.4780 27.7913 0.0000 -2.0484 0.0000
# 3 53.2671 27.7913 129.6879 0.0000 4.9494 0.0000
# 4 0.0000 0.0000 0.0000 23.7956 0.0000 4.5680
# 5 -2.0204 -2.0484 4.9494 0.0000 48.8624 0.0000
# 6 0.0000 0.0000 0.0000 4.5680 0.0000 18.5149
#
#
#
# Elastic Compliance Matrix: (Units=1/GPa)
#
#
# Indices 1 2 3 4 5 6 
#
# 1 0.022734 0.000142 -0.009440 0.000000 0.001902 0.000000
# 2 0.000142 0.039489 -0.008617 0.000000 0.002534 0.000000
# 3 -0.009440 -0.008617 0.013516 0.000000 -0.002121 0.000000
# 4 0.000000 0.000000 0.000000 0.044114 0.000000 -0.010884
# 5 0.001902 0.002534 -0.002121 0.000000 0.020865 0.000000
# 6 0.000000 0.000000 0.000000 -0.010884 0.000000 0.056696
#
#
# Mechanical properties :
#
#
# Convention : Reuss Voigt Hill
#
# Bulk Modulus (GPa) = 25.05822 45.83541 35.44681
# Shear Modulus (GPa) = 20.28001 27.22100 23.75051
#
# Velocity S-wave (km/s) = 3.00640 3.48309 3.25349
# Velocity P-wave (km/s) = 4.81864 6.05012 5.46915
#
# Compressibility (1/GPa) = 0.03990706
#
# Stress axis : x y z
#
# Youngs Moduli (GPa) = 43.98753 25.32336 73.98694
#
# Poissons Ratio (x) = -0.00359 0.69847
# Poissons Ratio (y) = -0.00624 0.63756
# Poissons Ratio (z) = 0.41526 0.21822
#
# Static dielectric constant tensor:
#      x y z
#    x 1.858450 0.000000 0.027390 
#    y 0.000000 1.943670 0.000000 
#    z 0.027390 0.000000 1.873520 
# 
# From -- ./inp_files/61666.got.cif
#   From: 2010.05.17/outbox.cif.g08.bks.cpg/sg15_31_cif.got.tgz:61666.got - 2010.06.03 18:47:42.
