data_PCOD9271608
_publ_section_title
;
Structure prediction by ZEFSAII (Michael W. Deem and Ramdas Pophale) SiO2 
 PCOD9271608
Probable space group: C 2/C
;
_chemical_formula_sum "Si O2"
_cell_formula_units_Z 48
_cell_length_a 24.623880
_cell_length_b 9.114751
_cell_length_c 19.849304
_cell_angle_alpha 90.000000
_cell_angle_beta 36.281685
_cell_angle_gamma 90.000000
_cell_volume 2636.264016
_symmetry_space_group_name_H-M "C 2/C"
_symmetry_group_IT_number 15
_symmetry_cell_setting 'monoclinic'
loop_
_space_group_symop_operation_xyz
x,y,z
-x,y,1/2-z
-x,-y,-z
x,-y,1/2+z
1/2+x,1/2+y,z
1/2-x,1/2+y,1/2-z
1/2-x,1/2-y,-z
1/2+x,1/2-y,1/2+z
loop_
_atom_site_type_symbol
_atom_site_label
_atom_site_fract_x
_atom_site_fract_y
_atom_site_fract_z
Si Si1 0.001577 0.155668 0.036907
Si Si2 0.160486 0.667570 0.310947
Si Si3 0.514672 0.495597 0.310461
Si Si4 0.848114 0.650494 0.618977
Si Si5 0.631619 0.233686 0.045185
Si Si6 0.149694 0.266041 0.674623
O O1 0.989705 0.114599 0.126746
O O2 0.922647 0.259917 0.086822
O O3 0.094793 0.237490 0.924203
O O4 0.000000 0.000000 0.000000
O O5 0.170216 0.506159 0.330371
O O6 0.256514 0.752079 0.210621
O O7 0.121217 0.661913 0.273714
O O8 0.500000 0.555461 0.250000
O O9 0.433565 0.374579 0.401083
O O10 0.608700 0.399797 0.219428
O O11 0.879975 0.634815 0.509264
O O12 0.612745 0.175407 0.139726
O O13 0.739871 0.273871 0.938573
#
# Coordination Sequence:
#
# PCOD9271608 Si02
#       6
#     8   8   8   8   8   8
#     4  12  21  38  61  86 116 152 193 249 296 345
#     4  11  23  37  59  88 120 156 198 243 293 349
#     4  10  20  36  60  88 117 156 195 239 295 354
#     4  11  23  37  59  88 120 156 198 243 293 349
#     4   9  18  33  56  83 114 152 199 236 282 354
#     4   9  18  33  56  83 114 152 199 236 282 354
#
# _framework density 18.207584000000001
#
# number of rings (size 3 to 8) (size 9 to 14) (size 15 to 20)
#    0.000    1.667    3.333    1.500    4.667    0.000 
#    0.000    1.667    0.000    2.000    0.000    0.000 
#    0.000    0.000    0.000    0.000    0.000    0.000 
#
# Total GULP energy -133810.515927 kJ/mol
# GULP energy per Si atom -5575.438164 kJ/mol
# Density = 1.816614 g / cm^3
# Si number density = 18.207584 Si / 1000 Ang^3
#
#
#
# Elastic Constant Matrix: (Units=GPa)
#
#
# Indices 1 2 3 4 5 6 
#
# 1 103.3811 49.6969 42.6189 -0.0006 29.4374 0.0006
# 2 49.6969 112.3036 35.9582 -0.0008 15.0169 0.0009
# 3 42.6189 35.9582 78.3323 -0.0004 13.2163 0.0005
# 4 -0.0006 -0.0008 -0.0004 28.9370 0.0001 -1.3081
# 5 29.4374 15.0169 13.2163 0.0001 64.8374 -0.0002
# 6 0.0006 0.0009 0.0005 -1.3081 -0.0002 23.6064
#
#
#
# Elastic Compliance Matrix: (Units=1/GPa)
#
#
# Indices 1 2 3 4 5 6 
#
# 1 0.015479 -0.004414 -0.005574 0.000000 -0.004869 0.000000
# 2 -0.004414 0.011839 -0.003012 0.000000 -0.000124 0.000000
# 3 -0.005574 -0.003012 0.017229 0.000000 -0.000284 0.000000
# 4 0.000000 0.000000 0.000000 0.034645 0.000000 0.001920
# 5 -0.004869 -0.000124 -0.000284 0.000000 0.017720 0.000000
# 6 0.000000 0.000000 0.000000 0.001920 0.000000 0.042468
#
#
# Mechanical properties :
#
#
# Convention : Reuss Voigt Hill
#
# Bulk Modulus (GPa) = 53.91707 61.17388 57.54548
# Shear Modulus (GPa) = 29.14377 34.52569 31.83473
#
# Velocity S-wave (km/s) = 4.00514 4.35929 4.18596
# Velocity P-wave (km/s) = 7.14597 7.68172 7.41868
#
# Compressibility (1/GPa) = 0.01854700
#
# Stress axis : x y z
#
# Youngs Moduli (GPa) = 64.60220 84.46835 58.04034
#
# Poissons Ratio (x) = 0.37285 0.32352
# Poissons Ratio (y) = 0.28516 0.17482
# Poissons Ratio (z) = 0.36010 0.25442
#
# Static dielectric constant tensor:
#      x y z
#    x 1.665570 0.000000 0.012400 
#    y 0.000000 1.560770 0.000000 
#    z 0.012400 0.000000 1.667230 
# 
# From -- ./inp_files/256881.got.cif
#   From: 2010.05.17/outbox.cif.g08.bks.cpg/sg15_129_cif.got.tgz:256881.got - 2010.06.03 18:47:42.
