data_PCOD9271412
_publ_section_title
;
Structure prediction by ZEFSAII (Michael W. Deem and Ramdas Pophale) SiO2 
 PCOD9271412
Probable space group: C 2/C
;
_chemical_formula_sum "Si O2"
_cell_formula_units_Z 60
_cell_length_a 6.142225
_cell_length_b 23.874921
_cell_length_c 18.557221
_cell_angle_alpha 90.000000
_cell_angle_beta 89.306096
_cell_angle_gamma 90.000000
_cell_volume 2721.126638
_symmetry_space_group_name_H-M "C 2/C"
_symmetry_group_IT_number 15
_symmetry_cell_setting 'monoclinic'
loop_
_space_group_symop_operation_xyz
x,y,z
-x,y,1/2-z
-x,-y,-z
x,-y,1/2+z
1/2+x,1/2+y,z
1/2-x,1/2+y,1/2-z
1/2-x,1/2-y,-z
1/2+x,1/2-y,1/2+z
loop_
_atom_site_type_symbol
_atom_site_label
_atom_site_fract_x
_atom_site_fract_y
_atom_site_fract_z
Si Si1 0.866816 0.678372 0.826088
Si Si2 0.000000 0.116889 0.750000
Si Si3 0.574160 0.417837 0.003508
Si Si4 0.012101 0.199465 0.164506
Si Si5 0.809138 0.304224 0.954950
Si Si6 0.151632 0.575977 0.857986
Si Si7 0.406217 0.979976 0.922802
Si Si8 0.692804 0.124247 0.430067
O O1 0.626274 0.655114 0.808657
O O2 0.870755 0.741409 0.854894
O O3 0.000000 0.682350 0.750000
O O4 0.012457 0.633137 0.868136
O O5 0.802856 0.082429 0.787017
O O6 0.680764 0.357465 0.986951
O O7 0.660333 0.461987 0.943286
O O8 0.321829 0.406259 0.994000
O O9 0.673408 0.433664 0.079418
O O10 0.140663 0.147528 0.129427
O O11 0.000000 0.193592 0.250000
O O12 0.778029 0.202717 0.126307
O O13 0.058026 0.322430 0.956880
O O14 0.750000 0.250000 0.000000
O O15 0.974851 0.526543 0.865180
O O16 0.526740 0.922172 0.901890
O O17 0.500000 0.000000 0.000000
#
# Coordination Sequence:
#
# PCOD9271412 Si02
#       8
#     8   4   8   8   8   8   8   8
#     4   9  20  37  55  81 117 155 197 245 306 376
#     4  10  22  36  58  92 116 154 208 256 312 378
#     4   9  20  36  58  87 115 157 203 246 311 373
#     4  10  22  39  61  88 124 167 205 255 323 395
#     4  10  21  37  58  88 126 158 206 261 314 372
#     4  10  20  36  59  85 120 155 202 258 318 375
#     4   9  20  38  59  84 117 161 199 255 313 379
#     4  10  22  39  60  91 120 157 211 255 313 378
#
# _framework density 22.049689999999998
#
# number of rings (size 3 to 8) (size 9 to 14) (size 15 to 20)
#    0.000    2.400    0.000    0.800    0.000   14.400 
#    1.200    0.000   11.733    0.000    0.000    0.000 
#    0.000    0.000    0.000    0.000    0.000    0.000 
#
# Total GULP energy -167441.991353 kJ/mol
# GULP energy per Si atom -5581.399712 kJ/mol
# Density = 2.199950 g / cm^3
# Si number density = 22.049690 Si / 1000 Ang^3
#
#
#
# Elastic Constant Matrix: (Units=GPa)
#
#
# Indices 1 2 3 4 5 6 
#
# 1 88.3703 23.2902 27.7166 0.0000 9.0601 0.0000
# 2 23.2902 103.6595 24.7123 0.0000 -9.3560 0.0000
# 3 27.7166 24.7123 59.2352 0.0000 6.1819 0.0000
# 4 0.0000 0.0000 0.0000 27.8474 0.0000 -7.9088
# 5 9.0601 -9.3560 6.1819 0.0000 28.6642 0.0000
# 6 0.0000 0.0000 0.0000 -7.9088 0.0000 41.1969
#
#
#
# Elastic Compliance Matrix: (Units=1/GPa)
#
#
# Indices 1 2 3 4 5 6 
#
# 1 0.013945 -0.002268 -0.005158 0.000000 -0.004036 0.000000
# 2 -0.002268 0.011698 -0.004391 0.000000 0.005482 0.000000
# 3 -0.005158 -0.004391 0.021593 0.000000 -0.004460 0.000000
# 4 0.000000 0.000000 0.000000 0.037981 0.000000 0.007291
# 5 -0.004036 0.005482 -0.004460 0.000000 0.038914 0.000000
# 6 0.000000 0.000000 0.000000 0.007291 0.000000 0.025673
#
#
# Mechanical properties :
#
#
# Convention : Reuss Voigt Hill
#
# Bulk Modulus (GPa) = 42.36906 44.74480 43.55693
# Shear Modulus (GPa) = 27.57782 31.24475 29.41129
#
# Velocity S-wave (km/s) = 3.54038 3.76841 3.65617
# Velocity P-wave (km/s) = 5.99744 6.26668 6.13354
#
# Compressibility (1/GPa) = 0.02360213
#
# Stress axis : x y z
#
# Youngs Moduli (GPa) = 71.70948 85.48308 46.31197
#
# Poissons Ratio (x) = 0.19386 0.23887
# Poissons Ratio (y) = 0.16263 0.20337
# Poissons Ratio (z) = 0.36986 0.37539
#
# Static dielectric constant tensor:
#      x y z
#    x 1.866970 0.000000 0.017440 
#    y 0.000000 1.835220 0.000000 
#    z 0.017440 0.000000 1.833570 
# 
# From -- ./inp_files/228148.got.cif
#   From: 2010.05.17/outbox.cif.g08.bks.cpg/sg15_115_cif.got.tgz:228148.got - 2010.06.03 18:47:42.
