data_PCOD9271001
_publ_section_title
;
Structure prediction by ZEFSAII (Michael W. Deem and Ramdas Pophale) SiO2 
 PCOD9271001
Probable space group: C 2/C
;
_chemical_formula_sum "Si O2"
_cell_formula_units_Z 56
_cell_length_a 29.681656
_cell_length_b 14.765132
_cell_length_c 9.479052
_cell_angle_alpha 90.000000
_cell_angle_beta 132.689498
_cell_angle_gamma 90.000000
_cell_volume 3053.519391
_symmetry_space_group_name_H-M "C 2/C"
_symmetry_group_IT_number 15
_symmetry_cell_setting 'monoclinic'
loop_
_space_group_symop_operation_xyz
x,y,z
-x,y,1/2-z
-x,-y,-z
x,-y,1/2+z
1/2+x,1/2+y,z
1/2-x,1/2+y,1/2-z
1/2-x,1/2-y,-z
1/2+x,1/2-y,1/2+z
loop_
_atom_site_type_symbol
_atom_site_label
_atom_site_fract_x
_atom_site_fract_y
_atom_site_fract_z
Si Si1 0.126441 0.526297 0.731226
Si Si2 0.312536 0.608196 0.450381
Si Si3 0.249164 0.712835 0.775044
Si Si4 0.240265 0.967338 0.385512
Si Si5 0.147849 0.724818 0.808691
Si Si6 0.932509 0.412551 0.669558
Si Si7 0.928946 0.796942 0.091585
O O1 0.119521 0.626989 0.781781
O O2 0.080293 0.456787 0.707411
O O3 0.113197 0.539414 0.538221
O O4 0.194967 0.494967 0.909235
O O5 0.272934 0.701091 0.362879
O O6 0.286357 0.547242 0.267430
O O7 0.303538 0.557132 0.577607
O O8 0.382295 0.636234 0.569226
O O9 0.249981 0.621302 0.689088
O O10 0.200005 0.707545 0.798782
O O11 0.315380 0.731849 0.984754
O O12 0.096827 0.784963 0.622605
O O13 0.922322 0.304459 0.643686
O O14 0.000000 0.427374 0.750000
O O15 0.000000 0.821939 0.250000
#
# Coordination Sequence:
#
# PCOD9271001 Si02
#       7
#     8   8   8   8   8   8   8
#     4  11  19  34  53  87 112 148 185 233 281 342
#     4  11  23  38  58  89 115 149 190 241 294 344
#     4  10  20  36  56  84 122 151 187 230 291 350
#     4  12  23  35  60  89 120 148 186 242 297 347
#     4   9  18  33  58  81 112 153 189 230 288 337
#     4  10  21  36  57  81 114 155 193 229 278 341
#     4   9  20  40  60  77 110 159 198 232 285 348
#
# _framework density 18.339493000000001
#
# number of rings (size 3 to 8) (size 9 to 14) (size 15 to 20)
#    0.000    1.714    1.429    5.143    4.000    0.000 
#    0.000    0.714    0.000    0.000    0.000    0.000 
#    0.000    0.000    0.000    0.000    0.000    0.000 
#
# Total GULP energy -156398.433334 kJ/mol
# GULP energy per Si atom -5585.658333 kJ/mol
# Density = 1.829775 g / cm^3
# Si number density = 18.339493 Si / 1000 Ang^3
#
#
#
# Elastic Constant Matrix: (Units=GPa)
#
#
# Indices 1 2 3 4 5 6 
#
# 1 63.7160 25.7866 19.4256 0.0000 12.7532 0.0000
# 2 25.7866 57.1791 12.9459 0.0000 3.6425 0.0000
# 3 19.4256 12.9459 64.6513 0.0000 18.7933 0.0000
# 4 0.0000 0.0000 0.0000 24.5681 0.0000 -0.6767
# 5 12.7532 3.6425 18.7933 0.0000 24.8763 0.0000
# 6 0.0000 0.0000 0.0000 -0.6767 0.0000 18.7922
#
#
#
# Elastic Compliance Matrix: (Units=1/GPa)
#
#
# Indices 1 2 3 4 5 6 
#
# 1 0.021525 -0.008652 -0.002429 0.000000 -0.007933 0.000000
# 2 -0.008652 0.021797 -0.002725 0.000000 0.003303 0.000000
# 3 -0.002429 -0.002725 0.020842 0.000000 -0.014101 0.000000
# 4 0.000000 0.000000 0.000000 0.040744 0.000000 0.001467
# 5 -0.007933 0.003303 -0.014101 0.000000 0.054436 0.000000
# 6 0.000000 0.000000 0.000000 0.001467 0.000000 0.053266
#
#
# Mechanical properties :
#
#
# Convention : Reuss Voigt Hill
#
# Bulk Modulus (GPa) = 27.35807 33.54027 30.44917
# Shear Modulus (GPa) = 19.80938 22.13986 20.97462
#
# Velocity S-wave (km/s) = 3.29013 3.47828 3.38551
# Velocity P-wave (km/s) = 5.42063 5.87022 5.64990
#
# Compressibility (1/GPa) = 0.03655228
#
# Stress axis : x y z
#
# Youngs Moduli (GPa) = 46.45866 45.87722 47.97952
#
# Poissons Ratio (x) = 0.39692 0.11654
# Poissons Ratio (y) = 0.40195 0.13075
# Poissons Ratio (z) = 0.11284 0.12502
#
# Static dielectric constant tensor:
#      x y z
#    x 1.627090 0.000000 0.006560 
#    y 0.000000 1.639470 0.000000 
#    z 0.006560 0.000000 1.650550 
# 
# From -- ./inp_files/69884.got.cif
#   From: 2010.05.17/outbox.cif.g08.bks.cpg/sg15_35_cif.got.tgz:69884.got - 2010.06.03 18:47:42.
