data_PCOD9271440
_publ_section_title
;
Structure prediction by ZEFSAII (Michael W. Deem and Ramdas Pophale) SiO2 
 PCOD9271440
Probable space group: C 2/C
;
_chemical_formula_sum "Si O2"
_cell_formula_units_Z 64
_cell_length_a 17.692091
_cell_length_b 28.877545
_cell_length_c 12.047477
_cell_angle_alpha 90.000000
_cell_angle_beta 32.555169
_cell_angle_gamma 90.000000
_cell_volume 3312.133005
_symmetry_space_group_name_H-M "C 2/C"
_symmetry_group_IT_number 15
_symmetry_cell_setting 'monoclinic'
loop_
_space_group_symop_operation_xyz
x,y,z
-x,y,1/2-z
-x,-y,-z
x,-y,1/2+z
1/2+x,1/2+y,z
1/2-x,1/2+y,1/2-z
1/2-x,1/2-y,-z
1/2+x,1/2-y,1/2+z
loop_
_atom_site_type_symbol
_atom_site_label
_atom_site_fract_x
_atom_site_fract_y
_atom_site_fract_z
Si Si1 0.346942 0.566315 0.394253
Si Si2 0.206205 0.555756 0.344954
Si Si3 0.164268 0.959508 0.048530
Si Si4 0.429711 0.305744 0.961583
Si Si5 0.307515 0.874549 0.247713
Si Si6 0.561060 0.848769 0.054952
Si Si7 0.365223 0.952289 0.996430
Si Si8 0.776369 0.228570 0.341336
O O1 0.500000 0.578752 0.250000
O O2 0.329424 0.562606 0.283945
O O3 0.316938 0.515221 0.478690
O O4 0.234752 0.601603 0.582948
O O5 0.098798 0.597209 0.498916
O O6 0.143792 0.504523 0.443803
O O7 0.261068 0.559808 0.152493
O O8 0.233814 0.944673 0.077227
O O9 0.000000 0.949530 0.250000
O O10 0.500000 0.311701 0.750000
O O11 0.560822 0.284995 0.866090
O O12 0.340278 0.351131 0.104956
O O13 0.305605 0.268301 0.121650
O O14 0.357836 0.913876 0.100768
O O15 0.438053 0.840961 0.116487
O O16 0.699165 0.817447 0.889989
O O17 0.500000 0.837083 0.250000
O O18 0.500000 0.948848 0.750000
O O19 0.750000 0.250000 0.500000
#
# Coordination Sequence:
#
# PCOD9271440 Si02
#       8
#     8   8   8   8   8   8   8   8
#     4  10  22  34  55  85 119 155 208 257 310 365
#     4  11  23  38  61  84 123 169 217 261 313 372
#     4  10  23  40  57  81 115 167 213 265 312 354
#     4  10  20  36  59  87 124 162 192 246 310 387
#     4  12  23  37  59  89 122 166 209 254 306 369
#     4  12  22  34  56  89 122 164 207 251 308 379
#     4  11  25  41  59  85 125 167 216 267 310 359
#     4  10  21  37  57  88 131 162 195 242 317 383
#
# _framework density 19.322896
#
# number of rings (size 3 to 8) (size 9 to 14) (size 15 to 20)
#    0.000    1.250    2.500    4.875    5.250    2.500 
#    0.000    0.000    0.000    0.000    0.000    8.750 
#    0.000    0.000    0.000    0.000    0.000    0.000 
#
# Total GULP energy -178372.707532 kJ/mol
# GULP energy per Si atom -5574.147110 kJ/mol
# Density = 1.927892 g / cm^3
# Si number density = 19.322896 Si / 1000 Ang^3
#
#
#
# Elastic Constant Matrix: (Units=GPa)
#
#
# Indices 1 2 3 4 5 6 
#
# 1 72.8221 29.9224 22.1621 0.0002 -23.1280 0.0000
# 2 29.9224 69.9328 23.6388 0.0000 -10.8236 -0.0001
# 3 22.1621 23.6388 39.6504 0.0005 -14.9415 -0.0002
# 4 0.0002 0.0000 0.0005 22.1883 -0.0003 -6.8199
# 5 -23.1280 -10.8236 -14.9415 -0.0003 35.6410 0.0002
# 6 0.0000 -0.0001 -0.0002 -6.8199 0.0002 17.5471
#
#
#
# Elastic Compliance Matrix: (Units=1/GPa)
#
#
# Indices 1 2 3 4 5 6 
#
# 1 0.020535 -0.005811 -0.004343 0.000000 0.009740 0.000000
# 2 -0.005811 0.019592 -0.009039 0.000000 -0.001610 0.000000
# 3 -0.004343 -0.009039 0.036745 -0.000001 0.009841 0.000000
# 4 0.000000 0.000000 -0.000001 0.051183 0.000000 0.019893
# 5 0.009740 -0.001610 0.009841 0.000000 0.038015 0.000000
# 6 0.000000 0.000000 0.000000 0.019893 0.000000 0.064721
#
#
# Mechanical properties :
#
#
# Convention : Reuss Voigt Hill
#
# Bulk Modulus (GPa) = 25.98358 37.09465 31.53911
# Shear Modulus (GPa) = 17.73011 22.18740 19.95876
#
# Velocity S-wave (km/s) = 3.03243 3.39225 3.21737
# Velocity P-wave (km/s) = 5.07317 5.88065 5.49177
#
# Compressibility (1/GPa) = 0.03848585
#
# Stress axis : x y z
#
# Youngs Moduli (GPa) = 48.69764 51.04130 27.21429
#
# Poissons Ratio (x) = 0.29659 0.11819
# Poissons Ratio (y) = 0.28297 0.24600
# Poissons Ratio (z) = 0.21150 0.46138
#
# Static dielectric constant tensor:
#      x y z
#    x 1.726910 0.000000 -0.056510 
#    y 0.000000 1.752220 0.000000 
#    z -0.056510 0.000000 1.666000 
# 
# From -- ./inp_files/108631.got.cif
#   From: 2010.05.17/outbox.cif.g08.bks.cpg/sg15_55_cif.got.tgz:108631.got - 2010.06.03 18:47:42.
