data_PCOD9271456
_publ_section_title
;
Structure prediction by ZEFSAII (Michael W. Deem and Ramdas Pophale) SiO2 
 PCOD9271456
Probable space group: C 2/C
;
_chemical_formula_sum "Si O2"
_cell_formula_units_Z 52
_cell_length_a 25.429524
_cell_length_b 9.722777
_cell_length_c 21.764754
_cell_angle_alpha 90.000000
_cell_angle_beta 148.087268
_cell_angle_gamma 90.000000
_cell_volume 2844.668348
_symmetry_space_group_name_H-M "C 2/C"
_symmetry_group_IT_number 15
_symmetry_cell_setting 'monoclinic'
loop_
_space_group_symop_operation_xyz
x,y,z
-x,y,1/2-z
-x,-y,-z
x,-y,1/2+z
1/2+x,1/2+y,z
1/2-x,1/2+y,1/2-z
1/2-x,1/2-y,-z
1/2+x,1/2-y,1/2+z
loop_
_atom_site_type_symbol
_atom_site_label
_atom_site_fract_x
_atom_site_fract_y
_atom_site_fract_z
Si Si1 0.360680 0.357328 0.512467
Si Si2 0.972631 0.615051 0.394107
Si Si3 0.470117 0.600163 0.555262
Si Si4 0.366618 0.383692 0.821741
Si Si5 0.000000 0.738104 0.750000
Si Si6 0.630588 0.884223 0.579868
Si Si7 0.869699 0.369114 0.229529
O O1 0.400502 0.499604 0.524730
O O2 0.419245 0.325551 0.632631
O O3 0.380337 0.236069 0.481639
O O4 0.243124 0.361330 0.404519
O O5 0.922507 0.657774 0.409229
O O6 0.894719 0.514140 0.284835
O O7 0.000217 0.754223 0.386763
O O8 0.070586 0.521021 0.501094
O O9 0.569551 0.511613 0.640450
O O10 0.410928 0.635956 0.433690
O O11 0.248139 0.409416 0.705831
O O12 0.383270 0.251245 0.794304
O O13 0.057126 0.653327 0.754712
#
# Coordination Sequence:
#
# PCOD9271456 Si02
#       7
#     8   8   8   8   4   8   8
#     4  11  23  41  65  90 118 160 206 247 292 352
#     4  11  21  35  58  90 127 154 190 252 312 363
#     4  11  21  35  58  90 127 154 190 252 312 363
#     4  10  20  36  59  88 122 161 200 243 300 362
#     4  12  22  44  66  86 112 164 216 246 272 350
#     4  10  20  36  59  88 122 161 200 243 300 362
#     4  11  23  41  65  90 118 160 206 247 292 352
#
# _framework density 18.279810999999999
#
# number of rings (size 3 to 8) (size 9 to 14) (size 15 to 20)
#    0.000    1.231    3.077    5.077    0.000    4.923 
#    0.000    0.769    0.000    1.846    0.000    0.000 
#    0.000    0.000    0.000    0.000    0.000    0.000 
#
# Total GULP energy -145228.962767 kJ/mol
# GULP energy per Si atom -5585.729337 kJ/mol
# Density = 1.823821 g / cm^3
# Si number density = 18.279811 Si / 1000 Ang^3
#
#
#
# Elastic Constant Matrix: (Units=GPa)
#
#
# Indices 1 2 3 4 5 6 
#
# 1 29.0230 -7.0451 6.2015 0.0000 0.8818 0.0000
# 2 -7.0451 76.3847 19.1820 0.0000 -4.8429 0.0000
# 3 6.2015 19.1820 124.2711 0.0000 6.5238 0.0000
# 4 0.0000 0.0000 0.0000 13.6331 0.0000 2.6434
# 5 0.8818 -4.8429 6.5238 0.0000 35.7056 0.0000
# 6 0.0000 0.0000 0.0000 2.6434 0.0000 7.1931
#
#
#
# Elastic Compliance Matrix: (Units=1/GPa)
#
#
# Indices 1 2 3 4 5 6 
#
# 1 0.035918 0.003921 -0.002402 0.000000 0.000084 0.000000
# 2 0.003921 0.014230 -0.002512 0.000000 0.002292 0.000000
# 3 -0.002402 -0.002512 0.008652 0.000000 -0.001862 0.000000
# 4 0.000000 0.000000 0.000000 0.078978 0.000000 -0.029024
# 5 0.000084 0.002292 -0.001862 0.000000 0.028656 0.000000
# 6 0.000000 0.000000 0.000000 -0.029024 0.000000 0.149688
#
#
# Mechanical properties :
#
#
# Convention : Reuss Voigt Hill
#
# Bulk Modulus (GPa) = 17.60145 29.59507 23.59826
# Shear Modulus (GPa) = 14.83474 25.39573 20.11524
#
# Velocity S-wave (km/s) = 2.85184 3.73135 3.32084
# Velocity P-wave (km/s) = 4.52701 5.89823 5.25751
#
# Compressibility (1/GPa) = 0.05681350
#
# Stress axis : x y z
#
# Youngs Moduli (GPa) = 27.84121 70.27626 115.57523
#
# Poissons Ratio (x) = -0.27558 0.27762
# Poissons Ratio (y) = -0.10917 0.29038
# Poissons Ratio (z) = 0.06688 0.17656
#
# Static dielectric constant tensor:
#      x y z
#    x 1.616630 0.000000 0.003800 
#    y 0.000000 1.630500 0.000000 
#    z 0.003800 0.000000 1.634150 
# 
# From -- ./inp_files/172067.got.cif
#   From: 2010.05.17/outbox.cif.g08.bks.cpg/sg15_87_cif.got.tgz:172067.got - 2010.06.03 18:47:42.
