data_PCOD9271387
_publ_section_title
;
Structure prediction by ZEFSAII (Michael W. Deem and Ramdas Pophale) SiO2 
 PCOD9271387
Probable space group: C 2/C
;
_chemical_formula_sum "Si O2"
_cell_formula_units_Z 48
_cell_length_a 22.094507
_cell_length_b 5.327487
_cell_length_c 23.469510
_cell_angle_alpha 90.000000
_cell_angle_beta 62.554064
_cell_angle_gamma 90.000000
_cell_volume 2451.617666
_symmetry_space_group_name_H-M "C 2/C"
_symmetry_group_IT_number 15
_symmetry_cell_setting 'monoclinic'
loop_
_space_group_symop_operation_xyz
x,y,z
-x,y,1/2-z
-x,-y,-z
x,-y,1/2+z
1/2+x,1/2+y,z
1/2-x,1/2+y,1/2-z
1/2-x,1/2-y,-z
1/2+x,1/2-y,1/2+z
loop_
_atom_site_type_symbol
_atom_site_label
_atom_site_fract_x
_atom_site_fract_y
_atom_site_fract_z
Si Si1 0.058752 0.805325 0.455873
Si Si2 0.897279 0.861502 0.654569
Si Si3 0.270359 0.043851 0.706838
Si Si4 0.469656 0.080949 0.921675
Si Si5 0.072848 0.483490 0.685226
Si Si6 0.856382 0.014830 0.299775
O O1 0.079732 0.677912 0.506440
O O2 0.018956 0.613285 0.432546
O O3 0.113012 0.952202 0.394090
O O4 0.000000 0.000000 0.500000
O O5 0.848968 0.620468 0.666078
O O6 0.976951 0.794080 0.621396
O O7 0.879278 0.972298 0.723567
O O8 0.239950 0.296062 0.750357
O O9 0.225601 0.998629 0.669859
O O10 0.437587 0.978057 0.878177
O O11 0.111936 0.233539 0.687268
O O12 0.000000 0.492424 0.750000
O O13 0.114750 0.733084 0.684212
#
# Coordination Sequence:
#
# PCOD9271387 Si02
#       6
#     8   8   8   8   8   8
#     4   9  20  36  58  85 113 148 204 246 291 334
#     4  10  20  36  59  84 116 151 199 247 291 344
#     4  10  22  37  58  84 119 156 198 245 286 347
#     4  10  21  36  57  89 114 154 193 248 297 345
#     4  12  23  35  58  83 126 155 186 236 300 371
#     4  11  23  37  55  89 121 157 187 232 301 357
#
# _framework density 19.57891
#
# number of rings (size 3 to 8) (size 9 to 14) (size 15 to 20)
#    0.000    1.667    1.667    3.500    9.333    0.000 
#    0.000    0.000    0.000    2.000    0.000    0.000 
#    0.000    0.000    0.000    0.000    0.000    0.000 
#
# Total GULP energy -133891.329524 kJ/mol
# GULP energy per Si atom -5578.805397 kJ/mol
# Density = 1.953435 g / cm^3
# Si number density = 19.578910 Si / 1000 Ang^3
#
#
#
# Elastic Constant Matrix: (Units=GPa)
#
#
# Indices 1 2 3 4 5 6 
#
# 1 81.8805 24.1422 24.8125 0.0124 26.9577 -0.0010
# 2 24.1422 100.9986 18.2618 -0.0284 13.9615 0.0026
# 3 24.8125 18.2618 83.4240 -0.0006 31.3024 -0.0127
# 4 0.0124 -0.0284 -0.0006 27.2438 -0.0060 5.0497
# 5 26.9577 13.9615 31.3024 -0.0060 28.7272 0.0059
# 6 -0.0010 0.0026 -0.0127 5.0497 0.0059 34.0573
#
#
#
# Elastic Compliance Matrix: (Units=1/GPa)
#
#
# Indices 1 2 3 4 5 6 
#
# 1 0.018249 -0.002198 0.001824 -0.000016 -0.018044 0.000007
# 2 -0.002198 0.010900 -0.000877 0.000012 -0.002279 -0.000003
# 3 0.001824 -0.000877 0.020501 -0.000009 -0.023624 0.000013
# 4 -0.000016 0.000012 -0.000009 0.037743 0.000028 -0.005596
# 5 -0.018044 -0.002279 -0.023624 0.000028 0.078592 -0.000027
# 6 0.000007 -0.000003 0.000013 -0.005596 -0.000027 0.030192
#
#
# Mechanical properties :
#
#
# Convention : Reuss Voigt Hill
#
# Bulk Modulus (GPa) = 21.20980 44.52622 32.86801
# Shear Modulus (GPa) = 23.32151 31.27809 27.29980
#
# Velocity S-wave (km/s) = 3.45506 4.00126 3.73815
# Velocity P-wave (km/s) = 5.17427 6.64365 5.95446
#
# Compressibility (1/GPa) = 0.04714802
#
# Stress axis : x y z
#
# Youngs Moduli (GPa) = 54.79781 91.74199 48.77917
#
# Poissons Ratio (x) = 0.20161 -0.08897
# Poissons Ratio (y) = 0.12042 0.04279
# Poissons Ratio (z) = -0.09995 0.08047
#
# Static dielectric constant tensor:
#      x y z
#    x 1.704960 -0.000020 -0.028910 
#    y -0.000020 1.768910 0.000020 
#    z -0.028910 0.000020 1.748100 
# 
# From -- ./inp_files/278597.got.cif
#   From: 2010.05.17/outbox.cif.g08.bks.cpg/sg15_140_cif.got.tgz:278597.got - 2010.06.03 18:47:42.
