data_PCOD9271191
_publ_section_title
;
Structure prediction by ZEFSAII (Michael W. Deem and Ramdas Pophale) SiO2 
 PCOD9271191
Probable space group: C 2/C
;
_chemical_formula_sum "Si O2"
_cell_formula_units_Z 44
_cell_length_a 6.591146
_cell_length_b 22.565821
_cell_length_c 15.934209
_cell_angle_alpha 90.000000
_cell_angle_beta 57.876112
_cell_angle_gamma 90.000000
_cell_volume 2007.127050
_symmetry_space_group_name_H-M "C 2/C"
_symmetry_group_IT_number 15
_symmetry_cell_setting 'monoclinic'
loop_
_space_group_symop_operation_xyz
x,y,z
-x,y,1/2-z
-x,-y,-z
x,-y,1/2+z
1/2+x,1/2+y,z
1/2-x,1/2+y,1/2-z
1/2-x,1/2-y,-z
1/2+x,1/2-y,1/2+z
loop_
_atom_site_type_symbol
_atom_site_label
_atom_site_fract_x
_atom_site_fract_y
_atom_site_fract_z
Si Si1 0.570535 0.418918 0.637267
Si Si2 0.512715 0.554918 0.647226
Si Si3 0.874767 0.299143 0.391135
Si Si4 0.097923 0.690887 0.430165
Si Si5 0.000000 0.601218 0.750000
Si Si6 0.142325 0.860694 0.973301
O O1 0.500000 0.413386 0.750000
O O2 0.608817 0.488473 0.614111
O O3 0.791904 0.374262 0.581192
O O4 0.382446 0.396539 0.608263
O O5 0.500000 0.567967 0.750000
O O6 0.656949 0.597679 0.552933
O O7 0.232966 0.562023 0.682353
O O8 0.975415 0.287220 0.460965
O O9 0.806900 0.237562 0.360049
O O10 0.611828 0.328655 0.457458
O O11 0.036894 0.350123 0.315138
O O12 0.867739 0.683153 0.423270
#
# Coordination Sequence:
#
# PCOD9271191 Si02
#       6
#     8   8   8   8   4   8
#     4  10  23  37  54  84 119 155 197 240 288 348
#     4  10  21  37  58  87 116 148 200 241 289 352
#     4   9  20  36  57  85 112 149 192 239 290 348
#     4  10  20  36  58  80 118 150 188 242 295 344
#     4  10  20  36  60  80 114 152 186 240 286 336
#     4  10  20  37  60  84 113 154 198 237 295 347
#
# _framework density 21.921880999999999
#
# number of rings (size 3 to 8) (size 9 to 14) (size 15 to 20)
#    0.000    2.182    0.000    2.182    1.273    4.364 
#    0.000    0.000    4.000    0.000    0.000    0.000 
#    0.000    0.000    0.000    0.000    0.000    0.000 
#
# Total GULP energy -122569.222273 kJ/mol
# GULP energy per Si atom -5571.328285 kJ/mol
# Density = 2.187199 g / cm^3
# Si number density = 21.921881 Si / 1000 Ang^3
#
#
#
# Elastic Constant Matrix: (Units=GPa)
#
#
# Indices 1 2 3 4 5 6 
#
# 1 60.8249 23.8452 11.3491 0.0000 12.8102 0.0000
# 2 23.8452 111.2157 30.8120 0.0000 0.9212 0.0000
# 3 11.3491 30.8120 46.4028 0.0000 15.9054 0.0000
# 4 0.0000 0.0000 0.0000 19.3213 0.0000 0.7389
# 5 12.8102 0.9212 15.9054 0.0000 36.3975 0.0000
# 6 0.0000 0.0000 0.0000 0.7389 0.0000 28.0741
#
#
#
# Elastic Compliance Matrix: (Units=1/GPa)
#
#
# Indices 1 2 3 4 5 6 
#
# 1 0.019483 -0.004238 0.000426 0.000000 -0.006936 0.000000
# 2 -0.004238 0.012317 -0.008876 0.000000 0.005059 0.000000
# 3 0.000426 -0.008876 0.032127 0.000000 -0.013964 0.000000
# 4 0.000000 0.000000 0.000000 0.051809 0.000000 -0.001364
# 5 -0.006936 0.005059 -0.013964 0.000000 0.035890 0.000000
# 6 0.000000 0.000000 0.000000 -0.001364 0.000000 0.035656
#
#
# Mechanical properties :
#
#
# Convention : Reuss Voigt Hill
#
# Bulk Modulus (GPa) = 25.93927 38.93956 32.43941
# Shear Modulus (GPa) = 22.17213 26.92106 24.54659
#
# Velocity S-wave (km/s) = 3.18373 3.50815 3.34987
# Velocity P-wave (km/s) = 5.03717 5.84901 5.45821
#
# Compressibility (1/GPa) = 0.03855159
#
# Stress axis : x y z
#
# Youngs Moduli (GPa) = 51.32591 81.18563 31.12678
#
# Poissons Ratio (x) = 0.34407 -0.01327
# Poissons Ratio (y) = 0.21752 0.27629
# Poissons Ratio (z) = -0.02189 0.72063
#
# Static dielectric constant tensor:
#      x y z
#    x 1.808500 0.000000 0.039810 
#    y 0.000000 1.861310 0.000000 
#    z 0.039810 0.000000 1.890810 
# 
# From -- ./inp_files/129450.got.cif
#   From: 2010.05.17/outbox.cif.g08.bks.cpg/sg15_65_cif.got.tgz:129450.got - 2010.06.03 18:47:42.
