data_PCOD9271281
_publ_section_title
;
Structure prediction by ZEFSAII (Michael W. Deem and Ramdas Pophale) SiO2 
 PCOD9271281
Probable space group: C 2/C
;
_chemical_formula_sum "Si O2"
_cell_formula_units_Z 60
_cell_length_a 16.611967
_cell_length_b 9.010620
_cell_length_c 23.050719
_cell_angle_alpha 90.000000
_cell_angle_beta 65.427990
_cell_angle_gamma 90.000000
_cell_volume 3137.862852
_symmetry_space_group_name_H-M "C 2/C"
_symmetry_group_IT_number 15
_symmetry_cell_setting 'monoclinic'
loop_
_space_group_symop_operation_xyz
x,y,z
-x,y,1/2-z
-x,-y,-z
x,-y,1/2+z
1/2+x,1/2+y,z
1/2-x,1/2+y,1/2-z
1/2-x,1/2-y,-z
1/2+x,1/2-y,1/2+z
loop_
_atom_site_type_symbol
_atom_site_label
_atom_site_fract_x
_atom_site_fract_y
_atom_site_fract_z
Si Si1 0.416786 0.482387 0.568383
Si Si2 0.630918 0.302234 0.652942
Si Si3 0.482452 0.111462 0.141710
Si Si4 0.000000 0.581184 0.750000
Si Si5 0.838694 0.688016 0.093726
Si Si6 0.037256 0.050858 0.628768
Si Si7 0.303286 0.610674 0.008273
Si Si8 0.136952 0.588393 0.544897
O O1 0.500000 0.500000 0.500000
O O2 0.366985 0.639578 0.586020
O O3 0.460109 0.459850 0.618205
O O4 0.350250 0.369074 0.556781
O O5 0.582873 0.184083 0.708159
O O6 0.733955 0.326548 0.634405
O O7 0.576407 0.454774 0.668851
O O8 0.623253 0.230105 0.590487
O O9 0.397227 0.110090 0.125658
O O10 0.503914 0.282926 0.150047
O O11 0.474553 0.019177 0.202840
O O12 0.563710 0.035114 0.082531
O O13 0.863399 0.627706 0.022550
O O14 0.119388 0.071855 0.559829
O O15 0.232761 0.478147 0.031966
O O16 0.250000 0.750000 0.000000
#
# Coordination Sequence:
#
# PCOD9271281 Si02
#       8
#     8   8   8   4   8   8   8   8
#     4   9  19  32  50  83 129 158 189 232 290 365
#     4  11  22  40  65  86 121 163 206 251 299 359
#     4  10  23  41  61  87 123 163 196 252 302 363
#     4  10  26  48  60  78 118 164 210 256 310 346
#     4  11  20  36  64  94 119 157 202 248 305 365
#     4  10  20  36  58  87 114 158 201 243 301 354
#     4  11  18  30  52  91 130 160 188 231 297 371
#     4  11  19  34  60  95 133 157 187 243 313 364
#
# _framework density 19.121293999999999
#
# number of rings (size 3 to 8) (size 9 to 14) (size 15 to 20)
#    0.000    1.600    4.000    2.400    0.000    0.533 
#    4.800    4.000    0.000    0.000    0.000    0.000 
#    0.000    0.000    0.000    0.000    0.000    0.000 
#
# Total GULP energy -167465.191739 kJ/mol
# GULP energy per Si atom -5582.173058 kJ/mol
# Density = 1.907777 g / cm^3
# Si number density = 19.121294 Si / 1000 Ang^3
#
#
#
# Elastic Constant Matrix: (Units=GPa)
#
#
# Indices 1 2 3 4 5 6 
#
# 1 153.4988 51.6416 51.2892 0.0000 6.3516 0.0000
# 2 51.6416 66.7238 31.0028 0.0000 -2.9077 0.0000
# 3 51.2892 31.0028 88.0208 0.0000 0.9413 0.0000
# 4 0.0000 0.0000 0.0000 12.6300 0.0000 1.4264
# 5 6.3516 -2.9077 0.9413 0.0000 6.3927 0.0000
# 6 0.0000 0.0000 0.0000 1.4264 0.0000 33.9184
#
#
#
# Elastic Compliance Matrix: (Units=1/GPa)
#
#
# Indices 1 2 3 4 5 6 
#
# 1 0.010671 -0.007196 -0.003541 0.000000 -0.013354 0.000000
# 2 -0.007196 0.023316 -0.004216 0.000000 0.018376 0.000000
# 3 -0.003541 -0.004216 0.014915 0.000000 -0.000596 0.000000
# 4 0.000000 0.000000 0.000000 0.079554 0.000000 -0.003345
# 5 -0.013354 0.018376 -0.000596 0.000000 0.178143 0.000000
# 6 0.000000 0.000000 0.000000 -0.003345 0.000000 0.029623
#
#
# Mechanical properties :
#
#
# Convention : Reuss Voigt Hill
#
# Bulk Modulus (GPa) = 52.63792 64.01229 58.32510
# Shear Modulus (GPa) = 13.42421 22.20887 17.81654
#
# Velocity S-wave (km/s) = 2.65251 3.41174 3.05579
# Velocity P-wave (km/s) = 6.08023 7.00497 6.55892
#
# Compressibility (1/GPa) = 0.01899771
#
# Stress axis : x y z
#
# Youngs Moduli (GPa) = 93.70918 42.88862 67.04464
#
# Poissons Ratio (x) = 0.30862 0.23739
# Poissons Ratio (y) = 0.67433 0.28266
# Poissons Ratio (z) = 0.33180 0.18082
#
# Static dielectric constant tensor:
#      x y z
#    x 1.674580 0.000000 0.018630 
#    y 0.000000 1.711370 0.000000 
#    z 0.018630 0.000000 1.662260 
# 
# From -- ./inp_files/276551.got.cif
#   From: 2010.05.17/outbox.cif.g08.bks.cpg/sg15_139_cif.got.tgz:276551.got - 2010.06.03 18:47:42.
