data_PCOD9271167
_publ_section_title
;
Structure prediction by ZEFSAII (Michael W. Deem and Ramdas Pophale) SiO2 
 PCOD9271167
Probable space group: C 2/C
;
_chemical_formula_sum "Si O2"
_cell_formula_units_Z 52
_cell_length_a 9.585088
_cell_length_b 22.023735
_cell_length_c 21.419540
_cell_angle_alpha 90.000000
_cell_angle_beta 144.017662
_cell_angle_gamma 90.000000
_cell_volume 2656.633095
_symmetry_space_group_name_H-M "C 2/C"
_symmetry_group_IT_number 15
_symmetry_cell_setting 'monoclinic'
loop_
_space_group_symop_operation_xyz
x,y,z
-x,y,1/2-z
-x,-y,-z
x,-y,1/2+z
1/2+x,1/2+y,z
1/2-x,1/2+y,1/2-z
1/2-x,1/2-y,-z
1/2+x,1/2-y,1/2+z
loop_
_atom_site_type_symbol
_atom_site_label
_atom_site_fract_x
_atom_site_fract_y
_atom_site_fract_z
Si Si1 0.500000 0.777990 0.750000
Si Si2 0.084818 0.473256 0.625759
Si Si3 0.830319 0.840500 0.133216
Si Si4 0.656639 0.089189 0.026067
Si Si5 0.369363 0.396548 0.013337
Si Si6 0.750928 0.005187 0.815594
Si Si7 0.894220 0.130566 0.387465
O O1 0.629449 0.731421 0.843938
O O2 0.297647 0.820921 0.705482
O O3 0.932608 0.530083 0.544587
O O4 0.896926 0.424210 0.584744
O O5 0.211251 0.439264 0.614026
O O6 0.246759 0.499766 0.739183
O O7 0.566327 0.865415 0.048988
O O8 0.000000 0.866733 0.250000
O O9 0.898591 0.861048 0.088844
O O10 0.873035 0.122487 0.070291
O O11 0.544306 0.453605 0.082803
O O12 0.434508 0.358168 0.975768
O O13 0.500000 0.028747 0.750000
O O14 0.783044 0.936447 0.848614
#
# Coordination Sequence:
#
# PCOD9271167 Si02
#       7
#     4   8   8   8   8   8   8
#     4  10  24  44  64  86 128 174 226 254 310 368
#     4  10  20  36  57  93 128 164 196 256 324 387
#     4   9  22  43  61  87 117 167 218 262 305 369
#     4  10  21  37  61  90 126 160 209 256 320 373
#     4  11  21  38  64  91 126 163 211 260 330 376
#     4  12  21  34  61  95 132 165 206 260 321 387
#     4  12  22  39  61  93 125 168 210 265 311 378
#
# _framework density 19.573649
#
# number of rings (size 3 to 8) (size 9 to 14) (size 15 to 20)
#    0.462    0.923    3.846    2.308    0.000    1.846 
#    0.000    0.000    0.000    5.538    0.000    0.000 
#    0.000    0.000    0.000    0.000    0.000    0.000 
#
# Total GULP energy -145078.610707 kJ/mol
# GULP energy per Si atom -5579.946566 kJ/mol
# Density = 1.952910 g / cm^3
# Si number density = 19.573649 Si / 1000 Ang^3
#
#
#
# Elastic Constant Matrix: (Units=GPa)
#
#
# Indices 1 2 3 4 5 6 
#
# 1 137.6480 35.5712 40.6429 0.0003 4.4658 0.0002
# 2 35.5712 91.3482 17.5133 0.0000 10.0783 -0.0001
# 3 40.6429 17.5133 59.2167 0.0012 -3.1575 0.0009
# 4 0.0003 0.0000 0.0012 28.2632 0.0009 1.2897
# 5 4.4658 10.0783 -3.1575 0.0009 30.7462 0.0007
# 6 0.0002 -0.0001 0.0009 1.2897 0.0007 17.3125
#
#
#
# Elastic Compliance Matrix: (Units=1/GPa)
#
#
# Indices 1 2 3 4 5 6 
#
# 1 0.009721 -0.002503 -0.005996 0.000000 -0.001207 0.000000
# 2 -0.002503 0.012809 -0.002288 0.000000 -0.004070 0.000000
# 3 -0.005996 -0.002288 0.021886 -0.000001 0.003868 -0.000001
# 4 0.000000 0.000000 -0.000001 0.035502 -0.000001 -0.002645
# 5 -0.001207 -0.004070 0.003868 -0.000001 0.034431 -0.000002
# 6 0.000000 0.000000 -0.000001 -0.002645 -0.000002 0.057959
#
#
# Mechanical properties :
#
#
# Convention : Reuss Voigt Hill
#
# Bulk Modulus (GPa) = 43.77763 52.85198 48.31480
# Shear Modulus (GPa) = 24.81435 28.23008 26.52221
#
# Velocity S-wave (km/s) = 3.56440 3.80182 3.68502
# Velocity P-wave (km/s) = 6.27328 6.80676 6.54546
#
# Compressibility (1/GPa) = 0.02284272
#
# Stress axis : x y z
#
# Youngs Moduli (GPa) = 102.86617 78.06809 45.69224
#
# Poissons Ratio (x) = 0.19538 0.27399
# Poissons Ratio (y) = 0.25744 0.10453
# Poissons Ratio (z) = 0.61683 0.17860
#
# Static dielectric constant tensor:
#      x y z
#    x 1.727450 0.000000 -0.032770 
#    y 0.000000 1.663120 0.000000 
#    z -0.032770 0.000000 1.730390 
# 
# From -- ./inp_files/234496.got.cif
#   From: 2010.05.17/outbox.cif.g08.bks.cpg/sg15_118_cif.got.tgz:234496.got - 2010.06.03 18:47:42.
