data_PCOD9271373
_publ_section_title
;
Structure prediction by ZEFSAII (Michael W. Deem and Ramdas Pophale) SiO2 
 PCOD9271373
Probable space group: C 2/C
;
_chemical_formula_sum "Si O2"
_cell_formula_units_Z 52
_cell_length_a 14.430689
_cell_length_b 8.515390
_cell_length_c 30.509913
_cell_angle_alpha 90.000000
_cell_angle_beta 41.424570
_cell_angle_gamma 90.000000
_cell_volume 2480.561781
_symmetry_space_group_name_H-M "C 2/C"
_symmetry_group_IT_number 15
_symmetry_cell_setting 'monoclinic'
loop_
_space_group_symop_operation_xyz
x,y,z
-x,y,1/2-z
-x,-y,-z
x,-y,1/2+z
1/2+x,1/2+y,z
1/2-x,1/2+y,1/2-z
1/2-x,1/2-y,-z
1/2+x,1/2-y,1/2+z
loop_
_atom_site_type_symbol
_atom_site_label
_atom_site_fract_x
_atom_site_fract_y
_atom_site_fract_z
Si Si1 0.590701 0.192477 0.895838
Si Si2 0.939154 0.782229 0.148735
Si Si3 0.194775 0.122607 0.608689
Si Si4 0.500000 0.533052 0.250000
Si Si5 0.772209 0.990144 0.769044
Si Si6 0.290735 0.071579 0.994861
Si Si7 0.529383 0.474919 0.040853
O O1 0.667048 0.182761 0.916010
O O2 0.458923 0.074648 0.936497
O O3 0.533989 0.369254 0.913102
O O4 0.704155 0.135552 0.820185
O O5 0.852259 0.630892 0.193673
O O6 0.093710 0.771314 0.114892
O O7 0.856552 0.930238 0.199758
O O8 0.960200 0.825389 0.089917
O O9 0.239059 0.982701 0.560816
O O10 0.091871 0.066741 0.683670
O O11 0.616885 0.607445 0.239885
O O12 0.250000 0.250000 0.000000
O O13 0.194824 0.975761 0.994350
O O14 0.500000 0.500000 0.000000
#
# Coordination Sequence:
#
# PCOD9271373 Si02
#       7
#     8   8   8   4   8   8   8
#     4  10  20  36  59  83 108 144 185 228 274 332
#     4  10  21  38  58  83 112 146 183 230 281 329
#     4   9  18  34  56  82 109 139 181 231 276 321
#     4   8  18  34  54  78 106 140 178 224 276 326
#     4  10  20  37  60  83 109 144 187 230 278 331
#     4   9  19  34  54  78 111 149 183 221 273 331
#     4  10  22  38  55  80 118 152 183 228 276 327
#
# _framework density 20.962994999999999
#
# number of rings (size 3 to 8) (size 9 to 14) (size 15 to 20)
#    0.000    2.462    0.000    1.385    0.000    8.615 
#    0.000    4.615    0.000    0.000    0.000    0.000 
#    0.000    0.000    0.000    0.000    0.000    0.000 
#
# Total GULP energy -144765.023490 kJ/mol
# GULP energy per Si atom -5567.885519 kJ/mol
# Density = 2.091528 g / cm^3
# Si number density = 20.962995 Si / 1000 Ang^3
#
#
#
# Elastic Constant Matrix: (Units=GPa)
#
#
# Indices 1 2 3 4 5 6 
#
# 1 107.9674 13.5452 47.5337 -0.0001 -11.7126 0.0000
# 2 13.5452 57.5325 25.7339 -0.0001 -3.8302 0.0000
# 3 47.5337 25.7339 105.1379 -0.0001 0.7050 -0.0001
# 4 -0.0001 -0.0001 -0.0001 33.8597 0.0000 -13.1892
# 5 -11.7126 -3.8302 0.7050 0.0000 37.7024 0.0000
# 6 0.0000 0.0000 -0.0001 -13.1892 0.0000 10.8907
#
#
#
# Elastic Compliance Matrix: (Units=1/GPa)
#
#
# Indices 1 2 3 4 5 6 
#
# 1 0.012102 -0.000151 -0.005460 0.000000 0.003846 0.000000
# 2 -0.000151 0.019684 -0.004763 0.000000 0.002042 0.000000
# 3 -0.005460 -0.004763 0.013162 0.000000 -0.002426 0.000000
# 4 0.000000 0.000000 0.000000 0.055907 0.000000 0.067707
# 5 0.003846 0.002042 -0.002426 0.000000 0.027971 0.000000
# 6 0.000000 0.000000 0.000000 0.067707 0.000000 0.173819
#
#
# Mechanical properties :
#
#
# Convention : Reuss Voigt Hill
#
# Bulk Modulus (GPa) = 41.32426 49.36260 45.34343
# Shear Modulus (GPa) = 15.08477 28.74556 21.91516
#
# Velocity S-wave (km/s) = 2.68543 3.70706 3.23681
# Velocity P-wave (km/s) = 5.41951 6.47469 5.97046
#
# Compressibility (1/GPa) = 0.02419886
#
# Stress axis : x y z
#
# Youngs Moduli (GPa) = 82.62936 50.80392 75.97544
#
# Poissons Ratio (x) = 0.00766 0.41486
# Poissons Ratio (y) = 0.01246 0.36189
# Poissons Ratio (z) = 0.45119 0.24199
#
# Static dielectric constant tensor:
#      x y z
#    x 1.819320 0.000000 -0.017100 
#    y 0.000000 1.753120 0.000000 
#    z -0.017100 0.000000 1.747850 
# 
# From -- ./inp_files/242409.got.cif
#   From: 2010.05.17/outbox.cif.g08.bks.cpg/sg15_122_cif.got.tgz:242409.got - 2010.06.03 18:47:42.
