data_PCOD9271283
_publ_section_title
;
Structure prediction by ZEFSAII (Michael W. Deem and Ramdas Pophale) SiO2 
 PCOD9271283
Probable space group: C 2/C
;
_chemical_formula_sum "Si O2"
_cell_formula_units_Z 56
_cell_length_a 19.260104
_cell_length_b 16.006645
_cell_length_c 12.333408
_cell_angle_alpha 90.000000
_cell_angle_beta 45.162083
_cell_angle_gamma 90.000000
_cell_volume 2696.200225
_symmetry_space_group_name_H-M "C 2/C"
_symmetry_group_IT_number 15
_symmetry_cell_setting 'monoclinic'
loop_
_space_group_symop_operation_xyz
x,y,z
-x,y,1/2-z
-x,-y,-z
x,-y,1/2+z
1/2+x,1/2+y,z
1/2-x,1/2+y,1/2-z
1/2-x,1/2-y,-z
1/2+x,1/2-y,1/2+z
loop_
_atom_site_type_symbol
_atom_site_label
_atom_site_fract_x
_atom_site_fract_y
_atom_site_fract_z
Si Si1 0.218591 0.580867 0.750799
Si Si2 0.114104 0.828260 0.151071
Si Si3 0.101409 0.540365 0.686046
Si Si4 0.255660 0.757167 0.815651
Si Si5 0.170558 0.288985 0.001502
Si Si6 0.106972 0.116550 0.109008
Si Si7 0.787635 0.005191 0.879549
O O1 0.121273 0.562107 0.789458
O O2 0.211067 0.668202 0.823563
O O3 0.315209 0.586271 0.567558
O O4 0.246802 0.511280 0.804912
O O5 0.155706 0.767243 0.200017
O O6 0.137843 0.921389 0.170117
O O7 0.000000 0.818580 0.250000
O O8 0.178043 0.808185 0.973027
O O9 0.124743 0.626932 0.597682
O O10 0.191420 0.480289 0.558444
O O11 0.000000 0.508778 0.750000
O O12 0.291678 0.796821 0.662958
O O13 0.094154 0.212467 0.090028
O O14 0.250000 0.250000 0.000000
O O15 0.000000 0.080578 0.250000
O O16 0.165842 0.085126 0.149651
#
# Coordination Sequence:
#
# PCOD9271283 Si02
#       7
#     8   8   8   8   8   8   8
#     4   9  20  39  56  82 121 148 187 250 286 339
#     4  10  21  40  62  90 118 156 199 236 293 352
#     4  11  23  39  59  83 115 154 200 241 291 353
#     4   9  20  39  63  87 121 153 190 249 292 344
#     4  11  19  40  60  87 119 152 190 247 296 341
#     4  10  20  36  58  87 115 148 190 237 291 350
#     4  10  21  39  56  82 123 153 189 240 290 342
#
# _framework density 20.769970000000001
#
# number of rings (size 3 to 8) (size 9 to 14) (size 15 to 20)
#    0.000    2.000    4.286    0.857    0.000    4.571 
#    7.714    6.429    0.000    0.000    0.000    0.000 
#    0.000    0.000    0.000    0.000    0.000    0.000 
#
# Total GULP energy -155920.923095 kJ/mol
# GULP energy per Si atom -5568.604396 kJ/mol
# Density = 2.072270 g / cm^3
# Si number density = 20.769970 Si / 1000 Ang^3
#
#
#
# Elastic Constant Matrix: (Units=GPa)
#
#
# Indices 1 2 3 4 5 6 
#
# 1 136.5637 16.3438 51.1398 0.0000 0.9062 0.0000
# 2 16.3438 43.8043 18.1219 0.0000 9.8052 0.0000
# 3 51.1398 18.1219 62.0492 0.0000 9.7125 0.0000
# 4 0.0000 0.0000 0.0000 46.1201 0.0000 39.1208
# 5 0.9062 9.8052 9.7125 0.0000 46.9904 0.0000
# 6 0.0000 0.0000 0.0000 39.1208 0.0000 82.3036
#
#
#
# Elastic Compliance Matrix: (Units=1/GPa)
#
#
# Indices 1 2 3 4 5 6 
#
# 1 0.010736 -0.000716 -0.008919 0.000000 0.001786 0.000000
# 2 -0.000716 0.026755 -0.006565 0.000000 -0.004212 0.000000
# 3 -0.008919 -0.006565 0.025984 0.000000 -0.003829 0.000000
# 4 0.000000 0.000000 0.000000 0.036330 0.000000 -0.017269
# 5 0.001786 -0.004212 -0.003829 0.000000 0.022917 0.000000
# 6 0.000000 0.000000 0.000000 -0.017269 0.000000 0.020358
#
#
# Mechanical properties :
#
#
# Convention : Reuss Voigt Hill
#
# Bulk Modulus (GPa) = 32.17964 45.95869 39.06916
# Shear Modulus (GPa) = 26.90511 45.53694 36.22102
#
# Velocity S-wave (km/s) = 3.60305 4.68743 4.18055
# Velocity P-wave (km/s) = 5.73029 7.17437 6.49260
#
# Compressibility (1/GPa) = 0.03107555
#
# Stress axis : x y z
#
# Youngs Moduli (GPa) = 93.14069 37.37689 38.48528
#
# Poissons Ratio (x) = 0.02675 0.34326
# Poissons Ratio (y) = 0.06666 0.25264
# Poissons Ratio (z) = 0.83075 0.24537
#
# Static dielectric constant tensor:
#      x y z
#    x 1.803330 0.000000 0.005050 
#    y 0.000000 1.808420 0.000000 
#    z 0.005050 0.000000 1.787430 
# 
# From -- ./inp_files/106636.got.cif
#   From: 2010.05.17/outbox.cif.g08.bks.cpg/sg15_54_cif.got.tgz:106636.got - 2010.06.03 18:47:42.
