data_PCOD9271672
_publ_section_title
;
Structure prediction by ZEFSAII (Michael W. Deem and Ramdas Pophale) SiO2 
 PCOD9271672
Probable space group: C 2/C
;
_chemical_formula_sum "Si O2"
_cell_formula_units_Z 48
_cell_length_a 11.332279
_cell_length_b 20.202398
_cell_length_c 12.208492
_cell_angle_alpha 90.000000
_cell_angle_beta 107.551596
_cell_angle_gamma 90.000000
_cell_volume 2664.883338
_symmetry_space_group_name_H-M "C 2/C"
_symmetry_group_IT_number 15
_symmetry_cell_setting 'monoclinic'
loop_
_space_group_symop_operation_xyz
x,y,z
-x,y,1/2-z
-x,-y,-z
x,-y,1/2+z
1/2+x,1/2+y,z
1/2-x,1/2+y,1/2-z
1/2-x,1/2-y,-z
1/2+x,1/2-y,1/2+z
loop_
_atom_site_type_symbol
_atom_site_label
_atom_site_fract_x
_atom_site_fract_y
_atom_site_fract_z
Si Si1 0.580029 0.461742 0.879038
Si Si2 0.060803 0.279291 0.381391
Si Si3 0.247279 0.660126 0.100117
Si Si4 0.104148 0.759170 0.459328
Si Si5 0.873687 0.355397 0.700454
Si Si6 0.123674 0.095299 0.011567
O O1 0.500000 0.476240 0.750000
O O2 0.689974 0.411125 0.886446
O O3 0.484365 0.424309 0.933438
O O4 0.631631 0.530270 0.940069
O O5 0.152716 0.328149 0.473084
O O6 0.144843 0.215100 0.378287
O O7 0.000000 0.302263 0.250000
O O8 0.957333 0.259363 0.441802
O O9 0.180487 0.667271 0.198045
O O10 0.250000 0.750000 0.500000
O O11 0.074926 0.705130 0.359518
O O12 0.081838 0.837462 0.437650
O O13 0.755636 0.388799 0.606427
O O14 0.000000 0.398113 0.750000
#
# Coordination Sequence:
#
# PCOD9271672 Si02
#       6
#     8   8   8   8   8   8
#     4  11  21  40  64  87 120 161 207 251 298 367
#     4  11  21  37  60  94 124 158 205 254 302 365
#     4  11  22  38  64  89 122 169 203 244 311 370
#     4  10  20  36  60  92 122 157 198 255 305 353
#     4  11  21  39  63  89 125 164 202 247 314 368
#     4  10  22  38  62  92 119 157 208 253 301 356
#
# _framework density 18.012046000000002
#
# number of rings (size 3 to 8) (size 9 to 14) (size 15 to 20)
#    0.000    1.333    5.000    2.500    0.000    0.667 
#    0.000    8.333    0.000    0.000    0.000    0.000 
#    0.000    0.000    0.000    0.000    0.000    0.000 
#
# Total GULP energy -133708.018835 kJ/mol
# GULP energy per Si atom -5571.167451 kJ/mol
# Density = 1.797105 g / cm^3
# Si number density = 18.012046 Si / 1000 Ang^3
#
#
#
# Elastic Constant Matrix: (Units=GPa)
#
#
# Indices 1 2 3 4 5 6 
#
# 1 119.7476 41.8365 60.1685 0.0000 -10.5734 0.0000
# 2 41.8365 98.1850 62.9933 0.0000 -3.7727 0.0000
# 3 60.1685 62.9933 133.5973 0.0000 1.4618 0.0000
# 4 0.0000 0.0000 0.0000 24.9904 0.0000 -4.2645
# 5 -10.5734 -3.7727 1.4618 0.0000 40.0512 0.0000
# 6 0.0000 0.0000 0.0000 -4.2645 0.0000 19.4531
#
#
#
# Elastic Compliance Matrix: (Units=1/GPa)
#
#
# Indices 1 2 3 4 5 6 
#
# 1 0.011454 -0.002058 -0.004221 0.000000 0.002984 0.000000
# 2 -0.002058 0.015079 -0.006195 0.000000 0.001103 0.000000
# 3 -0.004221 -0.006195 0.012331 0.000000 -0.002148 0.000000
# 4 0.000000 0.000000 0.000000 0.041570 0.000000 0.009113
# 5 0.002984 0.001103 -0.002148 0.000000 0.025938 0.000000
# 6 0.000000 0.000000 0.000000 0.009113 0.000000 0.053403
#
#
# Mechanical properties :
#
#
# Convention : Reuss Voigt Hill
#
# Bulk Modulus (GPa) = 71.86085 75.72516 73.79301
# Shear Modulus (GPa) = 26.40440 29.33439 27.86940
#
# Velocity S-wave (km/s) = 3.83290 4.03997 3.93780
# Velocity P-wave (km/s) = 7.71821 7.99340 7.85701
#
# Compressibility (1/GPa) = 0.01391578
#
# Stress axis : x y z
#
# Youngs Moduli (GPa) = 87.30397 66.31837 81.09770
#
# Poissons Ratio (x) = 0.13648 0.34231
# Poissons Ratio (y) = 0.17966 0.50241
# Poissons Ratio (z) = 0.36851 0.41085
#
# Static dielectric constant tensor:
#      x y z
#    x 1.614990 0.000000 0.021740 
#    y 0.000000 1.639140 0.000000 
#    z 0.021740 0.000000 1.654720 
# 
# From -- ./inp_files/87465.got.cif
#   From: 2010.05.17/outbox.cif.g08.bks.cpg/sg15_44_cif.got.tgz:87465.got - 2010.06.03 18:47:42.
