data_PCOD9271485
_publ_section_title
;
Structure prediction by ZEFSAII (Michael W. Deem and Ramdas Pophale) SiO2 
 PCOD9271485
Probable space group: C 2/C
;
_chemical_formula_sum "Si O2"
_cell_formula_units_Z 52
_cell_length_a 24.779118
_cell_length_b 12.215377
_cell_length_c 8.087326
_cell_angle_alpha 90.000000
_cell_angle_beta 86.436862
_cell_angle_gamma 90.000000
_cell_volume 2443.190493
_symmetry_space_group_name_H-M "C 2/C"
_symmetry_group_IT_number 15
_symmetry_cell_setting 'monoclinic'
loop_
_space_group_symop_operation_xyz
x,y,z
-x,y,1/2-z
-x,-y,-z
x,-y,1/2+z
1/2+x,1/2+y,z
1/2-x,1/2+y,1/2-z
1/2-x,1/2-y,-z
1/2+x,1/2-y,1/2+z
loop_
_atom_site_type_symbol
_atom_site_label
_atom_site_fract_x
_atom_site_fract_y
_atom_site_fract_z
Si Si1 0.000000 0.536995 0.250000
Si Si2 0.746625 0.999045 0.082452
Si Si3 0.568713 0.589985 0.635630
Si Si4 0.689678 0.632254 0.674491
Si Si5 0.433543 0.126551 0.966978
Si Si6 0.183083 0.630055 0.342621
Si Si7 0.533345 0.642550 0.017100
O O1 0.023253 0.608259 0.393734
O O2 0.951433 0.460752 0.326727
O O3 0.696223 0.038774 0.201916
O O4 0.795521 0.955515 0.185700
O O5 0.765599 0.102865 0.971181
O O6 0.728005 0.898748 0.971390
O O7 0.631841 0.609047 0.604065
O O8 0.556329 0.627973 0.825462
O O9 0.530677 0.649101 0.507988
O O10 0.550830 0.464188 0.614835
O O11 0.689118 0.751664 0.756869
O O12 0.374691 0.116992 0.058917
O O13 0.442713 0.249817 0.906008
#
# Coordination Sequence:
#
# PCOD9271485 Si02
#       7
#     4   8   8   8   8   8   8
#     4  10  24  40  62  90 124 156 218 248 298 376
#     4  10  24  40  61  93 127 159 219 258 297 374
#     4  10  20  36  59  90 122 160 197 250 307 374
#     4  11  21  39  65  90 125 166 204 256 315 362
#     4  11  22  41  64  89 122 164 202 256 309 363
#     4  11  22  41  65  88 126 166 205 260 316 357
#     4  10  21  37  61  90 126 156 202 250 311 373
#
# _framework density 21.283646000000001
#
# number of rings (size 3 to 8) (size 9 to 14) (size 15 to 20)
#    0.000    1.538    1.538    3.692    0.000    2.462 
#    0.000    0.000    3.385    0.000    0.000    0.000 
#    0.000    0.000    0.000    0.000    0.000    0.000 
#
# Total GULP energy -145205.924856 kJ/mol
# GULP energy per Si atom -5584.843264 kJ/mol
# Density = 2.123520 g / cm^3
# Si number density = 21.283646 Si / 1000 Ang^3
#
#
#
# Elastic Constant Matrix: (Units=GPa)
#
#
# Indices 1 2 3 4 5 6 
#
# 1 117.3200 29.1604 15.2629 0.0000 -11.2645 0.0000
# 2 29.1604 82.3157 12.0047 0.0000 -2.5464 0.0000
# 3 15.2629 12.0047 44.3304 0.0000 -9.0975 0.0000
# 4 0.0000 0.0000 0.0000 23.1012 0.0000 -3.3028
# 5 -11.2645 -2.5464 -9.0975 0.0000 24.2526 0.0000
# 6 0.0000 0.0000 0.0000 -3.3028 0.0000 15.3637
#
#
#
# Elastic Compliance Matrix: (Units=1/GPa)
#
#
# Indices 1 2 3 4 5 6 
#
# 1 0.009881 -0.003124 -0.001822 0.000000 0.003578 0.000000
# 2 -0.003124 0.013636 -0.002840 0.000000 -0.001084 0.000000
# 3 -0.001822 -0.002840 0.025697 0.000000 0.008495 0.000000
# 4 0.000000 0.000000 0.000000 0.044661 0.000000 0.009601
# 5 0.003578 -0.001084 0.008495 0.000000 0.045967 0.000000
# 6 0.000000 0.000000 0.000000 0.009601 0.000000 0.067152
#
#
# Mechanical properties :
#
#
# Convention : Reuss Voigt Hill
#
# Bulk Modulus (GPa) = 29.72345 39.64688 34.68516
# Shear Modulus (GPa) = 21.38777 25.04604 23.21690
#
# Velocity S-wave (km/s) = 3.17344 3.43414 3.30636
# Velocity P-wave (km/s) = 5.23673 5.86453 5.55950
#
# Compressibility (1/GPa) = 0.03364347
#
# Stress axis : x y z
#
# Youngs Moduli (GPa) = 101.20761 73.33771 38.91440
#
# Poissons Ratio (x) = 0.22910 0.07089
# Poissons Ratio (y) = 0.31616 0.11050
# Poissons Ratio (z) = 0.18437 0.20824
#
# Static dielectric constant tensor:
#      x y z
#    x 1.762680 0.000000 -0.026050 
#    y 0.000000 1.743100 0.000000 
#    z -0.026050 0.000000 1.789710 
# 
# From -- ./inp_files/65171.got.cif
#   From: 2010.05.17/outbox.cif.g08.bks.cpg/sg15_33_cif.got.tgz:65171.got - 2010.06.03 18:47:42.
