data_PCOD9271541
_publ_section_title
;
Structure prediction by ZEFSAII (Michael W. Deem and Ramdas Pophale) SiO2 
 PCOD9271541
Probable space group: C 2/C
;
_chemical_formula_sum "Si O2"
_cell_formula_units_Z 64
_cell_length_a 16.879415
_cell_length_b 28.896967
_cell_length_c 8.577909
_cell_angle_alpha 90.000000
_cell_angle_beta 137.852987
_cell_angle_gamma 90.000000
_cell_volume 2807.607507
_symmetry_space_group_name_H-M "C 2/C"
_symmetry_group_IT_number 15
_symmetry_cell_setting 'monoclinic'
loop_
_space_group_symop_operation_xyz
x,y,z
-x,y,1/2-z
-x,-y,-z
x,-y,1/2+z
1/2+x,1/2+y,z
1/2-x,1/2+y,1/2-z
1/2-x,1/2-y,-z
1/2+x,1/2-y,1/2+z
loop_
_atom_site_type_symbol
_atom_site_label
_atom_site_fract_x
_atom_site_fract_y
_atom_site_fract_z
Si Si1 0.627667 0.591533 0.120339
Si Si2 0.587299 0.232183 0.993010
Si Si3 0.575951 0.796207 0.010063
Si Si4 0.302650 0.681822 0.684954
Si Si5 0.870946 0.919841 0.248225
Si Si6 0.621211 0.958219 0.010633
Si Si7 0.317637 0.694844 0.346244
Si Si8 0.877062 0.561114 0.619182
O O1 0.619795 0.647728 0.108707
O O2 0.749400 0.581752 0.388015
O O3 0.638600 0.577270 0.953900
O O4 0.505165 0.566826 0.994783
O O5 0.503236 0.195678 0.955878
O O6 0.633802 0.270708 0.178800
O O7 0.699764 0.208012 0.079881
O O8 0.500000 0.257956 0.750000
O O9 0.500000 0.808177 0.750000
O O10 0.697881 0.821344 0.157552
O O11 0.604677 0.741039 0.045943
O O12 0.369230 0.634140 0.789999
O O13 0.270835 0.687447 0.455797
O O14 0.749386 0.940876 0.136641
O O15 0.616146 0.948358 0.186684
O O16 0.500000 0.939580 0.750000
O O17 0.620416 0.012795 0.972513
O O18 0.000000 0.586089 0.750000
#
# Coordination Sequence:
#
# PCOD9271541 Si02
#       8
#     8   8   8   8   8   8   8   8
#     4  10  22  40  65  93 131 173 212 262 317 385
#     4  11  22  36  53  84 117 158 211 274 318 364
#     4  11  18  34  61  80 110 162 216 262 316 370
#     4  10  20  37  58  85 114 162 214 258 312 379
#     4  10  22  41  63  95 130 172 215 258 321 378
#     4  11  23  44  72 101 131 165 208 257 310 379
#     4  10  20  36  60  84 115 160 216 257 314 375
#     4  11  23  44  72 101 131 166 206 256 315 373
#
# _framework density 22.795210000000001
#
# number of rings (size 3 to 8) (size 9 to 14) (size 15 to 20)
#    0.000    1.500    2.500    4.500    1.750    4.000 
#    9.000    0.000    0.000    0.000    0.000    0.000 
#    0.000    0.000    0.000    0.000    0.000    0.000 
#
# Total GULP energy -178497.106830 kJ/mol
# GULP energy per Si atom -5578.034588 kJ/mol
# Density = 2.274333 g / cm^3
# Si number density = 22.795210 Si / 1000 Ang^3
#
#
#
# Elastic Constant Matrix: (Units=GPa)
#
#
# Indices 1 2 3 4 5 6 
#
# 1 100.1499 2.3443 33.7247 0.0000 33.7259 0.0000
# 2 2.3443 26.4791 5.0187 0.0000 7.1028 0.0000
# 3 33.7247 5.0187 119.5947 0.0000 25.7771 0.0000
# 4 0.0000 0.0000 0.0000 -17.3051 0.0000 -6.7353
# 5 33.7259 7.1028 25.7771 0.0000 41.4699 0.0000
# 6 0.0000 0.0000 0.0000 -6.7353 0.0000 9.3338
#
#
#
# Elastic Compliance Matrix: (Units=1/GPa)
#
#
# Indices 1 2 3 4 5 6 
#
# 1 0.014152 0.001965 -0.001755 0.000000 -0.010755 0.000000
# 2 0.001965 0.039862 -0.000474 0.000000 -0.008130 0.000000
# 3 -0.001755 -0.000474 0.009874 0.000000 -0.004629 0.000000
# 4 0.000000 0.000000 0.000000 -0.045115 0.000000 -0.032556
# 5 -0.010755 -0.008130 -0.004629 0.000000 0.037130 0.000000
# 6 0.000000 0.000000 0.000000 -0.032556 0.000000 0.083646
#
#
# Mechanical properties :
#
#
# Convention : Reuss Voigt Hill
#
# Bulk Modulus (GPa) = 15.78321 36.48878 26.13599
# Shear Modulus (GPa) = 31.01776 20.37543 25.69660
#
# Velocity S-wave (km/s) = 3.69279 2.99297 3.36114
# Velocity P-wave (km/s) = 5.01210 5.29016 5.15301
#
# Compressibility (1/GPa) = 0.06335846
#
# Stress axis : x y z
#
# Youngs Moduli (GPa) = 70.66271 25.08626 101.27472
#
# Poissons Ratio (x) = -0.04928 0.17775
# Poissons Ratio (y) = -0.13882 0.04805
# Poissons Ratio (z) = 0.12402 0.01190
#
# Static dielectric constant tensor:
#      x y z
#    x 1.932000 0.000000 0.035500 
#    y 0.000000 1.840470 0.000000 
#    z 0.035500 0.000000 1.912100 
# 
# From -- ./inp_files/52864.got.cif
#   From: 2010.05.17/outbox.cif.g08.bks.cpg/sg15_27_cif.got.tgz:52864.got - 2010.06.03 18:47:42.
