data_PCOD9271788
_publ_section_title
;
Structure prediction by ZEFSAII (Michael W. Deem and Ramdas Pophale) SiO2 
 PCOD9271788
Probable space group: C 2/C
;
_chemical_formula_sum "Si O2"
_cell_formula_units_Z 60
_cell_length_a 7.979298
_cell_length_b 16.272416
_cell_length_c 23.568345
_cell_angle_alpha 90.000000
_cell_angle_beta 69.239378
_cell_angle_gamma 90.000000
_cell_volume 2861.473360
_symmetry_space_group_name_H-M "C 2/C"
_symmetry_group_IT_number 15
_symmetry_cell_setting 'monoclinic'
loop_
_space_group_symop_operation_xyz
x,y,z
-x,y,1/2-z
-x,-y,-z
x,-y,1/2+z
1/2+x,1/2+y,z
1/2-x,1/2+y,1/2-z
1/2-x,1/2-y,-z
1/2+x,1/2-y,1/2+z
loop_
_atom_site_type_symbol
_atom_site_label
_atom_site_fract_x
_atom_site_fract_y
_atom_site_fract_z
Si Si1 0.321097 0.802090 0.850662
Si Si2 0.678442 0.040878 0.818367
Si Si3 0.059725 0.974107 0.055481
Si Si4 0.199189 0.338488 0.526525
Si Si5 0.521642 0.629760 0.833477
Si Si6 0.613175 0.947482 0.940440
Si Si7 0.500000 0.066549 0.250000
Si Si8 0.859989 0.298657 0.222381
O O1 0.237001 0.842995 0.916080
O O2 0.425840 0.718420 0.857255
O O3 0.435950 0.872179 0.806824
O O4 0.195879 0.768833 0.815866
O O5 0.602657 0.990343 0.880434
O O6 0.651408 0.988806 0.763576
O O7 0.873099 0.075317 0.816422
O O8 0.564307 0.123299 0.820920
O O9 0.935368 0.928805 0.117438
O O10 0.178822 0.047708 0.067353
O O11 0.200974 0.901518 0.025891
O O12 0.000000 0.000000 0.000000
O O13 0.250000 0.250000 0.500000
O O14 0.988779 0.360999 0.550741
O O15 0.691529 0.660969 0.776590
O O16 0.500000 0.000000 0.000000
O O17 0.000000 0.265369 0.250000
#
# Coordination Sequence:
#
# PCOD9271788 Si02
#       8
#     8   8   8   8   8   8   4   8
#     4  11  21  39  64  88 130 165 210 261 323 385
#     4  10  20  36  61  92 120 163 214 255 315 380
#     4  10  22  40  62  93 127 162 213 269 318 374
#     4  11  21  39  64  91 118 169 215 249 318 381
#     4  10  21  42  63  86 127 177 206 259 330 390
#     4   9  20  36  60  88 124 161 205 258 307 372
#     4  12  20  36  64  98 124 162 210 276 314 372
#     4  11  23  40  62  91 126 174 215 256 323 395
#
# _framework density 20.968219000000001
#
# number of rings (size 3 to 8) (size 9 to 14) (size 15 to 20)
#    0.000    1.600    4.667    1.200    1.867    3.200 
#    0.000    6.000    0.000    0.000    0.000    0.000 
#    0.000    0.000    0.000    0.000    0.000    0.000 
#
# Total GULP energy -167045.131562 kJ/mol
# GULP energy per Si atom -5568.171052 kJ/mol
# Density = 2.092049 g / cm^3
# Si number density = 20.968219 Si / 1000 Ang^3
#
#
#
# Elastic Constant Matrix: (Units=GPa)
#
#
# Indices 1 2 3 4 5 6 
#
# 1 45.2495 22.0405 17.0172 0.0000 16.5838 0.0000
# 2 22.0405 73.4035 0.0122 0.0000 4.4702 0.0000
# 3 17.0172 0.0122 97.9397 0.0000 9.7919 0.0000
# 4 0.0000 0.0000 0.0000 46.2480 0.0000 7.7194
# 5 16.5838 4.4702 9.7919 0.0000 31.8633 0.0000
# 6 0.0000 0.0000 0.0000 7.7194 0.0000 21.7907
#
#
#
# Elastic Compliance Matrix: (Units=1/GPa)
#
#
# Indices 1 2 3 4 5 6 
#
# 1 0.033685 -0.009206 -0.004362 0.000000 -0.014900 0.000000
# 2 -0.009206 0.016261 0.001389 0.000000 0.002083 0.000000
# 3 -0.004362 0.001389 0.011102 0.000000 -0.001336 0.000000
# 4 0.000000 0.000000 0.000000 0.022981 0.000000 -0.008141
# 5 -0.014900 0.002083 -0.001336 0.000000 0.039257 0.000000
# 6 0.000000 0.000000 0.000000 -0.008141 0.000000 0.048775
#
#
# Mechanical properties :
#
#
# Convention : Reuss Voigt Hill
#
# Bulk Modulus (GPa) = 27.25589 32.74805 30.00197
# Shear Modulus (GPa) = 23.96364 31.81528 27.88946
#
# Velocity S-wave (km/s) = 3.38428 3.89949 3.65099
# Velocity P-wave (km/s) = 5.31959 5.99388 5.66677
#
# Compressibility (1/GPa) = 0.03668932
#
# Stress axis : x y z
#
# Youngs Moduli (GPa) = 29.68659 61.49850 90.07630
#
# Poissons Ratio (x) = 0.56618 0.39292
# Poissons Ratio (y) = 0.27331 -0.12514
# Poissons Ratio (z) = 0.12949 -0.08544
#
# Static dielectric constant tensor:
#      x y z
#    x 1.834530 0.000000 0.049540 
#    y 0.000000 1.807310 0.000000 
#    z 0.049540 0.000000 2.579490 
# 
# From -- ./inp_files/264288.got.cif
#   From: 2010.05.17/outbox.cif.g08.bks.cpg/sg15_133_cif.got.tgz:264288.got - 2010.06.03 18:47:42.
