data_PCOD9271000
_publ_section_title
;
Structure prediction by ZEFSAII (Michael W. Deem and Ramdas Pophale) SiO2 
 PCOD9271000
Probable space group: C 2/C
;
_chemical_formula_sum "Si O2"
_cell_formula_units_Z 52
_cell_length_a 19.518732
_cell_length_b 9.020004
_cell_length_c 11.641584
_cell_angle_alpha 90.000000
_cell_angle_beta 101.768857
_cell_angle_gamma 90.000000
_cell_volume 2006.520107
_symmetry_space_group_name_H-M "C 2/C"
_symmetry_group_IT_number 15
_symmetry_cell_setting 'monoclinic'
loop_
_space_group_symop_operation_xyz
x,y,z
-x,y,1/2-z
-x,-y,-z
x,-y,1/2+z
1/2+x,1/2+y,z
1/2-x,1/2+y,1/2-z
1/2-x,1/2-y,-z
1/2+x,1/2-y,1/2+z
loop_
_atom_site_type_symbol
_atom_site_label
_atom_site_fract_x
_atom_site_fract_y
_atom_site_fract_z
Si Si1 0.982527 0.255523 0.041591
Si Si2 0.286960 0.190980 0.625597
Si Si3 0.868169 0.309205 0.623328
Si Si4 0.000000 0.511220 0.750000
Si Si5 0.634163 0.038399 0.039403
Si Si6 0.053315 0.955735 0.374129
Si Si7 0.746654 0.579339 0.229618
O O1 0.932307 0.363623 0.951573
O O2 0.011951 0.371205 0.147790
O O3 0.937740 0.125661 0.088333
O O4 0.025484 0.148983 0.969256
O O5 0.250000 0.250000 0.500000
O O6 0.347602 0.099872 0.583593
O O7 0.307767 0.314152 0.725804
O O8 0.232593 0.080201 0.670590
O O9 0.934409 0.399499 0.702325
O O10 0.872907 0.366873 0.493569
O O11 0.878773 0.134243 0.639520
O O12 0.791265 0.339752 0.646397
O O13 0.694855 0.055685 0.151425
O O14 0.000000 0.952865 0.250000
#
# Coordination Sequence:
#
# PCOD9271000 Si02
#       7
#     8   8   8   4   8   8   8
#     4  10  22  36  56  80 126 156 197 245 299 342
#     4   9  20  40  61  85 118 148 198 249 305 358
#     4  10  21  33  58  88 116 152 208 236 285 357
#     4  10  20  36  56  84 120 168 192 242 294 346
#     4   9  20  37  56  85 116 152 199 245 293 360
#     4  11  21  36  52  83 118 159 201 246 284 354
#     4  10  20  39  62  86 116 157 190 257 298 358
#
# _framework density 25.915514999999999
#
# number of rings (size 3 to 8) (size 9 to 14) (size 15 to 20)
#    0.000    2.154    1.538    0.923    2.154    2.462 
#    0.000   10.000    0.000    0.000    0.000    0.000 
#    0.000    0.000    0.000    0.000    0.000    0.000 
#
# Total GULP energy -145037.640258 kJ/mol
# GULP energy per Si atom -5578.370779 kJ/mol
# Density = 2.585653 g / cm^3
# Si number density = 25.915515 Si / 1000 Ang^3
#
#
#
# Elastic Constant Matrix: (Units=GPa)
#
#
# Indices 1 2 3 4 5 6 
#
# 1 19.9828 4.4089 2.2839 0.0000 -12.2199 0.0000
# 2 4.4089 144.2668 33.4437 0.0000 -18.2133 0.0000
# 3 2.2839 33.4437 90.8708 0.0000 -16.0766 0.0000
# 4 0.0000 0.0000 0.0000 48.6968 0.0000 -15.4992
# 5 -12.2199 -18.2133 -16.0766 0.0000 32.8582 0.0000
# 6 0.0000 0.0000 0.0000 -15.4992 0.0000 28.9052
#
#
#
# Elastic Compliance Matrix: (Units=1/GPa)
#
#
# Indices 1 2 3 4 5 6 
#
# 1 0.065526 0.000657 0.002723 0.000000 0.026065 0.000000
# 2 0.000657 0.007886 -0.002301 0.000000 0.003489 0.000000
# 3 0.002723 -0.002301 0.012849 0.000000 0.006024 0.000000
# 4 0.000000 0.000000 0.000000 0.024761 0.000000 0.013277
# 5 0.026065 0.003489 0.006024 0.000000 0.045009 0.000000
# 6 0.000000 0.000000 0.000000 0.013277 0.000000 0.041715
#
#
# Mechanical properties :
#
#
# Convention : Reuss Voigt Hill
#
# Bulk Modulus (GPa) = 11.31000 37.26594 24.28797
# Shear Modulus (GPa) = 22.21618 36.42432 29.32025
#
# Velocity S-wave (km/s) = 2.93107 3.75307 3.36725
# Velocity P-wave (km/s) = 3.97851 5.76123 4.95077
#
# Compressibility (1/GPa) = 0.08841730
#
# Stress axis : x y z
#
# Youngs Moduli (GPa) = 15.26106 126.81450 77.82799
#
# Poissons Ratio (x) = -0.08331 -0.21191
# Poissons Ratio (y) = -0.01003 0.17911
# Poissons Ratio (z) = -0.04155 0.29185
#
# Static dielectric constant tensor:
#      x y z
#    x 2.288860 0.000000 -0.083510 
#    y 0.000000 2.209690 0.000000 
#    z -0.083510 0.000000 2.050720 
# 
# From -- ./inp_files/121525.got.cif
#   From: 2010.05.17/outbox.cif.g08.bks.cpg/sg15_61_cif.got.tgz:121525.got - 2010.06.03 18:47:42.
