data_PCOD9271433
_publ_section_title
;
Structure prediction by ZEFSAII (Michael W. Deem and Ramdas Pophale) SiO2 
 PCOD9271433
Probable space group: C 2/C
;
_chemical_formula_sum "Si O2"
_cell_formula_units_Z 48
_cell_length_a 10.302928
_cell_length_b 18.421779
_cell_length_c 9.375277
_cell_angle_alpha 90.000000
_cell_angle_beta 88.220855
_cell_angle_gamma 90.000000
_cell_volume 1778.553481
_symmetry_space_group_name_H-M "C 2/C"
_symmetry_group_IT_number 15
_symmetry_cell_setting 'monoclinic'
loop_
_space_group_symop_operation_xyz
x,y,z
-x,y,1/2-z
-x,-y,-z
x,-y,1/2+z
1/2+x,1/2+y,z
1/2-x,1/2+y,1/2-z
1/2-x,1/2-y,-z
1/2+x,1/2-y,1/2+z
loop_
_atom_site_type_symbol
_atom_site_label
_atom_site_fract_x
_atom_site_fract_y
_atom_site_fract_z
Si Si1 0.125454 0.460690 0.146654
Si Si2 0.253960 0.175972 0.917943
Si Si3 0.878235 0.095685 0.357658
Si Si4 0.366423 0.121282 0.344822
Si Si5 0.629577 0.562906 0.651540
Si Si6 0.370485 0.283105 0.355117
O O1 0.134881 0.384836 0.059523
O O2 0.132007 0.541596 0.076921
O O3 0.250951 0.448094 0.242801
O O4 0.000000 0.459802 0.250000
O O5 0.243224 0.202162 0.756399
O O6 0.250000 0.250000 0.000000
O O7 0.128663 0.141471 0.998837
O O8 0.753002 0.113918 0.263462
O O9 0.000000 0.104274 0.250000
O O10 0.873775 0.014419 0.421772
O O11 0.500000 0.121865 0.250000
O O12 0.360372 0.201804 0.417519
O O13 0.500000 0.565998 0.750000
O O14 0.637096 0.638499 0.565937
O O15 0.500000 0.281248 0.250000
#
# Coordination Sequence:
#
# PCOD9271433 Si02
#       6
#     8   8   8   8   8   8
#     4   9  19  35  57  85 114 152 194 238 291 346
#     4  11  21  36  59  91 116 152 202 244 294 351
#     4  10  20  36  59  87 118 152 201 249 288 340
#     4   9  17  35  59  80 116 160 188 232 302 347
#     4   8  16  33  54  81 111 156 187 229 293 338
#     4   9  17  34  60  80 114 161 188 229 301 352
#
# _framework density 26.988225
#
# number of rings (size 3 to 8) (size 9 to 14) (size 15 to 20)
#    0.000    2.667    1.667    0.000    0.000    0.667 
#    0.000   37.500    0.000    7.000    0.000    0.000 
#    0.000    0.000    0.000    0.000    0.000    0.000 
#
# Total GULP energy -133930.674642 kJ/mol
# GULP energy per Si atom -5580.444777 kJ/mol
# Density = 2.692680 g / cm^3
# Si number density = 26.988225 Si / 1000 Ang^3
#
#
#
# Elastic Constant Matrix: (Units=GPa)
#
#
# Indices 1 2 3 4 5 6 
#
# 1 132.7952 22.3142 23.4709 0.0000 -17.1055 0.0000
# 2 22.3142 319.8930 38.0304 0.0000 -20.9586 0.0000
# 3 23.4709 38.0304 80.9898 0.0000 -12.1627 0.0000
# 4 0.0000 0.0000 0.0000 25.0536 0.0000 -22.8155
# 5 -17.1055 -20.9586 -12.1627 0.0000 34.3931 0.0000
# 6 0.0000 0.0000 0.0000 -22.8155 0.0000 21.9937
#
#
#
# Elastic Compliance Matrix: (Units=1/GPa)
#
#
# Indices 1 2 3 4 5 6 
#
# 1 0.008316 -0.000139 -0.001834 0.000000 0.003403 0.000000
# 2 -0.000139 0.003393 -0.001323 0.000000 0.001531 0.000000
# 3 -0.001834 -0.001323 0.013985 0.000000 0.003227 0.000000
# 4 0.000000 0.000000 0.000000 0.721684 0.000000 0.748648
# 5 0.003403 0.001531 0.003227 0.000000 0.032842 0.000000
# 6 0.000000 0.000000 0.000000 0.748648 0.000000 0.822087
#
#
# Mechanical properties :
#
#
# Convention : Reuss Voigt Hill
#
# Bulk Modulus (GPa) = 52.35038 77.92322 65.13680
# Shear Modulus (GPa) = 3.09547 46.27891 24.68719
#
# Velocity S-wave (km/s) = 1.07213 4.14548 3.02775
# Velocity P-wave (km/s) = 4.57954 7.20063 6.03412
#
# Compressibility (1/GPa) = 0.01910206
#
# Stress axis : x y z
#
# Youngs Moduli (GPa) = 120.24735 294.69395 71.50717
#
# Poissons Ratio (x) = 0.04101 0.13112
# Poissons Ratio (y) = 0.01673 0.09462
# Poissons Ratio (z) = 0.22049 0.38994
#
# Static dielectric constant tensor:
#      x y z
#    x 2.256170 0.000000 0.097990 
#    y 0.000000 2.337430 0.000000 
#    z 0.097990 0.000000 2.216170 
# 
# From -- ./inp_files/87798.got.cif
#   From: 2010.05.17/outbox.cif.g08.bks.cpg/sg15_44_cif.got.tgz:87798.got - 2010.06.03 18:47:42.
