data_PCOD9271562
_publ_section_title
;
Structure prediction by ZEFSAII (Michael W. Deem and Ramdas Pophale) SiO2 
 PCOD9271562
Probable space group: C 2/C
;
_chemical_formula_sum "Si O2"
_cell_formula_units_Z 48
_cell_length_a 12.644292
_cell_length_b 12.221394
_cell_length_c 17.178934
_cell_angle_alpha 90.000000
_cell_angle_beta 69.622124
_cell_angle_gamma 90.000000
_cell_volume 2488.536838
_symmetry_space_group_name_H-M "C 2/C"
_symmetry_group_IT_number 15
_symmetry_cell_setting 'monoclinic'
loop_
_space_group_symop_operation_xyz
x,y,z
-x,y,1/2-z
-x,-y,-z
x,-y,1/2+z
1/2+x,1/2+y,z
1/2-x,1/2+y,1/2-z
1/2-x,1/2-y,-z
1/2+x,1/2-y,1/2+z
loop_
_atom_site_type_symbol
_atom_site_label
_atom_site_fract_x
_atom_site_fract_y
_atom_site_fract_z
Si Si1 0.258792 0.044193 0.283376
Si Si2 0.110730 0.139148 0.185998
Si Si3 0.469212 0.836068 0.672836
Si Si4 0.698875 0.685398 0.878896
Si Si5 0.895599 0.960612 0.973294
Si Si6 0.779788 0.356765 0.941438
O O1 0.171726 0.068789 0.237202
O O2 0.383243 0.064950 0.215490
O O3 0.244811 0.131749 0.358490
O O4 0.239154 0.924956 0.324668
O O5 0.199415 0.230725 0.138880
O O6 0.074563 0.065172 0.122548
O O7 0.000000 0.192679 0.250000
O O8 0.500000 0.789349 0.750000
O O9 0.398773 0.747028 0.643586
O O10 0.584335 0.868584 0.599296
O O11 0.649590 0.647764 0.973424
O O12 0.792930 0.046621 0.001565
O O13 0.000000 0.000000 0.000000
O O14 0.750000 0.250000 0.000000
#
# Coordination Sequence:
#
# PCOD9271562 Si02
#       6
#     8   8   8   8   8   8
#     4   9  21  39  58  85 117 152 191 238 292 345
#     4  11  23  38  58  85 115 152 194 235 288 346
#     4   9  19  36  59  86 113 148 193 238 285 346
#     4  10  21  38  58  83 116 148 187 239 290 342
#     4  11  23  39  59  83 116 154 192 239 289 346
#     4  10  20  36  60  86 113 150 193 237 285 339
#
# _framework density 19.288442
#
# number of rings (size 3 to 8) (size 9 to 14) (size 15 to 20)
#    0.000    2.000    0.000    3.500    0.000    9.333 
#    0.000    3.333    0.000    0.000    0.000    0.000 
#    0.000    0.000    0.000    0.000    0.000    0.000 
#
# Total GULP energy -133840.004701 kJ/mol
# GULP energy per Si atom -5576.666863 kJ/mol
# Density = 1.924454 g / cm^3
# Si number density = 19.288442 Si / 1000 Ang^3
#
#
#
# Elastic Constant Matrix: (Units=GPa)
#
#
# Indices 1 2 3 4 5 6 
#
# 1 120.2952 37.2913 58.5620 0.0000 -3.1723 0.0000
# 2 37.2913 54.1384 30.9286 0.0000 6.8231 0.0000
# 3 58.5620 30.9286 94.8718 0.0000 -4.8240 0.0000
# 4 0.0000 0.0000 0.0000 33.5455 0.0000 -0.1092
# 5 -3.1723 6.8231 -4.8240 0.0000 40.3716 0.0000
# 6 0.0000 0.0000 0.0000 -0.1092 0.0000 11.1882
#
#
#
# Elastic Compliance Matrix: (Units=1/GPa)
#
#
# Indices 1 2 3 4 5 6 
#
# 1 0.013110 -0.005653 -0.006186 0.000000 0.001246 0.000000
# 2 -0.005653 0.026079 -0.005291 0.000000 -0.005484 0.000000
# 3 -0.006186 -0.005291 0.016203 0.000000 0.002344 0.000000
# 4 0.000000 0.000000 0.000000 0.029811 0.000000 0.000291
# 5 0.001246 -0.005484 0.002344 0.000000 0.026075 0.000000
# 6 0.000000 0.000000 0.000000 0.000291 0.000000 0.089383
#
#
# Mechanical properties :
#
#
# Convention : Reuss Voigt Hill
#
# Bulk Modulus (GPa) = 47.32328 58.09660 52.70994
# Shear Modulus (GPa) = 20.66414 26.52263 23.59338
#
# Velocity S-wave (km/s) = 3.27666 3.71219 3.50120
# Velocity P-wave (km/s) = 6.23723 6.96844 6.61295
#
# Compressibility (1/GPa) = 0.02113125
#
# Stress axis : x y z
#
# Youngs Moduli (GPa) = 76.27959 38.34482 61.71669
#
# Poissons Ratio (x) = 0.21677 0.38177
# Poissons Ratio (y) = 0.43123 0.32655
# Poissons Ratio (z) = 0.47186 0.20289
#
# Static dielectric constant tensor:
#      x y z
#    x 1.686520 0.000000 -0.002890 
#    y 0.000000 1.647840 0.000000 
#    z -0.002890 0.000000 1.688610 
# 
# From -- ./inp_files/196502.got.cif
#   From: 2010.05.17/outbox.cif.g08.bks.cpg/sg15_99_cif.got.tgz:196502.got - 2010.06.03 18:47:42.
