data_PCOD9271109
_publ_section_title
;
Structure prediction by ZEFSAII (Michael W. Deem and Ramdas Pophale) SiO2 
 PCOD9271109
Probable space group: C 2/C
;
_chemical_formula_sum "Si O2"
_cell_formula_units_Z 56
_cell_length_a 9.016860
_cell_length_b 19.712369
_cell_length_c 16.667631
_cell_angle_alpha 90.000000
_cell_angle_beta 51.367751
_cell_angle_gamma 90.000000
_cell_volume 2314.265249
_symmetry_space_group_name_H-M "C 2/C"
_symmetry_group_IT_number 15
_symmetry_cell_setting 'monoclinic'
loop_
_space_group_symop_operation_xyz
x,y,z
-x,y,1/2-z
-x,-y,-z
x,-y,1/2+z
1/2+x,1/2+y,z
1/2-x,1/2+y,1/2-z
1/2-x,1/2-y,-z
1/2+x,1/2-y,1/2+z
loop_
_atom_site_type_symbol
_atom_site_label
_atom_site_fract_x
_atom_site_fract_y
_atom_site_fract_z
Si Si1 0.005517 0.600598 0.165385
Si Si2 0.292701 0.232677 0.847266
Si Si3 0.130268 0.383985 0.449653
Si Si4 0.204625 0.007886 0.704292
Si Si5 0.777668 0.150416 0.467057
Si Si6 0.031717 0.857021 0.344705
Si Si7 0.580667 0.571797 0.453594
O O1 0.195399 0.560392 0.126285
O O2 0.000000 0.644528 0.250000
O O3 0.839370 0.547949 0.197926
O O4 0.060941 0.634284 0.062415
O O5 0.500000 0.209572 0.750000
O O6 0.306488 0.309364 0.874217
O O7 0.154646 0.209212 0.822555
O O8 0.225006 0.196550 0.951984
O O9 0.197960 0.461089 0.409000
O O10 0.331337 0.344955 0.365717
O O11 0.939595 0.375993 0.462258
O O12 0.153016 0.076620 0.773432
O O13 0.000000 0.979628 0.750000
O O14 0.956801 0.101963 0.422874
O O15 0.956156 0.881502 0.456877
O O16 0.500000 0.500000 0.500000
#
# Coordination Sequence:
#
# PCOD9271109 Si02
#       7
#     8   8   8   8   8   8   8
#     4  11  23  35  52  82 121 161 195 236 303 375
#     4  10  21  39  61  86 116 156 202 256 313 363
#     4  10  21  37  57  84 118 153 198 254 307 363
#     4  10  20  36  58  86 116 154 207 259 303 362
#     4  10  22  38  61  88 117 156 207 255 305 372
#     4   9  20  37  59  86 115 151 201 253 305 363
#     4  10  20  36  57  84 119 158 195 240 300 367
#
# _framework density 24.197744
#
# number of rings (size 3 to 8) (size 9 to 14) (size 15 to 20)
#    0.000    2.000    0.000    3.000    0.000    8.000 
#    0.000    0.000    0.000    2.571    0.000    0.000 
#    0.000    0.000    0.000    0.000    0.000    0.000 
#
# Total GULP energy -155901.261650 kJ/mol
# GULP energy per Si atom -5567.902202 kJ/mol
# Density = 2.414267 g / cm^3
# Si number density = 24.197744 Si / 1000 Ang^3
#
#
#
# Elastic Constant Matrix: (Units=GPa)
#
#
# Indices 1 2 3 4 5 6 
#
# 1 170.7720 57.2627 19.0298 0.0000 -46.5554 0.0000
# 2 57.2627 46.0880 7.6589 0.0000 -10.5285 0.0000
# 3 19.0298 7.6589 59.4444 0.0000 -0.7578 0.0000
# 4 0.0000 0.0000 0.0000 18.4254 0.0000 2.9026
# 5 -46.5554 -10.5285 -0.7578 0.0000 42.6526 0.0000
# 6 0.0000 0.0000 0.0000 2.9026 0.0000 31.0414
#
#
#
# Elastic Compliance Matrix: (Units=1/GPa)
#
#
# Indices 1 2 3 4 5 6 
#
# 1 0.014297 -0.014610 -0.002542 0.000000 0.011953 0.000000
# 2 -0.014610 0.038432 -0.000357 0.000000 -0.006467 0.000000
# 3 -0.002542 -0.000357 0.017650 0.000000 -0.002549 0.000000
# 4 0.000000 0.000000 0.000000 0.055084 0.000000 -0.005151
# 5 0.011953 -0.006467 -0.002549 0.000000 0.034851 0.000000
# 6 0.000000 0.000000 0.000000 -0.005151 0.000000 0.032697
#
#
# Mechanical properties :
#
#
# Convention : Reuss Voigt Hill
#
# Bulk Modulus (GPa) = 28.28014 49.35634 38.81824
# Shear Modulus (GPa) = 20.84937 31.24743 26.04840
#
# Velocity S-wave (km/s) = 2.93853 3.59742 3.28454
# Velocity P-wave (km/s) = 4.81931 6.13975 5.51916
#
# Compressibility (1/GPa) = 0.03536050
#
# Stress axis : x y z
#
# Youngs Moduli (GPa) = 69.94611 26.01981 56.65813
#
# Poissons Ratio (x) = 0.38015 0.14403
# Poissons Ratio (y) = 1.02192 0.02023
# Poissons Ratio (z) = 0.17780 0.00929
#
# Static dielectric constant tensor:
#      x y z
#    x 2.164920 0.000000 -0.065580 
#    y 0.000000 1.959070 0.000000 
#    z -0.065580 0.000000 1.895310 
# 
# From -- ./inp_files/193208.got.cif
#   From: 2010.05.17/outbox.cif.g08.bks.cpg/sg15_97_cif.got.tgz:193208.got - 2010.06.03 18:47:42.
