data_PCOD9271638
_publ_section_title
;
Structure prediction by ZEFSAII (Michael W. Deem and Ramdas Pophale) SiO2 
 PCOD9271638
Probable space group: C 2/C
;
_chemical_formula_sum "Si O2"
_cell_formula_units_Z 40
_cell_length_a 12.848618
_cell_length_b 7.580845
_cell_length_c 30.178208
_cell_angle_alpha 90.000000
_cell_angle_beta 149.202615
_cell_angle_gamma 90.000000
_cell_volume 1505.014029
_symmetry_space_group_name_H-M "C 2/C"
_symmetry_group_IT_number 15
_symmetry_cell_setting 'monoclinic'
loop_
_space_group_symop_operation_xyz
x,y,z
-x,y,1/2-z
-x,-y,-z
x,-y,1/2+z
1/2+x,1/2+y,z
1/2-x,1/2+y,1/2-z
1/2-x,1/2-y,-z
1/2+x,1/2-y,1/2+z
loop_
_atom_site_type_symbol
_atom_site_label
_atom_site_fract_x
_atom_site_fract_y
_atom_site_fract_z
Si Si1 0.674141 0.796057 0.850178
Si Si2 0.637741 0.099949 0.513408
Si Si3 0.100134 0.175129 0.227556
Si Si4 0.770498 0.827090 0.368638
Si Si5 0.565422 0.875708 0.126025
O O1 0.500000 0.775757 0.750000
O O2 0.865288 0.735050 0.891225
O O3 0.708482 0.000680 0.872730
O O4 0.661337 0.675337 0.889269
O O5 0.501849 0.273909 0.455148
O O6 0.625023 0.986695 0.463640
O O7 0.500000 0.000000 0.500000
O O8 0.202057 0.337769 0.292553
O O9 0.259630 0.017830 0.295035
O O10 0.055856 0.236677 0.161969
O O11 0.874536 0.168127 0.166676
#
# Coordination Sequence:
#
# PCOD9271638 Si02
#       5
#     8   8   8   8   8
#     4  11  21  37  65  86 119 162 208 244 311 359
#     4   9  21  38  60  88 124 162 202 251 302 359
#     4  10  20  36  60  90 119 160 200 250 299 361
#     4  10  20  38  62  86 123 158 206 246 303 365
#     4  10  22  37  61  89 126 157 205 251 303 359
#
# _framework density 26.577825000000001
#
# number of rings (size 3 to 8) (size 9 to 14) (size 15 to 20)
#    0.000    2.000    2.000    1.800    8.400    0.000 
#    0.000    5.000    4.400    0.000    0.000    0.000 
#    0.000    0.000    0.000    0.000    0.000    0.000 
#
# Total GULP energy -111650.856117 kJ/mol
# GULP energy per Si atom -5582.542806 kJ/mol
# Density = 2.651733 g / cm^3
# Si number density = 26.577825 Si / 1000 Ang^3
#
#
#
# Elastic Constant Matrix: (Units=GPa)
#
#
# Indices 1 2 3 4 5 6 
#
# 1 44.4476 -6.5486 -6.3719 0.0000 -20.8090 0.0000
# 2 -6.5486 75.7915 22.3241 0.0000 -1.9814 0.0000
# 3 -6.3719 22.3241 112.8071 -0.0001 -6.7231 0.0000
# 4 0.0000 0.0000 -0.0001 29.0219 0.0000 -5.5071
# 5 -20.8090 -1.9814 -6.7231 0.0000 30.1608 0.0000
# 6 0.0000 0.0000 0.0000 -5.5071 0.0000 23.9658
#
#
#
# Elastic Compliance Matrix: (Units=1/GPa)
#
#
# Indices 1 2 3 4 5 6 
#
# 1 0.035041 0.002824 0.002911 0.000000 0.025010 0.000000
# 2 0.002824 0.014241 -0.002520 0.000000 0.002322 0.000000
# 3 0.002911 -0.002520 0.009767 0.000000 0.004020 0.000000
# 4 0.000000 0.000000 0.000000 0.036028 0.000000 0.008279
# 5 0.025010 0.002322 0.004020 0.000000 0.051460 0.000000
# 6 0.000000 0.000000 0.000000 0.008279 0.000000 0.043628
#
#
# Mechanical properties :
#
#
# Convention : Reuss Voigt Hill
#
# Bulk Modulus (GPa) = 15.27212 27.98372 21.62792
# Shear Modulus (GPa) = 24.32351 31.53919 27.93135
#
# Velocity S-wave (km/s) = 3.02848 3.44855 3.24532
# Velocity P-wave (km/s) = 4.24117 5.13892 4.71148
#
# Compressibility (1/GPa) = 0.06547881
#
# Stress axis : x y z
#
# Youngs Moduli (GPa) = 28.53812 70.21895 102.38058
#
# Poissons Ratio (x) = -0.19830 -0.29803
# Poissons Ratio (y) = -0.08059 0.25804
# Poissons Ratio (z) = -0.08307 0.17698
#
# Static dielectric constant tensor:
#      x y z
#    x 2.131950 0.000000 -0.031770 
#    y 0.000000 2.119110 0.000000 
#    z -0.031770 0.000000 2.224500 
# 
# From -- ./inp_files/150683.got.cif
#   From: 2010.05.17/outbox.cif.g08.bks.cpg/sg15_76_cif.got.tgz:150683.got - 2010.06.03 18:47:42.
