data_PCOD9271012
_publ_section_title
;
Structure prediction by ZEFSAII (Michael W. Deem and Ramdas Pophale) SiO2 
 PCOD9271012
Probable space group: C 2/C
;
_chemical_formula_sum "Si O2"
_cell_formula_units_Z 48
_cell_length_a 23.112562
_cell_length_b 18.675428
_cell_length_c 5.120100
_cell_angle_alpha 90.000000
_cell_angle_beta 97.053606
_cell_angle_gamma 90.000000
_cell_volume 2193.298403
_symmetry_space_group_name_H-M "C 2/C"
_symmetry_group_IT_number 15
_symmetry_cell_setting 'monoclinic'
loop_
_space_group_symop_operation_xyz
x,y,z
-x,y,1/2-z
-x,-y,-z
x,-y,1/2+z
1/2+x,1/2+y,z
1/2-x,1/2+y,1/2-z
1/2-x,1/2-y,-z
1/2+x,1/2-y,1/2+z
loop_
_atom_site_type_symbol
_atom_site_label
_atom_site_fract_x
_atom_site_fract_y
_atom_site_fract_z
Si Si1 0.824673 0.675702 0.439790
Si Si2 0.560545 0.334174 0.869606
Si Si3 0.400306 0.265926 0.113475
Si Si4 0.208053 0.545925 0.800646
Si Si5 0.347584 0.453918 0.412799
Si Si6 0.788533 0.202485 0.328317
O O1 0.870020 0.697280 0.238351
O O2 0.833445 0.613210 0.652790
O O3 0.811006 0.748122 0.600165
O O4 0.762199 0.650209 0.287155
O O5 0.500000 0.370403 0.750000
O O6 0.571347 0.272445 0.655990
O O7 0.613984 0.388936 0.948200
O O8 0.557491 0.296667 0.146892
O O9 0.344158 0.317926 0.028031
O O10 0.196048 0.485629 0.010425
O O11 0.278024 0.561190 0.857459
O O12 0.360903 0.483230 0.131185
O O13 0.750000 0.250000 0.500000
#
# Coordination Sequence:
#
# PCOD9271012 Si02
#       6
#     8   8   8   8   8   8
#     4  10  20  36  56  86 118 152 190 223 296 356
#     4  12  25  40  60  83 112 149 205 262 298 332
#     4  11  22  38  56  85 112 147 185 245 302 349
#     4  10  23  35  54  83 121 158 189 230 269 343
#     4  10  22  40  56  78 112 160 200 239 285 331
#     4   9  19  31  57  86 110 152 182 235 275 365
#
# _framework density 21.88485
#
# number of rings (size 3 to 8) (size 9 to 14) (size 15 to 20)
#    0.000    1.667    1.667    2.500    9.333    2.000 
#    0.000    0.000    0.000    0.000    0.000    0.000 
#    0.000   13.333    0.000    0.000    0.000    0.000 
#
# Total GULP energy -133654.646372 kJ/mol
# GULP energy per Si atom -5568.943599 kJ/mol
# Density = 2.183504 g / cm^3
# Si number density = 21.884850 Si / 1000 Ang^3
#
#
#
# Elastic Constant Matrix: (Units=GPa)
#
#
# Indices 1 2 3 4 5 6 
#
# 1 42.5532 12.2762 18.9909 0.0000 4.6562 0.0000
# 2 12.2762 61.5657 11.8423 0.0000 -10.9771 0.0000
# 3 18.9909 11.8423 126.7223 0.0000 -4.7405 0.0000
# 4 0.0000 0.0000 0.0000 22.0352 0.0000 -1.9013
# 5 4.6562 -10.9771 -4.7405 0.0000 36.4034 0.0000
# 6 0.0000 0.0000 0.0000 -1.9013 0.0000 13.0907
#
#
#
# Elastic Compliance Matrix: (Units=1/GPa)
#
#
# Indices 1 2 3 4 5 6 
#
# 1 0.027490 -0.005777 -0.003795 0.000000 -0.005752 0.000000
# 2 -0.005777 0.018637 -0.000641 0.000000 0.006275 0.000000
# 3 -0.003795 -0.000641 0.008573 0.000000 0.001408 0.000000
# 4 0.000000 0.000000 0.000000 0.045958 0.000000 0.006675
# 5 -0.005752 0.006275 0.001408 0.000000 0.030281 0.000000
# 6 0.000000 0.000000 0.000000 0.006675 0.000000 0.077359
#
#
# Mechanical properties :
#
#
# Convention : Reuss Voigt Hill
#
# Bulk Modulus (GPa) = 29.17761 35.22889 32.20325
# Shear Modulus (GPa) = 20.82043 26.82131 23.82087
#
# Velocity S-wave (km/s) = 3.08776 3.50460 3.30277
# Velocity P-wave (km/s) = 5.10624 5.70164 5.41213
#
# Compressibility (1/GPa) = 0.03427285
#
# Stress axis : x y z
#
# Youngs Moduli (GPa) = 36.37726 53.65684 116.65074
#
# Poissons Ratio (x) = 0.30998 0.44269
# Poissons Ratio (y) = 0.21015 0.07479
# Poissons Ratio (z) = 0.13805 0.03440
#
# Static dielectric constant tensor:
#      x y z
#    x 1.863610 0.000000 0.021570 
#    y 0.000000 1.859750 0.000000 
#    z 0.021570 0.000000 1.902600 
# 
# From -- ./inp_files/15555.got.cif
#   From: 2010.05.17/outbox.cif.g08.bks.cpg/sg15_8_cif.got.tgz:15555.got - 2010.06.03 18:47:42.
