data_PCOD9271818
_publ_section_title
;
Structure prediction by ZEFSAII (Michael W. Deem and Ramdas Pophale) SiO2 
 PCOD9271818
Probable space group: C 2/C
;
_chemical_formula_sum "Si O2"
_cell_formula_units_Z 64
_cell_length_a 18.148091
_cell_length_b 9.179613
_cell_length_c 21.663917
_cell_angle_alpha 90.000000
_cell_angle_beta 54.404628
_cell_angle_gamma 90.000000
_cell_volume 2934.686969
_symmetry_space_group_name_H-M "C 2/C"
_symmetry_group_IT_number 15
_symmetry_cell_setting 'monoclinic'
loop_
_space_group_symop_operation_xyz
x,y,z
-x,y,1/2-z
-x,-y,-z
x,-y,1/2+z
1/2+x,1/2+y,z
1/2-x,1/2+y,1/2-z
1/2-x,1/2-y,-z
1/2+x,1/2-y,1/2+z
loop_
_atom_site_type_symbol
_atom_site_label
_atom_site_fract_x
_atom_site_fract_y
_atom_site_fract_z
Si Si1 0.700420 0.929818 0.831421
Si Si2 0.969565 0.902482 0.334204
Si Si3 0.309024 0.196971 0.364241
Si Si4 0.666512 0.337814 0.279437
Si Si5 0.232640 0.401960 0.067126
Si Si6 0.597863 0.692663 0.067399
Si Si7 0.503433 0.029033 0.925073
Si Si8 0.813913 0.574107 0.527011
O O1 0.701471 0.757563 0.819481
O O2 0.781945 0.009987 0.756025
O O3 0.602172 0.983771 0.854306
O O4 0.700479 0.983481 0.902502
O O5 0.893156 0.779995 0.356571
O O6 0.000000 0.947442 0.250000
O O7 0.058164 0.849458 0.328067
O O8 0.937080 0.044542 0.386397
O O9 0.307982 0.247476 0.294451
O O10 0.220766 0.266096 0.440321
O O11 0.304405 0.023619 0.369193
O O12 0.158737 0.279338 0.088237
O O13 0.332975 0.337175 0.023192
O O14 0.241566 0.493868 0.998730
O O15 0.521619 0.806162 0.081556
O O16 0.500000 0.000000 0.000000
O O17 0.415253 0.934965 0.950565
#
# Coordination Sequence:
#
# PCOD9271818 Si02
#       8
#     8   8   8   8   8   8   8   8
#     4  10  22  42  60  81 118 166 209 243 296 357
#     4  10  22  40  61  89 125 159 204 247 304 360
#     4  10  20  39  62  91 124 156 196 253 309 365
#     4  10  24  41  59  86 119 167 209 247 292 362
#     4  10  20  36  61  96 124 145 197 252 316 362
#     4  10  21  36  60  94 120 155 194 253 304 356
#     4   9  20  38  60  84 117 158 201 244 302 356
#     4   9  18  36  66  84 116 157 192 244 310 356
#
# _framework density 21.808119000000001
#
# number of rings (size 3 to 8) (size 9 to 14) (size 15 to 20)
#    0.000    2.250    1.250    0.375    5.250    0.000 
#   11.250    0.000    0.000    9.000    0.000    0.000 
#    0.000    0.000    0.000    0.000    0.000    0.000 
#
# Total GULP energy -178507.538489 kJ/mol
# GULP energy per Si atom -5578.360578 kJ/mol
# Density = 2.175848 g / cm^3
# Si number density = 21.808119 Si / 1000 Ang^3
#
#
#
# Elastic Constant Matrix: (Units=GPa)
#
#
# Indices 1 2 3 4 5 6 
#
# 1 33.3252 8.8881 12.7434 0.0000 -6.2755 0.0001
# 2 8.8881 77.3784 17.2315 0.0000 3.7617 0.0002
# 3 12.7434 17.2315 27.7330 0.0000 2.3457 0.0000
# 4 0.0000 0.0000 0.0000 31.4703 0.0000 3.2313
# 5 -6.2755 3.7617 2.3457 0.0000 27.5716 0.0000
# 6 0.0001 0.0002 0.0000 3.2313 0.0000 32.7319
#
#
#
# Elastic Compliance Matrix: (Units=1/GPa)
#
#
# Indices 1 2 3 4 5 6 
#
# 1 0.039283 -0.000939 -0.018367 0.000000 0.010632 0.000000
# 2 -0.000939 0.015065 -0.008800 0.000000 -0.001520 0.000000
# 3 -0.018367 -0.008800 0.050582 0.000000 -0.007283 0.000000
# 4 0.000000 0.000000 0.000000 0.032101 0.000000 -0.003169
# 5 0.010632 -0.001520 -0.007283 0.000000 0.039516 0.000000
# 6 0.000000 0.000000 0.000000 -0.003169 0.000000 0.030864
#
#
# Mechanical properties :
#
#
# Convention : Reuss Voigt Hill
#
# Bulk Modulus (GPa) = 20.52633 24.01807 22.27220
# Shear Modulus (GPa) = 17.86590 24.99299 21.42944
#
# Velocity S-wave (km/s) = 2.86533 3.38899 3.13810
# Velocity P-wave (km/s) = 4.51436 5.13332 4.83376
#
# Compressibility (1/GPa) = 0.04871791
#
# Stress axis : x y z
#
# Youngs Moduli (GPa) = 25.45622 66.37879 19.77002
#
# Poissons Ratio (x) = 0.06233 0.36311
# Poissons Ratio (y) = 0.02391 0.17398
# Poissons Ratio (z) = 0.46754 0.58416
#
# Static dielectric constant tensor:
#      x y z
#    x 1.919290 0.000000 -0.035710 
#    y 0.000000 1.818530 0.000000 
#    z -0.035710 0.000000 1.817380 
# 
# From -- ./inp_files/279548.got.cif
#   From: 2010.05.17/outbox.cif.g08.bks.cpg/sg15_140_cif.got.tgz:279548.got - 2010.06.03 18:47:42.
