data_PCOD9271697
_publ_section_title
;
Structure prediction by ZEFSAII (Michael W. Deem and Ramdas Pophale) SiO2 
 PCOD9271697
Probable space group: C 2/C
;
_chemical_formula_sum "Si O2"
_cell_formula_units_Z 48
_cell_length_a 18.093105
_cell_length_b 16.047664
_cell_length_c 14.904217
_cell_angle_alpha 90.000000
_cell_angle_beta 150.116307
_cell_angle_gamma 90.000000
_cell_volume 2156.123069
_symmetry_space_group_name_H-M "C 2/C"
_symmetry_group_IT_number 15
_symmetry_cell_setting 'monoclinic'
loop_
_space_group_symop_operation_xyz
x,y,z
-x,y,1/2-z
-x,-y,-z
x,-y,1/2+z
1/2+x,1/2+y,z
1/2-x,1/2+y,1/2-z
1/2-x,1/2-y,-z
1/2+x,1/2-y,1/2+z
loop_
_atom_site_type_symbol
_atom_site_label
_atom_site_fract_x
_atom_site_fract_y
_atom_site_fract_z
Si Si1 0.046452 0.407806 0.085920
Si Si2 0.980556 0.763558 0.132756
Si Si3 0.771651 0.974346 0.445838
Si Si4 0.753562 0.844521 0.151916
Si Si5 0.104588 0.020588 0.229314
Si Si6 0.736128 0.379538 0.698827
O O1 0.128171 0.421562 0.265635
O O2 0.177437 0.367220 0.165262
O O3 0.000000 0.500000 0.000000
O O4 0.894218 0.358429 0.911428
O O5 0.000000 0.806316 0.250000
O O6 0.141849 0.766142 0.260172
O O7 0.894303 0.677182 0.060467
O O8 0.879565 0.809757 0.953089
O O9 0.740383 0.065135 0.367327
O O10 0.799933 0.962284 0.580598
O O11 0.933912 0.957125 0.571498
O O12 0.859926 0.922387 0.243869
O O13 0.158217 0.065268 0.195362
#
# Coordination Sequence:
#
# PCOD9271697 Si02
#       6
#     8   8   8   8   8   8
#     4  10  21  38  60  90 124 163 210 275 314 374
#     4  12  26  41  62  92 135 179 217 259 326 399
#     4  10  20  36  60  95 124 160 218 264 321 377
#     4  12  23  41  58  90 128 175 212 262 324 379
#     4  11  21  37  67  91 127 171 215 272 317 375
#     4  11  21  41  60  91 128 168 218 269 323 377
#
# _framework density 22.262180000000001
#
# number of rings (size 3 to 8) (size 9 to 14) (size 15 to 20)
#    0.000    1.000    5.000    4.000    0.000    3.333 
#    0.000    0.000    0.000    1.000    0.000    0.000 
#    0.000    0.000    0.000    0.000    0.000    0.000 
#
# Total GULP energy -133642.257903 kJ/mol
# GULP energy per Si atom -5568.427413 kJ/mol
# Density = 2.221151 g / cm^3
# Si number density = 22.262180 Si / 1000 Ang^3
#
#
#
# Elastic Constant Matrix: (Units=GPa)
#
#
# Indices 1 2 3 4 5 6 
#
# 1 62.8098 22.7141 35.7030 0.0000 -2.4807 0.0000
# 2 22.7141 28.3443 10.5830 0.0000 -4.0846 0.0000
# 3 35.7030 10.5830 143.8341 0.0000 -17.0465 0.0000
# 4 0.0000 0.0000 0.0000 40.8147 0.0000 -4.1367
# 5 -2.4807 -4.0846 -17.0465 0.0000 41.2631 0.0000
# 6 0.0000 0.0000 0.0000 -4.1367 0.0000 14.2428
#
#
#
# Elastic Compliance Matrix: (Units=1/GPa)
#
#
# Indices 1 2 3 4 5 6 
#
# 1 0.025683 -0.018973 -0.005277 0.000000 -0.002514 0.000000
# 2 -0.018973 0.050564 0.001522 0.000000 0.004493 0.000000
# 3 -0.005277 0.001522 0.008549 0.000000 0.003365 0.000000
# 4 0.000000 0.000000 0.000000 0.025244 0.000000 0.007332
# 5 -0.002514 0.004493 0.003365 0.000000 0.025919 0.000000
# 6 0.000000 0.000000 0.000000 0.007332 0.000000 0.072340
#
#
# Mechanical properties :
#
#
# Convention : Reuss Voigt Hill
#
# Bulk Modulus (GPa) = 25.42000 41.44318 33.43159
# Shear Modulus (GPa) = 18.73575 30.33000 24.53288
#
# Velocity S-wave (km/s) = 2.90417 3.69507 3.32324
# Velocity P-wave (km/s) = 4.76329 6.07134 5.45665
#
# Compressibility (1/GPa) = 0.03933910
#
# Stress axis : x y z
#
# Youngs Moduli (GPa) = 38.93660 19.77681 116.97006
#
# Poissons Ratio (x) = 0.37523 0.61725
# Poissons Ratio (y) = 0.73875 -0.17800
# Poissons Ratio (z) = 0.20547 -0.03009
#
# Static dielectric constant tensor:
#      x y z
#    x 1.836410 0.000000 0.007760 
#    y 0.000000 2.034750 0.000000 
#    z 0.007760 0.000000 1.855200 
# 
# From -- ./inp_files/163314.got.cif
#   From: 2010.05.17/outbox.cif.g08.bks.cpg/sg15_82_cif.got.tgz:163314.got - 2010.06.03 18:47:42.
