data_PCOD9271687
_publ_section_title
;
Structure prediction by ZEFSAII (Michael W. Deem and Ramdas Pophale) SiO2 
 PCOD9271687
Probable space group: C 2/C
;
_chemical_formula_sum "Si O2"
_cell_formula_units_Z 60
_cell_length_a 9.414870
_cell_length_b 21.482986
_cell_length_c 19.543885
_cell_angle_alpha 90.000000
_cell_angle_beta 140.893770
_cell_angle_gamma 90.000000
_cell_volume 2493.355157
_symmetry_space_group_name_H-M "C 2/C"
_symmetry_group_IT_number 15
_symmetry_cell_setting 'monoclinic'
loop_
_space_group_symop_operation_xyz
x,y,z
-x,y,1/2-z
-x,-y,-z
x,-y,1/2+z
1/2+x,1/2+y,z
1/2-x,1/2+y,1/2-z
1/2-x,1/2-y,-z
1/2+x,1/2-y,1/2+z
loop_
_atom_site_type_symbol
_atom_site_label
_atom_site_fract_x
_atom_site_fract_y
_atom_site_fract_z
Si Si1 0.546290 0.426656 0.359117
Si Si2 0.374226 0.839685 0.415174
Si Si3 0.207823 0.115428 0.509097
Si Si4 0.000000 0.265584 0.750000
Si Si5 0.818129 0.526421 0.088827
Si Si6 0.321512 0.450099 0.807090
Si Si7 0.987470 0.286848 0.597022
Si Si8 0.738283 0.665569 0.662876
O O1 0.711161 0.399389 0.363322
O O2 0.687590 0.436668 0.481884
O O3 0.436803 0.493682 0.308877
O O4 0.363227 0.375585 0.314007
O O5 0.582933 0.847201 0.443175
O O6 0.215353 0.780812 0.337614
O O7 0.479859 0.832423 0.530598
O O8 0.127204 0.147240 0.548937
O O9 0.999672 0.105897 0.379243
O O10 0.302617 0.046407 0.562562
O O11 0.005281 0.305597 0.682827
O O12 0.711301 0.531242 0.124628
O O13 0.069949 0.552580 0.185956
O O14 0.750000 0.250000 0.500000
O O15 0.182398 0.236363 0.658033
O O16 0.000000 0.652697 0.750000
#
# Coordination Sequence:
#
# PCOD9271687 Si02
#       8
#     8   8   8   4   8   8   8   8
#     4  11  20  39  62  92 127 166 210 271 307 372
#     4  11  25  41  65  96 131 164 217 268 327 388
#     4  11  22  38  62  95 130 170 213 270 317 371
#     4  10  20  40  68  94 116 170 216 254 330 394
#     4  10  20  36  60  93 128 176 216 257 316 380
#     4  10  20  36  60  93 130 169 223 258 307 383
#     4  10  22  43  65  92 129 158 212 274 318 390
#     4  12  21  37  68  95 120 166 219 270 312 376
#
# _framework density 24.063959000000001
#
# number of rings (size 3 to 8) (size 9 to 14) (size 15 to 20)
#    0.000    1.333    5.333    2.400    1.867    2.667 
#    0.000    7.333    0.000    0.000    0.000    0.000 
#    0.000    0.000    0.000    0.000    0.000    0.000 
#
# Total GULP energy -167938.349748 kJ/mol
# GULP energy per Si atom -5597.944992 kJ/mol
# Density = 2.400919 g / cm^3
# Si number density = 24.063959 Si / 1000 Ang^3
#
#
#
# Elastic Constant Matrix: (Units=GPa)
#
#
# Indices 1 2 3 4 5 6 
#
# 1 113.6977 12.2324 26.5937 -0.0001 -8.7072 -0.0002
# 2 12.2324 32.7996 12.5962 -0.0001 -6.0932 0.0000
# 3 26.5937 12.5962 108.7697 -0.0005 1.2013 -0.0006
# 4 -0.0001 -0.0001 -0.0005 21.5715 -0.0002 -7.9601
# 5 -8.7072 -6.0932 1.2013 -0.0002 41.7843 -0.0003
# 6 -0.0002 0.0000 -0.0006 -7.9601 -0.0003 20.7399
#
#
#
# Elastic Compliance Matrix: (Units=1/GPa)
#
#
# Indices 1 2 3 4 5 6 
#
# 1 0.009685 -0.002487 -0.002099 0.000000 0.001716 0.000000
# 2 -0.002487 0.033522 -0.003323 0.000000 0.004466 0.000000
# 3 -0.002099 -0.003323 0.010105 0.000000 -0.001213 0.000000
# 4 0.000000 0.000000 0.000000 0.054006 0.000000 0.020728
# 5 0.001716 0.004466 -0.001213 0.000000 0.024976 0.000001
# 6 0.000000 0.000000 0.000000 0.020728 0.000001 0.056172
#
#
# Mechanical properties :
#
#
# Convention : Reuss Voigt Hill
#
# Bulk Modulus (GPa) = 26.67147 39.79018 33.23082
# Shear Modulus (GPa) = 23.06459 30.40877 26.73668
#
# Velocity S-wave (km/s) = 3.09928 3.55866 3.33688
# Velocity P-wave (km/s) = 4.89029 5.78416 5.35591
#
# Compressibility (1/GPa) = 0.03749324
#
# Stress axis : x y z
#
# Youngs Moduli (GPa) = 103.25053 29.83154 98.95941
#
# Poissons Ratio (x) = 0.07420 0.20771
# Poissons Ratio (y) = 0.25681 0.32886
# Poissons Ratio (z) = 0.21671 0.09914
#
# Static dielectric constant tensor:
#      x y z
#    x 1.939390 0.000000 -0.063320 
#    y 0.000000 1.916470 0.000000 
#    z -0.063320 0.000000 2.019830 
# 
# From -- ./inp_files/137349.got.cif
#   From: 2010.05.17/outbox.cif.g08.bks.cpg/sg15_69_cif.got.tgz:137349.got - 2010.06.03 18:47:42.
