data_PCOD9271094
_publ_section_title
;
Structure prediction by ZEFSAII (Michael W. Deem and Ramdas Pophale) SiO2 
 PCOD9271094
Probable space group: C 2/C
;
_chemical_formula_sum "Si O2"
_cell_formula_units_Z 40
_cell_length_a 8.643542
_cell_length_b 14.199580
_cell_length_c 19.890681
_cell_angle_alpha 90.000000
_cell_angle_beta 134.129884
_cell_angle_gamma 90.000000
_cell_volume 1752.258212
_symmetry_space_group_name_H-M "C 2/C"
_symmetry_group_IT_number 15
_symmetry_cell_setting 'monoclinic'
loop_
_space_group_symop_operation_xyz
x,y,z
-x,y,1/2-z
-x,-y,-z
x,-y,1/2+z
1/2+x,1/2+y,z
1/2-x,1/2+y,1/2-z
1/2-x,1/2-y,-z
1/2+x,1/2-y,1/2+z
loop_
_atom_site_type_symbol
_atom_site_label
_atom_site_fract_x
_atom_site_fract_y
_atom_site_fract_z
Si Si1 0.382573 0.655951 0.966729
Si Si2 0.098747 0.977842 0.437944
Si Si3 0.310441 0.910787 0.746276
Si Si4 0.940188 0.268892 0.352179
Si Si5 0.252040 0.964232 0.341634
O O1 0.540578 0.620024 0.956468
O O2 0.159556 0.705344 0.879466
O O3 0.322401 0.558356 0.987045
O O4 0.491979 0.722114 0.055689
O O5 0.258266 0.967722 0.423733
O O6 0.870666 0.021332 0.342249
O O7 0.500000 0.901644 0.750000
O O8 0.202484 0.809990 0.725996
O O9 0.376568 0.957085 0.836687
O O10 0.814677 0.363646 0.330828
O O11 0.000000 0.982017 0.250000
#
# Coordination Sequence:
#
# PCOD9271094 Si02
#       5
#     8   8   8   8   8
#     4   9  19  37  58  81 112 150 187 229 286 344
#     4   9  19  37  58  82 114 149 188 235 287 339
#     4  10  20  37  58  80 114 154 190 235 285 336
#     4  10  20  36  57  83 113 148 191 231 281 344
#     4  10  21  37  56  84 114 144 191 239 284 339
#
# _framework density 22.827686
#
# number of rings (size 3 to 8) (size 9 to 14) (size 15 to 20)
#    0.000    2.400    0.000    1.800    0.000    1.600 
#    0.000   39.000    0.000    0.000    0.000    0.000 
#    0.000    0.000    0.000    0.000    0.000    0.000 
#
# Total GULP energy -111806.274282 kJ/mol
# GULP energy per Si atom -5590.313714 kJ/mol
# Density = 2.277573 g / cm^3
# Si number density = 22.827686 Si / 1000 Ang^3
#
#
#
# Elastic Constant Matrix: (Units=GPa)
#
#
# Indices 1 2 3 4 5 6 
#
# 1 107.5952 70.2068 36.6612 0.0000 -22.0074 0.0000
# 2 70.2068 108.3652 18.6352 0.0000 -16.3131 0.0000
# 3 36.6612 18.6352 35.1277 0.0000 -7.4915 0.0000
# 4 0.0000 0.0000 0.0000 29.1284 0.0000 2.9473
# 5 -22.0074 -16.3131 -7.4915 0.0000 27.1459 0.0000
# 6 0.0000 0.0000 0.0000 2.9473 0.0000 34.4362
#
#
#
# Elastic Compliance Matrix: (Units=1/GPa)
#
#
# Indices 1 2 3 4 5 6 
#
# 1 0.024620 -0.011683 -0.017784 0.000000 0.008031 0.000000
# 2 -0.011683 0.016353 0.003819 0.000000 0.001409 0.000000
# 3 -0.017784 0.003819 0.045069 0.000000 0.000315 0.000000
# 4 0.000000 0.000000 0.000000 0.034631 0.000000 -0.002964
# 5 0.008031 0.001409 0.000315 0.000000 0.044282 0.000000
# 6 0.000000 0.000000 0.000000 -0.002964 0.000000 0.029293
#
#
# Mechanical properties :
#
#
# Convention : Reuss Voigt Hill
#
# Bulk Modulus (GPa) = 28.78134 55.78827 42.28481
# Shear Modulus (GPa) = 19.44577 26.51444 22.98011
#
# Velocity S-wave (km/s) = 2.92181 3.41178 3.17626
# Velocity P-wave (km/s) = 4.90083 6.32552 5.65820
#
# Compressibility (1/GPa) = 0.03474473
#
# Stress axis : x y z
#
# Youngs Moduli (GPa) = 40.61810 61.15190 22.18818
#
# Poissons Ratio (x) = 0.71445 0.39459
# Poissons Ratio (y) = 0.47455 -0.08473
# Poissons Ratio (z) = 0.72234 -0.23352
#
# Static dielectric constant tensor:
#      x y z
#    x 1.857210 0.000000 -0.016900 
#    y 0.000000 1.799900 0.000000 
#    z -0.016900 0.000000 1.942640 
# 
# From -- ./inp_files/188387.got.cif
#   From: 2010.05.17/outbox.cif.g08.bks.cpg/sg15_95_cif.got.tgz:188387.got - 2010.06.03 18:47:42.
