data_PCOD9271725
_publ_section_title
;
Structure prediction by ZEFSAII (Michael W. Deem and Ramdas Pophale) SiO2 
 PCOD9271725
Probable space group: C 2/C
;
_chemical_formula_sum "Si O2"
_cell_formula_units_Z 40
_cell_length_a 10.855413
_cell_length_b 18.779730
_cell_length_c 15.093276
_cell_angle_alpha 90.000000
_cell_angle_beta 38.876635
_cell_angle_gamma 90.000000
_cell_volume 1931.228784
_symmetry_space_group_name_H-M "C 2/C"
_symmetry_group_IT_number 15
_symmetry_cell_setting 'monoclinic'
loop_
_space_group_symop_operation_xyz
x,y,z
-x,y,1/2-z
-x,-y,-z
x,-y,1/2+z
1/2+x,1/2+y,z
1/2-x,1/2+y,1/2-z
1/2-x,1/2-y,-z
1/2+x,1/2-y,1/2+z
loop_
_atom_site_type_symbol
_atom_site_label
_atom_site_fract_x
_atom_site_fract_y
_atom_site_fract_z
Si Si1 0.927088 0.473430 0.687735
Si Si2 0.168007 0.378742 0.224939
Si Si3 0.335957 0.843254 0.973984
Si Si4 0.584356 0.620327 0.438916
Si Si5 0.715160 0.254575 0.212348
O O1 0.911534 0.555731 0.671589
O O2 0.717477 0.435146 0.811359
O O3 0.000000 0.473991 0.750000
O O4 0.068422 0.419599 0.556608
O O5 0.249314 0.312090 0.232440
O O6 0.000000 0.358927 0.250000
O O7 0.364159 0.406726 0.067071
O O8 0.185899 0.862580 0.978312
O O9 0.519416 0.793780 0.837265
O O10 0.235491 0.800374 0.110076
O O11 0.608103 0.697729 0.382060
#
# Coordination Sequence:
#
# PCOD9271725 Si02
#       5
#     8   8   8   8   8
#     4   8  18  37  57  84 113 150 188 236 284 344
#     4  11  23  36  55  81 118 162 192 219 282 351
#     4  10  21  36  63  90 114 139 192 248 295 326
#     4  10  20  36  61  84 114 148 189 241 286 339
#     4  11  21  36  59  89 114 146 185 245 288 334
#
# _framework density 20.712202000000001
#
# number of rings (size 3 to 8) (size 9 to 14) (size 15 to 20)
#    0.000    2.000    2.000    3.000    2.800    1.600 
#    0.000    0.000    0.000    2.400    0.000    0.000 
#    0.000    0.000    0.000    0.000    0.000    0.000 
#
# Total GULP energy -111518.768624 kJ/mol
# GULP energy per Si atom -5575.938431 kJ/mol
# Density = 2.066506 g / cm^3
# Si number density = 20.712202 Si / 1000 Ang^3
#
#
#
# Elastic Constant Matrix: (Units=GPa)
#
#
# Indices 1 2 3 4 5 6 
#
# 1 55.8057 23.2303 33.2888 -0.0023 -15.5722 0.0004
# 2 23.2303 66.1733 -1.0441 0.0010 -15.3981 -0.0005
# 3 33.2888 -1.0441 65.6469 -0.0010 -17.0583 0.0009
# 4 -0.0023 0.0010 -0.0010 27.0858 0.0021 -2.6624
# 5 -15.5722 -15.3981 -17.0583 0.0021 28.4234 -0.0009
# 6 0.0004 -0.0005 0.0009 -2.6624 -0.0009 13.0477
#
#
#
# Elastic Compliance Matrix: (Units=1/GPa)
#
#
# Indices 1 2 3 4 5 6 
#
# 1 0.032993 -0.011350 -0.016364 0.000002 0.002106 0.000000
# 2 -0.011350 0.021787 0.008949 -0.000002 0.010955 0.000001
# 3 -0.016364 0.008949 0.026779 -0.000002 0.011955 -0.000001
# 4 0.000002 -0.000002 -0.000002 0.037675 -0.000003 0.007688
# 5 0.002106 0.010955 0.011955 -0.000003 0.049445 0.000002
# 6 0.000000 0.000001 -0.000001 0.007688 0.000002 0.078211
#
#
# Mechanical properties :
#
#
# Convention : Reuss Voigt Hill
#
# Bulk Modulus (GPa) = 22.71236 33.17509 27.94372
# Shear Modulus (GPa) = 16.71699 22.52145 19.61922
#
# Velocity S-wave (km/s) = 2.84405 3.30108 3.08105
# Velocity P-wave (km/s) = 4.66629 5.53005 5.11643
#
# Compressibility (1/GPa) = 0.04402889
#
# Stress axis : x y z
#
# Youngs Moduli (GPa) = 30.30960 45.89958 37.34200
#
# Poissons Ratio (x) = 0.52097 0.61105
# Poissons Ratio (y) = 0.34402 -0.33416
# Poissons Ratio (z) = 0.49597 -0.41074
#
# Static dielectric constant tensor:
#      x y z
#    x 1.748640 0.000000 0.013520 
#    y 0.000000 1.789630 0.000000 
#    z 0.013520 0.000000 1.788180 
# 
# From -- ./inp_files/134618.got.cif
#   From: 2010.05.17/outbox.cif.g08.bks.cpg/sg15_68_cif.got.tgz:134618.got - 2010.06.03 18:47:42.
