data_PCOD9271040
_publ_section_title
;
Structure prediction by ZEFSAII (Michael W. Deem and Ramdas Pophale) SiO2 
 PCOD9271040
Probable space group: C 2/C
;
_chemical_formula_sum "Si O2"
_cell_formula_units_Z 48
_cell_length_a 23.645189
_cell_length_b 15.670530
_cell_length_c 19.631938
_cell_angle_alpha 90.000000
_cell_angle_beta 161.538308
_cell_angle_gamma 90.000000
_cell_volume 2303.548208
_symmetry_space_group_name_H-M "C 2/C"
_symmetry_group_IT_number 15
_symmetry_cell_setting 'monoclinic'
loop_
_space_group_symop_operation_xyz
x,y,z
-x,y,1/2-z
-x,-y,-z
x,-y,1/2+z
1/2+x,1/2+y,z
1/2-x,1/2+y,1/2-z
1/2-x,1/2-y,-z
1/2+x,1/2-y,1/2+z
loop_
_atom_site_type_symbol
_atom_site_label
_atom_site_fract_x
_atom_site_fract_y
_atom_site_fract_z
Si Si1 0.962783 0.376690 0.928051
Si Si2 0.925532 0.036345 0.844516
Si Si3 0.358242 0.307311 0.342640
Si Si4 0.034019 0.529326 0.922850
Si Si5 0.983456 0.114058 0.119335
Si Si6 0.229352 0.345934 0.448149
O O1 0.852844 0.290008 0.813699
O O2 0.930570 0.442517 0.828692
O O3 0.941853 0.424806 0.976270
O O4 0.167879 0.344585 0.150454
O O5 0.921824 0.136655 0.850755
O O6 0.723008 0.002224 0.609585
O O7 0.050499 0.985262 0.935785
O O8 0.000000 0.000000 0.000000
O O9 0.488165 0.329383 0.555722
O O10 0.944143 0.598671 0.769684
O O11 0.158336 0.108514 0.365152
O O12 0.834681 0.153805 0.997265
O O13 0.250000 0.250000 0.500000
#
# Coordination Sequence:
#
# PCOD9271040 Si02
#       6
#     8   8   8   8   8   8
#     4  10  21  33  59  84 118 157 201 263 311 367
#     4   9  21  37  57  83 117 160 207 262 318 365
#     4  10  20  36  56  90 117 154 207 260 313 368
#     4  10  21  39  55  82 122 164 204 251 319 371
#     4  10  22  36  54  82 122 158 204 249 303 374
#     4  11  23  38  56  84 123 168 206 243 305 381
#
# _framework density 20.837418
#
# number of rings (size 3 to 8) (size 9 to 14) (size 15 to 20)
#    0.000    2.000    1.667    1.000    7.000    3.333 
#    0.000    0.000    0.000    1.000    0.000    0.000 
#    0.000    0.000    0.000    0.000    0.000    0.000 
#
# Total GULP energy -133621.423131 kJ/mol
# GULP energy per Si atom -5567.559297 kJ/mol
# Density = 2.078999 g / cm^3
# Si number density = 20.837418 Si / 1000 Ang^3
#
#
#
# Elastic Constant Matrix: (Units=GPa)
#
#
# Indices 1 2 3 4 5 6 
#
# 1 69.5670 51.9523 5.3590 -0.0053 -1.4500 -0.0023
# 2 51.9523 137.2382 12.5525 -0.0114 0.9918 -0.0078
# 3 5.3590 12.5525 71.7464 -0.0177 -6.2388 -0.0005
# 4 -0.0053 -0.0114 -0.0177 24.9279 -0.0064 -4.7892
# 5 -1.4500 0.9918 -6.2388 -0.0064 16.2480 -0.0025
# 6 -0.0023 -0.0078 -0.0005 -4.7892 -0.0025 42.3694
#
#
#
# Elastic Compliance Matrix: (Units=1/GPa)
#
#
# Indices 1 2 3 4 5 6 
#
# 1 0.020123 -0.007637 0.000031 0.000001 0.002274 0.000000
# 2 -0.007637 0.010319 -0.001396 0.000002 -0.001847 0.000002
# 3 0.000031 -0.001396 0.014678 0.000012 0.005724 0.000002
# 4 0.000001 0.000002 0.000012 0.041006 0.000021 0.004635
# 5 0.002274 -0.001847 0.005724 0.000021 0.064059 0.000006
# 6 0.000000 0.000002 0.000002 0.004635 0.000006 0.024126
#
#
# Mechanical properties :
#
#
# Convention : Reuss Voigt Hill
#
# Bulk Modulus (GPa) = 36.87887 46.47547 41.67717
# Shear Modulus (GPa) = 24.83212 30.62159 27.72686
#
# Velocity S-wave (km/s) = 3.45586 3.83763 3.65173
# Velocity P-wave (km/s) = 5.80179 6.47988 6.15018
#
# Compressibility (1/GPa) = 0.02711580
#
# Stress axis : x y z
#
# Youngs Moduli (GPa) = 49.69483 96.91270 68.13125
#
# Poissons Ratio (x) = 0.74011 -0.00210
# Poissons Ratio (y) = 0.37951 0.09508
# Poissons Ratio (z) = -0.00153 0.13524
#
# Static dielectric constant tensor:
#      x y z
#    x 1.802470 0.000020 0.049340 
#    y 0.000020 1.596620 0.000010 
#    z 0.049340 0.000010 1.818590 
# 
# From -- ./inp_files/257757.got.cif
#   From: 2010.05.17/outbox.cif.g08.bks.cpg/sg15_129_cif.got.tgz:257757.got - 2010.06.03 18:47:42.
