data_PCOD9271140
_publ_section_title
;
Structure prediction by ZEFSAII (Michael W. Deem and Ramdas Pophale) SiO2 
 PCOD9271140
Probable space group: C 2/C
;
_chemical_formula_sum "Si O2"
_cell_formula_units_Z 56
_cell_length_a 11.942559
_cell_length_b 25.056487
_cell_length_c 8.885515
_cell_angle_alpha 90.000000
_cell_angle_beta 75.004901
_cell_angle_gamma 90.000000
_cell_volume 2568.348256
_symmetry_space_group_name_H-M "C 2/C"
_symmetry_group_IT_number 15
_symmetry_cell_setting 'monoclinic'
loop_
_space_group_symop_operation_xyz
x,y,z
-x,y,1/2-z
-x,-y,-z
x,-y,1/2+z
1/2+x,1/2+y,z
1/2-x,1/2+y,1/2-z
1/2-x,1/2-y,-z
1/2+x,1/2-y,1/2+z
loop_
_atom_site_type_symbol
_atom_site_label
_atom_site_fract_x
_atom_site_fract_y
_atom_site_fract_z
Si Si1 0.898191 0.331999 0.386464
Si Si2 0.456241 0.641847 0.603155
Si Si3 0.795854 0.829138 0.564046
Si Si4 0.141503 0.497354 0.962289
Si Si5 0.613330 0.890942 0.805098
Si Si6 0.730502 0.931460 0.188163
Si Si7 0.219289 0.778364 0.257278
O O1 0.914461 0.346187 0.555730
O O2 0.866987 0.388183 0.318320
O O3 0.792755 0.294493 0.377529
O O4 0.000000 0.308674 0.250000
O O5 0.500000 0.622473 0.750000
O O6 0.572203 0.649994 0.465268
O O7 0.350502 0.600178 0.605980
O O8 0.407739 0.702569 0.644466
O O9 0.706566 0.871429 0.655289
O O10 0.770214 0.815390 0.397633
O O11 0.762435 0.777554 0.677064
O O12 0.164625 0.441569 0.870730
O O13 0.206159 0.547238 0.864098
O O14 0.197187 0.483777 0.103344
O O15 0.000000 0.500000 0.000000
O O16 0.500000 0.904674 0.750000
#
# Coordination Sequence:
#
# PCOD9271140 Si02
#       7
#     8   8   8   8   8   8   8
#     4  10  20  36  57  87 121 155 194 246 309 366
#     4   9  20  39  61  88 127 167 200 248 313 374
#     4  10  21  39  63  89 122 160 205 255 300 367
#     4  11  22  39  62  90 120 154 201 260 314 364
#     4  11  23  37  60  91 121 155 205 258 306 365
#     4  10  21  38  60  86 121 159 202 250 307 370
#     4   9  20  38  61  87 118 161 203 244 303 366
#
# _framework density 21.803896999999999
#
# number of rings (size 3 to 8) (size 9 to 14) (size 15 to 20)
#    0.000    2.000    0.000    3.857    0.000   10.286 
#    0.000   12.143    0.000    0.000    0.000    0.000 
#    0.000    0.000    0.000    0.000    0.000    0.000 
#
# Total GULP energy -155918.588783 kJ/mol
# GULP energy per Si atom -5568.521028 kJ/mol
# Density = 2.175427 g / cm^3
# Si number density = 21.803897 Si / 1000 Ang^3
#
#
#
# Elastic Constant Matrix: (Units=GPa)
#
#
# Indices 1 2 3 4 5 6 
#
# 1 81.2950 6.7704 9.4906 0.0000 -15.9391 0.0000
# 2 6.7704 53.1952 21.9955 0.0000 -10.2495 0.0000
# 3 9.4906 21.9955 51.8872 0.0000 -7.3509 0.0000
# 4 0.0000 0.0000 0.0000 -16.6759 0.0000 -9.1287
# 5 -15.9391 -10.2495 -7.3509 0.0000 47.9062 0.0000
# 6 0.0000 0.0000 0.0000 -9.1287 0.0000 20.1907
#
#
#
# Elastic Compliance Matrix: (Units=1/GPa)
#
#
# Indices 1 2 3 4 5 6 
#
# 1 0.013332 -0.000164 -0.001784 0.000000 0.004127 0.000000
# 2 -0.000164 0.023375 -0.009382 0.000000 0.003507 0.000000
# 3 -0.001784 -0.009382 0.023723 0.000000 0.001039 0.000000
# 4 0.000000 0.000000 0.000000 -0.048070 0.000000 -0.021733
# 5 0.004127 0.003507 0.001039 0.000000 0.023157 0.000000
# 6 0.000000 0.000000 0.000000 -0.021733 0.000000 0.039702
#
#
# Mechanical properties :
#
#
# Convention : Reuss Voigt Hill
#
# Bulk Modulus (GPa) = 26.47642 29.21005 27.84323
# Shear Modulus (GPa) = 45.26162 20.15893 32.71028
#
# Velocity S-wave (km/s) = 4.56109 3.04395 3.87745
# Velocity P-wave (km/s) = 6.31723 5.07740 5.73094
#
# Compressibility (1/GPa) = 0.03776946
#
# Stress axis : x y z
#
# Youngs Moduli (GPa) = 75.00761 42.78164 42.15273
#
# Poissons Ratio (x) = 0.00701 0.07522
# Poissons Ratio (y) = 0.01229 0.39547
# Poissons Ratio (z) = 0.13384 0.40137
#
# Static dielectric constant tensor:
#      x y z
#    x 1.852350 0.000000 -0.000150 
#    y 0.000000 1.862890 0.000000 
#    z -0.000150 0.000000 1.926040 
# 
# From -- ./inp_files/34160.got.cif
#   From: 2010.05.17/outbox.cif.g08.bks.cpg/sg15_18_cif.got.tgz:34160.got - 2010.06.03 18:47:42.
