data_PCOD9271350
_publ_section_title
;
Structure prediction by ZEFSAII (Michael W. Deem and Ramdas Pophale) SiO2 
 PCOD9271350
Probable space group: C 2/C
;
_chemical_formula_sum "Si O2"
_cell_formula_units_Z 32
_cell_length_a 10.390542
_cell_length_b 23.054478
_cell_length_c 9.902313
_cell_angle_alpha 90.000000
_cell_angle_beta 148.306867
_cell_angle_gamma 90.000000
_cell_volume 1246.221235
_symmetry_space_group_name_H-M "C 2/C"
_symmetry_group_IT_number 15
_symmetry_cell_setting 'monoclinic'
loop_
_space_group_symop_operation_xyz
x,y,z
-x,y,1/2-z
-x,-y,-z
x,-y,1/2+z
1/2+x,1/2+y,z
1/2-x,1/2+y,1/2-z
1/2-x,1/2-y,-z
1/2+x,1/2-y,1/2+z
loop_
_atom_site_type_symbol
_atom_site_label
_atom_site_fract_x
_atom_site_fract_y
_atom_site_fract_z
Si Si1 0.226884 0.902444 0.541382
Si Si2 0.911754 0.267590 0.440668
Si Si3 0.613202 0.117981 0.030668
Si Si4 0.000000 0.808762 0.750000
Si Si5 0.000000 0.515050 0.750000
O O1 0.500000 0.878376 0.750000
O O2 0.203428 0.891784 0.679533
O O3 0.272009 0.971035 0.554595
O O4 0.000000 0.881729 0.250000
O O5 0.981323 0.231000 0.366019
O O6 0.144855 0.253954 0.742362
O O7 0.918655 0.334918 0.407706
O O8 0.766852 0.149275 0.050517
O O9 0.512883 0.057264 0.889827
#
# Coordination Sequence:
#
# PCOD9271350 Si02
#       5
#     8   8   8   4   4
#     4  10  26  44  61  89 132 169 217 252 301 380
#     4  10  20  36  58  94 124 147 196 258 316 369
#     4  11  21  40  68  94 128 168 202 265 324 363
#     4  10  21  36  66  98 124 152 209 264 322 364
#     4  10  23  40  64  98 120 166 215 264 310 368
#
# _framework density 25.677623000000001
#
# number of rings (size 3 to 8) (size 9 to 14) (size 15 to 20)
#    0.750    1.000    0.000    6.000    1.750    7.000 
#    0.000    0.000    0.000   18.000    0.000    0.000 
#    0.000    0.000    0.000    0.000    0.000    0.000 
#
# Total GULP energy -89500.764722 kJ/mol
# GULP energy per Si atom -5593.797795 kJ/mol
# Density = 2.561918 g / cm^3
# Si number density = 25.677623 Si / 1000 Ang^3
#
#
#
# Elastic Constant Matrix: (Units=GPa)
#
#
# Indices 1 2 3 4 5 6 
#
# 1 86.5766 41.5670 49.7240 0.0000 -3.5529 0.0000
# 2 41.5670 110.0289 16.5563 0.0000 3.0236 0.0000
# 3 49.7240 16.5563 192.2765 0.0000 3.8824 0.0000
# 4 0.0000 0.0000 0.0000 11.2553 0.0000 14.1909
# 5 -3.5529 3.0236 3.8824 0.0000 34.9556 0.0000
# 6 0.0000 0.0000 0.0000 14.1909 0.0000 14.2033
#
#
#
# Elastic Compliance Matrix: (Units=1/GPa)
#
#
# Indices 1 2 3 4 5 6 
#
# 1 0.016652 -0.005782 -0.003861 0.000000 0.002621 0.000000
# 2 -0.005782 0.011233 0.000561 0.000000 -0.001622 0.000000
# 3 -0.003861 0.000561 0.006174 0.000000 -0.001127 0.000000
# 4 0.000000 0.000000 0.000000 -0.342090 0.000000 0.341792
# 5 0.002621 -0.001622 -0.001127 0.000000 0.029140 0.000000
# 6 0.000000 0.000000 0.000000 0.341792 0.000000 -0.271087
#
#
# Mechanical properties :
#
#
# Convention : Reuss Voigt Hill
#
# Bulk Modulus (GPa) = 62.91762 67.17518 65.04640
# Shear Modulus (GPa) = -9.49637 30.81851 10.66107
#
# Velocity S-wave (km/s) = -1.92518 3.46816 2.03983
# Velocity P-wave (km/s) = 4.42880 6.50041 5.56191
#
# Compressibility (1/GPa) = 0.01589380
#
# Stress axis : x y z
#
# Youngs Moduli (GPa) = 60.05415 89.02384 161.97277
#
# Poissons Ratio (x) = 0.51471 0.62543
# Poissons Ratio (y) = 0.34722 -0.09082
# Poissons Ratio (z) = 0.23189 -0.04992
#
# Static dielectric constant tensor:
#      x y z
#    x 2.038510 0.000000 -0.020580 
#    y 0.000000 1.973860 0.000000 
#    z -0.020580 0.000000 2.121250 
# 
# From -- ./inp_files/91069.got.cif
#   From: 2010.05.17/outbox.cif.g08.bks.cpg/sg15_46_cif.got.tgz:91069.got - 2010.06.03 18:47:42.
