data_PCOD9271934
_publ_section_title
;
Structure prediction by ZEFSAII (Michael W. Deem and Ramdas Pophale) SiO2 
 PCOD9271934
Probable space group: C 2/C
;
_chemical_formula_sum "Si O2"
_cell_formula_units_Z 56
_cell_length_a 12.579335
_cell_length_b 12.940254
_cell_length_c 17.703765
_cell_angle_alpha 90.000000
_cell_angle_beta 121.040790
_cell_angle_gamma 90.000000
_cell_volume 2469.140424
_symmetry_space_group_name_H-M "C 2/C"
_symmetry_group_IT_number 15
_symmetry_cell_setting 'monoclinic'
loop_
_space_group_symop_operation_xyz
x,y,z
-x,y,1/2-z
-x,-y,-z
x,-y,1/2+z
1/2+x,1/2+y,z
1/2-x,1/2+y,1/2-z
1/2-x,1/2-y,-z
1/2+x,1/2-y,1/2+z
loop_
_atom_site_type_symbol
_atom_site_label
_atom_site_fract_x
_atom_site_fract_y
_atom_site_fract_z
Si Si1 0.953299 0.158321 0.427971
Si Si2 0.220872 0.278929 0.746914
Si Si3 0.500000 0.331248 0.250000
Si Si4 0.171112 0.453084 0.615308
Si Si5 0.024447 0.051174 0.912407
Si Si6 0.251714 0.053418 0.720383
Si Si7 0.500000 0.058750 0.750000
Si Si8 0.051481 0.615245 0.933511
O O1 0.828974 0.163407 0.331971
O O2 0.920693 0.120034 0.500482
O O3 0.012970 0.271761 0.448372
O O4 0.045281 0.071167 0.427326
O O5 0.164600 0.344857 0.657746
O O6 0.284510 0.174198 0.739628
O O7 0.111960 0.239420 0.761052
O O8 0.457203 0.398210 0.161980
O O9 0.274234 0.510584 0.704387
O O10 0.167288 0.427010 0.525337
O O11 0.057372 0.532374 0.587673
O O12 0.874766 0.053668 0.871303
O O13 0.375469 0.000115 0.732821
O O14 0.554912 0.115973 0.844114
#
# Coordination Sequence:
#
# PCOD9271934 Si02
#       8
#     8   8   4   8   8   8   4   8
#     4  11  21  41  67  89 135 173 212 267 343 384
#     4  11  21  40  67  94 130 173 213 275 322 386
#     4  10  24  42  66  98 128 174 232 268 320 396
#     4  10  20  38  64  90 123 171 214 265 331 379
#     4  10  23  42  64  94 130 173 213 273 330 398
#     4  10  20  40  62  88 127 164 213 267 327 383
#     4  10  20  36  62  92 120 160 212 270 316 384
#     4  10  21  38  63  92 123 167 216 269 315 392
#
# _framework density 22.679957000000002
#
# number of rings (size 3 to 8) (size 9 to 14) (size 15 to 20)
#    0.000    1.714    4.286    1.714    0.000    3.429 
#    0.000    8.571    0.000    0.000    0.000    0.000 
#    0.000    0.000    0.000    0.000    0.000    0.000 
#
# Total GULP energy -156006.416659 kJ/mol
# GULP energy per Si atom -5571.657738 kJ/mol
# Density = 2.262834 g / cm^3
# Si number density = 22.679957 Si / 1000 Ang^3
#
#
#
# Elastic Constant Matrix: (Units=GPa)
#
#
# Indices 1 2 3 4 5 6 
#
# 1 64.6143 3.3469 11.3411 0.0000 -4.1608 0.0000
# 2 3.3469 107.2592 59.7253 0.0000 -19.3755 0.0000
# 3 11.3411 59.7253 163.1216 0.0000 -20.8412 0.0000
# 4 0.0000 0.0000 0.0000 36.9660 0.0000 -5.1549
# 5 -4.1608 -19.3755 -20.8412 0.0000 29.4295 0.0000
# 6 0.0000 0.0000 0.0000 -5.1549 0.0000 1.7202
#
#
#
# Elastic Compliance Matrix: (Units=1/GPa)
#
#
# Indices 1 2 3 4 5 6 
#
# 1 0.015748 0.000392 -0.001012 0.000000 0.001767 0.000000
# 2 0.000392 0.012473 -0.003890 0.000000 0.005512 0.000000
# 3 -0.001012 -0.003890 0.008004 0.000000 0.002964 0.000000
# 4 0.000000 0.000000 0.000000 0.046472 0.000000 0.139262
# 5 0.001767 0.005512 0.002964 0.000000 0.039958 0.000000
# 6 0.000000 0.000000 0.000000 0.139262 0.000000 0.998655
#
#
# Mechanical properties :
#
#
# Convention : Reuss Voigt Hill
#
# Bulk Modulus (GPa) = 36.76068 53.75797 45.25933
# Shear Modulus (GPa) = 4.38828 30.99524 17.69176
#
# Velocity S-wave (km/s) = 1.39251 3.70081 2.79599
# Velocity P-wave (km/s) = 4.33925 6.48195 5.51565
#
# Compressibility (1/GPa) = 0.02720298
#
# Stress axis : x y z
#
# Youngs Moduli (GPa) = 63.50139 80.17541 124.94305
#
# Poissons Ratio (x) = -0.03140 0.12650
# Poissons Ratio (y) = -0.02487 0.48599
# Poissons Ratio (z) = 0.06429 0.31186
#
# Static dielectric constant tensor:
#      x y z
#    x 1.876810 0.000000 0.002670 
#    y 0.000000 1.917880 0.000000 
#    z 0.002670 0.000000 1.869930 
# 
# From -- ./inp_files/204578.got.cif
#   From: 2010.05.17/outbox.cif.g08.bks.cpg/sg15_103_cif.got.tgz:204578.got - 2010.06.03 18:47:42.
