data_PCOD9271959
_publ_section_title
;
Structure prediction by ZEFSAII (Michael W. Deem and Ramdas Pophale) SiO2 
 PCOD9271959
Probable space group: C 2/C
;
_chemical_formula_sum "Si O2"
_cell_formula_units_Z 52
_cell_length_a 18.486740
_cell_length_b 12.435026
_cell_length_c 10.025935
_cell_angle_alpha 90.000000
_cell_angle_beta 68.759309
_cell_angle_gamma 90.000000
_cell_volume 2148.220853
_symmetry_space_group_name_H-M "C 2/C"
_symmetry_group_IT_number 15
_symmetry_cell_setting 'monoclinic'
loop_
_space_group_symop_operation_xyz
x,y,z
-x,y,1/2-z
-x,-y,-z
x,-y,1/2+z
1/2+x,1/2+y,z
1/2-x,1/2+y,1/2-z
1/2-x,1/2-y,-z
1/2+x,1/2-y,1/2+z
loop_
_atom_site_type_symbol
_atom_site_label
_atom_site_fract_x
_atom_site_fract_y
_atom_site_fract_z
Si Si1 0.577982 0.218809 0.262258
Si Si2 0.092441 0.007298 0.914743
Si Si3 0.160150 0.095023 0.600613
Si Si4 0.901827 0.520033 0.680849
Si Si5 0.868525 0.774191 0.995264
Si Si6 0.000000 0.314259 0.250000
Si Si7 0.691039 0.947682 0.006727
O O1 0.500000 0.262162 0.250000
O O2 0.652000 0.281458 0.153735
O O3 0.580246 0.091696 0.256812
O O4 0.576502 0.245838 0.417473
O O5 0.109181 0.031588 0.748625
O O6 0.140745 0.100913 0.965288
O O7 0.128275 0.907101 0.970558
O O8 0.000000 0.000000 0.000000
O O9 0.241204 0.033688 0.555195
O O10 0.970891 0.604508 0.653409
O O11 0.874622 0.493580 0.550522
O O12 0.832364 0.560704 0.822850
O O13 0.925237 0.756492 0.833243
O O14 0.803508 0.679414 0.040316
#
# Coordination Sequence:
#
# PCOD9271959 Si02
#       7
#     8   8   8   8   8   4   8
#     4  10  20  37  60  91 120 162 202 261 307 360
#     4  11  23  42  65  91 120 163 206 263 303 367
#     4  11  23  40  62  84 128 162 203 251 308 365
#     4  10  21  37  63  88 125 159 208 250 312 365
#     4   9  22  37  61  89 127 155 207 248 315 364
#     4  10  20  36  62  94 120 160 200 266 302 364
#     4  10  22  40  57  91 122 168 200 249 307 377
#
# _framework density 24.206077000000001
#
# number of rings (size 3 to 8) (size 9 to 14) (size 15 to 20)
#    0.000    1.846    0.769    3.231    4.308    3.077 
#    0.000    6.154    0.000    0.000    0.000    0.000 
#    0.000    0.000    0.000    0.000    0.000    0.000 
#
# Total GULP energy -144869.217989 kJ/mol
# GULP energy per Si atom -5571.893000 kJ/mol
# Density = 2.415098 g / cm^3
# Si number density = 24.206077 Si / 1000 Ang^3
#
#
#
# Elastic Constant Matrix: (Units=GPa)
#
#
# Indices 1 2 3 4 5 6 
#
# 1 66.6406 4.5959 -3.2389 0.0000 -1.0860 0.0000
# 2 4.5959 54.6131 -0.9187 0.0000 0.0803 0.0000
# 3 -3.2389 -0.9187 50.7723 0.0000 2.4163 0.0000
# 4 0.0000 0.0000 0.0000 35.0007 0.0000 0.3190
# 5 -1.0860 0.0803 2.4163 0.0000 38.8953 0.0000
# 6 0.0000 0.0000 0.0000 0.3190 0.0000 25.6338
#
#
#
# Elastic Compliance Matrix: (Units=1/GPa)
#
#
# Indices 1 2 3 4 5 6 
#
# 1 0.015144 -0.001259 0.000926 0.000000 0.000368 0.000000
# 2 -0.001259 0.018421 0.000257 0.000000 -0.000089 0.000000
# 3 0.000926 0.000257 0.019817 0.000000 -0.001206 0.000000
# 4 0.000000 0.000000 0.000000 0.028574 0.000000 -0.000356
# 5 0.000368 -0.000089 -0.001206 0.000000 0.025795 0.000000
# 6 0.000000 0.000000 0.000000 -0.000356 0.000000 0.039015
#
#
# Mechanical properties :
#
#
# Convention : Reuss Voigt Hill
#
# Bulk Modulus (GPa) = 18.78678 19.21138 18.99908
# Shear Modulus (GPa) = 30.36517 31.34514 30.85516
#
# Velocity S-wave (km/s) = 3.54566 3.60242 3.57415
# Velocity P-wave (km/s) = 4.95381 5.02564 4.98985
#
# Compressibility (1/GPa) = 0.05322893
#
# Stress axis : x y z
#
# Youngs Moduli (GPa) = 66.03398 54.28567 50.46204
#
# Poissons Ratio (x) = 0.06837 -0.04672
# Poissons Ratio (y) = 0.08316 -0.01298
# Poissons Ratio (z) = -0.06113 -0.01396
#
# Static dielectric constant tensor:
#      x y z
#    x 1.969780 0.000000 -0.075440 
#    y 0.000000 2.073450 0.000000 
#    z -0.075440 0.000000 1.962100 
# 
# From -- ./inp_files/110946.got.cif
#   From: 2010.05.17/outbox.cif.g08.bks.cpg/sg15_56_cif.got.tgz:110946.got - 2010.06.03 18:47:42.
