data_PCOD9271141
_publ_section_title
;
Structure prediction by ZEFSAII (Michael W. Deem and Ramdas Pophale) SiO2 
 PCOD9271141
Probable space group: C 2/C
;
_chemical_formula_sum "Si O2"
_cell_formula_units_Z 56
_cell_length_a 13.310931
_cell_length_b 8.314186
_cell_length_c 33.221535
_cell_angle_alpha 90.000000
_cell_angle_beta 126.856017
_cell_angle_gamma 90.000000
_cell_volume 2941.824365
_symmetry_space_group_name_H-M "C 2/C"
_symmetry_group_IT_number 15
_symmetry_cell_setting 'monoclinic'
loop_
_space_group_symop_operation_xyz
x,y,z
-x,y,1/2-z
-x,-y,-z
x,-y,1/2+z
1/2+x,1/2+y,z
1/2-x,1/2+y,1/2-z
1/2-x,1/2-y,-z
1/2+x,1/2-y,1/2+z
loop_
_atom_site_type_symbol
_atom_site_label
_atom_site_fract_x
_atom_site_fract_y
_atom_site_fract_z
Si Si1 0.822664 0.518096 0.504286
Si Si2 0.722525 0.167485 0.310695
Si Si3 0.040853 0.832450 0.689405
Si Si4 0.082329 0.824807 0.481345
Si Si5 0.000000 0.417470 0.250000
Si Si6 0.653227 0.525867 0.082485
Si Si7 0.000000 0.916842 0.250000
Si Si8 0.321177 0.235244 0.579827
O O1 0.915674 0.368132 0.521387
O O2 0.697156 0.420137 0.487737
O O3 0.782875 0.631894 0.457693
O O4 0.861402 0.643036 0.548547
O O5 0.823990 0.174812 0.299388
O O6 0.797416 0.136649 0.370001
O O7 0.626852 0.316176 0.288042
O O8 0.626132 0.020550 0.282953
O O9 0.015592 0.686082 0.713633
O O10 0.935027 0.820937 0.629633
O O11 0.025027 0.982423 0.715497
O O12 0.099852 0.869742 0.532512
O O13 0.958994 0.905221 0.433204
O O14 0.761658 0.407148 0.092216
#
# Coordination Sequence:
#
# PCOD9271141 Si02
#       8
#     8   8   8   8   4   8   4   8
#     4   9  19  36  57  84 121 160 206 244 301 372
#     4  11  22  42  64  89 122 163 201 257 314 368
#     4  11  22  42  64  90 124 158 202 262 309 369
#     4   9  19  36  57  84 121 160 202 250 297 370
#     4  10  22  42  64  88 122 154 204 264 300 370
#     4  10  20  36  57  87 121 160 201 252 310 359
#     4  10  26  42  64  94 118 162 212 254 314 380
#     4  10  20  36  57  87 123 159 200 257 303 362
#
# _framework density 19.035806999999998
#
# number of rings (size 3 to 8) (size 9 to 14) (size 15 to 20)
#    0.000    2.000    1.429    1.714    2.000    1.714 
#    5.143    1.429    0.000    0.000    0.000    0.000 
#    0.000    0.000    0.000    0.000    0.000    0.000 
#
# Total GULP energy -156188.866083 kJ/mol
# GULP energy per Si atom -5578.173789 kJ/mol
# Density = 1.899248 g / cm^3
# Si number density = 19.035807 Si / 1000 Ang^3
#
#
#
# Elastic Constant Matrix: (Units=GPa)
#
#
# Indices 1 2 3 4 5 6 
#
# 1 96.9578 22.1836 31.7436 0.0000 6.2403 0.0000
# 2 22.1836 88.1712 33.7880 0.0000 4.1187 0.0000
# 3 31.7436 33.7880 100.5476 0.0000 13.3738 0.0000
# 4 0.0000 0.0000 0.0000 -68.1532 0.0000 0.6827
# 5 6.2403 4.1187 13.3738 0.0000 22.5267 0.0000
# 6 0.0000 0.0000 0.0000 0.6827 0.0000 -18.4620
#
#
#
# Elastic Compliance Matrix: (Units=1/GPa)
#
#
# Indices 1 2 3 4 5 6 
#
# 1 0.011764 -0.001769 -0.002963 0.000000 -0.001176 0.000000
# 2 -0.001769 0.013285 -0.003961 0.000000 0.000413 0.000000
# 3 -0.002963 -0.003961 0.013036 0.000000 -0.006194 0.000000
# 4 0.000000 0.000000 0.000000 -0.014678 0.000000 -0.000543
# 5 -0.001176 0.000413 -0.006194 0.000000 0.048320 0.000000
# 6 0.000000 0.000000 0.000000 -0.000543 0.000000 -0.054185
#
#
# Mechanical properties :
#
#
# Convention : Reuss Voigt Hill
#
# Bulk Modulus (GPa) = 48.31097 51.23410 49.77254
# Shear Modulus (GPa) = 119.53826 0.37971 59.95898
#
# Velocity S-wave (km/s) = 7.93302 0.44711 5.61840
# Velocity P-wave (km/s) = 10.45680 5.21915 8.26390
#
# Compressibility (1/GPa) = 0.02069923
#
# Stress axis : x y z
#
# Youngs Moduli (GPa) = 85.00210 75.27149 76.71183
#
# Poissons Ratio (x) = 0.13319 0.22730
# Poissons Ratio (y) = 0.15041 0.30383
# Poissons Ratio (z) = 0.25186 0.29812
#
# Static dielectric constant tensor:
#      x y z
#    x 1.681460 0.000000 -0.001500 
#    y 0.000000 1.670930 0.000000 
#    z -0.001500 0.000000 1.640020 
# 
# From -- ./inp_files/294793.got.cif
#   From: 2010.05.17/outbox.cif.g08.bks.cpg/sg15_148_cif.got.tgz:294793.got - 2010.06.03 18:47:42.
