data_PCOD9271862
_publ_section_title
;
Structure prediction by ZEFSAII (Michael W. Deem and Ramdas Pophale) SiO2 
 PCOD9271862
Probable space group: C 2/C
;
_chemical_formula_sum "Si O2"
_cell_formula_units_Z 52
_cell_length_a 26.919668
_cell_length_b 16.767995
_cell_length_c 12.657235
_cell_angle_alpha 90.000000
_cell_angle_beta 150.829557
_cell_angle_gamma 90.000000
_cell_volume 2784.732444
_symmetry_space_group_name_H-M "C 2/C"
_symmetry_group_IT_number 15
_symmetry_cell_setting 'monoclinic'
loop_
_space_group_symop_operation_xyz
x,y,z
-x,y,1/2-z
-x,-y,-z
x,-y,1/2+z
1/2+x,1/2+y,z
1/2-x,1/2+y,1/2-z
1/2-x,1/2-y,-z
1/2+x,1/2-y,1/2+z
loop_
_atom_site_type_symbol
_atom_site_label
_atom_site_fract_x
_atom_site_fract_y
_atom_site_fract_z
Si Si1 0.620219 0.636712 0.074731
Si Si2 0.289979 0.413086 0.535663
Si Si3 0.827401 0.320793 0.356566
Si Si4 0.391406 0.431607 0.168135
Si Si5 0.240158 0.662828 0.529604
Si Si6 0.602513 0.976258 0.746609
Si Si7 0.000000 0.565543 0.250000
O O1 0.678385 0.618327 0.290988
O O2 0.630367 0.731236 0.075209
O O3 0.657631 0.594785 0.035508
O O4 0.505773 0.602557 0.877634
O O5 0.250955 0.346898 0.380657
O O6 0.377380 0.473365 0.654808
O O7 0.192932 0.469673 0.373834
O O8 0.771754 0.331525 0.366465
O O9 0.926468 0.378394 0.543586
O O10 0.333399 0.389361 0.157759
O O11 0.250000 0.750000 0.500000
O O12 0.139954 0.614896 0.304323
O O13 0.576474 0.985601 0.821619
O O14 0.500000 0.000000 0.500000
#
# Coordination Sequence:
#
# PCOD9271862 Si02
#       7
#     8   8   8   8   8   8   4
#     4  11  23  41  64  88 123 163 207 250 307 373
#     4  11  24  39  61  92 128 157 200 262 312 357
#     4  11  22  39  64  91 123 159 205 254 308 362
#     4  10  23  40  63  89 119 165 211 246 303 374
#     4  10  21  38  61  89 121 158 207 251 295 366
#     4  10  21  36  60  88 119 153 198 251 302 359
#     4  10  20  36  62  86 118 156 202 240 302 366
#
# _framework density 18.673248000000001
#
# number of rings (size 3 to 8) (size 9 to 14) (size 15 to 20)
#    0.000    1.538    3.077    1.846    8.615    0.000 
#    0.000    0.000    0.000    0.000    0.000    0.000 
#    0.000    0.000    0.000    0.000    0.000    0.000 
#
# Total GULP energy -144952.339862 kJ/mol
# GULP energy per Si atom -5575.089995 kJ/mol
# Density = 1.863075 g / cm^3
# Si number density = 18.673248 Si / 1000 Ang^3
#
#
#
# Elastic Constant Matrix: (Units=GPa)
#
#
# Indices 1 2 3 4 5 6 
#
# 1 92.6577 27.5743 27.1689 0.0000 -0.4377 0.0000
# 2 27.5743 55.4588 21.1723 0.0000 -7.8497 0.0000
# 3 27.1689 21.1723 94.4819 0.0000 -18.3837 0.0000
# 4 0.0000 0.0000 0.0000 20.5732 0.0000 -7.5538
# 5 -0.4377 -7.8497 -18.3837 0.0000 34.6203 0.0000
# 6 0.0000 0.0000 0.0000 -7.5538 0.0000 31.2575
#
#
#
# Elastic Compliance Matrix: (Units=1/GPa)
#
#
# Indices 1 2 3 4 5 6 
#
# 1 0.013441 -0.005901 -0.003089 0.000000 -0.002808 0.000000
# 2 -0.005901 0.022485 -0.002637 0.000000 0.003623 0.000000
# 3 -0.003089 -0.002637 0.013315 0.000000 0.006433 0.000000
# 4 0.000000 0.000000 0.000000 0.053340 0.000000 0.012890
# 5 -0.002808 0.003623 0.006433 0.000000 0.033087 0.000000
# 6 0.000000 0.000000 0.000000 0.012890 0.000000 0.035107
#
#
# Mechanical properties :
#
#
# Convention : Reuss Voigt Hill
#
# Bulk Modulus (GPa) = 38.48066 43.82550 41.15308
# Shear Modulus (GPa) = 24.66803 28.40240 26.53522
#
# Velocity S-wave (km/s) = 3.63855 3.90426 3.77374
# Velocity P-wave (km/s) = 6.18904 6.62155 6.40894
#
# Compressibility (1/GPa) = 0.02598708
#
# Stress axis : x y z
#
# Youngs Moduli (GPa) = 74.39879 44.47418 75.10345
#
# Poissons Ratio (x) = 0.26245 0.23201
# Poissons Ratio (y) = 0.43904 0.19802
# Poissons Ratio (z) = 0.22983 0.11726
#
# Static dielectric constant tensor:
#      x y z
#    x 7.336310 0.000000 -2.269910 
#    y 0.000000 1.646890 0.000000 
#    z -2.269910 0.000000 2.554090 
# 
# From -- ./inp_files/123916.got.cif
#   From: 2010.05.17/outbox.cif.g08.bks.cpg/sg15_62_cif.got.tgz:123916.got - 2010.06.03 18:47:42.
