data_PCOD9271633
_publ_section_title
;
Structure prediction by ZEFSAII (Michael W. Deem and Ramdas Pophale) SiO2 
 PCOD9271633
Probable space group: C 2/C
;
_chemical_formula_sum "Si O2"
_cell_formula_units_Z 40
_cell_length_a 12.787644
_cell_length_b 15.072374
_cell_length_c 18.110421
_cell_angle_alpha 90.000000
_cell_angle_beta 33.737193
_cell_angle_gamma 90.000000
_cell_volume 1938.627617
_symmetry_space_group_name_H-M "C 2/C"
_symmetry_group_IT_number 15
_symmetry_cell_setting 'monoclinic'
loop_
_space_group_symop_operation_xyz
x,y,z
-x,y,1/2-z
-x,-y,-z
x,-y,1/2+z
1/2+x,1/2+y,z
1/2-x,1/2+y,1/2-z
1/2-x,1/2-y,-z
1/2+x,1/2-y,1/2+z
loop_
_atom_site_type_symbol
_atom_site_label
_atom_site_fract_x
_atom_site_fract_y
_atom_site_fract_z
Si Si1 0.502078 0.926458 0.395506
Si Si2 0.042933 0.390322 0.911975
Si Si3 0.644272 0.667316 0.599102
Si Si4 0.804480 0.682112 0.904171
Si Si5 0.143464 0.187442 0.846550
O O1 0.413479 0.911804 0.528233
O O2 0.356381 0.908944 0.415328
O O3 0.659033 0.850392 0.297118
O O4 0.599778 0.022380 0.333548
O O5 0.121620 0.293477 0.845901
O O6 0.815555 0.388439 0.032772
O O7 0.500000 0.690002 0.750000
O O8 0.750000 0.750000 0.500000
O O9 0.515538 0.635863 0.606436
O O10 0.649598 0.675064 0.931193
O O11 0.000000 0.711906 0.750000
O O12 0.750000 0.750000 0.000000
#
# Coordination Sequence:
#
# PCOD9271633 Si02
#       5
#     8   8   8   8   8
#     4  10  20  37  61  90 124 163 218 260 317 383
#     4  10  20  37  63  89 124 168 209 268 318 378
#     4  10  20  36  60  93 122 163 210 255 315 386
#     4  10  20  36  60  89 126 164 209 262 313 380
#     4  10  20  38  65  87 127 168 208 261 328 384
#
# _framework density 20.633153
#
# number of rings (size 3 to 8) (size 9 to 14) (size 15 to 20)
#    0.000    2.000    4.000    0.000    0.000    0.000 
#    0.000   18.000    0.000    0.000    0.000    0.000 
#    0.000    0.000    0.000    0.000    0.000    0.000 
#
# Total GULP energy -111363.927406 kJ/mol
# GULP energy per Si atom -5568.196370 kJ/mol
# Density = 2.058619 g / cm^3
# Si number density = 20.633153 Si / 1000 Ang^3
#
#
#
# Elastic Constant Matrix: (Units=GPa)
#
#
# Indices 1 2 3 4 5 6 
#
# 1 160.7512 26.2892 22.1845 -0.0005 12.1045 0.0005
# 2 26.2892 106.4300 17.7718 -0.0010 2.4871 0.0006
# 3 22.1845 17.7718 57.8922 -0.0017 8.6689 0.0017
# 4 -0.0005 -0.0010 -0.0017 19.0286 0.0012 2.8623
# 5 12.1045 2.4871 8.6689 0.0012 25.7980 -0.0007
# 6 0.0005 0.0006 0.0017 2.8623 -0.0007 29.1454
#
#
#
# Elastic Compliance Matrix: (Units=1/GPa)
#
#
# Indices 1 2 3 4 5 6 
#
# 1 0.006881 -0.001332 -0.001857 0.000000 -0.002476 0.000000
# 2 -0.001332 0.010161 -0.002691 0.000000 0.000550 0.000000
# 3 -0.001857 -0.002691 0.019630 0.000002 -0.005465 -0.000001
# 4 0.000000 0.000000 0.000002 0.053340 -0.000003 -0.005238
# 5 -0.002476 0.000550 -0.005465 -0.000003 0.041708 0.000002
# 6 0.000000 0.000000 -0.000001 -0.005238 0.000002 0.034825
#
#
# Mechanical properties :
#
#
# Convention : Reuss Voigt Hill
#
# Bulk Modulus (GPa) = 40.14178 50.84048 45.49113
# Shear Modulus (GPa) = 26.79373 32.04960 29.42167
#
# Velocity S-wave (km/s) = 3.60749 3.94548 3.78026
# Velocity P-wave (km/s) = 6.07035 6.74162 6.41477
#
# Compressibility (1/GPa) = 0.02491170
#
# Stress axis : x y z
#
# Youngs Moduli (GPa) = 145.31987 98.41204 50.94302
#
# Poissons Ratio (x) = 0.13106 0.09462
# Poissons Ratio (y) = 0.19353 0.13710
# Poissons Ratio (z) = 0.26991 0.26486
#
# Static dielectric constant tensor:
#      x y z
#    x 1.834820 0.000000 -0.027890 
#    y 0.000000 1.765040 0.000000 
#    z -0.027890 0.000000 1.774840 
# 
# From -- ./inp_files/197585.got.cif
#   From: 2010.05.17/outbox.cif.g08.bks.cpg/sg15_99_cif.got.tgz:197585.got - 2010.06.03 18:47:42.
