data_PCOD9271339
_publ_section_title
;
Structure prediction by ZEFSAII (Michael W. Deem and Ramdas Pophale) SiO2 
 PCOD9271339
Probable space group: C 2/C
;
_chemical_formula_sum "Si O2"
_cell_formula_units_Z 44
_cell_length_a 8.795133
_cell_length_b 25.912631
_cell_length_c 12.200823
_cell_angle_alpha 90.000000
_cell_angle_beta 56.470742
_cell_angle_gamma 90.000000
_cell_volume 2317.943093
_symmetry_space_group_name_H-M "C 2/C"
_symmetry_group_IT_number 15
_symmetry_cell_setting 'monoclinic'
loop_
_space_group_symop_operation_xyz
x,y,z
-x,y,1/2-z
-x,-y,-z
x,-y,1/2+z
1/2+x,1/2+y,z
1/2-x,1/2+y,1/2-z
1/2-x,1/2-y,-z
1/2+x,1/2-y,1/2+z
loop_
_atom_site_type_symbol
_atom_site_label
_atom_site_fract_x
_atom_site_fract_y
_atom_site_fract_z
Si Si1 0.538305 0.259643 0.105901
Si Si2 0.862077 0.543836 0.101358
Si Si3 0.802910 0.339252 0.637786
Si Si4 0.632866 0.542618 0.997303
Si Si5 0.018611 0.842961 0.557722
Si Si6 0.000000 0.493171 0.250000
O O1 0.500000 0.270060 0.250000
O O2 0.435333 0.207616 0.110628
O O3 0.750000 0.250000 0.000000
O O4 0.482222 0.305458 0.045709
O O5 0.899117 0.605148 0.079289
O O6 0.673986 0.536068 0.110743
O O7 0.878229 0.529779 0.221444
O O8 0.000000 0.500000 0.000000
O O9 0.679291 0.329016 0.579719
O O10 0.665804 0.342586 0.796273
O O11 0.551250 0.598453 0.008514
O O12 0.500000 0.500000 0.000000
O O13 0.841058 0.540379 0.868952
#
# Coordination Sequence:
#
# PCOD9271339 Si02
#       6
#     8   8   8   8   8   4
#     4  12  25  44  65  97 130 164 224 276 329 389
#     4   9  20  37  61  95 123 168 213 258 319 384
#     4  10  21  41  69  89 127 171 216 264 324 395
#     4  10  21  39  61  90 127 165 216 256 320 390
#     4  10  22  43  64  92 126 173 215 263 328 389
#     4  10  20  36  58  92 130 158 206 270 316 384
#
# _framework density 18.982347000000001
#
# number of rings (size 3 to 8) (size 9 to 14) (size 15 to 20)
#    0.000    1.818    1.818    1.636    1.273    5.091 
#   13.091    0.000    0.000    0.000    0.000    0.000 
#    0.000    0.000    0.000    0.000    0.000    0.000 
#
# Total GULP energy -122590.109492 kJ/mol
# GULP energy per Si atom -5572.277704 kJ/mol
# Density = 1.893914 g / cm^3
# Si number density = 18.982347 Si / 1000 Ang^3
#
#
#
# Elastic Constant Matrix: (Units=GPa)
#
#
# Indices 1 2 3 4 5 6 
#
# 1 100.0472 107.3490 66.9818 0.0000 2.5153 0.0000
# 2 107.3490 186.6247 75.6784 0.0000 9.1374 0.0000
# 3 66.9818 75.6784 110.0961 0.0000 1.7200 0.0000
# 4 0.0000 0.0000 0.0000 24.5640 0.0000 3.9975
# 5 2.5153 9.1374 1.7200 0.0000 40.5427 0.0000
# 6 0.0000 0.0000 0.0000 3.9975 0.0000 38.2304
#
#
#
# Elastic Compliance Matrix: (Units=1/GPa)
#
#
# Indices 1 2 3 4 5 6 
#
# 1 0.031992 -0.014673 -0.009405 0.000000 0.001721 0.000000
# 2 -0.014673 0.014246 -0.000830 0.000000 -0.002265 0.000000
# 3 -0.009405 -0.000830 0.015374 0.000000 0.000118 0.000000
# 4 0.000000 0.000000 0.000000 0.041415 0.000000 -0.004330
# 5 0.001721 -0.002265 0.000118 0.000000 0.025064 0.000000
# 6 0.000000 0.000000 0.000000 -0.004330 0.000000 0.026610
#
#
# Mechanical properties :
#
#
# Convention : Reuss Voigt Hill
#
# Bulk Modulus (GPa) = 84.77431 99.64291 92.20861
# Shear Modulus (GPa) = 23.98670 30.45135 27.21902
#
# Velocity S-wave (km/s) = 3.55862 4.00958 3.79081
# Velocity P-wave (km/s) = 7.85121 8.60477 8.23661
#
# Compressibility (1/GPa) = 0.01179603
#
# Stress axis : x y z
#
# Youngs Moduli (GPa) = 31.25740 70.19547 65.04631
#
# Poissons Ratio (x) = 1.02997 0.61176
# Poissons Ratio (y) = 0.45864 0.05400
# Poissons Ratio (z) = 0.29397 0.05827
#
# Static dielectric constant tensor:
#      x y z
#    x 1.686430 0.000000 0.042330 
#    y 0.000000 1.637530 0.000000 
#    z 0.042330 0.000000 1.819420 
# 
# From -- ./inp_files/79708.got.cif
#   From: 2010.05.17/outbox.cif.g08.bks.cpg/sg15_40_cif.got.tgz:79708.got - 2010.06.03 18:47:42.
