data_PCOD9271783
_publ_section_title
;
Structure prediction by ZEFSAII (Michael W. Deem and Ramdas Pophale) SiO2 
 PCOD9271783
Probable space group: C 2/C
;
_chemical_formula_sum "Si O2"
_cell_formula_units_Z 48
_cell_length_a 7.574494
_cell_length_b 24.701075
_cell_length_c 11.961923
_cell_angle_alpha 90.000000
_cell_angle_beta 105.421749
_cell_angle_gamma 90.000000
_cell_volume 2157.471429
_symmetry_space_group_name_H-M "C 2/C"
_symmetry_group_IT_number 15
_symmetry_cell_setting 'monoclinic'
loop_
_space_group_symop_operation_xyz
x,y,z
-x,y,1/2-z
-x,-y,-z
x,-y,1/2+z
1/2+x,1/2+y,z
1/2-x,1/2+y,1/2-z
1/2-x,1/2-y,-z
1/2+x,1/2-y,1/2+z
loop_
_atom_site_type_symbol
_atom_site_label
_atom_site_fract_x
_atom_site_fract_y
_atom_site_fract_z
Si Si1 0.404692 0.002582 0.609637
Si Si2 0.779687 0.200980 0.589961
Si Si3 0.715208 0.712566 0.663051
Si Si4 0.224161 0.886391 0.573081
Si Si5 0.218669 0.887729 0.014877
Si Si6 0.280522 0.666057 0.199816
O O1 0.500000 0.005487 0.750000
O O2 0.292687 0.946800 0.595840
O O3 0.500000 0.000000 0.500000
O O4 0.286459 0.057343 0.580678
O O5 0.750000 0.250000 0.500000
O O6 0.699812 0.210185 0.698700
O O7 0.711783 0.145100 0.526246
O O8 0.999524 0.199633 0.636078
O O9 0.783027 0.665336 0.593870
O O10 0.730684 0.775994 0.638502
O O11 0.286554 0.849004 0.688070
O O12 0.002898 0.887408 0.529544
O O13 0.279445 0.880041 0.896694
O O14 0.500000 0.666326 0.250000
#
# Coordination Sequence:
#
# PCOD9271783 Si02
#       6
#     8   8   8   8   8   8
#     4  12  28  47  67  99 130 168 225 283 333 378
#     4  10  20  36  61  91 126 163 210 259 315 382
#     4  10  21  37  60  96 126 163 211 256 320 383
#     4  10  22  43  68  88 127 177 216 258 321 399
#     4  10  23  43  64  93 128 171 216 264 322 388
#     4  10  20  39  65  94 127 169 212 256 318 394
#
# _framework density 22.248266000000001
#
# number of rings (size 3 to 8) (size 9 to 14) (size 15 to 20)
#    0.000    1.667    1.667    2.000    2.333    3.333 
#    0.000    1.667    0.000    0.000    0.000    0.000 
#    0.000    0.000    0.000    0.000    0.000    0.000 
#
# Total GULP energy -133965.810535 kJ/mol
# GULP energy per Si atom -5581.908772 kJ/mol
# Density = 2.219763 g / cm^3
# Si number density = 22.248266 Si / 1000 Ang^3
#
#
#
# Elastic Constant Matrix: (Units=GPa)
#
#
# Indices 1 2 3 4 5 6 
#
# 1 32.3330 7.1454 28.6002 0.0000 11.8894 0.0000
# 2 7.1454 173.0719 72.5584 0.0000 15.0632 0.0000
# 3 28.6002 72.5584 141.1885 0.0000 -2.5583 0.0000
# 4 0.0000 0.0000 0.0000 53.0023 0.0000 7.9646
# 5 11.8894 15.0632 -2.5583 0.0000 28.2203 0.0000
# 6 0.0000 0.0000 0.0000 7.9646 0.0000 33.0288
#
#
#
# Elastic Compliance Matrix: (Units=1/GPa)
#
#
# Indices 1 2 3 4 5 6 
#
# 1 0.051683 0.006044 -0.014052 0.000000 -0.026274 0.000000
# 2 0.006044 0.008627 -0.005797 0.000000 -0.007677 0.000000
# 3 -0.014052 -0.005797 0.013093 0.000000 0.010201 0.000000
# 4 0.000000 0.000000 0.000000 0.019576 0.000000 -0.004721
# 5 -0.026274 -0.007677 0.010201 0.000000 0.051527 0.000000
# 6 0.000000 0.000000 0.000000 -0.004721 0.000000 0.031415
#
#
# Mechanical properties :
#
#
# Convention : Reuss Voigt Hill
#
# Bulk Modulus (GPa) = 21.83675 62.57793 42.20734
# Shear Modulus (GPa) = 22.85239 38.73623 30.79431
#
# Velocity S-wave (km/s) = 3.20840 4.17716 3.72442
# Velocity P-wave (km/s) = 4.85401 7.17308 6.12432
#
# Compressibility (1/GPa) = 0.04579437
#
# Stress axis : x y z
#
# Youngs Moduli (GPa) = 19.34859 115.91791 76.37668
#
# Poissons Ratio (x) = -0.70060 1.07321
# Poissons Ratio (y) = -0.11694 0.44274
# Poissons Ratio (z) = 0.27188 0.67195
#
# Static dielectric constant tensor:
#      x y z
#    x 1.845780 0.000000 -0.020820 
#    y 0.000000 1.755590 0.000000 
#    z -0.020820 0.000000 1.831160 
# 
# From -- ./inp_files/79871.got.cif
#   From: 2010.05.17/outbox.cif.g08.bks.cpg/sg15_40_cif.got.tgz:79871.got - 2010.06.03 18:47:42.
