data_PCOD9271885
_publ_section_title
;
Structure prediction by ZEFSAII (Michael W. Deem and Ramdas Pophale) SiO2 
 PCOD9271885
Probable space group: C 2/C
;
_chemical_formula_sum "Si O2"
_cell_formula_units_Z 60
_cell_length_a 5.345012
_cell_length_b 28.439222
_cell_length_c 22.867971
_cell_angle_alpha 90.000000
_cell_angle_beta 52.730708
_cell_angle_gamma 90.000000
_cell_volume 2766.285203
_symmetry_space_group_name_H-M "C 2/C"
_symmetry_group_IT_number 15
_symmetry_cell_setting 'monoclinic'
loop_
_space_group_symop_operation_xyz
x,y,z
-x,y,1/2-z
-x,-y,-z
x,-y,1/2+z
1/2+x,1/2+y,z
1/2-x,1/2+y,1/2-z
1/2-x,1/2-y,-z
1/2+x,1/2-y,1/2+z
loop_
_atom_site_type_symbol
_atom_site_label
_atom_site_fract_x
_atom_site_fract_y
_atom_site_fract_z
Si Si1 0.308645 0.848252 0.549363
Si Si2 0.071524 0.147257 0.952243
Si Si3 0.582109 0.749686 0.920724
Si Si4 0.500000 0.445431 0.250000
Si Si5 0.621540 0.795936 0.797461
Si Si6 0.570733 0.981694 0.676161
Si Si7 0.304812 0.104110 0.166917
Si Si8 0.311555 0.424718 0.165245
O O1 0.175433 0.859727 0.504586
O O2 0.228936 0.794302 0.579686
O O3 0.196390 0.882388 0.617195
O O4 0.690690 0.851299 0.498989
O O5 0.212841 0.197922 0.913163
O O6 0.179984 0.107688 0.891561
O O7 0.515701 0.760132 0.862342
O O8 0.250000 0.750000 0.000000
O O9 0.212154 0.481774 0.292979
O O10 0.553329 0.415446 0.183674
O O11 0.500000 0.786222 0.750000
O O12 0.535262 0.848974 0.829278
O O13 0.000000 0.795083 0.750000
O O14 0.500000 0.960046 0.750000
O O15 0.541176 0.939747 0.635203
O O16 0.848475 0.019921 0.642433
O O17 0.000000 0.093344 0.250000
O O18 0.000000 0.417920 0.250000
#
# Coordination Sequence:
#
# PCOD9271885 Si02
#       8
#     8   8   8   4   8   8   8   8
#     4  10  24  40  61  89 122 154 201 243 299 359
#     4  11  23  42  61  85 121 162 196 247 298 354
#     4   9  21  41  63  85 116 165 201 236 292 371
#     4   8  16  34  54  82 112 142 198 242 270 354
#     4  10  22  37  57  91 126 147 191 259 303 341
#     4   9  17  32  57  87 111 150 198 239 293 354
#     4  10  20  36  62  89 116 157 198 246 301 359
#     4   9  21  36  60  87 114 155 203 247 290 347
#
# _framework density 21.689737999999998
#
# number of rings (size 3 to 8) (size 9 to 14) (size 15 to 20)
#    0.000    2.667    0.667    0.800    3.733   13.333 
#    1.200    1.333    0.000    0.000    0.000    0.000 
#    0.000    0.000    0.000    0.000    0.000    0.000 
#
# Total GULP energy -167208.348951 kJ/mol
# GULP energy per Si atom -5573.611632 kJ/mol
# Density = 2.164037 g / cm^3
# Si number density = 21.689738 Si / 1000 Ang^3
#
#
#
# Elastic Constant Matrix: (Units=GPa)
#
#
# Indices 1 2 3 4 5 6 
#
# 1 102.9092 30.7462 59.6448 0.0000 43.5986 0.0000
# 2 30.7462 111.7698 70.9266 0.0000 35.9498 0.0000
# 3 59.6448 70.9266 124.6469 0.0000 50.5658 0.0000
# 4 0.0000 0.0000 0.0000 20.3425 0.0000 9.7260
# 5 43.5986 35.9498 50.5658 0.0000 52.0105 0.0000
# 6 0.0000 0.0000 0.0000 9.7260 0.0000 15.3672
#
#
#
# Elastic Compliance Matrix: (Units=1/GPa)
#
#
# Indices 1 2 3 4 5 6 
#
# 1 0.016237 0.001772 -0.004557 0.000000 -0.010406 0.000000
# 2 0.001772 0.014525 -0.007327 0.000000 -0.004401 0.000000
# 3 -0.004557 -0.007327 0.017781 0.000000 -0.008403 0.000000
# 4 0.000000 0.000000 0.000000 0.070488 0.000000 -0.044612
# 5 -0.010406 -0.004401 -0.008403 0.000000 0.039161 0.000000
# 6 0.000000 0.000000 0.000000 -0.044612 0.000000 0.093309
#
#
# Mechanical properties :
#
#
# Convention : Reuss Voigt Hill
#
# Bulk Modulus (GPa) = 35.31152 73.55123 54.43138
# Shear Modulus (GPa) = 17.78309 29.41128 23.59718
#
# Velocity S-wave (km/s) = 2.86647 3.68639 3.30198
# Velocity P-wave (km/s) = 5.22218 7.21827 6.29979
#
# Compressibility (1/GPa) = 0.02831937
#
# Stress axis : x y z
#
# Youngs Moduli (GPa) = 61.58599 68.84713 56.23856
#
# Poissons Ratio (x) = -0.12198 0.25626
# Poissons Ratio (y) = -0.10912 0.41208
# Poissons Ratio (z) = 0.28062 0.50447
#
# Static dielectric constant tensor:
#      x y z
#    x 2.184420 0.000000 0.003550 
#    y 0.000000 1.824180 0.000000 
#    z 0.003550 0.000000 1.805900 
# 
# From -- ./inp_files/228765.got.cif
#   From: 2010.05.17/outbox.cif.g08.bks.cpg/sg15_115_cif.got.tgz:228765.got - 2010.06.03 18:47:42.
