data_PCOD9271355
_publ_section_title
;
Structure prediction by ZEFSAII (Michael W. Deem and Ramdas Pophale) SiO2 
 PCOD9271355
Probable space group: C 2/C
;
_chemical_formula_sum "Si O2"
_cell_formula_units_Z 52
_cell_length_a 11.103199
_cell_length_b 27.405888
_cell_length_c 9.603762
_cell_angle_alpha 90.000000
_cell_angle_beta 123.222812
_cell_angle_gamma 90.000000
_cell_volume 2444.687441
_symmetry_space_group_name_H-M "C 2/C"
_symmetry_group_IT_number 15
_symmetry_cell_setting 'monoclinic'
loop_
_space_group_symop_operation_xyz
x,y,z
-x,y,1/2-z
-x,-y,-z
x,-y,1/2+z
1/2+x,1/2+y,z
1/2-x,1/2+y,1/2-z
1/2-x,1/2-y,-z
1/2+x,1/2-y,1/2+z
loop_
_atom_site_type_symbol
_atom_site_label
_atom_site_fract_x
_atom_site_fract_y
_atom_site_fract_z
Si Si1 0.783667 0.056286 0.326912
Si Si2 0.500000 0.813847 0.250000
Si Si3 0.294236 0.133364 0.426750
Si Si4 0.500415 0.291573 0.086997
Si Si5 0.903469 0.103510 0.955106
Si Si6 0.170032 0.965341 0.330939
Si Si7 0.283359 0.734387 0.232741
O O1 0.694935 0.101017 0.204800
O O2 0.759994 0.044242 0.474336
O O3 0.951762 0.072918 0.424662
O O4 0.764965 0.009285 0.217617
O O5 0.559412 0.848200 0.409967
O O6 0.373502 0.777648 0.218892
O O7 0.203819 0.102965 0.483078
O O8 0.206289 0.182917 0.338753
O O9 0.500000 0.300467 0.250000
O O10 0.549362 0.341333 0.044650
O O11 0.618954 0.250566 0.131415
O O12 0.350604 0.274595 0.926866
O O13 0.830997 0.081603 0.770653
O O14 0.000000 0.976161 0.250000
#
# Coordination Sequence:
#
# PCOD9271355 Si02
#       7
#     8   4   8   8   8   8   8
#     4  11  21  36  62  93 125 161 199 260 324 384
#     4  12  24  42  60  92 120 168 222 268 306 366
#     4  12  23  38  64  88 124 165 214 259 314 379
#     4  12  24  41  61  94 134 173 213 263 322 378
#     4  11  21  35  61  93 126 162 201 259 317 378
#     4  10  20  36  58  95 130 154 200 258 325 384
#     4  12  24  41  64  92 130 172 222 264 312 379
#
# _framework density 21.270613000000001
#
# number of rings (size 3 to 8) (size 9 to 14) (size 15 to 20)
#    0.000    0.615    4.615    7.385    0.000    0.000 
#    0.000    0.000    0.000    3.692    0.000    0.000 
#    0.000    0.000    0.000    0.000    0.000    0.000 
#
# Total GULP energy -145442.890001 kJ/mol
# GULP energy per Si atom -5593.957308 kJ/mol
# Density = 2.122220 g / cm^3
# Si number density = 21.270613 Si / 1000 Ang^3
#
#
#
# Elastic Constant Matrix: (Units=GPa)
#
#
# Indices 1 2 3 4 5 6 
#
# 1 13.0921 4.1772 20.0478 0.0000 -4.7639 0.0000
# 2 4.1772 101.2985 67.2727 0.0000 -3.0514 0.0000
# 3 20.0478 67.2727 174.3619 0.0000 -15.1625 0.0000
# 4 0.0000 0.0000 0.0000 -19.8051 0.0000 -31.7216
# 5 -4.7639 -3.0514 -15.1625 0.0000 24.5079 0.0000
# 6 0.0000 0.0000 0.0000 -31.7216 0.0000 10.3359
#
#
#
# Elastic Compliance Matrix: (Units=1/GPa)
#
#
# Indices 1 2 3 4 5 6 
#
# 1 0.097488 0.004150 -0.011750 0.000000 0.012198 0.000000
# 2 0.004150 0.013509 -0.005784 0.000000 -0.001090 0.000000
# 3 -0.011750 -0.005784 0.009571 0.000000 0.002918 0.000000
# 4 0.000000 0.000000 0.000000 -0.008535 0.000000 -0.026195
# 5 0.012198 -0.001090 0.002918 0.000000 0.044844 0.000000
# 6 0.000000 0.000000 0.000000 -0.026195 0.000000 0.016355
#
#
# Mechanical properties :
#
#
# Convention : Reuss Voigt Hill
#
# Bulk Modulus (GPa) = 10.66079 52.41647 31.53863
# Shear Modulus (GPa) = 21.62018 16.15804 18.88911
#
# Velocity S-wave (km/s) = 3.19162 2.75915 2.98323
# Velocity P-wave (km/s) = 4.31332 5.90311 5.16969
#
# Compressibility (1/GPa) = 0.09380163
#
# Stress axis : x y z
#
# Youngs Moduli (GPa) = 10.25769 74.02446 104.47722
#
# Poissons Ratio (x) = -0.30722 1.22756
# Poissons Ratio (y) = -0.04257 0.60430
# Poissons Ratio (z) = 0.12052 0.42816
#
# Static dielectric constant tensor:
#      x y z
#    x 1.741210 0.000000 -0.012820 
#    y 0.000000 1.763760 0.000000 
#    z -0.012820 0.000000 1.791590 
# 
# From -- ./inp_files/34092.got.cif
#   From: 2010.05.17/outbox.cif.g08.bks.cpg/sg15_18_cif.got.tgz:34092.got - 2010.06.03 18:47:42.
