data_PCOD9271277
_publ_section_title
;
Structure prediction by ZEFSAII (Michael W. Deem and Ramdas Pophale) SiO2 
 PCOD9271277
Probable space group: C 2/C
;
_chemical_formula_sum "Si O2"
_cell_formula_units_Z 48
_cell_length_a 9.900469
_cell_length_b 9.275019
_cell_length_c 29.428111
_cell_angle_alpha 90.000000
_cell_angle_beta 128.452881
_cell_angle_gamma 90.000000
_cell_volume 2116.221814
_symmetry_space_group_name_H-M "C 2/C"
_symmetry_group_IT_number 15
_symmetry_cell_setting 'monoclinic'
loop_
_space_group_symop_operation_xyz
x,y,z
-x,y,1/2-z
-x,-y,-z
x,-y,1/2+z
1/2+x,1/2+y,z
1/2-x,1/2+y,1/2-z
1/2-x,1/2-y,-z
1/2+x,1/2-y,1/2+z
loop_
_atom_site_type_symbol
_atom_site_label
_atom_site_fract_x
_atom_site_fract_y
_atom_site_fract_z
Si Si1 0.712908 0.916663 0.583658
Si Si2 0.243013 0.747042 0.248361
Si Si3 0.790321 0.517609 0.821199
Si Si4 0.685867 0.085452 0.899540
Si Si5 0.701564 0.083051 0.492176
Si Si6 0.689442 0.985376 0.798860
O O1 0.749799 0.748290 0.587076
O O2 0.505638 0.929538 0.546410
O O3 0.784146 0.982525 0.645307
O O4 0.772892 0.004150 0.551976
O O5 0.169798 0.632056 0.196755
O O6 0.176723 0.870793 0.268827
O O7 0.325303 0.861627 0.230103
O O8 0.315215 0.626971 0.299576
O O9 0.978989 0.589534 0.862134
O O10 0.724546 0.011733 0.858946
O O11 0.755639 0.996375 0.957097
O O12 0.750000 0.250000 0.500000
O O13 0.500000 0.917143 0.750000
#
# Coordination Sequence:
#
# PCOD9271277 Si02
#       6
#     8   8   8   8   8   8
#     4  10  22  43  64  84 124 154 190 258 296 346
#     4  10  20  36  58  86 121 157 196 235 285 350
#     4  10  21  38  61  89 121 160 200 234 294 348
#     4  11  21  40  65  84 120 161 194 244 301 348
#     4  10  24  43  62  93 113 148 206 247 302 359
#     4  11  21  39  59  85 124 156 194 243 292 347
#
# _framework density 22.681933000000001
#
# number of rings (size 3 to 8) (size 9 to 14) (size 15 to 20)
#    0.000    1.667    5.000    0.500    2.333    0.667 
#    3.000    6.667    0.000    0.000    0.000    0.000 
#    0.000    0.000    0.000    0.000    0.000    0.000 
#
# Total GULP energy -133650.834352 kJ/mol
# GULP energy per Si atom -5568.784765 kJ/mol
# Density = 2.263031 g / cm^3
# Si number density = 22.681933 Si / 1000 Ang^3
#
#
#
# Elastic Constant Matrix: (Units=GPa)
#
#
# Indices 1 2 3 4 5 6 
#
# 1 49.5286 31.7058 47.9125 0.0000 -32.7550 0.0000
# 2 31.7058 156.9541 82.6952 0.0000 -41.4486 0.0000
# 3 47.9125 82.6952 157.2448 0.0000 -77.3583 0.0000
# 4 0.0000 0.0000 0.0000 35.0128 0.0000 -3.4125
# 5 -32.7550 -41.4486 -77.3583 0.0000 50.7356 0.0000
# 6 0.0000 0.0000 0.0000 -3.4125 0.0000 33.6633
#
#
#
# Elastic Compliance Matrix: (Units=1/GPa)
#
#
# Indices 1 2 3 4 5 6 
#
# 1 0.035760 -0.001877 0.002779 0.000000 0.025790 0.000000
# 2 -0.001877 0.008915 -0.004521 0.000000 -0.000821 0.000000
# 3 0.002779 -0.004521 0.027836 0.000000 0.040543 0.000000
# 4 0.000000 0.000000 0.000000 0.028846 0.000000 0.002924
# 5 0.025790 -0.000821 0.040543 0.000000 0.097507 0.000000
# 6 0.000000 0.000000 0.000000 0.002924 0.000000 0.030002
#
#
# Mechanical properties :
#
#
# Convention : Reuss Voigt Hill
#
# Bulk Modulus (GPa) = 15.32019 76.48382 45.90200
# Shear Modulus (GPa) = 19.39022 37.30992 28.35007
#
# Velocity S-wave (km/s) = 2.92700 4.06016 3.53922
# Velocity P-wave (km/s) = 4.26522 7.46815 6.08134
#
# Compressibility (1/GPa) = 0.06527336
#
# Stress axis : x y z
#
# Youngs Moduli (GPa) = 27.96442 112.16477 35.92489
#
# Poissons Ratio (x) = 0.21055 -0.09984
# Poissons Ratio (y) = 0.05249 0.16241
# Poissons Ratio (z) = -0.07771 0.50706
#
# Static dielectric constant tensor:
#      x y z
#    x 1.937760 0.000000 0.046330 
#    y 0.000000 1.801750 0.000000 
#    z 0.046330 0.000000 1.916930 
# 
# From -- ./inp_files/290870.got.cif
#   From: 2010.05.17/outbox.cif.g08.bks.cpg/sg15_146_cif.got.tgz:290870.got - 2010.06.03 18:47:42.
