data_PCOD9271025
_publ_section_title
;
Structure prediction by ZEFSAII (Michael W. Deem and Ramdas Pophale) SiO2 
 PCOD9271025
Probable space group: C 2/C
;
_chemical_formula_sum "Si O2"
_cell_formula_units_Z 44
_cell_length_a 13.574402
_cell_length_b 18.353327
_cell_length_c 11.144137
_cell_angle_alpha 90.000000
_cell_angle_beta 123.174298
_cell_angle_gamma 90.000000
_cell_volume 2323.873717
_symmetry_space_group_name_H-M "C 2/C"
_symmetry_group_IT_number 15
_symmetry_cell_setting 'monoclinic'
loop_
_space_group_symop_operation_xyz
x,y,z
-x,y,1/2-z
-x,-y,-z
x,-y,1/2+z
1/2+x,1/2+y,z
1/2-x,1/2+y,1/2-z
1/2-x,1/2-y,-z
1/2+x,1/2-y,1/2+z
loop_
_atom_site_type_symbol
_atom_site_label
_atom_site_fract_x
_atom_site_fract_y
_atom_site_fract_z
Si Si1 0.183599 0.259540 0.183520
Si Si2 0.618950 0.557059 0.254949
Si Si3 0.420384 0.637855 0.522637
Si Si4 0.500000 0.192860 0.750000
Si Si5 0.676214 0.602958 0.792798
Si Si6 0.209759 0.321324 0.548208
O O1 0.224973 0.341123 0.185004
O O2 0.288280 0.211846 0.315138
O O3 0.078557 0.260252 0.211009
O O4 0.130205 0.218213 0.034825
O O5 0.500000 0.540372 0.250000
O O6 0.685089 0.481954 0.268306
O O7 0.698286 0.612665 0.384916
O O8 0.589107 0.595652 0.109370
O O9 0.554541 0.632918 0.654741
O O10 0.341566 0.605128 0.575936
O O11 0.408427 0.153719 0.598924
O O12 0.250000 0.250000 0.500000
#
# Coordination Sequence:
#
# PCOD9271025 Si02
#       6
#     8   8   8   4   8   8
#     4  10  21  35  59  84 123 159 206 244 296 355
#     4  11  23  37  63  94 123 150 202 259 311 347
#     4  10  22  36  57  89 123 155 200 244 306 364
#     4  10  20  36  56  88 110 160 208 246 284 346
#     4  11  22  38  59  89 124 162 192 256 307 362
#     4   9  21  34  59  89 119 154 198 253 295 351
#
# _framework density 18.933903000000001
#
# number of rings (size 3 to 8) (size 9 to 14) (size 15 to 20)
#    0.000    1.818    1.818    2.182   16.545    0.000 
#    0.000    0.909    0.000    4.364    0.000    0.000 
#    0.000    0.000    0.000    0.000    0.000    0.000 
#
# Total GULP energy -122559.990575 kJ/mol
# GULP energy per Si atom -5570.908663 kJ/mol
# Density = 1.889081 g / cm^3
# Si number density = 18.933903 Si / 1000 Ang^3
#
#
#
# Elastic Constant Matrix: (Units=GPa)
#
#
# Indices 1 2 3 4 5 6 
#
# 1 48.0542 23.6721 16.2357 0.0000 -1.5792 0.0000
# 2 23.6721 125.1895 27.7594 0.0000 14.2472 0.0000
# 3 16.2357 27.7594 97.0557 0.0000 6.0716 0.0000
# 4 0.0000 0.0000 0.0000 23.8009 0.0000 -1.6017
# 5 -1.5792 14.2472 6.0716 0.0000 18.0346 0.0000
# 6 0.0000 0.0000 0.0000 -1.6017 0.0000 20.8853
#
#
#
# Elastic Compliance Matrix: (Units=1/GPa)
#
#
# Indices 1 2 3 4 5 6 
#
# 1 0.024426 -0.004703 -0.003174 0.000000 0.006923 0.000000
# 2 -0.004703 0.010132 -0.001619 0.000000 -0.007871 0.000000
# 3 -0.003174 -0.001619 0.011476 0.000000 -0.002863 0.000000
# 4 0.000000 0.000000 0.000000 0.042233 0.000000 0.003239
# 5 0.006923 -0.007871 -0.002863 0.000000 0.063237 0.000000
# 6 0.000000 0.000000 0.000000 0.003239 0.000000 0.048129
#
#
# Mechanical properties :
#
#
# Convention : Reuss Voigt Hill
#
# Bulk Modulus (GPa) = 36.97773 45.07040 41.02406
# Shear Modulus (GPa) = 21.96457 26.05299 24.00878
#
# Velocity S-wave (km/s) = 3.40967 3.71347 3.56481
# Velocity P-wave (km/s) = 5.92228 6.49940 6.21754
#
# Compressibility (1/GPa) = 0.02704331
#
# Stress axis : x y z
#
# Youngs Moduli (GPa) = 40.93927 98.69878 87.13522
#
# Poissons Ratio (x) = 0.46416 0.27658
# Poissons Ratio (y) = 0.19253 0.14105
# Poissons Ratio (z) = 0.12995 0.15977
#
# Static dielectric constant tensor:
#      x y z
#    x 1.680770 0.000000 0.007360 
#    y 0.000000 1.670240 0.000000 
#    z 0.007360 0.000000 1.729620 
# 
# From -- ./inp_files/97917.got.cif
#   From: 2010.05.17/outbox.cif.g08.bks.cpg/sg15_49_cif.got.tgz:97917.got - 2010.06.03 18:47:42.
