data_PCOD9271104
_publ_section_title
;
Structure prediction by ZEFSAII (Michael W. Deem and Ramdas Pophale) SiO2 
 PCOD9271104
Probable space group: C 2/C
;
_chemical_formula_sum "Si O2"
_cell_formula_units_Z 64
_cell_length_a 14.478489
_cell_length_b 23.596060
_cell_length_c 11.935561
_cell_angle_alpha 90.000000
_cell_angle_beta 41.377194
_cell_angle_gamma 90.000000
_cell_volume 2695.353469
_symmetry_space_group_name_H-M "C 2/C"
_symmetry_group_IT_number 15
_symmetry_cell_setting 'monoclinic'
loop_
_space_group_symop_operation_xyz
x,y,z
-x,y,1/2-z
-x,-y,-z
x,-y,1/2+z
1/2+x,1/2+y,z
1/2-x,1/2+y,1/2-z
1/2-x,1/2-y,-z
1/2+x,1/2-y,1/2+z
loop_
_atom_site_type_symbol
_atom_site_label
_atom_site_fract_x
_atom_site_fract_y
_atom_site_fract_z
Si Si1 0.599295 0.541336 0.254217
Si Si2 0.107156 0.061094 0.504983
Si Si3 0.786755 0.620340 0.671346
Si Si4 0.480501 0.669441 0.946784
Si Si5 0.867611 0.793425 0.788813
Si Si6 0.888554 0.279929 0.926954
Si Si7 0.653418 0.019729 0.060567
Si Si8 0.657360 0.164598 0.648388
O O1 0.500000 0.569509 0.250000
O O2 0.600317 0.565372 0.377438
O O3 0.520494 0.479927 0.343468
O O4 0.757836 0.532391 0.071142
O O5 0.110861 0.125858 0.543208
O O6 0.248054 0.035145 0.423824
O O7 0.622199 0.633988 0.824124
O O8 0.848284 0.677152 0.560711
O O9 0.833426 0.568053 0.549588
O O10 0.824162 0.619317 0.769196
O O11 0.486782 0.729357 0.882278
O O12 0.415151 0.684508 0.125876
O O13 0.812251 0.728568 0.830565
O O14 0.000000 0.790279 0.750000
O O15 0.757670 0.834637 0.949272
O O16 0.000000 0.313723 0.750000
O O17 0.750000 0.250000 0.000000
O O18 0.500000 0.010888 0.250000
O O19 0.500000 0.162151 0.750000
#
# Coordination Sequence:
#
# PCOD9271104 Si02
#       8
#     8   8   8   8   8   8   8   8
#     4   9  20  43  72 100 127 165 220 275 334 403
#     4  10  22  41  69  98 127 171 218 278 330 395
#     4  12  23  41  62  92 131 182 225 274 331 394
#     4  12  23  38  65  92 127 173 228 273 322 388
#     4  10  20  36  57  84 113 166 223 267 322 373
#     4  12  25  37  57  89 128 175 224 270 315 388
#     4  11  24  42  68 100 139 174 211 271 344 406
#     4  10  22  37  58  81 123 167 219 274 324 381
#
# _framework density 23.744565999999999
#
# number of rings (size 3 to 8) (size 9 to 14) (size 15 to 20)
#    0.000    1.250    5.000    1.125    0.000    3.000 
#    0.000    0.000    0.000    1.500    0.000    0.000 
#    0.000    0.000    0.000    0.000    0.000    0.000 
#
# Total GULP energy -178778.903874 kJ/mol
# GULP energy per Si atom -5586.840746 kJ/mol
# Density = 2.369052 g / cm^3
# Si number density = 23.744566 Si / 1000 Ang^3
#
#
#
# Elastic Constant Matrix: (Units=GPa)
#
#
# Indices 1 2 3 4 5 6 
#
# 1 55.4524 1.0042 39.6409 0.0001 11.7851 -0.0001
# 2 1.0042 65.9878 6.4084 0.0000 2.0402 0.0000
# 3 39.6409 6.4084 188.0910 0.0000 -2.2256 0.0000
# 4 0.0001 0.0000 0.0000 8.4958 0.0000 4.0938
# 5 11.7851 2.0402 -2.2256 0.0000 48.2981 0.0000
# 6 -0.0001 0.0000 0.0000 4.0938 0.0000 8.7134
#
#
#
# Elastic Compliance Matrix: (Units=1/GPa)
#
#
# Indices 1 2 3 4 5 6 
#
# 1 0.022740 0.000306 -0.004871 0.000000 -0.005786 0.000000
# 2 0.000306 0.015230 -0.000592 0.000000 -0.000745 0.000000
# 3 -0.004871 -0.000592 0.006381 0.000000 0.001508 0.000000
# 4 0.000000 0.000000 0.000000 0.152151 0.000000 -0.071485
# 5 -0.005786 -0.000745 0.001508 0.000000 0.022218 0.000000
# 6 0.000000 0.000000 0.000000 -0.071485 0.000000 0.148352
#
#
# Mechanical properties :
#
#
# Convention : Reuss Voigt Hill
#
# Bulk Modulus (GPa) = 29.38054 44.84869 37.11462
# Shear Modulus (GPa) = 12.86231 30.59996 21.73114
#
# Velocity S-wave (km/s) = 2.32996 3.59376 3.02852
# Velocity P-wave (km/s) = 4.43156 6.01242 5.28147
#
# Compressibility (1/GPa) = 0.03403613
#
# Stress axis : x y z
#
# Youngs Moduli (GPa) = 43.97520 65.65897 156.70860
#
# Poissons Ratio (x) = -0.02009 0.76340
# Poissons Ratio (y) = -0.01345 0.09280
# Poissons Ratio (z) = 0.21422 0.03888
#
# Static dielectric constant tensor:
#      x y z
#    x 1.921250 0.000000 -0.004580 
#    y 0.000000 1.965920 0.000000 
#    z -0.004580 0.000000 1.978350 
# 
# From -- ./inp_files/101317.got.cif
#   From: 2010.05.17/outbox.cif.g08.bks.cpg/sg15_51_cif.got.tgz:101317.got - 2010.06.03 18:47:42.
