data_PCOD9271781
_publ_section_title
;
Structure prediction by ZEFSAII (Michael W. Deem and Ramdas Pophale) SiO2 
 PCOD9271781
Probable space group: C 2/C
;
_chemical_formula_sum "Si O2"
_cell_formula_units_Z 52
_cell_length_a 18.390730
_cell_length_b 8.395239
_cell_length_c 18.705974
_cell_angle_alpha 90.000000
_cell_angle_beta 46.162602
_cell_angle_gamma 90.000000
_cell_volume 2083.211137
_symmetry_space_group_name_H-M "C 2/C"
_symmetry_group_IT_number 15
_symmetry_cell_setting 'monoclinic'
loop_
_space_group_symop_operation_xyz
x,y,z
-x,y,1/2-z
-x,-y,-z
x,-y,1/2+z
1/2+x,1/2+y,z
1/2-x,1/2+y,1/2-z
1/2-x,1/2-y,-z
1/2+x,1/2-y,1/2+z
loop_
_atom_site_type_symbol
_atom_site_label
_atom_site_fract_x
_atom_site_fract_y
_atom_site_fract_z
Si Si1 0.192387 0.032720 0.631294
Si Si2 0.500000 0.998924 0.750000
Si Si3 0.468931 0.713068 0.679722
Si Si4 0.892471 0.265953 0.234483
Si Si5 0.912145 0.263126 0.570487
Si Si6 0.398069 0.585654 0.442468
Si Si7 0.368405 0.867413 0.094377
O O1 0.172764 0.886758 0.699559
O O2 0.188303 0.944564 0.557707
O O3 0.094424 0.141772 0.711167
O O4 0.282045 0.148075 0.594107
O O5 0.514117 0.882811 0.672022
O O6 0.593409 0.107217 0.711632
O O7 0.389702 0.732571 0.668336
O O8 0.545463 0.582277 0.598966
O O9 0.848479 0.340005 0.192005
O O10 0.009651 0.205659 0.143339
O O11 0.867142 0.146586 0.541611
O O12 0.892240 0.446365 0.566872
O O13 0.034202 0.258274 0.483252
#
# Coordination Sequence:
#
# PCOD9271781 Si02
#       7
#     8   4   8   8   8   8   8
#     4  11  22  39  64  93 126 159 223 266 305 367
#     4  12  18  34  66  92 116 160 214 256 310 380
#     4  11  21  38  66  91 119 163 208 264 309 375
#     4  10  20  36  61  91 123 164 209 263 319 368
#     4  10  22  40  61  86 130 171 202 248 334 381
#     4  10  20  40  61  89 120 166 206 256 316 387
#     4  10  23  37  60  92 126 164 210 264 312 378
#
# _framework density 24.961462000000001
#
# number of rings (size 3 to 8) (size 9 to 14) (size 15 to 20)
#    0.000    1.538    4.615    1.385    2.154    0.615 
#    0.000    0.769    3.385    0.000    0.000    0.000 
#    0.000    0.000    0.000    0.000    0.000    0.000 
#
# Total GULP energy -145132.652174 kJ/mol
# GULP energy per Si atom -5582.025084 kJ/mol
# Density = 2.490465 g / cm^3
# Si number density = 24.961462 Si / 1000 Ang^3
#
#
#
# Elastic Constant Matrix: (Units=GPa)
#
#
# Indices 1 2 3 4 5 6 
#
# 1 161.4692 23.5113 31.7106 0.0000 16.0667 0.0000
# 2 23.5113 53.4900 11.7191 -0.0001 10.0570 0.0001
# 3 31.7106 11.7191 26.3940 0.0000 12.9426 0.0000
# 4 0.0000 -0.0001 0.0000 19.2199 0.0000 18.8846
# 5 16.0667 10.0570 12.9426 0.0000 35.7862 0.0000
# 6 0.0000 0.0001 0.0000 18.8846 0.0000 53.2867
#
#
#
# Elastic Compliance Matrix: (Units=1/GPa)
#
#
# Indices 1 2 3 4 5 6 
#
# 1 0.008229 -0.001615 -0.009214 0.000000 0.000092 0.000000
# 2 -0.001615 0.021301 -0.006002 0.000000 -0.003090 0.000000
# 3 -0.009214 -0.006002 0.059280 0.000000 -0.015616 0.000000
# 4 0.000000 0.000000 0.000000 0.079826 0.000000 -0.028290
# 5 0.000092 -0.003090 -0.015616 0.000000 0.034419 0.000000
# 6 0.000000 0.000000 0.000000 -0.028290 0.000000 0.028792
#
#
# Mechanical properties :
#
#
# Convention : Reuss Voigt Hill
#
# Bulk Modulus (GPa) = 18.13324 41.69279 29.91302
# Shear Modulus (GPa) = 17.61239 33.28604 25.44922
#
# Velocity S-wave (km/s) = 2.65916 3.65567 3.19649
# Velocity P-wave (km/s) = 4.08760 5.87858 5.06291
#
# Compressibility (1/GPa) = 0.05514735
#
# Stress axis : x y z
#
# Youngs Moduli (GPa) = 121.52522 46.94599 16.86916
#
# Poissons Ratio (x) = 0.07584 0.15543
# Poissons Ratio (y) = 0.19632 0.10124
# Poissons Ratio (z) = 1.11975 0.28175
#
# Static dielectric constant tensor:
#      x y z
#    x 2.174840 0.000000 0.004020 
#    y 0.000000 1.921900 0.000000 
#    z 0.004020 0.000000 2.059940 
# 
# From -- ./inp_files/247767.got.cif
#   From: 2010.05.17/outbox.cif.g08.bks.cpg/sg15_124_cif.got.tgz:247767.got - 2010.06.03 18:47:42.
