data_PCOD9271761
_publ_section_title
;
Structure prediction by ZEFSAII (Michael W. Deem and Ramdas Pophale) SiO2 
 PCOD9271761
Probable space group: C 2/C
;
_chemical_formula_sum "Si O2"
_cell_formula_units_Z 56
_cell_length_a 8.724850
_cell_length_b 24.387279
_cell_length_c 18.114925
_cell_angle_alpha 90.000000
_cell_angle_beta 134.680898
_cell_angle_gamma 90.000000
_cell_volume 2740.615998
_symmetry_space_group_name_H-M "C 2/C"
_symmetry_group_IT_number 15
_symmetry_cell_setting 'monoclinic'
loop_
_space_group_symop_operation_xyz
x,y,z
-x,y,1/2-z
-x,-y,-z
x,-y,1/2+z
1/2+x,1/2+y,z
1/2-x,1/2+y,1/2-z
1/2-x,1/2-y,-z
1/2+x,1/2-y,1/2+z
loop_
_atom_site_type_symbol
_atom_site_label
_atom_site_fract_x
_atom_site_fract_y
_atom_site_fract_z
Si Si1 0.423073 0.061456 0.881232
Si Si2 0.435641 0.254092 0.953326
Si Si3 0.394745 0.576679 0.074007
Si Si4 0.000000 0.988848 0.750000
Si Si5 0.527876 0.370194 0.046698
Si Si6 0.823080 0.849438 0.126571
Si Si7 0.000000 0.391867 0.250000
Si Si8 0.105935 0.201085 0.365732
O O1 0.378389 0.118648 0.907796
O O2 0.428534 0.072484 0.795757
O O3 0.218607 0.024037 0.829744
O O4 0.664046 0.046497 0.987051
O O5 0.245563 0.213077 0.909996
O O6 0.464530 0.262622 0.874979
O O7 0.421194 0.314679 0.980900
O O8 0.658708 0.227866 0.056917
O O9 0.520091 0.546561 0.181868
O O10 0.372862 0.639949 0.093359
O O11 0.488040 0.583852 0.022517
O O12 0.413010 0.380413 0.085446
O O13 0.784035 0.360730 0.149729
O O14 0.000000 0.850713 0.250000
O O15 0.000000 0.198795 0.250000
#
# Coordination Sequence:
#
# PCOD9271761 Si02
#       8
#     8   8   8   4   8   8   4   8
#     4  11  22  40  64  92 118 158 211 261 305 372
#     4  10  23  35  58  92 126 162 211 244 305 365
#     4  10  22  41  63  89 123 157 205 254 308 377
#     4  12  22  42  67  92 120 165 200 264 328 362
#     4  10  22  38  61  92 128 163 201 257 307 368
#     4  12  22  39  60  91 127 166 205 259 305 356
#     4  10  20  40  63  90 122 159 210 258 306 376
#     4  10  20  36  61  89 122 166 202 250 302 370
#
# _framework density 20.433364000000001
#
# number of rings (size 3 to 8) (size 9 to 14) (size 15 to 20)
#    0.000    1.429    4.286    0.857    5.000    0.000 
#    0.000    7.857    0.000    0.000    0.000    0.000 
#    0.000    0.000    0.000    0.000    0.000    0.000 
#
# Total GULP energy -156284.881118 kJ/mol
# GULP energy per Si atom -5581.602897 kJ/mol
# Density = 2.038686 g / cm^3
# Si number density = 20.433364 Si / 1000 Ang^3
#
#
#
# Elastic Constant Matrix: (Units=GPa)
#
#
# Indices 1 2 3 4 5 6 
#
# 1 95.3687 17.7545 44.8149 0.0000 -24.8750 0.0000
# 2 17.7545 52.4574 20.5355 0.0000 -3.1327 0.0000
# 3 44.8149 20.5355 107.0547 0.0000 -30.2250 0.0000
# 4 0.0000 0.0000 0.0000 52.7922 0.0000 -3.5963
# 5 -24.8750 -3.1327 -30.2250 0.0000 25.0807 0.0000
# 6 0.0000 0.0000 0.0000 -3.5963 0.0000 18.8065
#
#
#
# Elastic Compliance Matrix: (Units=1/GPa)
#
#
# Indices 1 2 3 4 5 6 
#
# 1 0.015383 -0.003559 -0.002387 0.000000 0.011936 0.000000
# 2 -0.003559 0.021618 -0.004382 0.000000 -0.006111 0.000000
# 3 -0.002387 -0.004382 0.015700 0.000000 0.016005 0.000000
# 4 0.000000 0.000000 0.000000 0.019192 0.000000 0.003670
# 5 0.011936 -0.006111 0.016005 0.000000 0.070234 0.000000
# 6 0.000000 0.000000 0.000000 0.003670 0.000000 0.053875
#
#
# Mechanical properties :
#
#
# Convention : Reuss Voigt Hill
#
# Bulk Modulus (GPa) = 31.20712 46.78786 38.99749
# Shear Modulus (GPa) = 21.99347 30.78761 26.39054
#
# Velocity S-wave (km/s) = 3.28434 3.88588 3.59770
# Velocity P-wave (km/s) = 5.44870 6.56360 6.03196
#
# Compressibility (1/GPa) = 0.03204397
#
# Stress axis : x y z
#
# Youngs Moduli (GPa) = 65.00622 46.25704 63.69587
#
# Poissons Ratio (x) = 0.16464 0.15204
# Poissons Ratio (y) = 0.23138 0.27913
# Poissons Ratio (z) = 0.15517 0.20271
#
# Static dielectric constant tensor:
#      x y z
#    x 1.745750 0.000000 0.002050 
#    y 0.000000 1.726080 0.000000 
#    z 0.002050 0.000000 1.754650 
# 
# From -- ./inp_files/137310.got.cif
#   From: 2010.05.17/outbox.cif.g08.bks.cpg/sg15_69_cif.got.tgz:137310.got - 2010.06.03 18:47:42.
