data_PCOD9271422
_publ_section_title
;
Structure prediction by ZEFSAII (Michael W. Deem and Ramdas Pophale) SiO2 
 PCOD9271422
Probable space group: C 2/C
;
_chemical_formula_sum "Si O2"
_cell_formula_units_Z 48
_cell_length_a 9.070381
_cell_length_b 27.512430
_cell_length_c 9.809541
_cell_angle_alpha 90.000000
_cell_angle_beta 66.319309
_cell_angle_gamma 90.000000
_cell_volume 2241.830936
_symmetry_space_group_name_H-M "C 2/C"
_symmetry_group_IT_number 15
_symmetry_cell_setting 'monoclinic'
loop_
_space_group_symop_operation_xyz
x,y,z
-x,y,1/2-z
-x,-y,-z
x,-y,1/2+z
1/2+x,1/2+y,z
1/2-x,1/2+y,1/2-z
1/2-x,1/2-y,-z
1/2+x,1/2-y,1/2+z
loop_
_atom_site_type_symbol
_atom_site_label
_atom_site_fract_x
_atom_site_fract_y
_atom_site_fract_z
Si Si1 0.813906 0.734371 0.329337
Si Si2 0.184797 0.287889 0.136482
Si Si3 0.323732 0.609909 0.580625
Si Si4 0.683093 0.057854 0.382481
Si Si5 0.880444 0.551098 0.662943
Si Si6 0.123329 0.862276 0.832448
O O1 0.750000 0.750000 0.500000
O O2 0.787013 0.778124 0.233937
O O3 0.709128 0.688780 0.319114
O O4 0.000000 0.720695 0.250000
O O5 0.218026 0.342875 0.078097
O O6 0.000000 0.280873 0.250000
O O7 0.250000 0.250000 0.000000
O O8 0.288789 0.569233 0.478217
O O9 0.254893 0.589545 0.746525
O O10 0.508623 0.624684 0.501547
O O11 0.497278 0.065700 0.495514
O O12 0.750241 0.095258 0.246992
O O13 0.692369 0.001923 0.336023
O O14 0.000000 0.548235 0.750000
O O15 0.000000 0.858752 0.750000
#
# Coordination Sequence:
#
# PCOD9271422 Si02
#       6
#     8   8   8   8   8   8
#     4  12  26  42  61  92 131 161 197 257 320 367
#     4  12  23  41  68  93 121 166 215 252 300 371
#     4  10  20  36  59  86 115 153 206 253 291 355
#     4   9  18  34  56  83 114 152 199 246 291 355
#     4   9  18  33  55  85 120 152 188 246 312 359
#     4  10  21  40  64  87 117 159 207 247 294 367
#
# _framework density 21.411069999999999
#
# number of rings (size 3 to 8) (size 9 to 14) (size 15 to 20)
#    0.000    1.667    0.000    7.000    0.000    2.667 
#    0.000    3.333    0.000    3.000    0.000    0.000 
#    0.000    0.000    0.000    0.000    0.000    0.000 
#
# Total GULP energy -134135.609537 kJ/mol
# GULP energy per Si atom -5588.983731 kJ/mol
# Density = 2.136234 g / cm^3
# Si number density = 21.411070 Si / 1000 Ang^3
#
#
#
# Elastic Constant Matrix: (Units=GPa)
#
#
# Indices 1 2 3 4 5 6 
#
# 1 52.3770 35.8978 32.6330 0.0000 -16.1350 0.0000
# 2 35.8978 111.0133 60.0985 0.0000 -26.8080 0.0000
# 3 32.6330 60.0985 130.2762 0.0000 -32.1363 0.0000
# 4 0.0000 0.0000 0.0000 34.7646 0.0000 5.3295
# 5 -16.1350 -26.8080 -32.1363 0.0000 33.8102 0.0000
# 6 0.0000 0.0000 0.0000 5.3295 0.0000 20.0699
#
#
#
# Elastic Compliance Matrix: (Units=1/GPa)
#
#
# Indices 1 2 3 4 5 6 
#
# 1 0.026374 -0.005802 -0.002560 0.000000 0.005553 0.000000
# 2 -0.005802 0.014139 -0.003902 0.000000 0.004734 0.000000
# 3 -0.002560 -0.003902 0.011825 0.000000 0.006924 0.000000
# 4 0.000000 0.000000 0.000000 0.029986 0.000000 -0.007963
# 5 0.005553 0.004734 0.006924 0.000000 0.042562 0.000000
# 6 0.000000 0.000000 0.000000 -0.007963 0.000000 0.051940
#
#
# Mechanical properties :
#
#
# Convention : Reuss Voigt Hill
#
# Bulk Modulus (GPa) = 35.95609 61.21391 48.58500
# Shear Modulus (GPa) = 23.73889 28.73140 26.23514
#
# Velocity S-wave (km/s) = 3.33336 3.66716 3.50424
# Velocity P-wave (km/s) = 5.62536 6.82515 6.25409
#
# Compressibility (1/GPa) = 0.02781170
#
# Stress axis : x y z
#
# Youngs Moduli (GPa) = 37.91557 70.72461 84.56367
#
# Poissons Ratio (x) = 0.41031 0.21652
# Poissons Ratio (y) = 0.21997 0.32995
# Poissons Ratio (z) = 0.09708 0.27595
#
# Static dielectric constant tensor:
#      x y z
#    x 1.763250 0.000000 0.007050 
#    y 0.000000 1.728510 0.000000 
#    z 0.007050 0.000000 1.886500 
# 
# From -- ./inp_files/80507.got.cif
#   From: 2010.05.17/outbox.cif.g08.bks.cpg/sg15_41_cif.got.tgz:80507.got - 2010.06.03 18:47:42.
