data_PCOD9271980
_publ_section_title
;
Structure prediction by ZEFSAII (Michael W. Deem and Ramdas Pophale) SiO2 
 PCOD9271980
Probable space group: C 2/C
;
_chemical_formula_sum "Si O2"
_cell_formula_units_Z 40
_cell_length_a 11.450123
_cell_length_b 29.760184
_cell_length_c 5.846854
_cell_angle_alpha 90.000000
_cell_angle_beta 107.859434
_cell_angle_gamma 90.000000
_cell_volume 1896.352583
_symmetry_space_group_name_H-M "C 2/C"
_symmetry_group_IT_number 15
_symmetry_cell_setting 'monoclinic'
loop_
_space_group_symop_operation_xyz
x,y,z
-x,y,1/2-z
-x,-y,-z
x,-y,1/2+z
1/2+x,1/2+y,z
1/2-x,1/2+y,1/2-z
1/2-x,1/2-y,-z
1/2+x,1/2-y,1/2+z
loop_
_atom_site_type_symbol
_atom_site_label
_atom_site_fract_x
_atom_site_fract_y
_atom_site_fract_z
Si Si1 0.682249 0.695310 0.219547
Si Si2 0.500000 0.664078 0.750000
Si Si3 0.711996 0.618464 0.605711
Si Si4 0.000000 0.738511 0.750000
Si Si5 0.144169 0.015698 0.563693
Si Si6 0.899988 0.667484 0.031859
O O1 0.700545 0.650382 0.378386
O O2 0.629190 0.734514 0.349709
O O3 0.797033 0.694373 0.117260
O O4 0.563382 0.692251 0.984834
O O5 0.604124 0.633451 0.708828
O O6 0.680243 0.567267 0.533981
O O7 0.833931 0.633574 0.815808
O O8 0.024122 0.705094 0.555627
O O9 0.190125 0.992098 0.354551
O O10 0.000000 0.000000 0.500000
O O11 0.000000 0.643207 0.250000
#
# Coordination Sequence:
#
# PCOD9271980 Si02
#       6
#     8   4   8   4   8   8
#     4  11  24  41  68  96 138 181 233 296 351 421
#     4  10  20  36  62  97 128 186 211 286 350 424
#     4  11  23  42  66  98 142 181 224 281 363 421
#     4  12  24  44  64 103 132 180 247 298 350 400
#     4  10  23  38  68 107 142 176 220 288 360 444
#     4  11  27  43  66  93 136 194 239 289 339 423
#
# _framework density 21.093126000000002
#
# number of rings (size 3 to 8) (size 9 to 14) (size 15 to 20)
#    0.000    1.200    2.000    3.000   12.600    3.200 
#    0.000    0.000    0.000    1.200    0.000    0.000 
#    0.000    0.000    0.000    0.000    0.000    0.000 
#
# Total GULP energy -111454.508479 kJ/mol
# GULP energy per Si atom -5572.725424 kJ/mol
# Density = 2.104512 g / cm^3
# Si number density = 21.093126 Si / 1000 Ang^3
#
#
#
# Elastic Constant Matrix: (Units=GPa)
#
#
# Indices 1 2 3 4 5 6 
#
# 1 -13.0149 24.9303 51.7680 0.0000 29.1093 0.0000
# 2 24.9303 90.4305 33.1507 0.0000 2.7206 0.0000
# 3 51.7680 33.1507 117.3161 0.0000 3.5959 0.0000
# 4 0.0000 0.0000 0.0000 19.2988 0.0000 -4.1215
# 5 29.1093 2.7206 3.5959 0.0000 45.9019 0.0000
# 6 0.0000 0.0000 0.0000 -4.1215 0.0000 -124.3549
#
#
#
# Elastic Compliance Matrix: (Units=1/GPa)
#
#
# Indices 1 2 3 4 5 6 
#
# 1 -0.018704 0.002142 0.007306 0.000000 0.011162 0.000000
# 2 0.002142 0.012100 -0.004311 0.000000 -0.001738 0.000000
# 3 0.007306 -0.004311 0.006668 0.000000 -0.004900 0.000000
# 4 0.000000 0.000000 0.000000 0.051453 0.000000 -0.001705
# 5 0.011162 -0.001738 -0.004900 0.000000 0.015194 0.000000
# 6 0.000000 0.000000 0.000000 -0.001705 0.000000 -0.007985
#
#
# Mechanical properties :
#
#
# Convention : Reuss Voigt Hill
#
# Bulk Modulus (GPa) = 96.72334 46.04775 71.38555
# Shear Modulus (GPa) = 96.34356 -6.17199 45.08578
#
# Velocity S-wave (km/s) = 6.76569 -1.71243 4.62829
# Velocity P-wave (km/s) = 10.34348 4.23889 7.90430
#
# Compressibility (1/GPa) = 0.01033877
#
# Stress axis : x y z
#
# Youngs Moduli (GPa) = -53.46325 82.64209 149.95936
#
# Poissons Ratio (x) = -0.17705 -1.09563
# Poissons Ratio (y) = 0.11454 0.64653
# Poissons Ratio (z) = 0.39061 0.35630
#
# Static dielectric constant tensor:
#      x y z
#    x 1.805010 0.000000 -0.044600 
#    y 0.000000 1.855790 0.000000 
#    z -0.044600 0.000000 2.038960 
# 
# From -- ./inp_files/5952.got.cif
#   From: 2010.05.17/outbox.cif.g08.bks.cpg/sg15_3_cif.got.tgz:5952.got - 2010.06.03 18:47:42.
