data_PCOD9271567
_publ_section_title
;
Structure prediction by ZEFSAII (Michael W. Deem and Ramdas Pophale) SiO2 
 PCOD9271567
Probable space group: C 2/C
;
_chemical_formula_sum "Si O2"
_cell_formula_units_Z 52
_cell_length_a 11.206627
_cell_length_b 21.143692
_cell_length_c 15.960648
_cell_angle_alpha 90.000000
_cell_angle_beta 134.940282
_cell_angle_gamma 90.000000
_cell_volume 2676.969641
_symmetry_space_group_name_H-M "C 2/C"
_symmetry_group_IT_number 15
_symmetry_cell_setting 'monoclinic'
loop_
_space_group_symop_operation_xyz
x,y,z
-x,y,1/2-z
-x,-y,-z
x,-y,1/2+z
1/2+x,1/2+y,z
1/2-x,1/2+y,1/2-z
1/2-x,1/2-y,-z
1/2+x,1/2-y,1/2+z
loop_
_atom_site_type_symbol
_atom_site_label
_atom_site_fract_x
_atom_site_fract_y
_atom_site_fract_z
Si Si1 0.741751 0.002562 0.318246
Si Si2 0.419339 0.583867 0.798472
Si Si3 0.990298 0.563554 0.438764
Si Si4 0.000000 0.389755 0.250000
Si Si5 0.776529 0.886973 0.960082
Si Si6 0.572285 0.156915 0.606756
Si Si7 0.193935 0.254993 0.873046
O O1 0.895944 0.979278 0.339270
O O2 0.653505 0.940318 0.315118
O O3 0.619676 0.040172 0.194108
O O4 0.791784 0.051206 0.412809
O O5 0.500000 0.570980 0.750000
O O6 0.234528 0.611054 0.694195
O O7 0.542323 0.629670 0.910878
O O8 0.156185 0.592529 0.476648
O O9 0.945229 0.621312 0.479548
O O10 0.000000 0.500000 0.500000
O O11 0.002163 0.346935 0.335582
O O12 0.705007 0.830473 0.868918
O O13 0.663312 0.218612 0.611330
O O14 0.000000 0.235704 0.750000
O O15 0.250000 0.250000 0.000000
#
# Coordination Sequence:
#
# PCOD9271567 Si02
#       7
#     8   8   8   4   8   8   8
#     4  11  21  35  58  90 121 154 200 254 315 370
#     4  11  20  37  57  86 122 156 197 251 311 370
#     4  12  18  34  60  87 119 151 198 256 300 371
#     4  10  20  36  60  86 116 158 204 254 306 378
#     4  12  22  36  57  91 124 155 202 250 313 362
#     4  11  22  37  61  87 121 159 212 249 308 372
#     4  12  24  40  64  92 125 165 210 261 307 366
#
# _framework density 19.424949000000002
#
# number of rings (size 3 to 8) (size 9 to 14) (size 15 to 20)
#    0.000    0.615    7.692    2.769    0.000    0.000 
#    0.000    0.000    1.692    8.308    0.000    0.000 
#    0.000    0.000    0.000    0.000    0.000    0.000 
#
# Total GULP energy -144736.552560 kJ/mol
# GULP energy per Si atom -5566.790483 kJ/mol
# Density = 1.938074 g / cm^3
# Si number density = 19.424949 Si / 1000 Ang^3
#
#
#
# Elastic Constant Matrix: (Units=GPa)
#
#
# Indices 1 2 3 4 5 6 
#
# 1 72.0736 23.4792 29.5676 0.0000 -27.8048 0.0000
# 2 23.4792 79.8699 14.3882 0.0000 -10.5523 0.0000
# 3 29.5676 14.3882 87.8135 0.0000 -8.8161 -0.0001
# 4 0.0000 0.0000 0.0000 18.5510 0.0000 -5.1438
# 5 -27.8048 -10.5523 -8.8161 0.0000 34.8601 -0.0001
# 6 0.0000 0.0000 -0.0001 -5.1438 -0.0001 28.9428
#
#
#
# Elastic Compliance Matrix: (Units=1/GPa)
#
#
# Indices 1 2 3 4 5 6 
#
# 1 0.023780 -0.003794 -0.005742 0.000000 0.016367 0.000000
# 2 -0.003794 0.013926 -0.000908 0.000000 0.000960 0.000000
# 3 -0.005742 -0.000908 0.013321 0.000000 -0.001486 0.000000
# 4 0.000000 0.000000 0.000000 0.056699 0.000000 0.010077
# 5 0.016367 0.000960 -0.001486 0.000000 0.041655 0.000000
# 6 0.000000 0.000000 0.000000 0.010077 0.000000 0.036342
#
#
# Mechanical properties :
#
#
# Convention : Reuss Voigt Hill
#
# Bulk Modulus (GPa) = 33.17970 41.62525 37.40247
# Shear Modulus (GPa) = 23.07784 27.95893 25.51838
#
# Velocity S-wave (km/s) = 3.45055 3.79797 3.62842
# Velocity P-wave (km/s) = 5.74396 6.38028 6.07047
#
# Compressibility (1/GPa) = 0.03013891
#
# Stress axis : x y z
#
# Youngs Moduli (GPa) = 42.05145 71.80810 75.07039
#
# Poissons Ratio (x) = 0.27243 0.43108
# Poissons Ratio (y) = 0.15954 0.06816
# Poissons Ratio (z) = 0.24147 0.06520
#
# Static dielectric constant tensor:
#      x y z
#    x 1.729440 0.000000 -0.010060 
#    y 0.000000 1.743110 0.000000 
#    z -0.010060 0.000000 1.777160 
# 
# From -- ./inp_files/147237.got.cif
#   From: 2010.05.17/outbox.cif.g08.bks.cpg/sg15_74_cif.got.tgz:147237.got - 2010.06.03 18:47:42.
