data_PCOD9271226
_publ_section_title
;
Structure prediction by ZEFSAII (Michael W. Deem and Ramdas Pophale) SiO2 
 PCOD9271226
Probable space group: C 2/C
;
_chemical_formula_sum "Si O2"
_cell_formula_units_Z 52
_cell_length_a 26.919654
_cell_length_b 15.935584
_cell_length_c 21.421983
_cell_angle_alpha 90.000000
_cell_angle_beta 16.833236
_cell_angle_gamma 90.000000
_cell_volume 2661.192504
_symmetry_space_group_name_H-M "C 2/C"
_symmetry_group_IT_number 15
_symmetry_cell_setting 'monoclinic'
loop_
_space_group_symop_operation_xyz
x,y,z
-x,y,1/2-z
-x,-y,-z
x,-y,1/2+z
1/2+x,1/2+y,z
1/2-x,1/2+y,1/2-z
1/2-x,1/2-y,-z
1/2+x,1/2-y,1/2+z
loop_
_atom_site_type_symbol
_atom_site_label
_atom_site_fract_x
_atom_site_fract_y
_atom_site_fract_z
Si Si1 0.309597 0.779517 0.496287
Si Si2 0.220673 0.401618 0.858869
Si Si3 0.382364 0.851691 0.196885
Si Si4 0.466946 0.696751 0.560740
Si Si5 0.668610 0.081709 0.869734
Si Si6 0.868576 0.686019 0.285429
Si Si7 0.000000 0.229261 0.750000
O O1 0.500000 0.803666 0.250000
O O2 0.250000 0.750000 0.500000
O O3 0.238992 0.858270 0.622361
O O4 0.275905 0.697658 0.580828
O O5 0.363696 0.360339 0.641796
O O6 0.227547 0.500156 0.836954
O O7 0.025250 0.378659 0.075038
O O8 0.339285 0.921882 0.196577
O O9 0.477817 0.779145 0.043196
O O10 0.310457 0.652049 0.714314
O O11 0.404074 0.730112 0.702408
O O12 0.484420 0.112770 0.116824
O O13 0.664455 0.674433 0.532201
O O14 0.936597 0.709777 0.271498
#
# Coordination Sequence:
#
# PCOD9271226 Si02
#       7
#     8   8   8   8   8   8   4
#     4  11  22  41  66  89 122 167 216 253 305 390
#     4  11  23  38  60  94 123 154 205 262 321 362
#     4  10  21  38  64  88 117 161 209 251 308 379
#     4  10  20  37  61  87 112 158 208 252 300 375
#     4  11  22  38  60  91 126 156 198 268 318 355
#     4  10  20  37  61  84 116 159 211 247 297 372
#     4  10  20  36  58  84 110 158 212 240 288 372
#
# _framework density 19.540113000000002
#
# number of rings (size 3 to 8) (size 9 to 14) (size 15 to 20)
#    0.000    1.538    3.077    3.692    4.308    0.000 
#    1.385    0.000    1.692    0.000    0.000    0.000 
#    0.000    0.000    0.000    0.000    0.000    0.000 
#
# Total GULP energy -144813.200230 kJ/mol
# GULP energy per Si atom -5569.738470 kJ/mol
# Density = 1.949564 g / cm^3
# Si number density = 19.540113 Si / 1000 Ang^3
#
#
#
# Elastic Constant Matrix: (Units=GPa)
#
#
# Indices 1 2 3 4 5 6 
#
# 1 98.7330 25.7605 13.1156 0.0019 14.2723 0.0014
# 2 25.7605 53.3211 12.6192 0.0195 4.7812 -0.0042
# 3 13.1156 12.6192 88.0939 0.0196 11.6446 -0.0053
# 4 0.0019 0.0195 0.0196 13.9039 -0.0083 -7.3254
# 5 14.2723 4.7812 11.6446 -0.0083 27.6877 0.0010
# 6 0.0014 -0.0042 -0.0053 -7.3254 0.0010 20.1634
#
#
#
# Elastic Compliance Matrix: (Units=1/GPa)
#
#
# Indices 1 2 3 4 5 6 
#
# 1 0.012351 -0.005407 -0.000367 0.000003 -0.005279 -0.000001
# 2 -0.005407 0.021920 -0.002333 -0.000030 -0.000017 -0.000007
# 3 -0.000367 -0.002333 0.012349 -0.000019 -0.004602 -0.000004
# 4 0.000003 -0.000030 -0.000019 0.088948 0.000037 0.032315
# 5 -0.005279 -0.000017 -0.004602 0.000037 0.040776 0.000010
# 6 -0.000001 -0.000007 -0.000004 0.032315 0.000010 0.061335
#
#
# Mechanical properties :
#
#
# Convention : Reuss Voigt Hill
#
# Bulk Modulus (GPa) = 32.88700 38.12651 35.50676
# Shear Modulus (GPa) = 18.93749 24.92784 21.93267
#
# Velocity S-wave (km/s) = 3.11651 3.57561 3.35392
# Velocity P-wave (km/s) = 5.46052 6.04987 5.76273
#
# Compressibility (1/GPa) = 0.03040715
#
# Stress axis : x y z
#
# Youngs Moduli (GPa) = 80.96661 45.62028 80.98138
#
# Poissons Ratio (x) = 0.24666 0.02968
# Poissons Ratio (y) = 0.43777 0.18891
# Poissons Ratio (z) = 0.02968 0.10642
#
# Static dielectric constant tensor:
#      x y z
#    x 1.715370 0.000000 0.000990 
#    y 0.000000 1.742000 0.000000 
#    z 0.000990 0.000000 1.694510 
# 
# From -- ./inp_files/257778.got.cif
#   From: 2010.05.17/outbox.cif.g08.bks.cpg/sg15_129_cif.got.tgz:257778.got - 2010.06.03 18:47:42.
