data_PCOD9271536
_publ_section_title
;
Structure prediction by ZEFSAII (Michael W. Deem and Ramdas Pophale) SiO2 
 PCOD9271536
Probable space group: C 2/C
;
_chemical_formula_sum "Si O2"
_cell_formula_units_Z 40
_cell_length_a 18.048941
_cell_length_b 5.335342
_cell_length_c 18.724082
_cell_angle_alpha 90.000000
_cell_angle_beta 98.280676
_cell_angle_gamma 90.000000
_cell_volume 1784.279900
_symmetry_space_group_name_H-M "C 2/C"
_symmetry_group_IT_number 15
_symmetry_cell_setting 'monoclinic'
loop_
_space_group_symop_operation_xyz
x,y,z
-x,y,1/2-z
-x,-y,-z
x,-y,1/2+z
1/2+x,1/2+y,z
1/2-x,1/2+y,1/2-z
1/2-x,1/2-y,-z
1/2+x,1/2-y,1/2+z
loop_
_atom_site_type_symbol
_atom_site_label
_atom_site_fract_x
_atom_site_fract_y
_atom_site_fract_z
Si Si1 0.559542 0.574799 0.403121
Si Si2 0.063948 0.306445 0.035762
Si Si3 0.331357 0.214725 0.478837
Si Si4 0.821214 0.030779 0.690686
Si Si5 0.276440 0.527701 0.844528
O O1 0.475754 0.679093 0.400632
O O2 0.567972 0.371049 0.467263
O O3 0.616672 0.777314 0.444114
O O4 0.597570 0.483694 0.335707
O O5 0.139142 0.466857 0.056745
O O6 0.000000 0.500000 0.000000
O O7 0.250000 0.250000 0.500000
O O8 0.331915 0.432265 0.418980
O O9 0.776445 0.281994 0.660148
O O10 0.821291 0.028544 0.776411
O O11 0.774089 0.781064 0.664042
#
# Coordination Sequence:
#
# PCOD9271536 Si02
#       5
#     8   8   8   8   8
#     4  10  20  36  60  83 118 162 199 248 312 371
#     4   9  21  36  54  85 118 155 204 248 302 370
#     4  11  20  33  60  92 119 151 203 263 306 355
#     4  10  21  38  58  87 121 162 192 251 319 368
#     4  10  22  36  57  93 122 149 203 256 309 367
#
# _framework density 22.418008
#
# number of rings (size 3 to 8) (size 9 to 14) (size 15 to 20)
#    0.000    2.000    2.000    1.200    5.600    1.600 
#    0.000    0.000    0.000   13.200    0.000    0.000 
#    0.000    0.000    0.000    0.000    0.000    0.000 
#
# Total GULP energy -111420.354974 kJ/mol
# GULP energy per Si atom -5571.017749 kJ/mol
# Density = 2.236698 g / cm^3
# Si number density = 22.418008 Si / 1000 Ang^3
#
#
#
# Elastic Constant Matrix: (Units=GPa)
#
#
# Indices 1 2 3 4 5 6 
#
# 1 145.8865 46.2346 50.8595 0.0000 -55.1327 0.0000
# 2 46.2346 117.0754 23.5200 0.0000 -21.7067 0.0000
# 3 50.8595 23.5200 110.6460 0.0000 -44.7424 0.0000
# 4 0.0000 0.0000 0.0000 20.0648 0.0000 1.4428
# 5 -55.1327 -21.7067 -44.7424 0.0000 55.0640 0.0000
# 6 0.0000 0.0000 0.0000 1.4428 0.0000 35.8252
#
#
#
# Elastic Compliance Matrix: (Units=1/GPa)
#
#
# Indices 1 2 3 4 5 6 
#
# 1 0.011785 -0.002620 -0.000754 0.000000 0.010155 0.000000
# 2 -0.002620 0.009837 -0.000565 0.000000 0.000795 0.000000
# 3 -0.000754 -0.000565 0.013567 0.000000 0.010046 0.000000
# 4 0.000000 0.000000 0.000000 0.049983 0.000000 -0.002013
# 5 0.010155 0.000795 0.010046 0.000000 0.036804 0.000000
# 6 0.000000 0.000000 0.000000 -0.002013 0.000000 0.027994
#
#
# Mechanical properties :
#
#
# Convention : Reuss Voigt Hill
#
# Bulk Modulus (GPa) = 36.61516 68.31511 52.46513
# Shear Modulus (GPa) = 29.94844 39.05708 34.50276
#
# Velocity S-wave (km/s) = 3.65898 4.17852 3.92735
# Velocity P-wave (km/s) = 5.84972 7.33618 6.63471
#
# Compressibility (1/GPa) = 0.02731110
#
# Stress axis : x y z
#
# Youngs Moduli (GPa) = 84.85041 101.65512 73.70860
#
# Poissons Ratio (x) = 0.26634 0.05558
# Poissons Ratio (y) = 0.22231 0.04166
# Poissons Ratio (z) = 0.06399 0.05745
#
# Static dielectric constant tensor:
#      x y z
#    x 1.966570 0.000000 0.077480 
#    y 0.000000 2.161050 0.000000 
#    z 0.077480 0.000000 1.897080 
# 
# From -- ./inp_files/208094.got.cif
#   From: 2010.05.17/outbox.cif.g08.bks.cpg/sg15_105_cif.got.tgz:208094.got - 2010.06.03 18:47:42.
