data_PCOD9271594
_publ_section_title
;
Structure prediction by ZEFSAII (Michael W. Deem and Ramdas Pophale) SiO2 
 PCOD9271594
Probable space group: C 2/C
;
_chemical_formula_sum "Si O2"
_cell_formula_units_Z 56
_cell_length_a 27.116716
_cell_length_b 9.676991
_cell_length_c 17.322832
_cell_angle_alpha 90.000000
_cell_angle_beta 141.155687
_cell_angle_gamma 90.000000
_cell_volume 2851.062801
_symmetry_space_group_name_H-M "C 2/C"
_symmetry_group_IT_number 15
_symmetry_cell_setting 'monoclinic'
loop_
_space_group_symop_operation_xyz
x,y,z
-x,y,1/2-z
-x,-y,-z
x,-y,1/2+z
1/2+x,1/2+y,z
1/2-x,1/2+y,1/2-z
1/2-x,1/2-y,-z
1/2+x,1/2-y,1/2+z
loop_
_atom_site_type_symbol
_atom_site_label
_atom_site_fract_x
_atom_site_fract_y
_atom_site_fract_z
Si Si1 0.635968 0.378502 0.251766
Si Si2 0.231315 0.973658 0.993200
Si Si3 0.982793 0.708307 0.037648
Si Si4 0.671052 0.366976 0.686275
Si Si5 0.203648 0.398917 0.780186
Si Si6 0.188333 0.286017 0.535040
Si Si7 0.564151 0.084755 0.996579
O O1 0.674257 0.420495 0.379782
O O2 0.550992 0.306676 0.153552
O O3 0.636037 0.516144 0.199788
O O4 0.689900 0.265136 0.273935
O O5 0.284532 0.901639 0.992981
O O6 0.183499 0.854813 0.980814
O O7 0.287560 0.042464 0.124283
O O8 0.006037 0.678801 0.976228
O O9 0.898431 0.777868 0.933446
O O10 0.977406 0.559809 0.073471
O O11 0.719147 0.432110 0.674378
O O12 0.737562 0.282176 0.815143
O O13 0.130893 0.453322 0.641726
O O14 0.111173 0.335197 0.487227
#
# Coordination Sequence:
#
# PCOD9271594 Si02
#       7
#     8   8   8   8   8   8   8
#     4  10  22  38  53  90 124 156 195 242 298 366
#     4  10  20  36  60  87 121 154 190 253 295 352
#     4  10  20  36  60  87 121 154 190 253 295 352
#     4  10  21  34  63  86 115 153 202 246 292 342
#     4  10  21  34  63  86 115 153 202 246 292 342
#     4   9  20  37  63  89 114 151 207 243 293 351
#     4   9  20  37  63  89 114 151 207 243 293 351
#
# _framework density 19.641797
#
# number of rings (size 3 to 8) (size 9 to 14) (size 15 to 20)
#    0.000    2.286    0.000    1.714   12.000    0.000 
#    0.000    0.714    6.286   20.571    0.000    0.000 
#    0.000    0.000    0.000    0.000    0.000    0.000 
#
# Total GULP energy -156229.259363 kJ/mol
# GULP energy per Si atom -5579.616406 kJ/mol
# Density = 1.959709 g / cm^3
# Si number density = 19.641797 Si / 1000 Ang^3
#
#
#
# Elastic Constant Matrix: (Units=GPa)
#
#
# Indices 1 2 3 4 5 6 
#
# 1 67.6441 0.1912 17.4591 0.0000 6.8738 0.0000
# 2 0.1912 48.9352 10.3034 0.0000 3.6567 0.0000
# 3 17.4591 10.3034 35.7324 0.0000 -4.5786 0.0000
# 4 0.0000 0.0000 0.0000 31.7536 0.0000 -0.5354
# 5 6.8738 3.6567 -4.5786 0.0000 28.1594 0.0000
# 6 0.0000 0.0000 0.0000 -0.5354 0.0000 15.3675
#
#
#
# Elastic Compliance Matrix: (Units=1/GPa)
#
#
# Indices 1 2 3 4 5 6 
#
# 1 0.018126 0.002609 -0.010437 0.000000 -0.006460 0.000000
# 2 0.002609 0.022565 -0.008414 0.000000 -0.004935 0.000000
# 3 -0.010437 -0.008414 0.036744 0.000000 0.009615 0.000000
# 4 0.000000 0.000000 0.000000 0.031511 0.000000 0.001098
# 5 -0.006460 -0.004935 0.009615 0.000000 0.039293 0.000000
# 6 0.000000 0.000000 0.000000 0.001098 0.000000 0.065111
#
#
# Mechanical properties :
#
#
# Convention : Reuss Voigt Hill
#
# Bulk Modulus (GPa) = 22.24591 23.13545 22.69068
# Shear Modulus (GPa) = 19.17051 23.34661 21.25856
#
# Velocity S-wave (km/s) = 3.12750 3.45138 3.29342
# Velocity P-wave (km/s) = 4.93883 5.26184 5.10289
#
# Compressibility (1/GPa) = 0.04495209
#
# Stress axis : x y z
#
# Youngs Moduli (GPa) = 55.16892 44.31567 27.21567
#
# Poissons Ratio (x) = -0.11564 0.28405
# Poissons Ratio (y) = -0.14396 0.22899
# Poissons Ratio (z) = 0.57579 0.37288
#
# Static dielectric constant tensor:
#      x y z
#    x 1.677310 0.000000 0.002920 
#    y 0.000000 1.722820 0.000000 
#    z 0.002920 0.000000 1.689210 
# 
# From -- ./inp_files/218678.got.cif
#   From: 2010.05.17/outbox.cif.g08.bks.cpg/sg15_110_cif.got.tgz:218678.got - 2010.06.03 18:47:42.
