data_PCOD9271303
_publ_section_title
;
Structure prediction by ZEFSAII (Michael W. Deem and Ramdas Pophale) SiO2 
 PCOD9271303
Probable space group: C 2/C
;
_chemical_formula_sum "Si O2"
_cell_formula_units_Z 36
_cell_length_a 5.176678
_cell_length_b 23.060184
_cell_length_c 13.985484
_cell_angle_alpha 90.000000
_cell_angle_beta 116.916772
_cell_angle_gamma 90.000000
_cell_volume 1488.651934
_symmetry_space_group_name_H-M "C 2/C"
_symmetry_group_IT_number 15
_symmetry_cell_setting 'monoclinic'
loop_
_space_group_symop_operation_xyz
x,y,z
-x,y,1/2-z
-x,-y,-z
x,-y,1/2+z
1/2+x,1/2+y,z
1/2-x,1/2+y,1/2-z
1/2-x,1/2-y,-z
1/2+x,1/2-y,1/2+z
loop_
_atom_site_type_symbol
_atom_site_label
_atom_site_fract_x
_atom_site_fract_y
_atom_site_fract_z
Si Si1 0.000000 0.189357 0.750000
Si Si2 0.818086 0.573669 0.511220
Si Si3 0.138343 0.544285 0.376573
Si Si4 0.093757 0.181477 0.559320
Si Si5 0.997689 0.216635 0.348714
O O1 0.993002 0.159537 0.645520
O O2 0.275195 0.231483 0.795653
O O3 0.482093 0.557114 0.432694
O O4 0.917999 0.522409 0.598745
O O5 0.830999 0.634900 0.566605
O O6 0.992390 0.577331 0.441601
O O7 0.000000 0.555415 0.250000
O O8 0.200288 0.248285 0.587966
O O9 0.908789 0.184759 0.430715
O O10 0.000000 0.181513 0.250000
#
# Coordination Sequence:
#
# PCOD9271303 Si02
#       5
#     4   8   8   8   8
#     4  10  20  36  58  88 120 168 204 256 312 360
#     4  10  23  41  64  95 121 162 211 253 314 370
#     4  10  22  43  64  90 127 162 202 262 314 373
#     4  10  21  38  59  86 125 157 209 255 304 380
#     4   9  20  37  57  86 122 162 202 254 310 366
#
# _framework density 24.182953000000001
#
# number of rings (size 3 to 8) (size 9 to 14) (size 15 to 20)
#    0.000    2.222    0.000    1.333    3.111    4.444 
#   10.000    0.000    0.000    0.000    0.000    0.000 
#    0.000    0.000    0.000    0.000    0.000    0.000 
#
# Total GULP energy -100397.478837 kJ/mol
# GULP energy per Si atom -5577.637713 kJ/mol
# Density = 2.412791 g / cm^3
# Si number density = 24.182953 Si / 1000 Ang^3
#
#
#
# Elastic Constant Matrix: (Units=GPa)
#
#
# Indices 1 2 3 4 5 6 
#
# 1 85.3383 -11.0622 44.1116 0.0000 -28.3801 0.0000
# 2 -11.0622 59.1247 23.5238 0.0000 -17.8504 0.0000
# 3 44.1116 23.5238 204.5072 0.0000 -60.5312 0.0000
# 4 0.0000 0.0000 0.0000 -32.4583 0.0000 34.9153
# 5 -28.3801 -17.8504 -60.5312 0.0000 35.8150 0.0000
# 6 0.0000 0.0000 0.0000 34.9153 0.0000 -15.6291
#
#
#
# Elastic Compliance Matrix: (Units=1/GPa)
#
#
# Indices 1 2 3 4 5 6 
#
# 1 0.020125 0.010289 0.001428 0.000000 0.023488 0.000000
# 2 0.010289 0.025342 0.002036 0.000000 0.024224 0.000000
# 3 0.001428 0.002036 0.009971 0.000000 0.018997 0.000000
# 4 0.000000 0.000000 0.000000 0.021958 0.000000 0.049053
# 5 0.023488 0.024224 0.018997 0.000000 0.090715 0.000000
# 6 0.000000 0.000000 0.000000 0.049053 0.000000 0.045602
#
#
# Mechanical properties :
#
#
# Convention : Reuss Voigt Hill
#
# Bulk Modulus (GPa) = 12.05665 51.34629 31.70147
# Shear Modulus (GPa) = 23.38042 17.03865 20.20954
#
# Velocity S-wave (km/s) = 3.11274 2.65726 2.89397
# Velocity P-wave (km/s) = 4.23264 5.54015 4.92993
#
# Compressibility (1/GPa) = 0.08294175
#
# Stress axis : x y z
#
# Youngs Moduli (GPa) = 49.68953 39.46037 100.29438
#
# Poissons Ratio (x) = -0.40599 -0.14320
# Poissons Ratio (y) = -0.51124 -0.20417
# Poissons Ratio (z) = -0.07095 -0.08033
#
# Static dielectric constant tensor:
#      x y z
#    x 1.980830 0.000000 0.010510 
#    y 0.000000 1.963960 0.000000 
#    z 0.010510 0.000000 2.032050 
# 
# From -- ./inp_files/72466.got.cif
#   From: 2010.05.17/outbox.cif.g08.bks.cpg/sg15_37_cif.got.tgz:72466.got - 2010.06.03 18:47:42.
