data_PCOD9271267
_publ_section_title
;
Structure prediction by ZEFSAII (Michael W. Deem and Ramdas Pophale) SiO2 
 PCOD9271267
Probable space group: C 2/C
;
_chemical_formula_sum "Si O2"
_cell_formula_units_Z 44
_cell_length_a 10.300626
_cell_length_b 9.364000
_cell_length_c 18.488923
_cell_angle_alpha 90.000000
_cell_angle_beta 66.133277
_cell_angle_gamma 90.000000
_cell_volume 1630.854338
_symmetry_space_group_name_H-M "C 2/C"
_symmetry_group_IT_number 15
_symmetry_cell_setting 'monoclinic'
loop_
_space_group_symop_operation_xyz
x,y,z
-x,y,1/2-z
-x,-y,-z
x,-y,1/2+z
1/2+x,1/2+y,z
1/2-x,1/2+y,1/2-z
1/2-x,1/2-y,-z
1/2+x,1/2-y,1/2+z
loop_
_atom_site_type_symbol
_atom_site_label
_atom_site_fract_x
_atom_site_fract_y
_atom_site_fract_z
Si Si1 0.256310 0.565075 0.052433
Si Si2 0.947416 0.190785 0.530608
Si Si3 0.305575 0.829260 0.781134
Si Si4 0.000000 0.921658 0.250000
Si Si5 0.000000 0.500000 0.000000
Si Si6 0.529003 0.327471 0.647055
Si Si7 0.000000 0.576382 0.750000
O O1 0.391068 0.646999 0.987394
O O2 0.190355 0.658139 0.132125
O O3 0.140153 0.520195 0.020874
O O4 0.337975 0.432883 0.074286
O O5 0.926615 0.354794 0.553657
O O6 0.942764 0.186185 0.443397
O O7 0.386531 0.686164 0.740498
O O8 0.141072 0.827339 0.801540
O O9 0.388912 0.969934 0.737143
O O10 0.073822 0.026557 0.175309
O O11 0.572466 0.182179 0.676707
#
# Coordination Sequence:
#
# PCOD9271267 Si02
#       7
#     8   8   8   4   4   8   4
#     4  10  23  41  61  89 125 160 202 253 306 362
#     4  10  23  41  61  89 125 162 201 251 307 364
#     4  10  21  39  60  86 117 155 198 247 301 360
#     4  10  22  38  62  88 114 154 202 246 302 360
#     4  12  22  38  62  90 122 164 206 244 300 366
#     4  10  21  39  60  85 118 155 197 248 301 357
#     4  10  20  36  58  86 116 150 196 246 296 356
#
# _framework density 26.979724000000001
#
# number of rings (size 3 to 8) (size 9 to 14) (size 15 to 20)
#    0.000    1.818    0.000    3.273    0.000    7.273 
#    0.000   12.727    0.000    0.000    0.000    0.000 
#    0.000    0.000    0.000    0.000    0.000    0.000 
#
# Total GULP energy -122708.753079 kJ/mol
# GULP energy per Si atom -5577.670594 kJ/mol
# Density = 2.691832 g / cm^3
# Si number density = 26.979724 Si / 1000 Ang^3
#
#
#
# Elastic Constant Matrix: (Units=GPa)
#
#
# Indices 1 2 3 4 5 6 
#
# 1 95.5644 24.1733 14.3929 0.0000 20.6158 0.0000
# 2 24.1733 164.8411 11.3322 0.0000 -7.4542 0.0000
# 3 14.3929 11.3322 68.5038 0.0000 5.2646 0.0000
# 4 0.0000 0.0000 0.0000 0.2710 0.0000 0.2390
# 5 20.6158 -7.4542 5.2646 0.0000 34.6331 0.0000
# 6 0.0000 0.0000 0.0000 0.2390 0.0000 36.0910
#
#
#
# Elastic Compliance Matrix: (Units=1/GPa)
#
#
# Indices 1 2 3 4 5 6 
#
# 1 0.012980 -0.002140 -0.001764 0.000000 -0.007919 0.000000
# 2 -0.002140 0.006566 -0.000853 0.000000 0.002817 0.000000
# 3 -0.001764 -0.000853 0.015221 0.000000 -0.001447 0.000000
# 4 0.000000 0.000000 0.000000 3.711633 0.000000 -0.024575
# 5 -0.007919 0.002817 -0.001447 0.000000 0.034414 0.000000
# 6 0.000000 0.000000 0.000000 -0.024575 0.000000 0.027870
#
#
# Mechanical properties :
#
#
# Convention : Reuss Voigt Hill
#
# Bulk Modulus (GPa) = 39.60202 47.63402 43.61802
# Shear Modulus (GPa) = 1.30664 32.79975 17.05319
#
# Velocity S-wave (km/s) = 0.69667 3.49050 2.51684
# Velocity P-wave (km/s) = 3.91886 5.82568 4.96468
#
# Compressibility (1/GPa) = 0.02525123
#
# Stress axis : x y z
#
# Youngs Moduli (GPa) = 77.04439 152.29220 65.69971
#
# Poissons Ratio (x) = 0.32593 0.11592
# Poissons Ratio (y) = 0.16489 0.05605
# Poissons Ratio (z) = 0.13594 0.12991
#
# Static dielectric constant tensor:
#      x y z
#    x 2.003600 0.000000 -0.087350 
#    y 0.000000 2.178980 0.000000 
#    z -0.087350 0.000000 2.085900 
# 
# From -- ./inp_files/236085.got.cif
#   From: 2010.05.17/outbox.cif.g08.bks.cpg/sg15_119_cif.got.tgz:236085.got - 2010.06.03 18:47:42.
