data_PCOD9271506
_publ_section_title
;
Structure prediction by ZEFSAII (Michael W. Deem and Ramdas Pophale) SiO2 
 PCOD9271506
Probable space group: C 2/C
;
_chemical_formula_sum "Si O2"
_cell_formula_units_Z 52
_cell_length_a 26.954103
_cell_length_b 12.139604
_cell_length_c 18.733116
_cell_angle_alpha 90.000000
_cell_angle_beta 26.626990
_cell_angle_gamma 90.000000
_cell_volume 2747.211736
_symmetry_space_group_name_H-M "C 2/C"
_symmetry_group_IT_number 15
_symmetry_cell_setting 'monoclinic'
loop_
_space_group_symop_operation_xyz
x,y,z
-x,y,1/2-z
-x,-y,-z
x,-y,1/2+z
1/2+x,1/2+y,z
1/2-x,1/2+y,1/2-z
1/2-x,1/2-y,-z
1/2+x,1/2-y,1/2+z
loop_
_atom_site_type_symbol
_atom_site_label
_atom_site_fract_x
_atom_site_fract_y
_atom_site_fract_z
Si Si1 0.660554 0.124597 0.133240
Si Si2 0.264119 0.291222 0.361032
Si Si3 0.500000 0.488103 0.250000
Si Si4 0.120099 0.388543 0.135599
Si Si5 0.042660 0.213402 0.593169
Si Si6 0.130350 0.147296 0.189866
Si Si7 0.484299 0.370776 0.015244
O O1 0.708306 0.167931 0.146485
O O2 0.562065 0.213113 0.247601
O O3 0.620695 0.999740 0.182102
O O4 0.748000 0.142289 0.956192
O O5 0.147792 0.287167 0.473213
O O6 0.356647 0.338332 0.190393
O O7 0.454145 0.401836 0.368034
O O8 0.586370 0.565106 0.183250
O O9 0.128492 0.271128 0.162695
O O10 0.000000 0.390967 0.250000
O O11 0.247022 0.389189 0.939409
O O12 0.036385 0.186812 0.517764
O O13 0.042377 0.155013 0.366653
O O14 0.500000 0.500000 0.000000
#
# Coordination Sequence:
#
# PCOD9271506 Si02
#       7
#     8   8   4   8   8   8   8
#     4  10  20  36  62  93 122 155 214 261 299 360
#     4  10  20  36  59  93 122 160 204 261 315 357
#     4  12  20  42  68  90 126 162 218 252 306 374
#     4  11  23  41  64  89 123 165 217 251 302 379
#     4  11  21  37  65  94 120 161 208 260 313 354
#     4  11  25  42  62  92 124 171 207 253 310 377
#     4  11  23  39  59  91 128 156 206 256 311 370
#
# _framework density 18.928283
#
# number of rings (size 3 to 8) (size 9 to 14) (size 15 to 20)
#    0.000    1.231    3.846    2.769    2.154    1.231 
#    0.000    3.077    0.000    0.000    0.000    0.000 
#    0.000    0.000    0.000    0.000    0.000    0.000 
#
# Total GULP energy -144773.330908 kJ/mol
# GULP energy per Si atom -5568.205035 kJ/mol
# Density = 1.888520 g / cm^3
# Si number density = 18.928283 Si / 1000 Ang^3
#
#
#
# Elastic Constant Matrix: (Units=GPa)
#
#
# Indices 1 2 3 4 5 6 
#
# 1 49.0723 4.7127 39.2406 0.0000 -19.7222 0.0000
# 2 4.7127 106.6070 30.0606 0.0000 -5.9658 0.0000
# 3 39.2406 30.0606 130.4954 0.0000 -14.4132 0.0000
# 4 0.0000 0.0000 0.0000 21.3416 0.0000 -5.3902
# 5 -19.7222 -5.9658 -14.4132 0.0000 34.1831 0.0000
# 6 0.0000 0.0000 0.0000 -5.3902 0.0000 23.8094
#
#
#
# Elastic Compliance Matrix: (Units=1/GPa)
#
#
# Indices 1 2 3 4 5 6 
#
# 1 0.033676 0.001888 -0.008788 0.000000 0.016054 0.000000
# 2 0.001888 0.010159 -0.002718 0.000000 0.001716 0.000000
# 3 -0.008788 -0.002718 0.010824 0.000000 -0.000981 0.000000
# 4 0.000000 0.000000 0.000000 0.049699 0.000000 0.011251
# 5 0.016054 0.001716 -0.000981 0.000000 0.038402 0.000000
# 6 0.000000 0.000000 0.000000 0.011251 0.000000 0.044547
#
#
# Mechanical properties :
#
#
# Convention : Reuss Voigt Hill
#
# Bulk Modulus (GPa) = 28.23150 48.24473 38.23811
# Shear Modulus (GPa) = 22.89871 30.01087 26.45479
#
# Velocity S-wave (km/s) = 3.48194 3.98616 3.74255
# Velocity P-wave (km/s) = 5.57786 6.83589 6.23867
#
# Compressibility (1/GPa) = 0.03542143
#
# Stress axis : x y z
#
# Youngs Moduli (GPa) = 29.69432 98.43138 92.39020
#
# Poissons Ratio (x) = -0.18582 0.81196
# Poissons Ratio (y) = -0.05606 0.25116
# Poissons Ratio (z) = 0.26097 0.26758
#
# Static dielectric constant tensor:
#      x y z
#    x 1.693210 0.000000 -0.048620 
#    y 0.000000 1.664420 0.000000 
#    z -0.048620 0.000000 1.726110 
# 
# From -- ./inp_files/222424.got.cif
#   From: 2010.05.17/outbox.cif.g08.bks.cpg/sg15_112_cif.got.tgz:222424.got - 2010.06.03 18:47:42.
