data_PCOD9271872
_publ_section_title
;
Structure prediction by ZEFSAII (Michael W. Deem and Ramdas Pophale) SiO2 
 PCOD9271872
Probable space group: C 2/C
;
_chemical_formula_sum "Si O2"
_cell_formula_units_Z 36
_cell_length_a 26.025084
_cell_length_b 14.976070
_cell_length_c 7.644128
_cell_angle_alpha 90.000000
_cell_angle_beta 30.672043
_cell_angle_gamma 90.000000
_cell_volume 1519.823348
_symmetry_space_group_name_H-M "C 2/C"
_symmetry_group_IT_number 15
_symmetry_cell_setting 'monoclinic'
loop_
_space_group_symop_operation_xyz
x,y,z
-x,y,1/2-z
-x,-y,-z
x,-y,1/2+z
1/2+x,1/2+y,z
1/2-x,1/2+y,1/2-z
1/2-x,1/2-y,-z
1/2+x,1/2-y,1/2+z
loop_
_atom_site_type_symbol
_atom_site_label
_atom_site_fract_x
_atom_site_fract_y
_atom_site_fract_z
Si Si1 0.700170 0.903394 0.259534
Si Si2 0.857444 0.235005 0.447315
Si Si3 0.485089 0.396416 0.080826
Si Si4 0.243224 0.895047 0.810238
Si Si5 0.500000 0.164233 0.250000
O O1 0.579815 0.892905 0.628720
O O2 0.736798 0.003213 0.195010
O O3 0.759689 0.822668 0.177494
O O4 0.728966 0.891897 0.974156
O O5 0.815850 0.319004 0.679435
O O6 0.927849 0.278059 0.086950
O O7 0.933995 0.156836 0.272038
O O8 0.500000 0.386953 0.250000
O O9 0.373537 0.370208 0.346991
O O10 0.500000 0.500000 0.000000
#
# Coordination Sequence:
#
# PCOD9271872 Si02
#       5
#     8   8   8   8   4
#     4  11  22  38  61  85 122 150 195 243 288 341
#     4  11  20  36  62  86 117 154 198 235 282 355
#     4  12  21  37  65  88 117 151 194 239 290 341
#     4  11  22  39  61  88 116 153 196 242 288 343
#     4  10  20  36  62  88 110 158 202 234 284 348
#
# _framework density 23.686962000000001
#
# number of rings (size 3 to 8) (size 9 to 14) (size 15 to 20)
#    0.000    0.889    5.556    4.000    0.000    3.556 
#    0.000    1.111    7.333    0.000    0.000    0.000 
#    0.000    0.000    0.000    0.000    0.000    0.000 
#
# Total GULP energy -100438.538785 kJ/mol
# GULP energy per Si atom -5579.918821 kJ/mol
# Density = 2.363305 g / cm^3
# Si number density = 23.686962 Si / 1000 Ang^3
#
#
#
# Elastic Constant Matrix: (Units=GPa)
#
#
# Indices 1 2 3 4 5 6 
#
# 1 47.0180 22.3180 49.7797 0.0000 -9.2500 0.0000
# 2 22.3180 98.1098 54.8648 0.0000 -30.3937 0.0000
# 3 49.7797 54.8648 137.9440 0.0000 -44.9307 0.0000
# 4 0.0000 0.0000 0.0000 49.3156 0.0000 -11.9452
# 5 -9.2500 -30.3937 -44.9307 0.0000 45.9711 0.0000
# 6 0.0000 0.0000 0.0000 -11.9452 0.0000 20.5303
#
#
#
# Elastic Compliance Matrix: (Units=1/GPa)
#
#
# Indices 1 2 3 4 5 6 
#
# 1 0.036884 -0.002743 -0.015246 0.000000 -0.009293 0.000000
# 2 -0.002743 0.014233 -0.002619 0.000000 0.006298 0.000000
# 3 -0.015246 -0.002619 0.017941 0.000000 0.012736 0.000000
# 4 0.000000 0.000000 0.000000 0.023604 0.000000 0.013734
# 5 -0.009293 0.006298 0.012736 0.000000 0.036494 0.000000
# 6 0.000000 0.000000 0.000000 0.013734 0.000000 0.056699
#
#
# Mechanical properties :
#
#
# Convention : Reuss Voigt Hill
#
# Bulk Modulus (GPa) = 35.92003 59.66630 47.79316
# Shear Modulus (GPa) = 21.15481 33.57069 27.36275
#
# Velocity S-wave (km/s) = 2.99172 3.76874 3.40248
# Velocity P-wave (km/s) = 5.20877 6.64696 5.97132
#
# Compressibility (1/GPa) = 0.02783962
#
# Stress axis : x y z
#
# Youngs Moduli (GPa) = 27.11206 70.26143 55.73755
#
# Poissons Ratio (x) = 0.19276 0.84978
# Poissons Ratio (y) = 0.07438 0.14600
# Poissons Ratio (z) = 0.41335 0.18405
#
# Static dielectric constant tensor:
#      x y z
#    x 2.021470 0.000000 -0.023360 
#    y 0.000000 2.702150 0.000000 
#    z -0.023360 0.000000 1.983370 
# 
# From -- ./inp_files/46611.got.cif
#   From: 2010.05.17/outbox.cif.g08.bks.cpg/sg15_24_cif.got.tgz:46611.got - 2010.06.03 18:47:42.
