data_PCOD9271667
_publ_section_title
;
Structure prediction by ZEFSAII (Michael W. Deem and Ramdas Pophale) SiO2 
 PCOD9271667
Probable space group: C 2/C
;
_chemical_formula_sum "Si O2"
_cell_formula_units_Z 52
_cell_length_a 15.894089
_cell_length_b 8.618558
_cell_length_c 15.042660
_cell_angle_alpha 90.000000
_cell_angle_beta 100.348788
_cell_angle_gamma 90.000000
_cell_volume 2027.084613
_symmetry_space_group_name_H-M "C 2/C"
_symmetry_group_IT_number 15
_symmetry_cell_setting 'monoclinic'
loop_
_space_group_symop_operation_xyz
x,y,z
-x,y,1/2-z
-x,-y,-z
x,-y,1/2+z
1/2+x,1/2+y,z
1/2-x,1/2+y,1/2-z
1/2-x,1/2-y,-z
1/2+x,1/2-y,1/2+z
loop_
_atom_site_type_symbol
_atom_site_label
_atom_site_fract_x
_atom_site_fract_y
_atom_site_fract_z
Si Si1 0.456507 0.570979 0.599300
Si Si2 0.134333 0.723701 0.280809
Si Si3 0.000000 0.485451 0.250000
Si Si4 0.802366 0.485845 0.537739
Si Si5 0.631260 0.242836 0.577519
Si Si6 0.446465 0.204663 0.591686
Si Si7 0.341633 0.564927 0.865097
O O1 0.419953 0.640928 0.682189
O O2 0.403985 0.655256 0.511998
O O3 0.442464 0.387804 0.593502
O O4 0.557465 0.602243 0.604539
O O5 0.170258 0.622961 0.371670
O O6 0.188999 0.818380 0.218330
O O7 0.067885 0.606130 0.220303
O O8 0.938484 0.368753 0.186981
O O9 0.798919 0.373056 0.450936
O O10 0.874937 0.610279 0.526371
O O11 0.719982 0.573456 0.560853
O O12 0.544126 0.158127 0.587864
O O13 0.657264 0.376772 0.652409
#
# Coordination Sequence:
#
# PCOD9271667 Si02
#       7
#     8   8   4   8   8   8   8
#     4  10  21  40  67  88 117 162 216 238 296 374
#     4  10  21  40  61  85 124 165 199 252 303 367
#     4  10  20  36  60  92 114 154 210 254 286 350
#     4  10  23  40  59  91 129 151 199 258 316 345
#     4  10  22  42  64  87 119 167 202 247 297 374
#     4  10  21  36  63  88 119 155 206 247 299 357
#     4  11  20  37  65  87 119 159 204 245 305 357
#
# _framework density 25.652604
#
# number of rings (size 3 to 8) (size 9 to 14) (size 15 to 20)
#    0.000    1.846    1.538    2.769    4.308    1.231 
#    8.308    3.077    0.000    0.000    0.000    0.000 
#    0.000    0.000    0.000    0.000    0.000    0.000 
#
# Total GULP energy -145018.363113 kJ/mol
# GULP energy per Si atom -5577.629351 kJ/mol
# Density = 2.559422 g / cm^3
# Si number density = 25.652604 Si / 1000 Ang^3
#
#
#
# Elastic Constant Matrix: (Units=GPa)
#
#
# Indices 1 2 3 4 5 6 
#
# 1 72.5988 30.6638 -3.2337 0.0000 -26.3434 0.0000
# 2 30.6638 129.9908 48.4582 0.0000 -3.2652 0.0000
# 3 -3.2337 48.4582 43.7420 0.0000 -6.3350 0.0000
# 4 0.0000 0.0000 0.0000 47.1517 0.0000 -0.1591
# 5 -26.3434 -3.2652 -6.3350 0.0000 36.9434 0.0000
# 6 0.0000 0.0000 0.0000 -0.1591 0.0000 42.4258
#
#
#
# Elastic Compliance Matrix: (Units=1/GPa)
#
#
# Indices 1 2 3 4 5 6 
#
# 1 0.029125 -0.014210 0.021249 0.000000 0.023156 0.000000
# 2 -0.014210 0.020105 -0.025158 0.000000 -0.012670 0.000000
# 3 0.021249 -0.025158 0.055555 0.000000 0.022455 0.000000
# 4 0.000000 0.000000 0.000000 0.021208 0.000000 0.000080
# 5 0.023156 -0.012670 0.022455 0.000000 0.046311 0.000000
# 6 0.000000 0.000000 0.000000 0.000080 0.000000 0.023571
#
#
# Mechanical properties :
#
#
# Convention : Reuss Voigt Hill
#
# Bulk Modulus (GPa) = 14.58859 44.23425 29.41142
# Shear Modulus (GPa) = 19.61061 36.66707 28.13884
#
# Velocity S-wave (km/s) = 2.76790 3.78480 3.31557
# Velocity P-wave (km/s) = 3.98928 6.03164 5.11346
#
# Compressibility (1/GPa) = 0.06854670
#
# Stress axis : x y z
#
# Youngs Moduli (GPa) = 34.33448 49.73841 18.00013
#
# Poissons Ratio (x) = 0.70678 -0.38248
# Poissons Ratio (y) = 0.48789 0.45285
# Poissons Ratio (z) = -0.72957 1.25134
#
# Static dielectric constant tensor:
#      x y z
#    x 2.151700 0.000000 0.038130 
#    y 0.000000 2.007730 0.000000 
#    z 0.038130 0.000000 2.144630 
# 
# From -- ./inp_files/209094.got.cif
#   From: 2010.05.17/outbox.cif.g08.bks.cpg/sg15_105_cif.got.tgz:209094.got - 2010.06.03 18:47:42.
