data_PCOD9271496
_publ_section_title
;
Structure prediction by ZEFSAII (Michael W. Deem and Ramdas Pophale) SiO2 
 PCOD9271496
Probable space group: C 2/C
;
_chemical_formula_sum "Si O2"
_cell_formula_units_Z 44
_cell_length_a 16.962810
_cell_length_b 16.756462
_cell_length_c 7.989653
_cell_angle_alpha 90.000000
_cell_angle_beta 123.125617
_cell_angle_gamma 90.000000
_cell_volume 1901.864702
_symmetry_space_group_name_H-M "C 2/C"
_symmetry_group_IT_number 15
_symmetry_cell_setting 'monoclinic'
loop_
_space_group_symop_operation_xyz
x,y,z
-x,y,1/2-z
-x,-y,-z
x,-y,1/2+z
1/2+x,1/2+y,z
1/2-x,1/2+y,1/2-z
1/2-x,1/2-y,-z
1/2+x,1/2-y,1/2+z
loop_
_atom_site_type_symbol
_atom_site_label
_atom_site_fract_x
_atom_site_fract_y
_atom_site_fract_z
Si Si1 0.102283 0.874515 0.421194
Si Si2 0.435635 0.059780 0.036295
Si Si3 0.187905 0.193791 0.307792
Si Si4 0.500000 0.649895 0.250000
Si Si5 0.130629 0.032734 0.615324
Si Si6 0.191039 0.440396 0.390068
O O1 0.172202 0.811114 0.588178
O O2 0.138048 0.924920 0.303108
O O3 0.000000 0.841782 0.250000
O O4 0.086547 0.944869 0.542265
O O5 0.500000 0.103630 0.250000
O O6 0.367665 0.004299 0.071747
O O7 0.500000 0.000000 0.000000
O O8 0.377940 0.104673 0.823329
O O9 0.250000 0.250000 0.500000
O O10 0.247068 0.113283 0.415812
O O11 0.079136 0.199452 0.242818
O O12 0.568350 0.593416 0.435814
O O13 0.231657 0.024943 0.646416
#
# Coordination Sequence:
#
# PCOD9271496 Si02
#       6
#     8   8   8   4   8   8
#     4  12  21  35  62 100 132 161 211 272 352 411
#     4   9  18  35  59  88 122 160 209 269 325 383
#     4  11  25  43  61  86 129 179 222 267 326 408
#     4  10  20  42  64  92 128 164 222 280 334 410
#     4  11  20  34  66 101 130 159 203 283 363 400
#     4  10  20  36  59  91 126 161 211 273 335 396
#
# _framework density 23.135189
#
# number of rings (size 3 to 8) (size 9 to 14) (size 15 to 20)
#    0.000    1.455    2.727    4.909    0.000    1.455 
#    4.909    4.545    0.000    0.000    0.000    0.000 
#    0.000    0.000    0.000    0.000    0.000    0.000 
#
# Total GULP energy -122482.946911 kJ/mol
# GULP energy per Si atom -5567.406678 kJ/mol
# Density = 2.308253 g / cm^3
# Si number density = 23.135189 Si / 1000 Ang^3
#
#
#
# Elastic Constant Matrix: (Units=GPa)
#
#
# Indices 1 2 3 4 5 6 
#
# 1 133.6407 11.1581 19.1897 0.0000 -3.0418 0.0000
# 2 11.1581 32.3500 23.9726 0.0000 -1.6008 0.0000
# 3 19.1897 23.9726 236.0401 0.0000 0.4273 0.0000
# 4 0.0000 0.0000 0.0000 46.1787 0.0000 4.2657
# 5 -3.0418 -1.6008 0.4273 0.0000 35.3405 0.0000
# 6 0.0000 0.0000 0.0000 4.2657 0.0000 5.1297
#
#
#
# Elastic Compliance Matrix: (Units=1/GPa)
#
#
# Indices 1 2 3 4 5 6 
#
# 1 0.007748 -0.002354 -0.000392 0.000000 0.000565 0.000000
# 2 -0.002354 0.034229 -0.003287 0.000000 0.001388 0.000000
# 3 -0.000392 -0.003287 0.004603 0.000000 -0.000238 0.000000
# 4 0.000000 0.000000 0.000000 0.023457 0.000000 -0.019506
# 5 0.000565 0.001388 -0.000238 0.000000 0.028411 0.000000
# 6 0.000000 0.000000 0.000000 -0.019506 0.000000 0.211163
#
#
# Mechanical properties :
#
#
# Convention : Reuss Voigt Hill
#
# Bulk Modulus (GPa) = 28.97478 56.74130 42.85804
# Shear Modulus (GPa) = 15.00683 40.51048 27.75866
#
# Velocity S-wave (km/s) = 2.54964 4.18907 3.46764
# Velocity P-wave (km/s) = 4.60639 6.92654 5.88200
#
# Compressibility (1/GPa) = 0.03451278
#
# Stress axis : x y z
#
# Youngs Moduli (GPa) = 129.05826 29.21529 217.26216
#
# Poissons Ratio (x) = 0.06878 0.08514
# Poissons Ratio (y) = 0.30383 0.71423
# Poissons Ratio (z) = 0.05057 0.09604
#
# Static dielectric constant tensor:
#      x y z
#    x 1.961350 0.000000 -0.028530 
#    y 0.000000 1.998000 0.000000 
#    z -0.028530 0.000000 2.009340 
# 
# From -- ./inp_files/49269.got.cif
#   From: 2010.05.17/outbox.cif.g08.bks.cpg/sg15_25_cif.got.tgz:49269.got - 2010.06.03 18:47:42.
