data_PCOD9271105
_publ_section_title
;
Structure prediction by ZEFSAII (Michael W. Deem and Ramdas Pophale) SiO2 
 PCOD9271105
Probable space group: C 2/C
;
_chemical_formula_sum "Si O2"
_cell_formula_units_Z 44
_cell_length_a 9.052971
_cell_length_b 15.225455
_cell_length_c 17.270679
_cell_angle_alpha 90.000000
_cell_angle_beta 51.146366
_cell_angle_gamma 90.000000
_cell_volume 1853.828163
_symmetry_space_group_name_H-M "C 2/C"
_symmetry_group_IT_number 15
_symmetry_cell_setting 'monoclinic'
loop_
_space_group_symop_operation_xyz
x,y,z
-x,y,1/2-z
-x,-y,-z
x,-y,1/2+z
1/2+x,1/2+y,z
1/2-x,1/2+y,1/2-z
1/2-x,1/2-y,-z
1/2+x,1/2-y,1/2+z
loop_
_atom_site_type_symbol
_atom_site_label
_atom_site_fract_x
_atom_site_fract_y
_atom_site_fract_z
Si Si1 0.384967 0.671615 0.930162
Si Si2 0.345224 0.016632 0.159474
Si Si3 0.767543 0.708189 0.204452
Si Si4 0.407189 0.691521 0.406973
Si Si5 0.752553 0.517168 0.004426
Si Si6 0.000000 0.086215 0.750000
O O1 0.595509 0.711712 0.861624
O O2 0.332010 0.578679 0.986421
O O3 0.367981 0.646562 0.845610
O O4 0.250000 0.750000 0.000000
O O5 0.369191 0.114526 0.185263
O O6 0.308386 0.018439 0.078179
O O7 0.146664 0.972967 0.251618
O O8 0.546266 0.968567 0.104858
O O9 0.620999 0.724150 0.322742
O O10 0.663922 0.686642 0.157889
O O11 0.250000 0.750000 0.500000
O O12 0.391473 0.597660 0.454205
#
# Coordination Sequence:
#
# PCOD9271105 Si02
#       6
#     8   8   8   8   8   4
#     4  11  21  35  55  88 120 143 181 239 290 335
#     4   9  16  33  56  81 111 142 189 240 278 323
#     4  10  20  36  57  84 114 143 189 239 283 332
#     4  10  22  38  58  82 109 152 196 232 276 338
#     4   9  18  33  56  82 112 147 184 235 283 325
#     4  10  22  32  58  90 112 154 194 232 288 336
#
# _framework density 23.734670000000001
#
# number of rings (size 3 to 8) (size 9 to 14) (size 15 to 20)
#    0.000    2.182    1.818    3.273    5.091    0.000 
#    0.000    0.909    0.000    4.364    0.000    0.000 
#    0.000    0.000    0.000    0.000    0.000    0.000 
#
# Total GULP energy -122553.020835 kJ/mol
# GULP energy per Si atom -5570.591856 kJ/mol
# Density = 2.368065 g / cm^3
# Si number density = 23.734670 Si / 1000 Ang^3
#
#
#
# Elastic Constant Matrix: (Units=GPa)
#
#
# Indices 1 2 3 4 5 6 
#
# 1 31.8864 27.0817 18.0434 0.0000 -21.1031 0.0000
# 2 27.0817 155.8894 71.9040 0.0000 -27.8527 0.0000
# 3 18.0434 71.9040 159.4233 0.0001 -41.0483 -0.0001
# 4 0.0000 0.0000 0.0001 -3.5786 -0.0001 6.8096
# 5 -21.1031 -27.8527 -41.0483 -0.0001 31.0903 0.0000
# 6 0.0000 0.0000 -0.0001 6.8096 0.0000 19.2351
#
#
#
# Elastic Compliance Matrix: (Units=1/GPa)
#
#
# Indices 1 2 3 4 5 6 
#
# 1 0.064327 -0.006181 0.008066 0.000000 0.048775 0.000000
# 2 -0.006181 0.008983 -0.003576 0.000000 -0.000869 0.000000
# 3 0.008066 -0.003576 0.011450 0.000000 0.017388 0.000000
# 4 0.000000 0.000000 0.000000 -0.166964 -0.000001 0.059108
# 5 0.048775 -0.000869 0.017388 -0.000001 0.087451 0.000000
# 6 0.000000 0.000000 0.000000 0.059108 0.000000 0.031063
#
#
# Mechanical properties :
#
#
# Convention : Reuss Voigt Hill
#
# Bulk Modulus (GPa) = 12.28828 64.58413 38.43620
# Shear Modulus (GPa) = 74.83149 24.69402 49.76276
#
# Velocity S-wave (km/s) = 5.62110 3.22905 4.58386
# Velocity P-wave (km/s) = 6.87878 6.41657 6.65169
#
# Compressibility (1/GPa) = 0.08137835
#
# Stress axis : x y z
#
# Youngs Moduli (GPa) = 15.54549 111.32716 87.33962
#
# Poissons Ratio (x) = 0.68810 -0.70448
# Poissons Ratio (y) = 0.09609 0.31229
# Poissons Ratio (z) = -0.12539 0.39806
#
# Static dielectric constant tensor:
#      x y z
#    x 1.991480 0.000000 -0.007060 
#    y 0.000000 1.987850 0.000000 
#    z -0.007060 0.000000 2.004010 
# 
# From -- ./inp_files/269676.got.cif
#   From: 2010.05.17/outbox.cif.g08.bks.cpg/sg15_135_cif.got.tgz:269676.got - 2010.06.03 18:47:42.
