data_PCOD9271690
_publ_section_title
;
Structure prediction by ZEFSAII (Michael W. Deem and Ramdas Pophale) SiO2 
 PCOD9271690
Probable space group: C 2/C
;
_chemical_formula_sum "Si O2"
_cell_formula_units_Z 48
_cell_length_a 17.714101
_cell_length_b 13.820066
_cell_length_c 18.013130
_cell_angle_alpha 90.000000
_cell_angle_beta 150.927956
_cell_angle_gamma 90.000000
_cell_volume 2142.759105
_symmetry_space_group_name_H-M "C 2/C"
_symmetry_group_IT_number 15
_symmetry_cell_setting 'monoclinic'
loop_
_space_group_symop_operation_xyz
x,y,z
-x,y,1/2-z
-x,-y,-z
x,-y,1/2+z
1/2+x,1/2+y,z
1/2-x,1/2+y,1/2-z
1/2-x,1/2-y,-z
1/2+x,1/2-y,1/2+z
loop_
_atom_site_type_symbol
_atom_site_label
_atom_site_fract_x
_atom_site_fract_y
_atom_site_fract_z
Si Si1 0.000000 0.025668 0.750000
Si Si2 0.500000 0.908564 0.250000
Si Si3 0.548984 0.741031 0.015603
Si Si4 0.309593 0.420689 0.466785
Si Si5 0.154904 0.304258 0.523991
Si Si6 0.194472 0.123820 0.788359
Si Si7 0.359475 0.575603 0.310793
O O1 0.096286 0.089132 0.774440
O O2 0.117039 0.957132 0.893994
O O3 0.635988 0.963052 0.320860
O O4 0.587068 0.848471 0.390013
O O5 0.649879 0.819282 0.059297
O O6 0.652790 0.649562 0.131971
O O7 0.481100 0.791916 0.031265
O O8 0.410039 0.695747 0.849869
O O9 0.290377 0.305493 0.442584
O O10 0.454319 0.444535 0.536774
O O11 0.290910 0.365829 0.680667
O O12 0.224342 0.027250 0.765192
#
# Coordination Sequence:
#
# PCOD9271690 Si02
#       7
#     4   4   8   8   8   8   8
#     4  10  23  46  68  97 130 180 222 279 330 393
#     4  12  21  30  58  99 130 168 204 267 322 403
#     4  11  23  44  66  98 129 182 223 271 330 393
#     4  10  20  36  60  93 136 167 210 260 332 388
#     4  11  22  38  62  97 137 175 213 263 338 398
#     4  11  24  44  70  93 131 173 232 277 334 389
#     4  10  22  43  67  94 137 180 216 269 334 405
#
# _framework density 22.401025000000001
#
# number of rings (size 3 to 8) (size 9 to 14) (size 15 to 20)
#    0.000    1.333    1.667    5.500    2.333    1.333 
#    0.000    3.333    0.000    1.000    0.000    0.000 
#    0.000    0.000    0.000    0.000    0.000    0.000 
#
# Total GULP energy -133995.110201 kJ/mol
# GULP energy per Si atom -5583.129592 kJ/mol
# Density = 2.235004 g / cm^3
# Si number density = 22.401025 Si / 1000 Ang^3
#
#
#
# Elastic Constant Matrix: (Units=GPa)
#
#
# Indices 1 2 3 4 5 6 
#
# 1 51.6892 26.4774 15.5660 0.0000 4.0359 -0.0002
# 2 26.4774 82.3899 22.1666 0.0002 19.6512 0.0000
# 3 15.5660 22.1666 55.6104 -0.0003 6.2358 -0.0002
# 4 0.0000 0.0002 -0.0003 20.0803 -0.0002 6.0345
# 5 4.0359 19.6512 6.2358 -0.0002 33.1163 -0.0003
# 6 -0.0002 0.0000 -0.0002 6.0345 -0.0003 23.0720
#
#
#
# Elastic Compliance Matrix: (Units=1/GPa)
#
#
# Indices 1 2 3 4 5 6 
#
# 1 0.024076 -0.007118 -0.004134 0.000000 0.002068 0.000000
# 2 -0.007118 0.017617 -0.004040 0.000000 -0.008826 0.000000
# 3 -0.004134 -0.004040 0.020865 0.000000 -0.001028 0.000000
# 4 0.000000 0.000000 0.000000 0.054048 0.000000 -0.014136
# 5 0.002068 -0.008826 -0.001028 0.000000 0.035375 0.000000
# 6 0.000000 0.000000 0.000000 -0.014136 0.000000 0.047040
#
#
# Mechanical properties :
#
#
# Convention : Reuss Voigt Hill
#
# Bulk Modulus (GPa) = 31.27564 35.34552 33.31058
# Shear Modulus (GPa) = 20.81045 23.61902 22.21474
#
# Velocity S-wave (km/s) = 3.05125 3.25063 3.15252
# Velocity P-wave (km/s) = 5.13863 5.46824 5.30599
#
# Compressibility (1/GPa) = 0.03197376
#
# Stress axis : x y z
#
# Youngs Moduli (GPa) = 41.53492 56.76320 47.92727
#
# Poissons Ratio (x) = 0.40407 0.19811
# Poissons Ratio (y) = 0.29566 0.19363
# Poissons Ratio (z) = 0.17169 0.22933
#
# Static dielectric constant tensor:
#      x y z
#    x 1.962450 0.000000 0.046020 
#    y 0.000000 1.822140 0.000000 
#    z 0.046020 0.000000 1.837280 
# 
# From -- ./inp_files/69863.got.cif
#   From: 2010.05.17/outbox.cif.g08.bks.cpg/sg15_35_cif.got.tgz:69863.got - 2010.06.03 18:47:42.
