data_PCOD9271132
_publ_section_title
;
Structure prediction by ZEFSAII (Michael W. Deem and Ramdas Pophale) SiO2 
 PCOD9271132
Probable space group: C 2/C
;
_chemical_formula_sum "Si O2"
_cell_formula_units_Z 56
_cell_length_a 13.358065
_cell_length_b 14.599267
_cell_length_c 21.568950
_cell_angle_alpha 90.000000
_cell_angle_beta 137.473672
_cell_angle_gamma 90.000000
_cell_volume 2843.181847
_symmetry_space_group_name_H-M "C 2/C"
_symmetry_group_IT_number 15
_symmetry_cell_setting 'monoclinic'
loop_
_space_group_symop_operation_xyz
x,y,z
-x,y,1/2-z
-x,-y,-z
x,-y,1/2+z
1/2+x,1/2+y,z
1/2-x,1/2+y,1/2-z
1/2-x,1/2-y,-z
1/2+x,1/2-y,1/2+z
loop_
_atom_site_type_symbol
_atom_site_label
_atom_site_fract_x
_atom_site_fract_y
_atom_site_fract_z
Si Si1 0.353525 0.760330 0.987608
Si Si2 0.093235 0.703600 0.690307
Si Si3 0.417816 0.383664 0.334736
Si Si4 0.000000 0.562774 0.750000
Si Si5 0.259317 0.060307 0.204208
Si Si6 0.975256 0.891239 0.989529
Si Si7 0.000000 0.033624 0.750000
Si Si8 0.784799 0.127030 0.188886
O O1 0.507631 0.796610 0.086453
O O2 0.250000 0.750000 0.000000
O O3 0.384346 0.659113 0.975868
O O4 0.293132 0.820873 0.903498
O O5 0.266201 0.675097 0.763095
O O6 0.095851 0.802400 0.725838
O O7 0.005561 0.632140 0.694271
O O8 0.356082 0.484396 0.324039
O O9 0.524081 0.356233 0.439762
O O10 0.503343 0.400116 0.310571
O O11 0.869378 0.493881 0.709665
O O12 0.313655 0.102317 0.294592
O O13 0.166960 0.127834 0.117968
O O14 0.000000 0.000000 0.000000
O O15 0.862411 0.963736 0.696825
#
# Coordination Sequence:
#
# PCOD9271132 Si02
#       8
#     8   8   8   4   8   8   4   8
#     4  12  24  34  60  96 120 156 201 259 313 348
#     4  11  21  37  59  88 123 149 195 260 303 344
#     4   9  20  37  58  83 121 160 194 248 297 363
#     4  10  21  38  61  86 116 166 204 232 305 362
#     4   9  20  37  58  83 121 160 194 248 297 363
#     4  10  20  36  57  86 123 157 197 243 305 363
#     4  10  21  38  61  86 116 166 204 232 305 362
#     4  11  21  37  59  88 123 149 195 260 303 344
#
# _framework density 19.696242999999999
#
# number of rings (size 3 to 8) (size 9 to 14) (size 15 to 20)
#    0.000    1.714    2.857    2.143    8.000    0.000 
#    0.000    8.571    0.000    1.714    0.000    0.000 
#    0.000    0.000    0.000    0.000    0.000    0.000 
#
# Total GULP energy -155868.650783 kJ/mol
# GULP energy per Si atom -5566.737528 kJ/mol
# Density = 1.965141 g / cm^3
# Si number density = 19.696243 Si / 1000 Ang^3
#
#
#
# Elastic Constant Matrix: (Units=GPa)
#
#
# Indices 1 2 3 4 5 6 
#
# 1 88.2150 25.8362 28.1789 0.0000 -31.7652 0.0000
# 2 25.8362 45.3600 9.5543 0.0000 -15.5078 0.0000
# 3 28.1789 9.5543 112.2627 0.0000 -25.8307 0.0000
# 4 0.0000 0.0000 0.0000 24.0524 0.0000 -1.1722
# 5 -31.7652 -15.5078 -25.8307 0.0000 21.0999 0.0000
# 6 0.0000 0.0000 0.0000 -1.1722 0.0000 21.3943
#
#
#
# Elastic Compliance Matrix: (Units=1/GPa)
#
#
# Indices 1 2 3 4 5 6 
#
# 1 0.025691 -0.000967 0.003298 0.000000 0.042003 0.000000
# 2 -0.000967 0.030469 0.003435 0.000000 0.025143 0.000000
# 3 0.003298 0.003435 0.013240 0.000000 0.023699 0.000000
# 4 0.000000 0.000000 0.000000 0.041687 0.000000 0.002284
# 5 0.042003 0.025143 0.023699 0.000000 0.158120 0.000000
# 6 0.000000 0.000000 0.000000 0.002284 0.000000 0.046867
#
#
# Mechanical properties :
#
#
# Convention : Reuss Voigt Hill
#
# Bulk Modulus (GPa) = 12.35608 41.44183 26.89896
# Shear Modulus (GPa) = 15.08204 25.46053 20.27129
#
# Velocity S-wave (km/s) = 2.77019 3.59926 3.21159
# Velocity P-wave (km/s) = 4.06434 6.19347 5.23822
#
# Compressibility (1/GPa) = 0.08093180
#
# Stress axis : x y z
#
# Youngs Moduli (GPa) = 38.92477 32.81999 75.52634
#
# Poissons Ratio (x) = 0.03175 -0.24912
# Poissons Ratio (y) = 0.03766 -0.25942
# Poissons Ratio (z) = -0.12839 -0.11273
#
# Static dielectric constant tensor:
#      x y z
#    x 1.994810 0.000000 -0.303510 
#    y 0.000000 1.739740 0.000000 
#    z -0.303510 0.000000 2.090240 
# 
# From -- ./inp_files/198464.got.cif
#   From: 2010.05.17/outbox.cif.g08.bks.cpg/sg15_100_cif.got.tgz:198464.got - 2010.06.03 18:47:42.
