data_PCOD9271526
_publ_section_title
;
Structure prediction by ZEFSAII (Michael W. Deem and Ramdas Pophale) SiO2 
 PCOD9271526
Probable space group: C 2/C
;
_chemical_formula_sum "Si O2"
_cell_formula_units_Z 60
_cell_length_a 8.015094
_cell_length_b 15.541521
_cell_length_c 24.802114
_cell_angle_alpha 90.000000
_cell_angle_beta 91.812516
_cell_angle_gamma 90.000000
_cell_volume 3087.973013
_symmetry_space_group_name_H-M "C 2/C"
_symmetry_group_IT_number 15
_symmetry_cell_setting 'monoclinic'
loop_
_space_group_symop_operation_xyz
x,y,z
-x,y,1/2-z
-x,-y,-z
x,-y,1/2+z
1/2+x,1/2+y,z
1/2-x,1/2+y,1/2-z
1/2-x,1/2-y,-z
1/2+x,1/2-y,1/2+z
loop_
_atom_site_type_symbol
_atom_site_label
_atom_site_fract_x
_atom_site_fract_y
_atom_site_fract_z
Si Si1 0.507946 0.626688 0.312183
Si Si2 0.138389 0.297262 0.148275
Si Si3 0.288546 0.549714 0.097806
Si Si4 0.700568 0.651224 0.507626
Si Si5 0.000000 0.609799 0.750000
Si Si6 0.974870 0.132653 0.609911
Si Si7 0.046995 0.553437 0.918753
Si Si8 0.278449 0.464894 0.326837
O O1 0.500000 0.656744 0.250000
O O2 0.427056 0.700754 0.348135
O O3 0.678739 0.598465 0.344799
O O4 0.395771 0.541318 0.310137
O O5 0.106388 0.336791 0.207378
O O6 0.326603 0.306068 0.128379
O O7 0.027697 0.360205 0.109763
O O8 0.394374 0.461945 0.102189
O O9 0.102632 0.515286 0.083017
O O10 0.352184 0.609063 0.049541
O O11 0.750000 0.750000 0.500000
O O12 0.564216 0.652446 0.554297
O O13 0.855026 0.590954 0.529080
O O14 0.866063 0.553875 0.716608
O O15 0.113810 0.120115 0.657842
O O16 0.189105 0.513741 0.882149
#
# Coordination Sequence:
#
# PCOD9271526 Si02
#       8
#     8   8   8   8   4   8   8   8
#     4  11  23  37  57  89 120 154 202 255 299 347
#     4  10  20  39  57  84 119 154 198 248 307 345
#     4  10  21  39  62  82 120 160 202 242 295 372
#     4  11  21  37  61  92 121 152 196 257 308 358
#     4  10  20  36  60  80 116 162 190 242 294 364
#     4   9  21  39  59  84 115 158 200 239 299 370
#     4   9  20  39  61  86 116 160 199 244 304 368
#     4   9  21  35  58  83 115 149 203 237 291 365
#
# _framework density 19.430223999999999
#
# number of rings (size 3 to 8) (size 9 to 14) (size 15 to 20)
#    0.000    2.133    0.667    1.600    7.467    1.067 
#    0.000    8.667    0.000    0.000    0.000    0.000 
#    0.000    0.000    0.000    0.000    0.000    0.000 
#
# Total GULP energy -167133.080250 kJ/mol
# GULP energy per Si atom -5571.102675 kJ/mol
# Density = 1.938600 g / cm^3
# Si number density = 19.430224 Si / 1000 Ang^3
#
#
#
# Elastic Constant Matrix: (Units=GPa)
#
#
# Indices 1 2 3 4 5 6 
#
# 1 84.5022 14.9042 33.3883 0.0000 -4.9429 0.0000
# 2 14.9042 49.2855 24.2440 0.0000 -2.6814 0.0000
# 3 33.3883 24.2440 99.1294 0.0000 12.0327 0.0000
# 4 0.0000 0.0000 0.0000 25.3024 0.0000 -8.4743
# 5 -4.9429 -2.6814 12.0327 0.0000 24.9734 0.0000
# 6 0.0000 0.0000 0.0000 -8.4743 0.0000 14.2370
#
#
#
# Elastic Compliance Matrix: (Units=1/GPa)
#
#
# Indices 1 2 3 4 5 6 
#
# 1 0.014427 -0.001575 -0.005098 0.000000 0.005143 0.000000
# 2 -0.001575 0.023975 -0.005956 0.000000 0.005132 0.000000
# 3 -0.005098 -0.005956 0.014298 0.000000 -0.008538 0.000000
# 4 0.000000 0.000000 0.000000 0.049363 0.000000 0.029382
# 5 0.005143 0.005132 -0.008538 0.000000 0.045725 0.000000
# 6 0.000000 0.000000 0.000000 0.029382 0.000000 0.087728
#
#
# Mechanical properties :
#
#
# Convention : Reuss Voigt Hill
#
# Bulk Modulus (GPa) = 36.44123 41.99889 39.22006
# Shear Modulus (GPa) = 18.52383 23.59460 21.05922
#
# Velocity S-wave (km/s) = 3.09099 3.48850 3.29574
# Velocity P-wave (km/s) = 5.61557 6.15535 5.89164
#
# Compressibility (1/GPa) = 0.02744144
#
# Stress axis : x y z
#
# Youngs Moduli (GPa) = 69.31408 41.70956 69.93981
#
# Poissons Ratio (x) = 0.06570 0.35657
# Poissons Ratio (y) = 0.10918 0.41657
# Poissons Ratio (z) = 0.35338 0.24842
#
# Static dielectric constant tensor:
#      x y z
#    x 1.708290 0.000000 0.018970 
#    y 0.000000 1.652510 0.000000 
#    z 0.018970 0.000000 1.721420 
# 
# From -- ./inp_files/264326.got.cif
#   From: 2010.05.17/outbox.cif.g08.bks.cpg/sg15_133_cif.got.tgz:264326.got - 2010.06.03 18:47:42.
