data_PCOD9271732
_publ_section_title
;
Structure prediction by ZEFSAII (Michael W. Deem and Ramdas Pophale) SiO2 
 PCOD9271732
Probable space group: C 2/C
;
_chemical_formula_sum "Si O2"
_cell_formula_units_Z 60
_cell_length_a 17.261175
_cell_length_b 16.723432
_cell_length_c 9.434534
_cell_angle_alpha 90.000000
_cell_angle_beta 63.673082
_cell_angle_gamma 90.000000
_cell_volume 2440.950871
_symmetry_space_group_name_H-M "C 2/C"
_symmetry_group_IT_number 15
_symmetry_cell_setting 'monoclinic'
loop_
_space_group_symop_operation_xyz
x,y,z
-x,y,1/2-z
-x,-y,-z
x,-y,1/2+z
1/2+x,1/2+y,z
1/2-x,1/2+y,1/2-z
1/2-x,1/2-y,-z
1/2+x,1/2-y,1/2+z
loop_
_atom_site_type_symbol
_atom_site_label
_atom_site_fract_x
_atom_site_fract_y
_atom_site_fract_z
Si Si1 0.401261 0.761025 0.368086
Si Si2 0.648760 0.306811 0.856096
Si Si3 0.848722 0.737691 0.232584
Si Si4 0.395800 0.145903 0.465744
Si Si5 0.175558 0.427006 0.095513
Si Si6 0.500000 0.023336 0.250000
Si Si7 0.749912 0.524698 0.688616
Si Si8 0.601428 0.597390 0.652317
O O1 0.500000 0.779905 0.250000
O O2 0.372588 0.687394 0.292500
O O3 0.388764 0.754519 0.545027
O O4 0.338780 0.833777 0.373717
O O5 0.747373 0.281332 0.802165
O O6 0.595100 0.228758 0.957323
O O7 0.625454 0.383206 0.969570
O O8 0.885026 0.671487 0.310820
O O9 0.870070 0.820337 0.293406
O O10 0.471904 0.080719 0.403843
O O11 0.310561 0.097942 0.582526
O O12 0.243824 0.464577 0.149106
O O13 0.084429 0.469649 0.204848
O O14 0.203194 0.447050 0.913201
O O15 0.657917 0.532878 0.689738
O O16 0.500000 0.584520 0.750000
#
# Coordination Sequence:
#
# PCOD9271732 Si02
#       8
#     8   8   8   8   8   4   8   8
#     4  12  25  37  57  96 133 160 205 256 314 370
#     4  11  21  40  61  90 124 168 203 260 313 380
#     4  11  22  38  62  91 127 169 202 258 318 371
#     4  10  20  36  61  85 123 160 212 239 299 377
#     4  11  25  40  62  88 134 168 206 248 316 384
#     4  10  24  36  60  92 126 170 200 248 298 376
#     4  11  23  43  61  90 124 170 210 259 308 381
#     4  11  22  42  69  93 119 163 226 268 310 365
#
# _framework density 24.580584999999999
#
# number of rings (size 3 to 8) (size 9 to 14) (size 15 to 20)
#    0.000    1.067    4.667    2.000    9.333    2.133 
#    0.000    0.667    0.000    0.000    0.000    0.000 
#    0.000    0.000    0.000    0.000    0.000    0.000 
#
# Total GULP energy -167984.596047 kJ/mol
# GULP energy per Si atom -5599.486535 kJ/mol
# Density = 2.452464 g / cm^3
# Si number density = 24.580585 Si / 1000 Ang^3
#
#
#
# Elastic Constant Matrix: (Units=GPa)
#
#
# Indices 1 2 3 4 5 6 
#
# 1 91.0334 3.6987 18.6629 0.0000 -7.4717 0.0000
# 2 3.6987 43.2795 -0.3696 0.0000 3.5569 0.0000
# 3 18.6629 -0.3696 100.9942 0.0000 24.0297 0.0000
# 4 0.0000 0.0000 0.0000 15.9690 0.0000 2.4975
# 5 -7.4717 3.5569 24.0297 0.0000 45.7265 0.0000
# 6 0.0000 0.0000 0.0000 2.4975 0.0000 22.1981
#
#
#
# Elastic Compliance Matrix: (Units=1/GPa)
#
#
# Indices 1 2 3 4 5 6 
#
# 1 0.011978 -0.001353 -0.003096 0.000000 0.003689 0.000000
# 2 -0.001353 0.023438 0.000940 0.000000 -0.002538 0.000000
# 3 -0.003096 0.000940 0.012132 0.000000 -0.006954 0.000000
# 4 0.000000 0.000000 0.000000 0.063743 0.000000 -0.007172
# 5 0.003689 -0.002538 -0.006954 0.000000 0.026324 0.000000
# 6 0.000000 0.000000 0.000000 -0.007172 0.000000 0.045856
#
#
# Mechanical properties :
#
#
# Convention : Reuss Voigt Hill
#
# Bulk Modulus (GPa) = 24.67435 31.03235 27.85335
# Shear Modulus (GPa) = 24.50996 30.99973 27.75485
#
# Velocity S-wave (km/s) = 3.16116 3.55512 3.36391
# Velocity P-wave (km/s) = 4.83568 5.43175 5.14236
#
# Compressibility (1/GPa) = 0.04052792
#
# Stress axis : x y z
#
# Youngs Moduli (GPa) = 83.48974 42.66590 82.42800
#
# Poissons Ratio (x) = 0.05774 0.25521
# Poissons Ratio (y) = 0.11298 -0.07746
# Poissons Ratio (z) = 0.25850 -0.04010
#
# Static dielectric constant tensor:
#      x y z
#    x 1.931320 0.000000 0.003120 
#    y 0.000000 1.942460 0.000000 
#    z 0.003120 0.000000 1.991820 
# 
# From -- ./inp_files/50650.got.cif
#   From: 2010.05.17/outbox.cif.g08.bks.cpg/sg15_26_cif.got.tgz:50650.got - 2010.06.03 18:47:42.
