data_PCOD9271275
_publ_section_title
;
Structure prediction by ZEFSAII (Michael W. Deem and Ramdas Pophale) SiO2 
 PCOD9271275
Probable space group: C 2/C
;
_chemical_formula_sum "Si O2"
_cell_formula_units_Z 48
_cell_length_a 8.586343
_cell_length_b 25.328216
_cell_length_c 18.156562
_cell_angle_alpha 90.000000
_cell_angle_beta 143.953732
_cell_angle_gamma 90.000000
_cell_volume 2323.525440
_symmetry_space_group_name_H-M "C 2/C"
_symmetry_group_IT_number 15
_symmetry_cell_setting 'monoclinic'
loop_
_space_group_symop_operation_xyz
x,y,z
-x,y,1/2-z
-x,-y,-z
x,-y,1/2+z
1/2+x,1/2+y,z
1/2-x,1/2+y,1/2-z
1/2-x,1/2-y,-z
1/2+x,1/2-y,1/2+z
loop_
_atom_site_type_symbol
_atom_site_label
_atom_site_fract_x
_atom_site_fract_y
_atom_site_fract_z
Si Si1 0.204531 0.188023 0.481219
Si Si2 0.126075 0.534475 0.983372
Si Si3 0.783805 0.870927 0.356538
Si Si4 0.213119 0.635681 0.673387
Si Si5 0.652211 0.401686 0.691669
Si Si6 0.284121 0.064557 0.074105
O O1 0.250000 0.250000 0.500000
O O2 0.190639 0.162682 0.558983
O O3 0.472163 0.166987 0.544830
O O4 0.951165 0.158844 0.348239
O O5 0.202185 0.495923 0.945132
O O6 0.909608 0.576863 0.873815
O O7 0.393584 0.563866 0.112820
O O8 0.000000 0.500000 0.000000
O O9 0.500000 0.900355 0.250000
O O10 0.751824 0.838792 0.269185
O O11 0.034348 0.908021 0.440092
O O12 0.500000 0.635699 0.750000
O O13 0.722755 0.422501 0.635922
O O14 0.930338 0.410786 0.838407
#
# Coordination Sequence:
#
# PCOD9271275 Si02
#       6
#     8   8   8   8   8   8
#     4   9  19  41  66  83 117 155 196 262 319 358
#     4  11  23  35  57  83 127 167 197 242 303 356
#     4   9  19  37  63  85 117 153 200 247 301 369
#     4  10  21  38  59  89 119 158 207 249 293 376
#     4   9  21  38  55  89 117 154 209 246 292 366
#     4  10  20  36  58  86 120 156 202 246 290 355
#
# _framework density 20.658262000000001
#
# number of rings (size 3 to 8) (size 9 to 14) (size 15 to 20)
#    0.000    2.333    0.000    2.500    4.667    0.000 
#   12.000    0.833   29.333    0.000    0.000    0.000 
#    0.000    0.000    0.000    0.000    0.000    0.000 
#
# Total GULP energy -133606.799306 kJ/mol
# GULP energy per Si atom -5566.949971 kJ/mol
# Density = 2.061124 g / cm^3
# Si number density = 20.658262 Si / 1000 Ang^3
#
#
#
# Elastic Constant Matrix: (Units=GPa)
#
#
# Indices 1 2 3 4 5 6 
#
# 1 64.3098 20.3532 24.8087 0.0001 30.4773 0.0000
# 2 20.3532 125.3676 38.5963 -0.0001 28.4800 0.0001
# 3 24.8087 38.5963 122.6382 0.0023 46.2310 0.0015
# 4 0.0001 -0.0001 0.0023 11.4083 0.0001 4.6863
# 5 30.4773 28.4800 46.2310 0.0001 39.3319 0.0002
# 6 0.0000 0.0001 0.0015 4.6863 0.0002 16.2852
#
#
#
# Elastic Compliance Matrix: (Units=1/GPa)
#
#
# Indices 1 2 3 4 5 6 
#
# 1 0.025701 0.000219 0.004128 -0.000001 -0.024926 0.000000
# 2 0.000219 0.009584 -0.000683 0.000000 -0.006306 0.000000
# 3 0.004128 -0.000683 0.015359 -0.000003 -0.020757 0.000000
# 4 -0.000001 0.000000 -0.000003 0.099406 0.000003 -0.028605
# 5 -0.024926 -0.006306 -0.020757 0.000003 0.073703 0.000000
# 6 0.000000 0.000000 0.000000 -0.028605 0.000000 0.069637
#
#
# Mechanical properties :
#
#
# Convention : Reuss Voigt Hill
#
# Bulk Modulus (GPa) = 17.24985 53.31466 35.28226
# Shear Modulus (GPa) = 16.37280 28.64226 22.50753
#
# Velocity S-wave (km/s) = 2.81829 3.72759 3.30436
# Velocity P-wave (km/s) = 4.35414 6.66262 5.62801
#
# Compressibility (1/GPa) = 0.05797152
#
# Stress axis : x y z
#
# Youngs Moduli (GPa) = 38.90975 104.34121 65.10942
#
# Poissons Ratio (x) = -0.02285 -0.26880
# Poissons Ratio (y) = -0.00852 0.04449
# Poissons Ratio (z) = -0.16063 0.07129
#
# Static dielectric constant tensor:
#      x y z
#    x 1.822790 0.000000 -0.053200 
#    y 0.000000 1.746310 0.000000 
#    z -0.053200 0.000000 1.868280 
# 
# From -- ./inp_files/79094.got.cif
#   From: 2010.05.17/outbox.cif.g08.bks.cpg/sg15_40_cif.got.tgz:79094.got - 2010.06.03 18:47:42.
