data_PCOD9271313
_publ_section_title
;
Structure prediction by ZEFSAII (Michael W. Deem and Ramdas Pophale) SiO2 
 PCOD9271313
Probable space group: C 2/C
;
_chemical_formula_sum "Si O2"
_cell_formula_units_Z 52
_cell_length_a 10.075518
_cell_length_b 16.938310
_cell_length_c 21.218333
_cell_angle_alpha 90.000000
_cell_angle_beta 44.376366
_cell_angle_gamma 90.000000
_cell_volume 2532.531352
_symmetry_space_group_name_H-M "C 2/C"
_symmetry_group_IT_number 15
_symmetry_cell_setting 'monoclinic'
loop_
_space_group_symop_operation_xyz
x,y,z
-x,y,1/2-z
-x,-y,-z
x,-y,1/2+z
1/2+x,1/2+y,z
1/2-x,1/2+y,1/2-z
1/2-x,1/2-y,-z
1/2+x,1/2-y,1/2+z
loop_
_atom_site_type_symbol
_atom_site_label
_atom_site_fract_x
_atom_site_fract_y
_atom_site_fract_z
Si Si1 0.726823 0.085645 0.797853
Si Si2 0.278544 0.174439 0.822651
Si Si3 0.110663 0.854853 0.995663
Si Si4 0.175691 0.355128 0.865980
Si Si5 0.000000 0.032523 0.250000
Si Si6 0.538578 0.953894 0.661865
Si Si7 0.198140 0.320842 0.436249
O O1 0.767038 0.149939 0.732374
O O2 0.741428 0.129376 0.859571
O O3 0.536642 0.034166 0.847161
O O4 0.893463 0.021619 0.736651
O O5 0.500000 0.152228 0.750000
O O6 0.256530 0.267756 0.835965
O O7 0.118886 0.136783 0.923331
O O8 0.245093 0.925793 0.925841
O O9 0.170896 0.774017 0.938377
O O10 0.166883 0.835802 0.049442
O O11 0.338217 0.413439 0.833663
O O12 0.090597 0.386179 0.828394
O O13 0.002914 0.353822 0.972184
O O14 0.500000 0.959082 0.750000
#
# Coordination Sequence:
#
# PCOD9271313 Si02
#       7
#     8   8   8   8   4   8   8
#     4  11  23  36  61  95 126 159 202 259 309 366
#     4  11  22  40  61  88 129 163 206 256 308 367
#     4   9  20  39  63  90 124 165 206 258 304 365
#     4   9  20  39  62  85 122 165 202 254 302 369
#     4  10  20  36  58  90 116 160 202 238 312 360
#     4  10  22  39  61  92 129 161 205 253 314 366
#     4   9  19  38  60  95 121 155 215 255 303 363
#
# _framework density 20.532816
#
# number of rings (size 3 to 8) (size 9 to 14) (size 15 to 20)
#    0.000    2.154    0.769    2.308    2.154    6.769 
#    0.000    9.231    0.000    0.000    0.000    0.000 
#    0.000    0.000    0.000    0.000    0.000    0.000 
#
# Total GULP energy -144876.514386 kJ/mol
# GULP energy per Si atom -5572.173630 kJ/mol
# Density = 2.048608 g / cm^3
# Si number density = 20.532816 Si / 1000 Ang^3
#
#
#
# Elastic Constant Matrix: (Units=GPa)
#
#
# Indices 1 2 3 4 5 6 
#
# 1 56.4692 38.6242 49.1548 0.0006 -14.2533 -0.0007
# 2 38.6242 55.3354 45.9853 0.0007 3.1560 -0.0004
# 3 49.1548 45.9853 87.6997 0.0031 -19.4440 -0.0008
# 4 0.0006 0.0007 0.0031 22.3853 -0.0001 -10.6612
# 5 -14.2533 3.1560 -19.4440 -0.0001 39.6861 0.0001
# 6 -0.0007 -0.0004 -0.0008 -10.6612 0.0001 33.8248
#
#
#
# Elastic Compliance Matrix: (Units=1/GPa)
#
#
# Indices 1 2 3 4 5 6 
#
# 1 0.047642 -0.025685 -0.010084 0.000001 0.014213 0.000001
# 2 -0.025685 0.052038 -0.017785 0.000002 -0.022077 0.000000
# 3 -0.010084 -0.017785 0.029046 -0.000004 0.012023 -0.000001
# 4 0.000001 0.000002 -0.000004 0.052562 -0.000001 0.016567
# 5 0.014213 -0.022077 0.012023 -0.000001 0.037949 0.000000
# 6 0.000001 0.000000 -0.000001 0.016567 0.000000 0.034786
#
#
# Mechanical properties :
#
#
# Convention : Reuss Voigt Hill
#
# Bulk Modulus (GPa) = 46.25572 51.89254 49.07413
# Shear Modulus (GPa) = 13.57455 23.56192 18.56823
#
# Velocity S-wave (km/s) = 2.57400 3.39119 3.01045
# Velocity P-wave (km/s) = 5.60452 6.37663 6.00300
#
# Compressibility (1/GPa) = 0.02161895
#
# Stress axis : x y z
#
# Youngs Moduli (GPa) = 20.98987 19.21660 34.42842
#
# Poissons Ratio (x) = 0.49357 0.34718
# Poissons Ratio (y) = 0.53912 0.61231
# Poissons Ratio (z) = 0.21166 0.34176
#
# Static dielectric constant tensor:
#      x y z
#    x 1.806400 0.000000 -0.059970 
#    y 0.000000 1.741810 0.000000 
#    z -0.059970 0.000000 1.720350 
# 
# From -- ./inp_files/232987.got.cif
#   From: 2010.05.17/outbox.cif.g08.bks.cpg/sg15_117_cif.got.tgz:232987.got - 2010.06.03 18:47:42.
