data_PCOD9271762
_publ_section_title
;
Structure prediction by ZEFSAII (Michael W. Deem and Ramdas Pophale) SiO2 
 PCOD9271762
Probable space group: C 2/C
;
_chemical_formula_sum "Si O2"
_cell_formula_units_Z 48
_cell_length_a 15.750059
_cell_length_b 13.876878
_cell_length_c 11.373737
_cell_angle_alpha 90.000000
_cell_angle_beta 91.824866
_cell_angle_gamma 90.000000
_cell_volume 2484.601949
_symmetry_space_group_name_H-M "C 2/C"
_symmetry_group_IT_number 15
_symmetry_cell_setting 'monoclinic'
loop_
_space_group_symop_operation_xyz
x,y,z
-x,y,1/2-z
-x,-y,-z
x,-y,1/2+z
1/2+x,1/2+y,z
1/2-x,1/2+y,1/2-z
1/2-x,1/2-y,-z
1/2+x,1/2-y,1/2+z
loop_
_atom_site_type_symbol
_atom_site_label
_atom_site_fract_x
_atom_site_fract_y
_atom_site_fract_z
Si Si1 0.500000 0.266598 0.750000
Si Si2 0.805713 0.812943 0.171040
Si Si3 0.264587 0.492180 0.780857
Si Si4 0.651509 0.150976 0.151009
Si Si5 0.606224 0.890846 0.385263
Si Si6 0.500000 0.967764 0.750000
Si Si7 0.853394 0.180877 0.411111
O O1 0.427831 0.200441 0.687363
O O2 0.555986 0.317700 0.651402
O O3 0.810145 0.923155 0.212015
O O4 0.835855 0.751855 0.284535
O O5 0.712580 0.765771 0.135427
O O6 0.857712 0.802867 0.051656
O O7 0.232084 0.415735 0.682872
O O8 0.186818 0.551310 0.837283
O O9 0.310500 0.422557 0.877062
O O10 0.576564 0.098125 0.216221
O O11 0.628667 0.145919 0.014604
O O12 0.528609 0.965552 0.360587
#
# Coordination Sequence:
#
# PCOD9271762 Si02
#       7
#     4   8   8   8   8   4   8
#     4  11  22  40  61  92 122 162 199 260 317 348
#     4  10  21  40  62  87 120 167 207 246 304 376
#     4  10  20  40  59  92 118 165 206 248 306 364
#     4  10  21  34  59  90 118 156 206 251 302 364
#     4  10  20  36  61  89 123 153 204 260 303 358
#     4   9  20  34  53  90 124 154 189 258 323 350
#     4  10  22  40  64  87 128 161 206 255 308 367
#
# _framework density 19.318988999999998
#
# number of rings (size 3 to 8) (size 9 to 14) (size 15 to 20)
#    0.000    2.000    1.667    1.500    2.333    2.000 
#    3.000    1.667    0.000    0.000    0.000    0.000 
#    0.000    0.000    0.000    0.000    0.000    0.000 
#
# Total GULP energy -133634.676659 kJ/mol
# GULP energy per Si atom -5568.111527 kJ/mol
# Density = 1.927502 g / cm^3
# Si number density = 19.318989 Si / 1000 Ang^3
#
#
#
# Elastic Constant Matrix: (Units=GPa)
#
#
# Indices 1 2 3 4 5 6 
#
# 1 45.0434 17.5447 15.2495 0.0000 -15.2733 0.0000
# 2 17.5447 84.5735 39.2806 0.0000 -0.1583 0.0000
# 3 15.2495 39.2806 108.3260 0.0000 10.2565 0.0000
# 4 0.0000 0.0000 0.0000 23.7295 0.0000 -7.4424
# 5 -15.2733 -0.1583 10.2565 0.0000 26.6545 0.0000
# 6 0.0000 0.0000 0.0000 -7.4424 0.0000 7.5315
#
#
#
# Elastic Compliance Matrix: (Units=1/GPa)
#
#
# Indices 1 2 3 4 5 6 
#
# 1 0.032548 -0.004429 -0.004918 0.000000 0.020516 0.000000
# 2 -0.004429 0.014941 -0.004735 0.000000 -0.000627 0.000000
# 3 -0.004918 -0.004735 0.012361 0.000000 -0.007603 0.000000
# 4 0.000000 0.000000 0.000000 0.061068 0.000000 0.060345
# 5 0.020516 -0.000627 -0.007603 0.000000 0.052195 0.000000
# 6 0.000000 0.000000 0.000000 0.060345 0.000000 0.192407
#
#
# Mechanical properties :
#
#
# Convention : Reuss Voigt Hill
#
# Bulk Modulus (GPa) = 31.56130 42.45471 37.00801
# Shear Modulus (GPa) = 12.36871 22.64095 17.50483
#
# Velocity S-wave (km/s) = 2.53303 3.42709 3.01341
# Velocity P-wave (km/s) = 4.99274 6.13867 5.59512
#
# Compressibility (1/GPa) = 0.03168437
#
# Stress axis : x y z
#
# Youngs Moduli (GPa) = 30.72398 66.93067 80.90275
#
# Poissons Ratio (x) = 0.29645 0.39790
# Poissons Ratio (y) = 0.13608 0.38306
# Poissons Ratio (z) = 0.15111 0.31691
#
# Static dielectric constant tensor:
#      x y z
#    x 1.721510 0.000000 0.002070 
#    y 0.000000 1.678100 0.000000 
#    z 0.002070 0.000000 1.675640 
# 
# From -- ./inp_files/47492.got.cif
#   From: 2010.05.17/outbox.cif.g08.bks.cpg/sg15_24_cif.got.tgz:47492.got - 2010.06.03 18:47:42.
