data_PCOD9271806
_publ_section_title
;
Structure prediction by ZEFSAII (Michael W. Deem and Ramdas Pophale) SiO2 
 PCOD9271806
Probable space group: C 2/C
;
_chemical_formula_sum "Si O2"
_cell_formula_units_Z 44
_cell_length_a 15.380484
_cell_length_b 16.660525
_cell_length_c 8.673723
_cell_angle_alpha 90.000000
_cell_angle_beta 65.828982
_cell_angle_gamma 90.000000
_cell_volume 2027.752421
_symmetry_space_group_name_H-M "C 2/C"
_symmetry_group_IT_number 15
_symmetry_cell_setting 'monoclinic'
loop_
_space_group_symop_operation_xyz
x,y,z
-x,y,1/2-z
-x,-y,-z
x,-y,1/2+z
1/2+x,1/2+y,z
1/2-x,1/2+y,1/2-z
1/2-x,1/2-y,-z
1/2+x,1/2-y,1/2+z
loop_
_atom_site_type_symbol
_atom_site_label
_atom_site_fract_x
_atom_site_fract_y
_atom_site_fract_z
Si Si1 0.845144 0.057495 0.215378
Si Si2 0.187046 0.888230 0.409372
Si Si3 0.000572 0.154038 0.577509
Si Si4 0.358350 0.074041 0.210255
Si Si5 0.393780 0.900346 0.325862
Si Si6 0.000000 0.302181 0.750000
O O1 0.834707 0.079661 0.402253
O O2 0.753722 0.088897 0.186070
O O3 0.832620 0.962917 0.191984
O O4 0.939232 0.097730 0.077858
O O5 0.296899 0.859081 0.331164
O O6 0.103946 0.829177 0.416717
O O7 0.000000 0.115361 0.750000
O O8 0.039975 0.242203 0.589583
O O9 0.418145 0.141045 0.250033
O O10 0.392148 0.986177 0.239978
O O11 0.374428 0.079908 0.017178
O O12 0.500000 0.863320 0.250000
#
# Coordination Sequence:
#
# PCOD9271806 Si02
#       6
#     8   8   8   8   8   4
#     4  10  20  36  64  89 120 154 202 254 301 340
#     4  10  20  36  61  94 118 152 202 255 298 348
#     4  10  22  39  56  82 125 165 197 238 294 361
#     4  10  21  39  61  94 118 157 199 250 300 360
#     4  10  20  36  64  93 120 148 199 257 299 342
#     4  10  24  40  58  82 132 160 208 226 304 370
#
# _framework density 21.698902
#
# number of rings (size 3 to 8) (size 9 to 14) (size 15 to 20)
#    0.545    1.455    0.909    2.727    0.000    2.182 
#    0.000    5.455    0.000    0.000    0.000    0.000 
#    0.000    0.000    0.000    0.000    0.000    0.000 
#
# Total GULP energy -122652.471137 kJ/mol
# GULP energy per Si atom -5575.112324 kJ/mol
# Density = 2.164951 g / cm^3
# Si number density = 21.698902 Si / 1000 Ang^3
#
#
#
# Elastic Constant Matrix: (Units=GPa)
#
#
# Indices 1 2 3 4 5 6 
#
# 1 89.6807 -71.7324 24.8357 0.0000 0.6097 0.0000
# 2 -71.7324 -87.0085 -13.0165 0.0000 2.0023 0.0000
# 3 24.8357 -13.0165 42.1691 0.0000 3.6619 0.0000
# 4 0.0000 0.0000 0.0000 6.6556 0.0000 4.2460
# 5 0.6097 2.0023 3.6619 0.0000 34.4134 0.0000
# 6 0.0000 0.0000 0.0000 4.2460 0.0000 21.0507
#
#
#
# Elastic Compliance Matrix: (Units=1/GPa)
#
#
# Indices 1 2 3 4 5 6 
#
# 1 0.008352 -0.005847 -0.006803 0.000000 0.000916 0.000000
# 2 -0.005847 -0.006858 0.001295 0.000000 0.000365 0.000000
# 3 -0.006803 0.001295 0.028379 0.000000 -0.002975 0.000000
# 4 0.000000 0.000000 0.000000 0.172438 0.000000 -0.034781
# 5 0.000916 0.000365 -0.002975 0.000000 0.029337 0.000000
# 6 0.000000 0.000000 0.000000 -0.034781 0.000000 0.054520
#
#
# Mechanical properties :
#
#
# Convention : Reuss Voigt Hill
#
# Bulk Modulus (GPa) = 139.61996 -8.33169 65.64413
# Shear Modulus (GPa) = 16.06348 19.40758 17.73553
#
# Velocity S-wave (km/s) = 2.72378 2.99390 2.86203
# Velocity P-wave (km/s) = 8.62415 2.84662 6.42180
#
# Compressibility (1/GPa) = 0.00716230
#
# Stress axis : x y z
#
# Youngs Moduli (GPa) = 119.73322 -145.81027 35.23760
#
# Poissons Ratio (x) = -0.85251 0.23973
# Poissons Ratio (y) = 0.70005 -0.04563
# Poissons Ratio (z) = 0.81457 0.18880
#
# Static dielectric constant tensor:
#      x y z
#    x 1.882700 0.000000 -0.048910 
#    y 0.000000 1.795010 0.000000 
#    z -0.048910 0.000000 1.795870 
# 
# From -- ./inp_files/39157.got.cif
#   From: 2010.05.17/outbox.cif.g08.bks.cpg/sg15_20_cif.got.tgz:39157.got - 2010.06.03 18:47:42.
