data_PCOD9271605
_publ_section_title
;
Structure prediction by ZEFSAII (Michael W. Deem and Ramdas Pophale) SiO2 
 PCOD9271605
Probable space group: C 2/C
;
_chemical_formula_sum "Si O2"
_cell_formula_units_Z 44
_cell_length_a 19.170023
_cell_length_b 11.351329
_cell_length_c 17.079809
_cell_angle_alpha 90.000000
_cell_angle_beta 144.026084
_cell_angle_gamma 90.000000
_cell_volume 2183.226433
_symmetry_space_group_name_H-M "C 2/C"
_symmetry_group_IT_number 15
_symmetry_cell_setting 'monoclinic'
loop_
_space_group_symop_operation_xyz
x,y,z
-x,y,1/2-z
-x,-y,-z
x,-y,1/2+z
1/2+x,1/2+y,z
1/2-x,1/2+y,1/2-z
1/2-x,1/2-y,-z
1/2+x,1/2-y,1/2+z
loop_
_atom_site_type_symbol
_atom_site_label
_atom_site_fract_x
_atom_site_fract_y
_atom_site_fract_z
Si Si1 0.887123 0.809011 0.202684
Si Si2 0.114816 0.020729 0.193321
Si Si3 0.157737 0.066170 0.571725
Si Si4 0.695747 0.264273 0.862710
Si Si5 0.696210 0.929577 0.924463
Si Si6 0.500000 0.112112 0.750000
O O1 0.870265 0.668857 0.188646
O O2 0.000000 0.833141 0.250000
O O3 0.904357 0.886805 0.294930
O O4 0.767474 0.861128 0.055576
O O5 0.175527 0.104104 0.313277
O O6 0.183665 0.006568 0.174318
O O7 0.984100 0.074358 0.061287
O O8 0.220952 0.192189 0.621059
O O9 0.209617 0.996058 0.544620
O O10 0.568779 0.196895 0.752495
O O11 0.750000 0.250000 0.000000
O O12 0.602302 0.023463 0.872005
#
# Coordination Sequence:
#
# PCOD9271605 Si02
#       6
#     8   8   8   8   8   4
#     4  11  21  36  63  87 117 159 201 252 296 364
#     4  11  23  39  61  88 125 156 205 250 312 366
#     4  10  23  40  60  88 121 163 196 254 312 362
#     4  11  23  39  66  89 121 163 211 256 305 367
#     4  10  21  38  60  87 119 154 203 246 305 359
#     4  10  20  36  60  88 116 150 202 254 290 358
#
# _framework density 20.153658
#
# number of rings (size 3 to 8) (size 9 to 14) (size 15 to 20)
#    0.000    1.455    2.727    3.273    3.818    0.000 
#    0.000    0.000    0.000    5.455    0.000    0.000 
#    0.000    0.000    0.000    0.000    0.000    0.000 
#
# Total GULP energy -122693.299245 kJ/mol
# GULP energy per Si atom -5576.968148 kJ/mol
# Density = 2.010779 g / cm^3
# Si number density = 20.153658 Si / 1000 Ang^3
#
#
#
# Elastic Constant Matrix: (Units=GPa)
#
#
# Indices 1 2 3 4 5 6 
#
# 1 71.4812 13.2657 21.7169 0.0000 8.8485 0.0000
# 2 13.2657 97.1213 19.5801 0.0000 0.9462 0.0000
# 3 21.7169 19.5801 50.7416 0.0000 3.1179 0.0000
# 4 0.0000 0.0000 0.0000 28.2942 0.0000 1.7408
# 5 8.8485 0.9462 3.1179 0.0000 24.0574 0.0000
# 6 0.0000 0.0000 0.0000 1.7408 0.0000 23.3683
#
#
#
# Elastic Compliance Matrix: (Units=1/GPa)
#
#
# Indices 1 2 3 4 5 6 
#
# 1 0.016794 -0.000931 -0.006503 0.000000 -0.005298 0.000000
# 2 -0.000931 0.011217 -0.003955 0.000000 0.000414 0.000000
# 3 -0.006503 -0.003955 0.024052 0.000000 -0.000570 0.000000
# 4 0.000000 0.000000 0.000000 0.035506 0.000000 -0.002645
# 5 -0.005298 0.000414 -0.000570 0.000000 0.043573 0.000000
# 6 0.000000 0.000000 0.000000 -0.002645 0.000000 0.042990
#
#
# Mechanical properties :
#
#
# Convention : Reuss Voigt Hill
#
# Bulk Modulus (GPa) = 34.14788 36.49662 35.32225
# Shear Modulus (GPa) = 24.19294 26.12941 25.16117
#
# Velocity S-wave (km/s) = 3.46847 3.60461 3.53720
# Velocity P-wave (km/s) = 5.74639 5.95591 5.85208
#
# Compressibility (1/GPa) = 0.02928439
#
# Stress axis : x y z
#
# Youngs Moduli (GPa) = 59.54541 89.15068 41.57650
#
# Poissons Ratio (x) = 0.08302 0.27036
# Poissons Ratio (y) = 0.05545 0.16445
# Poissons Ratio (z) = 0.38721 0.35261
#
# Static dielectric constant tensor:
#      x y z
#    x 1.688910 0.000000 -0.011330 
#    y 0.000000 1.758310 0.000000 
#    z -0.011330 0.000000 1.772190 
# 
# From -- ./inp_files/103618.got.cif
#   From: 2010.05.17/outbox.cif.g08.bks.cpg/sg15_52_cif.got.tgz:103618.got - 2010.06.03 18:47:42.
