data_PCOD9271382
_publ_section_title
;
Structure prediction by ZEFSAII (Michael W. Deem and Ramdas Pophale) SiO2 
 PCOD9271382
Probable space group: C 2/C
;
_chemical_formula_sum "Si O2"
_cell_formula_units_Z 64
_cell_length_a 15.814095
_cell_length_b 8.525803
_cell_length_c 29.337216
_cell_angle_alpha 90.000000
_cell_angle_beta 40.386286
_cell_angle_gamma 90.000000
_cell_volume 2562.900357
_symmetry_space_group_name_H-M "C 2/C"
_symmetry_group_IT_number 15
_symmetry_cell_setting 'monoclinic'
loop_
_space_group_symop_operation_xyz
x,y,z
-x,y,1/2-z
-x,-y,-z
x,-y,1/2+z
1/2+x,1/2+y,z
1/2-x,1/2+y,1/2-z
1/2-x,1/2-y,-z
1/2+x,1/2-y,1/2+z
loop_
_atom_site_type_symbol
_atom_site_label
_atom_site_fract_x
_atom_site_fract_y
_atom_site_fract_z
Si Si1 0.346920 0.181285 0.547638
Si Si2 0.538732 0.318859 0.786775
Si Si3 0.929843 0.315805 0.916960
Si Si4 0.070151 0.684180 0.583043
Si Si5 0.803666 0.179311 0.158606
Si Si6 0.696329 0.320706 0.341398
Si Si7 0.461272 0.318872 0.213223
Si Si8 0.153074 0.318712 0.952364
O O1 0.348986 0.241083 0.494611
O O2 0.284379 0.284262 0.612904
O O3 0.499997 0.177163 0.500001
O O4 0.300378 0.999997 0.568701
O O5 0.500000 0.303643 0.750000
O O6 0.430279 0.270046 0.868190
O O7 0.667801 0.214556 0.738731
O O8 0.573148 0.499994 0.780483
O O9 0.904410 0.499993 0.922111
O O10 0.080015 0.288561 0.871519
O O11 0.930273 0.229939 0.868193
O O12 0.919977 0.711416 0.628485
O O13 0.151005 0.741078 0.505393
O O14 0.667796 0.214567 0.238735
O O15 0.844234 0.000009 0.147872
O O16 0.715613 0.284273 0.387101
O O17 0.500000 0.303656 0.250000
#
# Coordination Sequence:
#
# PCOD9271382 Si02
#       8
#     8   8   8   8   8   8   8   8
#     4   8  16  32  54  81 111 140 173 219 270 315
#     4  11  24  40  56  76 107 145 184 227 272 319
#     4  10  20  36  59  84 111 142 178 222 269 319
#     4  10  20  36  59  84 111 142 178 222 269 319
#     4  11  21  34  57  85 112 142 179 222 266 320
#     4  11  21  34  57  85 112 142 179 222 266 320
#     4  11  24  40  56  76 107 145 184 227 272 319
#     4   8  16  32  54  81 111 140 173 219 270 315
#
# _framework density 24.971709000000001
#
# number of rings (size 3 to 8) (size 9 to 14) (size 15 to 20)
#    0.000    2.000    0.000    6.000    0.000    7.500 
#    0.000    1.250    0.000    0.000    0.000    0.000 
#    0.000    0.000    0.000    0.000    0.000    0.000 
#
# Total GULP energy -179119.312422 kJ/mol
# GULP energy per Si atom -5597.478513 kJ/mol
# Density = 2.491487 g / cm^3
# Si number density = 24.971709 Si / 1000 Ang^3
#
#
#
# Elastic Constant Matrix: (Units=GPa)
#
#
# Indices 1 2 3 4 5 6 
#
# 1 91.2552 3.1033 24.8104 -0.0006 46.0083 -0.0014
# 2 3.1033 53.0295 18.4644 -0.0022 14.4913 -0.0006
# 3 24.8104 18.4644 177.3155 0.0003 41.0761 0.0000
# 4 -0.0006 -0.0022 0.0003 34.6238 -0.0001 7.3171
# 5 46.0083 14.4913 41.0761 -0.0001 58.3197 -0.0004
# 6 -0.0014 -0.0006 0.0000 7.3171 -0.0004 20.5242
#
#
#
# Elastic Compliance Matrix: (Units=1/GPa)
#
#
# Indices 1 2 3 4 5 6 
#
# 1 0.018764 0.003029 0.000792 0.000000 -0.016113 0.000001
# 2 0.003029 0.020910 -0.001009 0.000001 -0.006875 0.000000
# 3 0.000792 -0.001009 0.006836 0.000000 -0.005189 0.000000
# 4 0.000000 0.000001 0.000000 0.031235 0.000000 -0.011136
# 5 -0.016113 -0.006875 -0.005189 0.000000 0.035221 -0.000001
# 6 0.000001 0.000000 0.000000 -0.011136 -0.000001 0.052693
#
#
# Mechanical properties :
#
#
# Convention : Reuss Voigt Hill
#
# Bulk Modulus (GPa) = 19.18095 46.03958 32.61027
# Shear Modulus (GPa) = 28.18290 41.04169 34.61229
#
# Velocity S-wave (km/s) = 3.36310 4.05844 3.72702
# Velocity P-wave (km/s) = 4.77266 6.35909 5.62211
#
# Compressibility (1/GPa) = 0.05213507
#
# Stress axis : x y z
#
# Youngs Moduli (GPa) = 53.29424 47.82367 146.28645
#
# Poissons Ratio (x) = -0.14488 -0.11582
# Poissons Ratio (y) = -0.16145 0.14755
# Poissons Ratio (z) = -0.04220 0.04824
#
# Static dielectric constant tensor:
#      x y z
#    x 2.095390 0.000000 0.015320 
#    y 0.000000 1.829600 0.000000 
#    z 0.015320 0.000000 1.967810 
# 
# From -- ./inp_files/315685.got.cif
#   From: 2010.05.17/outbox.cif.g08.bks.cpg/sg15_158_cif.got.tgz:315685.got - 2010.06.03 18:47:42.
