data_PCOD9271896
_publ_section_title
;
Structure prediction by ZEFSAII (Michael W. Deem and Ramdas Pophale) SiO2 
 PCOD9271896
Probable space group: C 2/C
;
_chemical_formula_sum "Si O2"
_cell_formula_units_Z 48
_cell_length_a 10.906726
_cell_length_b 11.588656
_cell_length_c 14.835546
_cell_angle_alpha 90.000000
_cell_angle_beta 71.974694
_cell_angle_gamma 90.000000
_cell_volume 1783.096972
_symmetry_space_group_name_H-M "C 2/C"
_symmetry_group_IT_number 15
_symmetry_cell_setting 'monoclinic'
loop_
_space_group_symop_operation_xyz
x,y,z
-x,y,1/2-z
-x,-y,-z
x,-y,1/2+z
1/2+x,1/2+y,z
1/2-x,1/2+y,1/2-z
1/2-x,1/2-y,-z
1/2+x,1/2-y,1/2+z
loop_
_atom_site_type_symbol
_atom_site_label
_atom_site_fract_x
_atom_site_fract_y
_atom_site_fract_z
Si Si1 0.899598 0.997497 0.912268
Si Si2 0.524920 0.909136 0.080457
Si Si3 0.892164 0.623303 0.325574
Si Si4 0.706730 0.674536 0.911594
Si Si5 0.568872 0.251844 0.016462
Si Si6 0.179639 0.996856 0.767919
O O1 0.912480 0.115746 0.964451
O O2 0.815200 0.004311 0.840719
O O3 0.038430 0.967183 0.838914
O O4 0.845953 0.910451 0.997731
O O5 0.645570 0.824530 0.087001
O O6 0.537936 0.006634 0.154170
O O7 0.417559 0.812564 0.081565
O O8 0.500000 0.000000 0.000000
O O9 0.851561 0.686356 0.425112
O O10 0.777755 0.594774 0.285730
O O11 0.000000 0.697116 0.250000
O O12 0.588922 0.766574 0.930856
O O13 0.711982 0.614996 0.812764
#
# Coordination Sequence:
#
# PCOD9271896 Si02
#       6
#     8   8   8   8   8   8
#     4  10  21  38  66  86 119 157 189 253 305 346
#     4   9  20  38  57  86 120 156 198 242 290 362
#     4  10  22  37  62  84 121 159 196 250 300 343
#     4  10  20  38  63  86 122 156 192 253 302 346
#     4  10  20  36  62  90 110 155 213 234 290 371
#     4   9  20  38  56  87 117 148 202 239 290 359
#
# _framework density 26.919457000000001
#
# number of rings (size 3 to 8) (size 9 to 14) (size 15 to 20)
#    0.000    2.333    0.000    2.500    9.333    0.000 
#    0.000   13.333    7.333    0.000    0.000    0.000 
#    0.000    0.000    0.000    0.000    0.000    0.000 
#
# Total GULP energy -133815.988251 kJ/mol
# GULP energy per Si atom -5575.666177 kJ/mol
# Density = 2.685819 g / cm^3
# Si number density = 26.919457 Si / 1000 Ang^3
#
#
#
# Elastic Constant Matrix: (Units=GPa)
#
#
# Indices 1 2 3 4 5 6 
#
# 1 104.2325 16.3121 53.4151 0.0000 28.5097 0.0000
# 2 16.3121 88.3893 30.8329 0.0000 10.3280 0.0000
# 3 53.4151 30.8329 133.0838 0.0000 45.8169 0.0000
# 4 0.0000 0.0000 0.0000 13.0298 0.0000 8.5854
# 5 28.5097 10.3280 45.8169 0.0000 57.7479 0.0000
# 6 0.0000 0.0000 0.0000 8.5854 0.0000 41.1086
#
#
#
# Elastic Compliance Matrix: (Units=1/GPa)
#
#
# Indices 1 2 3 4 5 6 
#
# 1 0.012476 -0.000615 -0.003828 0.000000 -0.003012 0.000000
# 2 -0.000615 0.012339 -0.002692 0.000000 0.000233 0.000000
# 3 -0.003828 -0.002692 0.012186 0.000000 -0.007297 0.000000
# 4 0.000000 0.000000 0.000000 0.088993 0.000000 -0.018586
# 5 -0.003012 0.000233 -0.007297 0.000000 0.024552 0.000000
# 6 0.000000 0.000000 0.000000 -0.018586 0.000000 0.028207
#
#
# Mechanical properties :
#
#
# Convention : Reuss Voigt Hill
#
# Bulk Modulus (GPa) = 43.99215 58.53621 51.26418
# Shear Modulus (GPa) = 24.92523 37.38698 31.15610
#
# Velocity S-wave (km/s) = 3.04619 3.73077 3.40572
# Velocity P-wave (km/s) = 5.36190 6.35219 5.87794
#
# Compressibility (1/GPa) = 0.02273133
#
# Stress axis : x y z
#
# Youngs Moduli (GPa) = 80.15600 81.04425 82.05921
#
# Poissons Ratio (x) = 0.04986 0.31410
# Poissons Ratio (y) = 0.04931 0.22089
# Poissons Ratio (z) = 0.30682 0.21816
#
# Static dielectric constant tensor:
#      x y z
#    x 2.274240 0.000000 -0.091840 
#    y 0.000000 2.177510 0.000000 
#    z -0.091840 0.000000 2.117260 
# 
# From -- ./inp_files/196120.got.cif
#   From: 2010.05.17/outbox.cif.g08.bks.cpg/sg15_99_cif.got.tgz:196120.got - 2010.06.03 18:47:42.
