data_PCOD9271784
_publ_section_title
;
Structure prediction by ZEFSAII (Michael W. Deem and Ramdas Pophale) SiO2 
 PCOD9271784
Probable space group: C 2/C
;
_chemical_formula_sum "Si O2"
_cell_formula_units_Z 48
_cell_length_a 10.108362
_cell_length_b 21.302064
_cell_length_c 10.866503
_cell_angle_alpha 90.000000
_cell_angle_beta 97.365756
_cell_angle_gamma 90.000000
_cell_volume 2320.564226
_symmetry_space_group_name_H-M "C 2/C"
_symmetry_group_IT_number 15
_symmetry_cell_setting 'monoclinic'
loop_
_space_group_symop_operation_xyz
x,y,z
-x,y,1/2-z
-x,-y,-z
x,-y,1/2+z
1/2+x,1/2+y,z
1/2-x,1/2+y,1/2-z
1/2-x,1/2-y,-z
1/2+x,1/2-y,1/2+z
loop_
_atom_site_type_symbol
_atom_site_label
_atom_site_fract_x
_atom_site_fract_y
_atom_site_fract_z
Si Si1 0.670736 0.835654 0.579404
Si Si2 0.145140 0.732303 0.824004
Si Si3 0.474328 0.048992 0.111231
Si Si4 0.354916 0.635749 0.746507
Si Si5 0.104907 0.074232 0.496816
Si Si6 0.320630 0.567209 0.490469
O O1 0.751086 0.789832 0.679937
O O2 0.622742 0.788939 0.464051
O O3 0.561171 0.887010 0.606514
O O4 0.790313 0.877564 0.541413
O O5 0.229650 0.675604 0.776047
O O6 0.000000 0.742804 0.750000
O O7 0.500000 0.020196 0.250000
O O8 0.319343 0.067670 0.092603
O O9 0.500000 0.000000 0.000000
O O10 0.500000 0.669723 0.750000
O O11 0.387054 0.583234 0.854052
O O12 0.314023 0.607286 0.612453
O O13 0.954489 0.087826 0.436054
O O14 0.147389 0.004469 0.468918
#
# Coordination Sequence:
#
# PCOD9271784 Si02
#       6
#     8   8   8   8   8   8
#     4  10  22  42  61  93 130 165 221 270 323 390
#     4  10  21  39  67  91 123 177 221 268 321 390
#     4  12  27  42  63  96 135 176 217 277 337 399
#     4   9  19  36  61  91 126 166 216 264 322 386
#     4   9  19  36  59  91 125 164 208 265 318 391
#     4  10  20  36  61  91 126 166 206 259 327 389
#
# _framework density 20.684622999999998
#
# number of rings (size 3 to 8) (size 9 to 14) (size 15 to 20)
#    0.000    2.000    1.667    1.000    2.333    2.667 
#    0.000    2.500    0.000   10.000    0.000    0.000 
#    0.000    0.000    0.000    0.000    0.000    0.000 
#
# Total GULP energy -133786.689138 kJ/mol
# GULP energy per Si atom -5574.445381 kJ/mol
# Density = 2.063754 g / cm^3
# Si number density = 20.684623 Si / 1000 Ang^3
#
#
#
# Elastic Constant Matrix: (Units=GPa)
#
#
# Indices 1 2 3 4 5 6 
#
# 1 144.4493 33.9841 48.4455 0.0000 39.1604 0.0000
# 2 33.9841 45.7482 11.3744 0.0000 7.3255 0.0000
# 3 48.4455 11.3744 66.4618 0.0000 19.7896 0.0000
# 4 0.0000 0.0000 0.0000 8.7125 0.0000 6.3598
# 5 39.1604 7.3255 19.7896 0.0000 31.2280 0.0000
# 6 0.0000 0.0000 0.0000 6.3598 0.0000 8.6785
#
#
#
# Elastic Compliance Matrix: (Units=1/GPa)
#
#
# Indices 1 2 3 4 5 6 
#
# 1 0.013525 -0.006842 -0.005073 0.000000 -0.012141 0.000000
# 2 -0.006842 0.026615 -0.000325 0.000000 0.002542 0.000000
# 3 -0.005073 -0.000325 0.020809 0.000000 -0.006749 0.000000
# 4 0.000000 0.000000 0.000000 0.246801 0.000000 -0.180862
# 5 -0.012141 0.002542 -0.006749 0.000000 0.050929 0.000000
# 6 0.000000 0.000000 0.000000 -0.180862 0.000000 0.247768
#
#
# Mechanical properties :
#
#
# Convention : Reuss Voigt Hill
#
# Bulk Modulus (GPa) = 27.41931 49.36302 38.39116
# Shear Modulus (GPa) = 7.77504 20.58083 14.17793
#
# Velocity S-wave (km/s) = 1.94088 3.15776 2.62092
# Velocity P-wave (km/s) = 4.27871 6.10013 5.26873
#
# Compressibility (1/GPa) = 0.03647065
#
# Stress axis : x y z
#
# Youngs Moduli (GPa) = 73.93507 37.57290 48.05565
#
# Poissons Ratio (x) = 0.25707 0.24378
# Poissons Ratio (y) = 0.50586 0.01560
# Poissons Ratio (z) = 0.37506 0.01220
#
# Static dielectric constant tensor:
#      x y z
#    x 1.761910 0.000000 -0.012250 
#    y 0.000000 1.766090 0.000000 
#    z -0.012250 0.000000 1.774960 
# 
# From -- ./inp_files/79377.got.cif
#   From: 2010.05.17/outbox.cif.g08.bks.cpg/sg15_40_cif.got.tgz:79377.got - 2010.06.03 18:47:42.
