data_PCOD9271945
_publ_section_title
;
Structure prediction by ZEFSAII (Michael W. Deem and Ramdas Pophale) SiO2 
 PCOD9271945
Probable space group: C 2/C
;
_chemical_formula_sum "Si O2"
_cell_formula_units_Z 40
_cell_length_a 11.911598
_cell_length_b 15.295136
_cell_length_c 11.087185
_cell_angle_alpha 90.000000
_cell_angle_beta 64.617755
_cell_angle_gamma 90.000000
_cell_volume 1824.977530
_symmetry_space_group_name_H-M "C 2/C"
_symmetry_group_IT_number 15
_symmetry_cell_setting 'monoclinic'
loop_
_space_group_symop_operation_xyz
x,y,z
-x,y,1/2-z
-x,-y,-z
x,-y,1/2+z
1/2+x,1/2+y,z
1/2-x,1/2+y,1/2-z
1/2-x,1/2-y,-z
1/2+x,1/2-y,1/2+z
loop_
_atom_site_type_symbol
_atom_site_label
_atom_site_fract_x
_atom_site_fract_y
_atom_site_fract_z
Si Si1 0.551619 0.312183 0.106587
Si Si2 0.694961 0.864192 0.558319
Si Si3 0.000000 0.197073 0.250000
Si Si4 0.000000 0.502550 0.250000
Si Si5 0.166400 0.822913 0.472097
Si Si6 0.862313 0.639072 0.695320
O O1 0.500000 0.358804 0.250000
O O2 0.625452 0.226780 0.120152
O O3 0.658214 0.363126 0.983705
O O4 0.435910 0.287496 0.075470
O O5 0.615326 0.937855 0.659415
O O6 0.686668 0.866457 0.416709
O O7 0.086143 0.141367 0.121041
O O8 0.080460 0.266314 0.294298
O O9 0.034665 0.435591 0.340065
O O10 0.250000 0.750000 0.500000
O O11 0.258649 0.878058 0.345957
#
# Coordination Sequence:
#
# PCOD9271945 Si02
#       6
#     8   8   4   4   8   8
#     4  11  21  38  65  95 121 152 207 268 315 350
#     4  11  22  37  62  90 122 159 204 261 305 369
#     4   9  18  34  58  90 121 152 202 252 305 362
#     4  11  24  40  56  88 121 172 212 242 305 384
#     4  10  20  36  62  92 125 157 201 256 312 364
#     4  10  20  37  58  84 124 164 200 249 307 366
#
# _framework density 21.918077
#
# number of rings (size 3 to 8) (size 9 to 14) (size 15 to 20)
#    0.000    1.600    5.000    0.600    0.000    0.000 
#    0.000    1.000    2.200    0.000    0.000    0.000 
#    0.000    0.000    0.000    0.000    0.000    0.000 
#
# Total GULP energy -111501.290786 kJ/mol
# GULP energy per Si atom -5575.064539 kJ/mol
# Density = 2.186819 g / cm^3
# Si number density = 21.918077 Si / 1000 Ang^3
#
#
#
# Elastic Constant Matrix: (Units=GPa)
#
#
# Indices 1 2 3 4 5 6 
#
# 1 124.4119 9.5172 11.7367 0.0000 -0.8454 0.0000
# 2 9.5172 37.9876 3.1167 0.0000 -8.5819 0.0000
# 3 11.7367 3.1167 105.1534 0.0000 -18.5282 0.0000
# 4 0.0000 0.0000 0.0000 5.4836 0.0000 -4.8244
# 5 -0.8454 -8.5819 -18.5282 0.0000 44.9422 0.0000
# 6 0.0000 0.0000 0.0000 -4.8244 0.0000 17.0106
#
#
#
# Elastic Compliance Matrix: (Units=1/GPa)
#
#
# Indices 1 2 3 4 5 6 
#
# 1 0.008290 -0.002145 -0.000977 0.000000 -0.000657 0.000000
# 2 -0.002145 0.028068 0.000372 0.000000 0.005473 0.000000
# 3 -0.000977 0.000372 0.010371 0.000000 0.004328 0.000000
# 4 0.000000 0.000000 0.000000 0.242991 0.000000 0.068915
# 5 -0.000657 0.005473 0.004328 0.000000 0.025068 0.000000
# 6 0.000000 0.000000 0.000000 0.068915 0.000000 0.078332
#
#
# Mechanical properties :
#
#
# Convention : Reuss Voigt Hill
#
# Bulk Modulus (GPa) = 24.25613 35.14378 29.69996
# Shear Modulus (GPa) = 12.12528 29.69944 20.91236
#
# Velocity S-wave (km/s) = 2.35459 3.68505 3.09223
# Velocity P-wave (km/s) = 4.29917 5.84595 5.13118
#
# Compressibility (1/GPa) = 0.04122669
#
# Stress axis : x y z
#
# Youngs Moduli (GPa) = 120.63240 35.62826 96.42641
#
# Poissons Ratio (x) = 0.07642 0.09424
# Poissons Ratio (y) = 0.25876 -0.03585
# Poissons Ratio (z) = 0.11790 -0.01325
#
# Static dielectric constant tensor:
#      x y z
#    x 1.902070 0.000000 -0.049640 
#    y 0.000000 1.768650 0.000000 
#    z -0.049640 0.000000 1.901490 
# 
# From -- ./inp_files/86012.got.cif
#   From: 2010.05.17/outbox.cif.g08.bks.cpg/sg15_44_cif.got.tgz:86012.got - 2010.06.03 18:47:42.
