data_PCOD9271556
_publ_section_title
;
Structure prediction by ZEFSAII (Michael W. Deem and Ramdas Pophale) SiO2 
 PCOD9271556
Probable space group: C 2/C
;
_chemical_formula_sum "Si O2"
_cell_formula_units_Z 36
_cell_length_a 7.787232
_cell_length_b 14.340181
_cell_length_c 21.087639
_cell_angle_alpha 90.000000
_cell_angle_beta 130.358856
_cell_angle_gamma 90.000000
_cell_volume 1794.414149
_symmetry_space_group_name_H-M "C 2/C"
_symmetry_group_IT_number 15
_symmetry_cell_setting 'monoclinic'
loop_
_space_group_symop_operation_xyz
x,y,z
-x,y,1/2-z
-x,-y,-z
x,-y,1/2+z
1/2+x,1/2+y,z
1/2-x,1/2+y,1/2-z
1/2-x,1/2-y,-z
1/2+x,1/2-y,1/2+z
loop_
_atom_site_type_symbol
_atom_site_label
_atom_site_fract_x
_atom_site_fract_y
_atom_site_fract_z
Si Si1 0.810999 0.357677 0.526187
Si Si2 0.669803 0.373104 0.050730
Si Si3 0.238768 0.846134 0.922952
Si Si4 0.022316 0.475372 0.680687
Si Si5 0.500000 0.445215 0.750000
O O1 0.750000 0.250000 0.500000
O O2 0.563493 0.401925 0.470942
O O3 0.002921 0.384094 0.521326
O O4 0.935509 0.383828 0.621766
O O5 0.737400 0.265438 0.079791
O O6 0.863567 0.441630 0.119233
O O7 0.641880 0.372890 0.967987
O O8 0.087521 0.885335 0.830460
O O9 0.278290 0.497569 0.721573
O O10 0.000000 0.462381 0.750000
#
# Coordination Sequence:
#
# PCOD9271556 Si02
#       5
#     8   8   8   8   4
#     4   9  19  37  59  84 111 155 193 235 286 345
#     4  10  20  36  60  86 110 153 196 238 283 345
#     4   9  20  37  59  80 117 153 193 231 290 349
#     4  11  23  36  58  88 120 149 192 245 287 336
#     4  10  22  38  56  82 122 158 184 242 292 346
#
# _framework density 20.062258
#
# number of rings (size 3 to 8) (size 9 to 14) (size 15 to 20)
#    0.000    2.222    0.000    2.000    1.556    5.333 
#    0.000    0.000    2.444    0.000    0.000    0.000 
#    0.000    0.000    0.000    0.000    0.000    0.000 
#
# Total GULP energy -100394.204212 kJ/mol
# GULP energy per Si atom -5577.455790 kJ/mol
# Density = 2.001660 g / cm^3
# Si number density = 20.062258 Si / 1000 Ang^3
#
#
#
# Elastic Constant Matrix: (Units=GPa)
#
#
# Indices 1 2 3 4 5 6 
#
# 1 88.1495 34.2857 32.6228 -0.0001 39.3090 0.0000
# 2 34.2857 70.1127 36.5397 0.0000 6.7206 0.0000
# 3 32.6228 36.5397 72.4629 -0.0001 21.6741 0.0000
# 4 -0.0001 0.0000 -0.0001 11.6716 0.0000 8.7677
# 5 39.3090 6.7206 21.6741 0.0000 40.6071 0.0000
# 6 0.0000 0.0000 0.0000 8.7677 0.0000 19.3682
#
#
#
# Elastic Compliance Matrix: (Units=1/GPa)
#
#
# Indices 1 2 3 4 5 6 
#
# 1 0.025737 -0.010804 0.000926 0.000000 -0.023621 0.000000
# 2 -0.010804 0.024079 -0.010965 0.000000 0.012326 0.000000
# 3 0.000926 -0.010965 0.022178 0.000000 -0.010920 0.000000
# 4 0.000000 0.000000 0.000000 0.129826 0.000000 -0.058770
# 5 -0.023621 0.012326 -0.010920 0.000000 0.051280 0.000000
# 6 0.000000 0.000000 0.000000 -0.058770 0.000000 0.078235
#
#
# Mechanical properties :
#
#
# Convention : Reuss Voigt Hill
#
# Bulk Modulus (GPa) = 32.99328 48.62460 40.80894
# Shear Modulus (GPa) = 13.05060 22.81452 17.93256
#
# Velocity S-wave (km/s) = 2.55327 3.37588 2.99297
# Velocity P-wave (km/s) = 5.01731 6.28370 5.68587
#
# Compressibility (1/GPa) = 0.03030920
#
# Stress axis : x y z
#
# Youngs Moduli (GPa) = 38.85418 41.53001 45.08920
#
# Poissons Ratio (x) = 0.44871 -0.04177
# Poissons Ratio (y) = 0.41980 0.49439
# Poissons Ratio (z) = -0.03599 0.45536
#
# Static dielectric constant tensor:
#      x y z
#    x 1.760350 0.000000 0.020860 
#    y 0.000000 1.722780 0.000000 
#    z 0.020860 0.000000 1.664230 
# 
# From -- ./inp_files/132673.got.cif
#   From: 2010.05.17/outbox.cif.g08.bks.cpg/sg15_67_cif.got.tgz:132673.got - 2010.06.03 18:47:42.
