data_PCOD9271050
_publ_section_title
;
Structure prediction by ZEFSAII (Michael W. Deem and Ramdas Pophale) SiO2 
 PCOD9271050
Probable space group: C 2/C
;
_chemical_formula_sum "Si O2"
_cell_formula_units_Z 28
_cell_length_a 13.122886
_cell_length_b 22.866137
_cell_length_c 5.120318
_cell_angle_alpha 90.000000
_cell_angle_beta 115.146675
_cell_angle_gamma 90.000000
_cell_volume 1390.831886
_symmetry_space_group_name_H-M "C 2/C"
_symmetry_group_IT_number 15
_symmetry_cell_setting 'monoclinic'
loop_
_space_group_symop_operation_xyz
x,y,z
-x,y,1/2-z
-x,-y,-z
x,-y,1/2+z
1/2+x,1/2+y,z
1/2-x,1/2+y,1/2-z
1/2-x,1/2-y,-z
1/2+x,1/2-y,1/2+z
loop_
_atom_site_type_symbol
_atom_site_label
_atom_site_fract_x
_atom_site_fract_y
_atom_site_fract_z
Si Si1 0.359138 0.218848 0.495118
Si Si2 0.569428 0.654608 0.568477
Si Si3 0.000000 0.458624 0.750000
Si Si4 0.828813 0.357201 0.445454
O O1 0.250000 0.250000 0.500000
O O2 0.428198 0.274638 0.465840
O O3 0.391919 0.176073 0.772907
O O4 0.329165 0.182430 0.205395
O O5 0.500000 0.640781 0.750000
O O6 0.698795 0.634300 0.722497
O O7 0.500000 0.630177 0.250000
O O8 0.000000 0.500000 0.500000
O O9 0.894017 0.415520 0.595177
#
# Coordination Sequence:
#
# PCOD9271050 Si02
#       4
#     8   8   4   8
#     4  10  20  36  56  92 131 169 197 229 303 394
#     4  11  21  34  59  95 133 162 193 237 310 401
#     4  12  28  48  68  86 112 168 234 282 306 340
#     4  11  23  41  61  87 124 166 211 260 310 355
#
# _framework density 20.131834999999999
#
# number of rings (size 3 to 8) (size 9 to 14) (size 15 to 20)
#    0.000    1.143    0.000   10.286    6.000    0.000 
#    0.000    0.000    0.000    5.143    0.000    0.000 
#    0.000    0.000    0.000    0.000    0.000    0.000 
#
# Total GULP energy -78209.212362 kJ/mol
# GULP energy per Si atom -5586.372312 kJ/mol
# Density = 2.008601 g / cm^3
# Si number density = 20.131835 Si / 1000 Ang^3
#
#
#
# Elastic Constant Matrix: (Units=GPa)
#
#
# Indices 1 2 3 4 5 6 
#
# 1 115.3434 40.4710 74.3402 0.0000 -2.1067 0.0000
# 2 40.4710 89.1181 63.2249 0.0000 11.4065 0.0000
# 3 74.3402 63.2249 190.1259 0.0000 -7.2810 0.0000
# 4 0.0000 0.0000 0.0000 113.2020 0.0000 -14.7592
# 5 -2.1067 11.4065 -7.2810 0.0000 54.0613 0.0000
# 6 0.0000 0.0000 0.0000 -14.7592 0.0000 21.5685
#
#
#
# Elastic Compliance Matrix: (Units=1/GPa)
#
#
# Indices 1 2 3 4 5 6 
#
# 1 0.012119 -0.002922 -0.003745 0.000000 0.000584 0.000000
# 2 -0.002922 0.016199 -0.004402 0.000000 -0.004125 0.000000
# 3 -0.003745 -0.004402 0.008260 0.000000 0.001895 0.000000
# 4 0.000000 0.000000 0.000000 0.009699 0.000000 0.006637
# 5 0.000584 -0.004125 0.001895 0.000000 0.019646 0.000000
# 6 0.000000 0.000000 0.000000 0.006637 0.000000 0.050905
#
#
# Mechanical properties :
#
#
# Convention : Reuss Voigt Hill
#
# Bulk Modulus (GPa) = 69.24738 83.40662 76.32700
# Shear Modulus (GPa) = 34.77526 52.20313 43.48920
#
# Velocity S-wave (km/s) = 4.16068 5.09774 4.65286
# Velocity P-wave (km/s) = 7.58639 8.72751 8.17688
#
# Compressibility (1/GPa) = 0.01444098
#
# Stress axis : x y z
#
# Youngs Moduli (GPa) = 82.51459 61.73161 121.05927
#
# Poissons Ratio (x) = 0.18037 0.45332
# Poissons Ratio (y) = 0.24109 0.53295
# Poissons Ratio (z) = 0.30899 0.27177
#
# Static dielectric constant tensor:
#      x y z
#    x 1.785380 0.000000 0.077790 
#    y 0.000000 1.693030 0.000000 
#    z 0.077790 0.000000 1.870110 
# 
# From -- ./inp_files/6593.got.cif
#   From: 2010.05.17/outbox.cif.g08.bks.cpg/sg15_4_cif.got.tgz:6593.got - 2010.06.03 18:47:42.
