data_PCOD9271708
_publ_section_title
;
Structure prediction by ZEFSAII (Michael W. Deem and Ramdas Pophale) SiO2 
 PCOD9271708
Probable space group: C 2/C
;
_chemical_formula_sum "Si O2"
_cell_formula_units_Z 52
_cell_length_a 8.474243
_cell_length_b 21.719685
_cell_length_c 17.145406
_cell_angle_alpha 90.000000
_cell_angle_beta 127.341231
_cell_angle_gamma 90.000000
_cell_volume 2508.936425
_symmetry_space_group_name_H-M "C 2/C"
_symmetry_group_IT_number 15
_symmetry_cell_setting 'monoclinic'
loop_
_space_group_symop_operation_xyz
x,y,z
-x,y,1/2-z
-x,-y,-z
x,-y,1/2+z
1/2+x,1/2+y,z
1/2-x,1/2+y,1/2-z
1/2-x,1/2-y,-z
1/2+x,1/2-y,1/2+z
loop_
_atom_site_type_symbol
_atom_site_label
_atom_site_fract_x
_atom_site_fract_y
_atom_site_fract_z
Si Si1 0.500000 0.753587 0.750000
Si Si2 0.313454 0.653995 0.390074
Si Si3 0.500000 0.947965 0.750000
Si Si4 0.954003 0.179029 0.894203
Si Si5 0.585964 0.544833 0.458384
Si Si6 0.897684 0.060742 0.640107
Si Si7 0.500000 0.843833 0.250000
Si Si8 0.957598 0.551568 0.862218
O O1 0.304032 0.796506 0.696454
O O2 0.507960 0.714677 0.831420
O O3 0.151935 0.597204 0.341985
O O4 0.398433 0.692188 0.489591
O O5 0.503908 0.613423 0.424763
O O6 0.411190 0.994118 0.789662
O O7 0.715200 0.186596 0.835793
O O8 0.018853 0.107880 0.898206
O O9 0.500000 0.500000 0.500000
O O10 0.546893 0.507366 0.368335
O O11 0.816186 0.546012 0.546102
O O12 0.669509 0.058987 0.597381
O O13 0.000000 0.079690 0.750000
O O14 0.561036 0.887662 0.196296
#
# Coordination Sequence:
#
# PCOD9271708 Si02
#       8
#     4   8   4   8   8   8   4   8
#     4  11  26  45  68  94 129 170 239 284 316 385
#     4  11  23  40  67  93 130 177 222 267 339 397
#     4  10  20  36  60  96 138 176 210 258 334 409
#     4  12  22  44  68  91 124 176 228 277 326 396
#     4  12  21  38  62  94 137 174 213 264 342 411
#     4  12  22  35  61 100 131 165 221 272 324 396
#     4  11  20  37  68  94 123 170 221 270 332 394
#     4  11  20  34  59  98 136 169 208 264 329 404
#
# _framework density 20.725914
#
# number of rings (size 3 to 8) (size 9 to 14) (size 15 to 20)
#    0.000    0.615    6.923    1.846    0.000    0.000 
#    0.000    0.769   11.846    0.000    0.000    0.000 
#    0.000    0.000    0.000    0.000    0.000    0.000 
#
# Total GULP energy -144748.448560 kJ/mol
# GULP energy per Si atom -5567.248022 kJ/mol
# Density = 2.067874 g / cm^3
# Si number density = 20.725914 Si / 1000 Ang^3
#
#
#
# Elastic Constant Matrix: (Units=GPa)
#
#
# Indices 1 2 3 4 5 6 
#
# 1 75.7490 7.3111 25.4661 0.0000 26.0178 0.0000
# 2 7.3111 65.2078 24.7824 0.0000 0.7279 0.0000
# 3 25.4661 24.7824 95.6636 0.0000 32.0331 0.0000
# 4 0.0000 0.0000 0.0000 37.5254 0.0000 -6.1316
# 5 26.0178 0.7279 32.0331 0.0000 36.5222 0.0000
# 6 0.0000 0.0000 0.0000 -6.1316 0.0000 20.1092
#
#
#
# Elastic Compliance Matrix: (Units=1/GPa)
#
#
# Indices 1 2 3 4 5 6 
#
# 1 0.017697 -0.001829 -0.000039 0.000000 -0.012536 0.000000
# 2 -0.001829 0.017868 -0.006313 0.000000 0.006484 0.000000
# 3 -0.000039 -0.006313 0.017057 0.000000 -0.014807 0.000000
# 4 0.000000 0.000000 0.000000 0.028046 0.000000 0.008552
# 5 -0.012536 0.006484 -0.014807 0.000000 0.049169 0.000000
# 6 0.000000 0.000000 0.000000 0.008552 0.000000 0.052336
#
#
# Mechanical properties :
#
#
# Convention : Reuss Voigt Hill
#
# Bulk Modulus (GPa) = 27.57961 39.08217 33.33089
# Shear Modulus (GPa) = 23.73915 30.76872 27.25394
#
# Velocity S-wave (km/s) = 3.38803 3.85717 3.63018
# Velocity P-wave (km/s) = 5.35170 6.22371 5.80411
#
# Compressibility (1/GPa) = 0.03625867
#
# Stress axis : x y z
#
# Youngs Moduli (GPa) = 56.50628 55.96733 58.62585
#
# Poissons Ratio (x) = 0.10238 0.00231
# Poissons Ratio (y) = 0.10337 0.37010
# Poissons Ratio (z) = 0.00223 0.35332
#
# Static dielectric constant tensor:
#      x y z
#    x 2.029380 0.000000 -0.023670 
#    y 0.000000 1.732740 0.000000 
#    z -0.023670 0.000000 1.797830 
# 
# From -- ./inp_files/136167.got.cif
#   From: 2010.05.17/outbox.cif.g08.bks.cpg/sg15_69_cif.got.tgz:136167.got - 2010.06.03 18:47:42.
