data_PCOD9271764
_publ_section_title
;
Structure prediction by ZEFSAII (Michael W. Deem and Ramdas Pophale) SiO2 
 PCOD9271764
Probable space group: C 2/C
;
_chemical_formula_sum "Si O2"
_cell_formula_units_Z 48
_cell_length_a 10.633854
_cell_length_b 18.518794
_cell_length_c 10.994698
_cell_angle_alpha 90.000000
_cell_angle_beta 75.662298
_cell_angle_gamma 90.000000
_cell_volume 2097.705818
_symmetry_space_group_name_H-M "C 2/C"
_symmetry_group_IT_number 15
_symmetry_cell_setting 'monoclinic'
loop_
_space_group_symop_operation_xyz
x,y,z
-x,y,1/2-z
-x,-y,-z
x,-y,1/2+z
1/2+x,1/2+y,z
1/2-x,1/2+y,1/2-z
1/2-x,1/2-y,-z
1/2+x,1/2-y,1/2+z
loop_
_atom_site_type_symbol
_atom_site_label
_atom_site_fract_x
_atom_site_fract_y
_atom_site_fract_z
Si Si1 0.368521 0.645977 0.355897
Si Si2 0.887778 0.586619 0.088339
Si Si3 0.825734 0.434915 0.991088
Si Si4 0.353071 0.358807 0.280701
Si Si5 0.629602 0.535193 0.924123
Si Si6 0.632312 0.813199 0.145915
O O1 0.500000 0.631947 0.250000
O O2 0.236792 0.622710 0.316736
O O3 0.365055 0.599835 0.479346
O O4 0.366180 0.729715 0.392949
O O5 0.862581 0.500493 0.076961
O O6 0.881661 0.630557 0.961137
O O7 0.037694 0.594996 0.090541
O O8 0.728338 0.377385 0.077762
O O9 0.746726 0.480218 0.911531
O O10 0.500000 0.326204 0.250000
O O11 0.377087 0.435346 0.208923
O O12 0.251782 0.322137 0.211639
O O13 0.500000 0.500000 0.000000
O O14 0.500000 0.824837 0.250000
#
# Coordination Sequence:
#
# PCOD9271764 Si02
#       6
#     8   8   8   8   8   8
#     4  10  23  39  66  91 121 167 214 256 308 388
#     4  10  20  36  61  89 125 160 205 267 309 371
#     4  10  21  36  58  95 126 159 207 264 319 363
#     4  12  23  37  63  92 128 165 211 268 309 377
#     4  11  23  38  64  93 123 167 208 261 321 372
#     4  11  21  40  66  93 122 168 216 255 314 386
#
# _framework density 22.88214
#
# number of rings (size 3 to 8) (size 9 to 14) (size 15 to 20)
#    0.000    1.333    6.667    0.500    4.667    0.000 
#    0.000    0.000    7.333    6.000    0.000    0.000 
#    0.000    0.000    0.000    0.000    0.000    0.000 
#
# Total GULP energy -133850.786314 kJ/mol
# GULP energy per Si atom -5577.116096 kJ/mol
# Density = 2.283006 g / cm^3
# Si number density = 22.882140 Si / 1000 Ang^3
#
#
#
# Elastic Constant Matrix: (Units=GPa)
#
#
# Indices 1 2 3 4 5 6 
#
# 1 207.9426 30.4852 33.6201 0.0000 -29.3878 0.0000
# 2 30.4852 69.4359 17.8952 0.0000 -5.0444 0.0000
# 3 33.6201 17.8952 58.3584 0.0000 -17.7525 0.0000
# 4 0.0000 0.0000 0.0000 19.4483 0.0000 -5.0580
# 5 -29.3878 -5.0444 -17.7525 0.0000 45.0673 0.0000
# 6 0.0000 0.0000 0.0000 -5.0580 0.0000 33.9953
#
#
#
# Elastic Compliance Matrix: (Units=1/GPa)
#
#
# Indices 1 2 3 4 5 6 
#
# 1 0.005786 -0.001843 -0.001912 0.000000 0.002813 0.000000
# 2 -0.001843 0.016226 -0.004234 0.000000 -0.001054 0.000000
# 3 -0.001912 -0.004234 0.021600 0.000000 0.006788 0.000000
# 4 0.000000 0.000000 0.000000 0.053488 0.000000 0.007958
# 5 0.002813 -0.001054 0.006788 0.000000 0.026579 0.000000
# 6 0.000000 0.000000 0.000000 0.007958 0.000000 0.030600
#
#
# Mechanical properties :
#
#
# Convention : Reuss Voigt Hill
#
# Bulk Modulus (GPa) = 36.18877 55.52645 45.85761
# Shear Modulus (GPa) = 27.85986 36.61792 32.23889
#
# Velocity S-wave (km/s) = 3.49311 4.00469 3.75762
# Velocity P-wave (km/s) = 5.66734 6.76036 6.23783
#
# Compressibility (1/GPa) = 0.02763288
#
# Stress axis : x y z
#
# Youngs Moduli (GPa) = 172.83064 61.63074 46.29548
#
# Poissons Ratio (x) = 0.11359 0.08853
# Poissons Ratio (y) = 0.31854 0.19602
# Poissons Ratio (z) = 0.33051 0.26096
#
# Static dielectric constant tensor:
#      x y z
#    x 2.037690 0.000000 -0.039360 
#    y 0.000000 1.948960 0.000000 
#    z -0.039360 0.000000 1.858490 
# 
# From -- ./inp_files/87254.got.cif
#   From: 2010.05.17/outbox.cif.g08.bks.cpg/sg15_44_cif.got.tgz:87254.got - 2010.06.03 18:47:42.
