data_PCOD9271371
_publ_section_title
;
Structure prediction by ZEFSAII (Michael W. Deem and Ramdas Pophale) SiO2 
 PCOD9271371
Probable space group: C 2/C
;
_chemical_formula_sum "Si O2"
_cell_formula_units_Z 56
_cell_length_a 19.398181
_cell_length_b 6.633924
_cell_length_c 26.362135
_cell_angle_alpha 90.000000
_cell_angle_beta 114.215115
_cell_angle_gamma 90.000000
_cell_volume 3093.945112
_symmetry_space_group_name_H-M "C 2/C"
_symmetry_group_IT_number 15
_symmetry_cell_setting 'monoclinic'
loop_
_space_group_symop_operation_xyz
x,y,z
-x,y,1/2-z
-x,-y,-z
x,-y,1/2+z
1/2+x,1/2+y,z
1/2-x,1/2+y,1/2-z
1/2-x,1/2-y,-z
1/2+x,1/2-y,1/2+z
loop_
_atom_site_type_symbol
_atom_site_label
_atom_site_fract_x
_atom_site_fract_y
_atom_site_fract_z
Si Si1 0.839318 0.349500 0.774954
Si Si2 0.799448 0.702711 0.828208
Si Si3 0.428537 0.461375 0.824004
Si Si4 0.914820 0.659256 0.726472
Si Si5 0.192813 0.436460 0.474948
Si Si6 0.265343 0.316731 0.079437
Si Si7 0.600475 0.356342 0.886914
O O1 0.830204 0.484216 0.822085
O O2 0.761167 0.248842 0.734486
O O3 0.861905 0.491725 0.734769
O O4 0.903155 0.186365 0.804844
O O5 0.868175 0.860278 0.844023
O O6 0.758631 0.702022 0.869675
O O7 0.418557 0.339088 0.768413
O O8 0.515170 0.435831 0.866266
O O9 0.891953 0.746775 0.665454
O O10 0.000000 0.574908 0.750000
O O11 0.250000 0.250000 0.500000
O O12 0.198867 0.570383 0.527614
O O13 0.218632 0.597721 0.440029
O O14 0.119030 0.317002 0.433804
O O15 0.339211 0.459983 0.094377
#
# Coordination Sequence:
#
# PCOD9271371 Si02
#       7
#     8   8   8   8   8   8   8
#     4  11  21  34  53  77 117 152 188 225 277 351
#     4  11  22  35  55  82 116 153 190 229 285 346
#     4  10  22  36  50  82 120 151 186 235 287 348
#     4   9  20  34  53  83 113 147 186 227 284 347
#     4   9  20  39  60  87 110 140 196 249 292 344
#     4  10  21  36  63  86 108 147 193 242 293 344
#     4  10  20  36  59  82 115 147 193 246 294 339
#
# _framework density 18.099869999999999
#
# number of rings (size 3 to 8) (size 9 to 14) (size 15 to 20)
#    0.000    2.000    1.429    1.714    2.000    8.571 
#    0.000    0.714    0.000    8.571    0.000    0.000 
#    0.000    0.000    0.000    0.000    0.000    0.000 
#
# Total GULP energy -156142.353626 kJ/mol
# GULP energy per Si atom -5576.512629 kJ/mol
# Density = 1.805867 g / cm^3
# Si number density = 18.099870 Si / 1000 Ang^3
#
#
#
# Elastic Constant Matrix: (Units=GPa)
#
#
# Indices 1 2 3 4 5 6 
#
# 1 48.6484 42.4801 29.6478 0.0000 10.8249 0.0000
# 2 42.4801 103.8600 39.3020 0.0000 12.7746 0.0000
# 3 29.6478 39.3020 67.7287 0.0000 11.8939 0.0000
# 4 0.0000 0.0000 0.0000 17.6692 0.0000 15.9953
# 5 10.8249 12.7746 11.8939 0.0000 23.0552 0.0000
# 6 0.0000 0.0000 0.0000 15.9953 0.0000 -4.9633
#
#
#
# Elastic Compliance Matrix: (Units=1/GPa)
#
#
# Indices 1 2 3 4 5 6 
#
# 1 0.036914 -0.011018 -0.008570 0.000000 -0.006806 0.000000
# 2 -0.011018 0.015882 -0.004130 0.000000 -0.001496 0.000000
# 3 -0.008570 -0.004130 0.021777 0.000000 -0.004922 0.000000
# 4 0.000000 0.000000 0.000000 0.014447 0.000000 0.046559
# 5 -0.006806 -0.001496 -0.004922 0.000000 0.049938 0.000000
# 6 0.000000 0.000000 0.000000 0.046559 0.000000 -0.051431
#
#
# Mechanical properties :
#
#
# Convention : Reuss Voigt Hill
#
# Bulk Modulus (GPa) = 36.85073 49.23299 43.04186
# Shear Modulus (GPa) = 34.71998 14.40603 24.56300
#
# Velocity S-wave (km/s) = 4.38453 2.82426 3.68786
# Velocity P-wave (km/s) = 6.78498 6.15590 6.47808
#
# Compressibility (1/GPa) = 0.02713651
#
# Stress axis : x y z
#
# Youngs Moduli (GPa) = 27.08992 62.96484 45.91932
#
# Poissons Ratio (x) = 0.69376 0.39353
# Poissons Ratio (y) = 0.29848 0.18965
# Poissons Ratio (z) = 0.23216 0.26005
#
# Static dielectric constant tensor:
#      x y z
#    x 1.616020 0.000000 0.014290 
#    y 0.000000 1.627560 0.000000 
#    z 0.014290 0.000000 1.630190 
# 
# From -- ./inp_files/278975.got.cif
#   From: 2010.05.17/outbox.cif.g08.bks.cpg/sg15_140_cif.got.tgz:278975.got - 2010.06.03 18:47:42.
