data_PCOD9271812
_publ_section_title
;
Structure prediction by ZEFSAII (Michael W. Deem and Ramdas Pophale) SiO2 
 PCOD9271812
Probable space group: C 2/C
;
_chemical_formula_sum "Si O2"
_cell_formula_units_Z 64
_cell_length_a 17.417173
_cell_length_b 9.584741
_cell_length_c 22.722228
_cell_angle_alpha 90.000000
_cell_angle_beta 127.935676
_cell_angle_gamma 90.000000
_cell_volume 2991.724471
_symmetry_space_group_name_H-M "C 2/C"
_symmetry_group_IT_number 15
_symmetry_cell_setting 'monoclinic'
loop_
_space_group_symop_operation_xyz
x,y,z
-x,y,1/2-z
-x,-y,-z
x,-y,1/2+z
1/2+x,1/2+y,z
1/2-x,1/2+y,1/2-z
1/2-x,1/2-y,-z
1/2+x,1/2-y,1/2+z
loop_
_atom_site_type_symbol
_atom_site_label
_atom_site_fract_x
_atom_site_fract_y
_atom_site_fract_z
Si Si1 0.205407 0.400005 0.421394
Si Si2 0.686844 0.563098 0.824822
Si Si3 0.261294 0.692029 0.439895
Si Si4 0.811352 0.882721 0.350761
Si Si5 0.284381 0.894131 0.770375
Si Si6 0.874154 0.875660 0.596308
Si Si7 0.533774 0.606775 0.928884
Si Si8 0.537182 0.781266 0.704340
O O1 0.187846 0.561605 0.399672
O O2 0.266178 0.351040 0.392989
O O3 0.119479 0.289861 0.390971
O O4 0.274518 0.397964 0.511625
O O5 0.740196 0.685356 0.885269
O O6 0.760326 0.484387 0.816472
O O7 0.639499 0.456106 0.848845
O O8 0.602540 0.643309 0.749697
O O9 0.250000 0.750000 0.500000
O O10 0.371677 0.633147 0.486634
O O11 0.770185 0.764949 0.286183
O O12 0.928380 0.874133 0.407689
O O13 0.780482 0.034026 0.310905
O O14 0.393224 0.890872 0.795451
O O15 0.954375 0.955068 0.595550
O O16 0.538758 0.719721 0.878078
O O17 0.500000 0.828562 0.750000
#
# Coordination Sequence:
#
# PCOD9271812 Si02
#       8
#     8   8   8   8   8   8   8   8
#     4  10  21  36  62  88 125 165 208 262 323 392
#     4  12  20  39  66  92 127 175 219 267 334 403
#     4  11  21  38  63  94 126 172 223 262 331 402
#     4  11  23  41  66  91 131 174 221 270 338 398
#     4  11  23  39  66  96 124 173 221 268 339 400
#     4  10  20  36  61  95 122 161 217 261 321 390
#     4  10  21  38  64  97 124 168 224 265 322 405
#     4  11  21  40  70  94 125 173 228 268 323 405
#
# _framework density 21.392344999999999
#
# number of rings (size 3 to 8) (size 9 to 14) (size 15 to 20)
#    0.000    1.250    7.500    0.750    0.000    2.000 
#    0.000    2.500   11.000    0.000    0.000    0.000 
#    0.000    0.000    0.000    0.000    0.000    0.000 
#
# Total GULP energy -178654.483335 kJ/mol
# GULP energy per Si atom -5582.952604 kJ/mol
# Density = 2.134366 g / cm^3
# Si number density = 21.392345 Si / 1000 Ang^3
#
#
#
# Elastic Constant Matrix: (Units=GPa)
#
#
# Indices 1 2 3 4 5 6 
#
# 1 62.4382 27.3557 0.7759 0.0000 -6.8147 0.0000
# 2 27.3557 86.2071 17.9843 0.0000 9.3622 0.0000
# 3 0.7759 17.9843 58.6794 0.0000 3.3596 0.0000
# 4 0.0000 0.0000 0.0000 38.2290 0.0000 -6.7179
# 5 -6.8147 9.3622 3.3596 0.0000 31.3705 0.0000
# 6 0.0000 0.0000 0.0000 -6.7179 0.0000 46.4752
#
#
#
# Elastic Compliance Matrix: (Units=1/GPa)
#
#
# Indices 1 2 3 4 5 6 
#
# 1 0.019905 -0.007344 0.001625 0.000000 0.006342 0.000000
# 2 -0.007344 0.015454 -0.004310 0.000000 -0.005746 0.000000
# 3 0.001625 -0.004310 0.018360 0.000000 -0.000327 0.000000
# 4 0.000000 0.000000 0.000000 0.026840 0.000000 0.003880
# 5 0.006342 -0.005746 -0.000327 0.000000 0.035005 0.000000
# 6 0.000000 0.000000 0.000000 0.003880 0.000000 0.022078
#
#
# Mechanical properties :
#
#
# Convention : Reuss Voigt Hill
#
# Bulk Modulus (GPa) = 29.70930 33.28406 31.49668
# Shear Modulus (GPa) = 29.59968 33.96219 31.78094
#
# Velocity S-wave (km/s) = 3.72379 3.98878 3.85856
# Velocity P-wave (km/s) = 5.69270 6.06683 5.88274
#
# Compressibility (1/GPa) = 0.03365949
#
# Stress axis : x y z
#
# Youngs Moduli (GPa) = 50.23739 64.70964 54.46621
#
# Poissons Ratio (x) = 0.47524 -0.08848
# Poissons Ratio (y) = 0.36895 0.23476
# Poissons Ratio (z) = -0.08161 0.27891
#
# Static dielectric constant tensor:
#      x y z
#    x 1.798580 0.000000 -0.003190 
#    y 0.000000 1.809040 0.000000 
#    z -0.003190 0.000000 1.801850 
# 
# From -- ./inp_files/279586.got.cif
#   From: 2010.05.17/outbox.cif.g08.bks.cpg/sg15_140_cif.got.tgz:279586.got - 2010.06.03 18:47:42.
