data_PCOD9271408
_publ_section_title
;
Structure prediction by ZEFSAII (Michael W. Deem and Ramdas Pophale) SiO2 
 PCOD9271408
Probable space group: C 2/C
;
_chemical_formula_sum "Si O2"
_cell_formula_units_Z 48
_cell_length_a 15.745677
_cell_length_b 10.473207
_cell_length_c 13.448121
_cell_angle_alpha 90.000000
_cell_angle_beta 95.196474
_cell_angle_gamma 90.000000
_cell_volume 2208.584368
_symmetry_space_group_name_H-M "C 2/C"
_symmetry_group_IT_number 15
_symmetry_cell_setting 'monoclinic'
loop_
_space_group_symop_operation_xyz
x,y,z
-x,y,1/2-z
-x,-y,-z
x,-y,1/2+z
1/2+x,1/2+y,z
1/2-x,1/2+y,1/2-z
1/2-x,1/2-y,-z
1/2+x,1/2-y,1/2+z
loop_
_atom_site_type_symbol
_atom_site_label
_atom_site_fract_x
_atom_site_fract_y
_atom_site_fract_z
Si Si1 0.582078 0.503593 0.862040
Si Si2 0.281802 0.279004 0.652661
Si Si3 0.154058 0.378555 0.026362
Si Si4 0.878495 0.339481 0.002726
Si Si5 0.461562 0.341903 0.945959
Si Si6 0.809870 0.786403 0.156350
O O1 0.655057 0.399210 0.851154
O O2 0.577178 0.565751 0.973553
O O3 0.609180 0.627731 0.802576
O O4 0.492951 0.426721 0.856915
O O5 0.197516 0.294090 0.576683
O O6 0.338280 0.166470 0.609607
O O7 0.245382 0.259126 0.757640
O O8 0.107203 0.513535 0.023975
O O9 0.161530 0.326049 0.914541
O O10 0.105281 0.268796 0.082070
O O11 0.248268 0.377360 0.082976
O O12 0.956731 0.240325 0.006190
#
# Coordination Sequence:
#
# PCOD9271408 Si02
#       6
#     8   8   8   8   8   8
#     4   9  18  38  57  79 118 148 191 236 270 343
#     4  10  21  36  58  86 113 154 192 236 284 336
#     4  10  20  36  59  85 116 150 190 237 286 339
#     4  10  20  36  59  85 116 150 190 237 286 339
#     4   9  19  36  60  86 117 153 186 232 292 341
#     4  10  21  36  58  86 113 154 192 236 284 336
#
# _framework density 21.73338
#
# number of rings (size 3 to 8) (size 9 to 14) (size 15 to 20)
#    0.000    2.333    1.667    0.500    2.333    0.000 
#    0.000    8.333    0.000   10.000    0.000    0.000 
#    0.000    0.000    0.000    0.000    0.000    0.000 
#
# Total GULP energy -133730.383445 kJ/mol
# GULP energy per Si atom -5572.099310 kJ/mol
# Density = 2.168391 g / cm^3
# Si number density = 21.733380 Si / 1000 Ang^3
#
#
#
# Elastic Constant Matrix: (Units=GPa)
#
#
# Indices 1 2 3 4 5 6 
#
# 1 96.7547 28.1528 36.0725 0.0000 -27.5548 0.0000
# 2 28.1528 102.1547 29.3245 0.0000 -18.8156 0.0000
# 3 36.0725 29.3245 67.1706 0.0000 -23.4187 0.0000
# 4 0.0000 0.0000 0.0000 13.1383 0.0000 -9.3106
# 5 -27.5548 -18.8156 -23.4187 0.0000 29.9164 0.0000
# 6 0.0000 0.0000 0.0000 -9.3106 0.0000 48.1099
#
#
#
# Elastic Compliance Matrix: (Units=1/GPa)
#
#
# Indices 1 2 3 4 5 6 
#
# 1 0.015020 -0.001134 -0.004121 0.000000 0.009895 0.000000
# 2 -0.001134 0.011719 -0.003166 0.000000 0.003848 0.000000
# 3 -0.004121 -0.003166 0.022646 0.000000 0.011940 0.000000
# 4 0.000000 0.000000 0.000000 0.088211 0.000000 0.017071
# 5 0.009895 0.003848 0.011940 0.000000 0.054307 0.000000
# 6 0.000000 0.000000 0.000000 0.017071 0.000000 0.024090
#
#
# Mechanical properties :
#
#
# Convention : Reuss Voigt Hill
#
# Bulk Modulus (GPa) = 30.72843 50.35328 40.54085
# Shear Modulus (GPa) = 20.51856 29.73493 25.12675
#
# Velocity S-wave (km/s) = 3.07596 3.70289 3.40389
# Velocity P-wave (km/s) = 5.17541 6.44211 5.84319
#
# Compressibility (1/GPa) = 0.03254315
#
# Stress axis : x y z
#
# Youngs Moduli (GPa) = 66.57884 85.33113 44.15870
#
# Poissons Ratio (x) = 0.09674 0.18199
# Poissons Ratio (y) = 0.07548 0.13979
# Poissons Ratio (z) = 0.27439 0.27013
#
# Static dielectric constant tensor:
#      x y z
#    x 1.839370 0.000000 0.001370 
#    y 0.000000 1.818150 0.000000 
#    z 0.001370 0.000000 1.798800 
# 
# From -- ./inp_files/152048.got.cif
#   From: 2010.05.17/outbox.cif.g08.bks.cpg/sg15_77_cif.got.tgz:152048.got - 2010.06.03 18:47:42.
