data_PCOD9271759
_publ_section_title
;
Structure prediction by ZEFSAII (Michael W. Deem and Ramdas Pophale) SiO2 
 PCOD9271759
Probable space group: C 2/C
;
_chemical_formula_sum "Si O2"
_cell_formula_units_Z 64
_cell_length_a 18.578191
_cell_length_b 5.182930
_cell_length_c 27.153136
_cell_angle_alpha 90.000000
_cell_angle_beta 77.804481
_cell_angle_gamma 90.000000
_cell_volume 2555.556581
_symmetry_space_group_name_H-M "C 2/C"
_symmetry_group_IT_number 15
_symmetry_cell_setting 'monoclinic'
loop_
_space_group_symop_operation_xyz
x,y,z
-x,y,1/2-z
-x,-y,-z
x,-y,1/2+z
1/2+x,1/2+y,z
1/2-x,1/2+y,1/2-z
1/2-x,1/2-y,-z
1/2+x,1/2-y,1/2+z
loop_
_atom_site_type_symbol
_atom_site_label
_atom_site_fract_x
_atom_site_fract_y
_atom_site_fract_z
Si Si1 0.137519 0.837431 0.121500
Si Si2 0.662312 0.286473 0.791456
Si Si3 0.605681 0.215743 0.355380
Si Si4 0.681535 0.032804 0.196176
Si Si5 0.692641 0.966523 0.524396
Si Si6 0.481672 0.496309 0.420931
Si Si7 0.259824 0.216761 0.098082
Si Si8 0.433985 0.192231 0.519635
O O1 0.221319 0.941644 0.110260
O O2 0.082052 0.058085 0.109451
O O3 0.124026 0.721812 0.177333
O O4 0.139192 0.634699 0.076346
O O5 0.627648 0.056086 0.828743
O O6 0.651853 0.181618 0.737753
O O7 0.626638 0.556727 0.813538
O O8 0.750730 0.316146 0.787435
O O9 0.524166 0.264239 0.387211
O O10 0.657896 0.243946 0.395309
O O11 0.717758 0.887541 0.144942
O O12 0.750000 0.750000 0.500000
O O13 0.738480 0.183631 0.547241
O O14 0.638826 0.965649 0.484849
O O15 0.441140 0.421283 0.477942
O O16 0.546249 0.688868 0.429962
O O17 0.500000 0.000000 0.500000
#
# Coordination Sequence:
#
# PCOD9271759 Si02
#       8
#     8   8   8   8   8   8   8   8
#     4  10  21  39  61  87 124 172 211 262 332 391
#     4  11  23  39  68  97 127 163 215 269 332 385
#     4  11  24  40  64  99 130 169 214 276 329 386
#     4  10  21  39  64  93 123 161 212 264 322 399
#     4  10  21  35  55  90 127 156 214 273 324 380
#     4  10  23  40  60  90 131 172 224 266 327 404
#     4  10  20  36  61  89 119 163 211 262 326 382
#     4  10  21  38  62  87 122 180 222 261 327 395
#
# _framework density 25.043465999999999
#
# number of rings (size 3 to 8) (size 9 to 14) (size 15 to 20)
#    0.000    1.750    1.250    3.000    3.500    1.500 
#    0.000    0.625    0.000    0.000    0.000    0.000 
#    0.000    0.000    0.000    0.000    0.000    0.000 
#
# Total GULP energy -178741.718898 kJ/mol
# GULP energy per Si atom -5585.678716 kJ/mol
# Density = 2.498647 g / cm^3
# Si number density = 25.043466 Si / 1000 Ang^3
#
#
#
# Elastic Constant Matrix: (Units=GPa)
#
#
# Indices 1 2 3 4 5 6 
#
# 1 88.0974 -5.0874 19.0240 0.0001 11.7509 0.0001
# 2 -5.0874 81.5426 35.8535 0.0001 -0.0473 0.0003
# 3 19.0240 35.8535 144.5459 -0.0001 17.2749 0.0000
# 4 0.0001 0.0001 -0.0001 58.5200 0.0000 -0.5232
# 5 11.7509 -0.0473 17.2749 0.0000 34.8650 0.0001
# 6 0.0001 0.0003 0.0000 -0.5232 0.0001 24.7575
#
#
#
# Elastic Compliance Matrix: (Units=1/GPa)
#
#
# Indices 1 2 3 4 5 6 
#
# 1 0.012219 0.001450 -0.001569 0.000000 -0.003339 0.000000
# 2 0.001450 0.014046 -0.003847 0.000000 0.001436 0.000000
# 3 -0.001569 -0.003847 0.008521 0.000000 -0.003698 0.000000
# 4 0.000000 0.000000 0.000000 0.017091 0.000000 0.000361
# 5 -0.003339 0.001436 -0.003698 0.000000 0.031642 0.000000
# 6 0.000000 0.000000 0.000000 0.000361 0.000000 0.040399
#
#
# Mechanical properties :
#
#
# Convention : Reuss Voigt Hill
#
# Bulk Modulus (GPa) = 37.23625 45.97400 41.60513
# Shear Modulus (GPa) = 35.51118 41.25489 38.38304
#
# Velocity S-wave (km/s) = 3.76970 4.06314 3.91916
# Velocity P-wave (km/s) = 5.81794 6.35686 6.09336
#
# Compressibility (1/GPa) = 0.02685555
#
# Stress axis : x y z
#
# Youngs Moduli (GPa) = 81.84001 71.19403 117.35993
#
# Poissons Ratio (x) = -0.10325 0.18412
# Poissons Ratio (y) = -0.11868 0.45143
# Poissons Ratio (z) = 0.12839 0.27385
#
# Static dielectric constant tensor:
#      x y z
#    x 2.008490 0.000000 0.033680 
#    y 0.000000 2.120540 0.000000 
#    z 0.033680 0.000000 2.004140 
# 
# From -- ./inp_files/315100.got.cif
#   From: 2010.05.17/outbox.cif.g08.bks.cpg/sg15_158_cif.got.tgz:315100.got - 2010.06.03 18:47:42.
