data_PCOD9271204
_publ_section_title
;
Structure prediction by ZEFSAII (Michael W. Deem and Ramdas Pophale) SiO2 
 PCOD9271204
Probable space group: C 2/C
;
_chemical_formula_sum "Si O2"
_cell_formula_units_Z 40
_cell_length_a 11.236044
_cell_length_b 8.359049
_cell_length_c 24.926579
_cell_angle_alpha 90.000000
_cell_angle_beta 120.484831
_cell_angle_gamma 90.000000
_cell_volume 2017.534996
_symmetry_space_group_name_H-M "C 2/C"
_symmetry_group_IT_number 15
_symmetry_cell_setting 'monoclinic'
loop_
_space_group_symop_operation_xyz
x,y,z
-x,y,1/2-z
-x,-y,-z
x,-y,1/2+z
1/2+x,1/2+y,z
1/2-x,1/2+y,1/2-z
1/2-x,1/2-y,-z
1/2+x,1/2-y,1/2+z
loop_
_atom_site_type_symbol
_atom_site_label
_atom_site_fract_x
_atom_site_fract_y
_atom_site_fract_z
Si Si1 0.678477 0.511807 0.479907
Si Si2 0.215036 0.251764 0.579969
Si Si3 0.650126 0.799631 0.276807
Si Si4 0.917345 0.350137 0.781977
Si Si5 0.452071 0.825212 0.574035
O O1 0.685277 0.638892 0.433200
O O2 0.652561 0.615134 0.527301
O O3 0.583290 0.361218 0.444686
O O4 0.828712 0.434031 0.524865
O O5 0.288644 0.182764 0.649318
O O6 0.091568 0.361038 0.573888
O O7 0.500000 0.714783 0.250000
O O8 0.771337 0.723364 0.268253
O O9 0.616855 0.969621 0.243002
O O10 0.000000 0.275823 0.750000
O O11 0.017350 0.347557 0.856321
#
# Coordination Sequence:
#
# PCOD9271204 Si02
#       5
#     8   8   8   8   8
#     4  10  20  36  58  82 112 144 182 228 282 338
#     4  10  21  37  57  83 112 145 185 230 281 335
#     4  10  22  39  58  83 114 149 190 234 281 334
#     4  10  22  39  58  83 114 149 190 234 281 334
#     4  10  21  37  57  83 112 145 185 230 281 335
#
# _framework density 19.826174999999999
#
# number of rings (size 3 to 8) (size 9 to 14) (size 15 to 20)
#    0.000    2.000    0.000    3.600    0.000    7.200 
#    0.000   10.000    0.000    0.000    0.000    0.000 
#    0.000    0.000    0.000    0.000    0.000    0.000 
#
# Total GULP energy -111542.528526 kJ/mol
# GULP energy per Si atom -5577.126426 kJ/mol
# Density = 1.978105 g / cm^3
# Si number density = 19.826175 Si / 1000 Ang^3
#
#
#
# Elastic Constant Matrix: (Units=GPa)
#
#
# Indices 1 2 3 4 5 6 
#
# 1 127.1887 25.0311 77.0189 0.0000 -29.4728 0.0000
# 2 25.0311 66.9989 46.6882 0.0000 -21.1514 0.0000
# 3 77.0189 46.6882 161.1260 0.0000 -45.9410 0.0000
# 4 0.0000 0.0000 0.0000 16.0633 0.0000 2.4820
# 5 -29.4728 -21.1514 -45.9410 0.0000 42.1924 0.0000
# 6 0.0000 0.0000 0.0000 2.4820 0.0000 19.5030
#
#
#
# Elastic Compliance Matrix: (Units=1/GPa)
#
#
# Indices 1 2 3 4 5 6 
#
# 1 0.011309 -0.000152 -0.004541 0.000000 0.002879 0.000000
# 2 -0.000152 0.019473 -0.004085 0.000000 0.005208 0.000000
# 3 -0.004541 -0.004085 0.011707 0.000000 0.007527 0.000000
# 4 0.000000 0.000000 0.000000 0.063502 0.000000 -0.008081
# 5 0.002879 0.005208 0.007527 0.000000 0.036519 0.000000
# 6 0.000000 0.000000 0.000000 -0.008081 0.000000 0.052303
#
#
# Mechanical properties :
#
#
# Convention : Reuss Voigt Hill
#
# Bulk Modulus (GPa) = 40.10665 72.53222 56.31943
# Shear Modulus (GPa) = 22.65729 29.32344 25.99037
#
# Velocity S-wave (km/s) = 3.38420 3.84998 3.62458
# Velocity P-wave (km/s) = 5.96183 7.51177 6.78123
#
# Compressibility (1/GPa) = 0.02493352
#
# Stress axis : x y z
#
# Youngs Moduli (GPa) = 88.42409 51.35263 85.42130
#
# Poissons Ratio (x) = 0.00780 0.38788
# Poissons Ratio (y) = 0.01343 0.34895
# Poissons Ratio (z) = 0.40152 0.20978
#
# Static dielectric constant tensor:
#      x y z
#    x 1.741950 0.000000 0.002810 
#    y 0.000000 1.845390 0.000000 
#    z 0.002810 0.000000 1.669750 
# 
# From -- ./inp_files/187788.got.cif
#   From: 2010.05.17/outbox.cif.g08.bks.cpg/sg15_94_cif.got.tgz:187788.got - 2010.06.03 18:47:42.
