data_PCOD9271847
_publ_section_title
;
Structure prediction by ZEFSAII (Michael W. Deem and Ramdas Pophale) SiO2 
 PCOD9271847
Probable space group: C 2/C
;
_chemical_formula_sum "Si O2"
_cell_formula_units_Z 52
_cell_length_a 11.953599
_cell_length_b 12.265832
_cell_length_c 24.048550
_cell_angle_alpha 90.000000
_cell_angle_beta 128.867858
_cell_angle_gamma 90.000000
_cell_volume 2745.341468
_symmetry_space_group_name_H-M "C 2/C"
_symmetry_group_IT_number 15
_symmetry_cell_setting 'monoclinic'
loop_
_space_group_symop_operation_xyz
x,y,z
-x,y,1/2-z
-x,-y,-z
x,-y,1/2+z
1/2+x,1/2+y,z
1/2-x,1/2+y,1/2-z
1/2-x,1/2-y,-z
1/2+x,1/2-y,1/2+z
loop_
_atom_site_type_symbol
_atom_site_label
_atom_site_fract_x
_atom_site_fract_y
_atom_site_fract_z
Si Si1 0.776810 0.089943 0.890622
Si Si2 0.500000 0.734427 0.750000
Si Si3 0.510196 0.860646 0.134062
Si Si4 0.454570 0.106685 0.389096
Si Si5 0.517948 0.769190 0.493938
Si Si6 0.797126 0.199004 0.780536
Si Si7 0.777392 0.654443 0.100271
O O1 0.618842 0.124186 0.862833
O O2 0.792297 0.116171 0.830443
O O3 0.790712 0.962734 0.907790
O O4 0.890714 0.164587 0.958576
O O5 0.417744 0.669402 0.772461
O O6 0.620408 0.808268 0.817214
O O7 0.455971 0.802033 0.061379
O O8 0.643484 0.798897 0.203139
O O9 0.563239 0.980984 0.132001
O O10 0.442760 0.135563 0.450233
O O11 0.345823 0.185031 0.321561
O O12 0.613729 0.141002 0.417309
O O13 0.349885 0.739725 0.447442
#
# Coordination Sequence:
#
# PCOD9271847 Si02
#       7
#     8   4   8   8   8   8   8
#     4  10  23  36  59  88 118 151 192 231 287 351
#     4  10  20  38  58  86 108 148 194 244 282 336
#     4  11  21  37  62  83 118 159 190 228 293 345
#     4   9  22  37  58  87 115 153 196 231 287 341
#     4  11  20  38  58  86 122 147 190 240 283 338
#     4  10  21  37  60  82 116 145 199 239 278 332
#     4  10  20  36  62  85 112 151 196 234 285 333
#
# _framework density 18.941177
#
# number of rings (size 3 to 8) (size 9 to 14) (size 15 to 20)
#    0.000    1.846    1.538    2.308    6.462    0.000 
#    0.000    0.000   13.538    0.000    0.000    0.000 
#    0.000    0.000    0.000    0.000    0.000    0.000 
#
# Total GULP energy -145164.176693 kJ/mol
# GULP energy per Si atom -5583.237565 kJ/mol
# Density = 1.889807 g / cm^3
# Si number density = 18.941177 Si / 1000 Ang^3
#
#
#
# Elastic Constant Matrix: (Units=GPa)
#
#
# Indices 1 2 3 4 5 6 
#
# 1 60.6436 22.5292 33.5170 0.0000 -16.2799 0.0000
# 2 22.5292 40.8762 30.8395 0.0000 -2.0274 0.0000
# 3 33.5170 30.8395 96.5954 0.0000 -2.7199 0.0000
# 4 0.0000 0.0000 0.0000 11.1258 0.0000 6.9324
# 5 -16.2799 -2.0274 -2.7199 0.0000 37.3446 0.0000
# 6 0.0000 0.0000 0.0000 6.9324 0.0000 26.4649
#
#
#
# Elastic Compliance Matrix: (Units=1/GPa)
#
#
# Indices 1 2 3 4 5 6 
#
# 1 0.025943 -0.009502 -0.005676 0.000000 0.010380 0.000000
# 2 -0.009502 0.035744 -0.008194 0.000000 -0.002798 0.000000
# 3 -0.005676 -0.008194 0.014886 0.000000 -0.001835 0.000000
# 4 0.000000 0.000000 0.000000 0.107413 0.000000 -0.028136
# 5 0.010380 -0.002798 -0.001835 0.000000 0.031017 0.000000
# 6 0.000000 0.000000 0.000000 -0.028136 0.000000 0.045156
#
#
# Mechanical properties :
#
#
# Convention : Reuss Voigt Hill
#
# Bulk Modulus (GPa) = 33.52237 41.32074 37.42155
# Shear Modulus (GPa) = 15.78052 22.40237 19.09144
#
# Velocity S-wave (km/s) = 2.88954 3.44282 3.17824
# Velocity P-wave (km/s) = 5.37300 6.13732 5.76783
#
# Compressibility (1/GPa) = 0.02983083
#
# Stress axis : x y z
#
# Youngs Moduli (GPa) = 38.54536 27.97666 67.17602
#
# Poissons Ratio (x) = 0.26583 0.38130
# Poissons Ratio (y) = 0.36625 0.55042
# Poissons Ratio (z) = 0.21879 0.22923
#
# Static dielectric constant tensor:
#      x y z
#    x 1.659910 0.000000 -0.013620 
#    y 0.000000 1.627210 0.000000 
#    z -0.013620 0.000000 1.648770 
# 
# From -- ./inp_files/236891.got.cif
#   From: 2010.05.17/outbox.cif.g08.bks.cpg/sg15_119_cif.got.tgz:236891.got - 2010.06.03 18:47:42.
