data_PCOD9271351
_publ_section_title
;
Structure prediction by ZEFSAII (Michael W. Deem and Ramdas Pophale) SiO2 
 PCOD9271351
Probable space group: C 2/C
;
_chemical_formula_sum "Si O2"
_cell_formula_units_Z 36
_cell_length_a 16.224418
_cell_length_b 7.166998
_cell_length_c 14.173662
_cell_angle_alpha 90.000000
_cell_angle_beta 123.088597
_cell_angle_gamma 90.000000
_cell_volume 1380.838965
_symmetry_space_group_name_H-M "C 2/C"
_symmetry_group_IT_number 15
_symmetry_cell_setting 'monoclinic'
loop_
_space_group_symop_operation_xyz
x,y,z
-x,y,1/2-z
-x,-y,-z
x,-y,1/2+z
1/2+x,1/2+y,z
1/2-x,1/2+y,1/2-z
1/2-x,1/2-y,-z
1/2+x,1/2-y,1/2+z
loop_
_atom_site_type_symbol
_atom_site_label
_atom_site_fract_x
_atom_site_fract_y
_atom_site_fract_z
Si Si1 0.000000 0.936280 0.250000
Si Si2 0.541895 0.691590 0.066746
Si Si3 0.658432 0.689206 0.337288
Si Si4 0.867555 0.474172 0.938773
Si Si5 0.101789 0.431975 0.765092
O O1 0.918641 0.788508 0.237784
O O2 0.923552 0.079988 0.152662
O O3 0.610504 0.664755 0.201456
O O4 0.605975 0.808405 0.028400
O O5 0.500000 0.500000 0.000000
O O6 0.453778 0.839471 0.027740
O O7 0.762333 0.591140 0.405674
O O8 0.672053 0.912842 0.356626
O O9 0.872729 0.452077 0.828553
O O10 0.000000 0.502207 0.750000
#
# Coordination Sequence:
#
# PCOD9271351 Si02
#       5
#     4   8   8   8   8
#     4  10  20  36  58  94 124 168 206 250 312 360
#     4  10  23  38  64  95 126 155 209 263 302 366
#     4  11  22  40  67  90 124 168 207 253 310 368
#     4  10  23  41  64  95 121 164 213 252 306 374
#     4   9  21  35  62  90 126 158 206 254 304 366
#
# _framework density 26.071107000000001
#
# number of rings (size 3 to 8) (size 9 to 14) (size 15 to 20)
#    0.667    1.333    1.111    1.333   12.444    0.000 
#    0.000    1.111    0.000   16.000    0.000    0.000 
#    0.000    0.000    0.000    0.000    0.000    0.000 
#
# Total GULP energy -100278.874487 kJ/mol
# GULP energy per Si atom -5571.048583 kJ/mol
# Density = 2.601177 g / cm^3
# Si number density = 26.071107 Si / 1000 Ang^3
#
#
#
# Elastic Constant Matrix: (Units=GPa)
#
#
# Indices 1 2 3 4 5 6 
#
# 1 83.4711 36.0257 49.8694 0.0000 13.1039 0.0000
# 2 36.0257 219.4484 50.6829 0.0000 1.2905 0.0000
# 3 49.8694 50.6829 132.4786 0.0000 5.3763 0.0000
# 4 0.0000 0.0000 0.0000 28.6936 0.0000 -7.5965
# 5 13.1039 1.2905 5.3763 0.0000 53.3035 0.0000
# 6 0.0000 0.0000 0.0000 -7.5965 0.0000 40.7188
#
#
#
# Elastic Compliance Matrix: (Units=1/GPa)
#
#
# Indices 1 2 3 4 5 6 
#
# 1 0.016414 -0.001404 -0.005502 0.000000 -0.003446 0.000000
# 2 -0.001404 0.005119 -0.001445 0.000000 0.000367 0.000000
# 3 -0.005502 -0.001445 0.010158 0.000000 0.000363 0.000000
# 4 0.000000 0.000000 0.000000 0.036662 0.000000 0.006840
# 5 -0.003446 0.000367 0.000363 0.000000 0.019562 0.000000
# 6 0.000000 0.000000 0.000000 0.006840 0.000000 0.025835
#
#
# Mechanical properties :
#
#
# Convention : Reuss Voigt Hill
#
# Bulk Modulus (GPa) = 66.71292 78.72823 72.72057
# Shear Modulus (GPa) = 36.91488 44.46450 40.68969
#
# Velocity S-wave (km/s) = 3.76697 4.13426 3.95488
# Velocity P-wave (km/s) = 6.67566 7.28372 6.98631
#
# Compressibility (1/GPa) = 0.01498960
#
# Stress axis : x y z
#
# Youngs Moduli (GPa) = 60.92298 195.35650 98.44891
#
# Poissons Ratio (x) = 0.27421 0.54166
# Poissons Ratio (y) = 0.08551 0.14224
# Poissons Ratio (z) = 0.33520 0.28226
#
# Static dielectric constant tensor:
#      x y z
#    x 2.180700 0.000000 -0.096440 
#    y 0.000000 2.124110 0.000000 
#    z -0.096440 0.000000 2.083580 
# 
# From -- ./inp_files/242138.got.cif
#   From: 2010.05.17/outbox.cif.g08.bks.cpg/sg15_122_cif.got.tgz:242138.got - 2010.06.03 18:47:42.
