data_PCOD9271261
_publ_section_title
;
Structure prediction by ZEFSAII (Michael W. Deem and Ramdas Pophale) SiO2 
 PCOD9271261
Probable space group: C 2/C
;
_chemical_formula_sum "Si O2"
_cell_formula_units_Z 60
_cell_length_a 22.318062
_cell_length_b 21.307796
_cell_length_c 15.014891
_cell_angle_alpha 90.000000
_cell_angle_beta 152.372079
_cell_angle_gamma 90.000000
_cell_volume 3311.161490
_symmetry_space_group_name_H-M "C 2/C"
_symmetry_group_IT_number 15
_symmetry_cell_setting 'monoclinic'
loop_
_space_group_symop_operation_xyz
x,y,z
-x,y,1/2-z
-x,-y,-z
x,-y,1/2+z
1/2+x,1/2+y,z
1/2-x,1/2+y,1/2-z
1/2-x,1/2-y,-z
1/2+x,1/2-y,1/2+z
loop_
_atom_site_type_symbol
_atom_site_label
_atom_site_fract_x
_atom_site_fract_y
_atom_site_fract_z
Si Si1 0.727081 0.206029 0.849201
Si Si2 0.632612 0.241143 0.276702
Si Si3 0.326556 0.345460 0.658163
Si Si4 0.000000 0.676353 0.250000
Si Si5 0.969253 0.634761 0.464838
Si Si6 0.649716 0.078865 0.547651
Si Si7 0.381657 0.932922 0.028017
Si Si8 0.116174 0.842242 0.105512
O O1 0.723037 0.278361 0.870529
O O2 0.580935 0.180887 0.649376
O O3 0.800527 0.199169 0.853413
O O4 0.800085 0.162914 0.018112
O O5 0.750000 0.250000 0.500000
O O6 0.514458 0.220909 0.184512
O O7 0.607792 0.302122 0.185066
O O8 0.639139 0.179708 0.221857
O O9 0.242020 0.399294 0.592155
O O10 0.475529 0.353282 0.880005
O O11 0.115403 0.628273 0.423773
O O12 0.914162 0.593833 0.472794
O O13 0.045963 0.594891 0.489800
O O14 0.795033 0.096175 0.767240
O O15 0.635260 0.007596 0.500093
O O16 0.500000 0.918210 0.250000
#
# Coordination Sequence:
#
# PCOD9271261 Si02
#       8
#     8   8   8   4   8   8   8   8
#     4  10  21  38  60  90 121 155 194 251 311 369
#     4  11  21  35  60  88 119 151 189 255 305 360
#     4  11  23  35  62  90 123 158 193 254 308 364
#     4  10  20  36  58  86 112 152 204 246 302 340
#     4  10  21  39  62  92 117 156 208 253 303 359
#     4  10  22  39  61  84 122 163 205 249 298 358
#     4  12  23  39  62  90 122 162 213 253 293 363
#     4  11  22  39  59  89 123 160 195 246 314 374
#
# _framework density 18.120529000000001
#
# number of rings (size 3 to 8) (size 9 to 14) (size 15 to 20)
#    0.000    1.333    4.667    1.600    0.000    1.600 
#    0.000    0.000    0.000    0.000    0.000    0.000 
#    0.000    0.000    0.000    0.000    0.000    0.000 
#
# Total GULP energy -167378.375889 kJ/mol
# GULP energy per Si atom -5579.279196 kJ/mol
# Density = 1.807929 g / cm^3
# Si number density = 18.120529 Si / 1000 Ang^3
#
#
#
# Elastic Constant Matrix: (Units=GPa)
#
#
# Indices 1 2 3 4 5 6 
#
# 1 65.3901 27.6045 11.5675 0.0000 -9.5119 0.0000
# 2 27.6045 67.2680 21.3208 0.0000 3.9105 0.0000
# 3 11.5675 21.3208 118.5643 0.0000 -5.6262 0.0000
# 4 0.0000 0.0000 0.0000 22.8780 0.0000 -5.9341
# 5 -9.5119 3.9105 -5.6262 0.0000 23.4756 0.0000
# 6 0.0000 0.0000 0.0000 -5.9341 0.0000 20.3988
#
#
#
# Elastic Compliance Matrix: (Units=1/GPa)
#
#
# Indices 1 2 3 4 5 6 
#
# 1 0.020515 -0.009018 0.000087 0.000000 0.009835 0.000000
# 2 -0.009018 0.019992 -0.003082 0.000000 -0.007723 0.000000
# 3 0.000087 -0.003082 0.009110 0.000000 0.002732 0.000000
# 4 0.000000 0.000000 0.000000 0.047277 0.000000 0.013753
# 5 0.009835 -0.007723 0.002732 0.000000 0.048524 0.000000
# 6 0.000000 0.000000 0.000000 0.013753 0.000000 0.053023
#
#
# Mechanical properties :
#
#
# Convention : Reuss Voigt Hill
#
# Bulk Modulus (GPa) = 39.07590 41.35643 40.21617
# Shear Modulus (GPa) = 21.64523 26.06579 23.85551
#
# Velocity S-wave (km/s) = 3.45992 3.79683 3.63228
# Velocity P-wave (km/s) = 6.12966 6.48797 6.31135
#
# Compressibility (1/GPa) = 0.02559122
#
# Stress axis : x y z
#
# Youngs Moduli (GPa) = 48.74451 50.01920 109.77460
#
# Poissons Ratio (x) = 0.45107 -0.00954
# Poissons Ratio (y) = 0.43958 0.33830
# Poissons Ratio (z) = -0.00423 0.15415
#
# Static dielectric constant tensor:
#      x y z
#    x 1.643650 0.000000 -0.024400 
#    y 0.000000 1.598620 0.000000 
#    z -0.024400 0.000000 1.664090 
# 
# From -- ./inp_files/169475.got.cif
#   From: 2010.05.17/outbox.cif.g08.bks.cpg/sg15_85_cif.got.tgz:169475.got - 2010.06.03 18:47:42.
