data_PCOD9271317
_publ_section_title
;
Structure prediction by ZEFSAII (Michael W. Deem and Ramdas Pophale) SiO2 
 PCOD9271317
Probable space group: C 2/C
;
_chemical_formula_sum "Si O2"
_cell_formula_units_Z 56
_cell_length_a 13.648655
_cell_length_b 27.846183
_cell_length_c 7.735272
_cell_angle_alpha 90.000000
_cell_angle_beta 61.005477
_cell_angle_gamma 90.000000
_cell_volume 2571.422188
_symmetry_space_group_name_H-M "C 2/C"
_symmetry_group_IT_number 15
_symmetry_cell_setting 'monoclinic'
loop_
_space_group_symop_operation_xyz
x,y,z
-x,y,1/2-z
-x,-y,-z
x,-y,1/2+z
1/2+x,1/2+y,z
1/2-x,1/2+y,1/2-z
1/2-x,1/2-y,-z
1/2+x,1/2-y,1/2+z
loop_
_atom_site_type_symbol
_atom_site_label
_atom_site_fract_x
_atom_site_fract_y
_atom_site_fract_z
Si Si1 0.653190 0.117866 0.217333
Si Si2 0.944907 0.651634 0.570930
Si Si3 0.624700 0.652312 0.932567
Si Si4 0.295704 0.928880 0.284279
Si Si5 0.368088 0.663592 0.154395
Si Si6 0.626444 0.014578 0.119262
Si Si7 0.291084 0.765659 0.274930
O O1 0.575128 0.145028 0.422404
O O2 0.782186 0.127031 0.142437
O O3 0.630000 0.060991 0.242697
O O4 0.613070 0.139019 0.066247
O O5 0.887921 0.611954 0.741478
O O6 0.904651 0.702975 0.671618
O O7 0.684585 0.601679 0.840526
O O8 0.696809 0.696548 0.793769
O O9 0.496072 0.656718 0.990213
O O10 0.632589 0.657169 0.135761
O O11 0.289288 0.970322 0.430936
O O12 0.344063 0.959777 0.084523
O O13 0.318363 0.716308 0.155702
O O14 0.500000 0.995788 0.250000
O O15 0.250000 0.750000 0.500000
#
# Coordination Sequence:
#
# PCOD9271317 Si02
#       7
#     8   8   8   8   8   8   8
#     4  10  20  36  58  90 123 163 191 254 307 359
#     4   9  19  38  57  88 131 147 201 256 301 359
#     4   9  21  41  55  88 128 150 204 254 290 359
#     4  10  21  37  62  86 120 160 193 257 304 355
#     4  10  21  36  64  83 120 165 201 242 302 359
#     4  11  21  37  61  92 124 152 201 252 308 362
#     4   9  19  37  60  86 117 162 198 250 298 351
#
# _framework density 21.777833000000001
#
# number of rings (size 3 to 8) (size 9 to 14) (size 15 to 20)
#    0.000    2.286    2.857    0.429    4.000    0.571 
#    2.571    8.571    0.000    0.000    0.000    0.000 
#    0.000    0.000    0.000    0.000    0.000    0.000 
#
# Total GULP energy -156300.877819 kJ/mol
# GULP energy per Si atom -5582.174208 kJ/mol
# Density = 2.172827 g / cm^3
# Si number density = 21.777833 Si / 1000 Ang^3
#
#
#
# Elastic Constant Matrix: (Units=GPa)
#
#
# Indices 1 2 3 4 5 6 
#
# 1 115.0256 20.8718 28.8903 0.0000 -30.1819 0.0000
# 2 20.8718 97.9674 19.0324 0.0000 -13.6748 0.0000
# 3 28.8903 19.0324 63.9439 0.0000 -8.2335 0.0000
# 4 0.0000 0.0000 0.0000 20.7564 0.0000 -10.6212
# 5 -30.1819 -13.6748 -8.2335 0.0000 32.4458 0.0000
# 6 0.0000 0.0000 0.0000 -10.6212 0.0000 12.7081
#
#
#
# Elastic Compliance Matrix: (Units=1/GPa)
#
#
# Indices 1 2 3 4 5 6 
#
# 1 0.012567 -0.000400 -0.004213 0.000000 0.010453 0.000000
# 2 -0.000400 0.011339 -0.002716 0.000000 0.003718 0.000000
# 3 -0.004213 -0.002716 0.018296 0.000000 -0.000421 0.000000
# 4 0.000000 0.000000 0.000000 0.084180 0.000000 0.070356
# 5 0.010453 0.003718 -0.000421 0.000000 0.042004 0.000000
# 6 0.000000 0.000000 0.000000 0.070356 0.000000 0.137493
#
#
# Mechanical properties :
#
#
# Convention : Reuss Voigt Hill
#
# Bulk Modulus (GPa) = 36.30340 46.05841 41.18091
# Shear Modulus (GPa) = 15.16447 27.05820 21.11133
#
# Velocity S-wave (km/s) = 2.64166 3.52869 3.11689
# Velocity P-wave (km/s) = 5.10006 6.14795 5.64836
#
# Compressibility (1/GPa) = 0.02754563
#
# Stress axis : x y z
#
# Youngs Moduli (GPa) = 79.57265 88.18945 54.65590
#
# Poissons Ratio (x) = 0.03527 0.23027
# Poissons Ratio (y) = 0.03182 0.14842
# Poissons Ratio (z) = 0.33524 0.23949
#
# Static dielectric constant tensor:
#      x y z
#    x 1.827440 0.000000 0.081470 
#    y 0.000000 1.799340 0.000000 
#    z 0.081470 0.000000 1.886070 
# 
# From -- ./inp_files/43474.got.cif
#   From: 2010.05.17/outbox.cif.g08.bks.cpg/sg15_22_cif.got.tgz:43474.got - 2010.06.03 18:47:42.
