data_PCOD9271254
_publ_section_title
;
Structure prediction by ZEFSAII (Michael W. Deem and Ramdas Pophale) SiO2 
 PCOD9271254
Probable space group: C 2/C
;
_chemical_formula_sum "Si O2"
_cell_formula_units_Z 48
_cell_length_a 14.404642
_cell_length_b 8.384954
_cell_length_c 17.292820
_cell_angle_alpha 90.000000
_cell_angle_beta 87.722330
_cell_angle_gamma 90.000000
_cell_volume 2087.015761
_symmetry_space_group_name_H-M "C 2/C"
_symmetry_group_IT_number 15
_symmetry_cell_setting 'monoclinic'
loop_
_space_group_symop_operation_xyz
x,y,z
-x,y,1/2-z
-x,-y,-z
x,-y,1/2+z
1/2+x,1/2+y,z
1/2-x,1/2+y,1/2-z
1/2-x,1/2-y,-z
1/2+x,1/2-y,1/2+z
loop_
_atom_site_type_symbol
_atom_site_label
_atom_site_fract_x
_atom_site_fract_y
_atom_site_fract_z
Si Si1 0.828551 0.330924 0.199419
Si Si2 0.974067 0.452747 0.626525
Si Si3 0.863174 0.553411 0.478903
Si Si4 0.472498 0.579865 0.639861
Si Si5 0.645138 0.540253 0.207979
Si Si6 0.343248 0.388028 0.545900
O O1 0.921984 0.433934 0.188069
O O2 0.739799 0.443683 0.198539
O O3 0.831319 0.222960 0.275376
O O4 0.822215 0.213657 0.125242
O O5 0.909750 0.471938 0.551707
O O6 0.977381 0.268877 0.648763
O O7 0.077462 0.500763 0.596816
O O8 0.753075 0.534179 0.477761
O O9 0.876456 0.746032 0.488372
O O10 0.411078 0.519983 0.714581
O O11 0.572859 0.495968 0.642389
O O12 0.418380 0.518619 0.566440
#
# Coordination Sequence:
#
# PCOD9271254 Si02
#       6
#     8   8   8   8   8   8
#     4  10  20  38  60  82 113 152 194 240 294 348
#     4  10  20  36  58  85 115 153 192 236 292 346
#     4   9  19  37  58  82 115 154 197 234 284 347
#     4  10  21  37  57  86 118 147 190 241 293 347
#     4  10  21  39  59  84 115 150 195 243 292 348
#     4   9  19  37  58  82 116 156 194 240 287 342
#
# _framework density 22.999348000000001
#
# number of rings (size 3 to 8) (size 9 to 14) (size 15 to 20)
#    0.000    2.333    0.000    2.000    0.000    1.333 
#    0.000   46.667    0.000    0.000    0.000    0.000 
#    0.000    0.000    0.000    0.000    0.000    0.000 
#
# Total GULP energy -134214.137437 kJ/mol
# GULP energy per Si atom -5592.255727 kJ/mol
# Density = 2.294700 g / cm^3
# Si number density = 22.999348 Si / 1000 Ang^3
#
#
#
# Elastic Constant Matrix: (Units=GPa)
#
#
# Indices 1 2 3 4 5 6 
#
# 1 110.2602 33.8594 29.2200 0.0000 2.0409 0.0000
# 2 33.8594 63.4887 15.4255 0.0000 4.7220 0.0000
# 3 29.2200 15.4255 31.0677 0.0000 5.1801 0.0000
# 4 0.0000 0.0000 0.0000 29.6759 0.0000 -0.0347
# 5 2.0409 4.7220 5.1801 0.0000 25.0003 0.0000
# 6 0.0000 0.0000 0.0000 -0.0347 0.0000 27.2875
#
#
#
# Elastic Compliance Matrix: (Units=1/GPa)
#
#
# Indices 1 2 3 4 5 6 
#
# 1 0.013238 -0.004664 -0.010463 0.000000 0.001968 0.000000
# 2 -0.004664 0.019617 -0.004970 0.000000 -0.002294 0.000000
# 3 -0.010463 -0.004970 0.045779 0.000000 -0.007693 0.000000
# 4 0.000000 0.000000 0.000000 0.033697 0.000000 0.000043
# 5 0.001968 -0.002294 -0.007693 0.000000 0.041866 0.000000
# 6 0.000000 0.000000 0.000000 0.000043 0.000000 0.036647
#
#
# Mechanical properties :
#
#
# Convention : Reuss Voigt Hill
#
# Bulk Modulus (GPa) = 26.01576 40.20294 33.10935
# Shear Modulus (GPa) = 20.50413 24.81352 22.65883
#
# Velocity S-wave (km/s) = 2.98905 3.28819 3.14219
# Velocity P-wave (km/s) = 4.82169 5.65104 5.25276
#
# Compressibility (1/GPa) = 0.03843824
#
# Stress axis : x y z
#
# Youngs Moduli (GPa) = 75.53888 50.97708 21.84394
#
# Poissons Ratio (x) = 0.23777 0.22856
# Poissons Ratio (y) = 0.35234 0.10857
# Poissons Ratio (z) = 0.79038 0.25338
#
# Static dielectric constant tensor:
#      x y z
#    x 1.831420 0.000000 0.002570 
#    y 0.000000 1.835690 0.000000 
#    z 0.002570 0.000000 1.959790 
# 
# From -- ./inp_files/241989.got.cif
#   From: 2010.05.17/outbox.cif.g08.bks.cpg/sg15_121_cif.got.tgz:241989.got - 2010.06.03 18:47:42.
