data_PCOD9271157
_publ_section_title
;
Structure prediction by ZEFSAII (Michael W. Deem and Ramdas Pophale) SiO2 
 PCOD9271157
Probable space group: C 2/C
;
_chemical_formula_sum "Si O2"
_cell_formula_units_Z 48
_cell_length_a 25.346260
_cell_length_b 8.653381
_cell_length_c 10.314013
_cell_angle_alpha 90.000000
_cell_angle_beta 84.428538
_cell_angle_gamma 90.000000
_cell_volume 2251.494370
_symmetry_space_group_name_H-M "C 2/C"
_symmetry_group_IT_number 15
_symmetry_cell_setting 'monoclinic'
loop_
_space_group_symop_operation_xyz
x,y,z
-x,y,1/2-z
-x,-y,-z
x,-y,1/2+z
1/2+x,1/2+y,z
1/2-x,1/2+y,1/2-z
1/2-x,1/2-y,-z
1/2+x,1/2-y,1/2+z
loop_
_atom_site_type_symbol
_atom_site_label
_atom_site_fract_x
_atom_site_fract_y
_atom_site_fract_z
Si Si1 0.672844 0.231373 0.100060
Si Si2 0.062702 0.143141 0.219078
Si Si3 0.637765 0.086177 0.672798
Si Si4 0.802159 0.276019 0.571821
Si Si5 0.771107 0.409241 0.155444
Si Si6 0.382239 0.499758 0.544152
O O1 0.712243 0.340669 0.173876
O O2 0.638563 0.344239 0.019382
O O3 0.637190 0.100787 0.179154
O O4 0.710116 0.134882 0.993295
O O5 0.086460 0.316893 0.223896
O O6 0.080601 0.078203 0.074296
O O7 0.000000 0.140875 0.250000
O O8 0.089431 0.042138 0.327724
O O9 0.653304 0.132737 0.522957
O O10 0.686056 0.149884 0.751019
O O11 0.750000 0.250000 0.500000
O O12 0.777819 0.407742 0.672576
O O13 0.832294 0.113150 0.581114
#
# Coordination Sequence:
#
# PCOD9271157 Si02
#       6
#     8   8   8   8   8   8
#     4  10  21  37  60  95 129 172 214 257 330 406
#     4  11  25  47  68  93 129 175 233 293 342 381
#     4  10  23  37  61  88 128 180 213 270 325 395
#     4  10  21  36  56  95 133 169 210 251 325 404
#     4  10  20  36  57  89 137 167 210 252 323 407
#     4  11  23  42  71 100 132 173 222 282 332 406
#
# _framework density 21.319175999999999
#
# number of rings (size 3 to 8) (size 9 to 14) (size 15 to 20)
#    0.000    1.667    3.333    0.500    4.667    0.000 
#    0.000    1.667    0.000    0.000    0.000    0.000 
#    0.000    0.000    0.000    0.000    0.000    0.000 
#
# Total GULP energy -133785.595227 kJ/mol
# GULP energy per Si atom -5574.399801 kJ/mol
# Density = 2.127065 g / cm^3
# Si number density = 21.319176 Si / 1000 Ang^3
#
#
#
# Elastic Constant Matrix: (Units=GPa)
#
#
# Indices 1 2 3 4 5 6 
#
# 1 111.1793 62.3859 35.5370 0.0000 -1.9968 0.0000
# 2 62.3859 125.7081 40.7722 0.0000 -0.2759 0.0000
# 3 35.5370 40.7722 85.9829 0.0000 -10.0479 0.0000
# 4 0.0000 0.0000 0.0000 36.8923 0.0000 0.5111
# 5 -1.9968 -0.2759 -10.0479 0.0000 26.6106 0.0000
# 6 0.0000 0.0000 0.0000 0.5111 0.0000 21.2401
#
#
#
# Elastic Compliance Matrix: (Units=1/GPa)
#
#
# Indices 1 2 3 4 5 6 
#
# 1 0.012987 -0.005554 -0.002748 0.000000 -0.000121 0.000000
# 2 -0.005554 0.011847 -0.003511 0.000000 -0.001620 0.000000
# 3 -0.002748 -0.003511 0.015067 0.000000 0.005447 0.000000
# 4 0.000000 0.000000 0.000000 0.027115 0.000000 -0.000653
# 5 -0.000121 -0.001620 0.005447 0.000000 0.039610 0.000000
# 6 0.000000 0.000000 0.000000 -0.000653 0.000000 0.047096
#
#
# Mechanical properties :
#
#
# Convention : Reuss Voigt Hill
#
# Bulk Modulus (GPa) = 61.44627 66.69561 64.07094
# Shear Modulus (GPa) = 27.35613 29.22698 28.29155
#
# Velocity S-wave (km/s) = 3.58602 3.70662 3.64682
# Velocity P-wave (km/s) = 6.78459 7.04776 6.91743
#
# Compressibility (1/GPa) = 0.01627438
#
# Stress axis : x y z
#
# Youngs Moduli (GPa) = 76.99804 84.41194 66.36811
#
# Poissons Ratio (x) = 0.46885 0.18238
# Poissons Ratio (y) = 0.42767 0.23303
# Poissons Ratio (z) = 0.21159 0.29639
#
# Static dielectric constant tensor:
#      x y z
#    x 1.753510 0.000000 0.062710 
#    y 0.000000 1.847880 0.000000 
#    z 0.062710 0.000000 1.969030 
# 
# From -- ./inp_files/116294.got.cif
#   From: 2010.05.17/outbox.cif.g08.bks.cpg/sg15_59_cif.got.tgz:116294.got - 2010.06.03 18:47:42.
