data_PCOD9271200
_publ_section_title
;
Structure prediction by ZEFSAII (Michael W. Deem and Ramdas Pophale) SiO2 
 PCOD9271200
Probable space group: C 2/C
;
_chemical_formula_sum "Si O2"
_cell_formula_units_Z 52
_cell_length_a 31.634665
_cell_length_b 16.043436
_cell_length_c 9.338473
_cell_angle_alpha 90.000000
_cell_angle_beta 36.117220
_cell_angle_gamma 90.000000
_cell_volume 2793.672450
_symmetry_space_group_name_H-M "C 2/C"
_symmetry_group_IT_number 15
_symmetry_cell_setting 'monoclinic'
loop_
_space_group_symop_operation_xyz
x,y,z
-x,y,1/2-z
-x,-y,-z
x,-y,1/2+z
1/2+x,1/2+y,z
1/2-x,1/2+y,1/2-z
1/2-x,1/2-y,-z
1/2+x,1/2-y,1/2+z
loop_
_atom_site_type_symbol
_atom_site_label
_atom_site_fract_x
_atom_site_fract_y
_atom_site_fract_z
Si Si1 0.178004 0.848088 0.988818
Si Si2 0.052672 0.030645 0.731087
Si Si3 0.282968 0.063591 0.008259
Si Si4 0.500000 0.971377 0.250000
Si Si5 0.714481 0.165756 0.784237
Si Si6 0.406618 0.049193 0.254495
Si Si7 0.178243 0.909064 0.294873
O O1 0.245831 0.903102 0.753158
O O2 0.192117 0.760194 0.874921
O O3 0.107310 0.896752 0.128499
O O4 0.173280 0.848158 0.172947
O O5 0.000000 0.059204 0.750000
O O6 0.104025 0.954921 0.537234
O O7 0.000000 0.000000 0.000000
O O8 0.233407 0.984186 0.101629
O O9 0.281159 0.133117 0.890030
O O10 0.362719 0.032196 0.822037
O O11 0.449129 0.920796 0.497483
O O12 0.455894 0.026114 0.255257
O O13 0.787667 0.139611 0.664581
O O14 0.652714 0.112293 0.029551
#
# Coordination Sequence:
#
# PCOD9271200 Si02
#       7
#     8   8   8   4   8   8   8
#     4  11  23  38  59  92 119 153 197 252 303 341
#     4  11  22  41  65  87 121 163 207 241 293 378
#     4  10  20  37  61  85 112 155 203 245 289 354
#     4  10  20  36  58  82 106 154 200 234 278 356
#     4  11  22  38  59  90 122 149 196 259 303 335
#     4  10  20  37  60  81 114 152 203 236 287 355
#     4  10  21  38  64  86 116 159 206 241 296 364
#
# _framework density 18.613491
#
# number of rings (size 3 to 8) (size 9 to 14) (size 15 to 20)
#    0.000    1.538    3.077    3.692    4.308    0.000 
#    1.385    1.538    0.000    0.000    0.000    0.000 
#    0.000    0.000    0.000    0.000    0.000    0.000 
#
# Total GULP energy -145012.897082 kJ/mol
# GULP energy per Si atom -5577.419119 kJ/mol
# Density = 1.857113 g / cm^3
# Si number density = 18.613491 Si / 1000 Ang^3
#
#
#
# Elastic Constant Matrix: (Units=GPa)
#
#
# Indices 1 2 3 4 5 6 
#
# 1 96.4773 15.3647 37.9119 0.0000 6.6787 0.0000
# 2 15.3647 63.5090 11.1183 0.0000 2.8467 0.0000
# 3 37.9119 11.1183 97.2679 0.0000 8.4830 0.0000
# 4 0.0000 0.0000 0.0000 17.0425 0.0000 6.1957
# 5 6.6787 2.8467 8.4830 0.0000 31.9044 0.0000
# 6 0.0000 0.0000 0.0000 6.1957 0.0000 14.5397
#
#
#
# Elastic Compliance Matrix: (Units=1/GPa)
#
#
# Indices 1 2 3 4 5 6 
#
# 1 0.012587 -0.002194 -0.004548 0.000000 -0.001230 0.000000
# 2 -0.002194 0.016479 -0.000963 0.000000 -0.000755 0.000000
# 3 -0.004548 -0.000963 0.012360 0.000000 -0.002248 0.000000
# 4 0.000000 0.000000 0.000000 0.069433 0.000000 -0.029587
# 5 -0.001230 -0.000755 -0.002248 0.000000 0.032266 0.000000
# 6 0.000000 0.000000 0.000000 -0.029587 0.000000 0.081385
#
#
# Mechanical properties :
#
#
# Convention : Reuss Voigt Hill
#
# Bulk Modulus (GPa) = 38.43712 42.89380 40.66546
# Shear Modulus (GPa) = 20.11332 25.55458 22.83395
#
# Velocity S-wave (km/s) = 3.29078 3.70929 3.50629
# Velocity P-wave (km/s) = 5.92739 6.43736 6.18763
#
# Compressibility (1/GPa) = 0.02601652
#
# Stress axis : x y z
#
# Youngs Moduli (GPa) = 79.44821 60.68357 80.90851
#
# Poissons Ratio (x) = 0.13313 0.36796
# Poissons Ratio (y) = 0.17429 0.07789
# Poissons Ratio (z) = 0.36132 0.05842
#
# Static dielectric constant tensor:
#      x y z
#    x 1.667250 0.000000 0.007920 
#    y 0.000000 1.659860 0.000000 
#    z 0.007920 0.000000 1.649990 
# 
# From -- ./inp_files/70376.got.cif
#   From: 2010.05.17/outbox.cif.g08.bks.cpg/sg15_36_cif.got.tgz:70376.got - 2010.06.03 18:47:42.
