data_PCOD9271306
_publ_section_title
;
Structure prediction by ZEFSAII (Michael W. Deem and Ramdas Pophale) SiO2 
 PCOD9271306
Probable space group: C 2/C
;
_chemical_formula_sum "Si O2"
_cell_formula_units_Z 52
_cell_length_a 7.241992
_cell_length_b 28.478928
_cell_length_c 12.481759
_cell_angle_alpha 90.000000
_cell_angle_beta 84.803834
_cell_angle_gamma 90.000000
_cell_volume 2563.710865
_symmetry_space_group_name_H-M "C 2/C"
_symmetry_group_IT_number 15
_symmetry_cell_setting 'monoclinic'
loop_
_space_group_symop_operation_xyz
x,y,z
-x,y,1/2-z
-x,-y,-z
x,-y,1/2+z
1/2+x,1/2+y,z
1/2-x,1/2+y,1/2-z
1/2-x,1/2-y,-z
1/2+x,1/2-y,1/2+z
loop_
_atom_site_type_symbol
_atom_site_label
_atom_site_fract_x
_atom_site_fract_y
_atom_site_fract_z
Si Si1 0.832627 0.060177 0.450810
Si Si2 0.696152 0.124658 0.788437
Si Si3 0.109657 0.963933 0.132338
Si Si4 0.653355 0.687958 0.406788
Si Si5 0.810768 0.850606 0.057333
Si Si6 0.500000 0.379004 0.750000
Si Si7 0.545482 0.793386 0.440788
O O1 0.717098 0.103062 0.507789
O O2 0.924858 0.086738 0.345605
O O3 0.970239 0.047470 0.541990
O O4 0.771813 0.009710 0.408822
O O5 0.500000 0.108583 0.750000
O O6 0.773564 0.082536 0.853754
O O7 0.825905 0.137494 0.681283
O O8 0.649599 0.171564 0.854740
O O9 0.000000 0.973691 0.250000
O O10 0.507129 0.661982 0.494386
O O11 0.645693 0.656322 0.300371
O O12 0.573514 0.740465 0.400076
O O13 0.851848 0.696477 0.451791
O O14 0.667932 0.808394 0.047728
#
# Coordination Sequence:
#
# PCOD9271306 Si02
#       7
#     8   8   8   8   8   4   8
#     4  10  21  36  60  90 117 154 200 249 299 366
#     4  10  21  36  59  86 118 148 196 251 298 349
#     4  11  20  37  64  87 114 156 207 245 301 370
#     4  10  22  38  60  83 121 162 197 241 301 353
#     4  10  20  38  62  84 116 154 198 245 300 354
#     4  10  20  36  58  88 124 158 192 242 304 352
#     4  10  22  39  57  89 119 154 205 250 293 357
#
# _framework density 20.283097999999999
#
# number of rings (size 3 to 8) (size 9 to 14) (size 15 to 20)
#    0.000    1.846    2.308    2.308    3.231    0.000 
#    0.000    7.692    0.000    0.000    0.000    0.000 
#    0.000    0.000    0.000    0.000    0.000    0.000 
#
# Total GULP energy -144929.160911 kJ/mol
# GULP energy per Si atom -5574.198497 kJ/mol
# Density = 2.023693 g / cm^3
# Si number density = 20.283098 Si / 1000 Ang^3
#
#
#
# Elastic Constant Matrix: (Units=GPa)
#
#
# Indices 1 2 3 4 5 6 
#
# 1 28.1140 17.3085 11.1409 0.0000 11.8683 0.0000
# 2 17.3085 111.7762 18.9800 0.0000 10.9094 0.0000
# 3 11.1409 18.9800 88.0580 0.0000 12.5672 0.0000
# 4 0.0000 0.0000 0.0000 5.2398 0.0000 0.3202
# 5 11.8683 10.9094 12.5672 0.0000 19.2576 0.0000
# 6 0.0000 0.0000 0.0000 0.3202 0.0000 11.7225
#
#
#
# Elastic Compliance Matrix: (Units=1/GPa)
#
#
# Indices 1 2 3 4 5 6 
#
# 1 0.050822 -0.004934 -0.001428 0.000000 -0.027594 0.000000
# 2 -0.004934 0.010110 -0.001292 0.000000 -0.001843 0.000000
# 3 -0.001428 -0.001292 0.012775 0.000000 -0.006725 0.000000
# 4 0.000000 0.000000 0.000000 0.191167 0.000000 -0.005221
# 5 -0.027594 -0.001843 -0.006725 0.000000 0.074366 0.000000
# 6 0.000000 0.000000 0.000000 -0.005221 0.000000 0.085449
#
#
# Mechanical properties :
#
#
# Convention : Reuss Voigt Hill
#
# Bulk Modulus (GPa) = 17.12372 35.86744 26.49558
# Shear Modulus (GPa) = 10.88227 19.27856 15.08042
#
# Velocity S-wave (km/s) = 2.31880 3.08632 2.72967
# Velocity P-wave (km/s) = 3.95345 5.51564 4.79855
#
# Compressibility (1/GPa) = 0.05839853
#
# Stress axis : x y z
#
# Youngs Moduli (GPa) = 19.67657 98.91453 78.27785
#
# Poissons Ratio (x) = 0.48805 0.11180
# Poissons Ratio (y) = 0.09708 0.10111
# Poissons Ratio (z) = 0.02810 0.12777
#
# Static dielectric constant tensor:
#      x y z
#    x 1.727760 0.000000 0.007560 
#    y 0.000000 1.733770 0.000000 
#    z 0.007560 0.000000 1.779270 
# 
# From -- ./inp_files/80694.got.cif
#   From: 2010.05.17/outbox.cif.g08.bks.cpg/sg15_41_cif.got.tgz:80694.got - 2010.06.03 18:47:42.
