data_PCOD9271130
_publ_section_title
;
Structure prediction by ZEFSAII (Michael W. Deem and Ramdas Pophale) SiO2 
 PCOD9271130
Probable space group: C 2/C
;
_chemical_formula_sum "Si O2"
_cell_formula_units_Z 56
_cell_length_a 28.780860
_cell_length_b 12.572026
_cell_length_c 7.174433
_cell_angle_alpha 90.000000
_cell_angle_beta 123.009744
_cell_angle_gamma 90.000000
_cell_volume 2176.907877
_symmetry_space_group_name_H-M "C 2/C"
_symmetry_group_IT_number 15
_symmetry_cell_setting 'monoclinic'
loop_
_space_group_symop_operation_xyz
x,y,z
-x,y,1/2-z
-x,-y,-z
x,-y,1/2+z
1/2+x,1/2+y,z
1/2-x,1/2+y,1/2-z
1/2-x,1/2-y,-z
1/2+x,1/2-y,1/2+z
loop_
_atom_site_type_symbol
_atom_site_label
_atom_site_fract_x
_atom_site_fract_y
_atom_site_fract_z
Si Si1 0.173777 0.357579 0.143918
Si Si2 0.559381 0.368115 0.785117
Si Si3 0.374265 0.540783 0.748226
Si Si4 0.307796 0.629878 0.283373
Si Si5 0.948068 0.401135 0.766488
Si Si6 0.800380 0.591944 0.211855
Si Si7 0.078388 0.360972 0.374578
O O1 0.188239 0.249361 0.279980
O O2 0.191336 0.464564 0.286458
O O3 0.108827 0.364269 0.954561
O O4 0.202794 0.360046 0.002894
O O5 0.500000 0.382547 0.750000
O O6 0.574690 0.460062 0.673798
O O7 0.608189 0.386125 0.043487
O O8 0.565226 0.246571 0.736841
O O9 0.358677 0.612813 0.540051
O O10 0.321360 0.464680 0.670501
O O11 0.252271 0.616751 0.278553
O O12 0.949541 0.356921 0.980121
O O13 0.940510 0.529651 0.763092
O O14 0.000000 0.376423 0.750000
O O15 0.856676 0.630139 0.434885
#
# Coordination Sequence:
#
# PCOD9271130 Si02
#       7
#     8   8   8   8   8   8   8
#     4  10  22  37  58  85 117 155 196 236 290 348
#     4  11  23  43  63  84 117 156 193 245 295 338
#     4  10  24  40  61  91 114 147 205 241 283 356
#     4  11  22  41  62  86 120 155 189 245 294 336
#     4  10  20  36  57  86 121 152 193 243 286 345
#     4  10  21  38  59  87 120 154 194 238 285 347
#     4  10  22  37  59  89 119 155 196 234 290 354
#
# _framework density 25.724561000000001
#
# number of rings (size 3 to 8) (size 9 to 14) (size 15 to 20)
#    0.000    1.714    0.000    4.286    0.000    8.000 
#    0.000    5.714    0.000    0.000    0.000    0.000 
#    0.000    0.000    0.000    0.000    0.000    0.000 
#
# Total GULP energy -157061.737848 kJ/mol
# GULP energy per Si atom -5609.347780 kJ/mol
# Density = 2.566601 g / cm^3
# Si number density = 25.724561 Si / 1000 Ang^3
#
#
#
# Elastic Constant Matrix: (Units=GPa)
#
#
# Indices 1 2 3 4 5 6 
#
# 1 158.9276 32.7909 -0.8759 0.0000 -1.0381 0.0000
# 2 32.7909 144.1607 13.4369 0.0000 9.9025 0.0000
# 3 -0.8759 13.4369 54.3309 0.0000 0.0312 0.0000
# 4 0.0000 0.0000 0.0000 14.2755 0.0000 -8.9108
# 5 -1.0381 9.9025 0.0312 0.0000 31.5243 0.0000
# 6 0.0000 0.0000 0.0000 -8.9108 0.0000 25.9935
#
#
#
# Elastic Compliance Matrix: (Units=1/GPa)
#
#
# Indices 1 2 3 4 5 6 
#
# 1 0.006631 -0.001605 0.000503 0.000000 0.000722 0.000000
# 2 -0.001605 0.007649 -0.001916 0.000000 -0.002454 0.000000
# 3 0.000503 -0.001916 0.018887 0.000000 0.000600 0.000000
# 4 0.000000 0.000000 0.000000 0.089120 0.000000 0.030551
# 5 0.000722 -0.002454 0.000600 0.000000 0.032515 0.000000
# 6 0.000000 0.000000 0.000000 0.030551 0.000000 0.048944
#
#
# Mechanical properties :
#
#
# Convention : Reuss Voigt Hill
#
# Bulk Modulus (GPa) = 36.85693 49.79146 43.32420
# Shear Modulus (GPa) = 22.84921 35.16315 29.00618
#
# Velocity S-wave (km/s) = 2.98354 3.70119 3.36157
# Velocity P-wave (km/s) = 5.12126 6.13699 5.65199
#
# Compressibility (1/GPa) = 0.02713194
#
# Stress axis : x y z
#
# Youngs Moduli (GPa) = 150.81219 130.73839 52.94539
#
# Poissons Ratio (x) = 0.20980 -0.02665
# Poissons Ratio (y) = 0.24202 0.10145
# Poissons Ratio (z) = -0.07591 0.25051
#
# Static dielectric constant tensor:
#      x y z
#    x 2.039240 0.000000 -0.005780 
#    y 0.000000 1.970340 0.000000 
#    z -0.005780 0.000000 1.988810 
# 
# From -- ./inp_files/65546.got.cif
#   From: 2010.05.17/outbox.cif.g08.bks.cpg/sg15_33_cif.got.tgz:65546.got - 2010.06.03 18:47:42.
