data_PCOD9271572
_publ_section_title
;
Structure prediction by ZEFSAII (Michael W. Deem and Ramdas Pophale) SiO2 
 PCOD9271572
Probable space group: C 2/C
;
_chemical_formula_sum "Si O2"
_cell_formula_units_Z 56
_cell_length_a 8.100062
_cell_length_b 11.273138
_cell_length_c 28.672910
_cell_angle_alpha 90.000000
_cell_angle_beta 117.490195
_cell_angle_gamma 90.000000
_cell_volume 2322.589952
_symmetry_space_group_name_H-M "C 2/C"
_symmetry_group_IT_number 15
_symmetry_cell_setting 'monoclinic'
loop_
_space_group_symop_operation_xyz
x,y,z
-x,y,1/2-z
-x,-y,-z
x,-y,1/2+z
1/2+x,1/2+y,z
1/2-x,1/2+y,1/2-z
1/2-x,1/2-y,-z
1/2+x,1/2-y,1/2+z
loop_
_atom_site_type_symbol
_atom_site_label
_atom_site_fract_x
_atom_site_fract_y
_atom_site_fract_z
Si Si1 0.947462 0.627898 0.297745
Si Si2 0.986344 0.622824 0.650031
Si Si3 0.570091 0.900331 0.559882
Si Si4 0.579902 0.381625 0.312880
Si Si5 0.356518 0.340130 0.461193
Si Si6 0.301890 0.462495 0.023328
Si Si7 0.137488 0.137358 0.322893
O O1 0.727676 0.623070 0.283229
O O2 0.000000 0.626649 0.250000
O O3 0.036489 0.506927 0.329823
O O4 0.009880 0.757596 0.324848
O O5 0.839496 0.639182 0.589289
O O6 0.957160 0.736614 0.679919
O O7 0.197361 0.626046 0.660005
O O8 0.607542 0.797326 0.527124
O O9 0.350052 0.915000 0.533592
O O10 0.678139 0.864274 0.620049
O O11 0.677740 0.012745 0.552326
O O12 0.500000 0.380559 0.250000
O O13 0.533994 0.515225 0.324551
O O14 0.522536 0.379294 0.447897
O O15 0.380619 0.417887 0.510338
#
# Coordination Sequence:
#
# PCOD9271572 Si02
#       7
#     8   8   8   8   8   8   8
#     4  10  23  41  61  87 116 152 197 244 296 352
#     4  10  23  41  62  88 119 154 196 244 294 351
#     4  10  21  38  59  87 118 153 194 238 289 345
#     4  10  23  41  61  87 116 152 197 244 296 352
#     4  10  21  38  59  87 118 153 194 238 289 345
#     4  10  20  36  60  86 118 154 192 236 286 346
#     4  10  23  41  62  88 119 154 196 244 294 351
#
# _framework density 24.111014000000001
#
# number of rings (size 3 to 8) (size 9 to 14) (size 15 to 20)
#    0.000    2.000    0.000    2.571    0.000   15.429 
#    0.000    7.143    0.000    0.000    0.000    0.000 
#    0.000    0.000    0.000    0.000    0.000    0.000 
#
# Total GULP energy -156324.724027 kJ/mol
# GULP energy per Si atom -5583.025858 kJ/mol
# Density = 2.405614 g / cm^3
# Si number density = 24.111014 Si / 1000 Ang^3
#
#
#
# Elastic Constant Matrix: (Units=GPa)
#
#
# Indices 1 2 3 4 5 6 
#
# 1 77.9414 33.8590 1.2985 0.0000 12.2420 0.0000
# 2 33.8590 192.5727 14.3662 0.0000 -6.2973 0.0000
# 3 1.2985 14.3662 35.3582 0.0000 5.6111 0.0000
# 4 0.0000 0.0000 0.0000 22.8261 0.0000 -3.1459
# 5 12.2420 -6.2973 5.6111 0.0000 32.9229 0.0000
# 6 0.0000 0.0000 0.0000 -3.1459 0.0000 47.5249
#
#
#
# Elastic Compliance Matrix: (Units=1/GPa)
#
#
# Indices 1 2 3 4 5 6 
#
# 1 0.015123 -0.002997 0.001691 0.000000 -0.006485 0.000000
# 2 -0.002997 0.006016 -0.002769 0.000000 0.002737 0.000000
# 3 0.001691 -0.002769 0.030349 0.000000 -0.006331 0.000000
# 4 0.000000 0.000000 0.000000 0.044213 0.000000 0.002927
# 5 -0.006485 0.002737 -0.006331 0.000000 0.034388 0.000000
# 6 0.000000 0.000000 0.000000 0.002927 0.000000 0.021235
#
#
# Mechanical properties :
#
#
# Convention : Reuss Voigt Hill
#
# Bulk Modulus (GPa) = 23.07375 44.99108 34.03241
# Shear Modulus (GPa) = 28.74910 37.74470 33.24690
#
# Velocity S-wave (km/s) = 3.45681 3.96087 3.71739
# Velocity P-wave (km/s) = 5.05206 6.29432 5.70709
#
# Compressibility (1/GPa) = 0.04333930
#
# Stress axis : x y z
#
# Youngs Moduli (GPa) = 66.12662 166.22741 32.94956
#
# Poissons Ratio (x) = 0.49821 -0.05573
# Poissons Ratio (y) = 0.19819 0.09122
# Poissons Ratio (z) = -0.11185 0.46021
#
# Static dielectric constant tensor:
#      x y z
#    x 1.973190 0.000000 -0.062350 
#    y 0.000000 1.969890 0.000000 
#    z -0.062350 0.000000 2.003040 
# 
# From -- ./inp_files/288068.got.cif
#   From: 2010.05.17/outbox.cif.g08.bks.cpg/sg15_145_cif.got.tgz:288068.got - 2010.06.03 18:47:42.
