data_PCOD9271131
_publ_section_title
;
Structure prediction by ZEFSAII (Michael W. Deem and Ramdas Pophale) SiO2 
 PCOD9271131
Probable space group: C 2/C
;
_chemical_formula_sum "Si O2"
_cell_formula_units_Z 56
_cell_length_a 27.892878
_cell_length_b 6.922591
_cell_length_c 27.343217
_cell_angle_alpha 90.000000
_cell_angle_beta 30.381534
_cell_angle_gamma 90.000000
_cell_volume 2670.253199
_symmetry_space_group_name_H-M "C 2/C"
_symmetry_group_IT_number 15
_symmetry_cell_setting 'monoclinic'
loop_
_space_group_symop_operation_xyz
x,y,z
-x,y,1/2-z
-x,-y,-z
x,-y,1/2+z
1/2+x,1/2+y,z
1/2-x,1/2+y,1/2-z
1/2-x,1/2-y,-z
1/2+x,1/2-y,1/2+z
loop_
_atom_site_type_symbol
_atom_site_label
_atom_site_fract_x
_atom_site_fract_y
_atom_site_fract_z
Si Si1 0.645559 0.014178 0.471303
Si Si2 0.775329 0.467504 0.989457
Si Si3 0.656861 0.262513 0.876562
Si Si4 0.609191 0.736750 0.168034
Si Si5 0.172362 0.216697 0.222023
Si Si6 0.938352 0.509146 0.618925
Si Si7 0.639446 0.609843 0.830826
O O1 0.717546 0.169611 0.384392
O O2 0.537353 0.067638 0.556060
O O3 0.672500 0.991157 0.504089
O O4 0.662709 0.814110 0.426451
O O5 0.843827 0.559776 0.888559
O O6 0.750000 0.250000 0.000000
O O7 0.676869 0.585785 0.080061
O O8 0.585817 0.120570 0.909769
O O9 0.630204 0.481937 0.887775
O O10 0.758828 0.216545 0.761868
O O11 0.500000 0.725350 0.250000
O O12 0.622555 0.701040 0.213601
O O13 0.143782 0.418890 0.271530
O O14 0.136943 0.049842 0.290131
O O15 0.933416 0.280922 0.614242
#
# Coordination Sequence:
#
# PCOD9271131 Si02
#       7
#     8   8   8   8   8   8   8
#     4  10  22  40  62  91 122 161 207 245 309 366
#     4  10  23  42  60  92 128 157 208 262 304 365
#     4  10  20  37  56  87 122 157 201 247 296 361
#     4  10  21  40  65  90 121 164 205 254 309 363
#     4   9  22  39  59  89 122 160 199 249 306 357
#     4  11  21  38  63  88 124 159 201 258 295 365
#     4  10  20  36  57  86 121 160 199 241 300 359
#
# _framework density 20.971795
#
# number of rings (size 3 to 8) (size 9 to 14) (size 15 to 20)
#    0.000    2.000    1.429    1.286    0.000    5.714 
#    0.000   10.000    0.000    0.000    0.000    0.000 
#    0.000    0.000    0.000    0.000    0.000    0.000 
#
# Total GULP energy -156500.730963 kJ/mol
# GULP energy per Si atom -5589.311820 kJ/mol
# Density = 2.092406 g / cm^3
# Si number density = 20.971795 Si / 1000 Ang^3
#
#
#
# Elastic Constant Matrix: (Units=GPa)
#
#
# Indices 1 2 3 4 5 6 
#
# 1 83.9399 30.7446 46.5926 0.0032 -19.9758 -0.0036
# 2 30.7446 107.0990 21.2472 0.0189 -6.7313 0.0000
# 3 46.5926 21.2472 73.8099 0.0039 -17.2439 -0.0054
# 4 0.0032 0.0189 0.0039 14.9332 -0.0014 -0.0800
# 5 -19.9758 -6.7313 -17.2439 -0.0014 35.3113 0.0091
# 6 -0.0036 0.0000 -0.0054 -0.0800 0.0091 24.9976
#
#
#
# Elastic Compliance Matrix: (Units=1/GPa)
#
#
# Indices 1 2 3 4 5 6 
#
# 1 0.020374 -0.003397 -0.010545 0.000003 0.005729 -0.000001
# 2 -0.003397 0.010479 -0.000965 -0.000012 -0.000395 -0.000001
# 3 -0.010545 -0.000965 0.021499 -0.000002 0.004349 0.000001
# 4 0.000003 -0.000012 -0.000002 0.066966 0.000001 0.000214
# 5 0.005729 -0.000395 0.004349 0.000001 0.033609 -0.000011
# 6 -0.000001 -0.000001 0.000001 0.000214 -0.000011 0.040004
#
#
# Mechanical properties :
#
#
# Convention : Reuss Voigt Hill
#
# Bulk Modulus (GPa) = 44.36767 51.33530 47.85149
# Shear Modulus (GPa) = 21.71495 26.13270 23.92383
#
# Velocity S-wave (km/s) = 3.22131 3.53383 3.38118
# Velocity P-wave (km/s) = 5.91926 6.41732 6.17331
#
# Compressibility (1/GPa) = 0.02253894
#
# Stress axis : x y z
#
# Youngs Moduli (GPa) = 49.08262 95.43115 46.51463
#
# Poissons Ratio (x) = 0.32414 0.49049
# Poissons Ratio (y) = 0.16672 0.04487
# Poissons Ratio (z) = 0.51757 0.09206
#
# Static dielectric constant tensor:
#      x y z
#    x 1.727900 0.000000 0.001970 
#    y 0.000000 1.745540 0.000010 
#    z 0.001970 0.000010 1.799020 
# 
# From -- ./inp_files/320072.got.cif
#   From: 2010.05.17/outbox.cif.g08.bks.cpg/sg15_161_cif.got.tgz:320072.got - 2010.06.03 18:47:42.
