data_PCOD9271517
_publ_section_title
;
Structure prediction by ZEFSAII (Michael W. Deem and Ramdas Pophale) SiO2 
 PCOD9271517
Probable space group: C 2/C
;
_chemical_formula_sum "Si O2"
_cell_formula_units_Z 64
_cell_length_a 26.470780
_cell_length_b 18.522248
_cell_length_c 10.563806
_cell_angle_alpha 90.000000
_cell_angle_beta 37.046345
_cell_angle_gamma 90.000000
_cell_volume 3120.395619
_symmetry_space_group_name_H-M "C 2/C"
_symmetry_group_IT_number 15
_symmetry_cell_setting 'monoclinic'
loop_
_space_group_symop_operation_xyz
x,y,z
-x,y,1/2-z
-x,-y,-z
x,-y,1/2+z
1/2+x,1/2+y,z
1/2-x,1/2+y,1/2-z
1/2-x,1/2-y,-z
1/2+x,1/2-y,1/2+z
loop_
_atom_site_type_symbol
_atom_site_label
_atom_site_fract_x
_atom_site_fract_y
_atom_site_fract_z
Si Si1 0.296450 0.923661 0.635915
Si Si2 0.821377 0.400439 0.858958
Si Si3 0.678623 0.599561 0.144465
Si Si4 0.796450 0.923661 0.178286
Si Si5 0.004347 0.165111 0.591159
Si Si6 0.915843 0.956642 0.135055
Si Si7 0.504347 0.834889 0.891454
Si Si8 0.084157 0.456642 0.298426
O O1 0.295565 0.880633 0.768375
O O2 0.247378 0.888336 0.615688
O O3 0.390675 0.939772 0.396898
O O4 0.250000 1.000000 0.748043
O O5 0.907306 0.363078 0.730781
O O6 0.844356 0.486337 0.804826
O O7 0.752622 0.388336 0.105199
O O8 0.592694 0.636922 0.360003
O O9 0.655644 0.513663 0.182251
O O10 0.704435 0.619367 0.950637
O O11 0.890675 0.939772 0.040402
O O12 0.000000 0.152341 0.750000
O O13 0.929521 0.118479 0.679089
O O14 1.000000 0.250000 0.575263
O O15 0.000000 0.000000 0.000000
O O16 0.500000 0.847659 0.750000
O O17 0.429521 0.881521 0.102826
O O18 0.000000 0.500000 0.500000
#
# Coordination Sequence:
#
# PCOD9271517 Si02
#       8
#     8   8   8   8   8   8   8   8
#     4  10  20  36  59  97 126 157 201 259 319 367
#     4  10  22  37  64  91 123 161 205 262 313 373
#     4  10  22  37  64  91 123 161 205 262 313 373
#     4  10  20  36  59  97 126 157 201 259 319 367
#     4  10  23  41  62  86 126 169 211 253 312 373
#     4   9  20  34  60  90 121 156 209 254 305 358
#     4  10  23  41  62  86 126 169 211 253 312 373
#     4   9  20  34  60  90 121 156 209 254 305 358
#
# _framework density 20.510218999999999
#
# number of rings (size 3 to 8) (size 9 to 14) (size 15 to 20)
#    0.000    2.250    0.000    2.250   14.000    3.000 
#    0.000    3.750    0.000    0.000    0.000    0.000 
#    0.000    0.000    0.000    0.000    0.000    0.000 
#
# Total GULP energy -178429.694688 kJ/mol
# GULP energy per Si atom -5575.927959 kJ/mol
# Density = 2.046354 g / cm^3
# Si number density = 20.510219 Si / 1000 Ang^3
#
#
#
# Elastic Constant Matrix: (Units=GPa)
#
#
# Indices 1 2 3 4 5 6 
#
# 1 139.6551 36.0263 70.3607 0.0000 16.8866 0.0000
# 2 36.0263 73.9467 36.4467 0.0000 15.1009 0.0000
# 3 70.3607 36.4467 140.5960 0.0000 16.9115 0.0000
# 4 0.0000 0.0000 0.0000 13.9330 0.0000 3.3697
# 5 16.8866 15.1009 16.9115 0.0000 35.7790 0.0000
# 6 0.0000 0.0000 0.0000 3.3697 0.0000 13.8392
#
#
#
# Elastic Compliance Matrix: (Units=1/GPa)
#
#
# Indices 1 2 3 4 5 6 
#
# 1 0.010142 -0.002508 -0.004216 0.000000 -0.001735 0.000000
# 2 -0.002508 0.016988 -0.002575 0.000000 -0.004769 0.000000
# 3 -0.004216 -0.002575 0.010094 0.000000 -0.001694 0.000000
# 4 0.000000 0.000000 0.000000 0.076263 0.000000 -0.018569
# 5 -0.001735 -0.004769 -0.001694 0.000000 0.031582 0.000000
# 6 0.000000 0.000000 0.000000 -0.018569 0.000000 0.076780
#
#
# Mechanical properties :
#
#
# Convention : Reuss Voigt Hill
#
# Bulk Modulus (GPa) = 53.69288 71.09615 62.39452
# Shear Modulus (GPa) = 20.27107 26.80116 23.53611
#
# Velocity S-wave (km/s) = 3.14720 3.61878 3.39120
# Velocity P-wave (km/s) = 6.28028 7.22494 6.76911
#
# Compressibility (1/GPa) = 0.01862444
#
# Stress axis : x y z
#
# Youngs Moduli (GPa) = 98.60300 58.86374 99.06931
#
# Poissons Ratio (x) = 0.14766 0.41772
# Poissons Ratio (y) = 0.24735 0.25509
# Poissons Ratio (z) = 0.41575 0.15157
#
# Static dielectric constant tensor:
#      x y z
#    x 1.788710 0.000000 -0.006120 
#    y 0.000000 1.719700 0.000000 
#    z -0.006120 0.000000 1.788540 
# 
# From -- ./inp_files/63403.got.cif
#   From: 2010.05.17/outbox.cif.g08.bks.cpg/sg15_32_cif.got.tgz:63403.got - 2010.06.03 18:47:42.
