data_PCOD9271374
_publ_section_title
;
Structure prediction by ZEFSAII (Michael W. Deem and Ramdas Pophale) SiO2 
 PCOD9271374
Probable space group: C 2/C
;
_chemical_formula_sum "Si O2"
_cell_formula_units_Z 44
_cell_length_a 11.271597
_cell_length_b 23.483475
_cell_length_c 8.164860
_cell_angle_alpha 90.000000
_cell_angle_beta 54.480261
_cell_angle_gamma 90.000000
_cell_volume 1759.040465
_symmetry_space_group_name_H-M "C 2/C"
_symmetry_group_IT_number 15
_symmetry_cell_setting 'monoclinic'
loop_
_space_group_symop_operation_xyz
x,y,z
-x,y,1/2-z
-x,-y,-z
x,-y,1/2+z
1/2+x,1/2+y,z
1/2-x,1/2+y,1/2-z
1/2-x,1/2-y,-z
1/2+x,1/2-y,1/2+z
loop_
_atom_site_type_symbol
_atom_site_label
_atom_site_fract_x
_atom_site_fract_y
_atom_site_fract_z
Si Si1 0.500000 0.939288 0.250000
Si Si2 0.840376 0.086329 0.897587
Si Si3 0.850902 0.773806 0.776422
Si Si4 0.724763 0.986168 0.779626
Si Si5 0.657194 0.847184 0.333344
Si Si6 0.670505 0.389484 0.615981
O O1 0.530300 0.887207 0.366881
O O2 0.412620 0.988422 0.205114
O O3 0.715638 0.131369 0.959195
O O4 0.000000 0.111518 0.750000
O O5 0.816955 0.038060 0.777059
O O6 0.817386 0.052272 0.082225
O O7 0.869854 0.720348 0.642102
O O8 0.805854 0.838306 0.771788
O O9 0.000000 0.784233 0.750000
O O10 0.750000 0.750000 0.000000
O O11 0.715922 0.941914 0.942301
O O12 0.783054 0.862591 0.095957
O O13 0.500000 0.408189 0.750000
#
# Coordination Sequence:
#
# PCOD9271374 Si02
#       6
#     4   8   8   8   8   8
#     4  10  22  36  54  80 116 148 188 228 282 346
#     4  11  22  36  57  81 113 149 189 235 285 345
#     4   9  18  35  59  88 111 150 201 243 285 343
#     4  11  22  36  54  83 114 151 187 231 291 338
#     4  10  20  36  59  83 109 151 191 237 285 338
#     4  10  20  36  60  83 112 144 193 241 280 336
#
# _framework density 25.013636999999999
#
# number of rings (size 3 to 8) (size 9 to 14) (size 15 to 20)
#    0.000    1.818    0.909    4.364    0.000    6.545 
#    0.000    0.909    2.000    0.000    0.000    0.000 
#    0.000    0.000    0.000    0.000    0.000    0.000 
#
# Total GULP energy -122542.397207 kJ/mol
# GULP energy per Si atom -5570.108964 kJ/mol
# Density = 2.495670 g / cm^3
# Si number density = 25.013637 Si / 1000 Ang^3
#
#
#
# Elastic Constant Matrix: (Units=GPa)
#
#
# Indices 1 2 3 4 5 6 
#
# 1 98.4082 39.3748 3.7791 0.0000 5.3929 0.0000
# 2 39.3748 189.4020 -5.9703 0.0000 9.3407 0.0000
# 3 3.7791 -5.9703 47.4307 0.0000 10.3715 0.0000
# 4 0.0000 0.0000 0.0000 26.8722 0.0000 -1.3873
# 5 5.3929 9.3407 10.3715 0.0000 32.5731 0.0000
# 6 0.0000 0.0000 0.0000 -1.3873 0.0000 26.7807
#
#
#
# Elastic Compliance Matrix: (Units=1/GPa)
#
#
# Indices 1 2 3 4 5 6 
#
# 1 0.011172 -0.002311 -0.000990 0.000000 -0.000872 0.000000
# 2 -0.002311 0.005886 0.001301 0.000000 -0.001720 0.000000
# 3 -0.000990 0.001301 0.022971 0.000000 -0.007523 0.000000
# 4 0.000000 0.000000 0.000000 0.037313 0.000000 0.001933
# 5 -0.000872 -0.001720 -0.007523 0.000000 0.033733 0.000000
# 6 0.000000 0.000000 0.000000 0.001933 0.000000 0.037440
#
#
# Mechanical properties :
#
#
# Convention : Reuss Voigt Hill
#
# Bulk Modulus (GPa) = 27.75551 45.51199 36.63375
# Shear Modulus (GPa) = 30.39037 37.11569 33.75303
#
# Velocity S-wave (km/s) = 3.48940 3.85622 3.67738
# Velocity P-wave (km/s) = 5.23018 6.16941 5.71911
#
# Compressibility (1/GPa) = 0.03602888
#
# Stress axis : x y z
#
# Youngs Moduli (GPa) = 89.50827 169.89522 43.53286
#
# Poissons Ratio (x) = 0.39260 0.04312
# Poissons Ratio (y) = 0.20684 -0.05664
# Poissons Ratio (z) = 0.08865 -0.22104
#
# Static dielectric constant tensor:
#      x y z
#    x 1.811770 0.000000 0.186280 
#    y 0.000000 2.168960 0.000000 
#    z 0.186280 0.000000 1.760440 
# 
# From -- ./inp_files/31854.got.cif
#   From: 2010.05.17/outbox.cif.g08.bks.cpg/sg15_16_cif.got.tgz:31854.got - 2010.06.03 18:47:42.
