data_PCOD9271232
_publ_section_title
;
Structure prediction by ZEFSAII (Michael W. Deem and Ramdas Pophale) SiO2 
 PCOD9271232
Probable space group: C 2/C
;
_chemical_formula_sum "Si O2"
_cell_formula_units_Z 60
_cell_length_a 27.844196
_cell_length_b 9.403000
_cell_length_c 11.381866
_cell_angle_alpha 90.000000
_cell_angle_beta 76.569910
_cell_angle_gamma 90.000000
_cell_volume 2898.497835
_symmetry_space_group_name_H-M "C 2/C"
_symmetry_group_IT_number 15
_symmetry_cell_setting 'monoclinic'
loop_
_space_group_symop_operation_xyz
x,y,z
-x,y,1/2-z
-x,-y,-z
x,-y,1/2+z
1/2+x,1/2+y,z
1/2-x,1/2+y,1/2-z
1/2-x,1/2-y,-z
1/2+x,1/2-y,1/2+z
loop_
_atom_site_type_symbol
_atom_site_label
_atom_site_fract_x
_atom_site_fract_y
_atom_site_fract_z
Si Si1 0.342175 0.109773 0.703283
Si Si2 0.500000 0.693548 0.250000
Si Si3 0.302286 0.171850 0.970446
Si Si4 0.629036 0.786695 0.847384
Si Si5 0.742500 0.893452 0.429375
Si Si6 0.928356 0.937262 0.977296
Si Si7 0.917056 0.181407 0.138693
Si Si8 0.646360 0.464127 0.167300
O O1 0.336197 0.180922 0.835469
O O2 0.288518 0.121832 0.673256
O O3 0.379934 0.205080 0.606539
O O4 0.365843 0.952368 0.690781
O O5 0.533462 0.600462 0.145101
O O6 0.457316 0.764157 0.195419
O O7 0.250000 0.250000 0.000000
O O8 0.329424 0.220447 0.073664
O O9 0.290360 0.004328 0.980063
O O10 0.637360 0.692034 0.726960
O O11 0.583688 0.703799 0.938690
O O12 0.750000 0.750000 0.500000
O O13 0.794727 0.969226 0.374720
O O14 0.878323 0.995416 0.942414
O O15 0.945814 0.075186 0.037884
O O16 0.881438 0.069599 0.227149
#
# Coordination Sequence:
#
# PCOD9271232 Si02
#       8
#     8   4   8   8   8   8   8   8
#     4  11  23  37  56  84 122 163 198 243 298 356
#     4  10  20  38  64  88 112 146 196 258 308 352
#     4  11  21  34  53  79 114 158 202 243 287 338
#     4  10  22  38  57  84 120 156 194 242 299 358
#     4  11  22  34  52  81 117 156 200 244 285 339
#     4  10  20  38  63  88 112 147 195 251 305 362
#     4  10  21  37  60  85 114 153 199 246 299 356
#     4  10  20  36  58  84 115 156 201 245 292 349
#
# _framework density 20.700379000000002
#
# number of rings (size 3 to 8) (size 9 to 14) (size 15 to 20)
#    0.000    1.600    0.000    6.000    0.000    6.400 
#    0.000    0.667    0.000    8.000    0.000    0.000 
#    0.000    0.000    0.000    0.000    0.000    0.000 
#
# Total GULP energy -167074.759483 kJ/mol
# GULP energy per Si atom -5569.158649 kJ/mol
# Density = 2.065326 g / cm^3
# Si number density = 20.700379 Si / 1000 Ang^3
#
#
#
# Elastic Constant Matrix: (Units=GPa)
#
#
# Indices 1 2 3 4 5 6 
#
# 1 82.5475 0.1471 -5.8911 0.0000 -2.0121 0.0000
# 2 0.1471 87.9522 7.6845 0.0000 -0.0251 0.0000
# 3 -5.8911 7.6845 48.9681 0.0000 -13.1513 0.0000
# 4 0.0000 0.0000 0.0000 18.8796 0.0000 8.4757
# 5 -2.0121 -0.0251 -13.1513 0.0000 29.7667 0.0000
# 6 0.0000 0.0000 0.0000 8.4757 0.0000 12.2215
#
#
#
# Elastic Compliance Matrix: (Units=1/GPa)
#
#
# Indices 1 2 3 4 5 6 
#
# 1 0.012296 -0.000192 0.001966 0.000000 0.001700 0.000000
# 2 -0.000192 0.011552 -0.002084 0.000000 -0.000924 0.000000
# 3 0.001966 -0.002084 0.023850 0.000000 0.010668 0.000000
# 4 0.000000 0.000000 0.000000 0.076913 0.000000 -0.053340
# 5 0.001700 -0.000924 0.010668 0.000000 0.038422 0.000000
# 6 0.000000 0.000000 0.000000 -0.053340 0.000000 0.118814
#
#
# Mechanical properties :
#
#
# Convention : Reuss Voigt Hill
#
# Bulk Modulus (GPa) = 21.24119 24.81655 23.02887
# Shear Modulus (GPa) = 16.76947 26.67538 21.72242
#
# Velocity S-wave (km/s) = 2.84932 3.59366 3.24292
# Velocity P-wave (km/s) = 4.59438 5.40682 5.01707
#
# Compressibility (1/GPa) = 0.04707835
#
# Stress axis : x y z
#
# Youngs Moduli (GPa) = 81.32527 86.56544 41.92827
#
# Poissons Ratio (x) = 0.01661 -0.08242
# Poissons Ratio (y) = 0.01560 0.08738
# Poissons Ratio (z) = -0.15987 0.18041
#
# Static dielectric constant tensor:
#      x y z
#    x 2.017740 0.000000 0.062700 
#    y 0.000000 1.783900 0.000000 
#    z 0.062700 0.000000 1.831630 
# 
# From -- ./inp_files/125876.got.cif
#   From: 2010.05.17/outbox.cif.g08.bks.cpg/sg15_63_cif.got.tgz:125876.got - 2010.06.03 18:47:42.
