data_PCOD9271692
_publ_section_title
;
Structure prediction by ZEFSAII (Michael W. Deem and Ramdas Pophale) SiO2 
 PCOD9271692
Probable space group: C 2/C
;
_chemical_formula_sum "Si O2"
_cell_formula_units_Z 56
_cell_length_a 14.710770
_cell_length_b 14.777450
_cell_length_c 16.816206
_cell_angle_alpha 90.000000
_cell_angle_beta 49.425640
_cell_angle_gamma 90.000000
_cell_volume 2776.683707
_symmetry_space_group_name_H-M "C 2/C"
_symmetry_group_IT_number 15
_symmetry_cell_setting 'monoclinic'
loop_
_space_group_symop_operation_xyz
x,y,z
-x,y,1/2-z
-x,-y,-z
x,-y,1/2+z
1/2+x,1/2+y,z
1/2-x,1/2+y,1/2-z
1/2-x,1/2-y,-z
1/2+x,1/2-y,1/2+z
loop_
_atom_site_type_symbol
_atom_site_label
_atom_site_fract_x
_atom_site_fract_y
_atom_site_fract_z
Si Si1 0.000000 0.876110 0.750000
Si Si2 0.979699 0.391927 0.014411
Si Si3 0.742825 0.655089 0.549552
Si Si4 0.422098 0.388601 0.070606
Si Si5 0.881712 0.996862 0.951078
Si Si6 0.143160 0.714313 0.308741
Si Si7 0.500000 0.724275 0.750000
Si Si8 0.912971 0.225009 0.143777
O O1 0.938164 0.813694 0.717673
O O2 0.913006 0.939309 0.854128
O O3 0.859515 0.365844 0.033947
O O4 0.954726 0.329551 0.107187
O O5 0.000000 0.500000 0.000000
O O6 0.096520 0.350412 0.904563
O O7 0.750000 0.750000 0.500000
O O8 0.717748 0.571435 0.506857
O O9 0.616695 0.663963 0.667900
O O10 0.496310 0.454439 0.086449
O O11 0.351919 0.316247 0.161078
O O12 0.344623 0.438499 0.048576
O O13 0.513803 0.331348 0.963882
O O14 0.275740 0.700341 0.202349
O O15 0.040301 0.714748 0.300716
#
# Coordination Sequence:
#
# PCOD9271692 Si02
#       8
#     4   8   8   8   8   8   4   8
#     4  10  23  40  65  94 116 172 226 269 312 393
#     4  11  25  44  63  96 134 172 216 278 341 400
#     4  12  22  40  64  91 131 167 208 269 324 393
#     4   9  20  39  59  92 129 156 206 271 317 377
#     4  10  20  36  60  94 118 156 214 262 311 376
#     4  11  22  40  66  92 125 176 212 263 339 389
#     4  12  21  36  67  94 114 170 220 247 318 389
#     4  10  22  44  64  88 134 171 213 272 334 395
#
# _framework density 20.167943000000001
#
# number of rings (size 3 to 8) (size 9 to 14) (size 15 to 20)
#    0.000    1.429    4.286    1.286    2.000    0.000 
#    7.714    2.857    0.000    0.000    0.000    0.000 
#    0.000    0.000    0.000    0.000    0.000    0.000 
#
# Total GULP energy -156119.055298 kJ/mol
# GULP energy per Si atom -5575.680546 kJ/mol
# Density = 2.012204 g / cm^3
# Si number density = 20.167943 Si / 1000 Ang^3
#
#
#
# Elastic Constant Matrix: (Units=GPa)
#
#
# Indices 1 2 3 4 5 6 
#
# 1 73.0482 40.3571 24.8449 0.0000 10.4878 0.0000
# 2 40.3571 124.7426 24.9840 0.0000 15.4835 0.0000
# 3 24.8449 24.9840 55.8017 0.0000 0.6655 0.0000
# 4 0.0000 0.0000 0.0000 12.0154 0.0000 -1.8434
# 5 10.4878 15.4835 0.6655 0.0000 34.9178 0.0000
# 6 0.0000 0.0000 0.0000 -1.8434 0.0000 35.3948
#
#
#
# Elastic Compliance Matrix: (Units=1/GPa)
#
#
# Indices 1 2 3 4 5 6 
#
# 1 0.018776 -0.004354 -0.006367 0.000000 -0.003587 0.000000
# 2 -0.004354 0.010360 -0.002661 0.000000 -0.003235 0.000000
# 3 -0.006367 -0.002661 0.021915 0.000000 0.002675 0.000000
# 4 0.000000 0.000000 0.000000 0.083897 0.000000 0.004369
# 5 -0.003587 -0.003235 0.002675 0.000000 0.031100 0.000000
# 6 0.000000 0.000000 0.000000 0.004369 0.000000 0.028480
#
#
# Mechanical properties :
#
#
# Convention : Reuss Voigt Hill
#
# Bulk Modulus (GPa) = 41.17682 48.21829 44.69756
# Shear Modulus (GPa) = 21.79714 27.35937 24.57826
#
# Velocity S-wave (km/s) = 3.29109 3.68717 3.49475
# Velocity P-wave (km/s) = 5.90788 6.48747 6.20444
#
# Compressibility (1/GPa) = 0.02428551
#
# Stress axis : x y z
#
# Youngs Moduli (GPa) = 53.26041 96.52838 45.63031
#
# Poissons Ratio (x) = 0.42026 0.29055
# Poissons Ratio (y) = 0.23188 0.12143
# Poissons Ratio (z) = 0.33914 0.25689
#
# Static dielectric constant tensor:
#      x y z
#    x 1.759490 0.000000 0.031540 
#    y 0.000000 1.782480 0.000000 
#    z 0.031540 0.000000 1.751230 
# 
# From -- ./inp_files/205379.got.cif
#   From: 2010.05.17/outbox.cif.g08.bks.cpg/sg15_103_cif.got.tgz:205379.got - 2010.06.03 18:47:42.
