data_PCOD9271661
_publ_section_title
;
Structure prediction by ZEFSAII (Michael W. Deem and Ramdas Pophale) SiO2 
 PCOD9271661
Probable space group: C 2/C
;
_chemical_formula_sum "Si O2"
_cell_formula_units_Z 60
_cell_length_a 21.070275
_cell_length_b 23.855624
_cell_length_c 16.265616
_cell_angle_alpha 90.000000
_cell_angle_beta 160.404304
_cell_angle_gamma 90.000000
_cell_volume 2742.014200
_symmetry_space_group_name_H-M "C 2/C"
_symmetry_group_IT_number 15
_symmetry_cell_setting 'monoclinic'
loop_
_space_group_symop_operation_xyz
x,y,z
-x,y,1/2-z
-x,-y,-z
x,-y,1/2+z
1/2+x,1/2+y,z
1/2-x,1/2+y,1/2-z
1/2-x,1/2-y,-z
1/2+x,1/2-y,1/2+z
loop_
_atom_site_type_symbol
_atom_site_label
_atom_site_fract_x
_atom_site_fract_y
_atom_site_fract_z
Si Si1 0.934339 0.682419 0.422428
Si Si2 0.500000 0.509784 0.750000
Si Si3 0.808382 0.406176 0.358212
Si Si4 0.050616 0.043990 0.135801
Si Si5 0.537945 0.725863 0.922993
Si Si6 0.585020 0.996417 0.696674
Si Si7 0.690403 0.830799 0.007999
Si Si8 0.939516 0.389454 0.084713
O O1 0.709808 0.683426 0.136467
O O2 0.963053 0.662466 0.550922
O O3 0.039802 0.635187 0.497778
O O4 0.996948 0.743589 0.461937
O O5 0.424298 0.481993 0.743018
O O6 0.292939 0.530928 0.462267
O O7 0.703381 0.372056 0.301097
O O8 0.922162 0.457489 0.536404
O O9 0.647498 0.422866 0.098640
O O10 0.227702 0.083350 0.327856
O O11 0.000000 0.000000 0.000000
O O12 0.600967 0.778835 0.947488
O O13 0.356539 0.696790 0.659681
O O14 0.500000 0.000000 0.500000
O O15 0.570635 0.058736 0.714776
O O16 0.500000 0.861734 0.750000
O O17 0.000000 0.373641 0.250000
#
# Coordination Sequence:
#
# PCOD9271661 Si02
#       8
#     8   4   8   8   8   8   8   8
#     4  10  21  41  65  90 120 165 215 266 332 394
#     4  12  24  40  64  88 128 194 220 266 334 376
#     4  11  23  39  62  92 130 173 211 269 316 391
#     4  12  24  40  65  93 133 182 223 267 323 388
#     4   9  20  40  64  85 121 164 207 274 339 390
#     4  12  22  43  62  90 138 172 218 270 318 392
#     4  10  20  36  60  91 122 159 213 263 329 397
#     4  12  23  39  65  97 126 170 219 264 324 399
#
# _framework density 21.881723999999998
#
# number of rings (size 3 to 8) (size 9 to 14) (size 15 to 20)
#    0.000    1.067    5.333    1.200    0.000    1.600 
#    2.400    0.667    0.000    0.000    0.000    0.000 
#    0.000    0.000    0.000    0.000    0.000    0.000 
#
# Total GULP energy -167023.149363 kJ/mol
# GULP energy per Si atom -5567.438312 kJ/mol
# Density = 2.183192 g / cm^3
# Si number density = 21.881724 Si / 1000 Ang^3
#
#
#
# Elastic Constant Matrix: (Units=GPa)
#
#
# Indices 1 2 3 4 5 6 
#
# 1 78.3966 14.7742 20.0295 0.0000 -7.6122 0.0000
# 2 14.7742 33.3096 19.5994 0.0000 -4.5330 0.0000
# 3 20.0295 19.5994 129.9507 0.0001 9.9608 0.0000
# 4 0.0000 0.0000 0.0001 28.8013 0.0000 -2.5737
# 5 -7.6122 -4.5330 9.9608 0.0000 48.3649 0.0000
# 6 0.0000 0.0000 0.0000 -2.5737 0.0000 22.4187
#
#
#
# Elastic Compliance Matrix: (Units=1/GPa)
#
#
# Indices 1 2 3 4 5 6 
#
# 1 0.014335 -0.005132 -0.001597 0.000000 0.002104 0.000000
# 2 -0.005132 0.035635 -0.004854 0.000000 0.003532 0.000000
# 3 -0.001597 -0.004854 0.008868 0.000000 -0.002533 0.000000
# 4 0.000000 0.000000 0.000000 0.035080 0.000000 0.004027
# 5 0.002104 0.003532 -0.002533 0.000000 0.021860 0.000000
# 6 0.000000 0.000000 0.000000 0.004027 0.000000 0.045068
#
#
# Mechanical properties :
#
#
# Convention : Reuss Voigt Hill
#
# Bulk Modulus (GPa) = 28.03407 38.94034 33.48721
# Shear Modulus (GPa) = 25.52292 32.40057 28.96174
#
# Velocity S-wave (km/s) = 3.41897 3.85218 3.64202
# Velocity P-wave (km/s) = 5.33153 6.13353 5.74654
#
# Compressibility (1/GPa) = 0.03567088
#
# Stress axis : x y z
#
# Youngs Moduli (GPa) = 69.75873 28.06257 112.77070
#
# Poissons Ratio (x) = 0.14403 0.18006
# Poissons Ratio (y) = 0.35803 0.54740
# Poissons Ratio (z) = 0.11138 0.13622
#
# Static dielectric constant tensor:
#      x y z
#    x 1.898820 0.000000 0.008550 
#    y 0.000000 1.846880 0.000000 
#    z 0.008550 0.000000 1.940170 
# 
# From -- ./inp_files/169972.got.cif
#   From: 2010.05.17/outbox.cif.g08.bks.cpg/sg15_85_cif.got.tgz:169972.got - 2010.06.03 18:47:42.
