data_PCOD9271769
_publ_section_title
;
Structure prediction by ZEFSAII (Michael W. Deem and Ramdas Pophale) SiO2 
 PCOD9271769
Probable space group: C 2/C
;
_chemical_formula_sum "Si O2"
_cell_formula_units_Z 48
_cell_length_a 14.036411
_cell_length_b 11.415772
_cell_length_c 26.158847
_cell_angle_alpha 90.000000
_cell_angle_beta 28.450905
_cell_angle_gamma 90.000000
_cell_volume 1996.902110
_symmetry_space_group_name_H-M "C 2/C"
_symmetry_group_IT_number 15
_symmetry_cell_setting 'monoclinic'
loop_
_space_group_symop_operation_xyz
x,y,z
-x,y,1/2-z
-x,-y,-z
x,-y,1/2+z
1/2+x,1/2+y,z
1/2-x,1/2+y,1/2-z
1/2-x,1/2-y,-z
1/2+x,1/2-y,1/2+z
loop_
_atom_site_type_symbol
_atom_site_label
_atom_site_fract_x
_atom_site_fract_y
_atom_site_fract_z
Si Si1 0.832350 0.189759 0.648066
Si Si2 0.653858 0.549769 0.383853
Si Si3 0.178528 0.707623 0.910808
Si Si4 0.171609 0.868460 0.061132
Si Si5 0.597845 0.091757 0.537117
Si Si6 0.000431 0.181556 0.144529
O O1 0.696504 0.295556 0.730597
O O2 0.988305 0.243297 0.533770
O O3 0.956020 0.131611 0.636906
O O4 0.721913 0.069934 0.682517
O O5 0.500000 0.500000 0.500000
O O6 0.760584 0.669631 0.350375
O O7 0.539136 0.602629 0.387484
O O8 0.082631 0.615590 0.916451
O O9 0.330199 0.646273 0.877436
O O10 0.342879 0.965315 0.969698
O O11 0.250000 0.750000 0.000000
O O12 0.560926 0.188281 0.597835
O O13 0.814224 0.129256 0.412001
#
# Coordination Sequence:
#
# PCOD9271769 Si02
#       6
#     8   8   8   8   8   8
#     4  10  20  36  61  90 121 162 210 261 301 365
#     4   9  18  38  62  85 125 165 202 255 308 369
#     4   9  20  36  64  87 123 166 207 244 320 377
#     4  10  20  37  61  88 121 160 199 253 317 368
#     4  10  20  39  61  88 125 164 207 246 316 383
#     4  10  21  36  65  92 119 167 214 255 309 373
#
# _framework density 24.037231999999999
#
# number of rings (size 3 to 8) (size 9 to 14) (size 15 to 20)
#    0.000    2.333    1.667    0.500    0.000    3.333 
#    0.000    3.333   22.000    0.000    0.000    0.000 
#    0.000    0.000    0.000    0.000    0.000    0.000 
#
# Total GULP energy -133619.641643 kJ/mol
# GULP energy per Si atom -5567.485068 kJ/mol
# Density = 2.398252 g / cm^3
# Si number density = 24.037232 Si / 1000 Ang^3
#
#
#
# Elastic Constant Matrix: (Units=GPa)
#
#
# Indices 1 2 3 4 5 6 
#
# 1 35.5851 5.2827 0.5369 0.0002 -3.4222 -0.0005
# 2 5.2827 110.2718 11.1986 -0.0037 -0.9467 -0.0020
# 3 0.5369 11.1986 36.8178 -0.0096 -0.2020 -0.0029
# 4 0.0002 -0.0037 -0.0096 29.8385 -0.0004 5.6269
# 5 -3.4222 -0.9467 -0.2020 -0.0004 11.9950 0.0005
# 6 -0.0005 -0.0020 -0.0029 5.6269 0.0005 25.6403
#
#
#
# Elastic Compliance Matrix: (Units=1/GPa)
#
#
# Indices 1 2 3 4 5 6 
#
# 1 0.029086 -0.001325 0.000024 0.000000 0.008194 0.000000
# 2 -0.001325 0.009424 -0.002845 0.000000 0.000318 0.000000
# 3 0.000024 -0.002845 0.028027 0.000008 0.000254 0.000001
# 4 0.000000 0.000000 0.000008 0.034961 0.000002 -0.007672
# 5 0.008194 0.000318 0.000254 0.000002 0.085735 -0.000002
# 6 0.000000 0.000000 0.000001 -0.007672 -0.000002 0.040685
#
#
# Mechanical properties :
#
#
# Convention : Reuss Voigt Hill
#
# Bulk Modulus (GPa) = 17.16933 24.07903 20.62418
# Shear Modulus (GPa) = 19.55987 24.53853 22.04920
#
# Velocity S-wave (km/s) = 2.85569 3.19855 3.03197
# Velocity P-wave (km/s) = 4.24637 4.86622 4.56682
#
# Compressibility (1/GPa) = 0.05824339
#
# Stress axis : x y z
#
# Youngs Moduli (GPa) = 34.38072 106.11571 35.67960
#
# Poissons Ratio (x) = 0.14065 -0.00085
# Poissons Ratio (y) = 0.04557 0.10152
# Poissons Ratio (z) = -0.00082 0.30193
#
# Static dielectric constant tensor:
#      x y z
#    x 2.090200 0.000000 0.038800 
#    y 0.000000 1.999420 0.000000 
#    z 0.038800 0.000000 2.009910 
# 
# From -- ./inp_files/177882.got.cif
#   From: 2010.05.17/outbox.cif.g08.bks.cpg/sg15_89_cif.got.tgz:177882.got - 2010.06.03 18:47:42.
