data_PCOD9271102
_publ_section_title
;
Structure prediction by ZEFSAII (Michael W. Deem and Ramdas Pophale) SiO2 
 PCOD9271102
Probable space group: C 2/C
;
_chemical_formula_sum "Si O2"
_cell_formula_units_Z 40
_cell_length_a 17.052764
_cell_length_b 12.756281
_cell_length_c 28.173245
_cell_angle_alpha 90.000000
_cell_angle_beta 19.088275
_cell_angle_gamma 90.000000
_cell_volume 2004.176868
_symmetry_space_group_name_H-M "C 2/C"
_symmetry_group_IT_number 15
_symmetry_cell_setting 'monoclinic'
loop_
_space_group_symop_operation_xyz
x,y,z
-x,y,1/2-z
-x,-y,-z
x,-y,1/2+z
1/2+x,1/2+y,z
1/2-x,1/2+y,1/2-z
1/2-x,1/2-y,-z
1/2+x,1/2-y,1/2+z
loop_
_atom_site_type_symbol
_atom_site_label
_atom_site_fract_x
_atom_site_fract_y
_atom_site_fract_z
Si Si1 0.599203 0.033101 0.392570
Si Si2 0.664543 0.324513 0.111457
Si Si3 0.570938 0.375029 0.055378
Si Si4 0.927487 0.892475 0.922987
Si Si5 0.061536 0.668606 0.848857
O O1 0.414747 0.114194 0.474218
O O2 0.868479 0.079472 0.233469
O O3 0.500000 0.000000 0.500000
O O4 0.584247 0.925476 0.372421
O O5 0.500000 0.355697 0.250000
O O6 0.565870 0.352037 0.115557
O O7 0.719385 0.200600 0.082212
O O8 0.596261 0.499575 0.034494
O O9 0.320959 0.336345 0.175668
O O10 0.022564 0.784983 0.892049
O O11 0.668763 0.861622 0.050549
#
# Coordination Sequence:
#
# PCOD9271102 Si02
#       5
#     8   8   8   8   8
#     4  11  22  36  59  87 118 146 195 246 287 338
#     4  11  21  37  58  88 115 150 201 234 286 346
#     4  10  21  37  61  82 117 157 189 240 287 347
#     4  10  20  37  60  82 113 151 191 235 290 350
#     4  10  20  36  57  84 112 149 188 236 291 342
#
# _framework density 19.958318999999999
#
# number of rings (size 3 to 8) (size 9 to 14) (size 15 to 20)
#    0.000    1.600    4.000    2.400    0.000    0.000 
#    0.000    0.000    8.800    3.600    0.000    0.000 
#    0.000    0.000    0.000    0.000    0.000    0.000 
#
# Total GULP energy -111416.332643 kJ/mol
# GULP energy per Si atom -5570.816632 kJ/mol
# Density = 1.991289 g / cm^3
# Si number density = 19.958319 Si / 1000 Ang^3
#
#
#
# Elastic Constant Matrix: (Units=GPa)
#
#
# Indices 1 2 3 4 5 6 
#
# 1 19.9532 -4.3686 18.6391 0.0055 -12.0420 -0.0069
# 2 -4.3686 164.7949 14.1160 -0.0251 -18.6425 -0.0046
# 3 18.6391 14.1160 72.5194 -0.0672 -23.0982 0.0108
# 4 0.0055 -0.0251 -0.0672 35.5797 -0.0136 -11.5455
# 5 -12.0420 -18.6425 -23.0982 -0.0136 31.4036 0.0165
# 6 -0.0069 -0.0046 0.0108 -11.5455 0.0165 8.0409
#
#
#
# Elastic Compliance Matrix: (Units=1/GPa)
#
#
# Indices 1 2 3 4 5 6 
#
# 1 0.078500 0.005918 -0.013871 -0.000022 0.023412 0.000009
# 2 0.005918 0.006951 -0.001093 0.000007 0.005592 0.000009
# 3 -0.013871 -0.001093 0.020460 0.000046 0.009081 0.000007
# 4 -0.000022 0.000007 0.000046 0.052626 0.000012 0.075563
# 5 0.023412 0.005592 0.009081 0.000012 0.050820 -0.000076
# 6 0.000009 0.000009 0.000007 0.075563 -0.000076 0.232862
#
#
# Mechanical properties :
#
#
# Convention : Reuss Voigt Hill
#
# Bulk Modulus (GPa) = 11.38725 34.89338 23.14032
# Shear Modulus (GPa) = 10.21276 30.26356 20.23816
#
# Velocity S-wave (km/s) = 2.26454 3.89824 3.18782
# Velocity P-wave (km/s) = 3.54337 6.14677 5.01688
#
# Compressibility (1/GPa) = 0.08781748
#
# Stress axis : x y z
#
# Youngs Moduli (GPa) = 12.73892 143.85977 48.87650
#
# Poissons Ratio (x) = -0.85130 0.67797
# Poissons Ratio (y) = -0.07538 0.05342
# Poissons Ratio (z) = 0.17670 0.15723
#
# Static dielectric constant tensor:
#      x y z
#    x 1.685150 0.000020 -0.007290 
#    y 0.000020 1.729580 0.000000 
#    z -0.007290 0.000000 1.850020 
# 
# From -- ./inp_files/103566.got.cif
#   From: 2010.05.17/outbox.cif.g08.bks.cpg/sg15_52_cif.got.tgz:103566.got - 2010.06.03 18:47:42.
