data_PCOD9271525
_publ_section_title
;
Structure prediction by ZEFSAII (Michael W. Deem and Ramdas Pophale) SiO2 
 PCOD9271525
Probable space group: C 2/C
;
_chemical_formula_sum "Si O2"
_cell_formula_units_Z 44
_cell_length_a 7.337185
_cell_length_b 31.773612
_cell_length_c 9.296812
_cell_angle_alpha 90.000000
_cell_angle_beta 108.792894
_cell_angle_gamma 90.000000
_cell_volume 2051.811873
_symmetry_space_group_name_H-M "C 2/C"
_symmetry_group_IT_number 15
_symmetry_cell_setting 'monoclinic'
loop_
_space_group_symop_operation_xyz
x,y,z
-x,y,1/2-z
-x,-y,-z
x,-y,1/2+z
1/2+x,1/2+y,z
1/2-x,1/2+y,1/2-z
1/2-x,1/2-y,-z
1/2+x,1/2-y,1/2+z
loop_
_atom_site_type_symbol
_atom_site_label
_atom_site_fract_x
_atom_site_fract_y
_atom_site_fract_z
Si Si1 0.901155 0.055165 0.525121
Si Si2 0.001791 0.454406 0.578325
Si Si3 0.809191 0.592630 0.611221
Si Si4 0.000000 0.020736 0.250000
Si Si5 0.667802 0.807598 0.405817
Si Si6 0.020181 0.747570 0.422723
O O1 0.691210 0.073435 0.501545
O O2 0.897949 0.077004 0.884428
O O3 0.903189 0.047100 0.353208
O O4 0.893043 0.012280 0.616272
O O5 0.000000 0.461258 0.750000
O O6 0.000000 0.500000 0.500000
O O7 0.167010 0.428384 0.539817
O O8 0.807266 0.642788 0.603933
O O9 0.000000 0.579183 0.750000
O O10 0.500000 0.793277 0.250000
O O11 0.571993 0.793922 0.530650
O O12 0.874564 0.784475 0.441647
O O13 0.250000 0.750000 0.500000
O O14 0.000000 0.747426 0.250000
#
# Coordination Sequence:
#
# PCOD9271525 Si02
#       6
#     8   8   8   4   8   8
#     4  11  21  39  59  86 118 163 211 273 317 373
#     4  12  24  40  65  90 122 172 229 274 325 385
#     4  11  25  42  61  93 133 170 211 267 327 388
#     4  10  20  36  60  80 114 160 220 258 314 364
#     4  10  23  43  66 100 136 168 219 274 324 407
#     4  11  22  42  73 101 129 175 220 266 332 402
#
# _framework density 21.444462000000001
#
# number of rings (size 3 to 8) (size 9 to 14) (size 15 to 20)
#    0.000    1.091    1.818    6.000    0.000    2.182 
#    1.636    3.636    0.000    0.000    0.000    0.000 
#    0.000    0.000    0.000    0.000    0.000    0.000 
#
# Total GULP energy -122539.937652 kJ/mol
# GULP energy per Si atom -5569.997166 kJ/mol
# Density = 2.139565 g / cm^3
# Si number density = 21.444462 Si / 1000 Ang^3
#
#
#
# Elastic Constant Matrix: (Units=GPa)
#
#
# Indices 1 2 3 4 5 6 
#
# 1 215.3218 48.3763 42.8883 0.0000 6.4933 0.0000
# 2 48.3763 54.4819 3.1635 0.0000 5.9876 0.0000
# 3 42.8883 3.1635 101.5827 0.0000 -3.6870 0.0000
# 4 0.0000 0.0000 0.0000 20.1378 0.0000 4.0235
# 5 6.4933 5.9876 -3.6870 0.0000 36.0596 0.0000
# 6 0.0000 0.0000 0.0000 4.0235 0.0000 13.7608
#
#
#
# Elastic Compliance Matrix: (Units=1/GPa)
#
#
# Indices 1 2 3 4 5 6 
#
# 1 0.006398 -0.005477 -0.002549 0.000000 -0.000503 0.000000
# 2 -0.005477 0.023435 0.001483 0.000000 -0.002753 0.000000
# 3 -0.002549 0.001483 0.010922 0.000000 0.001330 0.000000
# 4 0.000000 0.000000 0.000000 0.052739 0.000000 -0.015420
# 5 -0.000503 -0.002753 0.001330 0.000000 0.028416 0.000000
# 6 0.000000 0.000000 0.000000 -0.015420 0.000000 0.077179
#
#
# Mechanical properties :
#
#
# Convention : Reuss Voigt Hill
#
# Bulk Modulus (GPa) = 36.14274 62.24918 49.19596
# Shear Modulus (GPa) = 22.58377 32.45552 27.51964
#
# Velocity S-wave (km/s) = 3.24871 3.89455 3.58620
# Velocity P-wave (km/s) = 5.56443 7.02243 6.33551
#
# Compressibility (1/GPa) = 0.02766808
#
# Stress axis : x y z
#
# Youngs Moduli (GPa) = 156.30703 42.67159 91.55525
#
# Poissons Ratio (x) = 0.23373 0.23335
# Poissons Ratio (y) = 0.85616 -0.13576
# Poissons Ratio (z) = 0.39839 -0.06327
#
# Static dielectric constant tensor:
#      x y z
#    x 1.476740 0.000000 -0.139070 
#    y 0.000000 1.741690 0.000000 
#    z -0.139070 0.000000 1.702200 
# 
# From -- ./inp_files/25623.got.cif
#   From: 2010.05.17/outbox.cif.g08.bks.cpg/sg15_13_cif.got.tgz:25623.got - 2010.06.03 18:47:42.
