data_PCOD9271830
_publ_section_title
;
Structure prediction by ZEFSAII (Michael W. Deem and Ramdas Pophale) SiO2 
 PCOD9271830
Probable space group: C 2/C
;
_chemical_formula_sum "Si O2"
_cell_formula_units_Z 40
_cell_length_a 18.567451
_cell_length_b 21.565706
_cell_length_c 9.256974
_cell_angle_alpha 90.000000
_cell_angle_beta 31.691772
_cell_angle_gamma 90.000000
_cell_volume 1947.301976
_symmetry_space_group_name_H-M "C 2/C"
_symmetry_group_IT_number 15
_symmetry_cell_setting 'monoclinic'
loop_
_space_group_symop_operation_xyz
x,y,z
-x,y,1/2-z
-x,-y,-z
x,-y,1/2+z
1/2+x,1/2+y,z
1/2-x,1/2+y,1/2-z
1/2-x,1/2-y,-z
1/2+x,1/2-y,1/2+z
loop_
_atom_site_type_symbol
_atom_site_label
_atom_site_fract_x
_atom_site_fract_y
_atom_site_fract_z
Si Si1 0.000000 0.353762 0.250000
Si Si2 0.500000 0.295428 0.250000
Si Si3 0.664273 0.065120 0.980948
Si Si4 0.229792 0.746979 0.362111
Si Si5 0.807611 0.183927 0.837075
Si Si6 0.625471 0.955970 0.237996
O O1 0.868224 0.311170 0.508012
O O2 0.945743 0.397618 0.215509
O O3 0.382604 0.257060 0.534006
O O4 0.572554 0.331993 0.255558
O O5 0.711328 0.124493 0.990649
O O6 0.709085 0.063257 0.736880
O O7 0.500000 0.069892 0.250000
O O8 0.701881 0.000080 0.992969
O O9 0.250000 0.750000 0.500000
O O10 0.159023 0.800732 0.387203
O O11 0.750000 0.250000 0.000000
O O12 0.500000 0.000000 0.500000
#
# Coordination Sequence:
#
# PCOD9271830 Si02
#       6
#     4   4   8   8   8   8
#     4  12  22  38  69  98 133 168 226 288 336 398
#     4  10  24  40  59  92 133 180 220 260 342 412
#     4  10  21  35  62  93 126 161 222 284 338 386
#     4  11  24  41  65  97 140 181 225 280 343 411
#     4  10  23  37  61  91 134 182 221 268 339 416
#     4  10  20  36  61  99 121 162 221 298 335 370
#
# _framework density 20.541242
#
# number of rings (size 3 to 8) (size 9 to 14) (size 15 to 20)
#    0.000    1.600    3.000    2.400   16.800    0.000 
#    0.000    0.000    0.000    4.800    0.000    0.000 
#    0.000    0.000    0.000    0.000    0.000    0.000 
#
# Total GULP energy -111342.131107 kJ/mol
# GULP energy per Si atom -5567.106555 kJ/mol
# Density = 2.049449 g / cm^3
# Si number density = 20.541242 Si / 1000 Ang^3
#
#
#
# Elastic Constant Matrix: (Units=GPa)
#
#
# Indices 1 2 3 4 5 6 
#
# 1 189.8794 53.2500 33.7631 -0.0010 20.4984 0.0006
# 2 53.2500 97.6299 19.9855 -0.0009 -6.0434 0.0005
# 3 33.7631 19.9855 63.4687 -0.0024 11.5926 0.0015
# 4 -0.0010 -0.0009 -0.0024 17.2795 0.0013 0.3094
# 5 20.4984 -6.0434 11.5926 0.0013 27.1228 -0.0008
# 6 0.0006 0.0005 0.0015 0.3094 -0.0008 45.6459
#
#
#
# Elastic Compliance Matrix: (Units=1/GPa)
#
#
# Indices 1 2 3 4 5 6 
#
# 1 0.007288 -0.004009 -0.001568 0.000000 -0.005731 0.000000
# 2 -0.004009 0.013624 -0.003542 -0.000001 0.007579 0.000000
# 3 -0.001568 -0.003542 0.019126 0.000003 -0.007779 -0.000001
# 4 0.000000 -0.000001 0.000003 0.057879 -0.000005 -0.000392
# 5 -0.005731 0.007579 -0.007779 -0.000005 0.046214 0.000001
# 6 0.000000 0.000000 -0.000001 -0.000392 0.000001 0.021910
#
#
# Mechanical properties :
#
#
# Convention : Reuss Voigt Hill
#
# Bulk Modulus (GPa) = 45.87004 62.77505 54.32254
# Shear Modulus (GPa) = 26.10345 34.27493 30.18919
#
# Velocity S-wave (km/s) = 3.56867 4.08927 3.83781
# Velocity P-wave (km/s) = 6.27373 7.27482 6.79274
#
# Compressibility (1/GPa) = 0.02180072
#
# Stress axis : x y z
#
# Youngs Moduli (GPa) = 137.20543 73.40224 52.28529
#
# Poissons Ratio (x) = 0.29428 0.08198
# Poissons Ratio (y) = 0.55007 0.18517
# Poissons Ratio (z) = 0.21512 0.25996
#
# Static dielectric constant tensor:
#      x y z
#    x 1.847850 0.000000 0.038480 
#    y 0.000000 1.784640 0.000000 
#    z 0.038480 0.000000 1.824350 
# 
# From -- ./inp_files/30222.got.cif
#   From: 2010.05.17/outbox.cif.g08.bks.cpg/sg15_16_cif.got.tgz:30222.got - 2010.06.03 18:47:42.
