data_PCOD9271213
_publ_section_title
;
Structure prediction by ZEFSAII (Michael W. Deem and Ramdas Pophale) SiO2 
 PCOD9271213
Probable space group: C 2/C
;
_chemical_formula_sum "Si O2"
_cell_formula_units_Z 44
_cell_length_a 6.480643
_cell_length_b 22.588451
_cell_length_c 13.194497
_cell_angle_alpha 90.000000
_cell_angle_beta 101.911517
_cell_angle_gamma 90.000000
_cell_volume 1889.921647
_symmetry_space_group_name_H-M "C 2/C"
_symmetry_group_IT_number 15
_symmetry_cell_setting 'monoclinic'
loop_
_space_group_symop_operation_xyz
x,y,z
-x,y,1/2-z
-x,-y,-z
x,-y,1/2+z
1/2+x,1/2+y,z
1/2-x,1/2+y,1/2-z
1/2-x,1/2-y,-z
1/2+x,1/2-y,1/2+z
loop_
_atom_site_type_symbol
_atom_site_label
_atom_site_fract_x
_atom_site_fract_y
_atom_site_fract_z
Si Si1 0.041161 0.213668 0.947182
Si Si2 0.654851 0.102999 0.348996
Si Si3 0.372612 0.861634 0.417583
Si Si4 0.500000 0.559003 0.250000
Si Si5 0.112708 0.755547 0.863560
Si Si6 0.586610 0.007029 0.622654
O O1 0.130738 0.160804 0.889493
O O2 0.934176 0.202355 0.045546
O O3 0.250000 0.250000 0.000000
O O4 0.860811 0.249210 0.872086
O O5 0.500000 0.131539 0.250000
O O6 0.611923 0.127155 0.457816
O O7 0.884235 0.099184 0.322697
O O8 0.591793 0.033493 0.345305
O O9 0.520189 0.809315 0.388927
O O10 0.407809 0.922595 0.362493
O O11 0.684722 0.521378 0.326392
O O12 0.000000 0.772604 0.750000
O O13 0.500000 0.000000 0.500000
#
# Coordination Sequence:
#
# PCOD9271213 Si02
#       6
#     8   8   8   4   8   8
#     4   9  21  41  59  87 119 151 202 247 309 367
#     4   9  20  38  55  87 124 162 205 253 293 360
#     4  10  21  37  59  88 118 159 203 253 300 372
#     4  10  20  36  58  82 124 168 204 240 310 342
#     4  10  22  41  62  87 123 159 195 256 312 365
#     4   9  20  35  55  82 119 158 201 251 292 354
#
# _framework density 23.281388
#
# number of rings (size 3 to 8) (size 9 to 14) (size 15 to 20)
#    0.000    2.545    0.000    0.000    0.000   15.273 
#   11.455    0.000    0.000    0.000    0.000    0.000 
#    0.000    0.000    0.000    0.000    0.000    0.000 
#
# Total GULP energy -122525.688503 kJ/mol
# GULP energy per Si atom -5569.349477 kJ/mol
# Density = 2.322840 g / cm^3
# Si number density = 23.281388 Si / 1000 Ang^3
#
#
#
# Elastic Constant Matrix: (Units=GPa)
#
#
# Indices 1 2 3 4 5 6 
#
# 1 122.5167 36.3019 24.7963 0.0000 15.2582 0.0000
# 2 36.3019 118.8245 2.1766 0.0000 -9.2684 0.0000
# 3 24.7963 2.1766 94.3709 0.0000 13.0175 0.0000
# 4 0.0000 0.0000 0.0000 25.9405 0.0000 -10.3634
# 5 15.2582 -9.2684 13.0175 0.0000 38.3460 0.0000
# 6 0.0000 0.0000 0.0000 -10.3634 0.0000 5.7290
#
#
#
# Elastic Compliance Matrix: (Units=1/GPa)
#
#
# Indices 1 2 3 4 5 6 
#
# 1 0.010081 -0.003367 -0.001999 0.000000 -0.004146 0.000000
# 2 -0.003367 0.009725 0.000159 0.000000 0.003636 0.000000
# 3 -0.001999 0.000159 0.011544 0.000000 -0.003085 0.000000
# 4 0.000000 0.000000 0.000000 0.139005 0.000000 0.251451
# 5 -0.004146 0.003636 -0.003085 0.000000 0.029654 0.000000
# 6 0.000000 0.000000 0.000000 0.251451 0.000000 0.629407
#
#
# Mechanical properties :
#
#
# Convention : Reuss Voigt Hill
#
# Bulk Modulus (GPa) = 47.76618 51.36241 49.56429
# Shear Modulus (GPa) = 5.90453 32.16560 19.03507
#
# Velocity S-wave (km/s) = 1.59426 3.72102 2.86249
# Velocity P-wave (km/s) = 4.89391 6.36952 5.67984
#
# Compressibility (1/GPa) = 0.02093531
#
# Stress axis : x y z
#
# Youngs Moduli (GPa) = 99.20013 102.82783 86.62777
#
# Poissons Ratio (x) = 0.34617 0.17318
# Poissons Ratio (y) = 0.33396 -0.01375
# Poissons Ratio (z) = 0.19832 -0.01632
#
# Static dielectric constant tensor:
#      x y z
#    x 1.963220 0.000000 -0.148860 
#    y 0.000000 1.969410 0.000000 
#    z -0.148860 0.000000 2.382250 
# 
# From -- ./inp_files/129803.got.cif
#   From: 2010.05.17/outbox.cif.g08.bks.cpg/sg15_65_cif.got.tgz:129803.got - 2010.06.03 18:47:42.
