data_PCOD9271027
_publ_section_title
;
Structure prediction by ZEFSAII (Michael W. Deem and Ramdas Pophale) SiO2 
 PCOD9271027
Probable space group: C 2/C
;
_chemical_formula_sum "Si O2"
_cell_formula_units_Z 44
_cell_length_a 15.122099
_cell_length_b 11.065249
_cell_length_c 12.651244
_cell_angle_alpha 90.000000
_cell_angle_beta 59.488440
_cell_angle_gamma 90.000000
_cell_volume 1823.791816
_symmetry_space_group_name_H-M "C 2/C"
_symmetry_group_IT_number 15
_symmetry_cell_setting 'monoclinic'
loop_
_space_group_symop_operation_xyz
x,y,z
-x,y,1/2-z
-x,-y,-z
x,-y,1/2+z
1/2+x,1/2+y,z
1/2-x,1/2+y,1/2-z
1/2-x,1/2-y,-z
1/2+x,1/2-y,1/2+z
loop_
_atom_site_type_symbol
_atom_site_label
_atom_site_fract_x
_atom_site_fract_y
_atom_site_fract_z
Si Si1 0.750192 0.750919 0.814285
Si Si2 0.466651 0.632596 0.553454
Si Si3 0.652105 0.030736 0.497165
Si Si4 0.937746 0.642230 0.630755
Si Si5 0.000000 0.759727 0.250000
Si Si6 0.782379 0.654607 0.391163
O O1 0.655690 0.656856 0.862692
O O2 0.712245 0.853857 0.916325
O O3 0.857925 0.685249 0.767980
O O4 0.768414 0.818312 0.689897
O O5 0.500000 0.500000 0.500000
O O6 0.511374 0.739293 0.453235
O O7 0.513877 0.658579 0.639575
O O8 0.536160 0.063310 0.601709
O O9 0.628917 0.934621 0.415331
O O10 0.720146 0.971184 0.547087
O O11 0.901624 0.677697 0.293338
O O12 0.750000 0.750000 0.500000
#
# Coordination Sequence:
#
# PCOD9271027 Si02
#       6
#     8   8   8   8   4   8
#     4  10  22  36  65  95 121 174 214 253 341 381
#     4  10  21  36  59  87 124 158 210 266 310 384
#     4  10  21  38  63  92 130 159 213 280 313 381
#     4  10  20  38  57  95 124 164 211 262 333 379
#     4  10  20  36  56  88 114 158 216 252 316 362
#     4  11  20  38  62  97 118 159 224 266 301 396
#
# _framework density 24.125561000000001
#
# number of rings (size 3 to 8) (size 9 to 14) (size 15 to 20)
#    0.000    1.818    3.636    0.000    5.091    0.000 
#    0.000    0.000    8.000    1.091    0.000    0.000 
#    0.000    0.000    0.000    0.000    0.000    0.000 
#
# Total GULP energy -123149.449792 kJ/mol
# GULP energy per Si atom -5597.702263 kJ/mol
# Density = 2.407065 g / cm^3
# Si number density = 24.125561 Si / 1000 Ang^3
#
#
#
# Elastic Constant Matrix: (Units=GPa)
#
#
# Indices 1 2 3 4 5 6 
#
# 1 48.6543 14.2643 21.7033 0.0000 -9.6417 0.0000
# 2 14.2643 122.3384 42.8926 0.0000 4.2495 0.0000
# 3 21.7033 42.8926 91.3467 0.0000 -18.8878 0.0000
# 4 0.0000 0.0000 0.0000 49.4881 0.0000 0.5184
# 5 -9.6417 4.2495 -18.8878 0.0000 43.6963 0.0000
# 6 0.0000 0.0000 0.0000 0.5184 0.0000 22.6281
#
#
#
# Elastic Compliance Matrix: (Units=1/GPa)
#
#
# Indices 1 2 3 4 5 6 
#
# 1 0.023535 -0.001388 -0.004215 0.000000 0.003506 0.000000
# 2 -0.001388 0.010299 -0.005246 0.000000 -0.003575 0.000000
# 3 -0.004215 -0.005246 0.015731 0.000000 0.006380 0.000000
# 4 0.000000 0.000000 0.000000 0.020212 0.000000 -0.000463
# 5 0.003506 -0.003575 0.006380 0.000000 0.026764 0.000000
# 6 0.000000 0.000000 0.000000 -0.000463 0.000000 0.044203
#
#
# Mechanical properties :
#
#
# Convention : Reuss Voigt Hill
#
# Bulk Modulus (GPa) = 35.88343 46.67331 41.27837
# Shear Modulus (GPa) = 29.11523 35.39444 32.25484
#
# Velocity S-wave (km/s) = 3.47770 3.83442 3.66041
# Velocity P-wave (km/s) = 5.57062 6.24433 5.91707
#
# Compressibility (1/GPa) = 0.02786802
#
# Stress axis : x y z
#
# Youngs Moduli (GPa) = 42.48974 97.09476 63.56870
#
# Poissons Ratio (x) = 0.13478 0.26794
# Poissons Ratio (y) = 0.05898 0.33345
# Poissons Ratio (z) = 0.17909 0.50932
#
# Static dielectric constant tensor:
#      x y z
#    x 1.989400 0.000000 0.016900 
#    y 0.000000 1.985820 0.000000 
#    z 0.016900 0.000000 1.941840 
# 
# From -- ./inp_files/160724.got.cif
#   From: 2010.05.17/outbox.cif.g08.bks.cpg/sg15_81_cif.got.tgz:160724.got - 2010.06.03 18:47:42.
