data_PCOD9271857
_publ_section_title
;
Structure prediction by ZEFSAII (Michael W. Deem and Ramdas Pophale) SiO2 
 PCOD9271857
Probable space group: C 2/C
;
_chemical_formula_sum "Si O2"
_cell_formula_units_Z 52
_cell_length_a 18.446050
_cell_length_b 17.736734
_cell_length_c 7.764486
_cell_angle_alpha 90.000000
_cell_angle_beta 60.954741
_cell_angle_gamma 90.000000
_cell_volume 2220.847141
_symmetry_space_group_name_H-M "C 2/C"
_symmetry_group_IT_number 15
_symmetry_cell_setting 'monoclinic'
loop_
_space_group_symop_operation_xyz
x,y,z
-x,y,1/2-z
-x,-y,-z
x,-y,1/2+z
1/2+x,1/2+y,z
1/2-x,1/2+y,1/2-z
1/2-x,1/2-y,-z
1/2+x,1/2-y,1/2+z
loop_
_atom_site_type_symbol
_atom_site_label
_atom_site_fract_x
_atom_site_fract_y
_atom_site_fract_z
Si Si1 0.000000 0.119938 0.750000
Si Si2 0.836545 0.421840 0.717894
Si Si3 0.116241 0.586635 0.940382
Si Si4 0.057945 0.851821 0.517768
Si Si5 0.315851 0.339204 0.564666
Si Si6 0.468627 0.186363 0.977923
Si Si7 0.761784 0.187853 0.728126
O O1 0.086160 0.150449 0.560765
O O2 0.956874 0.089222 0.620744
O O3 0.877865 0.499446 0.613735
O O4 0.737858 0.412411 0.817308
O O5 0.879934 0.352741 0.572251
O O6 0.863385 0.408699 0.882949
O O7 0.190632 0.629297 0.759067
O O8 0.031737 0.630473 0.999851
O O9 0.037954 0.770845 0.445936
O O10 0.152903 0.835169 0.464180
O O11 0.000000 0.864696 0.750000
O O12 0.283510 0.269209 0.717963
O O13 0.287144 0.322717 0.400670
O O14 0.500000 0.195174 0.750000
#
# Coordination Sequence:
#
# PCOD9271857 Si02
#       7
#     4   8   8   8   8   8   8
#     4  10  20  36  62  86 116 156 208 244 308 354
#     4  11  22  39  58  85 122 159 196 245 298 365
#     4  11  23  37  61  84 119 163 197 241 302 361
#     4  10  21  37  59  93 124 154 198 256 301 356
#     4   9  18  35  62  85 112 154 202 248 296 356
#     4  11  22  37  56  88 123 155 196 244 297 362
#     4   9  18  37  59  87 116 152 200 249 298 354
#
# _framework density 23.414487999999999
#
# number of rings (size 3 to 8) (size 9 to 14) (size 15 to 20)
#    0.000    1.846    1.538    2.769    4.308    0.000 
#    5.538    2.308    1.692    2.769    0.000    0.000 
#    0.000    0.000    0.000    0.000    0.000    0.000 
#
# Total GULP energy -144918.171090 kJ/mol
# GULP energy per Si atom -5573.775811 kJ/mol
# Density = 2.336120 g / cm^3
# Si number density = 23.414488 Si / 1000 Ang^3
#
#
#
# Elastic Constant Matrix: (Units=GPa)
#
#
# Indices 1 2 3 4 5 6 
#
# 1 71.7018 -9.0731 21.4488 0.0000 -31.0919 0.0000
# 2 -9.0731 11.9138 -11.8641 0.0000 2.6339 0.0000
# 3 21.4488 -11.8641 96.0483 0.0000 -32.4810 0.0000
# 4 0.0000 0.0000 0.0000 5.4802 0.0000 -14.0789
# 5 -31.0919 2.6339 -32.4810 0.0000 40.5453 0.0000
# 6 0.0000 0.0000 0.0000 -14.0789 0.0000 17.7911
#
#
#
# Elastic Compliance Matrix: (Units=1/GPa)
#
#
# Indices 1 2 3 4 5 6 
#
# 1 0.023685 0.017187 0.003564 0.000000 0.019901 0.000000
# 2 0.017187 0.108773 0.016000 0.000000 0.018931 0.000000
# 3 0.003564 0.016000 0.016685 0.000000 0.015060 0.000000
# 4 0.000000 0.000000 0.000000 -0.176645 0.000000 -0.139788
# 5 0.019901 0.018931 0.015060 0.000000 0.050760 0.000000
# 6 0.000000 0.000000 0.000000 -0.139788 0.000000 -0.054412
#
#
# Mechanical properties :
#
#
# Convention : Reuss Voigt Hill
#
# Bulk Modulus (GPa) = 4.49148 20.07634 12.28391
# Shear Modulus (GPa) = -164.24537 24.70682 -69.76928
#
# Velocity S-wave (km/s) = -8.38446 3.25190 -5.46463
# Velocity P-wave (km/s) = 9.58174 4.76369 5.87865
#
# Compressibility (1/GPa) = 0.22264384
#
# Stress axis : x y z
#
# Youngs Moduli (GPa) = 42.22044 9.19350 59.93507
#
# Poissons Ratio (x) = -0.15801 -0.21360
# Poissons Ratio (y) = -0.72564 -0.95895
# Poissons Ratio (z) = -0.15047 -0.14709
#
# Static dielectric constant tensor:
#      x y z
#    x 1.899100 0.000000 0.000090 
#    y 0.000000 1.819980 0.000000 
#    z 0.000090 0.000000 1.950120 
# 
# From -- ./inp_files/50596.got.cif
#   From: 2010.05.17/outbox.cif.g08.bks.cpg/sg15_26_cif.got.tgz:50596.got - 2010.06.03 18:47:42.
