data_PCOD9271035
_publ_section_title
;
Structure prediction by ZEFSAII (Michael W. Deem and Ramdas Pophale) SiO2 
 PCOD9271035
Probable space group: C 2/C
;
_chemical_formula_sum "Si O2"
_cell_formula_units_Z 44
_cell_length_a 18.910995
_cell_length_b 7.328670
_cell_length_c 16.127341
_cell_angle_alpha 90.000000
_cell_angle_beta 116.911418
_cell_angle_gamma 90.000000
_cell_volume 1993.079680
_symmetry_space_group_name_H-M "C 2/C"
_symmetry_group_IT_number 15
_symmetry_cell_setting 'monoclinic'
loop_
_space_group_symop_operation_xyz
x,y,z
-x,y,1/2-z
-x,-y,-z
x,-y,1/2+z
1/2+x,1/2+y,z
1/2-x,1/2+y,1/2-z
1/2-x,1/2-y,-z
1/2+x,1/2-y,1/2+z
loop_
_atom_site_type_symbol
_atom_site_label
_atom_site_fract_x
_atom_site_fract_y
_atom_site_fract_z
Si Si1 0.622731 0.149376 0.434804
Si Si2 0.162750 0.243153 0.495720
Si Si3 0.241433 0.253497 0.123629
Si Si4 0.000000 0.807190 0.250000
Si Si5 0.584776 0.349275 0.798859
Si Si6 0.744691 0.673525 0.312743
O O1 0.692261 0.177554 0.403295
O O2 0.656657 0.260965 0.531946
O O3 0.541819 0.200913 0.346149
O O4 0.622131 0.939246 0.461696
O O5 0.250000 0.250000 0.500000
O O6 0.111081 0.116915 0.408128
O O7 0.185560 0.215651 0.603527
O O8 0.252152 0.470573 0.146119
O O9 0.250107 0.165061 0.217797
O O10 0.065176 0.952260 0.250465
O O11 0.500000 0.250079 0.750000
O O12 0.657376 0.254160 0.791673
#
# Coordination Sequence:
#
# PCOD9271035 Si02
#       6
#     8   8   8   4   8   8
#     4  10  21  38  58  82 117 159 186 229 288 344
#     4   9  20  35  58  85 110 148 192 232 285 331
#     4  10  21  36  58  84 114 147 196 238 278 337
#     4  10  20  36  60  80 114 154 194 220 282 354
#     4   9  19  36  56  83 115 147 190 226 287 348
#     4  10  20  36  56  89 110 145 194 240 284 331
#
# _framework density 22.076388999999999
#
# number of rings (size 3 to 8) (size 9 to 14) (size 15 to 20)
#    0.545    1.818    1.818    0.000    8.909    0.000 
#    0.000    2.727    0.000    4.364    0.000    0.000 
#    0.000    0.000    0.000    0.000    0.000    0.000 
#
# Total GULP energy -122607.672904 kJ/mol
# GULP energy per Si atom -5573.076041 kJ/mol
# Density = 2.202614 g / cm^3
# Si number density = 22.076389 Si / 1000 Ang^3
#
#
#
# Elastic Constant Matrix: (Units=GPa)
#
#
# Indices 1 2 3 4 5 6 
#
# 1 33.5759 3.6211 53.1466 0.0000 17.6881 0.0000
# 2 3.6211 44.6018 32.4775 0.0000 11.4877 0.0000
# 3 53.1466 32.4775 213.4584 0.0000 24.4186 0.0000
# 4 0.0000 0.0000 0.0000 44.0840 0.0000 15.9080
# 5 17.6881 11.4877 24.4186 0.0000 45.1455 0.0000
# 6 0.0000 0.0000 0.0000 15.9080 0.0000 30.8392
#
#
#
# Elastic Compliance Matrix: (Units=1/GPa)
#
#
# Indices 1 2 3 4 5 6 
#
# 1 0.062406 0.010765 -0.014993 0.000000 -0.019081 0.000000
# 2 0.010765 0.028012 -0.006017 0.000000 -0.008091 0.000000
# 3 -0.014993 -0.006017 0.009046 0.000000 0.002513 0.000000
# 4 0.000000 0.000000 0.000000 0.027872 0.000000 -0.014377
# 5 -0.019081 -0.008091 0.002513 0.000000 0.030326 0.000000
# 6 0.000000 0.000000 0.000000 -0.014377 0.000000 0.039843
#
#
# Mechanical properties :
#
#
# Convention : Reuss Voigt Hill
#
# Bulk Modulus (GPa) = 12.66223 52.23626 32.44925
# Shear Modulus (GPa) = 20.46506 37.50648 28.98577
#
# Velocity S-wave (km/s) = 3.04799 4.12629 3.62743
# Velocity P-wave (km/s) = 4.25853 6.81283 5.68110
#
# Compressibility (1/GPa) = 0.07897503
#
# Stress axis : x y z
#
# Youngs Moduli (GPa) = 16.02401 35.69922 110.54967
#
# Poissons Ratio (x) = -0.38431 1.65748
# Poissons Ratio (y) = -0.17250 0.66514
# Poissons Ratio (z) = 0.24025 0.21479
#
# Static dielectric constant tensor:
#      x y z
#    x 1.815000 0.000000 0.028850 
#    y 0.000000 1.964150 0.000000 
#    z 0.028850 0.000000 1.871840 
# 
# From -- ./inp_files/166467.got.cif
#   From: 2010.05.17/outbox.cif.g08.bks.cpg/sg15_84_cif.got.tgz:166467.got - 2010.06.03 18:47:42.
