data_PCOD9271722
_publ_section_title
;
Structure prediction by ZEFSAII (Michael W. Deem and Ramdas Pophale) SiO2 
 PCOD9271722
Probable space group: C 2/C
;
_chemical_formula_sum "Si O2"
_cell_formula_units_Z 56
_cell_length_a 20.322084
_cell_length_b 16.750311
_cell_length_c 22.955225
_cell_angle_alpha 90.000000
_cell_angle_beta 22.240390
_cell_angle_gamma 90.000000
_cell_volume 2957.542219
_symmetry_space_group_name_H-M "C 2/C"
_symmetry_group_IT_number 15
_symmetry_cell_setting 'monoclinic'
loop_
_space_group_symop_operation_xyz
x,y,z
-x,y,1/2-z
-x,-y,-z
x,-y,1/2+z
1/2+x,1/2+y,z
1/2-x,1/2+y,1/2-z
1/2-x,1/2-y,-z
1/2+x,1/2-y,1/2+z
loop_
_atom_site_type_symbol
_atom_site_label
_atom_site_fract_x
_atom_site_fract_y
_atom_site_fract_z
Si Si1 0.286780 0.004123 0.423418
Si Si2 0.068098 0.348060 0.857049
Si Si3 0.892176 0.254166 0.098784
Si Si4 0.802400 0.994186 0.638480
Si Si5 0.736015 0.672073 0.834074
Si Si6 0.293203 0.176149 0.922306
Si Si7 0.153198 0.334682 0.576518
O O1 0.500000 0.002049 0.250000
O O2 0.230496 0.914564 0.489566
O O3 0.213707 0.018139 0.418108
O O4 0.239127 0.084511 0.497335
O O5 0.208397 0.278601 0.727583
O O6 0.185469 0.426961 0.764446
O O7 0.933344 0.349717 0.915022
O O8 0.967535 0.325837 0.998501
O O9 0.860537 0.275250 0.192059
O O10 0.039806 0.187233 0.973512
O O11 0.717422 0.080967 0.715550
O O12 0.000000 0.000000 0.500000
O O13 0.738419 0.690904 0.900321
O O14 0.500000 0.171487 0.750000
O O15 0.250000 0.250000 0.000000
O O16 0.250000 0.250000 0.500000
O O17 0.000000 0.330195 0.750000
#
# Coordination Sequence:
#
# PCOD9271722 Si02
#       7
#     8   8   8   8   8   8   8
#     4   9  19  36  57  86 117 157 202 246 303 381
#     4  11  21  37  59  89 119 160 204 251 306 375
#     4  10  22  37  57  87 122 152 204 252 301 377
#     4  11  20  35  60  86 119 161 204 251 315 373
#     4  10  21  37  58  84 118 155 198 253 313 368
#     4  10  20  36  61  84 109 153 201 247 307 367
#     4  11  21  37  61  86 117 161 201 250 307 361
#
# _framework density 18.934640000000002
#
# number of rings (size 3 to 8) (size 9 to 14) (size 15 to 20)
#    0.000    1.714    4.286    1.714    0.000    0.571 
#    0.000    0.714    0.000    0.000    0.000    0.000 
#    0.000    0.000    0.000    0.000    0.000    0.000 
#
# Total GULP energy -155962.587532 kJ/mol
# GULP energy per Si atom -5570.092412 kJ/mol
# Density = 1.889154 g / cm^3
# Si number density = 18.934640 Si / 1000 Ang^3
#
#
#
# Elastic Constant Matrix: (Units=GPa)
#
#
# Indices 1 2 3 4 5 6 
#
# 1 96.9277 38.0364 20.5862 -0.0116 -10.3709 0.0062
# 2 38.0364 150.6986 35.3208 0.0074 19.2441 0.0028
# 3 20.5862 35.3208 48.7231 0.0097 4.6130 0.0099
# 4 -0.0116 0.0074 0.0097 34.5566 0.0067 2.2770
# 5 -10.3709 19.2441 4.6130 0.0067 28.2256 -0.0044
# 6 0.0062 0.0028 0.0099 2.2770 -0.0044 29.5823
#
#
#
# Elastic Compliance Matrix: (Units=1/GPa)
#
#
# Indices 1 2 3 4 5 6 
#
# 1 0.013347 -0.003470 -0.003872 0.000005 0.007903 0.000000
# 2 -0.003470 0.009523 -0.004776 -0.000001 -0.006988 0.000000
# 3 -0.003872 -0.004776 0.025848 -0.000007 -0.002391 -0.000007
# 4 0.000005 -0.000001 -0.000007 0.029086 -0.000004 -0.002239
# 5 0.007903 -0.006988 -0.002391 -0.000004 0.043488 0.000007
# 6 0.000000 0.000000 -0.000007 -0.002239 0.000007 0.033976
#
#
# Mechanical properties :
#
#
# Convention : Reuss Voigt Hill
#
# Bulk Modulus (GPa) = 40.84511 53.80403 47.32457
# Shear Modulus (GPa) = 26.64326 31.96661 29.30494
#
# Velocity S-wave (km/s) = 3.75523 4.11330 3.93834
# Velocity P-wave (km/s) = 6.35773 7.14397 6.76229
#
# Compressibility (1/GPa) = 0.02448273
#
# Stress axis : x y z
#
# Youngs Moduli (GPa) = 74.92490 105.00444 38.68705
#
# Poissons Ratio (x) = 0.36442 0.14978
# Poissons Ratio (y) = 0.26003 0.18477
# Poissons Ratio (z) = 0.29007 0.50149
#
# Static dielectric constant tensor:
#      x y z
#    x 1.835950 0.000060 -0.067560 
#    y 0.000060 1.715230 -0.000010 
#    z -0.067560 -0.000010 1.659650 
# 
# From -- ./inp_files/280406.got.cif
#   From: 2010.05.17/outbox.cif.g08.bks.cpg/sg15_141_cif.got.tgz:280406.got - 2010.06.03 18:47:42.
