data_PCOD9271209
_publ_section_title
;
Structure prediction by ZEFSAII (Michael W. Deem and Ramdas Pophale) SiO2 
 PCOD9271209
Probable space group: C 2/C
;
_chemical_formula_sum "Si O2"
_cell_formula_units_Z 56
_cell_length_a 8.412286
_cell_length_b 14.438820
_cell_length_c 17.368517
_cell_angle_alpha 90.000000
_cell_angle_beta 89.325847
_cell_angle_gamma 90.000000
_cell_volume 2109.494544
_symmetry_space_group_name_H-M "C 2/C"
_symmetry_group_IT_number 15
_symmetry_cell_setting 'monoclinic'
loop_
_space_group_symop_operation_xyz
x,y,z
-x,y,1/2-z
-x,-y,-z
x,-y,1/2+z
1/2+x,1/2+y,z
1/2-x,1/2+y,1/2-z
1/2-x,1/2-y,-z
1/2+x,1/2-y,1/2+z
loop_
_atom_site_type_symbol
_atom_site_label
_atom_site_fract_x
_atom_site_fract_y
_atom_site_fract_z
Si Si1 0.973570 0.144319 0.450290
Si Si2 0.165069 0.373762 0.539593
Si Si3 0.650665 0.083443 0.501287
Si Si4 0.935611 0.019940 0.831831
Si Si5 0.591421 0.726385 0.669206
Si Si6 0.030353 0.301153 0.334879
Si Si7 0.571030 0.006518 0.328468
O O1 0.154012 0.156675 0.482315
O O2 0.949313 0.225390 0.389155
O O3 0.813957 0.139461 0.501831
O O4 0.974047 0.048016 0.401962
O O5 0.181240 0.485752 0.543723
O O6 0.100081 0.314050 0.611632
O O7 0.018528 0.366109 0.480322
O O8 0.608956 0.054652 0.411737
O O9 0.984599 0.125722 0.850774
O O10 0.751153 0.019888 0.811438
O O11 0.000000 0.986391 0.750000
O O12 0.500000 0.747901 0.750000
O O13 0.778997 0.704762 0.663934
O O14 0.976361 0.408837 0.336420
O O15 0.000000 0.265329 0.250000
O O16 0.500000 0.050459 0.250000
#
# Coordination Sequence:
#
# PCOD9271209 Si02
#       7
#     8   8   8   8   8   8   8
#     4  10  20  36  58  82 114 147 191 232 289 334
#     4  10  22  39  57  81 115 152 192 235 283 343
#     4  10  22  39  57  81 115 152 192 235 283 343
#     4   9  18  33  54  85 112 144 186 238 286 343
#     4   9  19  35  56  82 113 147 188 237 290 335
#     4   9  18  33  54  85 112 144 186 238 286 343
#     4   9  19  35  56  82 113 147 188 237 290 335
#
# _framework density 26.546644000000001
#
# number of rings (size 3 to 8) (size 9 to 14) (size 15 to 20)
#    0.000    2.571    0.000    0.857    4.000    0.571 
#    0.000   12.857    0.000    3.429    0.000    0.000 
#    0.000    0.000    0.000    0.000    0.000    0.000 
#
# Total GULP energy -156009.804420 kJ/mol
# GULP energy per Si atom -5571.778729 kJ/mol
# Density = 2.648622 g / cm^3
# Si number density = 26.546644 Si / 1000 Ang^3
#
#
#
# Elastic Constant Matrix: (Units=GPa)
#
#
# Indices 1 2 3 4 5 6 
#
# 1 119.2640 24.5051 8.8660 0.0000 1.7201 0.0000
# 2 24.5051 133.9324 42.7801 0.0000 2.1693 0.0000
# 3 8.8660 42.7801 78.1224 0.0000 13.1604 0.0000
# 4 0.0000 0.0000 0.0000 53.0828 0.0000 -6.1798
# 5 1.7201 2.1693 13.1604 0.0000 40.1933 0.0000
# 6 0.0000 0.0000 0.0000 -6.1798 0.0000 38.0495
#
#
#
# Elastic Compliance Matrix: (Units=1/GPa)
#
#
# Indices 1 2 3 4 5 6 
#
# 1 0.008716 -0.001562 -0.000090 0.000000 -0.000259 0.000000
# 2 -0.001562 0.009384 -0.005173 0.000000 0.001254 0.000000
# 3 -0.000090 -0.005173 0.016506 0.000000 -0.005122 0.000000
# 4 0.000000 0.000000 0.000000 0.019202 0.000000 0.003119
# 5 -0.000259 0.001254 -0.005122 0.000000 0.026500 0.000000
# 6 0.000000 0.000000 0.000000 0.003119 0.000000 0.026788
#
#
# Mechanical properties :
#
#
# Convention : Reuss Voigt Hill
#
# Bulk Modulus (GPa) = 47.71755 53.73568 50.72662
# Shear Modulus (GPa) = 39.14466 43.27630 41.21048
#
# Velocity S-wave (km/s) = 3.84417 4.04195 3.94430
# Velocity P-wave (km/s) = 6.14146 6.48607 6.31611
#
# Compressibility (1/GPa) = 0.02095665
#
# Stress axis : x y z
#
# Youngs Moduli (GPa) = 114.73035 106.56255 60.58364
#
# Poissons Ratio (x) = 0.16642 0.00547
# Poissons Ratio (y) = 0.17917 0.31339
# Poissons Ratio (z) = 0.01036 0.55123
#
# Static dielectric constant tensor:
#      x y z
#    x 2.065540 0.000000 -0.018830 
#    y 0.000000 2.195560 0.000000 
#    z -0.018830 0.000000 2.177820 
# 
# From -- ./inp_files/231579.got.cif
#   From: 2010.05.17/outbox.cif.g08.bks.cpg/sg15_116_cif.got.tgz:231579.got - 2010.06.03 18:47:42.
