data_PCOD9271561
_publ_section_title
;
Structure prediction by ZEFSAII (Michael W. Deem and Ramdas Pophale) SiO2 
 PCOD9271561
Probable space group: C 2/C
;
_chemical_formula_sum "Si O2"
_cell_formula_units_Z 64
_cell_length_a 17.815965
_cell_length_b 11.025783
_cell_length_c 21.481395
_cell_angle_alpha 90.000000
_cell_angle_beta 127.376280
_cell_angle_gamma 90.000000
_cell_volume 3353.249784
_symmetry_space_group_name_H-M "C 2/C"
_symmetry_group_IT_number 15
_symmetry_cell_setting 'monoclinic'
loop_
_space_group_symop_operation_xyz
x,y,z
-x,y,1/2-z
-x,-y,-z
x,-y,1/2+z
1/2+x,1/2+y,z
1/2-x,1/2+y,1/2-z
1/2-x,1/2-y,-z
1/2+x,1/2-y,1/2+z
loop_
_atom_site_type_symbol
_atom_site_label
_atom_site_fract_x
_atom_site_fract_y
_atom_site_fract_z
Si Si1 0.135156 0.832067 0.477773
Si Si2 0.997871 0.883159 0.818008
Si Si3 0.347118 0.192212 0.720126
Si Si4 0.745522 0.105876 0.573962
Si Si5 0.712237 0.340380 0.928838
Si Si6 0.425168 0.413301 0.369576
Si Si7 0.777661 0.780256 0.221395
Si Si8 0.240138 0.971434 0.634999
O O1 0.162690 0.851156 0.419681
O O2 0.161780 0.695248 0.510212
O O3 0.207728 0.917209 0.552908
O O4 0.029021 0.869395 0.441382
O O5 0.948292 0.752823 0.783691
O O6 0.000000 0.940312 0.750000
O O7 0.104744 0.871737 0.893797
O O8 0.939890 0.966873 0.835143
O O9 0.297321 0.278963 0.643934
O O10 0.296143 0.193157 0.760940
O O11 0.330320 0.059711 0.682630
O O12 0.762736 0.131125 0.655176
O O13 0.731609 0.965345 0.551330
O O14 0.750000 0.250000 0.000000
O O15 0.377792 0.310037 0.303092
O O16 0.349557 0.451770 0.383980
O O17 0.761874 0.644470 0.189058
#
# Coordination Sequence:
#
# PCOD9271561 Si02
#       8
#     8   8   8   8   8   8   8   8
#     4  10  21  37  58  90 117 156 197 250 297 362
#     4  10  20  36  60  86 113 149 205 249 286 358
#     4  10  21  36  59  87 117 153 199 242 299 356
#     4  10  21  38  60  83 121 152 199 244 304 349
#     4  11  22  39  64  86 117 158 199 245 307 363
#     4  11  20  35  63  88 115 153 206 245 296 358
#     4  10  21  36  58  88 114 159 191 252 294 349
#     4  10  21  38  59  82 126 155 196 241 308 357
#
# _framework density 19.085961999999999
#
# number of rings (size 3 to 8) (size 9 to 14) (size 15 to 20)
#    0.000    1.750    2.500    2.625    1.750    0.000 
#    2.250    0.000    5.500    3.750    0.000    0.000 
#    0.000    0.000    0.000    0.000    0.000    0.000 
#
# Total GULP energy -178485.600643 kJ/mol
# GULP energy per Si atom -5577.675020 kJ/mol
# Density = 1.904252 g / cm^3
# Si number density = 19.085962 Si / 1000 Ang^3
#
#
#
# Elastic Constant Matrix: (Units=GPa)
#
#
# Indices 1 2 3 4 5 6 
#
# 1 48.2739 16.0854 13.3302 0.0000 -2.8364 0.0000
# 2 16.0854 108.4831 29.8893 0.0000 9.4649 0.0000
# 3 13.3302 29.8893 58.1018 0.0000 -1.6433 0.0000
# 4 0.0000 0.0000 0.0000 27.0401 0.0000 -0.0848
# 5 -2.8364 9.4649 -1.6433 0.0000 33.7104 0.0000
# 6 0.0000 0.0000 0.0000 -0.0848 0.0000 28.1148
#
#
#
# Elastic Compliance Matrix: (Units=1/GPa)
#
#
# Indices 1 2 3 4 5 6 
#
# 1 0.022764 -0.002526 -0.003854 0.000000 0.002437 0.000000
# 2 -0.002526 0.011398 -0.005388 0.000000 -0.003675 0.000000
# 3 -0.003854 -0.005388 0.020930 0.000000 0.002209 0.000000
# 4 0.000000 0.000000 0.000000 0.036982 0.000000 0.000112
# 5 0.002437 -0.003675 0.002209 0.000000 0.031009 0.000000
# 6 0.000000 0.000000 0.000000 0.000112 0.000000 0.035569
#
#
# Mechanical properties :
#
#
# Convention : Reuss Voigt Hill
#
# Bulk Modulus (GPa) = 31.69040 37.05204 34.37122
# Shear Modulus (GPa) = 25.94620 28.14333 27.04476
#
# Velocity S-wave (km/s) = 3.69106 3.84416 3.76839
# Velocity P-wave (km/s) = 5.89960 6.25770 6.08129
#
# Compressibility (1/GPa) = 0.03155530
#
# Stress axis : x y z
#
# Youngs Moduli (GPa) = 43.92835 87.73736 47.77934
#
# Poissons Ratio (x) = 0.22163 0.18416
# Poissons Ratio (y) = 0.11096 0.25742
# Poissons Ratio (z) = 0.16932 0.47270
#
# Static dielectric constant tensor:
#      x y z
#    x 1.668450 0.000000 -0.008300 
#    y 0.000000 1.692140 0.000000 
#    z -0.008300 0.000000 1.673020 
# 
# From -- ./inp_files/248392.got.cif
#   From: 2010.05.17/outbox.cif.g08.bks.cpg/sg15_125_cif.got.tgz:248392.got - 2010.06.03 18:47:42.
