data_PCOD9271671
_publ_section_title
;
Structure prediction by ZEFSAII (Michael W. Deem and Ramdas Pophale) SiO2 
 PCOD9271671
Probable space group: C 2/C
;
_chemical_formula_sum "Si O2"
_cell_formula_units_Z 64
_cell_length_a 12.004688
_cell_length_b 12.508620
_cell_length_c 25.228148
_cell_angle_alpha 90.000000
_cell_angle_beta 58.123572
_cell_angle_gamma 90.000000
_cell_volume 3216.992266
_symmetry_space_group_name_H-M "C 2/C"
_symmetry_group_IT_number 15
_symmetry_cell_setting 'monoclinic'
loop_
_space_group_symop_operation_xyz
x,y,z
-x,y,1/2-z
-x,-y,-z
x,-y,1/2+z
1/2+x,1/2+y,z
1/2-x,1/2+y,1/2-z
1/2-x,1/2-y,-z
1/2+x,1/2-y,1/2+z
loop_
_atom_site_type_symbol
_atom_site_label
_atom_site_fract_x
_atom_site_fract_y
_atom_site_fract_z
Si Si1 0.409418 0.292443 0.073343
Si Si2 0.180998 0.556938 0.928811
Si Si3 0.107320 0.734672 0.649069
Si Si4 0.428860 0.999668 0.319644
Si Si5 0.120291 0.016279 0.380145
Si Si6 0.462506 0.479613 0.817844
Si Si7 0.536309 0.910820 0.570813
Si Si8 0.007172 0.752688 0.935579
O O1 0.259230 0.273191 0.127262
O O2 0.439607 0.416840 0.072714
O O3 0.509180 0.215702 0.079096
O O4 0.421752 0.257753 0.009638
O O5 0.329188 0.531223 0.874857
O O6 0.120307 0.665051 0.918421
O O7 0.089250 0.464248 0.926847
O O8 0.153555 0.563220 0.999387
O O9 0.038395 0.626875 0.686272
O O10 0.082949 0.727138 0.592021
O O11 0.056811 0.850741 0.678742
O O12 0.500000 0.047242 0.250000
O O13 0.274774 0.012771 0.349000
O O14 0.454786 0.046084 0.371844
O O15 0.067534 0.130832 0.410928
O O16 0.078463 0.998645 0.329994
O O17 0.500000 0.517838 0.750000
#
# Coordination Sequence:
#
# PCOD9271671 Si02
#       8
#     8   8   8   8   8   8   8   8
#     4  10  20  37  62  91 126 163 206 259 316 371
#     4  10  21  39  65  94 121 162 212 257 303 369
#     4  10  20  36  60  92 119 162 211 264 309 368
#     4  11  24  41  63  89 128 167 211 257 316 378
#     4  10  25  40  56  92 127 164 206 258 320 372
#     4  11  24  41  63  89 128 167 211 257 316 378
#     4  10  21  39  65  94 121 162 212 257 303 369
#     4  10  20  37  62  91 126 163 206 259 316 371
#
# _framework density 19.894359999999999
#
# number of rings (size 3 to 8) (size 9 to 14) (size 15 to 20)
#    0.000    1.750    2.500    1.125    1.750    6.000 
#    0.000    5.000    0.000    0.000    0.000    0.000 
#    0.000    0.000    0.000    0.000    0.000    0.000 
#
# Total GULP energy -178554.131045 kJ/mol
# GULP energy per Si atom -5579.816595 kJ/mol
# Density = 1.984908 g / cm^3
# Si number density = 19.894360 Si / 1000 Ang^3
#
#
#
# Elastic Constant Matrix: (Units=GPa)
#
#
# Indices 1 2 3 4 5 6 
#
# 1 30.1473 6.7206 23.9936 0.0000 10.2889 0.0000
# 2 6.7206 80.9287 20.6503 0.0000 1.6948 0.0000
# 3 23.9936 20.6503 123.2898 0.0000 15.1456 0.0000
# 4 0.0000 0.0000 0.0000 9.9410 0.0000 4.7191
# 5 10.2889 1.6948 15.1456 0.0000 15.2724 0.0000
# 6 0.0000 0.0000 0.0000 4.7191 0.0000 8.5138
#
#
#
# Elastic Compliance Matrix: (Units=1/GPa)
#
#
# Indices 1 2 3 4 5 6 
#
# 1 0.046882 -0.001915 -0.005636 0.000000 -0.025783 0.000000
# 2 -0.001915 0.012995 -0.002033 0.000000 0.001864 0.000000
# 3 -0.005636 -0.002033 0.010310 0.000000 -0.006202 0.000000
# 4 0.000000 0.000000 0.000000 0.136515 0.000000 -0.075669
# 5 -0.025783 0.001864 -0.006202 0.000000 0.088792 0.000000
# 6 0.000000 0.000000 0.000000 -0.075669 0.000000 0.159399
#
#
# Mechanical properties :
#
#
# Convention : Reuss Voigt Hill
#
# Bulk Modulus (GPa) = 19.60018 37.45497 28.52757
# Shear Modulus (GPa) = 10.18190 18.94551 14.56370
#
# Velocity S-wave (km/s) = 2.26475 3.08929 2.70858
# Velocity P-wave (km/s) = 4.08807 5.62074 4.91452
#
# Compressibility (1/GPa) = 0.05101994
#
# Stress axis : x y z
#
# Youngs Moduli (GPa) = 21.33002 76.95091 96.99169
#
# Poissons Ratio (x) = 0.14738 0.54662
# Poissons Ratio (y) = 0.04085 0.19718
# Poissons Ratio (z) = 0.12021 0.15643
#
# Static dielectric constant tensor:
#      x y z
#    x 1.671050 0.000000 0.005500 
#    y 0.000000 1.732540 0.000000 
#    z 0.005500 0.000000 1.708890 
# 
# From -- ./inp_files/269263.got.cif
#   From: 2010.05.17/outbox.cif.g08.bks.cpg/sg15_135_cif.got.tgz:269263.got - 2010.06.03 18:47:42.
