data_PCOD9271165
_publ_section_title
;
Structure prediction by ZEFSAII (Michael W. Deem and Ramdas Pophale) SiO2 
 PCOD9271165
Probable space group: C 2/C
;
_chemical_formula_sum "Si O2"
_cell_formula_units_Z 48
_cell_length_a 28.913654
_cell_length_b 9.597728
_cell_length_c 7.759121
_cell_angle_alpha 90.000000
_cell_angle_beta 85.065322
_cell_angle_gamma 90.000000
_cell_volume 2145.216863
_symmetry_space_group_name_H-M "C 2/C"
_symmetry_group_IT_number 15
_symmetry_cell_setting 'monoclinic'
loop_
_space_group_symop_operation_xyz
x,y,z
-x,y,1/2-z
-x,-y,-z
x,-y,1/2+z
1/2+x,1/2+y,z
1/2-x,1/2+y,1/2-z
1/2-x,1/2-y,-z
1/2+x,1/2-y,1/2+z
loop_
_atom_site_type_symbol
_atom_site_label
_atom_site_fract_x
_atom_site_fract_y
_atom_site_fract_z
Si Si1 0.590482 0.623178 0.679647
Si Si2 0.170979 0.583302 0.745386
Si Si3 0.532125 0.610070 0.385894
Si Si4 0.143916 0.704197 0.425046
Si Si5 0.313833 0.336226 0.527149
Si Si6 0.224374 0.093122 0.808209
O O1 0.558054 0.684163 0.537035
O O2 0.569039 0.482813 0.766230
O O3 0.602082 0.722678 0.837002
O O4 0.639725 0.598956 0.571532
O O5 0.135677 0.646935 0.618244
O O6 0.159541 0.428630 0.807638
O O7 0.222813 0.589565 0.647468
O O8 0.173017 0.686006 0.907348
O O9 0.500000 0.681719 0.250000
O O10 0.500000 0.500000 0.500000
O O11 0.186793 0.813212 0.418830
O O12 0.294397 0.435644 0.681686
O O13 0.277497 0.345638 0.383108
#
# Coordination Sequence:
#
# PCOD9271165 Si02
#       6
#     8   8   8   8   8   8
#     4  10  20  36  57  92 124 148 188 233 298 367
#     4  12  23  39  53  80 118 168 218 251 296 346
#     4   9  19  37  64  94 121 144 173 231 296 358
#     4  11  23  36  56  81 117 163 204 256 302 343
#     4  11  22  35  58  84 117 161 201 258 306 340
#     4  11  21  37  56  81 113 160 218 269 298 332
#
# _framework density 22.375361000000002
#
# number of rings (size 3 to 8) (size 9 to 14) (size 15 to 20)
#    0.000    1.333    0.000    8.000    0.000    4.000 
#    0.000    0.000    0.000    0.000    0.000   60.667 
#    0.000    0.000    0.000    0.333    0.000    0.000 
#
# Total GULP energy -134115.656307 kJ/mol
# GULP energy per Si atom -5588.152346 kJ/mol
# Density = 2.232443 g / cm^3
# Si number density = 22.375361 Si / 1000 Ang^3
#
#
#
# Elastic Constant Matrix: (Units=GPa)
#
#
# Indices 1 2 3 4 5 6 
#
# 1 68.6975 4.8609 16.7212 0.0000 21.5074 0.0000
# 2 4.8609 69.8904 -0.9031 0.0000 11.2859 0.0000
# 3 16.7212 -0.9031 75.7177 0.0000 37.7649 0.0000
# 4 0.0000 0.0000 0.0000 35.5159 0.0000 12.4166
# 5 21.5074 11.2859 37.7649 0.0000 52.4145 0.0000
# 6 0.0000 0.0000 0.0000 12.4166 0.0000 12.2481
#
#
#
# Elastic Compliance Matrix: (Units=1/GPa)
#
#
# Indices 1 2 3 4 5 6 
#
# 1 0.016712 -0.000116 -0.000444 0.000000 -0.006513 0.000000
# 2 -0.000116 0.015204 0.002835 0.000000 -0.005268 0.000000
# 3 -0.000444 0.002835 0.021154 0.000000 -0.015670 0.000000
# 4 0.000000 0.000000 0.000000 0.043614 0.000000 -0.044214
# 5 -0.006513 -0.005268 -0.015670 0.000000 0.034176 0.000000
# 6 0.000000 0.000000 0.000000 -0.044214 0.000000 0.126467
#
#
# Mechanical properties :
#
#
# Convention : Reuss Voigt Hill
#
# Bulk Modulus (GPa) = 17.35545 28.40707 22.88126
# Shear Modulus (GPa) = 18.38345 32.94415 25.66380
#
# Velocity S-wave (km/s) = 2.86945 3.84127 3.39036
# Velocity P-wave (km/s) = 4.33032 5.69184 5.05711
#
# Compressibility (1/GPa) = 0.05761880
#
# Stress axis : x y z
#
# Youngs Moduli (GPa) = 59.83819 65.77405 47.27153
#
# Poissons Ratio (x) = 0.00765 0.02097
# Poissons Ratio (y) = 0.00696 -0.13400
# Poissons Ratio (z) = 0.02655 -0.18644
#
# Static dielectric constant tensor:
#      x y z
#    x 1.866170 0.000000 0.040460 
#    y 0.000000 1.812590 0.000000 
#    z 0.040460 0.000000 1.897080 
# 
# From -- ./inp_files/68608.got.cif
#   From: 2010.05.17/outbox.cif.g08.bks.cpg/sg15_35_cif.got.tgz:68608.got - 2010.06.03 18:47:42.
