data_PCOD9271519
_publ_section_title
;
Structure prediction by ZEFSAII (Michael W. Deem and Ramdas Pophale) SiO2 
 PCOD9271519
Probable space group: C 2/C
;
_chemical_formula_sum "Si O2"
_cell_formula_units_Z 48
_cell_length_a 23.166834
_cell_length_b 9.172419
_cell_length_c 10.670407
_cell_angle_alpha 90.000000
_cell_angle_beta 89.830563
_cell_angle_gamma 90.000000
_cell_volume 2267.407913
_symmetry_space_group_name_H-M "C 2/C"
_symmetry_group_IT_number 15
_symmetry_cell_setting 'monoclinic'
loop_
_space_group_symop_operation_xyz
x,y,z
-x,y,1/2-z
-x,-y,-z
x,-y,1/2+z
1/2+x,1/2+y,z
1/2-x,1/2+y,1/2-z
1/2-x,1/2-y,-z
1/2+x,1/2-y,1/2+z
loop_
_atom_site_type_symbol
_atom_site_label
_atom_site_fract_x
_atom_site_fract_y
_atom_site_fract_z
Si Si1 0.384207 0.687871 0.494165
Si Si2 0.962201 0.031996 0.875312
Si Si3 0.166585 0.578615 0.684597
Si Si4 0.264657 0.580306 0.511813
Si Si5 0.247817 0.818981 0.139412
Si Si6 0.619569 0.767190 0.729201
O O1 0.420035 0.605456 0.388501
O O2 0.363075 0.834946 0.428410
O O3 0.332491 0.576019 0.526932
O O4 0.405304 0.728447 0.632805
O O5 0.000000 0.025412 0.750000
O O6 0.922749 0.179389 0.865799
O O7 0.000000 0.000000 0.000000
O O8 0.226223 0.519060 0.623544
O O9 0.192654 0.696670 0.783006
O O10 0.126909 0.442639 0.722235
O O11 0.250000 0.750000 0.500000
O O12 0.249463 0.492393 0.388929
O O13 0.186460 0.785404 0.206087
O O14 0.250000 0.750000 0.000000
#
# Coordination Sequence:
#
# PCOD9271519 Si02
#       6
#     8   8   8   8   8   8
#     4  11  24  45  70  99 141 189 235 287 359 427
#     4  12  27  51  78 100 130 180 250 317 368 416
#     4  11  24  40  66 103 150 187 220 274 351 436
#     4  10  20  36  59  97 141 184 221 266 333 422
#     4  12  24  36  63 105 147 187 225 269 342 441
#     4  12  25  43  70 101 142 187 235 293 352 421
#
# _framework density 21.169547999999999
#
# number of rings (size 3 to 8) (size 9 to 14) (size 15 to 20)
#    0.000    0.667    6.667    2.000    2.333    2.667 
#    0.000    1.667    0.000    0.000    0.000    0.000 
#    0.000    0.000    0.000    0.000    0.000    0.000 
#
# Total GULP energy -133615.860397 kJ/mol
# GULP energy per Si atom -5567.327517 kJ/mol
# Density = 2.112136 g / cm^3
# Si number density = 21.169548 Si / 1000 Ang^3
#
#
#
# Elastic Constant Matrix: (Units=GPa)
#
#
# Indices 1 2 3 4 5 6 
#
# 1 69.2240 33.6150 36.8362 0.0000 -4.6201 0.0000
# 2 33.6150 66.6907 39.3940 0.0000 -2.9524 0.0000
# 3 36.8362 39.3940 119.5782 0.0000 9.1600 0.0000
# 4 0.0000 0.0000 0.0000 39.4969 0.0000 1.3515
# 5 -4.6201 -2.9524 9.1600 0.0000 44.9756 0.0000
# 6 0.0000 0.0000 0.0000 1.3515 0.0000 25.5023
#
#
#
# Elastic Compliance Matrix: (Units=1/GPa)
#
#
# Indices 1 2 3 4 5 6 
#
# 1 0.020533 -0.007947 -0.003890 0.000000 0.002380 0.000000
# 2 -0.007947 0.021976 -0.004917 0.000000 0.001628 0.000000
# 3 -0.003890 -0.004917 0.011414 0.000000 -0.003047 0.000000
# 4 0.000000 0.000000 0.000000 0.025364 0.000000 -0.001344
# 5 0.002380 0.001628 -0.003047 0.000000 0.023206 0.000000
# 6 0.000000 0.000000 0.000000 -0.001344 0.000000 0.039283
#
#
# Mechanical properties :
#
#
# Convention : Reuss Voigt Hill
#
# Bulk Modulus (GPa) = 48.97677 52.79815 50.88746
# Shear Modulus (GPa) = 27.45897 31.70480 29.58188
#
# Velocity S-wave (km/s) = 3.60543 3.87416 3.74221
# Velocity P-wave (km/s) = 6.36537 6.70872 6.53930
#
# Compressibility (1/GPa) = 0.02041784
#
# Stress axis : x y z
#
# Youngs Moduli (GPa) = 48.70105 45.50343 87.61112
#
# Poissons Ratio (x) = 0.36161 0.34078
# Poissons Ratio (y) = 0.38702 0.43075
# Poissons Ratio (z) = 0.18943 0.22372
#
# Static dielectric constant tensor:
#      x y z
#    x 1.905610 0.000000 0.045830 
#    y 0.000000 1.872360 0.000000 
#    z 0.045830 0.000000 1.844710 
# 
# From -- ./inp_files/116344.got.cif
#   From: 2010.05.17/outbox.cif.g08.bks.cpg/sg15_59_cif.got.tgz:116344.got - 2010.06.03 18:47:42.
