data_PCOD9271322
_publ_section_title
;
Structure prediction by ZEFSAII (Michael W. Deem and Ramdas Pophale) SiO2 
 PCOD9271322
Probable space group: C 2/C
;
_chemical_formula_sum "Si O2"
_cell_formula_units_Z 60
_cell_length_a 13.077028
_cell_length_b 21.351644
_cell_length_c 14.609601
_cell_angle_alpha 90.000000
_cell_angle_beta 134.574345
_cell_angle_gamma 90.000000
_cell_volume 2905.803806
_symmetry_space_group_name_H-M "C 2/C"
_symmetry_group_IT_number 15
_symmetry_cell_setting 'monoclinic'
loop_
_space_group_symop_operation_xyz
x,y,z
-x,y,1/2-z
-x,-y,-z
x,-y,1/2+z
1/2+x,1/2+y,z
1/2-x,1/2+y,1/2-z
1/2-x,1/2-y,-z
1/2+x,1/2-y,1/2+z
loop_
_atom_site_type_symbol
_atom_site_label
_atom_site_fract_x
_atom_site_fract_y
_atom_site_fract_z
Si Si1 0.404928 0.247587 0.547124
Si Si2 0.084155 0.072892 0.899722
Si Si3 0.324272 0.434611 0.536151
Si Si4 0.414547 0.139141 0.904493
Si Si5 0.136922 0.147350 0.618878
Si Si6 0.577818 0.112773 0.388925
Si Si7 0.500000 0.665564 0.250000
Si Si8 0.485734 0.973657 0.134906
O O1 0.250000 0.250000 0.500000
O O2 0.463907 0.178230 0.571941
O O3 0.395428 0.286357 0.448053
O O4 0.520144 0.286999 0.679126
O O5 0.000000 0.082512 0.750000
O O6 0.996601 0.112530 0.919056
O O7 0.081383 0.997652 0.916125
O O8 0.251892 0.095014 0.011142
O O9 0.310189 0.398576 0.430494
O O10 0.380510 0.382112 0.640651
O O11 0.179399 0.460497 0.488260
O O12 0.259772 0.158214 0.770541
O O13 0.425483 0.066604 0.880844
O O14 0.433979 0.149585 0.023890
O O15 0.500000 0.140470 0.250000
O O16 0.490857 0.047563 0.350369
O O17 0.500000 0.952759 0.250000
#
# Coordination Sequence:
#
# PCOD9271322 Si02
#       8
#     8   8   8   8   8   8   4   8
#     4  11  25  42  62  93 129 164 212 270 323 389
#     4  11  21  42  67  93 132 171 213 266 322 389
#     4  10  20  37  61  96 133 164 201 259 327 387
#     4  12  22  41  68  90 127 176 220 265 330 393
#     4  11  23  40  64  96 126 171 219 265 323 390
#     4  10  24  45  63  94 131 169 221 276 322 382
#     4  10  20  36  58  90 128 156 198 250 312 378
#     4  10  20  36  64  95 129 163 204 262 325 389
#
# _framework density 20.648330999999999
#
# number of rings (size 3 to 8) (size 9 to 14) (size 15 to 20)
#    0.000    1.333    3.333    3.200    0.933    0.000 
#   12.000    1.333    0.000    0.000    0.000    0.000 
#    0.000    0.000    0.000    0.000    0.000    0.000 
#
# Total GULP energy -167309.540074 kJ/mol
# GULP energy per Si atom -5576.984669 kJ/mol
# Density = 2.060133 g / cm^3
# Si number density = 20.648331 Si / 1000 Ang^3
#
#
#
# Elastic Constant Matrix: (Units=GPa)
#
#
# Indices 1 2 3 4 5 6 
#
# 1 37.7831 19.9569 28.1601 0.0000 2.0032 0.0000
# 2 19.9569 51.9092 13.6478 0.0000 5.8758 0.0000
# 3 28.1601 13.6478 133.1549 0.0000 -18.8063 0.0000
# 4 0.0000 0.0000 0.0000 10.4405 0.0000 -4.8857
# 5 2.0032 5.8758 -18.8063 0.0000 23.5350 0.0000
# 6 0.0000 0.0000 0.0000 -4.8857 0.0000 23.8808
#
#
#
# Elastic Compliance Matrix: (Units=1/GPa)
#
#
# Indices 1 2 3 4 5 6 
#
# 1 0.039230 -0.012229 -0.007985 0.000000 -0.006667 0.000000
# 2 -0.012229 0.024823 -0.000774 0.000000 -0.005775 0.000000
# 3 -0.007985 -0.000774 0.010597 0.000000 0.009341 0.000000
# 4 0.000000 0.000000 0.000000 0.105921 0.000000 0.021670
# 5 -0.006667 -0.005775 0.009341 0.000000 0.051963 0.000000
# 6 0.000000 0.000000 0.000000 0.021670 0.000000 0.046308
#
#
# Mechanical properties :
#
#
# Convention : Reuss Voigt Hill
#
# Bulk Modulus (GPa) = 30.60299 38.48631 34.54465
# Shear Modulus (GPa) = 15.07344 22.31010 18.69177
#
# Velocity S-wave (km/s) = 2.70480 3.29063 3.01199
# Velocity P-wave (km/s) = 4.96062 5.75474 5.37238
#
# Compressibility (1/GPa) = 0.03267655
#
# Stress axis : x y z
#
# Youngs Moduli (GPa) = 25.49038 40.28542 94.36409
#
# Poissons Ratio (x) = 0.49263 0.75348
# Poissons Ratio (y) = 0.31171 0.07301
# Poissons Ratio (z) = 0.20354 0.03117
#
# Static dielectric constant tensor:
#      x y z
#    x 1.734240 0.000000 -0.000800 
#    y 0.000000 1.751140 0.000000 
#    z -0.000800 0.000000 1.805900 
# 
# From -- ./inp_files/156379.got.cif
#   From: 2010.05.17/outbox.cif.g08.bks.cpg/sg15_79_cif.got.tgz:156379.got - 2010.06.03 18:47:42.
