data_PCOD9271773
_publ_section_title
;
Structure prediction by ZEFSAII (Michael W. Deem and Ramdas Pophale) SiO2 
 PCOD9271773
Probable space group: C 2/C
;
_chemical_formula_sum "Si O2"
_cell_formula_units_Z 52
_cell_length_a 11.365649
_cell_length_b 22.835692
_cell_length_c 14.416437
_cell_angle_alpha 90.000000
_cell_angle_beta 46.554649
_cell_angle_gamma 90.000000
_cell_volume 2716.572365
_symmetry_space_group_name_H-M "C 2/C"
_symmetry_group_IT_number 15
_symmetry_cell_setting 'monoclinic'
loop_
_space_group_symop_operation_xyz
x,y,z
-x,y,1/2-z
-x,-y,-z
x,-y,1/2+z
1/2+x,1/2+y,z
1/2-x,1/2+y,1/2-z
1/2-x,1/2-y,-z
1/2+x,1/2-y,1/2+z
loop_
_atom_site_type_symbol
_atom_site_label
_atom_site_fract_x
_atom_site_fract_y
_atom_site_fract_z
Si Si1 0.841380 0.924217 0.545329
Si Si2 0.824222 0.451897 0.047696
Si Si3 0.297428 0.139046 0.920919
Si Si4 0.720136 0.456073 0.319269
Si Si5 0.000000 0.745856 0.750000
Si Si6 0.667593 0.079931 0.423422
Si Si7 0.919175 0.149197 0.165122
O O1 0.763449 0.917449 0.486489
O O2 0.839831 0.865590 0.608743
O O3 0.028946 0.941781 0.429129
O O4 0.762550 0.978653 0.646212
O O5 0.768883 0.448487 0.185186
O O6 0.791006 0.520287 0.044908
O O7 0.014136 0.436407 0.943669
O O8 0.315023 0.091067 0.830624
O O9 0.356522 0.202536 0.858518
O O10 0.387401 0.124577 0.967688
O O11 0.108389 0.135086 0.050331
O O12 0.926937 0.787720 0.709591
O O13 0.819678 0.105970 0.286598
#
# Coordination Sequence:
#
# PCOD9271773 Si02
#       7
#     8   8   8   8   4   8   8
#     4  10  21  36  60  89 125 167 204 249 317 386
#     4  11  22  36  57  93 130 168 201 246 315 387
#     4  11  22  40  63  95 120 160 215 266 314 360
#     4  10  20  36  61  90 124 164 203 258 313 378
#     4  12  24  40  68  92 124 162 216 282 310 358
#     4  11  22  36  58  91 132 163 198 261 313 378
#     4  11  23  39  61  90 124 164 208 254 322 376
#
# _framework density 19.141767999999999
#
# number of rings (size 3 to 8) (size 9 to 14) (size 15 to 20)
#    0.000    1.231    4.615    1.846    0.000    1.846 
#    0.000    0.000    0.000    3.692   16.000    0.000 
#    0.000    0.000    0.000    0.000    0.000    0.000 
#
# Total GULP energy -144983.188573 kJ/mol
# GULP energy per Si atom -5576.276484 kJ/mol
# Density = 1.909820 g / cm^3
# Si number density = 19.141768 Si / 1000 Ang^3
#
#
#
# Elastic Constant Matrix: (Units=GPa)
#
#
# Indices 1 2 3 4 5 6 
#
# 1 82.8883 41.3315 51.0024 0.0000 12.8430 0.0000
# 2 41.3315 96.3594 46.3560 0.0000 5.1528 0.0000
# 3 51.0024 46.3560 121.4697 0.0000 5.6292 0.0000
# 4 0.0000 0.0000 0.0000 40.3280 0.0000 0.5664
# 5 12.8430 5.1528 5.6292 0.0000 33.7624 0.0000
# 6 0.0000 0.0000 0.0000 0.5664 0.0000 30.0315
#
#
#
# Elastic Compliance Matrix: (Units=1/GPa)
#
#
# Indices 1 2 3 4 5 6 
#
# 1 0.019008 -0.005074 -0.005790 0.000000 -0.005491 0.000000
# 2 -0.005074 0.014110 -0.003269 0.000000 0.000322 0.000000
# 3 -0.005790 -0.003269 0.011878 0.000000 0.000721 0.000000
# 4 0.000000 0.000000 0.000000 0.024803 0.000000 -0.000468
# 5 -0.005491 0.000322 0.000721 0.000000 0.031538 0.000000
# 6 0.000000 0.000000 0.000000 -0.000468 0.000000 0.033307
#
#
# Mechanical properties :
#
#
# Convention : Reuss Voigt Hill
#
# Bulk Modulus (GPa) = 59.77649 64.23301 62.00475
# Shear Modulus (GPa) = 29.67585 31.62621 30.65103
#
# Velocity S-wave (km/s) = 3.94168 4.06915 4.00592
# Velocity P-wave (km/s) = 7.21193 7.46369 7.33889
#
# Compressibility (1/GPa) = 0.01672899
#
# Stress axis : x y z
#
# Youngs Moduli (GPa) = 52.60906 70.87340 84.19036
#
# Poissons Ratio (x) = 0.35961 0.48748
# Poissons Ratio (y) = 0.26694 0.27522
# Poissons Ratio (z) = 0.30462 0.23169
#
# Static dielectric constant tensor:
#      x y z
#    x 1.677580 0.000000 0.004940 
#    y 0.000000 1.676530 0.000000 
#    z 0.004940 0.000000 1.730000 
# 
# From -- ./inp_files/147041.got.cif
#   From: 2010.05.17/outbox.cif.g08.bks.cpg/sg15_74_cif.got.tgz:147041.got - 2010.06.03 18:47:42.
