data_PCOD9271741
_publ_section_title
;
Structure prediction by ZEFSAII (Michael W. Deem and Ramdas Pophale) SiO2 
 PCOD9271741
Probable space group: C 2/C
;
_chemical_formula_sum "Si O2"
_cell_formula_units_Z 52
_cell_length_a 14.645833
_cell_length_b 7.767426
_cell_length_c 30.976607
_cell_angle_alpha 90.000000
_cell_angle_beta 39.196934
_cell_angle_gamma 90.000000
_cell_volume 2227.069476
_symmetry_space_group_name_H-M "C 2/C"
_symmetry_group_IT_number 15
_symmetry_cell_setting 'monoclinic'
loop_
_space_group_symop_operation_xyz
x,y,z
-x,y,1/2-z
-x,-y,-z
x,-y,1/2+z
1/2+x,1/2+y,z
1/2-x,1/2+y,1/2-z
1/2-x,1/2-y,-z
1/2+x,1/2-y,1/2+z
loop_
_atom_site_type_symbol
_atom_site_label
_atom_site_fract_x
_atom_site_fract_y
_atom_site_fract_z
Si Si1 0.000000 0.028790 0.750000
Si Si2 0.972995 0.495893 0.651203
Si Si3 0.005746 0.197917 0.982210
Si Si4 0.601322 0.203522 0.531777
Si Si5 0.671404 0.278764 0.111369
Si Si6 0.173004 0.154598 0.260878
Si Si7 0.475413 0.551419 0.613240
O O1 0.100122 0.140398 0.680583
O O2 0.103628 0.914196 0.742121
O O3 0.907839 0.670585 0.695553
O O4 0.846147 0.354344 0.696354
O O5 0.030552 0.545411 0.582765
O O6 0.104205 0.412377 0.629682
O O7 0.843301 0.269582 0.046801
O O8 0.106322 0.303813 0.978345
O O9 0.055306 0.180581 0.914736
O O10 0.000000 0.000000 0.000000
O O11 0.750000 0.250000 0.500000
O O12 0.507001 0.370155 0.578181
O O13 0.612011 0.383130 0.091343
O O14 0.138371 0.010880 0.309831
#
# Coordination Sequence:
#
# PCOD9271741 Si02
#       7
#     4   8   8   8   8   8   8
#     4  10  22  40  60  86 118 154 206 260 308 374
#     4  11  22  39  63  87 123 166 204 260 322 376
#     4  10  20  36  61  87 118 159 204 250 305 369
#     4  10  21  40  63  91 125 162 211 266 314 374
#     4  11  22  39  61  88 122 162 205 256 313 371
#     4  10  21  39  60  89 122 159 205 256 313 375
#     4   9  20  38  59  84 123 162 201 254 307 370
#
# _framework density 23.349069
#
# number of rings (size 3 to 8) (size 9 to 14) (size 15 to 20)
#    0.000    1.846    0.000    5.077    0.000    3.077 
#    0.000   15.385    0.000    0.000    0.000    0.000 
#    0.000    0.000    0.000    0.000    0.000    0.000 
#
# Total GULP energy -145298.472912 kJ/mol
# GULP energy per Si atom -5588.402804 kJ/mol
# Density = 2.329593 g / cm^3
# Si number density = 23.349069 Si / 1000 Ang^3
#
#
#
# Elastic Constant Matrix: (Units=GPa)
#
#
# Indices 1 2 3 4 5 6 
#
# 1 102.6415 3.7137 40.0414 -0.0221 21.1363 -0.0170
# 2 3.7137 108.4989 17.7695 -0.0389 16.6532 -0.0279
# 3 40.0414 17.7695 45.5091 -0.0106 21.4794 -0.0120
# 4 -0.0221 -0.0389 -0.0106 25.3581 -0.0016 5.4543
# 5 21.1363 16.6532 21.4794 -0.0016 46.0718 -0.0030
# 6 -0.0170 -0.0279 -0.0120 5.4543 -0.0030 36.1865
#
#
#
# Elastic Compliance Matrix: (Units=1/GPa)
#
#
# Indices 1 2 3 4 5 6 
#
# 1 0.015216 0.001899 -0.013476 0.000010 -0.001384 0.000003
# 2 0.001899 0.010271 -0.004510 0.000014 -0.002481 0.000005
# 3 -0.013476 -0.004510 0.040905 -0.000003 -0.011258 0.000003
# 4 0.000010 0.000014 -0.000003 0.040757 -0.000007 -0.006143
# 5 -0.001384 -0.002481 -0.011258 -0.000007 0.028486 -0.000003
# 6 0.000003 0.000005 0.000003 -0.006143 -0.000003 0.028561
#
#
# Mechanical properties :
#
#
# Convention : Reuss Voigt Hill
#
# Bulk Modulus (GPa) = 29.22462 42.18872 35.70667
# Shear Modulus (GPa) = 24.06442 34.53162 29.29802
#
# Velocity S-wave (km/s) = 3.21384 3.84986 3.54613
# Velocity P-wave (km/s) = 5.12984 6.15384 5.66502
#
# Compressibility (1/GPa) = 0.03421772
#
# Stress axis : x y z
#
# Youngs Moduli (GPa) = 65.71986 97.36015 24.44685
#
# Poissons Ratio (x) = -0.18486 0.32944
# Poissons Ratio (y) = -0.12478 0.11026
# Poissons Ratio (z) = 0.88564 0.43910
#
# Static dielectric constant tensor:
#      x y z
#    x 1.877110 0.000000 0.007070 
#    y 0.000000 1.932420 0.000000 
#    z 0.007070 0.000000 1.909530 
# 
# From -- ./inp_files/313086.got.cif
#   From: 2010.05.17/outbox.cif.g08.bks.cpg/sg15_157_cif.got.tgz:313086.got - 2010.06.03 18:47:42.
