data_PCOD9271268
_publ_section_title
;
Structure prediction by ZEFSAII (Michael W. Deem and Ramdas Pophale) SiO2 
 PCOD9271268
Probable space group: C 2/C
;
_chemical_formula_sum "Si O2"
_cell_formula_units_Z 36
_cell_length_a 7.376625
_cell_length_b 14.280050
_cell_length_c 17.064751
_cell_angle_alpha 90.000000
_cell_angle_beta 54.791499
_cell_angle_gamma 90.000000
_cell_volume 1468.726739
_symmetry_space_group_name_H-M "C 2/C"
_symmetry_group_IT_number 15
_symmetry_cell_setting 'monoclinic'
loop_
_space_group_symop_operation_xyz
x,y,z
-x,y,1/2-z
-x,-y,-z
x,-y,1/2+z
1/2+x,1/2+y,z
1/2-x,1/2+y,1/2-z
1/2-x,1/2-y,-z
1/2+x,1/2-y,1/2+z
loop_
_atom_site_type_symbol
_atom_site_label
_atom_site_fract_x
_atom_site_fract_y
_atom_site_fract_z
Si Si1 0.758975 0.091478 0.023887
Si Si2 0.174820 0.999574 0.345362
Si Si3 0.311095 0.779945 0.088501
Si Si4 0.223154 0.790544 0.286552
Si Si5 0.500000 0.370753 0.750000
O O1 0.881938 0.183234 0.030333
O O2 0.669827 0.045036 0.126014
O O3 0.622977 0.133874 0.984467
O O4 0.931172 0.019543 0.943367
O O5 0.256500 0.896334 0.305120
O O6 0.115885 0.064426 0.286341
O O7 0.348611 0.783667 0.171264
O O8 0.041202 0.779460 0.154697
O O9 0.308304 0.704952 0.317834
#
# Coordination Sequence:
#
# PCOD9271268 Si02
#       5
#     8   8   8   8   4
#     4   9  17  34  62  80 113 155 192 239 295 344
#     4  10  20  36  58  86 116 155 193 240 298 344
#     4   9  17  36  60  83 112 157 195 236 292 348
#     4  10  21  37  60  87 116 155 199 236 291 357
#     4  12  22  40  60  88 124 156 190 252 288 344
#
# _framework density 24.511026000000001
#
# number of rings (size 3 to 8) (size 9 to 14) (size 15 to 20)
#    0.000    2.222    2.222    2.667    0.000    0.000 
#    4.000   11.111    0.000    0.000    0.000    0.000 
#    0.000    0.000    0.000    0.000    0.000    0.000 
#
# Total GULP energy -100323.209032 kJ/mol
# GULP energy per Si atom -5573.511613 kJ/mol
# Density = 2.445524 g / cm^3
# Si number density = 24.511026 Si / 1000 Ang^3
#
#
#
# Elastic Constant Matrix: (Units=GPa)
#
#
# Indices 1 2 3 4 5 6 
#
# 1 75.0873 33.4962 32.9179 -0.0001 -1.0507 0.0001
# 2 33.4962 153.0388 43.6777 0.0000 8.5141 0.0000
# 3 32.9179 43.6777 109.9026 0.0000 30.1457 0.0000
# 4 -0.0001 0.0000 0.0000 37.0701 0.0000 -7.7741
# 5 -1.0507 8.5141 30.1457 0.0000 7.6257 0.0000
# 6 0.0001 0.0000 0.0000 -7.7741 0.0000 18.9029
#
#
#
# Elastic Compliance Matrix: (Units=1/GPa)
#
#
# Indices 1 2 3 4 5 6 
#
# 1 0.005347 -0.002589 0.018587 0.000000 -0.069850 0.000000
# 2 -0.002589 0.007732 -0.001997 0.000000 -0.001095 0.000000
# 3 0.018587 -0.001997 -0.035707 0.000000 0.145948 0.000000
# 4 0.000000 0.000000 0.000000 0.029522 0.000000 0.012141
# 5 -0.069850 -0.001095 0.145948 0.000000 -0.454225 -0.000001
# 6 0.000000 0.000000 0.000000 0.012141 -0.000001 0.057895
#
#
# Mechanical properties :
#
#
# Convention : Reuss Voigt Hill
#
# Bulk Modulus (GPa) = 186.09962 62.02358 124.06160
# Shear Modulus (GPa) = -12.02944 27.91553 7.94305
#
# Velocity S-wave (km/s) = -2.21775 3.37842 1.80212
# Velocity P-wave (km/s) = 8.33857 6.37005 7.41988
#
# Compressibility (1/GPa) = 0.00537347
#
# Stress axis : x y z
#
# Youngs Moduli (GPa) = 187.02228 129.33567 -28.00539
#
# Poissons Ratio (x) = 0.33486 0.52054
# Poissons Ratio (y) = 0.48421 -0.05592
# Poissons Ratio (z) = -3.47618 0.25827
#
# Static dielectric constant tensor:
#      x y z
#    x 2.023980 0.000000 0.002390 
#    y 0.000000 1.932230 0.000000 
#    z 0.002390 0.000000 2.091840 
# 
# From -- ./inp_files/132833.got.cif
#   From: 2010.05.17/outbox.cif.g08.bks.cpg/sg15_67_cif.got.tgz:132833.got - 2010.06.03 18:47:42.
