data_PCOD9271274
_publ_section_title
;
Structure prediction by ZEFSAII (Michael W. Deem and Ramdas Pophale) SiO2 
 PCOD9271274
Probable space group: C 2/C
;
_chemical_formula_sum "Si O2"
_cell_formula_units_Z 56
_cell_length_a 12.167829
_cell_length_b 21.945694
_cell_length_c 10.964823
_cell_angle_alpha 90.000000
_cell_angle_beta 97.238745
_cell_angle_gamma 90.000000
_cell_volume 2904.616005
_symmetry_space_group_name_H-M "C 2/C"
_symmetry_group_IT_number 15
_symmetry_cell_setting 'monoclinic'
loop_
_space_group_symop_operation_xyz
x,y,z
-x,y,1/2-z
-x,-y,-z
x,-y,1/2+z
1/2+x,1/2+y,z
1/2-x,1/2+y,1/2-z
1/2-x,1/2-y,-z
1/2+x,1/2-y,1/2+z
loop_
_atom_site_type_symbol
_atom_site_label
_atom_site_fract_x
_atom_site_fract_y
_atom_site_fract_z
Si Si1 0.784557 0.597188 0.904245
Si Si2 0.868987 0.681608 0.728314
Si Si3 0.776917 0.902072 0.467017
Si Si4 0.121571 0.973080 0.230662
Si Si5 0.871047 0.175058 0.200284
Si Si6 0.395086 0.018973 0.403832
Si Si7 0.717145 0.085811 0.309552
O O1 0.814946 0.661573 0.849997
O O2 0.666110 0.570748 0.846017
O O3 0.861122 0.546974 0.846833
O O4 0.805914 0.590330 0.050335
O O5 0.806429 0.640029 0.621419
O O6 0.854885 0.752415 0.694421
O O7 0.000000 0.669199 0.750000
O O8 0.864218 0.933146 0.388853
O O9 0.839431 0.860216 0.572667
O O10 0.700967 0.953542 0.521224
O O11 0.000000 0.992957 0.250000
O O12 0.196650 0.031915 0.213309
O O13 0.782281 0.146697 0.281658
O O14 0.000000 0.163662 0.250000
O O15 0.387186 0.067440 0.291466
O O16 0.500000 0.000000 0.500000
#
# Coordination Sequence:
#
# PCOD9271274 Si02
#       7
#     8   8   8   8   8   8   8
#     4  10  21  36  55  86 116 150 195 243 298 360
#     4  10  21  39  60  83 116 158 203 247 303 358
#     4  10  20  38  60  88 116 156 207 247 300 370
#     4  10  21  35  57  85 119 156 189 244 303 358
#     4  10  22  37  59  86 115 161 204 247 297 359
#     4  10  20  36  58  86 120 155 190 246 303 365
#     4  10  21  37  54  88 121 149 199 239 302 361
#
# _framework density 19.279657
#
# number of rings (size 3 to 8) (size 9 to 14) (size 15 to 20)
#    0.000    2.000    1.429    1.714    2.000    1.714 
#    0.000    0.000    0.000    0.000    0.000    0.000 
#    0.000    0.000    0.000    0.000    0.000    0.000 
#
# Total GULP energy -156040.899137 kJ/mol
# GULP energy per Si atom -5572.889255 kJ/mol
# Density = 1.923578 g / cm^3
# Si number density = 19.279657 Si / 1000 Ang^3
#
#
#
# Elastic Constant Matrix: (Units=GPa)
#
#
# Indices 1 2 3 4 5 6 
#
# 1 72.8940 31.0284 29.4988 0.0000 5.4223 0.0000
# 2 31.0284 92.9373 30.4765 0.0000 1.7358 0.0000
# 3 29.4988 30.4765 117.6705 0.0000 -3.7354 0.0000
# 4 0.0000 0.0000 0.0000 26.9258 0.0000 4.7580
# 5 5.4223 1.7358 -3.7354 0.0000 21.6413 0.0000
# 6 0.0000 0.0000 0.0000 4.7580 0.0000 19.7446
#
#
#
# Elastic Compliance Matrix: (Units=1/GPa)
#
#
# Indices 1 2 3 4 5 6 
#
# 1 0.017362 -0.004630 -0.003298 0.000000 -0.004548 0.000000
# 2 -0.004630 0.013041 -0.002225 0.000000 -0.000270 0.000000
# 3 -0.003298 -0.002225 0.009988 0.000000 0.002729 0.000000
# 4 0.000000 0.000000 0.000000 0.038791 0.000000 -0.009348
# 5 -0.004548 -0.000270 0.002729 0.000000 0.047840 0.000000
# 6 0.000000 0.000000 0.000000 -0.009348 0.000000 0.052899
#
#
# Mechanical properties :
#
#
# Convention : Reuss Voigt Hill
#
# Bulk Modulus (GPa) = 49.79013 51.72327 50.75670
# Shear Modulus (GPa) = 24.16362 26.49554 25.32958
#
# Velocity S-wave (km/s) = 3.54407 3.71114 3.62857
# Velocity P-wave (km/s) = 6.52905 6.72678 6.62865
#
# Compressibility (1/GPa) = 0.02008430
#
# Stress axis : x y z
#
# Youngs Moduli (GPa) = 57.59598 76.68350 100.12034
#
# Poissons Ratio (x) = 0.35507 0.33017
# Poissons Ratio (y) = 0.26669 0.22280
# Poissons Ratio (z) = 0.18993 0.17064
#
# Static dielectric constant tensor:
#      x y z
#    x 1.694680 0.000000 0.004970 
#    y 0.000000 1.658240 0.000000 
#    z 0.004970 0.000000 1.724420 
# 
# From -- ./inp_files/88898.got.cif
#   From: 2010.05.17/outbox.cif.g08.bks.cpg/sg15_45_cif.got.tgz:88898.got - 2010.06.03 18:47:42.
