data_PCOD9271397
_publ_section_title
;
Structure prediction by ZEFSAII (Michael W. Deem and Ramdas Pophale) SiO2 
 PCOD9271397
Probable space group: C 2/C
;
_chemical_formula_sum "Si O2"
_cell_formula_units_Z 56
_cell_length_a 27.735535
_cell_length_b 19.065723
_cell_length_c 8.756932
_cell_angle_alpha 90.000000
_cell_angle_beta 141.040734
_cell_angle_gamma 90.000000
_cell_volume 2911.602245
_symmetry_space_group_name_H-M "C 2/C"
_symmetry_group_IT_number 15
_symmetry_cell_setting 'monoclinic'
loop_
_space_group_symop_operation_xyz
x,y,z
-x,y,1/2-z
-x,-y,-z
x,-y,1/2+z
1/2+x,1/2+y,z
1/2-x,1/2+y,1/2-z
1/2-x,1/2-y,-z
1/2+x,1/2-y,1/2+z
loop_
_atom_site_type_symbol
_atom_site_label
_atom_site_fract_x
_atom_site_fract_y
_atom_site_fract_z
Si Si1 0.072359 0.313710 0.314427
Si Si2 0.876992 0.955791 0.787942
Si Si3 0.720779 0.893492 0.788948
Si Si4 0.709562 0.987052 0.463075
Si Si5 0.956689 0.438745 0.486960
Si Si6 0.466150 0.659999 0.335581
Si Si7 0.894153 0.899130 0.167579
O O1 0.151929 0.339740 0.587181
O O2 0.076091 0.234540 0.262900
O O3 0.000000 0.315499 0.250000
O O4 0.051400 0.369210 0.132616
O O5 0.784945 0.955304 0.569630
O O6 0.910434 0.902429 0.747483
O O7 0.900899 0.034288 0.799208
O O8 0.902856 0.930955 0.019528
O O9 0.710722 0.956123 0.637389
O O10 0.715254 0.930134 0.941235
O O11 0.808166 0.868779 0.977286
O O12 0.629461 0.964004 0.195250
O O13 0.000000 0.426628 0.750000
O O14 0.000000 0.500000 0.500000
O O15 0.500000 0.650581 0.250000
O O16 0.539391 0.654963 0.628085
#
# Coordination Sequence:
#
# PCOD9271397 Si02
#       7
#     8   8   8   8   8   8   8
#     4  10  22  39  55  77 112 153 191 232 282 335
#     4  10  20  36  59  85 112 142 181 235 286 336
#     4   9  18  35  57  83 111 140 180 233 281 329
#     4   9  18  32  54  84 110 138 180 227 280 330
#     4  11  20  33  56  84 112 148 190 234 280 331
#     4  11  23  39  55  78 114 153 188 229 282 342
#     4  10  20  36  61  87 110 142 185 230 281 337
#
# _framework density 19.233397
#
# number of rings (size 3 to 8) (size 9 to 14) (size 15 to 20)
#    0.000    2.000    0.000    4.714    0.000    2.286 
#    0.000   10.714    0.000    0.000    0.000    0.000 
#    0.000    0.000    0.000    0.000    0.000    0.000 
#
# Total GULP energy -156247.802909 kJ/mol
# GULP energy per Si atom -5580.278675 kJ/mol
# Density = 1.918962 g / cm^3
# Si number density = 19.233397 Si / 1000 Ang^3
#
#
#
# Elastic Constant Matrix: (Units=GPa)
#
#
# Indices 1 2 3 4 5 6 
#
# 1 51.0928 26.5334 21.2493 0.0000 11.0362 0.0000
# 2 26.5334 76.2341 32.8766 0.0000 16.7850 0.0000
# 3 21.2493 32.8766 93.6549 0.0000 19.6467 0.0000
# 4 0.0000 0.0000 0.0000 26.2050 0.0000 4.5868
# 5 11.0362 16.7850 19.6467 0.0000 26.2659 0.0000
# 6 0.0000 0.0000 0.0000 4.5868 0.0000 24.0411
#
#
#
# Elastic Compliance Matrix: (Units=1/GPa)
#
#
# Indices 1 2 3 4 5 6 
#
# 1 0.025002 -0.006693 -0.002392 0.000000 -0.004439 0.000000
# 2 -0.006693 0.018382 -0.003629 0.000000 -0.006220 0.000000
# 3 -0.002392 -0.003629 0.013992 0.000000 -0.007142 0.000000
# 4 0.000000 0.000000 0.000000 0.039479 0.000000 -0.007532
# 5 -0.004439 -0.006220 -0.007142 0.000000 0.049254 0.000000
# 6 0.000000 0.000000 0.000000 -0.007532 0.000000 0.043033
#
#
# Mechanical properties :
#
#
# Convention : Reuss Voigt Hill
#
# Bulk Modulus (GPa) = 31.30174 42.47781 36.88978
# Shear Modulus (GPa) = 22.20063 24.65724 23.42894
#
# Velocity S-wave (km/s) = 3.40115 3.58439 3.49397
# Velocity P-wave (km/s) = 5.63327 6.26609 5.95809
#
# Compressibility (1/GPa) = 0.03194710
#
# Stress axis : x y z
#
# Youngs Moduli (GPa) = 39.99745 54.40215 71.46700
#
# Poissons Ratio (x) = 0.36411 0.17095
# Poissons Ratio (y) = 0.26770 0.25938
# Poissons Ratio (z) = 0.09567 0.19744
#
# Static dielectric constant tensor:
#      x y z
#    x 1.710830 0.000000 -0.008420 
#    y 0.000000 1.664940 0.000000 
#    z -0.008420 0.000000 1.702440 
# 
# From -- ./inp_files/67201.got.cif
#   From: 2010.05.17/outbox.cif.g08.bks.cpg/sg15_34_cif.got.tgz:67201.got - 2010.06.03 18:47:42.
