data_PCOD9271895
_publ_section_title
;
Structure prediction by ZEFSAII (Michael W. Deem and Ramdas Pophale) SiO2 
 PCOD9271895
Probable space group: C 2/C
;
_chemical_formula_sum "Si O2"
_cell_formula_units_Z 56
_cell_length_a 10.114933
_cell_length_b 19.248301
_cell_length_c 22.792821
_cell_angle_alpha 90.000000
_cell_angle_beta 42.317461
_cell_angle_gamma 90.000000
_cell_volume 2987.597171
_symmetry_space_group_name_H-M "C 2/C"
_symmetry_group_IT_number 15
_symmetry_cell_setting 'monoclinic'
loop_
_space_group_symop_operation_xyz
x,y,z
-x,y,1/2-z
-x,-y,-z
x,-y,1/2+z
1/2+x,1/2+y,z
1/2-x,1/2+y,1/2-z
1/2-x,1/2-y,-z
1/2+x,1/2-y,1/2+z
loop_
_atom_site_type_symbol
_atom_site_label
_atom_site_fract_x
_atom_site_fract_y
_atom_site_fract_z
Si Si1 0.589304 0.188658 0.048339
Si Si2 0.818401 0.235405 0.265572
Si Si3 0.913825 0.388965 0.196229
Si Si4 0.505600 0.680118 0.094224
Si Si5 0.181712 0.912137 0.946182
Si Si6 0.721119 0.448980 0.364375
Si Si7 0.953339 0.661059 0.964601
O O1 0.382300 0.219501 0.136402
O O2 0.656555 0.128484 0.070296
O O3 0.750000 0.250000 0.000000
O O4 0.557537 0.160463 0.993094
O O5 0.820649 0.314538 0.242082
O O6 0.861040 0.184967 0.196952
O O7 0.000000 0.228204 0.250000
O O8 0.786771 0.444606 0.274917
O O9 0.133610 0.393847 0.151551
O O10 0.945725 0.389615 0.116133
O O11 0.416057 0.637160 0.070441
O O12 0.529749 0.759837 0.065108
O O13 0.718000 0.649937 0.043200
O O14 0.258841 0.978988 0.885681
O O15 0.005165 0.932582 0.048546
#
# Coordination Sequence:
#
# PCOD9271895 Si02
#       7
#     8   8   8   8   8   8   8
#     4  12  24  38  61  98 138 161 201 281 334 370
#     4  11  21  35  60  93 126 163 206 259 328 387
#     4  10  20  37  64  87 114 172 226 241 298 389
#     4  10  20  36  62  89 127 161 210 252 319 395
#     4  11  23  40  60  96 128 165 215 261 327 367
#     4  10  21  38  66  86 121 173 218 260 292 393
#     4  10  20  36  62  93 122 166 203 260 324 384
#
# _framework density 18.744160000000001
#
# number of rings (size 3 to 8) (size 9 to 14) (size 15 to 20)
#    0.000    1.429    5.714    0.857    0.000    2.857 
#    0.000    2.857    0.000    0.000    0.000    0.000 
#    0.000    0.000    0.000    0.000    0.000    0.000 
#
# Total GULP energy -156241.445023 kJ/mol
# GULP energy per Si atom -5580.051608 kJ/mol
# Density = 1.870150 g / cm^3
# Si number density = 18.744160 Si / 1000 Ang^3
#
#
#
# Elastic Constant Matrix: (Units=GPa)
#
#
# Indices 1 2 3 4 5 6 
#
# 1 99.3544 14.8255 47.8903 -0.0033 7.1003 0.0009
# 2 14.8255 43.3735 36.1261 -0.0015 -1.7995 0.0006
# 3 47.8903 36.1261 139.4455 -0.0032 2.8979 0.0021
# 4 -0.0033 -0.0015 -0.0032 24.2562 0.0038 5.0481
# 5 7.1003 -1.7995 2.8979 0.0038 28.2441 -0.0017
# 6 0.0009 0.0006 0.0021 5.0481 -0.0017 17.0723
#
#
#
# Elastic Compliance Matrix: (Units=1/GPa)
#
#
# Indices 1 2 3 4 5 6 
#
# 1 0.012297 -0.001081 -0.003886 0.000002 -0.002761 -0.000001
# 2 -0.001081 0.029695 -0.007382 0.000000 0.002921 0.000000
# 3 -0.003886 -0.007382 0.010430 0.000001 -0.000564 -0.000001
# 4 0.000002 0.000000 0.000001 0.043930 -0.000007 -0.012990
# 5 -0.002761 0.002921 -0.000564 -0.000007 0.036344 0.000006
# 6 -0.000001 0.000000 -0.000001 -0.012990 0.000006 0.062415
#
#
# Mechanical properties :
#
#
# Convention : Reuss Voigt Hill
#
# Bulk Modulus (GPa) = 36.07106 53.31748 44.69427
# Shear Modulus (GPa) = 21.82924 26.13663 23.98293
#
# Velocity S-wave (km/s) = 3.41631 3.73820 3.58087
# Velocity P-wave (km/s) = 5.90315 6.86577 6.40258
#
# Compressibility (1/GPa) = 0.02772306
#
# Stress axis : x y z
#
# Youngs Moduli (GPa) = 81.32351 33.67538 95.87750
#
# Poissons Ratio (x) = 0.03642 0.37253
# Poissons Ratio (y) = 0.08794 0.70781
# Poissons Ratio (z) = 0.31598 0.24861
#
# Static dielectric constant tensor:
#      x y z
#    x 1.628330 0.000000 0.016920 
#    y 0.000000 1.657010 0.000000 
#    z 0.016920 0.000000 1.684710 
# 
# From -- ./inp_files/233761.got.cif
#   From: 2010.05.17/outbox.cif.g08.bks.cpg/sg15_117_cif.got.tgz:233761.got - 2010.06.03 18:47:42.
