data_PCOD9271589
_publ_section_title
;
Structure prediction by ZEFSAII (Michael W. Deem and Ramdas Pophale) SiO2 
 PCOD9271589
Probable space group: C 2/C
;
_chemical_formula_sum "Si O2"
_cell_formula_units_Z 56
_cell_length_a 12.885120
_cell_length_b 18.272195
_cell_length_c 12.678610
_cell_angle_alpha 90.000000
_cell_angle_beta 83.973875
_cell_angle_gamma 90.000000
_cell_volume 2968.549684
_symmetry_space_group_name_H-M "C 2/C"
_symmetry_group_IT_number 15
_symmetry_cell_setting 'monoclinic'
loop_
_space_group_symop_operation_xyz
x,y,z
-x,y,1/2-z
-x,-y,-z
x,-y,1/2+z
1/2+x,1/2+y,z
1/2-x,1/2+y,1/2-z
1/2-x,1/2-y,-z
1/2+x,1/2-y,1/2+z
loop_
_atom_site_type_symbol
_atom_site_label
_atom_site_fract_x
_atom_site_fract_y
_atom_site_fract_z
Si Si1 0.199874 0.254085 0.621335
Si Si2 0.217303 0.994541 0.022178
Si Si3 0.557441 0.384394 0.135242
Si Si4 0.858502 0.847062 0.025953
Si Si5 0.742903 0.718612 0.156471
Si Si6 0.890541 0.591872 0.381971
Si Si7 0.381608 0.076571 0.139936
O O1 0.250000 0.250000 0.500000
O O2 0.141898 0.178385 0.650124
O O3 0.272184 0.272464 0.715858
O O4 0.118044 0.320643 0.624166
O O5 0.298024 0.021478 0.102073
O O6 0.117703 0.952659 0.078393
O O7 0.182834 0.069524 0.969353
O O8 0.287092 0.939455 0.946312
O O9 0.500000 0.404295 0.250000
O O10 0.473067 0.350711 0.063406
O O11 0.784460 0.794386 0.103277
O O12 0.848748 0.813819 0.908162
O O13 0.834534 0.658120 0.131482
O O14 0.889635 0.563325 0.263080
O O15 0.002202 0.571876 0.419582
#
# Coordination Sequence:
#
# PCOD9271589 Si02
#       7
#     8   8   8   8   8   8   8
#     4  11  21  39  63  90 119 157 210 268 308 362
#     4  11  23  38  57  89 127 163 199 256 311 373
#     4  12  24  39  63  93 124 166 211 253 316 384
#     4  10  21  39  61  89 124 163 209 246 315 370
#     4   9  19  39  64  88 116 164 209 255 303 372
#     4  10  20  36  60  87 118 153 208 252 315 362
#     4   9  20  36  61  86 115 159 202 259 306 366
#
# _framework density 18.864429999999999
#
# number of rings (size 3 to 8) (size 9 to 14) (size 15 to 20)
#    0.000    1.714    2.857    1.714    4.000    0.000 
#    0.000    0.714    0.000    0.000    0.000    0.000 
#    0.000    0.000    0.000    0.000    0.000    0.000 
#
# Total GULP energy -156096.804922 kJ/mol
# GULP energy per Si atom -5574.885890 kJ/mol
# Density = 1.882149 g / cm^3
# Si number density = 18.864430 Si / 1000 Ang^3
#
#
#
# Elastic Constant Matrix: (Units=GPa)
#
#
# Indices 1 2 3 4 5 6 
#
# 1 66.1738 7.9290 36.1853 0.0000 10.3490 0.0000
# 2 7.9290 88.6760 19.3390 0.0000 -4.5586 0.0000
# 3 36.1853 19.3390 99.5939 0.0000 1.0201 0.0000
# 4 0.0000 0.0000 0.0000 14.4140 0.0000 -6.7350
# 5 10.3490 -4.5586 1.0201 0.0000 36.4806 0.0000
# 6 0.0000 0.0000 0.0000 -6.7350 0.0000 11.9802
#
#
#
# Elastic Compliance Matrix: (Units=1/GPa)
#
#
# Indices 1 2 3 4 5 6 
#
# 1 0.019905 -0.000520 -0.007074 0.000000 -0.005514 0.000000
# 2 -0.000520 0.011876 -0.002134 0.000000 0.001691 0.000000
# 3 -0.007074 -0.002134 0.013011 0.000000 0.001376 0.000000
# 4 0.000000 0.000000 0.000000 0.094094 0.000000 0.052898
# 5 -0.005514 0.001691 0.001376 0.000000 0.029149 0.000000
# 6 0.000000 0.000000 0.000000 0.052898 0.000000 0.113209
#
#
# Mechanical properties :
#
#
# Convention : Reuss Voigt Hill
#
# Bulk Modulus (GPa) = 39.47277 42.37226 40.92251
# Shear Modulus (GPa) = 16.17351 25.30766 20.74058
#
# Velocity S-wave (km/s) = 2.93124 3.66670 3.31940
# Velocity P-wave (km/s) = 5.69439 6.35897 6.03583
#
# Compressibility (1/GPa) = 0.02533392
#
# Stress axis : x y z
#
# Youngs Moduli (GPa) = 50.23894 84.20381 76.85524
#
# Poissons Ratio (x) = 0.04382 0.54371
# Poissons Ratio (y) = 0.02614 0.16403
# Poissons Ratio (z) = 0.35541 0.17972
#
# Static dielectric constant tensor:
#      x y z
#    x 1.659320 0.000000 0.026230 
#    y 0.000000 1.653530 0.000000 
#    z 0.026230 0.000000 1.685140 
# 
# From -- ./inp_files/88874.got.cif
#   From: 2010.05.17/outbox.cif.g08.bks.cpg/sg15_45_cif.got.tgz:88874.got - 2010.06.03 18:47:42.
