data_PCOD9271790
_publ_section_title
;
Structure prediction by ZEFSAII (Michael W. Deem and Ramdas Pophale) SiO2 
 PCOD9271790
Probable space group: C 2/C
;
_chemical_formula_sum "Si O2"
_cell_formula_units_Z 60
_cell_length_a 8.525239
_cell_length_b 20.104097
_cell_length_c 23.831773
_cell_angle_alpha 90.000000
_cell_angle_beta 146.578349
_cell_angle_gamma 90.000000
_cell_volume 2249.771457
_symmetry_space_group_name_H-M "C 2/C"
_symmetry_group_IT_number 15
_symmetry_cell_setting 'monoclinic'
loop_
_space_group_symop_operation_xyz
x,y,z
-x,y,1/2-z
-x,-y,-z
x,-y,1/2+z
1/2+x,1/2+y,z
1/2-x,1/2+y,1/2-z
1/2-x,1/2-y,-z
1/2+x,1/2-y,1/2+z
loop_
_atom_site_type_symbol
_atom_site_label
_atom_site_fract_x
_atom_site_fract_y
_atom_site_fract_z
Si Si1 0.709648 0.019109 0.380031
Si Si2 0.594170 0.124754 0.841371
Si Si3 0.492091 0.733157 0.145784
Si Si4 0.222486 0.643656 0.451822
Si Si5 0.566534 0.462410 0.878115
Si Si6 0.000000 0.130912 0.250000
Si Si7 0.826679 0.261061 0.413268
Si Si8 0.139191 0.601896 0.551647
O O1 0.599162 0.086187 0.375331
O O2 0.812691 0.033746 0.347334
O O3 0.527800 0.952140 0.335224
O O4 0.000000 0.000000 0.500000
O O5 0.500000 0.133510 0.750000
O O6 0.467375 0.187678 0.835050
O O7 0.937006 0.133992 0.945859
O O8 0.564235 0.689137 0.220785
O O9 0.662856 0.717583 0.139957
O O10 0.156447 0.726987 0.030194
O O11 0.175182 0.717471 0.415218
O O12 0.097252 0.629164 0.475234
O O13 0.531630 0.425074 0.809381
O O14 0.668211 0.537338 0.897293
O O15 0.838781 0.423250 0.986867
O O16 0.716779 0.335815 0.375256
#
# Coordination Sequence:
#
# PCOD9271790 Si02
#       8
#     8   8   8   8   8   4   8   8
#     4  10  20  41  64  91 123 167 217 263 307 392
#     4  10  20  36  61  92 122 162 207 262 320 379
#     4  10  21  38  65  96 122 168 222 270 325 394
#     4  10  21  39  66  94 127 163 214 272 315 376
#     4  11  24  40  64  92 133 175 211 268 333 393
#     4  12  22  44  60  94 132 166 216 278 332 390
#     4  10  21  38  67  94 124 168 224 270 320 392
#     4  11  22  40  63  98 125 171 219 265 323 395
#
# _framework density 26.669376
#
# number of rings (size 3 to 8) (size 9 to 14) (size 15 to 20)
#    0.000    1.600    4.667    1.200    5.600    0.000 
#    4.800    0.000    0.000    1.600    0.000    0.000 
#    0.000    0.000    0.000    0.000    0.000    0.000 
#
# Total GULP energy -167639.055970 kJ/mol
# GULP energy per Si atom -5587.968532 kJ/mol
# Density = 2.660868 g / cm^3
# Si number density = 26.669376 Si / 1000 Ang^3
#
#
#
# Elastic Constant Matrix: (Units=GPa)
#
#
# Indices 1 2 3 4 5 6 
#
# 1 119.1394 64.2205 40.8686 -0.0010 -26.7383 0.0004
# 2 64.2205 212.7068 23.2298 0.0011 -13.9133 -0.0017
# 3 40.8686 23.2298 69.5702 0.0130 4.0292 0.0015
# 4 -0.0010 0.0011 0.0130 20.8490 0.0027 -21.3746
# 5 -26.7383 -13.9133 4.0292 0.0027 42.4991 -0.0004
# 6 0.0004 -0.0017 0.0015 -21.3746 -0.0004 34.2199
#
#
#
# Elastic Compliance Matrix: (Units=1/GPa)
#
#
# Indices 1 2 3 4 5 6 
#
# 1 0.014917 -0.002997 -0.008294 0.000014 0.009190 0.000009
# 2 -0.002997 0.005616 -0.000113 0.000000 -0.000036 0.000000
# 3 -0.008294 -0.000113 0.019697 -0.000035 -0.007123 -0.000023
# 4 0.000014 0.000000 -0.000035 0.133371 0.000005 0.083307
# 5 0.009190 -0.000036 -0.007123 0.000005 0.029975 0.000003
# 6 0.000009 0.000000 -0.000023 0.083307 0.000003 0.081258
#
#
# Mechanical properties :
#
#
# Convention : Reuss Voigt Hill
#
# Bulk Modulus (GPa) = 57.39959 73.11714 65.25837
# Shear Modulus (GPa) = 15.95155 37.72009 26.83582
#
# Velocity S-wave (km/s) = 2.44831 3.76488 3.17557
# Velocity P-wave (km/s) = 5.43706 6.80990 6.16183
#
# Compressibility (1/GPa) = 0.01742173
#
# Stress axis : x y z
#
# Youngs Moduli (GPa) = 67.03952 178.06220 50.77016
#
# Poissons Ratio (x) = 0.53359 0.42110
# Poissons Ratio (y) = 0.20089 0.00572
# Poissons Ratio (z) = 0.55605 0.02008
#
# Static dielectric constant tensor:
#      x y z
#    x 2.177870 -0.000010 -0.255510 
#    y -0.000010 2.045200 0.000020 
#    z -0.255510 0.000020 2.728730 
# 
# From -- ./inp_files/290118.got.cif
#   From: 2010.05.17/outbox.cif.g08.bks.cpg/sg15_146_cif.got.tgz:290118.got - 2010.06.03 18:47:42.
