data_PCOD9271529
_publ_section_title
;
Structure prediction by ZEFSAII (Michael W. Deem and Ramdas Pophale) SiO2 
 PCOD9271529
Probable space group: C 2/C
;
_chemical_formula_sum "Si O2"
_cell_formula_units_Z 60
_cell_length_a 9.074580
_cell_length_b 14.986695
_cell_length_c 25.466070
_cell_angle_alpha 90.000000
_cell_angle_beta 73.590856
_cell_angle_gamma 90.000000
_cell_volume 3322.268259
_symmetry_space_group_name_H-M "C 2/C"
_symmetry_group_IT_number 15
_symmetry_cell_setting 'monoclinic'
loop_
_space_group_symop_operation_xyz
x,y,z
-x,y,1/2-z
-x,-y,-z
x,-y,1/2+z
1/2+x,1/2+y,z
1/2-x,1/2+y,1/2-z
1/2-x,1/2-y,-z
1/2+x,1/2-y,1/2+z
loop_
_atom_site_type_symbol
_atom_site_label
_atom_site_fract_x
_atom_site_fract_y
_atom_site_fract_z
Si Si1 0.695016 0.304937 0.055764
Si Si2 0.982045 0.948698 0.861157
Si Si3 0.868884 0.120841 0.602002
Si Si4 0.170598 0.495656 0.430984
Si Si5 0.592060 0.798831 0.194027
Si Si6 0.626672 0.894582 0.037967
Si Si7 0.000000 0.127810 0.250000
Si Si8 0.053937 0.241077 0.397522
O O1 0.512329 0.313530 0.078354
O O2 0.760957 0.406388 0.047904
O O3 0.776673 0.259063 0.097644
O O4 0.750000 0.250000 0.000000
O O5 0.800488 0.971721 0.877999
O O6 0.042028 0.928832 0.796586
O O7 0.010778 0.861409 0.893849
O O8 0.064339 0.031203 0.879896
O O9 0.743603 0.159638 0.654851
O O10 0.779492 0.101094 0.556964
O O11 0.148711 0.572119 0.476669
O O12 0.006560 0.461494 0.426466
O O13 0.500000 0.847640 0.250000
O O14 0.623282 0.700299 0.215615
O O15 0.478126 0.784130 0.156251
O O16 0.558065 0.795306 0.051822
#
# Coordination Sequence:
#
# PCOD9271529 Si02
#       8
#     8   8   8   8   8   8   4   8
#     4  10  22  36  53  84 119 154 180 228 286 344
#     4  10  20  36  60  82 110 145 189 234 292 332
#     4  10  21  37  58  84 110 151 190 230 288 338
#     4   9  20  37  54  81 116 149 188 230 277 347
#     4   8  17  40  61  73 106 147 191 230 280 333
#     4   9  19  38  54  82 114 150 188 225 281 341
#     4   8  18  40  56  80 106 142 182 228 288 330
#     4   9  19  37  56  79 114 149 183 232 282 347
#
# _framework density 18.059950000000001
#
# number of rings (size 3 to 8) (size 9 to 14) (size 15 to 20)
#    0.400    2.400    0.000    0.000    3.733    1.600 
#   28.800    0.000    0.000    0.000    0.000    0.000 
#    0.000    0.000    0.000    0.000    0.000    0.000 
#
# Total GULP energy -167024.173025 kJ/mol
# GULP energy per Si atom -5567.472434 kJ/mol
# Density = 1.801885 g / cm^3
# Si number density = 18.059950 Si / 1000 Ang^3
#
#
#
# Elastic Constant Matrix: (Units=GPa)
#
#
# Indices 1 2 3 4 5 6 
#
# 1 121.9945 26.2367 40.1609 0.0000 2.7744 0.0000
# 2 26.2367 71.0472 41.8169 0.0000 3.0329 0.0000
# 3 40.1609 41.8169 76.8512 0.0000 -4.4731 0.0000
# 4 0.0000 0.0000 0.0000 25.1133 0.0000 0.3535
# 5 2.7744 3.0329 -4.4731 0.0000 14.7037 0.0000
# 6 0.0000 0.0000 0.0000 0.3535 0.0000 12.2031
#
#
#
# Elastic Compliance Matrix: (Units=1/GPa)
#
#
# Indices 1 2 3 4 5 6 
#
# 1 0.010094 -0.000535 -0.005180 0.000000 -0.003370 0.000000
# 2 -0.000535 0.021662 -0.011974 0.000000 -0.008010 0.000000
# 3 -0.005180 -0.011974 0.022839 0.000000 0.010395 0.000000
# 4 0.000000 0.000000 0.000000 0.039836 0.000000 -0.001154
# 5 -0.003370 -0.008010 0.010395 0.000000 0.073460 0.000000
# 6 0.000000 0.000000 0.000000 -0.001154 0.000000 0.081980
#
#
# Mechanical properties :
#
#
# Convention : Reuss Voigt Hill
#
# Bulk Modulus (GPa) = 52.03352 54.03577 53.03464
# Shear Modulus (GPa) = 17.14354 21.18257 19.16306
#
# Velocity S-wave (km/s) = 3.08434 3.42848 3.26096
# Velocity P-wave (km/s) = 6.44658 6.75706 6.60364
#
# Compressibility (1/GPa) = 0.01921838
#
# Stress axis : x y z
#
# Youngs Moduli (GPa) = 99.06822 46.16373 43.78395
#
# Poissons Ratio (x) = 0.02469 0.22680
# Poissons Ratio (y) = 0.05299 0.52425
# Poissons Ratio (z) = 0.51318 0.55275
#
# Static dielectric constant tensor:
#      x y z
#    x 1.638590 0.000000 -0.012710 
#    y 0.000000 1.641730 0.000000 
#    z -0.012710 0.000000 1.631630 
# 
# From -- ./inp_files/288422.got.cif
#   From: 2010.05.17/outbox.cif.g08.bks.cpg/sg15_145_cif.got.tgz:288422.got - 2010.06.03 18:47:42.
