data_PCOD9271808
_publ_section_title
;
Structure prediction by ZEFSAII (Michael W. Deem and Ramdas Pophale) SiO2 
 PCOD9271808
Probable space group: C 2/C
;
_chemical_formula_sum "Si O2"
_cell_formula_units_Z 36
_cell_length_a 16.597288
_cell_length_b 12.454855
_cell_length_c 8.633306
_cell_angle_alpha 90.000000
_cell_angle_beta 55.838799
_cell_angle_gamma 90.000000
_cell_volume 1476.727898
_symmetry_space_group_name_H-M "C 2/C"
_symmetry_group_IT_number 15
_symmetry_cell_setting 'monoclinic'
loop_
_space_group_symop_operation_xyz
x,y,z
-x,y,1/2-z
-x,-y,-z
x,-y,1/2+z
1/2+x,1/2+y,z
1/2-x,1/2+y,1/2-z
1/2-x,1/2-y,-z
1/2+x,1/2-y,1/2+z
loop_
_atom_site_type_symbol
_atom_site_label
_atom_site_fract_x
_atom_site_fract_y
_atom_site_fract_z
Si Si1 0.633744 0.351457 0.521997
Si Si2 0.083737 0.974956 0.273583
Si Si3 0.000000 0.663373 0.750000
Si Si4 0.717049 0.126984 0.052812
Si Si5 0.656041 0.064185 0.799314
O O1 0.582887 0.429070 0.447222
O O2 0.603477 0.399055 0.722165
O O3 0.580587 0.237980 0.575738
O O4 0.748818 0.365871 0.364391
O O5 0.183041 0.930750 0.096655
O O6 0.000000 0.933608 0.250000
O O7 0.938029 0.595903 0.695236
O O8 0.645711 0.095576 0.989156
O O9 0.750000 0.250000 0.000000
O O10 0.681219 0.061605 0.242284
#
# Coordination Sequence:
#
# PCOD9271808 Si02
#       5
#     8   8   4   8   8
#     4  10  22  38  63  94 129 169 220 279 323 379
#     4  10  20  36  61  94 123 163 225 269 317 390
#     4  12  24  38  68  92 138 176 212 274 332 402
#     4  10  24  45  69  94 137 174 214 282 327 387
#     4  10  25  45  65  97 130 173 230 266 329 397
#
# _framework density 24.378222999999998
#
# number of rings (size 3 to 8) (size 9 to 14) (size 15 to 20)
#    0.000    1.778    1.111    1.333    3.111    9.778 
#    2.000    0.000    0.000    0.000    0.000    0.000 
#    0.000    0.000    0.000    0.000    0.000    0.000 
#
# Total GULP energy -100471.207916 kJ/mol
# GULP energy per Si atom -5581.733773 kJ/mol
# Density = 2.432274 g / cm^3
# Si number density = 24.378223 Si / 1000 Ang^3
#
#
#
# Elastic Constant Matrix: (Units=GPa)
#
#
# Indices 1 2 3 4 5 6 
#
# 1 145.7882 14.0029 1.9624 0.0000 20.6767 0.0000
# 2 14.0029 125.4956 25.6141 0.0000 11.9535 0.0000
# 3 1.9624 25.6141 52.8102 0.0000 5.6667 0.0000
# 4 0.0000 0.0000 0.0000 15.0198 0.0000 4.2232
# 5 20.6767 11.9535 5.6667 0.0000 36.5625 0.0000
# 6 0.0000 0.0000 0.0000 4.2232 0.0000 31.7277
#
#
#
# Elastic Compliance Matrix: (Units=1/GPa)
#
#
# Indices 1 2 3 4 5 6 
#
# 1 0.007490 -0.000528 0.000421 0.000000 -0.004128 0.000000
# 2 -0.000528 0.009069 -0.004162 0.000000 -0.002021 0.000000
# 3 0.000421 -0.004162 0.021171 0.000000 -0.002158 0.000000
# 4 0.000000 0.000000 0.000000 0.069167 0.000000 -0.009207
# 5 -0.004128 -0.002021 -0.002158 0.000000 0.030680 0.000000
# 6 0.000000 0.000000 0.000000 -0.009207 0.000000 0.032744
#
#
# Mechanical properties :
#
#
# Convention : Reuss Voigt Hill
#
# Bulk Modulus (GPa) = 34.25823 45.25034 39.75428
# Shear Modulus (GPa) = 26.51242 35.49630 31.00436
#
# Velocity S-wave (km/s) = 3.30137 3.81998 3.57011
# Velocity P-wave (km/s) = 5.34934 6.16915 5.77381
#
# Compressibility (1/GPa) = 0.02919007
#
# Stress axis : x y z
#
# Youngs Moduli (GPa) = 133.51433 110.26041 47.23549
#
# Poissons Ratio (x) = 0.05827 -0.01988
# Poissons Ratio (y) = 0.07055 0.19661
# Poissons Ratio (z) = -0.05620 0.45894
#
# Static dielectric constant tensor:
#      x y z
#    x 1.883330 0.000000 -0.048720 
#    y 0.000000 2.220680 0.000000 
#    z -0.048720 0.000000 2.127840 
# 
# From -- ./inp_files/37651.got.cif
#   From: 2010.05.17/outbox.cif.g08.bks.cpg/sg15_19_cif.got.tgz:37651.got - 2010.06.03 18:47:42.
