data_PCOD9271837
_publ_section_title
;
Structure prediction by ZEFSAII (Michael W. Deem and Ramdas Pophale) SiO2 
 PCOD9271837
Probable space group: C 2/C
;
_chemical_formula_sum "Si O2"
_cell_formula_units_Z 44
_cell_length_a 6.949369
_cell_length_b 12.415772
_cell_length_c 22.423970
_cell_angle_alpha 90.000000
_cell_angle_beta 58.370980
_cell_angle_gamma 90.000000
_cell_volume 1647.390603
_symmetry_space_group_name_H-M "C 2/C"
_symmetry_group_IT_number 15
_symmetry_cell_setting 'monoclinic'
loop_
_space_group_symop_operation_xyz
x,y,z
-x,y,1/2-z
-x,-y,-z
x,-y,1/2+z
1/2+x,1/2+y,z
1/2-x,1/2+y,1/2-z
1/2-x,1/2-y,-z
1/2+x,1/2-y,1/2+z
loop_
_atom_site_type_symbol
_atom_site_label
_atom_site_fract_x
_atom_site_fract_y
_atom_site_fract_z
Si Si1 0.437637 0.560073 0.390206
Si Si2 0.327933 0.736712 0.696698
Si Si3 0.979972 0.867223 0.054535
Si Si4 0.161175 0.291193 0.342767
Si Si5 0.000000 0.935541 0.750000
Si Si6 0.003248 0.657167 0.986479
O O1 0.554547 0.493336 0.425048
O O2 0.546573 0.675115 0.362034
O O3 0.471438 0.505394 0.318874
O O4 0.180612 0.585097 0.450712
O O5 0.332457 0.689522 0.630197
O O6 0.588288 0.734866 0.673634
O O7 0.190206 0.672701 0.770107
O O8 0.217588 0.855476 0.715123
O O9 0.247984 0.858433 0.026350
O O10 0.948925 0.785290 0.004828
O O11 0.030349 0.363828 0.411658
#
# Coordination Sequence:
#
# PCOD9271837 Si02
#       6
#     8   8   8   8   4   8
#     4  11  21  36  60  91 114 155 205 244 296 366
#     4   9  18  39  58  81 115 162 189 241 309 350
#     4  10  21  36  61  86 117 153 201 244 298 359
#     4   9  20  35  61  80 121 154 191 245 301 350
#     4  10  20  36  62  80 116 156 196 248 300 360
#     4  10  20  38  58  84 121 157 189 251 303 353
#
# _framework density 26.708905000000001
#
# number of rings (size 3 to 8) (size 9 to 14) (size 15 to 20)
#    0.000    2.182    1.818    1.091    0.000    3.636 
#    0.000    3.636    4.000    0.000    0.000    0.000 
#    0.000    0.000    0.000    0.000    0.000    0.000 
#
# Total GULP energy -123051.887470 kJ/mol
# GULP energy per Si atom -5593.267612 kJ/mol
# Density = 2.664811 g / cm^3
# Si number density = 26.708905 Si / 1000 Ang^3
#
#
#
# Elastic Constant Matrix: (Units=GPa)
#
#
# Indices 1 2 3 4 5 6 
#
# 1 75.8050 15.7053 42.9488 0.0001 -3.5308 -0.0001
# 2 15.7053 108.2720 37.7050 0.0001 -11.7055 -0.0001
# 3 42.9488 37.7050 208.4922 0.0001 5.7651 -0.0001
# 4 0.0001 0.0001 0.0001 40.3484 -0.0001 -5.0273
# 5 -3.5308 -11.7055 5.7651 -0.0001 56.1909 0.0001
# 6 -0.0001 -0.0001 -0.0001 -5.0273 0.0001 29.9107
#
#
#
# Elastic Compliance Matrix: (Units=1/GPa)
#
#
# Indices 1 2 3 4 5 6 
#
# 1 0.015133 -0.001054 -0.002955 0.000000 0.001035 0.000000
# 2 -0.001054 0.010220 -0.001693 0.000000 0.002237 0.000000
# 3 -0.002955 -0.001693 0.005742 0.000000 -0.001128 0.000000
# 4 0.000000 0.000000 0.000000 0.025314 0.000000 0.004255
# 5 0.001035 0.002237 -0.001128 0.000000 0.018443 0.000000
# 6 0.000000 0.000000 0.000000 0.004255 0.000000 0.034148
#
#
# Mechanical properties :
#
#
# Convention : Reuss Voigt Hill
#
# Bulk Modulus (GPa) = 50.78531 65.03194 57.90862
# Shear Modulus (GPa) = 39.37970 45.03734 42.20852
#
# Velocity S-wave (km/s) = 3.84396 4.11083 3.97963
# Velocity P-wave (km/s) = 6.22552 6.85078 6.54562
#
# Compressibility (1/GPa) = 0.01969074
#
# Stress axis : x y z
#
# Youngs Moduli (GPa) = 66.08222 97.84476 174.14106
#
# Poissons Ratio (x) = 0.10313 0.51463
# Poissons Ratio (y) = 0.06965 0.29482
# Poissons Ratio (z) = 0.19529 0.16565
#
# Static dielectric constant tensor:
#      x y z
#    x 2.157100 0.000000 0.076990 
#    y 0.000000 2.125830 0.000000 
#    z 0.076990 0.000000 2.108400 
# 
# From -- ./inp_files/188747.got.cif
#   From: 2010.05.17/outbox.cif.g08.bks.cpg/sg15_95_cif.got.tgz:188747.got - 2010.06.03 18:47:42.
