data_PCOD9271240
_publ_section_title
;
Structure prediction by ZEFSAII (Michael W. Deem and Ramdas Pophale) SiO2 
 PCOD9271240
Probable space group: C 2/C
;
_chemical_formula_sum "Si O2"
_cell_formula_units_Z 52
_cell_length_a 17.133038
_cell_length_b 12.855753
_cell_length_c 25.820546
_cell_angle_alpha 90.000000
_cell_angle_beta 150.971672
_cell_angle_gamma 90.000000
_cell_volume 2759.660723
_symmetry_space_group_name_H-M "C 2/C"
_symmetry_group_IT_number 15
_symmetry_cell_setting 'monoclinic'
loop_
_space_group_symop_operation_xyz
x,y,z
-x,y,1/2-z
-x,-y,-z
x,-y,1/2+z
1/2+x,1/2+y,z
1/2-x,1/2+y,1/2-z
1/2-x,1/2-y,-z
1/2+x,1/2-y,1/2+z
loop_
_atom_site_type_symbol
_atom_site_label
_atom_site_fract_x
_atom_site_fract_y
_atom_site_fract_z
Si Si1 0.806144 0.457892 0.238699
Si Si2 0.000000 0.583542 0.750000
Si Si3 0.966241 0.454528 0.538405
Si Si4 0.685319 0.772768 0.654559
Si Si5 0.368505 0.541786 0.127669
Si Si6 0.269832 0.263376 0.439177
Si Si7 0.547308 0.589087 0.138587
O O1 0.735380 0.341206 0.203068
O O2 0.651619 0.532514 0.155427
O O3 0.894901 0.470740 0.234376
O O4 0.929299 0.484035 0.357149
O O5 0.879177 0.657586 0.648173
O O6 0.778797 0.469814 0.441304
O O7 0.000000 0.500000 0.500000
O O8 0.023804 0.334483 0.575759
O O9 0.690766 0.765755 0.596502
O O10 0.824712 0.851172 0.752052
O O11 0.500000 0.550352 0.250000
O O12 0.288343 0.655402 0.070266
O O13 0.454402 0.511972 0.123741
O O14 0.424511 0.324807 0.547657
#
# Coordination Sequence:
#
# PCOD9271240 Si02
#       7
#     8   4   8   8   8   8   8
#     4  10  22  40  59  88 124 157 201 251 301 367
#     4  10  20  36  58  84 120 156 200 246 296 364
#     4  11  21  37  61  93 121 159 196 253 311 356
#     4  10  21  38  56  89 123 150 203 245 303 365
#     4  12  19  35  57  90 122 149 198 250 301 356
#     4  11  19  35  59  89 116 153 193 254 303 348
#     4  11  22  35  59  88 116 160 196 244 308 355
#
# _framework density 18.842897000000001
#
# number of rings (size 3 to 8) (size 9 to 14) (size 15 to 20)
#    0.000    1.231    3.846    4.154    0.000    2.462 
#    0.000    0.769    0.000    1.846    2.000    0.000 
#    0.000    0.000    0.000    0.000    0.000    0.000 
#
# Total GULP energy -145003.139722 kJ/mol
# GULP energy per Si atom -5577.043835 kJ/mol
# Density = 1.880001 g / cm^3
# Si number density = 18.842897 Si / 1000 Ang^3
#
#
#
# Elastic Constant Matrix: (Units=GPa)
#
#
# Indices 1 2 3 4 5 6 
#
# 1 128.2077 50.4774 47.2725 0.0160 13.5337 0.0231
# 2 50.4774 58.3950 35.7326 0.0058 4.8630 0.0087
# 3 47.2725 35.7326 81.8363 0.0014 28.7894 0.0043
# 4 0.0160 0.0058 0.0014 287.7072 0.0045 394.8068
# 5 13.5337 4.8630 28.7894 0.0045 27.8371 0.0066
# 6 0.0231 0.0087 0.0043 394.8068 0.0066 602.5313
#
#
#
# Elastic Compliance Matrix: (Units=1/GPa)
#
#
# Indices 1 2 3 4 5 6 
#
# 1 0.012534 -0.009054 -0.002672 0.000000 -0.001749 0.000000
# 2 -0.009054 0.031897 -0.013024 -0.000001 0.012299 0.000000
# 3 -0.002672 -0.013024 0.028596 0.000002 -0.026000 -0.000001
# 4 0.000000 -0.000001 0.000002 0.034469 -0.000002 -0.022586
# 5 -0.001749 0.012299 -0.026000 -0.000002 0.061515 0.000000
# 6 0.000000 0.000000 -0.000001 -0.022586 0.000000 0.016459
#
#
# Mechanical properties :
#
#
# Convention : Reuss Voigt Hill
#
# Bulk Modulus (GPa) = 42.50321 59.48934 50.99627
# Shear Modulus (GPa) = 20.59204 192.61222 106.60213
#
# Velocity S-wave (km/s) = 3.30938 10.12136 7.52974
# Velocity P-wave (km/s) = 6.09986 12.97031 10.13502
#
# Compressibility (1/GPa) = 0.02352763
#
# Stress axis : x y z
#
# Youngs Moduli (GPa) = 79.78004 31.35131 34.96989
#
# Poissons Ratio (x) = 0.28387 0.09343
# Poissons Ratio (y) = 0.72236 0.45543
# Poissons Ratio (z) = 0.21315 0.40831
#
# Static dielectric constant tensor:
#      x y z
#    x 1.696600 0.000000 0.008060 
#    y 0.000000 1.659030 0.000000 
#    z 0.008060 0.000000 1.570170 
# 
# From -- ./inp_files/160786.got.cif
#   From: 2010.05.17/outbox.cif.g08.bks.cpg/sg15_81_cif.got.tgz:160786.got - 2010.06.03 18:47:42.
