data_PCOD9271542
_publ_section_title
;
Structure prediction by ZEFSAII (Michael W. Deem and Ramdas Pophale) SiO2 
 PCOD9271542
Probable space group: C 2/C
;
_chemical_formula_sum "Si O2"
_cell_formula_units_Z 64
_cell_length_a 28.800799
_cell_length_b 8.935718
_cell_length_c 23.016181
_cell_angle_alpha 90.000000
_cell_angle_beta 149.424828
_cell_angle_gamma 90.000000
_cell_volume 3013.019891
_symmetry_space_group_name_H-M "C 2/C"
_symmetry_group_IT_number 15
_symmetry_cell_setting 'monoclinic'
loop_
_space_group_symop_operation_xyz
x,y,z
-x,y,1/2-z
-x,-y,-z
x,-y,1/2+z
1/2+x,1/2+y,z
1/2-x,1/2+y,1/2-z
1/2-x,1/2-y,-z
1/2+x,1/2-y,1/2+z
loop_
_atom_site_type_symbol
_atom_site_label
_atom_site_fract_x
_atom_site_fract_y
_atom_site_fract_z
Si Si1 0.089120 0.303023 0.738129
Si Si2 0.147036 0.251507 0.410380
Si Si3 0.581913 0.528506 0.794582
Si Si4 0.422557 0.857721 0.984813
Si Si5 0.080722 0.464327 0.897199
Si Si6 0.181546 0.901463 0.072317
Si Si7 0.384476 0.967251 0.331849
Si Si8 0.698089 0.328937 0.516355
O O1 0.073651 0.124861 0.727737
O O2 0.083064 0.387962 0.670813
O O3 0.193440 0.331416 0.867167
O O4 0.015928 0.378624 0.702175
O O5 0.250000 0.250000 0.500000
O O6 0.102661 0.411834 0.372326
O O7 0.154913 0.174890 0.482138
O O8 0.091208 0.149729 0.304439
O O9 0.500000 0.562870 0.750000
O O10 0.666349 0.591690 0.922846
O O11 0.375942 0.695031 0.943215
O O12 0.374623 0.963997 0.885304
O O13 0.413779 0.944431 0.036431
O O14 0.529688 0.855220 0.082268
O O15 0.156088 0.334840 0.975026
O O16 0.289345 0.900236 0.205299
O O17 0.164323 0.074868 0.036200
#
# Coordination Sequence:
#
# PCOD9271542 Si02
#       8
#     8   8   8   8   8   8   8   8
#     4  10  20  36  60  84 116 159 201 245 301 365
#     4  10  22  41  57  87 122 156 200 251 301 364
#     4  11  21  39  54  83 115 151 195 252 293 351
#     4   9  19  38  61  87 121 154 206 251 301 362
#     4  10  20  38  61  87 116 165 200 244 311 365
#     4   9  20  38  59  87 120 155 192 254 303 347
#     4   9  19  36  62  90 115 165 204 247 309 370
#     4  10  20  37  59  84 118 154 199 245 298 365
#
# _framework density 21.241149
#
# number of rings (size 3 to 8) (size 9 to 14) (size 15 to 20)
#    0.000    2.250    1.250    1.125    0.000    4.000 
#   15.750    1.250    0.000    7.500    0.000    0.000 
#    0.000    0.000    0.000    0.000    0.000    0.000 
#
# Total GULP energy -178472.795481 kJ/mol
# GULP energy per Si atom -5577.274859 kJ/mol
# Density = 2.119280 g / cm^3
# Si number density = 21.241149 Si / 1000 Ang^3
#
#
#
# Elastic Constant Matrix: (Units=GPa)
#
#
# Indices 1 2 3 4 5 6 
#
# 1 76.7911 49.6099 16.6105 0.0000 13.1930 0.0000
# 2 49.6099 145.1048 37.0435 0.0000 13.6986 0.0000
# 3 16.6105 37.0435 74.4563 0.0000 18.3265 0.0000
# 4 0.0000 0.0000 0.0000 26.0581 0.0000 1.4214
# 5 13.1930 13.6986 18.3265 0.0000 22.6763 0.0000
# 6 0.0000 0.0000 0.0000 1.4214 0.0000 28.3317
#
#
#
# Elastic Compliance Matrix: (Units=1/GPa)
#
#
# Indices 1 2 3 4 5 6 
#
# 1 0.017739 -0.005519 0.000634 0.000000 -0.007499 0.000000
# 2 -0.005519 0.009684 -0.003666 0.000000 0.000324 0.000000
# 3 0.000634 -0.003666 0.018299 0.000000 -0.012943 0.000000
# 4 0.000000 0.000000 0.000000 0.038481 0.000000 -0.001931
# 5 -0.007499 0.000324 -0.012943 0.000000 0.058726 0.000000
# 6 0.000000 0.000000 0.000000 -0.001931 0.000000 0.035393
#
#
# Mechanical properties :
#
#
# Convention : Reuss Voigt Hill
#
# Bulk Modulus (GPa) = 34.94103 55.87556 45.40829
# Shear Modulus (GPa) = 24.39450 28.28576 26.34013
#
# Velocity S-wave (km/s) = 3.39256 3.65314 3.52526
# Velocity P-wave (km/s) = 5.64193 6.64502 6.16391
#
# Compressibility (1/GPa) = 0.02861965
#
# Stress axis : x y z
#
# Youngs Moduli (GPa) = 56.37352 103.26565 54.64743
#
# Poissons Ratio (x) = 0.56989 -0.03465
# Poissons Ratio (y) = 0.31111 0.20036
# Poissons Ratio (z) = -0.03574 0.37862
#
# Static dielectric constant tensor:
#      x y z
#    x 1.810100 0.000000 0.035190 
#    y 0.000000 1.833420 0.000000 
#    z 0.035190 0.000000 1.875740 
# 
# From -- ./inp_files/284442.got.cif
#   From: 2010.05.17/outbox.cif.g08.bks.cpg/sg15_143_cif.got.tgz:284442.got - 2010.06.03 18:47:42.
