data_PCOD9271535
_publ_section_title
;
Structure prediction by ZEFSAII (Michael W. Deem and Ramdas Pophale) SiO2 
 PCOD9271535
Probable space group: C 2/C
;
_chemical_formula_sum "Si O2"
_cell_formula_units_Z 64
_cell_length_a 12.867221
_cell_length_b 29.411236
_cell_length_c 15.031582
_cell_angle_alpha 90.000000
_cell_angle_beta 144.794442
_cell_angle_gamma 90.000000
_cell_volume 3279.523614
_symmetry_space_group_name_H-M "C 2/C"
_symmetry_group_IT_number 15
_symmetry_cell_setting 'monoclinic'
loop_
_space_group_symop_operation_xyz
x,y,z
-x,y,1/2-z
-x,-y,-z
x,-y,1/2+z
1/2+x,1/2+y,z
1/2-x,1/2+y,1/2-z
1/2-x,1/2-y,-z
1/2+x,1/2-y,1/2+z
loop_
_atom_site_type_symbol
_atom_site_label
_atom_site_fract_x
_atom_site_fract_y
_atom_site_fract_z
Si Si1 0.739201 0.187602 0.223449
Si Si2 0.829405 0.001991 0.692897
Si Si3 0.970080 0.915132 0.073717
Si Si4 0.307563 0.231388 0.636192
Si Si5 0.450694 0.767447 0.621437
Si Si6 0.106074 0.438339 0.911888
Si Si7 0.741602 0.087684 0.236817
Si Si8 0.456316 0.683618 0.918308
O O1 0.812555 0.225273 0.206691
O O2 0.530250 0.199770 0.100396
O O3 0.769190 0.136469 0.210650
O O4 0.852036 0.189224 0.395398
O O5 0.671377 0.021860 0.521493
O O6 0.000000 0.990576 0.750000
O O7 0.904083 0.042950 0.808488
O O8 0.760439 0.956999 0.691809
O O9 0.063210 0.866092 0.136721
O O10 0.792561 0.914364 0.012928
O O11 0.886894 0.919776 0.917128
O O12 0.500000 0.210311 0.750000
O O13 0.250000 0.250000 0.500000
O O14 0.182642 0.195930 0.600706
O O15 0.500000 0.789015 0.750000
O O16 0.250000 0.750000 0.500000
O O17 0.555324 0.721069 0.667382
O O18 0.000000 0.454982 0.750000
O O19 0.956383 0.409206 0.857630
#
# Coordination Sequence:
#
# PCOD9271535 Si02
#       8
#     8   8   8   8   8   8   8   8
#     4  10  22  37  58  89 114 159 206 239 299 366
#     4  10  20  37  58  86 116 153 199 244 300 350
#     4   9  20  37  59  86 118 148 196 245 303 354
#     4  11  22  41  64  79 118 158 203 250 299 343
#     4  11  22  35  57  87 125 156 193 244 294 358
#     4   9  19  35  59  83 115 157 185 238 303 356
#     4  10  20  36  60  83 116 155 198 243 294 363
#     4  10  21  38  59  90 115 158 200 242 302 363
#
# _framework density 19.515028999999998
#
# number of rings (size 3 to 8) (size 9 to 14) (size 15 to 20)
#    0.000    2.000    2.500    0.750    1.750    2.500 
#    2.250    0.000    0.000    0.000    0.000    0.000 
#    0.000    0.000    0.000    0.000    0.000    0.000 
#
# Total GULP energy -178257.242912 kJ/mol
# GULP energy per Si atom -5570.538841 kJ/mol
# Density = 1.947061 g / cm^3
# Si number density = 19.515029 Si / 1000 Ang^3
#
#
#
# Elastic Constant Matrix: (Units=GPa)
#
#
# Indices 1 2 3 4 5 6 
#
# 1 81.7765 47.3918 17.3399 0.0000 9.4658 0.0000
# 2 47.3918 135.5118 18.3708 0.0000 -1.0433 0.0000
# 3 17.3399 18.3708 31.6515 0.0000 15.9267 0.0000
# 4 0.0000 0.0000 0.0000 18.0297 0.0000 -2.0770
# 5 9.4658 -1.0433 15.9267 0.0000 26.7894 0.0000
# 6 0.0000 0.0000 0.0000 -2.0770 0.0000 15.8107
#
#
#
# Elastic Compliance Matrix: (Units=1/GPa)
#
#
# Indices 1 2 3 4 5 6 
#
# 1 0.016583 -0.005249 -0.004262 0.000000 -0.003530 0.000000
# 2 -0.005249 0.010050 -0.005832 0.000000 0.005713 0.000000
# 3 -0.004262 -0.005832 0.052323 0.000000 -0.029828 0.000000
# 4 0.000000 0.000000 0.000000 0.056316 0.000000 0.007398
# 5 -0.003530 0.005713 -0.029828 0.000000 0.056531 0.000000
# 6 0.000000 0.000000 0.000000 0.007398 0.000000 0.064220
#
#
# Mechanical properties :
#
#
# Convention : Reuss Voigt Hill
#
# Bulk Modulus (GPa) = 20.71706 46.12719 33.42213
# Shear Modulus (GPa) = 16.51261 23.18178 19.84720
#
# Velocity S-wave (km/s) = 2.91202 3.45032 3.19254
# Velocity P-wave (km/s) = 4.68460 6.28976 5.54556
#
# Compressibility (1/GPa) = 0.04826940
#
# Stress axis : x y z
#
# Youngs Moduli (GPa) = 60.30438 99.50547 19.11199
#
# Poissons Ratio (x) = 0.52228 0.08145
# Poissons Ratio (y) = 0.31652 0.11147
# Poissons Ratio (z) = 0.25701 0.58035
#
# Static dielectric constant tensor:
#      x y z
#    x 1.654800 0.000000 -0.093880 
#    y 0.000000 1.666390 0.000000 
#    z -0.093880 0.000000 1.378110 
# 
# From -- ./inp_files/148807.got.cif
#   From: 2010.05.17/outbox.cif.g08.bks.cpg/sg15_75_cif.got.tgz:148807.got - 2010.06.03 18:47:42.
