data_PCOD9271797
_publ_section_title
;
Structure prediction by ZEFSAII (Michael W. Deem and Ramdas Pophale) SiO2 
 PCOD9271797
Probable space group: C 2/C
;
_chemical_formula_sum "Si O2"
_cell_formula_units_Z 52
_cell_length_a 12.017187
_cell_length_b 21.380928
_cell_length_c 14.034525
_cell_angle_alpha 90.000000
_cell_angle_beta 131.916863
_cell_angle_gamma 90.000000
_cell_volume 2683.286992
_symmetry_space_group_name_H-M "C 2/C"
_symmetry_group_IT_number 15
_symmetry_cell_setting 'monoclinic'
loop_
_space_group_symop_operation_xyz
x,y,z
-x,y,1/2-z
-x,-y,-z
x,-y,1/2+z
1/2+x,1/2+y,z
1/2-x,1/2+y,1/2-z
1/2-x,1/2-y,-z
1/2+x,1/2-y,1/2+z
loop_
_atom_site_type_symbol
_atom_site_label
_atom_site_fract_x
_atom_site_fract_y
_atom_site_fract_z
Si Si1 0.656954 0.345364 0.285405
Si Si2 0.500000 0.870833 0.750000
Si Si3 0.013037 0.886121 0.491047
Si Si4 0.233565 0.558280 0.502872
Si Si5 0.242476 0.786790 0.695973
Si Si6 0.873873 0.932270 0.601095
Si Si7 0.674583 0.710719 0.372000
O O1 0.500000 0.332247 0.250000
O O2 0.731318 0.402943 0.382003
O O3 0.753794 0.282602 0.344801
O O4 0.614871 0.363576 0.154051
O O5 0.417480 0.915263 0.627654
O O6 0.378729 0.826529 0.730779
O O7 0.135066 0.922453 0.496915
O O8 0.095436 0.825960 0.583976
O O9 0.949680 0.926519 0.541067
O O10 0.247056 0.484749 0.527306
O O11 0.255446 0.781425 0.816968
O O12 0.822358 0.862704 0.599304
O O13 0.000000 0.951717 0.750000
O O14 0.500000 0.727277 0.250000
O O15 0.750000 0.750000 0.500000
#
# Coordination Sequence:
#
# PCOD9271797 Si02
#       7
#     8   4   8   8   8   8   8
#     4  10  21  35  60  96 121 159 210 257 314 371
#     4  10  24  40  60  92 130 166 204 260 336 374
#     4  10  20  36  61  93 117 165 205 261 310 369
#     4  10  23  38  61  91 125 160 207 260 317 388
#     4  11  21  38  64  88 132 163 209 261 323 378
#     4  11  20  41  64  88 122 164 217 259 314 383
#     4  11  24  42  66  95 127 173 220 267 325 381
#
# _framework density 19.379217000000001
#
# number of rings (size 3 to 8) (size 9 to 14) (size 15 to 20)
#    0.000    1.538    3.846    2.769    2.154    1.846 
#    1.385    0.769    0.000    0.000    0.000    0.000 
#    0.000    0.000    0.000    0.000    0.000    0.000 
#
# Total GULP energy -145274.037547 kJ/mol
# GULP energy per Si atom -5587.462983 kJ/mol
# Density = 1.933511 g / cm^3
# Si number density = 19.379217 Si / 1000 Ang^3
#
#
#
# Elastic Constant Matrix: (Units=GPa)
#
#
# Indices 1 2 3 4 5 6 
#
# 1 41.1095 22.1556 34.7645 0.0000 -12.1836 0.0000
# 2 22.1556 97.4698 58.4655 0.0000 4.7452 0.0000
# 3 34.7645 58.4655 136.7166 0.0000 -14.3060 0.0000
# 4 0.0000 0.0000 0.0000 25.5580 0.0000 1.2882
# 5 -12.1836 4.7452 -14.3060 0.0000 28.0415 0.0000
# 6 0.0000 0.0000 0.0000 1.2882 0.0000 19.6199
#
#
#
# Elastic Compliance Matrix: (Units=1/GPa)
#
#
# Indices 1 2 3 4 5 6 
#
# 1 0.035961 -0.005702 -0.005250 0.000000 0.013911 0.000000
# 2 -0.005702 0.015605 -0.006084 0.000000 -0.008222 0.000000
# 3 -0.005250 -0.006084 0.011747 0.000000 0.004742 0.000000
# 4 0.000000 0.000000 0.000000 0.039257 0.000000 -0.002578
# 5 0.013911 -0.008222 0.004742 0.000000 0.045516 0.000000
# 6 0.000000 0.000000 0.000000 -0.002578 0.000000 0.051138
#
#
# Mechanical properties :
#
#
# Convention : Reuss Voigt Hill
#
# Bulk Modulus (GPa) = 34.19826 56.22966 45.21396
# Shear Modulus (GPa) = 20.57246 25.30457 22.93852
#
# Velocity S-wave (km/s) = 3.26171 3.61745 3.44418
# Velocity P-wave (km/s) = 5.64537 6.82102 6.26085
#
# Compressibility (1/GPa) = 0.02924125
#
# Stress axis : x y z
#
# Youngs Moduli (GPa) = 27.80785 64.08075 85.12647
#
# Poissons Ratio (x) = 0.36541 0.44692
# Poissons Ratio (y) = 0.15857 0.51789
# Poissons Ratio (z) = 0.14599 0.38986
#
# Static dielectric constant tensor:
#      x y z
#    x 1.680240 0.000000 -0.002510 
#    y 0.000000 1.670290 0.000000 
#    z -0.002510 0.000000 1.670560 
# 
# From -- ./inp_files/91335.got.cif
#   From: 2010.05.17/outbox.cif.g08.bks.cpg/sg15_46_cif.got.tgz:91335.got - 2010.06.03 18:47:42.
