data_PCOD9271681
_publ_section_title
;
Structure prediction by ZEFSAII (Michael W. Deem and Ramdas Pophale) SiO2 
 PCOD9271681
Probable space group: C 2/C
;
_chemical_formula_sum "Si O2"
_cell_formula_units_Z 44
_cell_length_a 10.366183
_cell_length_b 19.227766
_cell_length_c 9.569560
_cell_angle_alpha 90.000000
_cell_angle_beta 94.408156
_cell_angle_gamma 90.000000
_cell_volume 1901.748335
_symmetry_space_group_name_H-M "C 2/C"
_symmetry_group_IT_number 15
_symmetry_cell_setting 'monoclinic'
loop_
_space_group_symop_operation_xyz
x,y,z
-x,y,1/2-z
-x,-y,-z
x,-y,1/2+z
1/2+x,1/2+y,z
1/2-x,1/2+y,1/2-z
1/2-x,1/2-y,-z
1/2+x,1/2-y,1/2+z
loop_
_atom_site_type_symbol
_atom_site_label
_atom_site_fract_x
_atom_site_fract_y
_atom_site_fract_z
Si Si1 0.240226 0.383241 0.189939
Si Si2 0.819635 0.410397 0.622737
Si Si3 0.627984 0.470576 0.086353
Si Si4 0.622781 0.229429 0.854810
Si Si5 0.000000 0.516413 0.750000
Si Si6 0.284777 0.138892 0.418754
O O1 0.361483 0.420899 0.275593
O O2 0.225209 0.309735 0.264427
O O3 0.117972 0.433985 0.216162
O O4 0.224162 0.374750 0.023577
O O5 0.699109 0.460620 0.643240
O O6 0.942477 0.462954 0.629196
O O7 0.831129 0.366694 0.764469
O O8 0.500000 0.500000 0.000000
O O9 0.720996 0.429904 0.981614
O O10 0.500000 0.240788 0.750000
O O11 0.674257 0.301915 0.915832
O O12 0.603447 0.172198 0.975162
#
# Coordination Sequence:
#
# PCOD9271681 Si02
#       6
#     8   8   8   8   4   8
#     4  10  21  38  62  93 120 166 209 256 310 369
#     4  11  23  35  63  97 128 153 204 267 316 368
#     4  10  22  40  62  89 129 167 208 252 315 384
#     4  10  22  42  68  81 125 170 213 252 302 380
#     4  10  20  36  60  92 130 158 198 252 324 370
#     4  10  24  42  62  97 120 167 212 250 319 374
#
# _framework density 23.136606
#
# number of rings (size 3 to 8) (size 9 to 14) (size 15 to 20)
#    0.000    1.818    0.909    2.727    5.091    2.909 
#    0.000    0.000    0.000    0.000    0.000    0.000 
#    0.000    0.000    0.000    0.000    0.000    0.000 
#
# Total GULP energy -122714.461383 kJ/mol
# GULP energy per Si atom -5577.930063 kJ/mol
# Density = 2.308395 g / cm^3
# Si number density = 23.136606 Si / 1000 Ang^3
#
#
#
# Elastic Constant Matrix: (Units=GPa)
#
#
# Indices 1 2 3 4 5 6 
#
# 1 64.1225 -5.3502 5.6861 0.0000 30.0729 0.0000
# 2 -5.3502 40.2170 14.0292 0.0000 -0.2623 0.0000
# 3 5.6861 14.0292 167.9745 0.0000 5.0330 0.0000
# 4 0.0000 0.0000 0.0000 34.5884 0.0000 8.8559
# 5 30.0729 -0.2623 5.0330 0.0000 40.6942 0.0000
# 6 0.0000 0.0000 0.0000 8.8559 0.0000 10.0610
#
#
#
# Elastic Compliance Matrix: (Units=1/GPa)
#
#
# Indices 1 2 3 4 5 6 
#
# 1 0.024301 0.003313 -0.000564 0.000000 -0.017868 0.000000
# 2 0.003313 0.026071 -0.002229 0.000000 -0.002005 0.000000
# 3 -0.000564 -0.002229 0.006169 0.000000 -0.000361 0.000000
# 4 0.000000 0.000000 0.000000 0.037323 0.000000 -0.032853
# 5 -0.017868 -0.002005 -0.000361 0.000000 0.037809 0.000000
# 6 0.000000 0.000000 0.000000 -0.032853 0.000000 0.128312
#
#
# Mechanical properties :
#
#
# Convention : Reuss Voigt Hill
#
# Bulk Modulus (GPa) = 17.36699 33.44934 25.40817
# Shear Modulus (GPa) = 17.97659 34.26530 26.12095
#
# Velocity S-wave (km/s) = 2.79045 3.85255 3.36369
# Velocity P-wave (km/s) = 4.23140 5.85476 5.10798
#
# Compressibility (1/GPa) = 0.05758050
#
# Stress axis : x y z
#
# Youngs Moduli (GPa) = 41.15004 38.35747 162.09071
#
# Poissons Ratio (x) = -0.12708 0.09141
# Poissons Ratio (y) = -0.13633 0.36138
# Poissons Ratio (z) = 0.02321 0.08552
#
# Static dielectric constant tensor:
#      x y z
#    x 1.922130 0.000000 -0.006700 
#    y 0.000000 1.846640 0.000000 
#    z -0.006700 0.000000 1.956180 
# 
# From -- ./inp_files/30921.got.cif
#   From: 2010.05.17/outbox.cif.g08.bks.cpg/sg15_16_cif.got.tgz:30921.got - 2010.06.03 18:47:42.
