data_PCOD9271168
_publ_section_title
;
Structure prediction by ZEFSAII (Michael W. Deem and Ramdas Pophale) SiO2 
 PCOD9271168
Probable space group: C 2/C
;
_chemical_formula_sum "Si O2"
_cell_formula_units_Z 32
_cell_length_a 13.440827
_cell_length_b 20.360194
_cell_length_c 5.682312
_cell_angle_alpha 90.000000
_cell_angle_beta 56.452078
_cell_angle_gamma 90.000000
_cell_volume 1295.981868
_symmetry_space_group_name_H-M "C 2/C"
_symmetry_group_IT_number 15
_symmetry_cell_setting 'monoclinic'
loop_
_space_group_symop_operation_xyz
x,y,z
-x,y,1/2-z
-x,-y,-z
x,-y,1/2+z
1/2+x,1/2+y,z
1/2-x,1/2+y,1/2-z
1/2-x,1/2-y,-z
1/2+x,1/2-y,1/2+z
loop_
_atom_site_type_symbol
_atom_site_label
_atom_site_fract_x
_atom_site_fract_y
_atom_site_fract_z
Si Si1 0.528619 0.889558 0.470655
Si Si2 0.818074 0.710418 0.213321
Si Si3 0.702121 0.655333 0.973706
Si Si4 0.365098 0.476005 0.140753
O O1 0.500000 0.919137 0.250000
O O2 0.437842 0.828149 0.604590
O O3 0.663430 0.862231 0.291897
O O4 0.500000 0.927713 0.750000
O O5 0.750000 0.750000 0.500000
O O6 0.846023 0.771726 0.006270
O O7 0.726327 0.657347 0.221163
O O8 0.628230 0.600156 0.939985
O O9 0.309278 0.491523 0.473100
O O10 0.500000 0.500000 0.000000
#
# Coordination Sequence:
#
# PCOD9271168 Si02
#       4
#     8   8   8   8
#     4  10  20  36  57  93 133 166 212 261 342 408
#     4  10  20  37  64 102 133 176 214 280 354 409
#     4  10  22  40  65  94 141 175 222 287 342 408
#     4  10  24  47  67  97 129 182 237 287 336 397
#
# _framework density 24.691704000000001
#
# number of rings (size 3 to 8) (size 9 to 14) (size 15 to 20)
#    0.000    2.000    2.500    0.000    3.500    0.000 
#   27.000    0.000    0.000   19.500    0.000    0.000 
#    0.000    0.000    0.000    0.000    0.000    0.000 
#
# Total GULP energy -89138.555584 kJ/mol
# GULP energy per Si atom -5571.159724 kJ/mol
# Density = 2.463550 g / cm^3
# Si number density = 24.691704 Si / 1000 Ang^3
#
#
#
# Elastic Constant Matrix: (Units=GPa)
#
#
# Indices 1 2 3 4 5 6 
#
# 1 108.9963 41.9782 31.6582 0.0000 13.0979 0.0000
# 2 41.9782 107.5813 8.7465 0.0000 17.8789 0.0000
# 3 31.6582 8.7465 138.3026 0.0000 44.2809 0.0000
# 4 0.0000 0.0000 0.0000 2.0227 0.0000 12.6178
# 5 13.0979 17.8789 44.2809 0.0000 47.1114 0.0000
# 6 0.0000 0.0000 0.0000 12.6178 0.0000 36.5757
#
#
#
# Elastic Compliance Matrix: (Units=1/GPa)
#
#
# Indices 1 2 3 4 5 6 
#
# 1 0.011549 -0.004455 -0.002682 0.000000 0.001001 0.000000
# 2 -0.004455 0.011706 0.001867 0.000000 -0.004959 0.000000
# 3 -0.002682 0.001867 0.011036 0.000000 -0.010335 0.000000
# 4 0.000000 0.000000 0.000000 -0.429148 0.000000 0.148046
# 5 0.001001 -0.004959 -0.010335 0.000000 0.032544 0.000000
# 6 0.000000 0.000000 0.000000 0.148046 0.000000 -0.023732
#
#
# Mechanical properties :
#
#
# Convention : Reuss Voigt Hill
#
# Bulk Modulus (GPa) = 42.10446 57.73845 49.92146
# Shear Modulus (GPa) = -13.60218 35.30843 10.85312
#
# Velocity S-wave (km/s) = -2.34963 3.78560 2.09881
# Velocity P-wave (km/s) = 3.11898 6.52244 5.11225
#
# Compressibility (1/GPa) = 0.02375045
#
# Stress axis : x y z
#
# Youngs Moduli (GPa) = 86.58669 85.42757 90.61602
#
# Poissons Ratio (x) = 0.38056 0.24307
# Poissons Ratio (y) = 0.38572 -0.16919
# Poissons Ratio (z) = 0.23226 -0.15950
#
# Static dielectric constant tensor:
#      x y z
#    x 2.032930 0.000000 0.164760 
#    y 0.000000 1.949380 0.000000 
#    z 0.164760 0.000000 2.201790 
# 
# From -- ./inp_files/6803.got.cif
#   From: 2010.05.17/outbox.cif.g08.bks.cpg/sg15_4_cif.got.tgz:6803.got - 2010.06.03 18:47:42.
