data_PCOD9271356
_publ_section_title
;
Structure prediction by ZEFSAII (Michael W. Deem and Ramdas Pophale) SiO2 
 PCOD9271356
Probable space group: C 2/C
;
_chemical_formula_sum "Si O2"
_cell_formula_units_Z 44
_cell_length_a 23.525337
_cell_length_b 11.088692
_cell_length_c 8.177240
_cell_angle_alpha 90.000000
_cell_angle_beta 69.970518
_cell_angle_gamma 90.000000
_cell_volume 2004.136665
_symmetry_space_group_name_H-M "C 2/C"
_symmetry_group_IT_number 15
_symmetry_cell_setting 'monoclinic'
loop_
_space_group_symop_operation_xyz
x,y,z
-x,y,1/2-z
-x,-y,-z
x,-y,1/2+z
1/2+x,1/2+y,z
1/2-x,1/2+y,1/2-z
1/2-x,1/2-y,-z
1/2+x,1/2-y,1/2+z
loop_
_atom_site_type_symbol
_atom_site_label
_atom_site_fract_x
_atom_site_fract_y
_atom_site_fract_z
Si Si1 0.839857 0.128666 0.674057
Si Si2 0.000000 0.689014 0.250000
Si Si3 0.935175 0.485326 0.472151
Si Si4 0.460426 0.712532 0.440820
Si Si5 0.234255 0.047316 0.050514
Si Si6 0.180694 0.605197 0.247672
O O1 0.905204 0.123427 0.527457
O O2 0.821668 0.024393 0.815822
O O3 0.840113 0.258684 0.760608
O O4 0.790202 0.120611 0.579062
O O5 0.942937 0.598383 0.342465
O O6 0.009834 0.762369 0.409031
O O7 0.937217 0.347113 0.405770
O O8 0.873685 0.482150 0.636874
O O9 0.000000 0.500000 0.500000
O O10 0.500000 0.669366 0.250000
O O11 0.269712 0.115359 0.156787
O O12 0.283561 0.952167 0.936353
#
# Coordination Sequence:
#
# PCOD9271356 Si02
#       6
#     8   4   8   8   8   8
#     4  10  22  42  61  84 121 158 211 260 311 368
#     4  10  20  36  58  96 130 166 194 246 340 384
#     4   9  19  31  56  90 131 156 191 246 317 393
#     4  10  21  38  60  90 125 158 206 259 316 381
#     4  10  22  40  59  86 120 164 208 259 302 358
#     4  10  21  35  62  90 122 162 204 247 313 385
#
# _framework density 21.954592000000002
#
# number of rings (size 3 to 8) (size 9 to 14) (size 15 to 20)
#    0.000    2.182    0.909    1.091    7.636    1.455 
#    6.545    0.909    0.000    0.000    0.000    0.000 
#    0.000    0.000    0.000    0.000    0.000    0.000 
#
# Total GULP energy -122657.781012 kJ/mol
# GULP energy per Si atom -5575.353682 kJ/mol
# Density = 2.190462 g / cm^3
# Si number density = 21.954592 Si / 1000 Ang^3
#
#
#
# Elastic Constant Matrix: (Units=GPa)
#
#
# Indices 1 2 3 4 5 6 
#
# 1 71.3774 20.1744 32.7197 0.0000 -0.5306 0.0000
# 2 20.1744 49.5065 28.2625 0.0000 -8.1486 0.0000
# 3 32.7197 28.2625 112.9649 0.0000 -23.4864 0.0000
# 4 0.0000 0.0000 0.0000 -6.8450 0.0000 -19.7465
# 5 -0.5306 -8.1486 -23.4864 0.0000 52.7894 0.0000
# 6 0.0000 0.0000 0.0000 -19.7465 0.0000 22.5714
#
#
#
# Elastic Compliance Matrix: (Units=1/GPa)
#
#
# Indices 1 2 3 4 5 6 
#
# 1 0.017387 -0.005047 -0.004297 0.000000 -0.002516 0.000000
# 2 -0.005047 0.025090 -0.004431 0.000000 0.001851 0.000000
# 3 -0.004297 -0.004431 0.012181 0.000000 0.004692 0.000000
# 4 0.000000 0.000000 0.000000 -0.041459 0.000000 -0.036270
# 5 -0.002516 0.001851 0.004692 0.000000 0.021291 0.000000
# 6 0.000000 0.000000 0.000000 -0.036270 0.000000 0.012573
#
#
# Mechanical properties :
#
#
# Convention : Reuss Voigt Hill
#
# Bulk Modulus (GPa) = 36.88643 44.01802 40.45223
# Shear Modulus (GPa) = 59.77444 23.88265 41.82855
#
# Velocity S-wave (km/s) = 5.22355 3.30179 4.36963
# Velocity P-wave (km/s) = 7.29509 5.88463 6.62749
#
# Compressibility (1/GPa) = 0.02711024
#
# Stress axis : x y z
#
# Youngs Moduli (GPa) = 57.51313 39.85652 82.09611
#
# Poissons Ratio (x) = 0.20115 0.35273
# Poissons Ratio (y) = 0.29025 0.36374
# Poissons Ratio (z) = 0.24711 0.17659
#
# Static dielectric constant tensor:
#      x y z
#    x 1.860100 0.000000 0.028250 
#    y 0.000000 1.771770 0.000000 
#    z 0.028250 0.000000 1.872920 
# 
# From -- ./inp_files/54358.got.cif
#   From: 2010.05.17/outbox.cif.g08.bks.cpg/sg15_28_cif.got.tgz:54358.got - 2010.06.03 18:47:42.
