data_PCOD9271369
_publ_section_title
;
Structure prediction by ZEFSAII (Michael W. Deem and Ramdas Pophale) SiO2 
 PCOD9271369
Probable space group: C 2/C
;
_chemical_formula_sum "Si O2"
_cell_formula_units_Z 60
_cell_length_a 19.821160
_cell_length_b 15.013011
_cell_length_c 20.458486
_cell_angle_alpha 90.000000
_cell_angle_beta 147.933144
_cell_angle_gamma 90.000000
_cell_volume 3232.138799
_symmetry_space_group_name_H-M "C 2/C"
_symmetry_group_IT_number 15
_symmetry_cell_setting 'monoclinic'
loop_
_space_group_symop_operation_xyz
x,y,z
-x,y,1/2-z
-x,-y,-z
x,-y,1/2+z
1/2+x,1/2+y,z
1/2-x,1/2+y,1/2-z
1/2-x,1/2-y,-z
1/2+x,1/2-y,1/2+z
loop_
_atom_site_type_symbol
_atom_site_label
_atom_site_fract_x
_atom_site_fract_y
_atom_site_fract_z
Si Si1 0.614176 0.611449 0.633335
Si Si2 0.430320 0.972875 0.757034
Si Si3 0.500000 0.646573 0.750000
Si Si4 0.947738 0.708855 0.096492
Si Si5 0.941034 0.545330 0.516265
Si Si6 0.731922 0.399922 0.372585
Si Si7 0.181475 0.924850 0.621168
Si Si8 0.851345 0.698104 0.355101
O O1 0.674078 0.614266 0.754145
O O2 0.657623 0.520218 0.635398
O O3 0.459927 0.609618 0.511668
O O4 0.670544 0.699257 0.644579
O O5 0.500000 0.011617 0.750000
O O6 0.506665 0.880606 0.829873
O O7 0.282420 0.943004 0.644977
O O8 0.459774 0.036737 0.843222
O O9 0.531852 0.710161 0.837734
O O10 0.380482 0.586859 0.669257
O O11 0.033021 0.707838 0.101557
O O12 0.805185 0.689169 0.956044
O O13 0.825544 0.482832 0.444156
O O14 0.893210 0.640007 0.451502
O O15 0.000000 0.500000 0.500000
O O16 0.246561 0.856762 0.726925
#
# Coordination Sequence:
#
# PCOD9271369 Si02
#       8
#     8   8   4   8   8   8   8   8
#     4  11  23  36  58  88 117 163 191 255 314 338
#     4  10  20  36  59  82 113 160 195 248 301 348
#     4  12  22  34  48  90 130 160 184 230 316 386
#     4  10  21  33  52  84 118 153 197 234 282 370
#     4  11  19  38  61  85 113 154 213 249 285 352
#     4  11  22  35  53  79 124 161 193 234 292 370
#     4  10  23  39  55  87 127 145 207 256 291 366
#     4  11  21  37  63  86 114 159 203 254 294 353
#
# _framework density 18.563559999999999
#
# number of rings (size 3 to 8) (size 9 to 14) (size 15 to 20)
#    0.000    1.333    7.333    0.400    1.867    2.133 
#    0.000    0.000    0.000    0.800    1.733    0.000 
#    0.000    0.000    0.000    0.000    0.000    0.000 
#
# Total GULP energy -167289.942948 kJ/mol
# GULP energy per Si atom -5576.331432 kJ/mol
# Density = 1.852131 g / cm^3
# Si number density = 18.563560 Si / 1000 Ang^3
#
#
#
# Elastic Constant Matrix: (Units=GPa)
#
#
# Indices 1 2 3 4 5 6 
#
# 1 87.7297 23.2952 32.1541 0.0000 8.8739 0.0000
# 2 23.2952 99.3854 29.9398 -0.0001 4.1083 0.0000
# 3 32.1541 29.9398 75.3355 0.0000 18.2932 0.0000
# 4 0.0000 -0.0001 0.0000 -3.3276 0.0000 11.7829
# 5 8.8739 4.1083 18.2932 0.0000 29.4288 0.0000
# 6 0.0000 0.0000 0.0000 11.7829 0.0000 13.9152
#
#
#
# Elastic Compliance Matrix: (Units=1/GPa)
#
#
# Indices 1 2 3 4 5 6 
#
# 1 0.013763 -0.001683 -0.005011 0.000000 -0.000800 0.000000
# 2 -0.001683 0.011689 -0.004303 0.000000 0.001551 0.000000
# 3 -0.005011 -0.004303 0.019563 0.000000 -0.010049 0.000000
# 4 0.000000 0.000000 0.000000 -0.075160 0.000000 0.063643
# 5 -0.000800 0.001551 -0.010049 0.000000 0.040252 0.000000
# 6 0.000000 0.000000 0.000000 0.063643 0.000000 0.017973
#
#
# Mechanical properties :
#
#
# Convention : Reuss Voigt Hill
#
# Bulk Modulus (GPa) = 43.44159 48.13652 45.78905
# Shear Modulus (GPa) = 86.58306 19.80738 53.19522
#
# Velocity S-wave (km/s) = 6.83686 3.27005 5.35891
# Velocity P-wave (km/s) = 9.26153 6.34386 7.93790
#
# Compressibility (1/GPa) = 0.02301941
#
# Stress axis : x y z
#
# Youngs Moduli (GPa) = 72.65773 85.55265 51.11683
#
# Poissons Ratio (x) = 0.14402 0.25614
# Poissons Ratio (y) = 0.12231 0.21998
# Poissons Ratio (z) = 0.36408 0.36817
#
# Static dielectric constant tensor:
#      x y z
#    x 1.664410 0.000000 0.015450 
#    y 0.000000 1.687920 0.000000 
#    z 0.015450 0.000000 1.766720 
# 
# From -- ./inp_files/253060.got.cif
#   From: 2010.05.17/outbox.cif.g08.bks.cpg/sg15_127_cif.got.tgz:253060.got - 2010.06.03 18:47:42.
