data_PCOD9271758
_publ_section_title
;
Structure prediction by ZEFSAII (Michael W. Deem and Ramdas Pophale) SiO2 
 PCOD9271758
Probable space group: C 2/C
;
_chemical_formula_sum "Si O2"
_cell_formula_units_Z 48
_cell_length_a 9.071135
_cell_length_b 14.643101
_cell_length_c 26.541636
_cell_angle_alpha 90.000000
_cell_angle_beta 141.400174
_cell_angle_gamma 90.000000
_cell_volume 2199.487548
_symmetry_space_group_name_H-M "C 2/C"
_symmetry_group_IT_number 15
_symmetry_cell_setting 'monoclinic'
loop_
_space_group_symop_operation_xyz
x,y,z
-x,y,1/2-z
-x,-y,-z
x,-y,1/2+z
1/2+x,1/2+y,z
1/2-x,1/2+y,1/2-z
1/2-x,1/2-y,-z
1/2+x,1/2-y,1/2+z
loop_
_atom_site_type_symbol
_atom_site_label
_atom_site_fract_x
_atom_site_fract_y
_atom_site_fract_z
Si Si1 0.648263 0.928215 0.105447
Si Si2 0.450506 0.444133 0.810983
Si Si3 0.410091 0.821705 0.952340
Si Si4 0.752415 0.373840 0.059524
Si Si5 0.526618 0.890009 0.628876
Si Si6 0.335600 0.537325 0.391578
O O1 0.526370 0.864403 0.115393
O O2 0.519936 0.021825 0.089908
O O3 0.569654 0.883121 0.032036
O O4 0.917435 0.962733 0.171778
O O5 0.659373 0.373477 0.879034
O O6 0.276070 0.401780 0.723351
O O7 0.310571 0.461631 0.825270
O O8 0.359627 0.724387 0.962783
O O9 0.501623 0.810738 0.919269
O O10 0.717184 0.437625 0.099093
O O11 0.596126 0.426504 0.975594
O O12 0.334971 0.897588 0.621247
#
# Coordination Sequence:
#
# PCOD9271758 Si02
#       6
#     8   8   8   8   8   8
#     4  10  20  36  61  89 113 157 203 246 299 365
#     4  11  21  39  64  85 122 164 204 247 309 366
#     4  11  21  37  63  90 119 156 204 258 302 351
#     4  10  22  38  61  91 120 151 204 258 309 349
#     4  10  22  39  60  87 123 164 205 241 309 377
#     4  10  22  39  62  85 121 162 200 254 304 369
#
# _framework density 21.823264999999999
#
# number of rings (size 3 to 8) (size 9 to 14) (size 15 to 20)
#    0.000    1.667    1.667    5.000    4.667    0.667 
#    0.000    6.667    3.667    0.000    0.000    0.000 
#    0.000    0.000    0.000    0.000    0.000    0.000 
#
# Total GULP energy -133790.375012 kJ/mol
# GULP energy per Si atom -5574.598959 kJ/mol
# Density = 2.177359 g / cm^3
# Si number density = 21.823265 Si / 1000 Ang^3
#
#
#
# Elastic Constant Matrix: (Units=GPa)
#
#
# Indices 1 2 3 4 5 6 
#
# 1 142.8975 12.8826 30.8072 0.0000 -12.9563 0.0000
# 2 12.8826 27.3343 22.3950 0.0000 -11.8620 0.0000
# 3 30.8072 22.3950 71.9505 -0.0002 -8.8992 0.0000
# 4 0.0000 0.0000 -0.0002 9.6291 0.0000 5.1609
# 5 -12.9563 -11.8620 -8.8992 0.0000 39.7274 0.0000
# 6 0.0000 0.0000 0.0000 5.1609 0.0000 19.2936
#
#
#
# Elastic Compliance Matrix: (Units=1/GPa)
#
#
# Indices 1 2 3 4 5 6 
#
# 1 0.007845 -0.000491 -0.002991 0.000000 0.001742 0.000000
# 2 -0.000491 0.054905 -0.015295 0.000000 0.012807 0.000000
# 3 -0.002991 -0.015295 0.019803 0.000000 -0.001106 0.000000
# 4 0.000000 0.000000 0.000000 0.121233 0.000000 -0.032429
# 5 0.001742 0.012807 -0.001106 0.000000 0.029316 0.000000
# 6 0.000000 0.000000 0.000000 -0.032429 0.000000 0.060505
#
#
# Mechanical properties :
#
#
# Convention : Reuss Voigt Hill
#
# Bulk Modulus (GPa) = 22.22283 41.59465 31.90874
# Shear Modulus (GPa) = 14.44417 25.46985 19.95701
#
# Velocity S-wave (km/s) = 2.57548 3.41998 3.02732
# Velocity P-wave (km/s) = 4.36455 5.89035 5.18389
#
# Compressibility (1/GPa) = 0.04499878
#
# Stress axis : x y z
#
# Youngs Moduli (GPa) = 127.46970 18.21337 50.49784
#
# Poissons Ratio (x) = 0.00895 0.15102
# Poissons Ratio (y) = 0.06260 0.77237
# Poissons Ratio (z) = 0.38122 0.27857
#
# Static dielectric constant tensor:
#      x y z
#    x 1.950050 0.000000 0.025990 
#    y 0.000000 1.862480 0.000000 
#    z 0.025990 0.000000 1.796370 
# 
# From -- ./inp_files/289077.got.cif
#   From: 2010.05.17/outbox.cif.g08.bks.cpg/sg15_145_cif.got.tgz:289077.got - 2010.06.03 18:47:42.
