data_PCOD9271947
_publ_section_title
;
Structure prediction by ZEFSAII (Michael W. Deem and Ramdas Pophale) SiO2 
 PCOD9271947
Probable space group: C 2/C
;
_chemical_formula_sum "Si O2"
_cell_formula_units_Z 60
_cell_length_a 20.782976
_cell_length_b 8.758199
_cell_length_c 22.125471
_cell_angle_alpha 90.000000
_cell_angle_beta 144.073263
_cell_angle_gamma 90.000000
_cell_volume 2363.025391
_symmetry_space_group_name_H-M "C 2/C"
_symmetry_group_IT_number 15
_symmetry_cell_setting 'monoclinic'
loop_
_space_group_symop_operation_xyz
x,y,z
-x,y,1/2-z
-x,-y,-z
x,-y,1/2+z
1/2+x,1/2+y,z
1/2-x,1/2+y,1/2-z
1/2-x,1/2-y,-z
1/2+x,1/2-y,1/2+z
loop_
_atom_site_type_symbol
_atom_site_label
_atom_site_fract_x
_atom_site_fract_y
_atom_site_fract_z
Si Si1 0.800114 0.269893 0.172497
Si Si2 0.967439 0.842795 0.330456
Si Si3 0.408193 0.120626 0.871696
Si Si4 0.810293 0.962261 0.983520
Si Si5 0.393100 0.958564 0.585827
Si Si6 0.091035 0.284339 0.587615
Si Si7 0.000000 0.280982 0.250000
Si Si8 0.726089 0.151754 0.613936
O O1 0.870447 0.361802 0.275336
O O2 0.727865 0.383037 0.076864
O O3 0.711353 0.196241 0.150498
O O4 0.894764 0.200138 0.201272
O O5 0.931901 0.831480 0.374717
O O6 0.855685 0.869945 0.209851
O O7 0.065645 0.963562 0.398385
O O8 0.021995 0.682758 0.349706
O O9 0.311559 0.148497 0.845778
O O10 0.438848 0.945131 0.904487
O O11 0.504911 0.231831 0.967389
O O12 0.717189 0.922447 0.960918
O O13 0.805573 0.820000 0.933797
O O14 0.342550 0.965886 0.479816
O O15 0.444442 0.105234 0.657690
#
# Coordination Sequence:
#
# PCOD9271947 Si02
#       8
#     8   8   8   8   8   8   4   8
#     4  11  24  43  67  92 125 171 214 265 320 380
#     4  11  19  36  58  97 131 159 205 271 329 373
#     4  11  23  40  66  93 125 163 213 259 317 387
#     4  10  22  37  60  93 130 170 210 261 322 383
#     4  10  20  36  62  92 127 168 217 255 321 388
#     4  11  23  40  62  95 123 165 208 260 322 377
#     4  10  22  42  68  90 124 180 222 260 306 392
#     4  11  20  35  60  95 128 166 207 268 323 377
#
# _framework density 25.391178
#
# number of rings (size 3 to 8) (size 9 to 14) (size 15 to 20)
#    0.000    1.333    4.000    4.800    1.867    2.133 
#    2.400    0.667    0.000    1.600    0.000    0.000 
#    0.000    0.000    0.000    0.000    0.000    0.000 
#
# Total GULP energy -167740.259642 kJ/mol
# GULP energy per Si atom -5591.341988 kJ/mol
# Density = 2.533339 g / cm^3
# Si number density = 25.391178 Si / 1000 Ang^3
#
#
#
# Elastic Constant Matrix: (Units=GPa)
#
#
# Indices 1 2 3 4 5 6 
#
# 1 168.6925 16.1491 31.4979 0.0000 37.8417 0.0000
# 2 16.1491 28.1135 6.9819 0.0000 6.0182 0.0000
# 3 31.4979 6.9819 144.2799 0.0000 39.0063 0.0000
# 4 0.0000 0.0000 0.0000 9.5918 0.0000 4.5315
# 5 37.8417 6.0182 39.0063 0.0000 36.7033 0.0000
# 6 0.0000 0.0000 0.0000 4.5315 0.0000 28.5421
#
#
#
# Elastic Compliance Matrix: (Units=1/GPa)
#
#
# Indices 1 2 3 4 5 6 
#
# 1 0.007984 -0.002942 0.000694 0.000000 -0.008486 0.000000
# 2 -0.002942 0.037953 -0.000466 0.000000 -0.002695 0.000000
# 3 0.000694 -0.000466 0.009787 0.000000 -0.011040 0.000000
# 4 0.000000 0.000000 0.000000 0.112709 0.000000 -0.017894
# 5 -0.008486 -0.002695 -0.011040 0.000000 0.048169 0.000000
# 6 0.000000 0.000000 0.000000 -0.017894 0.000000 0.037877
#
#
# Mechanical properties :
#
#
# Convention : Reuss Voigt Hill
#
# Bulk Modulus (GPa) = 19.88256 50.03818 34.96037
# Shear Modulus (GPa) = 18.07205 34.06459 26.06832
#
# Velocity S-wave (km/s) = 2.67075 3.66675 3.20764
# Velocity P-wave (km/s) = 4.16630 6.13811 5.24569
#
# Compressibility (1/GPa) = 0.05029534
#
# Stress axis : x y z
#
# Youngs Moduli (GPa) = 125.25557 26.34871 102.18032
#
# Poissons Ratio (x) = 0.07751 -0.07088
# Poissons Ratio (y) = 0.36846 0.04759
# Poissons Ratio (z) = -0.08689 0.01227
#
# Static dielectric constant tensor:
#      x y z
#    x 2.011830 0.000000 0.002350 
#    y 0.000000 2.010840 0.000000 
#    z 0.002350 0.000000 2.002830 
# 
# From -- ./inp_files/248774.got.cif
#   From: 2010.05.17/outbox.cif.g08.bks.cpg/sg15_125_cif.got.tgz:248774.got - 2010.06.03 18:47:42.
