data_PCOD9271285
_publ_section_title
;
Structure prediction by ZEFSAII (Michael W. Deem and Ramdas Pophale) SiO2 
 PCOD9271285
Probable space group: C 2/C
;
_chemical_formula_sum "Si O2"
_cell_formula_units_Z 64
_cell_length_a 18.812408
_cell_length_b 19.220409
_cell_length_c 9.255999
_cell_angle_alpha 90.000000
_cell_angle_beta 67.484436
_cell_angle_gamma 90.000000
_cell_volume 3091.695930
_symmetry_space_group_name_H-M "C 2/C"
_symmetry_group_IT_number 15
_symmetry_cell_setting 'monoclinic'
loop_
_space_group_symop_operation_xyz
x,y,z
-x,y,1/2-z
-x,-y,-z
x,-y,1/2+z
1/2+x,1/2+y,z
1/2-x,1/2+y,1/2-z
1/2-x,1/2-y,-z
1/2+x,1/2-y,1/2+z
loop_
_atom_site_type_symbol
_atom_site_label
_atom_site_fract_x
_atom_site_fract_y
_atom_site_fract_z
Si Si1 0.527875 0.668145 0.397055
Si Si2 0.225193 0.015324 0.710168
Si Si3 0.339616 0.188364 0.189283
Si Si4 0.635314 0.651969 0.873986
Si Si5 0.314160 0.369099 0.841665
Si Si6 0.947835 0.539895 0.652723
Si Si7 0.994956 0.320708 0.082365
Si Si8 0.183869 0.556779 0.117276
O O1 0.500000 0.663554 0.250000
O O2 0.456379 0.637179 0.542346
O O3 0.614869 0.642045 0.323160
O O4 0.532361 0.746704 0.452133
O O5 0.176281 0.084759 0.773827
O O6 0.299723 0.039872 0.561221
O O7 0.191505 0.952410 0.641677
O O8 0.246164 0.973440 0.839585
O O9 0.346614 0.271667 0.208081
O O10 0.265088 0.166331 0.151173
O O11 0.331046 0.137144 0.333311
O O12 0.419258 0.166489 0.046410
O O13 0.665225 0.659835 0.016233
O O14 0.883541 0.490572 0.766390
O O15 0.000000 0.556021 0.750000
O O16 0.000000 0.500000 0.500000
O O17 0.935997 0.616999 0.598640
O O18 0.000000 0.308567 0.250000
#
# Coordination Sequence:
#
# PCOD9271285 Si02
#       8
#     8   8   8   8   8   8   8   8
#     4   8  17  34  54  83 114 143 195 243 286 336
#     4  11  23  38  60  85 120 150 198 243 293 344
#     4  10  21  36  58  85 120 151 195 237 289 347
#     4  10  20  37  60  85 113 159 188 241 298 346
#     4  10  20  36  58  87 117 149 198 243 284 346
#     4  11  21  34  55  81 117 159 190 227 285 336
#     4   9  18  31  53  83 114 150 186 236 282 339
#     4  11  23  39  55  90 121 155 196 242 280 353
#
# _framework density 20.700612
#
# number of rings (size 3 to 8) (size 9 to 14) (size 15 to 20)
#    0.000    2.000    2.500    1.875    5.250    2.000 
#    0.000    0.000    0.000    0.000    0.000    0.000 
#    0.000    0.000    0.000    0.000    0.000    0.000 
#
# Total GULP energy -178179.065596 kJ/mol
# GULP energy per Si atom -5568.095800 kJ/mol
# Density = 2.065350 g / cm^3
# Si number density = 20.700612 Si / 1000 Ang^3
#
#
#
# Elastic Constant Matrix: (Units=GPa)
#
#
# Indices 1 2 3 4 5 6 
#
# 1 33.5492 15.3712 9.0397 0.0000 -19.8852 0.0000
# 2 15.3712 119.7845 38.5003 0.0000 -30.6707 0.0000
# 3 9.0397 38.5003 83.1192 0.0000 -30.1412 0.0000
# 4 0.0000 0.0000 0.0000 11.2880 0.0000 -9.8102
# 5 -19.8852 -30.6707 -30.1412 0.0000 31.3114 0.0000
# 6 0.0000 0.0000 0.0000 -9.8102 0.0000 12.8324
#
#
#
# Elastic Compliance Matrix: (Units=1/GPa)
#
#
# Indices 1 2 3 4 5 6 
#
# 1 0.052723 0.001452 0.009604 0.000000 0.044151 0.000000
# 2 0.001452 0.011371 -0.001615 0.000000 0.010506 0.000000
# 3 0.009604 -0.001615 0.020544 0.000000 0.024293 0.000000
# 4 0.000000 0.000000 0.000000 0.263967 0.000000 0.201798
# 5 0.044151 0.010506 0.024293 0.000000 0.093653 0.000000
# 6 0.000000 0.000000 0.000000 0.201798 0.000000 0.232198
#
#
# Mechanical properties :
#
#
# Convention : Reuss Voigt Hill
#
# Bulk Modulus (GPa) = 9.66004 40.25281 24.95642
# Shear Modulus (GPa) = 7.24553 22.65580 14.95067
#
# Velocity S-wave (km/s) = 1.87290 3.31184 2.69036
# Velocity P-wave (km/s) = 3.05838 5.84053 4.66184
#
# Compressibility (1/GPa) = 0.10351929
#
# Stress axis : x y z
#
# Youngs Moduli (GPa) = 18.96712 87.94168 48.67609
#
# Poissons Ratio (x) = -0.12773 -0.46746
# Poissons Ratio (y) = -0.02755 0.07862
# Poissons Ratio (z) = -0.18215 0.14205
#
# Static dielectric constant tensor:
#      x y z
#    x 1.815510 0.000000 0.002220 
#    y 0.000000 1.824820 0.000000 
#    z 0.002220 0.000000 1.746420 
# 
# From -- ./inp_files/113669.got.cif
#   From: 2010.05.17/outbox.cif.g08.bks.cpg/sg15_57_cif.got.tgz:113669.got - 2010.06.03 18:47:42.
