data_PCOD9271545
_publ_section_title
;
Structure prediction by ZEFSAII (Michael W. Deem and Ramdas Pophale) SiO2 
 PCOD9271545
Probable space group: C 2/C
;
_chemical_formula_sum "Si O2"
_cell_formula_units_Z 40
_cell_length_a 9.496979
_cell_length_b 18.347033
_cell_length_c 13.375921
_cell_angle_alpha 90.000000
_cell_angle_beta 121.960110
_cell_angle_gamma 90.000000
_cell_volume 1977.353369
_symmetry_space_group_name_H-M "C 2/C"
_symmetry_group_IT_number 15
_symmetry_cell_setting 'monoclinic'
loop_
_space_group_symop_operation_xyz
x,y,z
-x,y,1/2-z
-x,-y,-z
x,-y,1/2+z
1/2+x,1/2+y,z
1/2-x,1/2+y,1/2-z
1/2-x,1/2-y,-z
1/2+x,1/2-y,1/2+z
loop_
_atom_site_type_symbol
_atom_site_label
_atom_site_fract_x
_atom_site_fract_y
_atom_site_fract_z
Si Si1 0.048694 0.964913 0.151274
Si Si2 0.317027 0.992612 0.039750
Si Si3 0.853273 0.438511 0.827554
Si Si4 0.175546 0.809658 0.847452
Si Si5 0.259140 0.350241 0.399544
O O1 0.110878 0.889555 0.124802
O O2 0.000000 0.955413 0.250000
O O3 0.206070 0.021600 0.209902
O O4 0.879796 0.990460 0.032231
O O5 0.453795 0.050238 0.126807
O O6 0.358049 0.917459 0.112889
O O7 0.338913 0.977442 0.930317
O O8 0.810245 0.355191 0.836439
O O9 0.187868 0.724113 0.828413
O O10 0.000000 0.841436 0.750000
O O11 0.179759 0.824368 0.967765
#
# Coordination Sequence:
#
# PCOD9271545 Si02
#       5
#     8   8   8   8   8
#     4  10  20  36  60  84 119 156 199 251 296 352
#     4   9  18  33  56  85 112 146 202 242 279 355
#     4   9  18  34  56  82 116 152 190 239 301 335
#     4  10  21  38  59  85 124 155 194 256 303 352
#     4  10  21  36  60  89 113 160 203 243 301 364
#
# _framework density 20.229061000000002
#
# number of rings (size 3 to 8) (size 9 to 14) (size 15 to 20)
#    0.000    2.400    0.000    3.600    2.800    0.000 
#    3.600    1.000    4.400    0.000    0.000    0.000 
#    0.000    0.000    0.000    0.000    0.000    0.000 
#
# Total GULP energy -111350.477656 kJ/mol
# GULP energy per Si atom -5567.523883 kJ/mol
# Density = 2.018302 g / cm^3
# Si number density = 20.229061 Si / 1000 Ang^3
#
#
#
# Elastic Constant Matrix: (Units=GPa)
#
#
# Indices 1 2 3 4 5 6 
#
# 1 98.4783 44.1672 37.3819 0.0000 24.9757 0.0000
# 2 44.1672 102.1135 46.8545 0.0000 16.8899 0.0000
# 3 37.3819 46.8545 90.1969 0.0000 12.7675 0.0000
# 4 0.0000 0.0000 0.0000 16.4181 0.0000 0.7226
# 5 24.9757 16.8899 12.7675 0.0000 31.9766 0.0000
# 6 0.0000 0.0000 0.0000 0.7226 0.0000 13.5753
#
#
#
# Elastic Compliance Matrix: (Units=1/GPa)
#
#
# Indices 1 2 3 4 5 6 
#
# 1 0.015208 -0.003696 -0.003156 0.000000 -0.008666 0.000000
# 2 -0.003696 0.014360 -0.005578 0.000000 -0.002471 0.000000
# 3 -0.003156 -0.005578 0.015397 0.000000 -0.000736 0.000000
# 4 0.000000 0.000000 0.000000 0.061051 0.000000 -0.003250
# 5 -0.008666 -0.002471 -0.000736 0.000000 0.039640 0.000000
# 6 0.000000 0.000000 0.000000 -0.003250 0.000000 0.073836
#
#
# Mechanical properties :
#
#
# Convention : Reuss Voigt Hill
#
# Bulk Modulus (GPa) = 49.74157 60.84398 55.29277
# Shear Modulus (GPa) = 19.91595 23.21966 21.56780
#
# Velocity S-wave (km/s) = 3.14111 3.39165 3.26878
# Velocity P-wave (km/s) = 6.14801 6.74392 6.45285
#
# Compressibility (1/GPa) = 0.02010391
#
# Stress axis : x y z
#
# Youngs Moduli (GPa) = 65.75376 69.63856 64.94932
#
# Poissons Ratio (x) = 0.25742 0.20499
# Poissons Ratio (y) = 0.24306 0.36227
# Poissons Ratio (z) = 0.20753 0.38843
#
# Static dielectric constant tensor:
#      x y z
#    x 1.781830 0.000000 -0.016180 
#    y 0.000000 1.704400 0.000000 
#    z -0.016180 0.000000 1.784730 
# 
# From -- ./inp_files/76829.got.cif
#   From: 2010.05.17/outbox.cif.g08.bks.cpg/sg15_39_cif.got.tgz:76829.got - 2010.06.03 18:47:42.
