data_PCOD9271086
_publ_section_title
;
Structure prediction by ZEFSAII (Michael W. Deem and Ramdas Pophale) SiO2 
 PCOD9271086
Probable space group: C 2/C
;
_chemical_formula_sum "Si O2"
_cell_formula_units_Z 64
_cell_length_a 8.733291
_cell_length_b 19.499919
_cell_length_c 19.381075
_cell_angle_alpha 90.000000
_cell_angle_beta 111.188038
_cell_angle_gamma 90.000000
_cell_volume 3077.446632
_symmetry_space_group_name_H-M "C 2/C"
_symmetry_group_IT_number 15
_symmetry_cell_setting 'monoclinic'
loop_
_space_group_symop_operation_xyz
x,y,z
-x,y,1/2-z
-x,-y,-z
x,-y,1/2+z
1/2+x,1/2+y,z
1/2-x,1/2+y,1/2-z
1/2-x,1/2-y,-z
1/2+x,1/2-y,1/2+z
loop_
_atom_site_type_symbol
_atom_site_label
_atom_site_fract_x
_atom_site_fract_y
_atom_site_fract_z
Si Si1 0.872271 0.702310 0.666933
Si Si2 0.287229 0.606875 0.590227
Si Si3 0.142827 0.515891 0.467325
Si Si4 0.480604 0.710140 0.930605
Si Si5 0.145768 0.463158 0.326484
Si Si6 0.004960 0.022069 0.169688
Si Si7 0.646508 0.611854 0.469028
Si Si8 0.985521 0.685152 0.542121
O O1 0.686395 0.730389 0.636856
O O2 0.844280 0.619171 0.657944
O O3 0.000000 0.715991 0.750000
O O4 0.938600 0.727258 0.603036
O O5 0.227032 0.585552 0.504002
O O6 0.404340 0.671628 0.604337
O O7 0.374309 0.540534 0.636185
O O8 0.115826 0.631150 0.593900
O O9 0.084464 0.508169 0.381084
O O10 0.289892 0.460813 0.491862
O O11 0.000000 0.500000 0.500000
O O12 0.438741 0.654546 0.984256
O O13 0.551483 0.771456 0.988633
O O14 0.319704 0.491850 0.327030
O O15 0.000000 0.470091 0.250000
O O16 0.000000 0.038298 0.250000
O O17 0.953994 0.087589 0.114395
O O18 0.819724 0.650798 0.486259
#
# Coordination Sequence:
#
# PCOD9271086 Si02
#       8
#     8   8   8   8   8   8   8   8
#     4  10  20  36  57  82 114 150 198 244 297 354
#     4  11  22  35  60  88 123 151 204 248 305 357
#     4  11  19  35  61  85 117 156 192 247 308 360
#     4  11  21  40  60  86 118 158 205 255 287 354
#     4  11  22  35  58  88 123 154 194 245 313 369
#     4  11  25  37  60  92 128 158 192 257 318 367
#     4  10  20  38  58  83 117 151 205 238 295 361
#     4  11  22  38  61  86 118 161 203 246 295 354
#
# _framework density 20.796461999999998
#
# number of rings (size 3 to 8) (size 9 to 14) (size 15 to 20)
#    0.000    1.250    5.000    2.625    7.000    2.000 
#    0.000    2.500    0.000    1.500    0.000    0.000 
#    0.000    0.000    0.000    0.000    0.000    0.000 
#
# Total GULP energy -178356.674629 kJ/mol
# GULP energy per Si atom -5573.646082 kJ/mol
# Density = 2.074913 g / cm^3
# Si number density = 20.796462 Si / 1000 Ang^3
#
#
#
# Elastic Constant Matrix: (Units=GPa)
#
#
# Indices 1 2 3 4 5 6 
#
# 1 74.5362 7.6828 19.8873 0.0000 12.8239 0.0000
# 2 7.6828 29.2226 10.6335 0.0000 7.6629 0.0000
# 3 19.8873 10.6335 127.7905 0.0000 10.3104 0.0000
# 4 0.0000 0.0000 0.0000 29.5874 0.0000 -0.4688
# 5 12.8239 7.6629 10.3104 0.0000 26.4018 0.0000
# 6 0.0000 0.0000 0.0000 -0.4688 0.0000 23.7874
#
#
#
# Elastic Compliance Matrix: (Units=1/GPa)
#
#
# Indices 1 2 3 4 5 6 
#
# 1 0.015113 -0.001733 -0.001710 0.000000 -0.006170 0.000000
# 2 -0.001733 0.037897 -0.002131 0.000000 -0.009325 0.000000
# 3 -0.001710 -0.002131 0.008417 0.000000 -0.001838 0.000000
# 4 0.000000 0.000000 0.000000 0.033809 0.000000 0.000666
# 5 -0.006170 -0.009325 -0.001838 0.000000 0.044297 0.000000
# 6 0.000000 0.000000 0.000000 0.000666 0.000000 0.042052
#
#
# Mechanical properties :
#
#
# Convention : Reuss Voigt Hill
#
# Bulk Modulus (GPa) = 19.88956 34.21737 27.05347
# Shear Modulus (GPa) = 23.86723 28.84505 26.35614
#
# Velocity S-wave (km/s) = 3.39139 3.72831 3.56383
# Velocity P-wave (km/s) = 4.99199 5.91801 5.47462
#
# Compressibility (1/GPa) = 0.05027763
#
# Stress axis : x y z
#
# Youngs Moduli (GPa) = 66.16964 26.38760 118.80665
#
# Poissons Ratio (x) = 0.04573 0.20315
# Poissons Ratio (y) = 0.11468 0.25321
# Poissons Ratio (z) = 0.11314 0.05624
#
# Static dielectric constant tensor:
#      x y z
#    x 1.810400 0.000000 0.013090 
#    y 0.000000 1.813010 0.000000 
#    z 0.013090 0.000000 1.780460 
# 
# From -- ./inp_files/233908.got.cif
#   From: 2010.05.17/outbox.cif.g08.bks.cpg/sg15_117_cif.got.tgz:233908.got - 2010.06.03 18:47:42.
