data_PCOD9271936
_publ_section_title
;
Structure prediction by ZEFSAII (Michael W. Deem and Ramdas Pophale) SiO2 
 PCOD9271936
Probable space group: C 2/C
;
_chemical_formula_sum "Si O2"
_cell_formula_units_Z 44
_cell_length_a 13.139723
_cell_length_b 29.185775
_cell_length_c 8.737140
_cell_angle_alpha 90.000000
_cell_angle_beta 140.216054
_cell_angle_gamma 90.000000
_cell_volume 2144.050684
_symmetry_space_group_name_H-M "C 2/C"
_symmetry_group_IT_number 15
_symmetry_cell_setting 'monoclinic'
loop_
_space_group_symop_operation_xyz
x,y,z
-x,y,1/2-z
-x,-y,-z
x,-y,1/2+z
1/2+x,1/2+y,z
1/2-x,1/2+y,1/2-z
1/2-x,1/2-y,-z
1/2+x,1/2-y,1/2+z
loop_
_atom_site_type_symbol
_atom_site_label
_atom_site_fract_x
_atom_site_fract_y
_atom_site_fract_z
Si Si1 0.179386 0.140317 0.187141
Si Si2 0.370281 0.147751 0.711529
Si Si3 0.393401 0.067040 0.396301
Si Si4 0.912238 0.801954 0.485138
Si Si5 0.000000 0.501333 0.250000
Si Si6 0.125677 0.718267 0.267473
O O1 0.241517 0.132726 0.434300
O O2 0.230896 0.093199 0.171317
O O3 0.282863 0.178618 0.217723
O O4 0.001982 0.158622 0.992497
O O5 0.500000 0.171262 0.750000
O O6 0.269997 0.182028 0.701423
O O7 0.468267 0.106013 0.905907
O O8 0.380934 0.033901 0.528588
O O9 0.436813 0.034526 0.307479
O O10 0.940637 0.754428 0.432109
O O11 0.000000 0.798639 0.750000
O O12 0.250000 0.750000 0.500000
O O13 0.000000 0.701814 0.250000
#
# Coordination Sequence:
#
# PCOD9271936 Si02
#       6
#     8   8   8   8   4   8
#     4  10  21  38  58  87 120 160 198 247 304 355
#     4   9  19  36  62  87 110 158 205 241 292 362
#     4  10  20  37  62  92 117 157 200 250 305 367
#     4  10  23  41  61  85 124 165 204 252 296 358
#     4  10  20  36  62  92 122 146 202 256 304 364
#     4  12  26  41  57  88 128 162 206 254 299 354
#
# _framework density 20.521902000000001
#
# number of rings (size 3 to 8) (size 9 to 14) (size 15 to 20)
#    0.000    1.818    4.545    0.000    6.364    5.091 
#    0.000    0.000    0.000    6.545    0.000    0.000 
#    0.000    0.000    0.000    0.000    0.000    0.000 
#
# Total GULP energy -122571.990655 kJ/mol
# GULP energy per Si atom -5571.454121 kJ/mol
# Density = 2.047519 g / cm^3
# Si number density = 20.521902 Si / 1000 Ang^3
#
#
#
# Elastic Constant Matrix: (Units=GPa)
#
#
# Indices 1 2 3 4 5 6 
#
# 1 128.6337 62.3966 31.0849 0.0000 12.0693 0.0000
# 2 62.3966 110.8156 34.2368 0.0000 -2.4928 0.0000
# 3 31.0849 34.2368 43.5851 0.0000 -5.4167 0.0000
# 4 0.0000 0.0000 0.0000 14.1039 0.0000 -9.4854
# 5 12.0693 -2.4928 -5.4167 0.0000 28.8334 0.0000
# 6 0.0000 0.0000 0.0000 -9.4854 0.0000 26.4000
#
#
#
# Elastic Compliance Matrix: (Units=1/GPa)
#
#
# Indices 1 2 3 4 5 6 
#
# 1 0.012326 -0.005439 -0.005343 0.000000 -0.006633 0.000000
# 2 -0.005439 0.014331 -0.007108 0.000000 0.002180 0.000000
# 3 -0.005343 -0.007108 0.033317 0.000000 0.007881 0.000000
# 4 0.000000 0.000000 0.000000 0.093495 0.000000 0.033592
# 5 -0.006633 0.002180 0.007881 0.000000 0.039128 0.000000
# 6 0.000000 0.000000 0.000000 0.033592 0.000000 0.049948
#
#
# Mechanical properties :
#
#
# Convention : Reuss Voigt Hill
#
# Bulk Modulus (GPa) = 41.33030 59.83014 50.58022
# Shear Modulus (GPa) = 17.45883 24.22185 20.84034
#
# Velocity S-wave (km/s) = 2.91991 3.43927 3.19017
# Velocity P-wave (km/s) = 5.61704 6.70738 6.18628
#
# Compressibility (1/GPa) = 0.02419533
#
# Stress axis : x y z
#
# Youngs Moduli (GPa) = 81.13128 69.77723 30.01494
#
# Poissons Ratio (x) = 0.37950 0.16037
# Poissons Ratio (y) = 0.44125 0.21333
# Poissons Ratio (z) = 0.43348 0.49595
#
# Static dielectric constant tensor:
#      x y z
#    x 1.783810 0.000000 -0.019260 
#    y 0.000000 1.735020 0.000000 
#    z -0.019260 0.000000 1.834780 
# 
# From -- ./inp_files/34496.got.cif
#   From: 2010.05.17/outbox.cif.g08.bks.cpg/sg15_18_cif.got.tgz:34496.got - 2010.06.03 18:47:42.
