data_PCOD9271566
_publ_section_title
;
Structure prediction by ZEFSAII (Michael W. Deem and Ramdas Pophale) SiO2 
 PCOD9271566
Probable space group: C 2/C
;
_chemical_formula_sum "Si O2"
_cell_formula_units_Z 40
_cell_length_a 11.585030
_cell_length_b 9.322939
_cell_length_c 17.124362
_cell_angle_alpha 90.000000
_cell_angle_beta 55.813977
_cell_angle_gamma 90.000000
_cell_volume 1529.974549
_symmetry_space_group_name_H-M "C 2/C"
_symmetry_group_IT_number 15
_symmetry_cell_setting 'monoclinic'
loop_
_space_group_symop_operation_xyz
x,y,z
-x,y,1/2-z
-x,-y,-z
x,-y,1/2+z
1/2+x,1/2+y,z
1/2-x,1/2+y,1/2-z
1/2-x,1/2-y,-z
1/2+x,1/2-y,1/2+z
loop_
_atom_site_type_symbol
_atom_site_label
_atom_site_fract_x
_atom_site_fract_y
_atom_site_fract_z
Si Si1 0.046516 0.836975 0.491805
Si Si2 0.575003 0.080854 0.052654
Si Si3 0.283430 0.185008 0.197326
Si Si4 0.322879 0.435394 0.902301
Si Si5 0.843048 0.746823 0.341471
O O1 0.163624 0.812149 0.379714
O O2 0.934800 0.714858 0.505396
O O3 0.102967 0.843800 0.559476
O O4 0.000000 0.000000 0.500000
O O5 0.416270 0.073833 0.144841
O O6 0.669398 0.122346 0.090577
O O7 0.654404 0.946078 0.985314
O O8 0.254814 0.231467 0.295836
O O9 0.161744 0.117504 0.192369
O O10 0.352137 0.603963 0.884765
O O11 0.000000 0.733523 0.250000
#
# Coordination Sequence:
#
# PCOD9271566 Si02
#       5
#     8   8   8   8   8
#     4  10  20  36  60  86 116 148 200 239 290 354
#     4   9  21  37  62  86 115 155 204 232 299 358
#     4   9  22  38  56  90 119 151 199 247 298 353
#     4  12  20  38  63  87 118 159 197 251 298 347
#     4  10  20  39  55  84 118 157 191 234 298 360
#
# _framework density 26.144226
#
# number of rings (size 3 to 8) (size 9 to 14) (size 15 to 20)
#    1.200    0.800    2.000    1.800    0.000    1.600 
#    3.600    0.000    0.000    0.000    0.000    0.000 
#    0.000    0.000    0.000    0.000    0.000    0.000 
#
# Total GULP energy -111529.078620 kJ/mol
# GULP energy per Si atom -5576.453931 kJ/mol
# Density = 2.608472 g / cm^3
# Si number density = 26.144226 Si / 1000 Ang^3
#
#
#
# Elastic Constant Matrix: (Units=GPa)
#
#
# Indices 1 2 3 4 5 6 
#
# 1 107.0919 27.3359 46.0933 0.0000 43.6553 0.0000
# 2 27.3359 59.4732 22.6933 0.0000 30.2028 0.0000
# 3 46.0933 22.6933 155.2992 0.0000 52.0557 0.0000
# 4 0.0000 0.0000 0.0000 25.9471 0.0000 18.3667
# 5 43.6553 30.2028 52.0557 0.0000 59.3359 0.0000
# 6 0.0000 0.0000 0.0000 18.3667 0.0000 43.6147
#
#
#
# Elastic Compliance Matrix: (Units=1/GPa)
#
#
# Indices 1 2 3 4 5 6 
#
# 1 0.013558 -0.001661 -0.001022 0.000000 -0.008233 0.000000
# 2 -0.001661 0.022947 0.000914 0.000000 -0.011261 0.000000
# 3 -0.001022 0.000914 0.009226 0.000000 -0.007808 0.000000
# 4 0.000000 0.000000 0.000000 0.054907 0.000000 -0.023122
# 5 -0.008233 -0.011261 -0.007808 0.000000 0.035492 0.000000
# 6 0.000000 0.000000 0.000000 -0.023122 0.000000 0.032665
#
#
# Mechanical properties :
#
#
# Convention : Reuss Voigt Hill
#
# Bulk Modulus (GPa) = 23.69930 57.12326 40.41128
# Shear Modulus (GPa) = 26.82461 40.82899 33.82680
#
# Velocity S-wave (km/s) = 3.20664 3.95610 3.60092
# Velocity P-wave (km/s) = 4.77436 6.53945 5.72533
#
# Compressibility (1/GPa) = 0.04219534
#
# Stress axis : x y z
#
# Youngs Moduli (GPa) = 73.75965 43.57780 108.39056
#
# Poissons Ratio (x) = 0.07236 0.11072
# Poissons Ratio (y) = 0.12248 -0.09910
# Poissons Ratio (z) = 0.07535 -0.03984
#
# Static dielectric constant tensor:
#      x y z
#    x 2.261620 0.000000 -0.080870 
#    y 0.000000 2.131330 0.000000 
#    z -0.080870 0.000000 2.088270 
# 
# From -- ./inp_files/142135.got.cif
#   From: 2010.05.17/outbox.cif.g08.bks.cpg/sg15_72_cif.got.tgz:142135.got - 2010.06.03 18:47:42.
