data_PCOD9271169
_publ_section_title
;
Structure prediction by ZEFSAII (Michael W. Deem and Ramdas Pophale) SiO2 
 PCOD9271169
Probable space group: C 2/C
;
_chemical_formula_sum "Si O2"
_cell_formula_units_Z 32
_cell_length_a 11.168819
_cell_length_b 21.526720
_cell_length_c 10.173873
_cell_angle_alpha 90.000000
_cell_angle_beta 149.775523
_cell_angle_gamma 90.000000
_cell_volume 1231.332249
_symmetry_space_group_name_H-M "C 2/C"
_symmetry_group_IT_number 15
_symmetry_cell_setting 'monoclinic'
loop_
_space_group_symop_operation_xyz
x,y,z
-x,y,1/2-z
-x,-y,-z
x,-y,1/2+z
1/2+x,1/2+y,z
1/2-x,1/2+y,1/2-z
1/2-x,1/2-y,-z
1/2+x,1/2-y,1/2+z
loop_
_atom_site_type_symbol
_atom_site_label
_atom_site_fract_x
_atom_site_fract_y
_atom_site_fract_z
Si Si1 0.545930 0.401680 0.112854
Si Si2 0.279697 0.983650 0.885023
Si Si3 0.310632 0.272908 0.911390
Si Si4 0.751303 0.366208 0.046169
O O1 0.388534 0.446500 0.874095
O O2 0.379814 0.344903 0.994020
O O3 0.688041 0.448305 0.341870
O O4 0.730699 0.373292 0.182428
O O5 0.277059 0.935031 0.002979
O O6 0.500000 0.000000 0.000000
O O7 0.058964 0.259499 0.599782
O O8 0.250000 0.250000 0.000000
O O9 0.000000 0.333334 0.250000
O O10 0.500000 0.341137 0.750000
#
# Coordination Sequence:
#
# PCOD9271169 Si02
#       4
#     8   8   8   8
#     4  10  22  40  64  95 139 172 222 281 334 401
#     4  10  20  37  63 101 134 175 209 276 348 403
#     4  10  24  47  66  95 125 179 231 280 330 389
#     4  10  20  36  57  93 134 168 213 257 334 405
#
# _framework density 25.988112000000001
#
# number of rings (size 3 to 8) (size 9 to 14) (size 15 to 20)
#    0.000    2.000    2.500    0.000    3.500    0.000 
#   22.500    0.000    0.000   19.500    0.000    0.000 
#    0.000    0.000    0.000    0.000    0.000    0.000 
#
# Total GULP energy -89257.204488 kJ/mol
# GULP energy per Si atom -5578.575281 kJ/mol
# Density = 2.592896 g / cm^3
# Si number density = 25.988112 Si / 1000 Ang^3
#
#
#
# Elastic Constant Matrix: (Units=GPa)
#
#
# Indices 1 2 3 4 5 6 
#
# 1 102.3691 25.0867 17.6229 0.0001 35.2829 0.0000
# 2 25.0867 154.9452 31.5064 0.0001 9.7868 0.0000
# 3 17.6229 31.5064 138.4839 0.0007 51.5087 0.0001
# 4 0.0001 0.0001 0.0007 29.1097 0.0002 8.1202
# 5 35.2829 9.7868 51.5087 0.0002 55.7159 0.0000
# 6 0.0000 0.0000 0.0001 8.1202 0.0000 34.5674
#
#
#
# Elastic Compliance Matrix: (Units=1/GPa)
#
#
# Indices 1 2 3 4 5 6 
#
# 1 0.013496 -0.002065 0.002738 0.000000 -0.010715 0.000000
# 2 -0.002065 0.007088 -0.002093 0.000000 0.001997 0.000000
# 3 0.002738 -0.002093 0.011974 0.000000 -0.012436 0.000000
# 4 0.000000 0.000000 0.000000 0.036762 0.000000 -0.008636
# 5 -0.010715 0.001997 -0.012436 0.000000 0.035880 0.000000
# 6 0.000000 0.000000 0.000000 -0.008636 0.000000 0.030958
#
#
# Mechanical properties :
#
#
# Convention : Reuss Voigt Hill
#
# Bulk Modulus (GPa) = 33.64881 60.47001 47.05941
# Shear Modulus (GPa) = 33.57865 45.31741 39.44803
#
# Velocity S-wave (km/s) = 3.59845 4.18038 3.90028
# Velocity P-wave (km/s) = 5.49918 6.82786 6.19922
#
# Compressibility (1/GPa) = 0.02971874
#
# Stress axis : x y z
#
# Youngs Moduli (GPa) = 74.09348 141.09163 83.51122
#
# Poissons Ratio (x) = 0.29136 -0.22864
# Poissons Ratio (y) = 0.15301 0.17476
# Poissons Ratio (z) = -0.20285 0.29525
#
# Static dielectric constant tensor:
#      x y z
#    x 2.109880 0.000000 0.047670 
#    y 0.000000 2.123120 0.000000 
#    z 0.047670 0.000000 2.139280 
# 
# From -- ./inp_files/89275.got.cif
#   From: 2010.05.17/outbox.cif.g08.bks.cpg/sg15_45_cif.got.tgz:89275.got - 2010.06.03 18:47:42.
