data_PCOD9271426
_publ_section_title
;
Structure prediction by ZEFSAII (Michael W. Deem and Ramdas Pophale) SiO2 
 PCOD9271426
Probable space group: C 2/C
;
_chemical_formula_sum "Si O2"
_cell_formula_units_Z 56
_cell_length_a 8.531298
_cell_length_b 28.286281
_cell_length_c 15.234292
_cell_angle_alpha 90.000000
_cell_angle_beta 56.328291
_cell_angle_gamma 90.000000
_cell_volume 3059.535916
_symmetry_space_group_name_H-M "C 2/C"
_symmetry_group_IT_number 15
_symmetry_cell_setting 'monoclinic'
loop_
_space_group_symop_operation_xyz
x,y,z
-x,y,1/2-z
-x,-y,-z
x,-y,1/2+z
1/2+x,1/2+y,z
1/2-x,1/2+y,1/2-z
1/2-x,1/2-y,-z
1/2+x,1/2-y,1/2+z
loop_
_atom_site_type_symbol
_atom_site_label
_atom_site_fract_x
_atom_site_fract_y
_atom_site_fract_z
Si Si1 0.999615 0.753127 0.503070
Si Si2 0.783024 0.439524 0.810407
Si Si3 0.128352 0.189878 0.124165
Si Si4 0.138241 0.807815 0.124665
Si Si5 0.760577 0.594023 0.505392
Si Si6 0.203085 0.588869 0.393620
Si Si7 0.943145 0.999899 0.868745
O O1 0.945508 0.776789 0.428241
O O2 0.838195 0.716643 0.583384
O O3 0.021806 0.793301 0.569928
O O4 0.190839 0.724137 0.429009
O O5 0.754408 0.415486 0.724290
O O6 0.629295 0.481194 0.860613
O O7 0.000000 0.456847 0.750000
O O8 0.758954 0.404346 0.899732
O O9 0.203108 0.136276 0.099122
O O10 0.000000 0.195699 0.250000
O O11 0.172439 0.860282 0.077524
O O12 0.000000 0.807884 0.250000
O O13 0.649295 0.546635 0.564466
O O14 0.977422 0.589853 0.469356
O O15 0.294242 0.543271 0.411275
O O16 0.000000 0.009004 0.750000
#
# Coordination Sequence:
#
# PCOD9271426 Si02
#       7
#     8   8   8   8   8   8   8
#     4  10  24  41  61  89 118 157 206 244 307 357
#     4   9  20  36  56  88 122 152 207 253 293 360
#     4  11  21  39  65  89 120 155 198 253 304 348
#     4  11  23  42  60  87 123 158 202 247 298 367
#     4  11  21  37  59  86 122 162 197 245 307 363
#     4  10  21  37  59  90 120 153 202 256 298 359
#     4  10  20  36  59  86 117 161 200 245 303 361
#
# _framework density 18.303429999999999
#
# number of rings (size 3 to 8) (size 9 to 14) (size 15 to 20)
#    0.000    1.714    1.429    3.429    4.000    0.000 
#    0.000    0.000    0.000    0.000    0.000    0.000 
#    0.000    0.000    0.000    0.000    0.000    0.000 
#
# Total GULP energy -156381.904290 kJ/mol
# GULP energy per Si atom -5585.068010 kJ/mol
# Density = 1.826177 g / cm^3
# Si number density = 18.303430 Si / 1000 Ang^3
#
#
#
# Elastic Constant Matrix: (Units=GPa)
#
#
# Indices 1 2 3 4 5 6 
#
# 1 79.9299 37.9309 36.1520 0.0000 -3.7656 0.0000
# 2 37.9309 120.8359 47.4842 0.0000 -3.6432 0.0000
# 3 36.1520 47.4842 98.3591 0.0000 -19.3017 0.0000
# 4 0.0000 0.0000 0.0000 26.9885 0.0000 -6.0485
# 5 -3.7656 -3.6432 -19.3017 0.0000 21.0249 0.0000
# 6 0.0000 0.0000 0.0000 -6.0485 0.0000 28.9644
#
#
#
# Elastic Compliance Matrix: (Units=1/GPa)
#
#
# Indices 1 2 3 4 5 6 
#
# 1 0.016106 -0.003250 -0.004751 0.000000 -0.002040 0.000000
# 2 -0.003250 0.011068 -0.004740 0.000000 -0.003016 0.000000
# 3 -0.004751 -0.004740 0.016922 0.000000 0.013863 0.000000
# 4 0.000000 0.000000 0.000000 0.038872 0.000000 0.008118
# 5 -0.002040 -0.003016 0.013863 0.000000 0.059401 0.000000
# 6 0.000000 0.000000 0.000000 0.008118 0.000000 0.036220
#
#
# Mechanical properties :
#
#
# Convention : Reuss Voigt Hill
#
# Bulk Modulus (GPa) = 53.72756 60.25102 56.98929
# Shear Modulus (GPa) = 23.77817 27.23275 25.50546
#
# Velocity S-wave (km/s) = 3.60823 3.86145 3.73698
# Velocity P-wave (km/s) = 6.83934 7.27120 7.05858
#
# Compressibility (1/GPa) = 0.01861242
#
# Stress axis : x y z
#
# Youngs Moduli (GPa) = 62.08800 90.35195 59.09488
#
# Poissons Ratio (x) = 0.29367 0.28076
# Poissons Ratio (y) = 0.20180 0.28013
# Poissons Ratio (z) = 0.29499 0.42830
#
# Static dielectric constant tensor:
#      x y z
#    x 1.639500 0.000000 -0.006370 
#    y 0.000000 1.593990 0.000000 
#    z -0.006370 0.000000 1.617820 
# 
# From -- ./inp_files/138539.got.cif
#   From: 2010.05.17/outbox.cif.g08.bks.cpg/sg15_70_cif.got.tgz:138539.got - 2010.06.03 18:47:42.
