data_PCOD9271499
_publ_section_title
;
Structure prediction by ZEFSAII (Michael W. Deem and Ramdas Pophale) SiO2 
 PCOD9271499
Probable space group: C 2/C
;
_chemical_formula_sum "Si O2"
_cell_formula_units_Z 44
_cell_length_a 18.551833
_cell_length_b 15.248835
_cell_length_c 8.582429
_cell_angle_alpha 90.000000
_cell_angle_beta 126.894747
_cell_angle_gamma 90.000000
_cell_volume 1941.701060
_symmetry_space_group_name_H-M "C 2/C"
_symmetry_group_IT_number 15
_symmetry_cell_setting 'monoclinic'
loop_
_space_group_symop_operation_xyz
x,y,z
-x,y,1/2-z
-x,-y,-z
x,-y,1/2+z
1/2+x,1/2+y,z
1/2-x,1/2+y,1/2-z
1/2-x,1/2-y,-z
1/2+x,1/2-y,1/2+z
loop_
_atom_site_type_symbol
_atom_site_label
_atom_site_fract_x
_atom_site_fract_y
_atom_site_fract_z
Si Si1 0.630325 0.729582 0.977290
Si Si2 0.681673 0.866494 0.835485
Si Si3 0.568103 0.420364 0.578916
Si Si4 0.838093 0.307472 0.149725
Si Si5 0.000000 0.214249 0.250000
Si Si6 0.723573 0.028663 0.091306
O O1 0.732494 0.693349 0.096964
O O2 0.578736 0.638474 0.938027
O O3 0.627120 0.784856 0.133115
O O4 0.610389 0.794624 0.807715
O O5 0.672593 0.931758 0.676809
O O6 0.704881 0.930301 0.011460
O O7 0.500000 0.500000 0.500000
O O8 0.529963 0.351245 0.653515
O O9 0.669206 0.455047 0.747201
O O10 0.913622 0.277008 0.123771
O O11 0.750000 0.250000 0.000000
O O12 0.809505 0.406860 0.088725
#
# Coordination Sequence:
#
# PCOD9271499 Si02
#       6
#     8   8   8   8   4   8
#     4   9  20  37  58  87 129 168 215 256 318 392
#     4  10  20  36  59  92 118 165 219 259 314 391
#     4  10  22  37  55  94 132 166 207 262 324 386
#     4  11  19  40  62  89 125 170 216 261 324 388
#     4  10  22  36  62  90 124 168 220 258 322 380
#     4  11  22  37  64  93 125 172 217 264 326 386
#
# _framework density 22.660542
#
# number of rings (size 3 to 8) (size 9 to 14) (size 15 to 20)
#    0.000    1.818    5.455    1.091    5.091    1.455 
#    0.000    0.000    0.000    9.818    0.000    0.000 
#    0.000    0.000    0.000    0.000    0.000    0.000 
#
# Total GULP energy -122674.649737 kJ/mol
# GULP energy per Si atom -5576.120443 kJ/mol
# Density = 2.260897 g / cm^3
# Si number density = 22.660542 Si / 1000 Ang^3
#
#
#
# Elastic Constant Matrix: (Units=GPa)
#
#
# Indices 1 2 3 4 5 6 
#
# 1 75.6881 37.0389 11.4467 0.0000 -3.1412 0.0000
# 2 37.0389 119.1109 22.6016 0.0000 -1.7831 0.0000
# 3 11.4467 22.6016 46.6132 0.0000 -5.1274 0.0000
# 4 0.0000 0.0000 0.0000 32.6279 0.0000 -7.7151
# 5 -3.1412 -1.7831 -5.1274 0.0000 37.2438 0.0000
# 6 0.0000 0.0000 0.0000 -7.7151 0.0000 49.2129
#
#
#
# Elastic Compliance Matrix: (Units=1/GPa)
#
#
# Indices 1 2 3 4 5 6 
#
# 1 0.015726 -0.004584 -0.001540 0.000000 0.000895 0.000000
# 2 -0.004584 0.010584 -0.004054 0.000000 -0.000438 0.000000
# 3 -0.001540 -0.004054 0.024127 0.000000 0.002998 0.000000
# 4 0.000000 0.000000 0.000000 0.031828 0.000000 0.004990
# 5 0.000895 -0.000438 0.002998 0.000000 0.027317 0.000000
# 6 0.000000 0.000000 0.000000 0.004990 0.000000 0.021102
#
#
# Mechanical properties :
#
#
# Convention : Reuss Voigt Hill
#
# Bulk Modulus (GPa) = 33.24653 42.62073 37.93363
# Shear Modulus (GPa) = 31.04269 35.17193 33.10731
#
# Velocity S-wave (km/s) = 3.70523 3.94397 3.82646
# Velocity P-wave (km/s) = 5.74529 6.29198 6.02484
#
# Compressibility (1/GPa) = 0.03007833
#
# Stress axis : x y z
#
# Youngs Moduli (GPa) = 63.59045 94.48351 41.44739
#
# Poissons Ratio (x) = 0.43315 0.06385
# Poissons Ratio (y) = 0.29152 0.16804
# Poissons Ratio (z) = 0.09796 0.38306
#
# Static dielectric constant tensor:
#      x y z
#    x 1.907790 0.000000 -0.026380 
#    y 0.000000 1.890020 0.000000 
#    z -0.026380 0.000000 1.889230 
# 
# From -- ./inp_files/47417.got.cif
#   From: 2010.05.17/outbox.cif.g08.bks.cpg/sg15_24_cif.got.tgz:47417.got - 2010.06.03 18:47:42.
