data_PCOD9271410
_publ_section_title
;
Structure prediction by ZEFSAII (Michael W. Deem and Ramdas Pophale) SiO2 
 PCOD9271410
Probable space group: C 2/C
;
_chemical_formula_sum "Si O2"
_cell_formula_units_Z 64
_cell_length_a 15.056546
_cell_length_b 29.797198
_cell_length_c 9.104757
_cell_angle_alpha 90.000000
_cell_angle_beta 57.715983
_cell_angle_gamma 90.000000
_cell_volume 3453.321117
_symmetry_space_group_name_H-M "C 2/C"
_symmetry_group_IT_number 15
_symmetry_cell_setting 'monoclinic'
loop_
_space_group_symop_operation_xyz
x,y,z
-x,y,1/2-z
-x,-y,-z
x,-y,1/2+z
1/2+x,1/2+y,z
1/2-x,1/2+y,1/2-z
1/2-x,1/2-y,-z
1/2+x,1/2-y,1/2+z
loop_
_atom_site_type_symbol
_atom_site_label
_atom_site_fract_x
_atom_site_fract_y
_atom_site_fract_z
Si Si1 0.926882 0.088919 0.670677
Si Si2 0.089746 0.750449 0.562665
Si Si3 0.750240 0.944761 0.520007
Si Si4 0.921330 0.488541 0.439684
Si Si5 0.478513 0.316043 0.443000
Si Si6 0.246449 0.914332 0.660539
Si Si7 0.601197 0.528898 0.083197
Si Si8 0.282887 0.312623 0.825011
O O1 0.809585 0.082255 0.839143
O O2 0.931469 0.052253 0.538799
O O3 0.000000 0.084102 0.750000
O O4 0.964200 0.136472 0.571223
O O5 0.177478 0.717319 0.419517
O O6 0.146070 0.788425 0.613699
O O7 0.000000 0.729728 0.750000
O O8 0.033586 0.775846 0.479988
O O9 0.755353 0.914942 0.661016
O O10 0.641696 0.967072 0.560423
O O11 0.816463 0.989024 0.508728
O O12 0.839126 0.449613 0.547002
O O13 0.000000 0.470494 0.250000
O O14 0.000000 0.500000 0.500000
O O15 0.500000 0.310887 0.250000
O O16 0.358795 0.315922 0.613040
O O17 0.149453 0.935623 0.656322
O O18 0.251864 0.863080 0.606288
O O19 0.500000 0.509467 0.250000
#
# Coordination Sequence:
#
# PCOD9271410 Si02
#       8
#     8   8   8   8   8   8   8   8
#     4  11  22  35  54  83 117 150 188 233 289 354
#     4   9  20  39  62  85 117 149 188 240 299 356
#     4  11  23  37  56  79 114 154 193 241 293 341
#     4  11  23  42  61  78 113 162 205 251 299 343
#     4  10  20  36  59  85 118 153 183 233 297 360
#     4  11  22  36  59  85 109 149 199 242 287 348
#     4  11  21  33  52  80 115 148 190 232 282 340
#     4  10  20  37  62  87 114 152 191 240 295 354
#
# _framework density 18.532885
#
# number of rings (size 3 to 8) (size 9 to 14) (size 15 to 20)
#    0.000    1.500    1.250    5.625    1.750    3.500 
#    0.000    0.000    2.750    0.000    0.000    0.000 
#    0.000    0.000    0.000    0.000    0.000    0.000 
#
# Total GULP energy -178380.122020 kJ/mol
# GULP energy per Si atom -5574.378813 kJ/mol
# Density = 1.849070 g / cm^3
# Si number density = 18.532885 Si / 1000 Ang^3
#
#
#
# Elastic Constant Matrix: (Units=GPa)
#
#
# Indices 1 2 3 4 5 6 
#
# 1 81.8136 25.7270 15.2395 0.0000 -4.5711 0.0000
# 2 25.7270 90.2407 24.3420 0.0000 -10.4284 0.0000
# 3 15.2395 24.3420 95.8496 0.0000 -8.5882 0.0000
# 4 0.0000 0.0000 0.0000 11.5695 0.0000 3.6937
# 5 -4.5711 -10.4284 -8.5882 0.0000 24.0125 0.0000
# 6 0.0000 0.0000 0.0000 3.6937 0.0000 8.1027
#
#
#
# Elastic Compliance Matrix: (Units=1/GPa)
#
#
# Indices 1 2 3 4 5 6 
#
# 1 0.013576 -0.003467 -0.001221 0.000000 0.000642 0.000000
# 2 -0.003467 0.013211 -0.002427 0.000000 0.004209 0.000000
# 3 -0.001221 -0.002427 0.011497 0.000000 0.002826 0.000000
# 4 0.000000 0.000000 0.000000 0.101156 0.000000 -0.046114
# 5 0.000642 0.004209 0.002826 0.000000 0.044606 0.000000
# 6 0.000000 0.000000 0.000000 -0.046114 0.000000 0.144437
#
#
# Mechanical properties :
#
#
# Convention : Reuss Voigt Hill
#
# Bulk Modulus (GPa) = 41.57081 44.28012 42.92547
# Shear Modulus (GPa) = 14.25599 22.24331 18.24965
#
# Velocity S-wave (km/s) = 2.77650 3.46816 3.14142
# Velocity P-wave (km/s) = 5.72347 6.32314 6.03077
#
# Compressibility (1/GPa) = 0.02405534
#
# Stress axis : x y z
#
# Youngs Moduli (GPa) = 73.65722 75.69475 86.98293
#
# Poissons Ratio (x) = 0.26244 0.10616
# Poissons Ratio (y) = 0.25538 0.21108
# Poissons Ratio (z) = 0.08990 0.18368
#
# Static dielectric constant tensor:
#      x y z
#    x 1.657250 0.000000 0.000150 
#    y 0.000000 1.637410 0.000000 
#    z 0.000150 0.000000 1.713820 
# 
# From -- ./inp_files/44551.got.cif
#   From: 2010.05.17/outbox.cif.g08.bks.cpg/sg15_23_cif.got.tgz:44551.got - 2010.06.03 18:47:42.
