data_PCOD9271871
_publ_section_title
;
Structure prediction by ZEFSAII (Michael W. Deem and Ramdas Pophale) SiO2 
 PCOD9271871
Probable space group: C 2/C
;
_chemical_formula_sum "Si O2"
_cell_formula_units_Z 56
_cell_length_a 11.770639
_cell_length_b 34.581963
_cell_length_c 7.759094
_cell_angle_alpha 90.000000
_cell_angle_beta 59.135473
_cell_angle_gamma 90.000000
_cell_volume 2711.075699
_symmetry_space_group_name_H-M "C 2/C"
_symmetry_group_IT_number 15
_symmetry_cell_setting 'monoclinic'
loop_
_space_group_symop_operation_xyz
x,y,z
-x,y,1/2-z
-x,-y,-z
x,-y,1/2+z
1/2+x,1/2+y,z
1/2-x,1/2+y,1/2-z
1/2-x,1/2-y,-z
1/2+x,1/2-y,1/2+z
loop_
_atom_site_type_symbol
_atom_site_label
_atom_site_fract_x
_atom_site_fract_y
_atom_site_fract_z
Si Si1 0.055385 0.831860 0.400586
Si Si2 0.697260 0.374110 0.793355
Si Si3 0.891863 0.750577 0.983733
Si Si4 0.705165 0.117904 0.885019
Si Si5 0.046739 0.666584 0.518534
Si Si6 0.385656 0.456153 0.603900
Si Si7 0.825336 0.960691 0.243661
O O1 0.097332 0.788597 0.410154
O O2 0.182549 0.859359 0.309289
O O3 0.000000 0.833656 0.250000
O O4 0.934187 0.848128 0.607134
O O5 0.814898 0.355154 0.598441
O O6 0.663728 0.417566 0.768089
O O7 0.748901 0.378148 0.951516
O O8 0.924957 0.710870 0.060455
O O9 0.000000 0.754665 0.750000
O O10 0.750000 0.750000 0.000000
O O11 0.566402 0.140411 0.980775
O O12 0.716126 0.073280 0.810347
O O13 0.000000 0.670434 0.750000
O O14 0.362909 0.455237 0.415322
O O15 0.546392 0.455949 0.481961
O O16 0.306877 0.493371 0.734939
#
# Coordination Sequence:
#
# PCOD9271871 Si02
#       7
#     8   8   8   8   8   8   8
#     4  10  20  36  62  88 110 143 196 242 279 337
#     4  10  20  37  59  84 113 149 190 236 282 336
#     4  11  23  41  58  80 117 155 187 237 297 345
#     4  10  20  37  58  84 116 149 183 237 289 332
#     4  11  24  39  55  79 114 152 191 231 283 347
#     4   9  17  32  55  84 114 145 182 230 281 333
#     4   9  17  32  55  83 116 144 180 229 284 332
#
# _framework density 20.656008
#
# number of rings (size 3 to 8) (size 9 to 14) (size 15 to 20)
#    0.000    2.000    1.429    3.000    0.000    2.286 
#    0.000    4.286    0.000    0.000    0.000    0.000 
#    0.000    0.000    0.000    0.000    0.000    0.000 
#
# Total GULP energy -156194.990532 kJ/mol
# GULP energy per Si atom -5578.392519 kJ/mol
# Density = 2.060899 g / cm^3
# Si number density = 20.656008 Si / 1000 Ang^3
#
#
#
# Elastic Constant Matrix: (Units=GPa)
#
#
# Indices 1 2 3 4 5 6 
#
# 1 71.0703 37.8198 17.8112 0.0000 -17.1218 0.0000
# 2 37.8198 180.1548 26.8251 0.0000 -18.5193 0.0000
# 3 17.8112 26.8251 55.6845 0.0000 -25.9814 0.0000
# 4 0.0000 0.0000 0.0000 22.7764 0.0000 6.4095
# 5 -17.1218 -18.5193 -25.9814 0.0000 30.7864 0.0000
# 6 0.0000 0.0000 0.0000 6.4095 0.0000 17.5452
#
#
#
# Elastic Compliance Matrix: (Units=1/GPa)
#
#
# Indices 1 2 3 4 5 6 
#
# 1 0.017545 -0.002803 -0.000818 0.000000 0.007382 0.000000
# 2 -0.002803 0.006497 -0.001876 0.000000 0.000767 0.000000
# 3 -0.000818 -0.001876 0.030326 0.000000 0.024010 0.000000
# 4 0.000000 0.000000 0.000000 0.048936 0.000000 -0.017877
# 5 0.007382 0.000767 0.024010 0.000000 0.057311 0.000000
# 6 0.000000 0.000000 0.000000 -0.017877 0.000000 0.063526
#
#
# Mechanical properties :
#
#
# Convention : Reuss Voigt Hill
#
# Bulk Modulus (GPa) = 23.05411 52.42465 37.73938
# Shear Modulus (GPa) = 20.03267 29.18518 24.60892
#
# Velocity S-wave (km/s) = 3.11758 3.76295 3.45537
# Velocity P-wave (km/s) = 4.91368 6.65693 5.85060
#
# Compressibility (1/GPa) = 0.04337621
#
# Stress axis : x y z
#
# Youngs Moduli (GPa) = 56.99522 153.91096 32.97510
#
# Poissons Ratio (x) = 0.43137 0.02696
# Poissons Ratio (y) = 0.15974 0.06185
# Poissons Ratio (z) = 0.04660 0.28870
#
# Static dielectric constant tensor:
#      x y z
#    x 1.751790 0.000000 0.028760 
#    y 0.000000 1.787420 0.000000 
#    z 0.028760 0.000000 1.724120 
# 
# From -- ./inp_files/35558.got.cif
#   From: 2010.05.17/outbox.cif.g08.bks.cpg/sg15_18_cif.got.tgz:35558.got - 2010.06.03 18:47:42.
