data_PCOD9271271
_publ_section_title
;
Structure prediction by ZEFSAII (Michael W. Deem and Ramdas Pophale) SiO2 
 PCOD9271271
Probable space group: C 2/C
;
_chemical_formula_sum "Si O2"
_cell_formula_units_Z 48
_cell_length_a 22.463555
_cell_length_b 14.957430
_cell_length_c 9.992579
_cell_angle_alpha 90.000000
_cell_angle_beta 34.505583
_cell_angle_gamma 90.000000
_cell_volume 1901.965569
_symmetry_space_group_name_H-M "C 2/C"
_symmetry_group_IT_number 15
_symmetry_cell_setting 'monoclinic'
loop_
_space_group_symop_operation_xyz
x,y,z
-x,y,1/2-z
-x,-y,-z
x,-y,1/2+z
1/2+x,1/2+y,z
1/2-x,1/2+y,1/2-z
1/2-x,1/2-y,-z
1/2+x,1/2-y,1/2+z
loop_
_atom_site_type_symbol
_atom_site_label
_atom_site_fract_x
_atom_site_fract_y
_atom_site_fract_z
Si Si1 0.856555 0.715118 0.509471
Si Si2 0.642921 0.039822 0.104980
Si Si3 0.303367 0.842270 0.749241
Si Si4 0.500000 0.370030 0.750000
Si Si5 0.027525 0.812359 0.998479
Si Si6 0.000000 0.404605 0.250000
Si Si7 0.353830 0.471760 0.604459
O O1 0.870464 0.609289 0.493500
O O2 0.742666 0.743456 0.666554
O O3 0.874307 0.756393 0.623932
O O4 0.935334 0.764956 0.257095
O O5 0.647430 0.110381 0.214665
O O6 0.548892 0.970221 0.272129
O O7 0.757537 0.995359 0.881831
O O8 0.398699 0.847967 0.471293
O O9 0.206453 0.906741 0.887479
O O10 0.512638 0.317457 0.867413
O O11 0.598046 0.438432 0.545992
O O12 0.053651 0.913324 0.999180
#
# Coordination Sequence:
#
# PCOD9271271 Si02
#       7
#     8   8   8   4   8   4   8
#     4  10  21  40  62  87 123 165 202 242 300 372
#     4  11  21  39  62  85 115 165 208 242 297 372
#     4  10  20  36  58  86 119 159 203 248 301 361
#     4  12  20  34  60  94 124 158 202 254 304 354
#     4  10  21  38  62  93 126 161 201 251 305 364
#     4  10  22  36  58  86 116 152 204 260 298 344
#     4  10  21  36  61  94 123 156 203 256 304 360
#
# _framework density 25.23705
#
# number of rings (size 3 to 8) (size 9 to 14) (size 15 to 20)
#    0.000    1.667    0.000    6.500    0.000    0.000 
#    0.000    4.167    0.000    4.000    0.000    0.000 
#    0.000    0.000    0.000    0.000    0.000    0.000 
#
# Total GULP energy -134068.916368 kJ/mol
# GULP energy per Si atom -5586.204849 kJ/mol
# Density = 2.517961 g / cm^3
# Si number density = 25.237050 Si / 1000 Ang^3
#
#
#
# Elastic Constant Matrix: (Units=GPa)
#
#
# Indices 1 2 3 4 5 6 
#
# 1 113.2583 20.0969 24.5571 0.0000 7.5039 0.0000
# 2 20.0969 70.8269 20.6926 0.0000 -5.9268 0.0000
# 3 24.5571 20.6926 85.2174 0.0000 -25.1572 0.0000
# 4 0.0000 0.0000 0.0000 21.7392 0.0000 -17.0007
# 5 7.5039 -5.9268 -25.1572 0.0000 35.7579 0.0000
# 6 0.0000 0.0000 0.0000 -17.0007 0.0000 29.3102
#
#
#
# Elastic Compliance Matrix: (Units=1/GPa)
#
#
# Indices 1 2 3 4 5 6 
#
# 1 0.010471 -0.002234 -0.004080 0.000000 -0.005438 0.000000
# 2 -0.002234 0.015674 -0.002848 0.000000 0.001063 0.000000
# 3 -0.004080 -0.002848 0.017311 0.000000 0.012563 0.000000
# 4 0.000000 0.000000 0.000000 0.084187 0.000000 0.048831
# 5 -0.005438 0.001063 0.012563 0.000000 0.038122 0.000000
# 6 0.000000 0.000000 0.000000 0.048831 0.000000 0.062441
#
#
# Mechanical properties :
#
#
# Convention : Reuss Voigt Hill
#
# Bulk Modulus (GPa) = 39.79299 44.44398 42.11849
# Shear Modulus (GPa) = 19.61496 30.95855 25.28676
#
# Velocity S-wave (km/s) = 2.79091 3.50624 3.16882
# Velocity P-wave (km/s) = 5.11737 5.83442 5.48762
#
# Compressibility (1/GPa) = 0.02513005
#
# Stress axis : x y z
#
# Youngs Moduli (GPa) = 95.50348 63.80016 57.76681
#
# Poissons Ratio (x) = 0.14253 0.23571
# Poissons Ratio (y) = 0.21336 0.16455
# Poissons Ratio (z) = 0.38969 0.18173
#
# Static dielectric constant tensor:
#      x y z
#    x 2.119460 0.000000 0.036480 
#    y 0.000000 2.015400 0.000000 
#    z 0.036480 0.000000 2.006070 
# 
# From -- ./inp_files/123460.got.cif
#   From: 2010.05.17/outbox.cif.g08.bks.cpg/sg15_62_cif.got.tgz:123460.got - 2010.06.03 18:47:42.
