data_PCOD9271432
_publ_section_title
;
Structure prediction by ZEFSAII (Michael W. Deem and Ramdas Pophale) SiO2 
 PCOD9271432
Probable space group: C 2/C
;
_chemical_formula_sum "Si O2"
_cell_formula_units_Z 64
_cell_length_a 13.506640
_cell_length_b 24.179713
_cell_length_c 18.124545
_cell_angle_alpha 90.000000
_cell_angle_beta 154.900856
_cell_angle_gamma 90.000000
_cell_volume 2510.855969
_symmetry_space_group_name_H-M "C 2/C"
_symmetry_group_IT_number 15
_symmetry_cell_setting 'monoclinic'
loop_
_space_group_symop_operation_xyz
x,y,z
-x,y,1/2-z
-x,-y,-z
x,-y,1/2+z
1/2+x,1/2+y,z
1/2-x,1/2+y,1/2-z
1/2-x,1/2-y,-z
1/2+x,1/2-y,1/2+z
loop_
_atom_site_type_symbol
_atom_site_label
_atom_site_fract_x
_atom_site_fract_y
_atom_site_fract_z
Si Si1 0.306398 0.138935 0.434825
Si Si2 0.803194 0.855097 0.335093
Si Si3 0.070557 0.317938 0.712070
Si Si4 0.746089 0.116743 0.950493
Si Si5 0.632139 0.008749 0.412207
Si Si6 0.015512 0.743517 0.038247
Si Si7 0.433727 0.926101 0.892866
Si Si8 0.452551 0.595145 0.793287
O O1 0.550514 0.122471 0.641079
O O2 0.161796 0.147257 0.413692
O O3 0.381399 0.192830 0.439347
O O4 0.262400 0.090482 0.344473
O O5 0.889580 0.878646 0.471388
O O6 0.970510 0.871211 0.380413
O O7 0.782635 0.789251 0.321213
O O8 0.309823 0.282577 0.869382
O O9 0.000000 0.321450 0.750000
O O10 0.924871 0.281738 0.554261
O O11 0.077166 0.377873 0.676878
O O12 0.500000 0.139710 0.750000
O O13 0.712735 0.053248 0.950456
O O14 0.500000 0.028063 0.250000
O O15 0.450078 0.017641 0.356976
O O16 0.861295 0.045839 0.579392
O O17 0.688321 0.924121 0.103115
O O18 0.500000 0.628781 0.750000
#
# Coordination Sequence:
#
# PCOD9271432 Si02
#       8
#     8   8   8   8   8   8   8   8
#     4   9  19  40  57  84 118 158 199 247 301 354
#     4  10  20  36  59  87 115 161 199 248 295 356
#     4  11  23  37  58  94 124 163 197 241 297 366
#     4   9  20  38  63  84 116 154 209 253 297 353
#     4  10  20  36  60  94 114 155 199 246 302 360
#     4  11  22  37  60  87 125 158 202 247 298 355
#     4   9  20  36  60  84 123 159 190 240 303 362
#     4   9  20  36  59  85 124 157 189 240 302 362
#
# _framework density 25.489317
#
# number of rings (size 3 to 8) (size 9 to 14) (size 15 to 20)
#    0.000    2.250    1.250    0.750    5.250    2.000 
#    0.000    1.250   16.500    0.000    0.000    0.000 
#    0.000    0.000    0.000    0.000    0.000    0.000 
#
# Total GULP energy -178500.198344 kJ/mol
# GULP energy per Si atom -5578.131198 kJ/mol
# Density = 2.543130 g / cm^3
# Si number density = 25.489317 Si / 1000 Ang^3
#
#
#
# Elastic Constant Matrix: (Units=GPa)
#
#
# Indices 1 2 3 4 5 6 
#
# 1 170.3923 60.4169 16.8227 0.0029 -66.6354 0.0069
# 2 60.4169 111.5713 23.2766 -0.0016 -30.2922 0.0013
# 3 16.8227 23.2766 67.6421 0.0049 -22.3032 0.0161
# 4 0.0029 -0.0016 0.0049 18.9000 -0.0025 -4.8574
# 5 -66.6354 -30.2922 -22.3032 -0.0025 61.9791 0.0046
# 6 0.0069 0.0013 0.0161 -4.8574 0.0046 37.8605
#
#
#
# Elastic Compliance Matrix: (Units=1/GPa)
#
#
# Indices 1 2 3 4 5 6 
#
# 1 0.011267 -0.003509 0.002081 -0.000002 0.011147 -0.000004
# 2 -0.003509 0.011709 -0.002852 0.000003 0.000924 0.000002
# 3 0.002081 -0.002852 0.017616 -0.000007 0.007182 -0.000009
# 4 -0.000002 0.000003 -0.000007 0.054714 -0.000002 0.007020
# 5 0.011147 0.000924 0.007182 -0.000002 0.031155 -0.000009
# 6 -0.000004 0.000002 -0.000009 0.007020 -0.000009 0.027313
#
#
# Mechanical properties :
#
#
# Convention : Reuss Voigt Hill
#
# Bulk Modulus (GPa) = 31.21897 61.18200 46.20049
# Shear Modulus (GPa) = 28.90000 40.35391 34.62695
#
# Velocity S-wave (km/s) = 3.37086 3.98322 3.68977
# Velocity P-wave (km/s) = 5.23686 6.72383 6.02638
#
# Compressibility (1/GPa) = 0.03203181
#
# Stress axis : x y z
#
# Youngs Moduli (GPa) = 88.75670 85.40651 56.76752
#
# Poissons Ratio (x) = 0.29966 -0.11812
# Poissons Ratio (y) = 0.31142 0.16189
# Poissons Ratio (z) = -0.18468 0.24356
#
# Static dielectric constant tensor:
#      x y z
#    x 2.323050 0.000000 0.045470 
#    y 0.000000 1.933030 -0.000010 
#    z 0.045470 -0.000010 2.131760 
# 
# From -- ./inp_files/207359.got.cif
#   From: 2010.05.17/outbox.cif.g08.bks.cpg/sg15_104_cif.got.tgz:207359.got - 2010.06.03 18:47:42.
