data_PCOD9271931
_publ_section_title
;
Structure prediction by ZEFSAII (Michael W. Deem and Ramdas Pophale) SiO2 
 PCOD9271931
Probable space group: C 2/C
;
_chemical_formula_sum "Si O2"
_cell_formula_units_Z 64
_cell_length_a 12.620488
_cell_length_b 15.540629
_cell_length_c 30.099451
_cell_angle_alpha 90.000000
_cell_angle_beta 37.388534
_cell_angle_gamma 90.000000
_cell_volume 3584.653066
_symmetry_space_group_name_H-M "C 2/C"
_symmetry_group_IT_number 15
_symmetry_cell_setting 'monoclinic'
loop_
_space_group_symop_operation_xyz
x,y,z
-x,y,1/2-z
-x,-y,-z
x,-y,1/2+z
1/2+x,1/2+y,z
1/2-x,1/2+y,1/2-z
1/2-x,1/2-y,-z
1/2+x,1/2-y,1/2+z
loop_
_atom_site_type_symbol
_atom_site_label
_atom_site_fract_x
_atom_site_fract_y
_atom_site_fract_z
Si Si1 0.734662 0.513196 0.073028
Si Si2 0.950214 0.579410 0.081092
Si Si3 0.453672 0.273517 0.440316
Si Si4 0.227270 0.650891 0.514828
Si Si5 0.467125 0.600817 0.020669
Si Si6 0.546417 0.053013 0.841359
Si Si7 0.166421 0.526087 0.167543
Si Si8 0.622517 0.580045 0.827935
O O1 0.800976 0.538412 0.099657
O O2 0.542708 0.474415 0.133860
O O3 0.748540 0.597982 0.038272
O O4 0.870090 0.447470 0.004048
O O5 0.942910 0.532039 0.131163
O O6 0.949246 0.682387 0.084973
O O7 0.250000 0.250000 0.500000
O O8 0.462826 0.336973 0.479853
O O9 0.546007 0.329161 0.370698
O O10 0.250000 0.750000 0.500000
O O11 0.378765 0.624808 0.497990
O O12 0.043732 0.624066 0.597650
O O13 0.282396 0.600272 0.107313
O O14 0.500000 0.500000 0.000000
O O15 0.728327 0.082037 0.759321
O O16 0.414973 0.031820 0.844619
O O17 0.286261 0.469538 0.160797
O O18 0.000000 0.559369 0.250000
#
# Coordination Sequence:
#
# PCOD9271931 Si02
#       8
#     8   8   8   8   8   8   8   8
#     4  10  20  39  62  85 119 169 205 243 308 377
#     4  10  22  39  61  88 123 163 208 252 303 372
#     4  12  22  36  63  98 122 156 216 265 296 369
#     4  11  21  37  60  91 119 155 209 256 298 362
#     4  12  20  37  65  88 119 164 205 247 309 365
#     4  10  22  40  61  85 127 166 200 253 322 369
#     4  10  20  36  62  92 118 156 204 252 302 365
#     4  11  21  39  63  90 122 162 204 255 318 364
#
# _framework density 17.853888999999999
#
# number of rings (size 3 to 8) (size 9 to 14) (size 15 to 20)
#    0.000    1.250    5.000    1.500    0.000    0.500 
#    2.250    1.250    2.750    0.000    0.000    0.000 
#    0.000    0.000    0.000    0.000    0.000    0.000 
#
# Total GULP energy -178602.183160 kJ/mol
# GULP energy per Si atom -5581.318224 kJ/mol
# Density = 1.781325 g / cm^3
# Si number density = 17.853889 Si / 1000 Ang^3
#
#
#
# Elastic Constant Matrix: (Units=GPa)
#
#
# Indices 1 2 3 4 5 6 
#
# 1 86.7115 23.3760 17.5826 0.0000 -16.1654 0.0000
# 2 23.3760 122.7316 43.5935 0.0001 -1.9672 0.0000
# 3 17.5826 43.5935 116.7723 0.0004 -15.2513 -0.0001
# 4 0.0000 0.0001 0.0004 17.3586 0.0000 -0.4097
# 5 -16.1654 -1.9672 -15.2513 0.0000 24.1690 0.0000
# 6 0.0000 0.0000 -0.0001 -0.4097 0.0000 23.7614
#
#
#
# Elastic Compliance Matrix: (Units=1/GPa)
#
#
# Indices 1 2 3 4 5 6 
#
# 1 0.013903 -0.002515 0.000036 0.000000 0.009117 0.000000
# 2 -0.002515 0.009904 -0.003741 0.000000 -0.003237 0.000000
# 3 0.000036 -0.003741 0.010809 0.000000 0.006541 0.000000
# 4 0.000000 0.000000 0.000000 0.057632 0.000000 0.000994
# 5 0.009117 -0.003237 0.006541 0.000000 0.051337 0.000000
# 6 0.000000 0.000000 0.000000 0.000994 0.000000 0.042102
#
#
# Mechanical properties :
#
#
# Convention : Reuss Voigt Hill
#
# Bulk Modulus (GPa) = 45.09392 55.03553 50.06472
# Shear Modulus (GPa) = 24.32869 29.16869 26.74869
#
# Velocity S-wave (km/s) = 3.69542 4.04635 3.87486
# Velocity P-wave (km/s) = 6.59698 7.26106 6.93697
#
# Compressibility (1/GPa) = 0.02217594
#
# Stress axis : x y z
#
# Youngs Moduli (GPa) = 71.92830 100.97059 92.51354
#
# Poissons Ratio (x) = 0.25391 -0.00335
# Poissons Ratio (y) = 0.18088 0.34613
# Poissons Ratio (z) = -0.00260 0.37777
#
# Static dielectric constant tensor:
#      x y z
#    x 1.617130 0.000000 0.002820 
#    y 0.000000 1.589830 0.000000 
#    z 0.002820 0.000000 1.638130 
# 
# From -- ./inp_files/311183.got.cif
#   From: 2010.05.17/outbox.cif.g08.bks.cpg/sg15_156_cif.got.tgz:311183.got - 2010.06.03 18:47:42.
