data_PCOD9271486
_publ_section_title
;
Structure prediction by ZEFSAII (Michael W. Deem and Ramdas Pophale) SiO2 
 PCOD9271486
Probable space group: C 2/C
;
_chemical_formula_sum "Si O2"
_cell_formula_units_Z 56
_cell_length_a 21.740136
_cell_length_b 8.836289
_cell_length_c 30.852353
_cell_angle_alpha 90.000000
_cell_angle_beta 152.663241
_cell_angle_gamma 90.000000
_cell_volume 2721.703701
_symmetry_space_group_name_H-M "C 2/C"
_symmetry_group_IT_number 15
_symmetry_cell_setting 'monoclinic'
loop_
_space_group_symop_operation_xyz
x,y,z
-x,y,1/2-z
-x,-y,-z
x,-y,1/2+z
1/2+x,1/2+y,z
1/2-x,1/2+y,1/2-z
1/2-x,1/2-y,-z
1/2+x,1/2-y,1/2+z
loop_
_atom_site_type_symbol
_atom_site_label
_atom_site_fract_x
_atom_site_fract_y
_atom_site_fract_z
Si Si1 0.357616 0.423693 0.986456
Si Si2 0.720848 0.927583 0.484220
Si Si3 0.909637 0.515409 0.296917
Si Si4 0.189112 0.177537 0.606986
Si Si5 0.027433 0.353318 0.578087
Si Si6 0.118135 0.755853 0.290417
Si Si7 0.246954 0.530536 0.097857
O O1 0.293099 0.490694 0.989470
O O2 0.391563 0.557902 0.973540
O O3 0.245039 0.327345 0.891084
O O4 0.471458 0.299899 0.065843
O O5 0.750000 0.750000 0.500000
O O6 0.560011 0.951608 0.384354
O O7 0.772792 0.990749 0.562871
O O8 0.798580 0.409725 0.204779
O O9 0.888107 0.550786 0.334156
O O10 0.907420 0.674303 0.270369
O O11 0.102349 0.285133 0.583719
O O12 0.256412 0.294310 0.615632
O O13 0.901665 0.461013 0.487716
O O14 0.000000 0.728649 0.250000
O O15 0.152357 0.932034 0.310618
#
# Coordination Sequence:
#
# PCOD9271486 Si02
#       7
#     8   8   8   8   8   8   8
#     4  10  21  39  67  88 119 161 198 249 303 365
#     4  11  21  40  62  94 122 152 205 251 308 358
#     4  10  24  40  61  89 124 163 192 259 308 347
#     4  11  22  43  61  90 124 160 203 247 304 353
#     4  10  23  42  63  88 120 164 211 243 292 367
#     4  10  20  36  59  90 124 152 194 247 308 363
#     4  10  23  37  63  92 118 163 200 252 300 358
#
# _framework density 20.575347000000001
#
# number of rings (size 3 to 8) (size 9 to 14) (size 15 to 20)
#    0.000    1.714    2.857    0.857    2.000    4.000 
#    2.571    2.857    0.000    0.000    0.000    0.000 
#    0.000    0.000    0.000    0.000    0.000    0.000 
#
# Total GULP energy -156275.533478 kJ/mol
# GULP energy per Si atom -5581.269053 kJ/mol
# Density = 2.052852 g / cm^3
# Si number density = 20.575347 Si / 1000 Ang^3
#
#
#
# Elastic Constant Matrix: (Units=GPa)
#
#
# Indices 1 2 3 4 5 6 
#
# 1 83.7893 14.7646 18.7553 0.0001 -11.6035 0.0000
# 2 14.7646 95.0068 24.1268 0.0001 -19.2283 0.0001
# 3 18.7553 24.1268 46.5994 0.0007 -18.3074 0.0007
# 4 0.0001 0.0001 0.0007 20.3547 0.0000 1.7424
# 5 -11.6035 -19.2283 -18.3074 0.0000 10.1538 -0.0001
# 6 0.0000 0.0001 0.0007 1.7424 -0.0001 34.3566
#
#
#
# Elastic Compliance Matrix: (Units=1/GPa)
#
#
# Indices 1 2 3 4 5 6 
#
# 1 0.014574 0.002570 0.004316 0.000000 0.029301 0.000000
# 2 0.002570 0.020288 0.016146 -0.000001 0.070467 0.000000
# 3 0.004316 0.016146 0.086789 -0.000003 0.191990 -0.000001
# 4 0.000000 -0.000001 -0.000003 0.049343 -0.000008 -0.002502
# 5 0.029301 0.070467 0.191990 -0.000008 0.611574 -0.000003
# 6 0.000000 0.000000 -0.000001 -0.002502 -0.000003 0.029233
#
#
# Mechanical properties :
#
#
# Convention : Reuss Voigt Hill
#
# Bulk Modulus (GPa) = 5.96258 37.85432 21.90845
# Shear Modulus (GPa) = 6.08537 24.15629 15.12083
#
# Velocity S-wave (km/s) = 1.72163 3.43014 2.71385
# Velocity P-wave (km/s) = 2.61844 5.84172 4.52670
#
# Compressibility (1/GPa) = 0.16771276
#
# Stress axis : x y z
#
# Youngs Moduli (GPa) = 68.61678 49.29096 11.52215
#
# Poissons Ratio (x) = -0.12665 -0.04972
# Poissons Ratio (y) = -0.17631 -0.18604
# Poissons Ratio (z) = -0.29612 -0.79585
#
# Static dielectric constant tensor:
#      x y z
#    x 5.746760 -0.000020 -4.103910 
#    y -0.000020 1.747680 0.000020 
#    z -4.103910 0.000020 5.964850 
# 
# From -- ./inp_files/317555.got.cif
#   From: 2010.05.17/outbox.cif.g08.bks.cpg/sg15_159_cif.got.tgz:317555.got - 2010.06.03 18:47:42.
