data_PCOD9271849
_publ_section_title
;
Structure prediction by ZEFSAII (Michael W. Deem and Ramdas Pophale) SiO2 
 PCOD9271849
Probable space group: C 2/C
;
_chemical_formula_sum "Si O2"
_cell_formula_units_Z 52
_cell_length_a 16.372469
_cell_length_b 8.998698
_cell_length_c 19.884057
_cell_angle_alpha 90.000000
_cell_angle_beta 124.325131
_cell_angle_gamma 90.000000
_cell_volume 2419.360436
_symmetry_space_group_name_H-M "C 2/C"
_symmetry_group_IT_number 15
_symmetry_cell_setting 'monoclinic'
loop_
_space_group_symop_operation_xyz
x,y,z
-x,y,1/2-z
-x,-y,-z
x,-y,1/2+z
1/2+x,1/2+y,z
1/2-x,1/2+y,1/2-z
1/2-x,1/2-y,-z
1/2+x,1/2-y,1/2+z
loop_
_atom_site_type_symbol
_atom_site_label
_atom_site_fract_x
_atom_site_fract_y
_atom_site_fract_z
Si Si1 0.793762 0.560984 0.712064
Si Si2 0.624608 0.896491 0.109067
Si Si3 0.051654 0.208646 0.407496
Si Si4 0.000000 0.629404 0.750000
Si Si5 0.157493 0.947193 0.420686
Si Si6 0.197072 0.673087 0.083536
Si Si7 0.252209 0.186024 0.093788
O O1 0.796802 0.584105 0.793157
O O2 0.740391 0.701220 0.652551
O O3 0.749926 0.411874 0.659821
O O4 0.908293 0.547330 0.741451
O O5 0.538401 0.792566 0.097884
O O6 0.667044 0.807336 0.065500
O O7 0.614132 0.066653 0.079842
O O8 0.146733 0.252677 0.495467
O O9 0.048395 0.275325 0.331642
O O10 0.059002 0.030585 0.400916
O O11 0.225142 0.914038 0.517501
O O12 0.153220 0.789096 0.380167
O O13 0.215029 0.064567 0.400138
#
# Coordination Sequence:
#
# PCOD9271849 Si02
#       7
#     8   8   8   4   8   8   8
#     4  11  20  39  62  84 123 159 205 254 313 364
#     4  10  24  36  59  90 128 156 204 255 309 366
#     4  11  20  38  60  91 118 160 201 259 299 369
#     4  10  22  34  62  92 114 148 210 260 300 356
#     4  10  20  36  62  85 114 156 209 252 303 368
#     4  11  20  38  65  86 113 168 209 242 309 382
#     4  10  21  38  58  88 120 159 202 255 308 374
#
# _framework density 21.493283000000002
#
# number of rings (size 3 to 8) (size 9 to 14) (size 15 to 20)
#    0.000    1.538    3.077    2.769    0.000    0.615 
#    0.000    0.769    0.000    0.000    0.000    0.000 
#    0.000    0.000    0.000    0.000    0.000    0.000 
#
# Total GULP energy -144858.896056 kJ/mol
# GULP energy per Si atom -5571.496002 kJ/mol
# Density = 2.144436 g / cm^3
# Si number density = 21.493283 Si / 1000 Ang^3
#
#
#
# Elastic Constant Matrix: (Units=GPa)
#
#
# Indices 1 2 3 4 5 6 
#
# 1 54.2910 16.3464 -10.1144 0.0000 -10.6073 0.0000
# 2 16.3464 107.3624 8.3304 0.0000 -6.7412 0.0000
# 3 -10.1144 8.3304 66.5103 0.0000 -25.1578 0.0000
# 4 0.0000 0.0000 0.0000 27.5086 0.0000 -3.7111
# 5 -10.6073 -6.7412 -25.1578 0.0000 24.6159 0.0000
# 6 0.0000 0.0000 0.0000 -3.7111 0.0000 39.0867
#
#
#
# Elastic Compliance Matrix: (Units=1/GPa)
#
#
# Indices 1 2 3 4 5 6 
#
# 1 0.026990 -0.003629 0.013991 0.000000 0.024936 0.000000
# 2 -0.003629 0.009970 -0.002216 0.000000 -0.001099 0.000000
# 3 0.013991 -0.002216 0.031775 0.000000 0.037896 0.000000
# 4 0.000000 0.000000 0.000000 0.036824 0.000000 0.003496
# 5 0.024936 -0.001099 0.037896 0.000000 0.089799 0.000000
# 6 0.000000 0.000000 0.000000 0.003496 0.000000 0.025916
#
#
# Mechanical properties :
#
#
# Convention : Reuss Voigt Hill
#
# Bulk Modulus (GPa) = 11.76108 28.58761 20.17435
# Shear Modulus (GPa) = 21.42935 32.48234 26.95584
#
# Velocity S-wave (km/s) = 3.16100 3.89173 3.54524
# Velocity P-wave (km/s) = 4.33663 5.78997 5.11518
#
# Compressibility (1/GPa) = 0.08502621
#
# Stress axis : x y z
#
# Youngs Moduli (GPa) = 37.05023 100.30289 31.47137
#
# Poissons Ratio (x) = 0.36403 -0.44032
# Poissons Ratio (y) = 0.13447 0.06975
# Poissons Ratio (z) = -0.51837 0.22229
#
# Static dielectric constant tensor:
#      x y z
#    x 1.915850 0.000000 0.002800 
#    y 0.000000 1.824100 0.000000 
#    z 0.002800 0.000000 1.784910 
# 
# From -- ./inp_files/209019.got.cif
#   From: 2010.05.17/outbox.cif.g08.bks.cpg/sg15_105_cif.got.tgz:209019.got - 2010.06.03 18:47:42.
