data_PCOD9271659
_publ_section_title
;
Structure prediction by ZEFSAII (Michael W. Deem and Ramdas Pophale) SiO2 
 PCOD9271659
Probable space group: C 2/C
;
_chemical_formula_sum "Si O2"
_cell_formula_units_Z 48
_cell_length_a 21.758109
_cell_length_b 12.698995
_cell_length_c 13.769528
_cell_angle_alpha 90.000000
_cell_angle_beta 35.597868
_cell_angle_gamma 90.000000
_cell_volume 2214.632745
_symmetry_space_group_name_H-M "C 2/C"
_symmetry_group_IT_number 15
_symmetry_cell_setting 'monoclinic'
loop_
_space_group_symop_operation_xyz
x,y,z
-x,y,1/2-z
-x,-y,-z
x,-y,1/2+z
1/2+x,1/2+y,z
1/2-x,1/2+y,1/2-z
1/2-x,1/2-y,-z
1/2+x,1/2-y,1/2+z
loop_
_atom_site_type_symbol
_atom_site_label
_atom_site_fract_x
_atom_site_fract_y
_atom_site_fract_z
Si Si1 0.891085 0.449586 0.522695
Si Si2 0.786444 0.651430 0.562514
Si Si3 0.758439 0.644316 0.051386
Si Si4 0.130674 0.534069 0.751069
Si Si5 0.071754 0.207044 0.745462
Si Si6 0.125792 0.756224 0.871069
O O1 0.822692 0.544276 0.565674
O O2 0.858924 0.353566 0.495310
O O3 0.860197 0.447462 0.676069
O O4 0.013991 0.476543 0.356813
O O5 0.873422 0.689409 0.372256
O O6 0.672299 0.647642 0.660361
O O7 0.796606 0.737892 0.636370
O O8 0.780584 0.552282 0.944257
O O9 0.750000 0.750000 0.000000
O O10 0.662239 0.651474 0.251463
O O11 0.126131 0.646323 0.812743
O O12 0.000000 0.159371 0.750000
O O13 0.989147 0.228802 0.936399
#
# Coordination Sequence:
#
# PCOD9271659 Si02
#       6
#     8   8   8   8   8   8
#     4  10  20  36  60  91 120 156 203 262 307 360
#     4   9  19  35  58  89 120 154 209 263 301 359
#     4  10  21  38  56  86 129 162 201 245 309 379
#     4   9  20  36  58  91 120 157 199 254 315 357
#     4   9  18  35  57  86 118 162 207 245 307 364
#     4   9  19  34  56  85 121 162 201 246 306 377
#
# _framework density 21.674022000000001
#
# number of rings (size 3 to 8) (size 9 to 14) (size 15 to 20)
#    0.000    2.667    0.000    0.500    2.333    8.000 
#    6.000    0.833    0.000    4.000    0.000    0.000 
#    0.000    0.000    0.000    0.000    0.000    0.000 
#
# Total GULP energy -133783.511526 kJ/mol
# GULP energy per Si atom -5574.312980 kJ/mol
# Density = 2.162469 g / cm^3
# Si number density = 21.674022 Si / 1000 Ang^3
#
#
#
# Elastic Constant Matrix: (Units=GPa)
#
#
# Indices 1 2 3 4 5 6 
#
# 1 156.8904 44.0482 69.6903 0.0000 -13.3104 0.0000
# 2 44.0482 33.7005 33.2113 0.0000 -1.3703 0.0000
# 3 69.6903 33.2113 154.2535 0.0000 20.8732 0.0000
# 4 0.0000 0.0000 0.0000 24.8894 0.0000 9.0625
# 5 -13.3104 -1.3703 20.8732 0.0000 43.5196 0.0000
# 6 0.0000 0.0000 0.0000 9.0625 0.0000 40.8526
#
#
#
# Elastic Compliance Matrix: (Units=1/GPa)
#
#
# Indices 1 2 3 4 5 6 
#
# 1 0.011512 -0.011539 -0.003362 0.000000 0.004770 0.000000
# 2 -0.011539 0.050470 -0.005765 0.000000 0.000825 0.000000
# 3 -0.003362 -0.005765 0.010059 0.000000 -0.006035 0.000000
# 4 0.000000 0.000000 0.000000 0.043708 0.000000 -0.009696
# 5 0.004770 0.000825 -0.006035 0.000000 0.027357 0.000000
# 6 0.000000 0.000000 0.000000 -0.009696 0.000000 0.026629
#
#
# Mechanical properties :
#
#
# Convention : Reuss Voigt Hill
#
# Bulk Modulus (GPa) = 32.56312 70.97155 51.76733
# Shear Modulus (GPa) = 22.59338 35.04529 28.81934
#
# Velocity S-wave (km/s) = 3.23215 4.02546 3.65042
# Velocity P-wave (km/s) = 5.38384 7.37712 6.45785
#
# Compressibility (1/GPa) = 0.03070959
#
# Stress axis : x y z
#
# Youngs Moduli (GPa) = 86.86884 19.81370 99.40930
#
# Poissons Ratio (x) = 0.22864 0.33420
# Poissons Ratio (y) = 1.00240 0.57306
# Poissons Ratio (z) = 0.29204 0.11422
#
# Static dielectric constant tensor:
#      x y z
#    x 1.850090 0.000000 0.054410 
#    y 0.000000 1.881850 0.000000 
#    z 0.054410 0.000000 1.807530 
# 
# From -- ./inp_files/173608.got.cif
#   From: 2010.05.17/outbox.cif.g08.bks.cpg/sg15_87_cif.got.tgz:173608.got - 2010.06.03 18:47:42.
