data_PCOD9271988
_publ_section_title
;
Structure prediction by ZEFSAII (Michael W. Deem and Ramdas Pophale) SiO2 
 PCOD9271988
Probable space group: C 2/C
;
_chemical_formula_sum "Si O2"
_cell_formula_units_Z 32
_cell_length_a 5.084964
_cell_length_b 20.392400
_cell_length_c 17.317053
_cell_angle_alpha 90.000000
_cell_angle_beta 52.920139
_cell_angle_gamma 90.000000
_cell_volume 1432.590317
_symmetry_space_group_name_H-M "C 2/C"
_symmetry_group_IT_number 15
_symmetry_cell_setting 'monoclinic'
loop_
_space_group_symop_operation_xyz
x,y,z
-x,y,1/2-z
-x,-y,-z
x,-y,1/2+z
1/2+x,1/2+y,z
1/2-x,1/2+y,1/2-z
1/2-x,1/2-y,-z
1/2+x,1/2-y,1/2+z
loop_
_atom_site_type_symbol
_atom_site_label
_atom_site_fract_x
_atom_site_fract_y
_atom_site_fract_z
Si Si1 0.702281 0.999286 0.344084
Si Si2 0.781266 0.920859 0.487680
Si Si3 0.003747 0.362090 0.164632
Si Si4 0.054190 0.706484 0.972780
O O1 0.361007 0.038351 0.415550
O O2 0.000000 0.036825 0.250000
O O3 0.789524 0.970190 0.413324
O O4 0.651966 0.934003 0.302779
O O5 0.507232 0.864355 0.521046
O O6 0.124239 0.880924 0.429794
O O7 0.000000 0.331467 0.250000
O O8 0.815284 0.319199 0.133854
O O9 0.250000 0.750000 0.000000
O O10 0.750000 0.750000 0.000000
#
# Coordination Sequence:
#
# PCOD9271988 Si02
#       4
#     8   8   8   8
#     4  10  20  36  62  98 136 169 222 281 343 407
#     4  10  21  38  64  95 131 180 217 282 340 402
#     4  11  21  38  68  98 133 176 231 277 340 411
#     4  11  23  43  66  93 132 178 230 283 336 398
#
# _framework density 22.337160999999998
#
# number of rings (size 3 to 8) (size 9 to 14) (size 15 to 20)
#    0.000    1.500    5.000    0.750    0.000    0.000 
#    0.000    1.250    0.000    0.000    0.000    0.000 
#    0.000    0.000    0.000    0.000    0.000    0.000 
#
# Total GULP energy -89129.924109 kJ/mol
# GULP energy per Si atom -5570.620257 kJ/mol
# Density = 2.228632 g / cm^3
# Si number density = 22.337161 Si / 1000 Ang^3
#
#
#
# Elastic Constant Matrix: (Units=GPa)
#
#
# Indices 1 2 3 4 5 6 
#
# 1 130.2491 33.2796 38.5874 0.0000 11.0220 0.0000
# 2 33.2796 71.9252 39.1006 0.0000 8.0542 0.0000
# 3 38.5874 39.1006 111.9543 0.0000 -0.4008 0.0000
# 4 0.0000 0.0000 0.0000 11.2838 0.0000 3.5075
# 5 11.0220 8.0542 -0.4008 0.0000 48.2759 0.0000
# 6 0.0000 0.0000 0.0000 3.5075 0.0000 33.8927
#
#
#
# Elastic Compliance Matrix: (Units=1/GPa)
#
#
# Indices 1 2 3 4 5 6 
#
# 1 0.009197 -0.002896 -0.002164 0.000000 -0.001635 0.000000
# 2 -0.002896 0.018493 -0.005470 0.000000 -0.002470 0.000000
# 3 -0.002164 -0.005470 0.011594 0.000000 0.001503 0.000000
# 4 0.000000 0.000000 0.000000 0.091568 0.000000 -0.009476
# 5 -0.001635 -0.002470 0.001503 0.000000 0.021512 0.000000
# 6 0.000000 0.000000 0.000000 -0.009476 0.000000 0.030486
#
#
# Mechanical properties :
#
#
# Convention : Reuss Voigt Hill
#
# Bulk Modulus (GPa) = 54.87108 59.56262 57.21685
# Shear Modulus (GPa) = 23.81134 32.23456 28.02295
#
# Velocity S-wave (km/s) = 3.26850 3.80293 3.54580
# Velocity P-wave (km/s) = 6.23397 6.78278 6.51416
#
# Compressibility (1/GPa) = 0.01822454
#
# Stress axis : x y z
#
# Youngs Moduli (GPa) = 108.73063 54.07413 86.25230
#
# Poissons Ratio (x) = 0.15658 0.18669
# Poissons Ratio (y) = 0.31485 0.47176
# Poissons Ratio (z) = 0.23534 0.29576
#
# Static dielectric constant tensor:
#      x y z
#    x 2.021870 0.000000 -0.047730 
#    y 0.000000 1.848970 0.000000 
#    z -0.047730 0.000000 1.978250 
# 
# From -- ./inp_files/72235.got.cif
#   From: 2010.05.17/outbox.cif.g08.bks.cpg/sg15_37_cif.got.tgz:72235.got - 2010.06.03 18:47:42.
