data_PCOD9271551
_publ_section_title
;
Structure prediction by ZEFSAII (Michael W. Deem and Ramdas Pophale) SiO2 
 PCOD9271551
Probable space group: C 2/C
;
_chemical_formula_sum "Si O2"
_cell_formula_units_Z 36
_cell_length_a 27.009967
_cell_length_b 17.487046
_cell_length_c 13.018066
_cell_angle_alpha 90.000000
_cell_angle_beta 18.137302
_cell_angle_gamma 90.000000
_cell_volume 1914.076915
_symmetry_space_group_name_H-M "C 2/C"
_symmetry_group_IT_number 15
_symmetry_cell_setting 'monoclinic'
loop_
_space_group_symop_operation_xyz
x,y,z
-x,y,1/2-z
-x,-y,-z
x,-y,1/2+z
1/2+x,1/2+y,z
1/2-x,1/2+y,1/2-z
1/2-x,1/2-y,-z
1/2+x,1/2-y,1/2+z
loop_
_atom_site_type_symbol
_atom_site_label
_atom_site_fract_x
_atom_site_fract_y
_atom_site_fract_z
Si Si1 0.303014 0.366412 0.254170
Si Si2 0.785242 0.796200 0.825729
Si Si3 0.500000 0.503741 0.250000
Si Si4 0.458048 0.578135 0.640564
Si Si5 0.000000 0.694311 0.250000
Si Si6 0.500000 0.763982 0.250000
O O1 0.123667 0.354954 0.572226
O O2 0.379943 0.439695 0.045488
O O3 0.333594 0.377148 0.314858
O O4 0.400532 0.292875 0.020772
O O5 0.883339 0.871488 0.661159
O O6 0.899542 0.746086 0.526790
O O7 0.750000 0.750000 0.000000
O O8 0.624815 0.808303 0.075805
O O9 0.591322 0.448924 0.149317
O O10 0.500000 0.500000 0.500000
#
# Coordination Sequence:
#
# PCOD9271551 Si02
#       6
#     8   8   4   8   4   4
#     4   9  18  37  58  84 114 162 199 250 305 360
#     4  11  21  39  62  93 120 158 206 254 304 361
#     4   9  19  36  60  78 121 161 206 246 303 377
#     4  10  20  36  60  85 115 163 200 239 312 373
#     4  10  23  36  62  90 121 152 208 256 304 359
#     4   9  18  36  60  84 122 153 198 256 301 350
#
# _framework density 18.808022000000001
#
# number of rings (size 3 to 8) (size 9 to 14) (size 15 to 20)
#    0.000    2.222    2.222    0.667    3.111    0.889 
#    4.000    5.556    0.000    0.000    0.000    0.000 
#    0.000    0.000    0.000    0.000    0.000    0.000 
#
# Total GULP energy -100371.229701 kJ/mol
# GULP energy per Si atom -5576.179428 kJ/mol
# Density = 1.876521 g / cm^3
# Si number density = 18.808022 Si / 1000 Ang^3
#
#
#
# Elastic Constant Matrix: (Units=GPa)
#
#
# Indices 1 2 3 4 5 6 
#
# 1 160.3186 52.5887 56.1136 0.0004 -33.4547 -0.0004
# 2 52.5887 77.9264 27.6522 -0.0006 -22.7978 0.0001
# 3 56.1136 27.6522 80.8157 -0.0010 -29.2434 0.0002
# 4 0.0004 -0.0006 -0.0010 4.1194 0.0001 -10.8719
# 5 -33.4547 -22.7978 -29.2434 0.0001 49.9891 0.0000
# 6 -0.0004 0.0001 0.0002 -10.8719 0.0000 33.5133
#
#
#
# Elastic Compliance Matrix: (Units=1/GPa)
#
#
# Indices 1 2 3 4 5 6 
#
# 1 0.009635 -0.004363 -0.004546 -0.000015 0.001799 -0.000005
# 2 -0.004363 0.017525 -0.001435 0.000014 0.004233 0.000005
# 3 -0.004546 -0.001435 0.018627 0.000028 0.007199 0.000009
# 4 -0.000015 0.000014 0.000028 1.687822 0.000009 0.547536
# 5 0.001799 0.004233 0.007199 0.000009 0.027350 0.000003
# 6 -0.000005 0.000005 0.000009 0.547536 0.000003 0.207462
#
#
# Mechanical properties :
#
#
# Convention : Reuss Voigt Hill
#
# Bulk Modulus (GPa) = 39.84466 65.75218 52.79842
# Shear Modulus (GPa) = 2.50316 29.70478 16.10397
#
# Velocity S-wave (km/s) = 1.15490 3.97844 2.92931
# Velocity P-wave (km/s) = 4.79680 7.49263 6.29082
#
# Compressibility (1/GPa) = 0.02509746
#
# Stress axis : x y z
#
# Youngs Moduli (GPa) = 103.78339 57.06293 53.68593
#
# Poissons Ratio (x) = 0.24896 0.24408
# Poissons Ratio (y) = 0.45279 0.07706
# Poissons Ratio (z) = 0.47185 0.08191
#
# Static dielectric constant tensor:
#      x y z
#    x 1.704610 0.000000 0.005320 
#    y 0.000000 1.643320 0.000000 
#    z 0.005320 0.000000 1.634020 
# 
# From -- ./inp_files/182090.got.cif
#   From: 2010.05.17/outbox.cif.g08.bks.cpg/sg15_92_cif.got.tgz:182090.got - 2010.06.03 18:47:42.
