data_PCOD9271528
_publ_section_title
;
Structure prediction by ZEFSAII (Michael W. Deem and Ramdas Pophale) SiO2 
 PCOD9271528
Probable space group: C 2/C
;
_chemical_formula_sum "Si O2"
_cell_formula_units_Z 48
_cell_length_a 15.849200
_cell_length_b 9.942069
_cell_length_c 14.152332
_cell_angle_alpha 90.000000
_cell_angle_beta 86.646895
_cell_angle_gamma 90.000000
_cell_volume 2226.219550
_symmetry_space_group_name_H-M "C 2/C"
_symmetry_group_IT_number 15
_symmetry_cell_setting 'monoclinic'
loop_
_space_group_symop_operation_xyz
x,y,z
-x,y,1/2-z
-x,-y,-z
x,-y,1/2+z
1/2+x,1/2+y,z
1/2-x,1/2+y,1/2-z
1/2-x,1/2-y,-z
1/2+x,1/2-y,1/2+z
loop_
_atom_site_type_symbol
_atom_site_label
_atom_site_fract_x
_atom_site_fract_y
_atom_site_fract_z
Si Si1 0.232875 0.469389 0.518359
Si Si2 0.261109 0.218911 0.662471
Si Si3 0.054077 0.525269 0.591238
Si Si4 0.089424 0.066290 0.496341
Si Si5 0.560682 0.258220 0.815487
Si Si6 0.081043 0.238844 0.686133
O O1 0.242043 0.348728 0.595682
O O2 0.221876 0.399801 0.415701
O O3 0.150506 0.553163 0.551539
O O4 0.327799 0.527680 0.511795
O O5 0.344358 0.220914 0.723128
O O6 0.173248 0.214081 0.726696
O O7 0.061695 0.391653 0.654913
O O8 0.000000 0.500000 0.500000
O O9 0.002279 0.638448 0.650127
O O10 0.085930 0.163361 0.407294
O O11 0.092796 0.155771 0.589379
O O12 0.000000 0.000000 0.500000
O O13 0.500000 0.341505 0.750000
O O14 0.000000 0.192631 0.750000
#
# Coordination Sequence:
#
# PCOD9271528 Si02
#       6
#     8   8   8   8   8   8
#     4   8  15  31  57  77 103 145 185 218 272 338
#     4   8  15  32  54  78 105 146 183 214 277 343
#     4  11  17  33  60  89 110 135 179 240 293 326
#     4  10  21  39  57  77 109 159 192 220 269 339
#     4  11  21  35  58  86 116 143 179 234 291 333
#     4  10  20  36  60  82 108 145 193 235 271 333
#
# _framework density 21.561216999999999
#
# number of rings (size 3 to 8) (size 9 to 14) (size 15 to 20)
#    0.000    2.333    3.333    2.500    0.000    0.667 
#    3.000    2.500    7.333    0.000    0.000    0.000 
#    0.000    0.000    0.000    0.000    0.000    0.000 
#
# Total GULP energy -133631.948442 kJ/mol
# GULP energy per Si atom -5567.997852 kJ/mol
# Density = 2.151214 g / cm^3
# Si number density = 21.561217 Si / 1000 Ang^3
#
#
#
# Elastic Constant Matrix: (Units=GPa)
#
#
# Indices 1 2 3 4 5 6 
#
# 1 263.1835 21.6912 42.7798 0.0000 0.8835 0.0000
# 2 21.6912 18.5380 -13.6047 0.0000 -0.8404 0.0000
# 3 42.7798 -13.6047 52.3278 0.0000 -1.1167 0.0000
# 4 0.0000 0.0000 0.0000 43.4995 0.0000 -11.0631
# 5 0.8835 -0.8404 -1.1167 0.0000 30.6842 0.0000
# 6 0.0000 0.0000 0.0000 -11.0631 0.0000 31.5227
#
#
#
# Elastic Compliance Matrix: (Units=1/GPa)
#
#
# Indices 1 2 3 4 5 6 
#
# 1 0.006417 -0.014104 -0.008932 0.000000 -0.000896 0.000000
# 2 -0.014104 0.097849 0.037065 0.000000 0.004435 0.000000
# 3 -0.008932 0.037065 0.036104 0.000000 0.002586 0.000000
# 4 0.000000 0.000000 0.000000 0.025242 0.000000 0.008859
# 5 -0.000896 0.004435 0.002586 0.000000 0.032831 0.000000
# 6 0.000000 0.000000 0.000000 0.008859 0.000000 0.034832
#
#
# Mechanical properties :
#
#
# Convention : Reuss Voigt Hill
#
# Bulk Modulus (GPa) = 5.93728 48.42023 27.17875
# Shear Modulus (GPa) = 19.13061 40.02013 29.57537
#
# Velocity S-wave (km/s) = 2.98194 4.31294 3.70766
# Velocity P-wave (km/s) = 3.82304 6.87807 5.56432
#
# Compressibility (1/GPa) = 0.16842742
#
# Stress axis : x y z
#
# Youngs Moduli (GPa) = 155.83602 10.21984 27.69743
#
# Poissons Ratio (x) = 0.14414 0.24740
# Poissons Ratio (y) = 2.19796 -1.02661
# Poissons Ratio (z) = 1.39196 -0.37880
#
# Static dielectric constant tensor:
#      x y z
#    x 2.124210 0.000000 0.269920 
#    y 0.000000 1.886310 0.000000 
#    z 0.269920 0.000000 2.052460 
# 
# From -- ./inp_files/152041.got.cif
#   From: 2010.05.17/outbox.cif.g08.bks.cpg/sg15_77_cif.got.tgz:152041.got - 2010.06.03 18:47:42.
