data_PCOD9271192
_publ_section_title
;
Structure prediction by ZEFSAII (Michael W. Deem and Ramdas Pophale) SiO2 
 PCOD9271192
Probable space group: C 2/C
;
_chemical_formula_sum "Si O2"
_cell_formula_units_Z 36
_cell_length_a 7.529365
_cell_length_b 30.917413
_cell_length_c 7.797895
_cell_angle_alpha 90.000000
_cell_angle_beta 70.399781
_cell_angle_gamma 90.000000
_cell_volume 1710.077055
_symmetry_space_group_name_H-M "C 2/C"
_symmetry_group_IT_number 15
_symmetry_cell_setting 'monoclinic'
loop_
_space_group_symop_operation_xyz
x,y,z
-x,y,1/2-z
-x,-y,-z
x,-y,1/2+z
1/2+x,1/2+y,z
1/2-x,1/2+y,1/2-z
1/2-x,1/2-y,-z
1/2+x,1/2-y,1/2+z
loop_
_atom_site_type_symbol
_atom_site_label
_atom_site_fract_x
_atom_site_fract_y
_atom_site_fract_z
Si Si1 0.000000 0.750275 0.250000
Si Si2 0.882361 0.303951 0.113279
Si Si3 0.454034 0.103007 0.464997
Si Si4 0.171205 0.062630 0.081767
Si Si5 0.201666 0.474038 0.284615
O O1 0.183974 0.780092 0.199462
O O2 0.986529 0.720403 0.422888
O O3 0.000000 0.301579 0.250000
O O4 0.860056 0.353690 0.064001
O O5 0.500000 0.104906 0.250000
O O6 0.658694 0.096560 0.486539
O O7 0.334657 0.060816 0.554911
O O8 0.000000 0.080182 0.250000
O O9 0.242416 0.020450 0.163061
O O10 0.144864 0.044533 0.898618
O O11 0.000000 0.477693 0.250000
#
# Coordination Sequence:
#
# PCOD9271192 Si02
#       5
#     4   8   8   8   8
#     4  10  24  44  70 106 124 172 216 252 338 392
#     4  11  22  45  70  98 135 168 210 268 323 387
#     4  11  22  41  59  86 125 169 210 264 318 379
#     4  11  21  36  56  89 118 164 212 262 318 376
#     4  10  20  36  58  80 119 167 209 256 326 372
#
# _framework density 21.051684000000002
#
# number of rings (size 3 to 8) (size 9 to 14) (size 15 to 20)
#    0.000    1.333    1.111    8.000    0.000    0.000 
#   10.000    1.111    0.000    0.000    0.000    0.000 
#    0.000    0.000    0.000    0.000    0.000    0.000 
#
# Total GULP energy -100707.113766 kJ/mol
# GULP energy per Si atom -5594.839654 kJ/mol
# Density = 2.100377 g / cm^3
# Si number density = 21.051684 Si / 1000 Ang^3
#
#
#
# Elastic Constant Matrix: (Units=GPa)
#
#
# Indices 1 2 3 4 5 6 
#
# 1 23.9797 7.8872 14.9883 0.0000 6.0545 0.0000
# 2 7.8872 65.1531 -5.5066 0.0000 5.5451 0.0000
# 3 14.9883 -5.5066 106.0195 0.0000 8.4996 0.0000
# 4 0.0000 0.0000 0.0000 29.6105 0.0000 -1.2481
# 5 6.0545 5.5451 8.4996 0.0000 42.2469 0.0000
# 6 0.0000 0.0000 0.0000 -1.2481 0.0000 43.7355
#
#
#
# Elastic Compliance Matrix: (Units=1/GPa)
#
#
# Indices 1 2 3 4 5 6 
#
# 1 0.049255 -0.006131 -0.006891 0.000000 -0.004868 0.000000
# 2 -0.006131 0.016387 0.001850 0.000000 -0.001644 0.000000
# 3 -0.006891 0.001850 0.010614 0.000000 -0.001391 0.000000
# 4 0.000000 0.000000 0.000000 0.033812 0.000000 0.000965
# 5 -0.004868 -0.001644 -0.001391 0.000000 0.024864 0.000000
# 6 0.000000 0.000000 0.000000 0.000965 0.000000 0.022892
#
#
# Mechanical properties :
#
#
# Convention : Reuss Voigt Hill
#
# Bulk Modulus (GPa) = 18.54919 25.54333 22.04626
# Shear Modulus (GPa) = 25.23473 34.97082 30.10278
#
# Velocity S-wave (km/s) = 3.46599 4.08019 3.78557
# Velocity P-wave (km/s) = 4.98476 5.86150 5.44082
#
# Compressibility (1/GPa) = 0.05391072
#
# Stress axis : x y z
#
# Youngs Moduli (GPa) = 20.30253 61.02432 94.21477
#
# Poissons Ratio (x) = 0.37413 0.64928
# Poissons Ratio (y) = 0.12447 -0.17427
# Poissons Ratio (z) = 0.13991 -0.11288
#
# Static dielectric constant tensor:
#      x y z
#    x 1.799220 0.000000 0.006910 
#    y 0.000000 1.705080 0.000000 
#    z 0.006910 0.000000 1.816410 
# 
# From -- ./inp_files/24311.got.cif
#   From: 2010.05.17/outbox.cif.g08.bks.cpg/sg15_13_cif.got.tgz:24311.got - 2010.06.03 18:47:42.
