data_PCOD9271990
_publ_section_title
;
Structure prediction by ZEFSAII (Michael W. Deem and Ramdas Pophale) SiO2 
 PCOD9271990
Probable space group: C 2/C
;
_chemical_formula_sum "Si O2"
_cell_formula_units_Z 40
_cell_length_a 13.989826
_cell_length_b 12.943220
_cell_length_c 9.765097
_cell_angle_alpha 90.000000
_cell_angle_beta 78.637152
_cell_angle_gamma 90.000000
_cell_volume 1733.541037
_symmetry_space_group_name_H-M "C 2/C"
_symmetry_group_IT_number 15
_symmetry_cell_setting 'monoclinic'
loop_
_space_group_symop_operation_xyz
x,y,z
-x,y,1/2-z
-x,-y,-z
x,-y,1/2+z
1/2+x,1/2+y,z
1/2-x,1/2+y,1/2-z
1/2-x,1/2-y,-z
1/2+x,1/2-y,1/2+z
loop_
_atom_site_type_symbol
_atom_site_label
_atom_site_fract_x
_atom_site_fract_y
_atom_site_fract_z
Si Si1 0.154591 0.028545 0.980783
Si Si2 0.485673 0.343784 0.407360
Si Si3 0.758464 0.394865 0.713989
Si Si4 0.068805 0.520099 0.853215
Si Si5 0.825020 0.720899 0.601132
O O1 0.087054 0.118720 0.941037
O O2 0.204147 0.966002 0.843104
O O3 0.228751 0.072951 0.070163
O O4 0.083180 0.946489 0.077099
O O5 0.500000 0.304828 0.250000
O O6 0.428276 0.266848 0.522518
O O7 0.872359 0.416668 0.703021
O O8 0.719966 0.280965 0.757744
O O9 0.151885 0.603401 0.869481
O O10 0.000000 0.556908 0.750000
O O11 0.000000 0.500000 0.000000
O O12 0.750000 0.750000 0.500000
#
# Coordination Sequence:
#
# PCOD9271990 Si02
#       5
#     8   8   8   8   8
#     4  10  20  36  67 100 136 173 226 286 358 396
#     4  10  20  36  63 101 137 175 225 288 344 414
#     4  11  23  45  71  99 141 181 234 296 347 425
#     4  12  27  50  73 103 143 190 237 294 361 432
#     4  11  26  43  70 101 141 188 236 286 354 428
#
# _framework density 23.074157
#
# number of rings (size 3 to 8) (size 9 to 14) (size 15 to 20)
#    0.000    1.200    2.000    4.800    2.800    2.400 
#    0.000    2.000    0.000    0.000    0.000    0.000 
#    0.000    0.000    0.000    0.000    0.000    0.000 
#
# Total GULP energy -111992.654741 kJ/mol
# GULP energy per Si atom -5599.632737 kJ/mol
# Density = 2.302164 g / cm^3
# Si number density = 23.074157 Si / 1000 Ang^3
#
#
#
# Elastic Constant Matrix: (Units=GPa)
#
#
# Indices 1 2 3 4 5 6 
#
# 1 96.7921 29.2713 26.0831 0.0000 -0.7407 0.0000
# 2 29.2713 78.5659 27.2818 0.0000 -5.0881 0.0000
# 3 26.0831 27.2818 75.4673 0.0000 -7.3865 0.0000
# 4 0.0000 0.0000 0.0000 14.8635 0.0000 -0.6655
# 5 -0.7407 -5.0881 -7.3865 0.0000 49.6468 0.0000
# 6 0.0000 0.0000 0.0000 -0.6655 0.0000 28.4647
#
#
#
# Elastic Compliance Matrix: (Units=1/GPa)
#
#
# Indices 1 2 3 4 5 6 
#
# 1 0.012207 -0.003548 -0.002998 0.000000 -0.000628 0.000000
# 2 -0.003548 0.015612 -0.004329 0.000000 0.000903 0.000000
# 3 -0.002998 -0.004329 0.016038 0.000000 0.001898 0.000000
# 4 0.000000 0.000000 0.000000 0.067349 0.000000 0.001575
# 5 -0.000628 0.000903 0.001898 0.000000 0.020508 0.000000
# 6 0.000000 0.000000 0.000000 0.001575 0.000000 0.035168
#
#
# Mechanical properties :
#
#
# Convention : Reuss Voigt Hill
#
# Bulk Modulus (GPa) = 45.23452 46.23306 45.73379
# Shear Modulus (GPa) = 25.51009 29.80760 27.65885
#
# Velocity S-wave (km/s) = 3.32862 3.59809 3.46597
# Velocity P-wave (km/s) = 5.86681 6.11080 5.99005
#
# Compressibility (1/GPa) = 0.02210701
#
# Stress axis : x y z
#
# Youngs Moduli (GPa) = 81.91756 64.05452 62.35300
#
# Poissons Ratio (x) = 0.22725 0.18694
# Poissons Ratio (y) = 0.29062 0.26994
# Poissons Ratio (z) = 0.24559 0.27730
#
# Static dielectric constant tensor:
#      x y z
#    x 1.860280 0.000000 -0.000460 
#    y 0.000000 1.898440 0.000000 
#    z -0.000460 0.000000 1.815550 
# 
# From -- ./inp_files/37852.got.cif
#   From: 2010.05.17/outbox.cif.g08.bks.cpg/sg15_19_cif.got.tgz:37852.got - 2010.06.03 18:47:42.
