data_PCOD9271406
_publ_section_title
;
Structure prediction by ZEFSAII (Michael W. Deem and Ramdas Pophale) SiO2 
 PCOD9271406
Probable space group: C 2/C
;
_chemical_formula_sum "Si O2"
_cell_formula_units_Z 48
_cell_length_a 30.730944
_cell_length_b 9.351938
_cell_length_c 8.846022
_cell_angle_alpha 90.000000
_cell_angle_beta 96.048050
_cell_angle_gamma 90.000000
_cell_volume 2528.141918
_symmetry_space_group_name_H-M "C 2/C"
_symmetry_group_IT_number 15
_symmetry_cell_setting 'monoclinic'
loop_
_space_group_symop_operation_xyz
x,y,z
-x,y,1/2-z
-x,-y,-z
x,-y,1/2+z
1/2+x,1/2+y,z
1/2-x,1/2+y,1/2-z
1/2-x,1/2-y,-z
1/2+x,1/2-y,1/2+z
loop_
_atom_site_type_symbol
_atom_site_label
_atom_site_fract_x
_atom_site_fract_y
_atom_site_fract_z
Si Si1 0.163886 0.148043 0.949388
Si Si2 0.238969 0.069362 0.404826
Si Si3 0.695314 0.067275 0.331300
Si Si4 0.667979 0.240410 0.788239
Si Si5 0.531264 0.434362 0.139903
Si Si6 0.909504 0.091515 0.104450
O O1 0.202071 0.056027 0.882289
O O2 0.164949 0.302607 0.871138
O O3 0.120073 0.052593 0.925717
O O4 0.173619 0.178127 0.130056
O O5 0.268564 0.114532 0.275364
O O6 0.274042 0.996066 0.526237
O O7 0.206839 0.205177 0.414219
O O8 0.669991 0.928072 0.263036
O O9 0.623026 0.288937 0.846491
O O10 0.500000 0.353470 0.250000
O O11 0.555192 0.552189 0.253674
O O12 0.500000 0.500000 0.000000
O O13 0.568751 0.366402 0.047717
#
# Coordination Sequence:
#
# PCOD9271406 Si02
#       6
#     8   8   8   8   8   8
#     4  11  22  37  53  78 114 147 183 242 278 311
#     4  11  22  36  55  72 105 151 199 248 273 305
#     4  12  22  36  53  75 109 152 200 228 277 319
#     4  11  22  36  54  79 110 150 186 235 280 316
#     4   9  18  34  60  93 113 130 170 219 269 329
#     4  10  20  36  59  85 116 140 172 220 278 330
#
# _framework density 18.986276
#
# number of rings (size 3 to 8) (size 9 to 14) (size 15 to 20)
#    0.000    1.333    5.000    2.000    0.000    1.333 
#    0.000    0.000    0.000    0.000    0.000   23.333 
#    0.000    0.000    0.000    0.000    0.000    0.000 
#
# Total GULP energy -133646.119549 kJ/mol
# GULP energy per Si atom -5568.588315 kJ/mol
# Density = 1.894306 g / cm^3
# Si number density = 18.986276 Si / 1000 Ang^3
#
#
#
# Elastic Constant Matrix: (Units=GPa)
#
#
# Indices 1 2 3 4 5 6 
#
# 1 91.7270 25.9982 35.0668 0.0000 -19.2096 0.0000
# 2 25.9982 89.9149 4.2474 0.0000 -6.5139 0.0000
# 3 35.0668 4.2474 81.2144 0.0000 -18.6673 0.0000
# 4 0.0000 0.0000 0.0000 21.3101 0.0000 -5.4764
# 5 -19.2096 -6.5139 -18.6673 0.0000 41.5284 0.0000
# 6 0.0000 0.0000 0.0000 -5.4764 0.0000 4.3302
#
#
#
# Elastic Compliance Matrix: (Units=1/GPa)
#
#
# Indices 1 2 3 4 5 6 
#
# 1 0.014804 -0.003749 -0.005305 0.000000 0.003875 0.000000
# 2 -0.003749 0.012202 0.001140 0.000000 0.000692 0.000000
# 3 -0.005305 0.001140 0.015637 0.000000 0.004754 0.000000
# 4 0.000000 0.000000 0.000000 0.069521 0.000000 0.087923
# 5 0.003875 0.000692 0.004754 0.000000 0.028118 0.000000
# 6 0.000000 0.000000 0.000000 0.087923 0.000000 0.342132
#
#
# Mechanical properties :
#
#
# Convention : Reuss Voigt Hill
#
# Bulk Modulus (GPa) = 37.29488 43.72013 40.50751
# Shear Modulus (GPa) = 9.85840 26.60333 18.23086
#
# Velocity S-wave (km/s) = 2.28115 3.74730 3.10209
# Velocity P-wave (km/s) = 5.15984 6.46531 5.84911
#
# Compressibility (1/GPa) = 0.02681333
#
# Stress axis : x y z
#
# Youngs Moduli (GPa) = 67.54777 81.95397 63.95140
#
# Poissons Ratio (x) = 0.30726 0.33929
# Poissons Ratio (y) = 0.25325 -0.07289
# Poissons Ratio (z) = 0.35837 -0.09341
#
# Static dielectric constant tensor:
#      x y z
#    x 1.694230 0.000000 -0.003040 
#    y 0.000000 1.664310 0.000000 
#    z -0.003040 0.000000 1.742550 
# 
# From -- ./inp_files/68547.got.cif
#   From: 2010.05.17/outbox.cif.g08.bks.cpg/sg15_35_cif.got.tgz:68547.got - 2010.06.03 18:47:42.
