data_PCOD9271636
_publ_section_title
;
Structure prediction by ZEFSAII (Michael W. Deem and Ramdas Pophale) SiO2 
 PCOD9271636
Probable space group: C 2/C
;
_chemical_formula_sum "Si O2"
_cell_formula_units_Z 60
_cell_length_a 17.429415
_cell_length_b 18.326451
_cell_length_c 11.899627
_cell_angle_alpha 90.000000
_cell_angle_beta 53.882451
_cell_angle_gamma 90.000000
_cell_volume 3070.459845
_symmetry_space_group_name_H-M "C 2/C"
_symmetry_group_IT_number 15
_symmetry_cell_setting 'monoclinic'
loop_
_space_group_symop_operation_xyz
x,y,z
-x,y,1/2-z
-x,-y,-z
x,-y,1/2+z
1/2+x,1/2+y,z
1/2-x,1/2+y,1/2-z
1/2-x,1/2-y,-z
1/2+x,1/2-y,1/2+z
loop_
_atom_site_type_symbol
_atom_site_label
_atom_site_fract_x
_atom_site_fract_y
_atom_site_fract_z
Si Si1 0.274917 0.362849 0.041378
Si Si2 0.352907 0.268737 0.361500
Si Si3 0.269355 0.613634 0.799475
Si Si4 0.396373 0.746171 0.295316
Si Si5 0.411979 0.220212 0.541243
Si Si6 0.000000 0.472108 0.750000
Si Si7 0.404997 0.136819 0.156308
Si Si8 0.174661 0.464607 0.962957
O O1 0.304227 0.383346 0.141633
O O2 0.181406 0.310557 0.126953
O O3 0.355631 0.319079 0.905490
O O4 0.241094 0.432325 0.001742
O O5 0.250000 0.250000 0.500000
O O6 0.346415 0.349348 0.315120
O O7 0.420774 0.257092 0.410940
O O8 0.365691 0.208268 0.253152
O O9 0.179914 0.668862 0.881947
O O10 0.225479 0.536347 0.870868
O O11 0.500000 0.768064 0.250000
O O12 0.403022 0.728188 0.156865
O O13 0.500427 0.166779 0.484624
O O14 0.936451 0.420457 0.724913
O O15 0.072471 0.516088 0.607488
O O16 0.340838 0.095713 0.120971
#
# Coordination Sequence:
#
# PCOD9271636 Si02
#       8
#     8   8   8   8   8   4   8   8
#     4  10  24  40  60  95 125 166 215 252 327 385
#     4  10  21  37  58  84 121 165 210 254 298 370
#     4  10  22  40  57  87 130 162 207 257 308 377
#     4  10  22  40  64  92 125 163 211 271 311 372
#     4  10  20  36  60  90 118 157 209 254 306 377
#     4  12  22  38  54  96 134 166 210 246 324 400
#     4  12  22  37  61  91 128 165 207 258 319 386
#     4  12  25  36  61  91 130 177 199 258 325 393
#
# _framework density 19.541046999999999
#
# number of rings (size 3 to 8) (size 9 to 14) (size 15 to 20)
#    0.000    1.333    2.667    2.800   14.000    0.000 
#    0.000    0.000    0.000    2.400    0.000    0.000 
#    0.000    0.000    0.000    0.000    0.000    0.000 
#
# Total GULP energy -167490.577437 kJ/mol
# GULP energy per Si atom -5583.019248 kJ/mol
# Density = 1.949657 g / cm^3
# Si number density = 19.541047 Si / 1000 Ang^3
#
#
#
# Elastic Constant Matrix: (Units=GPa)
#
#
# Indices 1 2 3 4 5 6 
#
# 1 52.7193 31.7481 24.8364 0.0000 22.5495 0.0000
# 2 31.7481 60.9557 50.1019 0.0000 21.4874 0.0000
# 3 24.8364 50.1019 104.5303 0.0000 27.2571 0.0000
# 4 0.0000 0.0000 0.0000 7.0847 0.0000 3.1751
# 5 22.5495 21.4874 27.2571 0.0000 29.6172 0.0000
# 6 0.0000 0.0000 0.0000 3.1751 0.0000 30.1575
#
#
#
# Elastic Compliance Matrix: (Units=1/GPa)
#
#
# Indices 1 2 3 4 5 6 
#
# 1 0.033692 -0.013789 0.003532 0.000000 -0.018898 0.000000
# 2 -0.013789 0.035238 -0.012743 0.000000 -0.003340 0.000000
# 3 0.003532 -0.012743 0.017270 0.000000 -0.009338 0.000000
# 4 0.000000 0.000000 0.000000 0.148140 0.000000 -0.015597
# 5 -0.018898 -0.003340 -0.009338 0.000000 0.059169 0.000000
# 6 0.000000 0.000000 0.000000 -0.015597 0.000000 0.034801
#
#
# Mechanical properties :
#
#
# Convention : Reuss Voigt Hill
#
# Bulk Modulus (GPa) = 24.87578 47.95314 36.41446
# Shear Modulus (GPa) = 12.89621 20.80647 16.85134
#
# Velocity S-wave (km/s) = 2.57175 3.26660 2.93978
# Velocity P-wave (km/s) = 4.64501 6.23061 5.49530
#
# Compressibility (1/GPa) = 0.04019975
#
# Stress axis : x y z
#
# Youngs Moduli (GPa) = 29.68102 28.37819 57.90370
#
# Poissons Ratio (x) = 0.39131 -0.20451
# Poissons Ratio (y) = 0.40928 0.73785
# Poissons Ratio (z) = -0.10483 0.36162
#
# Static dielectric constant tensor:
#      x y z
#    x 1.708750 0.000000 0.031850 
#    y 0.000000 1.671380 0.000000 
#    z 0.031850 0.000000 1.733250 
# 
# From -- ./inp_files/106686.got.cif
#   From: 2010.05.17/outbox.cif.g08.bks.cpg/sg15_54_cif.got.tgz:106686.got - 2010.06.03 18:47:42.
