data_PCOD9271926
_publ_section_title
;
Structure prediction by ZEFSAII (Michael W. Deem and Ramdas Pophale) SiO2 
 PCOD9271926
Probable space group: C 2/C
;
_chemical_formula_sum "Si O2"
_cell_formula_units_Z 40
_cell_length_a 19.489214
_cell_length_b 24.815263
_cell_length_c 10.243088
_cell_angle_alpha 90.000000
_cell_angle_beta 156.033078
_cell_angle_gamma 90.000000
_cell_volume 2012.305114
_symmetry_space_group_name_H-M "C 2/C"
_symmetry_group_IT_number 15
_symmetry_cell_setting 'monoclinic'
loop_
_space_group_symop_operation_xyz
x,y,z
-x,y,1/2-z
-x,-y,-z
x,-y,1/2+z
1/2+x,1/2+y,z
1/2-x,1/2+y,1/2-z
1/2-x,1/2-y,-z
1/2+x,1/2-y,1/2+z
loop_
_atom_site_type_symbol
_atom_site_label
_atom_site_fract_x
_atom_site_fract_y
_atom_site_fract_z
Si Si1 0.998476 0.633357 0.602016
Si Si2 0.669878 0.427437 0.899708
Si Si3 0.166301 0.464299 0.806514
Si Si4 0.804905 0.103376 0.757996
Si Si5 0.879176 0.707610 0.160502
O O1 0.000000 0.657237 0.750000
O O2 0.853336 0.587668 0.321758
O O3 0.980393 0.677335 0.454762
O O4 0.171271 0.598999 0.895354
O O5 0.492385 0.409303 0.531785
O O6 0.685162 0.491903 0.943706
O O7 0.686212 0.404539 0.073629
O O8 0.000000 0.500000 0.500000
O O9 0.179044 0.438785 0.971949
O O10 0.737393 0.161504 0.605321
O O11 0.000000 0.726756 0.250000
O O12 0.750000 0.750000 0.000000
#
# Coordination Sequence:
#
# PCOD9271926 Si02
#       5
#     8   8   8   8   8
#     4  10  22  40  62  94 128 164 212 261 314 388
#     4  10  20  36  62  91 129 165 207 256 315 381
#     4   9  20  32  59  89 129 172 205 245 305 386
#     4  10  21  39  61  91 126 165 213 264 313 381
#     4  11  24  47  70  92 123 170 220 275 338 385
#
# _framework density 19.877703
#
# number of rings (size 3 to 8) (size 9 to 14) (size 15 to 20)
#    0.000    2.000    2.000    0.600    5.600    1.600 
#    3.600    4.000    0.000    0.000    0.000    0.000 
#    0.000    0.000    0.000    0.000    0.000    0.000 
#
# Total GULP energy -111434.682166 kJ/mol
# GULP energy per Si atom -5571.734108 kJ/mol
# Density = 1.983246 g / cm^3
# Si number density = 19.877703 Si / 1000 Ang^3
#
#
#
# Elastic Constant Matrix: (Units=GPa)
#
#
# Indices 1 2 3 4 5 6 
#
# 1 98.0839 40.8848 34.5279 0.0000 -7.4805 0.0000
# 2 40.8848 71.7139 15.2878 0.0000 1.1783 0.0000
# 3 34.5279 15.2878 71.5914 0.0000 -2.5324 0.0000
# 4 0.0000 0.0000 0.0000 16.3115 0.0000 8.4963
# 5 -7.4805 1.1783 -2.5324 0.0000 34.5145 0.0000
# 6 0.0000 0.0000 0.0000 8.4963 0.0000 16.5530
#
#
#
# Elastic Compliance Matrix: (Units=1/GPa)
#
#
# Indices 1 2 3 4 5 6 
#
# 1 0.015734 -0.007785 -0.005811 0.000000 0.003249 0.000000
# 2 -0.007785 0.018479 -0.000274 0.000000 -0.002338 0.000000
# 3 -0.005811 -0.000274 0.016829 0.000000 -0.000015 0.000000
# 4 0.000000 0.000000 0.000000 0.083678 0.000000 -0.042950
# 5 0.003249 -0.002338 -0.000015 0.000000 0.029756 0.000000
# 6 0.000000 0.000000 0.000000 -0.042950 0.000000 0.082458
#
#
# Mechanical properties :
#
#
# Convention : Reuss Voigt Hill
#
# Bulk Modulus (GPa) = 42.91488 46.97670 44.94579
# Shear Modulus (GPa) = 17.70281 23.52170 20.61226
#
# Velocity S-wave (km/s) = 2.98751 3.44368 3.22367
# Velocity P-wave (km/s) = 5.79108 6.28459 6.04287
#
# Compressibility (1/GPa) = 0.02330194
#
# Stress axis : x y z
#
# Youngs Moduli (GPa) = 63.55821 54.11475 59.42204
#
# Poissons Ratio (x) = 0.42126 0.34530
# Poissons Ratio (y) = 0.49477 0.01631
# Poissons Ratio (z) = 0.36933 0.01485
#
# Static dielectric constant tensor:
#      x y z
#    x 1.761870 0.000000 0.043540 
#    y 0.000000 1.746700 0.000000 
#    z 0.043540 0.000000 1.747430 
# 
# From -- ./inp_files/23473.got.cif
#   From: 2010.05.17/outbox.cif.g08.bks.cpg/sg15_12_cif.got.tgz:23473.got - 2010.06.03 18:47:42.
