data_PCOD9271794
_publ_section_title
;
Structure prediction by ZEFSAII (Michael W. Deem and Ramdas Pophale) SiO2 
 PCOD9271794
Probable space group: C 2/C
;
_chemical_formula_sum "Si O2"
_cell_formula_units_Z 60
_cell_length_a 27.090868
_cell_length_b 5.050852
_cell_length_c 19.301811
_cell_angle_alpha 90.000000
_cell_angle_beta 104.154648
_cell_angle_gamma 90.000000
_cell_volume 2560.918717
_symmetry_space_group_name_H-M "C 2/C"
_symmetry_group_IT_number 15
_symmetry_cell_setting 'monoclinic'
loop_
_space_group_symop_operation_xyz
x,y,z
-x,y,1/2-z
-x,-y,-z
x,-y,1/2+z
1/2+x,1/2+y,z
1/2-x,1/2+y,1/2-z
1/2-x,1/2-y,-z
1/2+x,1/2-y,1/2+z
loop_
_atom_site_type_symbol
_atom_site_label
_atom_site_fract_x
_atom_site_fract_y
_atom_site_fract_z
Si Si1 0.818241 0.603611 0.111856
Si Si2 0.171928 0.786190 0.005546
Si Si3 0.250000 0.250000 0.000000
Si Si4 0.018124 0.148302 0.575299
Si Si5 0.094090 0.159347 0.943215
Si Si6 0.553244 0.547700 0.728843
Si Si7 0.879139 0.577459 0.751279
Si Si8 0.386052 0.029062 0.910705
O O1 0.872266 0.708134 0.104293
O O2 0.829208 0.469658 0.187635
O O3 0.801495 0.437865 0.034951
O O4 0.774109 0.814953 0.088373
O O5 0.157178 0.665258 0.073599
O O6 0.204972 0.048144 0.017259
O O7 0.116536 0.860809 0.952897
O O8 0.041808 0.972109 0.644511
O O9 0.059853 0.371603 0.574650
O O10 0.964100 0.232201 0.588881
O O11 0.000000 0.000000 0.500000
O O12 0.106348 0.259530 0.025353
O O13 0.500000 0.563451 0.750000
O O14 0.589914 0.321828 0.769925
O O15 0.583853 0.821820 0.738123
O O16 0.869681 0.623806 0.829416
#
# Coordination Sequence:
#
# PCOD9271794 Si02
#       8
#     8   8   4   8   8   8   8   8
#     4  10  23  40  68  94 126 165 219 280 333 409
#     4  10  21  40  66  97 126 160 221 275 342 386
#     4  10  22  42  72 100 118 156 218 290 338 402
#     4  11  20  34  59  90 128 178 226 266 316 384
#     4  10  20  36  61  92 126 172 222 272 317 388
#     4  11  25  40  59  92 139 181 229 272 321 392
#     4  11  25  41  64  94 135 182 218 269 347 397
#     4  10  22  38  60  92 134 179 214 276 327 401
#
# _framework density 23.429091
#
# number of rings (size 3 to 8) (size 9 to 14) (size 15 to 20)
#    0.000    1.600    1.333    2.800    7.467    2.133 
#    0.000    0.000    8.800    0.000    0.000    0.000 
#    0.000    0.000    0.000    0.000    0.000    0.000 
#
# Total GULP energy -167074.444832 kJ/mol
# GULP energy per Si atom -5569.148161 kJ/mol
# Density = 2.337577 g / cm^3
# Si number density = 23.429091 Si / 1000 Ang^3
#
#
#
# Elastic Constant Matrix: (Units=GPa)
#
#
# Indices 1 2 3 4 5 6 
#
# 1 89.0793 10.8262 14.7835 0.0000 3.7586 0.0000
# 2 10.8262 59.6036 1.2587 0.0000 -6.5962 0.0000
# 3 14.7835 1.2587 134.7237 0.0000 12.8553 0.0000
# 4 0.0000 0.0000 0.0000 22.0226 0.0000 3.6584
# 5 3.7586 -6.5962 12.8553 0.0000 18.6491 0.0000
# 6 0.0000 0.0000 0.0000 3.6584 0.0000 32.6769
#
#
#
# Elastic Compliance Matrix: (Units=1/GPa)
#
#
# Indices 1 2 3 4 5 6 
#
# 1 0.011795 -0.002399 -0.001032 0.000000 -0.002514 0.000000
# 2 -0.002399 0.018031 -0.000599 0.000000 0.007274 0.000000
# 3 -0.001032 -0.000599 0.008073 0.000000 -0.005569 0.000000
# 4 0.000000 0.000000 0.000000 0.046268 0.000000 -0.005180
# 5 -0.002514 0.007274 -0.005569 0.000000 0.060540 0.000000
# 6 0.000000 0.000000 0.000000 -0.005180 0.000000 0.031183
#
#
# Mechanical properties :
#
#
# Convention : Reuss Voigt Hill
#
# Bulk Modulus (GPa) = 33.51394 37.46038 35.48716
# Shear Modulus (GPa) = 25.78697 31.77225 28.77961
#
# Velocity S-wave (km/s) = 3.32119 3.68653 3.50861
# Velocity P-wave (km/s) = 5.38911 5.84330 5.62080
#
# Compressibility (1/GPa) = 0.02983833
#
# Stress axis : x y z
#
# Youngs Moduli (GPa) = 84.78285 55.46032 123.87258
#
# Poissons Ratio (x) = 0.13304 0.12783
# Poissons Ratio (y) = 0.20338 0.07424
# Poissons Ratio (z) = 0.08749 0.03324
#
# Static dielectric constant tensor:
#      x y z
#    x 1.693410 0.000000 -0.095370 
#    y 0.000000 1.618280 0.000000 
#    z -0.095370 0.000000 1.859730 
# 
# From -- ./inp_files/223669.got.cif
#   From: 2010.05.17/outbox.cif.g08.bks.cpg/sg15_112_cif.got.tgz:223669.got - 2010.06.03 18:47:42.
