data_PCOD9271665
_publ_section_title
;
Structure prediction by ZEFSAII (Michael W. Deem and Ramdas Pophale) SiO2 
 PCOD9271665
Probable space group: C 2/C
;
_chemical_formula_sum "Si O2"
_cell_formula_units_Z 60
_cell_length_a 16.103438
_cell_length_b 17.794998
_cell_length_c 10.193374
_cell_angle_alpha 90.000000
_cell_angle_beta 88.582188
_cell_angle_gamma 90.000000
_cell_volume 2920.125567
_symmetry_space_group_name_H-M "C 2/C"
_symmetry_group_IT_number 15
_symmetry_cell_setting 'monoclinic'
loop_
_space_group_symop_operation_xyz
x,y,z
-x,y,1/2-z
-x,-y,-z
x,-y,1/2+z
1/2+x,1/2+y,z
1/2-x,1/2+y,1/2-z
1/2-x,1/2-y,-z
1/2+x,1/2-y,1/2+z
loop_
_atom_site_type_symbol
_atom_site_label
_atom_site_fract_x
_atom_site_fract_y
_atom_site_fract_z
Si Si1 0.852808 0.936199 0.650701
Si Si2 0.270090 0.507003 0.903070
Si Si3 0.618348 0.792825 0.217366
Si Si4 0.353565 0.864202 0.565962
Si Si5 0.851233 0.641480 0.538223
Si Si6 0.000000 0.156431 0.250000
Si Si7 0.982833 0.443757 0.886326
Si Si8 0.730910 0.793827 0.685699
O O1 0.833293 0.982124 0.520875
O O2 0.788405 0.866482 0.656354
O O3 0.943448 0.898356 0.662898
O O4 0.824393 0.987053 0.774132
O O5 0.204545 0.438734 0.928437
O O6 0.216174 0.583568 0.898741
O O7 0.583839 0.837574 0.347125
O O8 0.567227 0.716435 0.189801
O O9 0.705727 0.772264 0.284137
O O10 0.637212 0.835240 0.082763
O O11 0.445904 0.881645 0.611717
O O12 0.316254 0.808164 0.675693
O O13 0.894790 0.591492 0.421319
O O14 0.823021 0.710849 0.445030
O O15 0.000000 0.484583 0.750000
O O16 0.000000 0.500000 0.000000
#
# Coordination Sequence:
#
# PCOD9271665 Si02
#       8
#     8   8   8   8   8   4   8   8
#     4   9  20  36  61  81 117 150 185 248 289 343
#     4  10  20  36  60  92 112 144 190 234 306 336
#     4  11  22  36  62  84 108 159 209 230 277 351
#     4  11  21  37  59  86 123 149 190 246 287 352
#     4  11  21  37  59  86 123 149 190 246 287 352
#     4  10  22  42  54  80 118 156 198 234 288 334
#     4  12  25  36  55  85 123 152 176 229 304 356
#     4   9  20  38  55  82 119 159 190 241 290 334
#
# _framework density 20.547062
#
# number of rings (size 3 to 8) (size 9 to 14) (size 15 to 20)
#    0.000    1.600    2.667    2.400    1.867    0.533 
#    0.000    0.000    0.000    1.600    0.000    0.000 
#    0.000    0.000    0.000    0.000    0.000    0.000 
#
# Total GULP energy -167167.372441 kJ/mol
# GULP energy per Si atom -5572.245748 kJ/mol
# Density = 2.050030 g / cm^3
# Si number density = 20.547062 Si / 1000 Ang^3
#
#
#
# Elastic Constant Matrix: (Units=GPa)
#
#
# Indices 1 2 3 4 5 6 
#
# 1 54.3450 13.6382 10.1338 0.0000 11.2709 0.0000
# 2 13.6382 49.8442 20.0802 0.0000 0.2828 0.0000
# 3 10.1338 20.0802 133.4229 0.0000 6.3819 0.0000
# 4 0.0000 0.0000 0.0000 22.3102 0.0000 6.1482
# 5 11.2709 0.2828 6.3819 0.0000 20.7301 0.0000
# 6 0.0000 0.0000 0.0000 6.1482 0.0000 27.9823
#
#
#
# Elastic Compliance Matrix: (Units=1/GPa)
#
#
# Indices 1 2 3 4 5 6 
#
# 1 0.022444 -0.005981 -0.000228 0.000000 -0.012051 0.000000
# 2 -0.005981 0.022961 -0.003189 0.000000 0.003920 0.000000
# 3 -0.000228 -0.003189 0.008104 0.000000 -0.002327 0.000000
# 4 0.000000 0.000000 0.000000 0.047711 0.000000 -0.010483
# 5 -0.012051 0.003920 -0.002327 0.000000 0.055454 0.000000
# 6 0.000000 0.000000 0.000000 -0.010483 0.000000 0.038040
#
#
# Mechanical properties :
#
#
# Convention : Reuss Voigt Hill
#
# Bulk Modulus (GPa) = 28.80764 36.14630 32.47697
# Shear Modulus (GPa) = 22.21424 27.12184 24.66804
#
# Velocity S-wave (km/s) = 3.29164 3.63710 3.46867
# Velocity P-wave (km/s) = 5.33828 5.93870 5.64648
#
# Compressibility (1/GPa) = 0.03471301
#
# Stress axis : x y z
#
# Youngs Moduli (GPa) = 44.55595 43.55136 123.40271
#
# Poissons Ratio (x) = 0.26047 0.02815
# Poissons Ratio (y) = 0.26648 0.39353
# Poissons Ratio (z) = 0.01016 0.13888
#
# Static dielectric constant tensor:
#      x y z
#    x 1.818780 0.000000 -0.002980 
#    y 0.000000 1.762330 0.000000 
#    z -0.002980 0.000000 1.901200 
# 
# From -- ./inp_files/49075.got.cif
#   From: 2010.05.17/outbox.cif.g08.bks.cpg/sg15_25_cif.got.tgz:49075.got - 2010.06.03 18:47:42.
