data_PCOD9271514
_publ_section_title
;
Structure prediction by ZEFSAII (Michael W. Deem and Ramdas Pophale) SiO2 
 PCOD9271514
Probable space group: C 2/C
;
_chemical_formula_sum "Si O2"
_cell_formula_units_Z 56
_cell_length_a 19.764075
_cell_length_b 8.467863
_cell_length_c 17.131230
_cell_angle_alpha 90.000000
_cell_angle_beta 120.780572
_cell_angle_gamma 90.000000
_cell_volume 2463.199013
_symmetry_space_group_name_H-M "C 2/C"
_symmetry_group_IT_number 15
_symmetry_cell_setting 'monoclinic'
loop_
_space_group_symop_operation_xyz
x,y,z
-x,y,1/2-z
-x,-y,-z
x,-y,1/2+z
1/2+x,1/2+y,z
1/2-x,1/2+y,1/2-z
1/2-x,1/2-y,-z
1/2+x,1/2-y,1/2+z
loop_
_atom_site_type_symbol
_atom_site_label
_atom_site_fract_x
_atom_site_fract_y
_atom_site_fract_z
Si Si1 0.555185 0.142990 0.506539
Si Si2 0.331879 0.759531 0.001303
Si Si3 0.837565 0.870339 0.268684
Si Si4 0.924170 0.505698 0.648624
Si Si5 0.720037 0.197743 0.397734
Si Si6 0.678787 0.961862 0.660612
Si Si7 0.381089 0.547672 0.432080
O O1 0.566180 0.107717 0.421195
O O2 0.548659 0.330847 0.507796
O O3 0.500000 0.000000 0.500000
O O4 0.619504 0.103596 0.611318
O O5 0.400686 0.826528 0.097505
O O6 0.250000 0.750000 0.000000
O O7 0.314217 0.887234 0.922276
O O8 0.363762 0.602739 0.977605
O O9 0.827507 0.842460 0.170773
O O10 0.846105 0.691379 0.305105
O O11 0.754803 0.954158 0.239773
O O12 0.893114 0.982224 0.351391
O O13 0.843020 0.443354 0.638651
O O14 0.000000 0.503897 0.750000
O O15 0.750000 0.250000 0.500000
O O16 0.799354 0.146316 0.399705
#
# Coordination Sequence:
#
# PCOD9271514 Si02
#       7
#     8   8   8   8   8   8   8
#     4  11  24  44  68  91 139 194 233 294 377 443
#     4  10  21  39  68  98 136 183 231 298 364 433
#     4  11  21  36  64 101 133 167 238 307 354 426
#     4  11  25  44  67 102 141 185 239 297 382 448
#     4  12  21  40  72 100 140 186 242 305 365 454
#     4  10  20  36  59  95 126 168 228 282 348 430
#     4  11  22  41  68 104 137 183 253 303 362 456
#
# _framework density 22.734662
#
# number of rings (size 3 to 8) (size 9 to 14) (size 15 to 20)
#    0.000    1.143    5.714    0.857    2.000    0.000 
#    2.571    7.143    0.000    0.000    0.000    0.000 
#    0.000    0.000    0.000    0.000    0.000    0.000 
#
# Total GULP energy -155917.349495 kJ/mol
# GULP energy per Si atom -5568.476768 kJ/mol
# Density = 2.268292 g / cm^3
# Si number density = 22.734662 Si / 1000 Ang^3
#
#
#
# Elastic Constant Matrix: (Units=GPa)
#
#
# Indices 1 2 3 4 5 6 
#
# 1 29.1295 14.5019 18.1678 0.0000 5.7234 0.0000
# 2 14.5019 122.8734 46.2788 0.0000 9.5578 0.0000
# 3 18.1678 46.2788 143.4677 0.0000 6.8149 0.0000
# 4 0.0000 0.0000 0.0000 39.1768 0.0000 3.1973
# 5 5.7234 9.5578 6.8149 0.0000 35.4742 0.0000
# 6 0.0000 0.0000 0.0000 3.1973 0.0000 32.6833
#
#
#
# Elastic Compliance Matrix: (Units=1/GPa)
#
#
# Indices 1 2 3 4 5 6 
#
# 1 0.039046 -0.002798 -0.003813 0.000000 -0.004813 0.000000
# 2 -0.002798 0.009599 -0.002665 0.000000 -0.001623 0.000000
# 3 -0.003813 -0.002665 0.008325 0.000000 -0.000266 0.000000
# 4 0.000000 0.000000 0.000000 0.025731 0.000000 -0.002517
# 5 -0.004813 -0.001623 -0.000266 0.000000 0.029454 0.000000
# 6 0.000000 0.000000 0.000000 -0.002517 0.000000 0.030843
#
#
# Mechanical properties :
#
#
# Convention : Reuss Voigt Hill
#
# Bulk Modulus (GPa) = 26.02926 50.37419 38.20173
# Shear Modulus (GPa) = 28.67685 35.90166 32.28926
#
# Velocity S-wave (km/s) = 3.55543 3.97818 3.77273
# Velocity P-wave (km/s) = 5.32248 6.58078 5.98479
#
# Compressibility (1/GPa) = 0.03841830
#
# Stress axis : x y z
#
# Youngs Moduli (GPa) = 25.61056 104.18213 120.11461
#
# Poissons Ratio (x) = 0.29147 0.45806
# Poissons Ratio (y) = 0.07165 0.32009
# Poissons Ratio (z) = 0.09767 0.27763
#
# Static dielectric constant tensor:
#      x y z
#    x 1.474850 0.000000 0.055470 
#    y 0.000000 2.065060 0.000000 
#    z 0.055470 0.000000 2.044400 
# 
# From -- ./inp_files/214041.got.cif
#   From: 2010.05.17/outbox.cif.g08.bks.cpg/sg15_108_cif.got.tgz:214041.got - 2010.06.03 18:47:42.
