data_PCOD9271989
_publ_section_title
;
Structure prediction by ZEFSAII (Michael W. Deem and Ramdas Pophale) SiO2 
 PCOD9271989
Probable space group: C 2/C
;
_chemical_formula_sum "Si O2"
_cell_formula_units_Z 48
_cell_length_a 7.264234
_cell_length_b 32.220814
_cell_length_c 9.855467
_cell_angle_alpha 90.000000
_cell_angle_beta 81.395875
_cell_angle_gamma 90.000000
_cell_volume 2280.804761
_symmetry_space_group_name_H-M "C 2/C"
_symmetry_group_IT_number 15
_symmetry_cell_setting 'monoclinic'
loop_
_space_group_symop_operation_xyz
x,y,z
-x,y,1/2-z
-x,-y,-z
x,-y,1/2+z
1/2+x,1/2+y,z
1/2-x,1/2+y,1/2-z
1/2-x,1/2-y,-z
1/2+x,1/2-y,1/2+z
loop_
_atom_site_type_symbol
_atom_site_label
_atom_site_fract_x
_atom_site_fract_y
_atom_site_fract_z
Si Si1 0.025366 0.459576 0.406485
Si Si2 0.223076 0.352639 0.738295
Si Si3 0.678885 0.398111 0.031474
Si Si4 0.212429 0.261096 0.663361
Si Si5 0.739418 0.614720 0.968417
Si Si6 0.727688 0.672474 0.729908
O O1 0.221917 0.438033 0.418656
O O2 0.000000 0.468451 0.250000
O O3 0.000000 0.500000 0.500000
O O4 0.877197 0.423839 0.461364
O O5 0.286678 0.388724 0.629719
O O6 0.291750 0.306797 0.685929
O O7 0.000000 0.352147 0.750000
O O8 0.280285 0.363759 0.884022
O O9 0.457894 0.399988 0.069897
O O10 0.764376 0.357717 0.098602
O O11 0.250000 0.250000 0.500000
O O12 0.293867 0.219610 0.721567
O O13 0.000000 0.263235 0.750000
O O14 0.801637 0.649152 0.853627
O O15 0.500000 0.674871 0.750000
#
# Coordination Sequence:
#
# PCOD9271989 Si02
#       6
#     8   8   8   8   8   8
#     4  12  28  47  73 104 137 173 227 290 354 428
#     4  11  22  38  67  99 139 184 239 286 348 407
#     4  11  22  44  71  94 135 185 225 285 344 427
#     4  10  20  36  62  98 141 188 241 301 346 413
#     4  11  24  43  70  99 131 188 232 281 355 421
#     4   9  19  38  65  92 133 182 236 278 344 409
#
# _framework density 21.045202
#
# number of rings (size 3 to 8) (size 9 to 14) (size 15 to 20)
#    0.000    1.333    5.000    0.500    2.333    1.333 
#    0.000    0.000    7.333    0.000    0.000    0.000 
#    0.000    0.000    0.000    0.000    0.000    0.000 
#
# Total GULP energy -134006.738132 kJ/mol
# GULP energy per Si atom -5583.614089 kJ/mol
# Density = 2.099730 g / cm^3
# Si number density = 21.045202 Si / 1000 Ang^3
#
#
#
# Elastic Constant Matrix: (Units=GPa)
#
#
# Indices 1 2 3 4 5 6 
#
# 1 81.0747 21.1438 16.5833 0.0000 15.0087 0.0000
# 2 21.1438 129.3907 61.1950 0.0000 14.1998 0.0000
# 3 16.5833 61.1950 157.5007 0.0000 10.9268 0.0000
# 4 0.0000 0.0000 0.0000 42.2660 0.0000 3.0802
# 5 15.0087 14.1998 10.9268 0.0000 29.2383 0.0000
# 6 0.0000 0.0000 0.0000 3.0802 0.0000 26.7363
#
#
#
# Elastic Compliance Matrix: (Units=1/GPa)
#
#
# Indices 1 2 3 4 5 6 
#
# 1 0.013960 -0.001347 -0.000508 0.000000 -0.006322 0.000000
# 2 -0.001347 0.009921 -0.003518 0.000000 -0.002812 0.000000
# 3 -0.000508 -0.003518 0.007836 0.000000 -0.000959 0.000000
# 4 0.000000 0.000000 0.000000 0.023860 0.000000 -0.002749
# 5 -0.006322 -0.002812 -0.000959 0.000000 0.039171 0.000000
# 6 0.000000 0.000000 0.000000 -0.002749 0.000000 0.037719
#
#
# Mechanical properties :
#
#
# Convention : Reuss Voigt Hill
#
# Bulk Modulus (GPa) = 47.68432 62.86782 55.27607
# Shear Modulus (GPa) = 33.28830 37.58439 35.43635
#
# Velocity S-wave (km/s) = 3.98144 4.23056 4.10789
# Velocity P-wave (km/s) = 6.62141 7.33493 6.98728
#
# Compressibility (1/GPa) = 0.02097125
#
# Stress axis : x y z
#
# Youngs Moduli (GPa) = 71.63407 100.79636 127.61649
#
# Poissons Ratio (x) = 0.13580 0.06480
# Poissons Ratio (y) = 0.09651 0.44892
# Poissons Ratio (z) = 0.03638 0.35458
#
# Static dielectric constant tensor:
#      x y z
#    x 1.815080 0.000000 -0.023960 
#    y 0.000000 1.726280 0.000000 
#    z -0.023960 0.000000 1.726090 
# 
# From -- ./inp_files/26070.got.cif
#   From: 2010.05.17/outbox.cif.g08.bks.cpg/sg15_14_cif.got.tgz:26070.got - 2010.06.03 18:47:42.
