data_PCOD9271625
_publ_section_title
;
Structure prediction by ZEFSAII (Michael W. Deem and Ramdas Pophale) SiO2 
 PCOD9271625
Probable space group: C 2/C
;
_chemical_formula_sum "Si O2"
_cell_formula_units_Z 56
_cell_length_a 18.986746
_cell_length_b 17.777483
_cell_length_c 15.298944
_cell_angle_alpha 90.000000
_cell_angle_beta 142.689422
_cell_angle_gamma 90.000000
_cell_volume 3130.053852
_symmetry_space_group_name_H-M "C 2/C"
_symmetry_group_IT_number 15
_symmetry_cell_setting 'monoclinic'
loop_
_space_group_symop_operation_xyz
x,y,z
-x,y,1/2-z
-x,-y,-z
x,-y,1/2+z
1/2+x,1/2+y,z
1/2-x,1/2+y,1/2-z
1/2-x,1/2-y,-z
1/2+x,1/2-y,1/2+z
loop_
_atom_site_type_symbol
_atom_site_label
_atom_site_fract_x
_atom_site_fract_y
_atom_site_fract_z
Si Si1 0.511490 0.596682 0.665506
Si Si2 0.170683 0.600479 0.086264
Si Si3 0.766245 0.662119 0.539524
Si Si4 0.917552 0.661916 0.864051
Si Si5 0.735653 0.564229 0.781296
Si Si6 0.076818 0.068976 0.452452
Si Si7 0.102353 0.835093 0.617346
O O1 0.500000 0.631015 0.750000
O O2 0.644515 0.590293 0.764661
O O3 0.460545 0.511934 0.619112
O O4 0.440452 0.639625 0.520119
O O5 0.204848 0.514228 0.135873
O O6 0.262007 0.650759 0.231589
O O7 0.188598 0.621705 0.002685
O O8 0.040016 0.619930 0.983538
O O9 0.750000 0.750000 0.500000
O O10 0.855721 0.655647 0.708355
O O11 0.648476 0.621176 0.456448
O O12 0.831720 0.625111 0.850135
O O13 0.931934 0.749671 0.898384
O O14 0.657841 0.554011 0.617062
O O15 0.965317 0.112704 0.379538
#
# Coordination Sequence:
#
# PCOD9271625 Si02
#       7
#     8   8   8   8   8   8   8
#     4  11  21  38  63  88 111 151 207 259 287 343
#     4  12  21  38  60  85 125 159 194 234 300 360
#     4  11  22  36  58  94 125 154 190 245 295 356
#     4  11  25  38  60  86 124 161 194 239 302 362
#     4  10  21  41  59  85 117 161 198 241 295 361
#     4  10  20  36  60  89 120 152 203 239 301 353
#     4  11  22  38  60  88 117 158 198 247 302 351
#
# _framework density 17.891065999999999
#
# number of rings (size 3 to 8) (size 9 to 14) (size 15 to 20)
#    0.000    1.143    4.286    3.429    4.000    0.000 
#    0.000    0.714    0.000    0.000    0.000    0.000 
#    0.000    0.000    0.000    0.000    0.000    0.000 
#
# Total GULP energy -156499.749585 kJ/mol
# GULP energy per Si atom -5589.276771 kJ/mol
# Density = 1.785035 g / cm^3
# Si number density = 17.891066 Si / 1000 Ang^3
#
#
#
# Elastic Constant Matrix: (Units=GPa)
#
#
# Indices 1 2 3 4 5 6 
#
# 1 90.8813 11.0985 59.0109 0.0000 -2.2615 0.0000
# 2 11.0985 62.1487 29.4217 0.0000 -9.1221 0.0000
# 3 59.0109 29.4217 85.1081 0.0000 14.5371 0.0000
# 4 0.0000 0.0000 0.0000 16.3491 0.0000 -2.1728
# 5 -2.2615 -9.1221 14.5371 0.0000 29.5055 0.0000
# 6 0.0000 0.0000 0.0000 -2.1728 0.0000 25.2488
#
#
#
# Elastic Compliance Matrix: (Units=1/GPa)
#
#
# Indices 1 2 3 4 5 6 
#
# 1 0.025803 0.009125 -0.023875 0.000000 0.016562 0.000000
# 2 0.009125 0.025663 -0.018206 0.000000 0.017604 0.000000
# 3 -0.023875 -0.018206 0.039168 0.000000 -0.026756 0.000000
# 4 0.000000 0.000000 0.000000 0.061873 0.000000 0.005324
# 5 0.016562 0.017604 -0.026756 0.000000 0.053786 0.000000
# 6 0.000000 0.000000 0.000000 0.005324 0.000000 0.040064
#
#
# Mechanical properties :
#
#
# Convention : Reuss Voigt Hill
#
# Bulk Modulus (GPa) = 40.44642 48.57781 44.51211
# Shear Modulus (GPa) = 15.60014 23.46112 19.53063
#
# Velocity S-wave (km/s) = 2.95609 3.62516 3.30758
# Velocity P-wave (km/s) = 5.85725 6.68830 6.28652
#
# Compressibility (1/GPa) = 0.02472407
#
# Stress axis : x y z
#
# Youngs Moduli (GPa) = 38.75461 38.96585 25.53134
#
# Poissons Ratio (x) = -0.35558 0.60955
# Poissons Ratio (y) = -0.35365 0.46482
# Poissons Ratio (z) = 0.92525 0.70941
#
# Static dielectric constant tensor:
#      x y z
#    x 1.607130 0.000000 0.004790 
#    y 0.000000 1.593580 0.000000 
#    z 0.004790 0.000000 1.612970 
# 
# From -- ./inp_files/105808.got.cif
#   From: 2010.05.17/outbox.cif.g08.bks.cpg/sg15_53_cif.got.tgz:105808.got - 2010.06.03 18:47:42.
