data_PCOD9271825
_publ_section_title
;
Structure prediction by ZEFSAII (Michael W. Deem and Ramdas Pophale) SiO2 
 PCOD9271825
Probable space group: C 2/C
;
_chemical_formula_sum "Si O2"
_cell_formula_units_Z 52
_cell_length_a 14.100587
_cell_length_b 30.124967
_cell_length_c 8.981493
_cell_angle_alpha 90.000000
_cell_angle_beta 134.514579
_cell_angle_gamma 90.000000
_cell_volume 2720.481265
_symmetry_space_group_name_H-M "C 2/C"
_symmetry_group_IT_number 15
_symmetry_cell_setting 'monoclinic'
loop_
_space_group_symop_operation_xyz
x,y,z
-x,y,1/2-z
-x,-y,-z
x,-y,1/2+z
1/2+x,1/2+y,z
1/2-x,1/2+y,1/2-z
1/2-x,1/2-y,-z
1/2+x,1/2-y,1/2+z
loop_
_atom_site_type_symbol
_atom_site_label
_atom_site_fract_x
_atom_site_fract_y
_atom_site_fract_z
Si Si1 0.337638 0.960475 0.825705
Si Si2 0.903658 0.973975 0.504003
Si Si3 0.280836 0.728218 0.370073
Si Si4 0.600891 0.380095 0.141140
Si Si5 0.500000 0.001525 0.250000
Si Si6 0.799908 0.874972 0.927714
Si Si7 0.950989 0.781680 0.525932
O O1 0.287041 0.910861 0.752464
O O2 0.225811 0.994935 0.644052
O O3 0.453847 0.967972 0.834785
O O4 0.386720 0.971962 0.045460
O O5 0.869418 0.923749 0.420974
O O6 0.000000 0.000000 0.500000
O O7 0.000000 0.971139 0.750000
O O8 0.250000 0.750000 0.500000
O O9 0.259451 0.675533 0.356954
O O10 0.430002 0.730858 0.461363
O O11 0.174166 0.750407 0.144007
O O12 0.695116 0.381412 0.389116
O O13 0.449707 0.383316 0.034895
O O14 0.599176 0.332209 0.060255
O O15 0.000000 0.778355 0.750000
#
# Coordination Sequence:
#
# PCOD9271825 Si02
#       7
#     8   8   8   8   4   8   8
#     4  11  22  41  60  86 125 167 213 253 310 376
#     4  12  22  35  62  96 122 151 201 261 322 372
#     4  11  22  43  67  94 125 175 218 265 323 393
#     4  10  20  36  61  97 123 158 197 259 331 376
#     4  10  24  42  58  78 126 180 208 246 302 374
#     4  10  20  37  64  89 124 157 209 264 310 373
#     4  11  23  42  65  95 133 165 215 271 331 380
#
# _framework density 19.114263999999999
#
# number of rings (size 3 to 8) (size 9 to 14) (size 15 to 20)
#    0.000    1.231    3.077    4.154    0.000    0.000 
#    4.154    1.538    0.000    0.000    0.000    0.000 
#    0.000    0.000    0.000    0.000    0.000    0.000 
#
# Total GULP energy -145000.662357 kJ/mol
# GULP energy per Si atom -5576.948552 kJ/mol
# Density = 1.907076 g / cm^3
# Si number density = 19.114264 Si / 1000 Ang^3
#
#
#
# Elastic Constant Matrix: (Units=GPa)
#
#
# Indices 1 2 3 4 5 6 
#
# 1 38.8131 14.1291 -14.9691 0.0000 -3.2803 0.0000
# 2 14.1291 121.1959 29.1713 0.0000 8.7425 0.0000
# 3 -14.9691 29.1713 73.2222 0.0000 -7.5811 0.0000
# 4 0.0000 0.0000 0.0000 39.9867 0.0000 -2.2346
# 5 -3.2803 8.7425 -7.5811 0.0000 26.7097 0.0000
# 6 0.0000 0.0000 0.0000 -2.2346 0.0000 25.7497
#
#
#
# Elastic Compliance Matrix: (Units=1/GPa)
#
#
# Indices 1 2 3 4 5 6 
#
# 1 0.033235 -0.007105 0.010600 0.000000 0.009416 0.000000
# 2 -0.007105 0.011112 -0.006539 0.000000 -0.006366 0.000000
# 3 0.010600 -0.006539 0.019354 0.000000 0.008935 0.000000
# 4 0.000000 0.000000 0.000000 0.025130 0.000000 0.002181
# 5 0.009416 -0.006366 0.008935 0.000000 0.043216 0.000000
# 6 0.000000 0.000000 0.000000 0.002181 0.000000 0.039025
#
#
# Mechanical properties :
#
#
# Convention : Reuss Voigt Hill
#
# Bulk Modulus (GPa) = 17.35708 32.21044 24.78376
# Shear Modulus (GPa) = 25.46284 32.14921 28.80602
#
# Velocity S-wave (km/s) = 3.65381 4.10561 3.88628
# Velocity P-wave (km/s) = 5.18660 6.27398 5.75602
#
# Compressibility (1/GPa) = 0.05761339
#
# Stress axis : x y z
#
# Youngs Moduli (GPa) = 30.08893 89.98902 51.66851
#
# Poissons Ratio (x) = 0.63938 -0.54768
# Poissons Ratio (y) = 0.21378 0.33785
# Poissons Ratio (z) = -0.31894 0.58842
#
# Static dielectric constant tensor:
#      x y z
#    x 1.649850 0.000000 0.155030 
#    y 0.000000 1.642230 0.000000 
#    z 0.155030 0.000000 1.021820 
# 
# From -- ./inp_files/43663.got.cif
#   From: 2010.05.17/outbox.cif.g08.bks.cpg/sg15_22_cif.got.tgz:43663.got - 2010.06.03 18:47:42.
