data_PCOD9271049
_publ_section_title
;
Structure prediction by ZEFSAII (Michael W. Deem and Ramdas Pophale) SiO2 
 PCOD9271049
Probable space group: C 2/C
;
_chemical_formula_sum "Si O2"
_cell_formula_units_Z 52
_cell_length_a 31.166011
_cell_length_b 21.311585
_cell_length_c 8.942496
_cell_angle_alpha 90.000000
_cell_angle_beta 27.769538
_cell_angle_gamma 90.000000
_cell_volume 2767.346923
_symmetry_space_group_name_H-M "C 2/C"
_symmetry_group_IT_number 15
_symmetry_cell_setting 'monoclinic'
loop_
_space_group_symop_operation_xyz
x,y,z
-x,y,1/2-z
-x,-y,-z
x,-y,1/2+z
1/2+x,1/2+y,z
1/2-x,1/2+y,1/2-z
1/2-x,1/2-y,-z
1/2+x,1/2-y,1/2+z
loop_
_atom_site_type_symbol
_atom_site_label
_atom_site_fract_x
_atom_site_fract_y
_atom_site_fract_z
Si Si1 0.000000 0.705506 0.750000
Si Si2 0.295124 0.817197 0.811595
Si Si3 0.500000 0.383123 0.250000
Si Si4 0.500000 0.590209 0.250000
Si Si5 0.806341 0.937148 0.227838
Si Si6 0.462966 0.308913 0.099990
Si Si7 0.238867 0.192691 0.148330
Si Si8 0.699127 0.433620 0.613228
O O1 0.100426 0.674143 0.449461
O O2 0.000893 0.750299 0.601784
O O3 0.294726 0.813372 0.631677
O O4 0.250000 0.750000 0.000000
O O5 0.235689 0.874892 0.063576
O O6 0.526722 0.337156 0.031592
O O7 0.408538 0.423201 0.507496
O O8 0.416025 0.558337 0.424030
O O9 0.451318 0.635005 0.519371
O O10 0.767037 0.001049 0.420772
O O11 0.793686 0.935128 0.088407
O O12 0.365387 0.297770 0.473955
O O13 0.247996 0.127382 0.031150
O O14 0.250000 0.250000 0.000000
#
# Coordination Sequence:
#
# PCOD9271049 Si02
#       8
#     4   8   4   4   8   8   8   8
#     4  11  24  38  65  94 125 167 212 258 328 353
#     4  12  23  42  65  94 126 166 210 264 311 375
#     4  10  21  34  57  94 133 162 211 242 317 388
#     4  11  19  36  60  88 128 173 195 254 307 383
#     4  12  24  40  62  88 134 163 220 252 318 380
#     4  10  20  36  56  92 127 165 201 253 309 375
#     4  11  23  39  63  92 129 165 210 255 317 374
#     4  11  25  38  61  92 125 176 203 266 314 380
#
# _framework density 18.790561
#
# number of rings (size 3 to 8) (size 9 to 14) (size 15 to 20)
#    0.000    0.923    4.615    3.231    6.462    1.231 
#    0.000    0.000    0.000    3.692    0.000    0.000 
#    0.000    0.000    0.000    0.000    0.000    0.000 
#
# Total GULP energy -144976.500560 kJ/mol
# GULP energy per Si atom -5576.019252 kJ/mol
# Density = 1.874779 g / cm^3
# Si number density = 18.790561 Si / 1000 Ang^3
#
#
#
# Elastic Constant Matrix: (Units=GPa)
#
#
# Indices 1 2 3 4 5 6 
#
# 1 133.5983 67.1237 33.1898 0.0000 21.9889 0.0000
# 2 67.1237 142.5137 43.7274 0.0000 15.4647 0.0000
# 3 33.1898 43.7274 71.0010 0.0000 4.8877 0.0000
# 4 0.0000 0.0000 0.0000 22.9180 0.0000 -8.8174
# 5 21.9889 15.4647 4.8877 0.0000 42.0020 0.0000
# 6 0.0000 0.0000 0.0000 -8.8174 0.0000 -3.7911
#
#
#
# Elastic Compliance Matrix: (Units=1/GPa)
#
#
# Indices 1 2 3 4 5 6 
#
# 1 0.010651 -0.003884 -0.002320 0.000000 -0.003876 0.000000
# 2 -0.003884 0.010356 -0.004476 0.000000 -0.001259 0.000000
# 3 -0.002320 -0.004476 0.017871 0.000000 0.000783 0.000000
# 4 0.000000 0.000000 0.000000 0.023028 0.000000 -0.053559
# 5 -0.003876 -0.001259 0.000783 0.000000 0.026210 0.000000
# 6 0.000000 0.000000 0.000000 -0.053559 0.000000 -0.139209
#
#
# Mechanical properties :
#
#
# Convention : Reuss Voigt Hill
#
# Bulk Modulus (GPa) = 57.08126 70.57719 63.82923
# Shear Modulus (GPa) = -209.26312 25.76391 -91.74960
#
# Velocity S-wave (km/s) = -10.56446 3.70687 -6.99525
# Velocity P-wave (km/s) = 10.87966 7.48082 5.58589
#
# Compressibility (1/GPa) = 0.01751888
#
# Stress axis : x y z
#
# Youngs Moduli (GPa) = 93.88886 96.56064 55.95549
#
# Poissons Ratio (x) = 0.37506 0.12981
# Poissons Ratio (y) = 0.36468 0.25044
# Poissons Ratio (z) = 0.21781 0.43218
#
# Static dielectric constant tensor:
#      x y z
#    x 1.754220 0.000000 -0.002750 
#    y 0.000000 1.675590 0.000000 
#    z -0.002750 0.000000 1.632950 
# 
# From -- ./inp_files/49253.got.cif
#   From: 2010.05.17/outbox.cif.g08.bks.cpg/sg15_25_cif.got.tgz:49253.got - 2010.06.03 18:47:42.
