data_PCOD9271245
_publ_section_title
;
Structure prediction by ZEFSAII (Michael W. Deem and Ramdas Pophale) SiO2 
 PCOD9271245
Probable space group: C 2/C
;
_chemical_formula_sum "Si O2"
_cell_formula_units_Z 48
_cell_length_a 10.506005
_cell_length_b 20.335289
_cell_length_c 10.143729
_cell_angle_alpha 90.000000
_cell_angle_beta 85.994085
_cell_angle_gamma 90.000000
_cell_volume 2161.838478
_symmetry_space_group_name_H-M "C 2/C"
_symmetry_group_IT_number 15
_symmetry_cell_setting 'monoclinic'
loop_
_space_group_symop_operation_xyz
x,y,z
-x,y,1/2-z
-x,-y,-z
x,-y,1/2+z
1/2+x,1/2+y,z
1/2-x,1/2+y,1/2-z
1/2-x,1/2-y,-z
1/2+x,1/2-y,1/2+z
loop_
_atom_site_type_symbol
_atom_site_label
_atom_site_fract_x
_atom_site_fract_y
_atom_site_fract_z
Si Si1 0.954020 0.755479 0.958455
Si Si2 0.233145 0.275909 0.778599
Si Si3 0.353757 0.915765 0.716046
Si Si4 0.551304 0.891435 0.072619
Si Si5 0.194491 0.442246 0.312561
Si Si6 0.888434 0.837925 0.368893
O O1 0.869344 0.775357 0.839504
O O2 0.004872 0.682188 0.927614
O O3 0.863183 0.742462 0.093296
O O4 0.050180 0.811176 0.000736
O O5 0.199564 0.347638 0.724053
O O6 0.204801 0.220154 0.674550
O O7 0.500000 0.924054 0.750000
O O8 0.361779 0.903223 0.559437
O O9 0.281206 0.984104 0.739645
O O10 0.642066 0.900954 0.191595
O O11 0.431751 0.940788 0.086688
O O12 0.309536 0.405189 0.373897
O O13 0.000000 0.844539 0.250000
#
# Coordination Sequence:
#
# PCOD9271245 Si02
#       6
#     8   8   8   8   8   8
#     4   9  17  32  57  79 107 148 183 233 277 329
#     4   9  17  32  55  81 108 141 190 235 268 328
#     4  11  21  35  58  86 111 151 193 238 285 335
#     4  10  20  37  58  83 117 146 188 238 292 332
#     4  11  22  35  58  86 116 151 184 241 291 331
#     4  10  20  36  58  85 110 150 198 228 282 345
#
# _framework density 22.203323000000001
#
# number of rings (size 3 to 8) (size 9 to 14) (size 15 to 20)
#    0.000    2.000    3.333    3.000    2.333    0.667 
#    0.000    0.833    0.000    0.000    0.000    0.000 
#    0.000    0.000    0.000    0.000    0.000    0.000 
#
# Total GULP energy -134120.363595 kJ/mol
# GULP energy per Si atom -5588.348483 kJ/mol
# Density = 2.215279 g / cm^3
# Si number density = 22.203323 Si / 1000 Ang^3
#
#
#
# Elastic Constant Matrix: (Units=GPa)
#
#
# Indices 1 2 3 4 5 6 
#
# 1 67.7546 36.0436 19.9035 0.0000 23.6416 0.0000
# 2 36.0436 127.1188 1.7542 0.0000 29.9808 0.0000
# 3 19.9035 1.7542 34.3487 0.0000 14.2746 0.0000
# 4 0.0000 0.0000 0.0000 21.6766 0.0000 7.6825
# 5 23.6416 29.9808 14.2746 0.0000 35.4380 0.0000
# 6 0.0000 0.0000 0.0000 7.6825 0.0000 32.0778
#
#
#
# Elastic Compliance Matrix: (Units=1/GPa)
#
#
# Indices 1 2 3 4 5 6 
#
# 1 0.022614 -0.004565 -0.009856 0.000000 -0.007254 0.000000
# 2 -0.004565 0.011123 0.005671 0.000000 -0.008649 0.000000
# 3 -0.009856 0.005671 0.040591 0.000000 -0.014573 0.000000
# 4 0.000000 0.000000 0.000000 0.050412 0.000000 -0.012073
# 5 -0.007254 -0.008649 -0.014573 0.000000 0.046245 0.000000
# 6 0.000000 0.000000 0.000000 -0.012073 0.000000 0.034066
#
#
# Mechanical properties :
#
#
# Convention : Reuss Voigt Hill
#
# Bulk Modulus (GPa) = 17.59681 38.29163 27.94422
# Shear Modulus (GPa) = 20.70460 29.27319 24.98890
#
# Velocity S-wave (km/s) = 3.05700 3.63494 3.35842
# Velocity P-wave (km/s) = 4.51695 5.90765 5.25848
#
# Compressibility (1/GPa) = 0.05682847
#
# Stress axis : x y z
#
# Youngs Moduli (GPa) = 44.21994 89.90700 24.63604
#
# Poissons Ratio (x) = 0.41044 0.24281
# Poissons Ratio (y) = 0.20187 -0.13972
# Poissons Ratio (z) = 0.43583 -0.50991
#
# Static dielectric constant tensor:
#      x y z
#    x 1.843590 0.000000 -0.055190 
#    y 0.000000 1.825400 0.000000 
#    z -0.055190 0.000000 1.862650 
# 
# From -- ./inp_files/87257.got.cif
#   From: 2010.05.17/outbox.cif.g08.bks.cpg/sg15_44_cif.got.tgz:87257.got - 2010.06.03 18:47:42.
