data_PCOD9271343
_publ_section_title
;
Structure prediction by ZEFSAII (Michael W. Deem and Ramdas Pophale) SiO2 
 PCOD9271343
Probable space group: C 2/C
;
_chemical_formula_sum "Si O2"
_cell_formula_units_Z 60
_cell_length_a 20.646863
_cell_length_b 18.507205
_cell_length_c 12.469779
_cell_angle_alpha 90.000000
_cell_angle_beta 141.670890
_cell_angle_gamma 90.000000
_cell_volume 2955.083745
_symmetry_space_group_name_H-M "C 2/C"
_symmetry_group_IT_number 15
_symmetry_cell_setting 'monoclinic'
loop_
_space_group_symop_operation_xyz
x,y,z
-x,y,1/2-z
-x,-y,-z
x,-y,1/2+z
1/2+x,1/2+y,z
1/2-x,1/2+y,1/2-z
1/2-x,1/2-y,-z
1/2+x,1/2-y,1/2+z
loop_
_atom_site_type_symbol
_atom_site_label
_atom_site_fract_x
_atom_site_fract_y
_atom_site_fract_z
Si Si1 0.410911 0.679288 0.218787
Si Si2 0.264200 0.949602 0.383681
Si Si3 0.000000 0.437026 0.750000
Si Si4 0.569228 0.072005 0.116697
Si Si5 0.457763 0.154492 0.810364
Si Si6 0.590803 0.439608 0.599682
Si Si7 0.308094 0.550740 0.481469
Si Si8 0.254432 0.605640 0.877551
O O1 0.500000 0.658643 0.250000
O O2 0.427565 0.762041 0.273273
O O3 0.418805 0.627769 0.332694
O O4 0.308757 0.670882 0.011420
O O5 0.384800 0.969711 0.569478
O O6 0.206000 0.920001 0.415656
O O7 0.255294 0.899607 0.264892
O O8 0.198289 0.020291 0.270179
O O9 0.029078 0.398432 0.678290
O O10 0.690646 0.055641 0.282335
O O11 0.551011 0.134504 0.009353
O O12 0.500000 0.000000 0.000000
O O13 0.500000 0.133962 0.750000
O O14 0.361245 0.106183 0.724202
O O15 0.500000 0.500000 0.500000
O O16 0.608149 0.420479 0.495923
O O17 0.321795 0.463889 0.502128
#
# Coordination Sequence:
#
# PCOD9271343 Si02
#       8
#     8   8   4   8   8   8   8   8
#     4  11  24  43  60  88 127 172 219 265 321 383
#     4  10  20  36  62  95 125 167 208 272 337 378
#     4  10  20  36  58  92 134 162 198 266 330 394
#     4  11  20  35  60  90 131 162 209 262 319 392
#     4  11  25  38  62  93 129 174 206 259 326 395
#     4  11  23  39  65  91 128 169 223 281 312 383
#     4  10  21  35  61  97 124 162 213 272 330 375
#     4  11  20  40  60  93 129 166 212 265 325 386
#
# _framework density 20.303992999999998
#
# number of rings (size 3 to 8) (size 9 to 14) (size 15 to 20)
#    0.000    1.333    4.000    2.800    2.800    0.000 
#    0.000    0.000    0.000    5.600    0.000    0.000 
#    0.000    0.000    0.000    0.000    0.000    0.000 
#
# Total GULP energy -167114.188239 kJ/mol
# GULP energy per Si atom -5570.472941 kJ/mol
# Density = 2.025778 g / cm^3
# Si number density = 20.303993 Si / 1000 Ang^3
#
#
#
# Elastic Constant Matrix: (Units=GPa)
#
#
# Indices 1 2 3 4 5 6 
#
# 1 179.0840 39.8896 30.4045 0.0000 -43.2026 0.0000
# 2 39.8896 59.7861 35.6168 0.0000 -20.1939 0.0000
# 3 30.4045 35.6168 72.5977 0.0000 -25.4382 0.0000
# 4 0.0000 0.0000 0.0000 22.0992 0.0000 -0.2703
# 5 -43.2026 -20.1939 -25.4382 0.0000 42.6757 0.0000
# 6 0.0000 0.0000 0.0000 -0.2703 0.0000 22.7940
#
#
#
# Elastic Compliance Matrix: (Units=1/GPa)
#
#
# Indices 1 2 3 4 5 6 
#
# 1 0.007850 -0.003395 0.000758 0.000000 0.006792 0.000000
# 2 -0.003395 0.026129 -0.010452 0.000000 0.002697 0.000000
# 3 0.000758 -0.010452 0.021641 0.000000 0.008721 0.000000
# 4 0.000000 0.000000 0.000000 0.045257 0.000000 0.000537
# 5 0.006792 0.002697 0.008721 0.000000 0.036783 0.000000
# 6 0.000000 0.000000 0.000000 0.000537 0.000000 0.043878
#
#
# Mechanical properties :
#
#
# Convention : Reuss Voigt Hill
#
# Bulk Modulus (GPa) = 33.96553 58.14330 46.05441
# Shear Modulus (GPa) = 22.98529 31.21757 27.10143
#
# Velocity S-wave (km/s) = 3.36826 3.92536 3.65743
# Velocity P-wave (km/s) = 5.64727 7.01735 6.36926
#
# Compressibility (1/GPa) = 0.02944161
#
# Stress axis : x y z
#
# Youngs Moduli (GPa) = 127.38737 38.27143 46.20883
#
# Poissons Ratio (x) = 0.12993 -0.03502
# Poissons Ratio (y) = 0.43246 0.48299
# Poissons Ratio (z) = -0.09655 0.40002
#
# Static dielectric constant tensor:
#      x y z
#    x 1.743490 0.000000 -0.049730 
#    y 0.000000 1.706090 0.000000 
#    z -0.049730 0.000000 1.790830 
# 
# From -- ./inp_files/113836.got.cif
#   From: 2010.05.17/outbox.cif.g08.bks.cpg/sg15_57_cif.got.tgz:113836.got - 2010.06.03 18:47:42.
