data_PCOD9271118
_publ_section_title
;
Structure prediction by ZEFSAII (Michael W. Deem and Ramdas Pophale) SiO2 
 PCOD9271118
Probable space group: C 2/C
;
_chemical_formula_sum "Si O2"
_cell_formula_units_Z 40
_cell_length_a 16.487401
_cell_length_b 18.711979
_cell_length_c 8.798417
_cell_angle_alpha 90.000000
_cell_angle_beta 139.071697
_cell_angle_gamma 90.000000
_cell_volume 1778.252458
_symmetry_space_group_name_H-M "C 2/C"
_symmetry_group_IT_number 15
_symmetry_cell_setting 'monoclinic'
loop_
_space_group_symop_operation_xyz
x,y,z
-x,y,1/2-z
-x,-y,-z
x,-y,1/2+z
1/2+x,1/2+y,z
1/2-x,1/2+y,1/2-z
1/2-x,1/2-y,-z
1/2+x,1/2-y,1/2+z
loop_
_atom_site_type_symbol
_atom_site_label
_atom_site_fract_x
_atom_site_fract_y
_atom_site_fract_z
Si Si1 0.854308 0.079945 0.561646
Si Si2 0.786459 0.523744 0.855301
Si Si3 0.025565 0.741687 0.950310
Si Si4 0.779713 0.794866 0.751784
Si Si5 0.377979 0.894280 0.195355
O O1 0.796437 0.066336 0.642871
O O2 0.797897 0.149950 0.410845
O O3 0.000000 0.083496 0.750000
O O4 0.807398 0.017621 0.386002
O O5 0.856587 0.574003 0.834182
O O6 0.863952 0.463697 0.062565
O O7 0.915855 0.766011 0.904640
O O8 0.999766 0.655742 0.895279
O O9 0.000000 0.775747 0.750000
O O10 0.171589 0.755072 0.167574
O O11 0.721093 0.836554 0.519201
#
# Coordination Sequence:
#
# PCOD9271118 Si02
#       5
#     8   8   8   8   8
#     4  10  20  36  57  85 119 154 192 237 288 345
#     4   9  19  36  57  86 118 153 190 233 289 349
#     4  10  20  39  61  86 115 154 198 238 286 348
#     4  10  22  39  61  86 114 153 199 241 286 341
#     4   9  18  36  60  85 115 150 191 237 286 345
#
# _framework density 22.493995999999999
#
# number of rings (size 3 to 8) (size 9 to 14) (size 15 to 20)
#    0.000    2.400    0.000    3.000    0.000    3.200 
#    0.000   38.000    0.000    0.000    0.000    0.000 
#    0.000    0.000    0.000    0.000    0.000    0.000 
#
# Total GULP energy -111357.722739 kJ/mol
# GULP energy per Si atom -5567.886137 kJ/mol
# Density = 2.244280 g / cm^3
# Si number density = 22.493996 Si / 1000 Ang^3
#
#
#
# Elastic Constant Matrix: (Units=GPa)
#
#
# Indices 1 2 3 4 5 6 
#
# 1 98.3467 20.1823 61.8357 0.0000 -5.2829 0.0000
# 2 20.1823 35.8043 1.9587 0.0000 -8.3248 0.0000
# 3 61.8357 1.9587 21.0892 0.0000 -7.4895 0.0000
# 4 0.0000 0.0000 0.0000 -3.4481 0.0000 17.6038
# 5 -5.2829 -8.3248 -7.4895 0.0000 39.0659 0.0000
# 6 0.0000 0.0000 0.0000 17.6038 0.0000 55.1664
#
#
#
# Elastic Compliance Matrix: (Units=1/GPa)
#
#
# Indices 1 2 3 4 5 6 
#
# 1 -0.009994 0.005268 0.030834 0.000000 0.005682 0.000000
# 2 0.005268 0.026614 -0.016795 0.000000 0.003164 0.000000
# 3 0.030834 -0.016795 -0.044232 0.000000 -0.007889 0.000000
# 4 0.000000 0.000000 0.000000 -0.110307 0.000000 0.035200
# 5 0.005682 0.003164 -0.007889 0.000000 0.025528 0.000000
# 6 0.000000 0.000000 0.000000 0.035200 0.000000 0.006895
#
#
# Mechanical properties :
#
#
# Convention : Reuss Voigt Hill
#
# Bulk Modulus (GPa) = 90.89408 35.91040 63.40224
# Shear Modulus (GPa) = -35.60170 22.90773 -6.34699
#
# Velocity S-wave (km/s) = -3.98266 3.19469 -1.68159
# Velocity P-wave (km/s) = 4.39854 5.44124 4.94744
#
# Compressibility (1/GPa) = 0.01100182
#
# Stress axis : x y z
#
# Youngs Moduli (GPa) = -100.05511 37.57357 -22.60820
#
# Poissons Ratio (x) = -0.19794 0.69709
# Poissons Ratio (y) = 0.52711 -0.37970
# Poissons Ratio (z) = 3.08506 0.63105
#
# Static dielectric constant tensor:
#      x y z
#    x 2.037510 0.000000 0.022730 
#    y 0.000000 1.898310 0.000000 
#    z 0.022730 0.000000 1.869500 
# 
# From -- ./inp_files/50465.got.cif
#   From: 2010.05.17/outbox.cif.g08.bks.cpg/sg15_26_cif.got.tgz:50465.got - 2010.06.03 18:47:42.
