data_PCOD9271645
_publ_section_title
;
Structure prediction by ZEFSAII (Michael W. Deem and Ramdas Pophale) SiO2 
 PCOD9271645
Probable space group: C 2/C
;
_chemical_formula_sum "Si O2"
_cell_formula_units_Z 56
_cell_length_a 31.501048
_cell_length_b 5.767468
_cell_length_c 14.570668
_cell_angle_alpha 90.000000
_cell_angle_beta 94.392928
_cell_angle_gamma 90.000000
_cell_volume 2639.440746
_symmetry_space_group_name_H-M "C 2/C"
_symmetry_group_IT_number 15
_symmetry_cell_setting 'monoclinic'
loop_
_space_group_symop_operation_xyz
x,y,z
-x,y,1/2-z
-x,-y,-z
x,-y,1/2+z
1/2+x,1/2+y,z
1/2-x,1/2+y,1/2-z
1/2-x,1/2-y,-z
1/2+x,1/2-y,1/2+z
loop_
_atom_site_type_symbol
_atom_site_label
_atom_site_fract_x
_atom_site_fract_y
_atom_site_fract_z
Si Si1 0.557250 0.727908 0.518096
Si Si2 0.491734 0.553450 0.650633
Si Si3 0.076383 0.390241 0.898142
Si Si4 0.706216 0.847146 0.031421
Si Si5 0.773094 0.501717 0.273356
Si Si6 0.158623 0.623050 0.862568
Si Si7 0.859839 0.007177 0.514646
O O1 0.533241 0.647646 0.604839
O O2 0.533451 0.600867 0.428431
O O3 0.607559 0.666633 0.529870
O O4 0.555853 0.992978 0.485161
O O5 0.500000 0.436466 0.750000
O O6 0.460580 0.770963 0.665012
O O7 0.108240 0.564706 0.851287
O O8 0.108101 0.195861 0.940034
O O9 0.715563 0.011059 0.117907
O O10 0.750000 0.750000 0.000000
O O11 0.675645 0.631163 0.052087
O O12 0.681458 0.980210 0.947572
O O13 0.753899 0.756278 0.242889
O O14 0.815518 0.445843 0.222391
O O15 0.161811 0.884102 0.901186
#
# Coordination Sequence:
#
# PCOD9271645 Si02
#       7
#     8   8   8   8   8   8   8
#     4   9  19  39  60  84 124 162 203 267 320 384
#     4  10  20  36  60  90 121 161 209 255 322 396
#     4   9  19  39  60  86 119 161 203 266 322 378
#     4  11  22  41  65  90 126 173 216 265 326 391
#     4  12  27  43  66  99 132 173 223 277 330 391
#     4  10  22  42  65  90 129 166 214 270 325 388
#     4   9  20  39  62  87 120 164 213 265 326 381
#
# _framework density 21.216612999999999
#
# number of rings (size 3 to 8) (size 9 to 14) (size 15 to 20)
#    0.000    2.000    1.429    1.286    4.000    1.714 
#   15.429    0.000    0.000    0.000    0.000    0.000 
#    0.000    0.000    0.000    0.000    0.000    0.000 
#
# Total GULP energy -156071.481497 kJ/mol
# GULP energy per Si atom -5573.981482 kJ/mol
# Density = 2.116832 g / cm^3
# Si number density = 21.216613 Si / 1000 Ang^3
#
#
#
# Elastic Constant Matrix: (Units=GPa)
#
#
# Indices 1 2 3 4 5 6 
#
# 1 86.2219 4.5434 17.1459 0.0000 -9.2876 0.0000
# 2 4.5434 56.6783 -8.5067 0.0000 0.3183 0.0000
# 3 17.1459 -8.5067 83.9780 0.0000 -11.9091 0.0000
# 4 0.0000 0.0000 0.0000 19.7471 0.0000 -5.9932
# 5 -9.2876 0.3183 -11.9091 0.0000 24.7335 0.0000
# 6 0.0000 0.0000 0.0000 -5.9932 0.0000 21.2623
#
#
#
# Elastic Compliance Matrix: (Units=1/GPa)
#
#
# Indices 1 2 3 4 5 6 
#
# 1 0.012495 -0.001348 -0.002168 0.000000 0.003665 0.000000
# 2 -0.001348 0.018072 0.002148 0.000000 0.000296 0.000000
# 3 -0.002168 0.002148 0.013361 0.000000 0.005592 0.000000
# 4 0.000000 0.000000 0.000000 0.055378 0.000000 0.015609
# 5 0.003665 0.000296 0.005592 0.000000 0.044496 0.000000
# 6 0.000000 0.000000 0.000000 0.015609 0.000000 0.051431
#
#
# Mechanical properties :
#
#
# Convention : Reuss Voigt Hill
#
# Bulk Modulus (GPa) = 24.27613 28.13817 26.20715
# Shear Modulus (GPa) = 23.61842 27.39497 25.50669
#
# Velocity S-wave (km/s) = 3.34009 3.59723 3.47104
# Velocity P-wave (km/s) = 5.13243 5.52671 5.33321
#
# Compressibility (1/GPa) = 0.04119272
#
# Stress axis : x y z
#
# Youngs Moduli (GPa) = 80.03254 55.33382 74.84472
#
# Poissons Ratio (x) = 0.07457 0.16225
# Poissons Ratio (y) = 0.10785 -0.16074
# Poissons Ratio (z) = 0.17349 -0.11884
#
# Static dielectric constant tensor:
#      x y z
#    x 1.788700 0.000000 -0.005610 
#    y 0.000000 1.943910 0.000000 
#    z -0.005610 0.000000 1.763580 
# 
# From -- ./inp_files/180125.got.cif
#   From: 2010.05.17/outbox.cif.g08.bks.cpg/sg15_91_cif.got.tgz:180125.got - 2010.06.03 18:47:42.
