data_PCOD9271512
_publ_section_title
;
Structure prediction by ZEFSAII (Michael W. Deem and Ramdas Pophale) SiO2 
 PCOD9271512
Probable space group: C 2/C
;
_chemical_formula_sum "Si O2"
_cell_formula_units_Z 52
_cell_length_a 14.675365
_cell_length_b 23.649344
_cell_length_c 7.793441
_cell_angle_alpha 90.000000
_cell_angle_beta 91.387493
_cell_angle_gamma 90.000000
_cell_volume 2704.020053
_symmetry_space_group_name_H-M "C 2/C"
_symmetry_group_IT_number 15
_symmetry_cell_setting 'monoclinic'
loop_
_space_group_symop_operation_xyz
x,y,z
-x,y,1/2-z
-x,-y,-z
x,-y,1/2+z
1/2+x,1/2+y,z
1/2-x,1/2+y,1/2-z
1/2-x,1/2-y,-z
1/2+x,1/2-y,1/2+z
loop_
_atom_site_type_symbol
_atom_site_label
_atom_site_fract_x
_atom_site_fract_y
_atom_site_fract_z
Si Si1 0.000000 0.328599 0.750000
Si Si2 0.682884 0.156471 0.443521
Si Si3 0.088812 0.118034 0.644909
Si Si4 0.195137 0.938108 0.440624
Si Si5 0.046170 0.770175 0.006836
Si Si6 0.644594 0.730154 0.153465
Si Si7 0.398455 0.548490 0.200818
O O1 0.093081 0.354752 0.825792
O O2 0.034023 0.288739 0.597888
O O3 0.712254 0.094688 0.510649
O O4 0.662836 0.206477 0.581905
O O5 0.769548 0.187909 0.355615
O O6 0.091841 0.185214 0.634312
O O7 0.089001 0.094066 0.451174
O O8 0.000000 0.101735 0.750000
O O9 0.167036 0.094693 0.767356
O O10 0.138625 0.931125 0.616564
O O11 0.171308 0.002283 0.381900
O O12 0.107386 0.765520 0.842900
O O13 0.944224 0.792105 0.955468
O O14 0.500000 0.525368 0.250000
#
# Coordination Sequence:
#
# PCOD9271512 Si02
#       7
#     4   8   8   8   8   8   8
#     4  10  22  40  60  84 122 162 208 258 304 356
#     4  10  22  40  59  85 121 162 209 259 306 360
#     4  12  22  34  60  89 130 170 194 235 308 381
#     4  12  24  40  57  86 123 162 208 255 302 369
#     4  10  20  36  59  94 127 163 195 242 307 376
#     4   9  20  37  60  89 125 161 204 243 299 384
#     4  12  24  39  59  90 126 160 204 249 312 382
#
# _framework density 19.230627999999999
#
# number of rings (size 3 to 8) (size 9 to 14) (size 15 to 20)
#    0.000    1.231    3.846    2.769    6.462    0.615 
#    2.769    0.000    0.000    0.923    0.000    0.000 
#    0.000    0.000    0.000    0.000    0.000    0.000 
#
# Total GULP energy -144831.240924 kJ/mol
# GULP energy per Si atom -5570.432343 kJ/mol
# Density = 1.918686 g / cm^3
# Si number density = 19.230628 Si / 1000 Ang^3
#
#
#
# Elastic Constant Matrix: (Units=GPa)
#
#
# Indices 1 2 3 4 5 6 
#
# 1 70.6004 24.7314 17.2103 0.0000 9.4807 0.0000
# 2 24.7314 45.4122 1.9057 0.0000 6.5585 0.0000
# 3 17.2103 1.9057 90.7261 0.0000 -13.1480 0.0000
# 4 0.0000 0.0000 0.0000 9.4355 0.0000 -2.8689
# 5 9.4807 6.5585 -13.1480 0.0000 33.7153 0.0000
# 6 0.0000 0.0000 0.0000 -2.8689 0.0000 4.9398
#
#
#
# Elastic Compliance Matrix: (Units=1/GPa)
#
#
# Indices 1 2 3 4 5 6 
#
# 1 0.019228 -0.009546 -0.004199 0.000000 -0.005187 0.000000
# 2 -0.009546 0.027517 0.000897 0.000000 -0.002318 0.000000
# 3 -0.004199 0.000897 0.012661 0.000000 0.005944 0.000000
# 4 0.000000 0.000000 0.000000 0.128712 0.000000 0.074753
# 5 -0.005187 -0.002318 0.005944 0.000000 0.033888 0.000000
# 6 0.000000 0.000000 0.000000 0.074753 0.000000 0.245851
#
#
# Mechanical properties :
#
#
# Convention : Reuss Voigt Hill
#
# Bulk Modulus (GPa) = 29.66495 32.71483 31.18989
# Shear Modulus (GPa) = 9.90511 20.47755 15.19133
#
# Velocity S-wave (km/s) = 2.27198 3.26673 2.81366
# Velocity P-wave (km/s) = 4.72672 5.59263 5.17781
#
# Compressibility (1/GPa) = 0.03370982
#
# Stress axis : x y z
#
# Youngs Moduli (GPa) = 52.00618 36.34160 78.98147
#
# Poissons Ratio (x) = 0.34693 0.33163
# Poissons Ratio (y) = 0.49647 -0.07084
# Poissons Ratio (z) = 0.21836 -0.03260
#
# Static dielectric constant tensor:
#      x y z
#    x 1.723440 0.000000 0.030210 
#    y 0.000000 1.711040 0.000000 
#    z 0.030210 0.000000 1.691400 
# 
# From -- ./inp_files/40879.got.cif
#   From: 2010.05.17/outbox.cif.g08.bks.cpg/sg15_21_cif.got.tgz:40879.got - 2010.06.03 18:47:42.
