data_PCOD9271822
_publ_section_title
;
Structure prediction by ZEFSAII (Michael W. Deem and Ramdas Pophale) SiO2 
 PCOD9271822
Probable space group: C 2/C
;
_chemical_formula_sum "Si O2"
_cell_formula_units_Z 44
_cell_length_a 12.272480
_cell_length_b 13.790743
_cell_length_c 10.644486
_cell_angle_alpha 90.000000
_cell_angle_beta 116.857761
_cell_angle_gamma 90.000000
_cell_volume 1607.212270
_symmetry_space_group_name_H-M "C 2/C"
_symmetry_group_IT_number 15
_symmetry_cell_setting 'monoclinic'
loop_
_space_group_symop_operation_xyz
x,y,z
-x,y,1/2-z
-x,-y,-z
x,-y,1/2+z
1/2+x,1/2+y,z
1/2-x,1/2+y,1/2-z
1/2-x,1/2-y,-z
1/2+x,1/2-y,1/2+z
loop_
_atom_site_type_symbol
_atom_site_label
_atom_site_fract_x
_atom_site_fract_y
_atom_site_fract_z
Si Si1 0.759058 0.856147 0.843322
Si Si2 0.831446 0.876598 0.613940
Si Si3 0.000000 0.416139 0.750000
Si Si4 0.055636 0.606034 0.906744
Si Si5 0.512418 0.287200 0.028656
Si Si6 0.603698 0.470725 0.160004
O O1 0.793382 0.819018 0.720788
O O2 0.871354 0.814348 0.979480
O O3 0.620164 0.850194 0.808511
O O4 0.781098 0.972855 0.840966
O O5 0.882297 0.978113 0.696480
O O6 0.000000 0.649845 0.750000
O O7 0.929737 0.828431 0.574207
O O8 0.011654 0.495060 0.869760
O O9 0.201921 0.610931 0.980678
O O10 0.018672 0.673619 0.004454
O O11 0.592137 0.355399 0.162673
O O12 0.500000 0.500000 0.000000
#
# Coordination Sequence:
#
# PCOD9271822 Si02
#       6
#     8   8   4   8   8   8
#     4   9  20  36  58  90 133 178 218 265 323 414
#     4  10  20  36  61  96 133 171 219 281 339 391
#     4  10  22  40  56  98 136 178 218 260 342 402
#     4  10  23  36  63  99 140 169 212 292 347 388
#     4  11  19  39  66 104 132 165 230 290 338 378
#     4   8  19  32  57  91 128 168 210 273 329 393
#
# _framework density 27.376594000000001
#
# number of rings (size 3 to 8) (size 9 to 14) (size 15 to 20)
#    1.636    0.727    0.000    3.273    0.000    0.727 
#    0.000    0.000    0.000    1.091    4.727    1.273 
#    0.000    0.000    0.000    0.000    0.000    0.000 
#
# Total GULP energy -122624.109986 kJ/mol
# GULP energy per Si atom -5573.823181 kJ/mol
# Density = 2.731428 g / cm^3
# Si number density = 27.376594 Si / 1000 Ang^3
#
#
#
# Elastic Constant Matrix: (Units=GPa)
#
#
# Indices 1 2 3 4 5 6 
#
# 1 147.9764 57.4043 51.9452 0.0000 45.0489 0.0000
# 2 57.4043 185.7186 47.9107 0.0000 0.2058 0.0000
# 3 51.9452 47.9107 132.8778 0.0000 15.1414 0.0000
# 4 0.0000 0.0000 0.0000 33.0843 0.0000 -15.5463
# 5 45.0489 0.2058 15.1414 0.0000 55.9852 0.0000
# 6 0.0000 0.0000 0.0000 -15.5463 0.0000 40.6189
#
#
#
# Elastic Compliance Matrix: (Units=1/GPa)
#
#
# Indices 1 2 3 4 5 6 
#
# 1 0.011272 -0.002850 -0.002421 0.000000 -0.008405 0.000000
# 2 -0.002850 0.006675 -0.001601 0.000000 0.002702 0.000000
# 3 -0.002421 -0.001601 0.009107 0.000000 -0.000509 0.000000
# 4 0.000000 0.000000 0.000000 0.036854 0.000000 0.014105
# 5 -0.008405 0.002702 -0.000509 0.000000 0.024753 0.000000
# 6 0.000000 0.000000 0.000000 0.014105 0.000000 0.030018
#
#
# Mechanical properties :
#
#
# Convention : Reuss Voigt Hill
#
# Bulk Modulus (GPa) = 75.12566 86.78812 80.95689
# Shear Modulus (GPa) = 36.53365 46.55851 41.54608
#
# Velocity S-wave (km/s) = 3.65702 4.12839 3.89983
# Velocity P-wave (km/s) = 6.73297 7.38209 7.06499
#
# Compressibility (1/GPa) = 0.01331103
#
# Stress axis : x y z
#
# Youngs Moduli (GPa) = 88.71394 149.80413 109.80215
#
# Poissons Ratio (x) = 0.42698 0.26585
# Poissons Ratio (y) = 0.25286 0.17574
# Poissons Ratio (z) = 0.21479 0.23977
#
# Static dielectric constant tensor:
#      x y z
#    x 2.271500 0.000000 -0.157300 
#    y 0.000000 2.291730 0.000000 
#    z -0.157300 0.000000 2.231400 
# 
# From -- ./inp_files/197435.got.cif
#   From: 2010.05.17/outbox.cif.g08.bks.cpg/sg15_99_cif.got.tgz:197435.got - 2010.06.03 18:47:42.
