data_PCOD9271892
_publ_section_title
;
Structure prediction by ZEFSAII (Michael W. Deem and Ramdas Pophale) SiO2 
 PCOD9271892
Probable space group: C 2/C
;
_chemical_formula_sum "Si O2"
_cell_formula_units_Z 48
_cell_length_a 22.200726
_cell_length_b 6.602704
_cell_length_c 18.890666
_cell_angle_alpha 90.000000
_cell_angle_beta 50.059457
_cell_angle_gamma 90.000000
_cell_volume 2123.088046
_symmetry_space_group_name_H-M "C 2/C"
_symmetry_group_IT_number 15
_symmetry_cell_setting 'monoclinic'
loop_
_space_group_symop_operation_xyz
x,y,z
-x,y,1/2-z
-x,-y,-z
x,-y,1/2+z
1/2+x,1/2+y,z
1/2-x,1/2+y,1/2-z
1/2-x,1/2-y,-z
1/2+x,1/2-y,1/2+z
loop_
_atom_site_type_symbol
_atom_site_label
_atom_site_fract_x
_atom_site_fract_y
_atom_site_fract_z
Si Si1 0.314653 0.640738 0.999751
Si Si2 0.157513 0.969485 0.759345
Si Si3 0.169956 0.366578 0.364600
Si Si4 0.085807 0.620906 0.328999
Si Si5 0.679787 0.873532 0.137283
Si Si6 0.560380 0.895632 0.639981
O O1 0.330286 0.775535 0.057521
O O2 0.270299 0.434394 0.054402
O O3 0.250000 0.750000 0.000000
O O4 0.396389 0.678376 0.898534
O O5 0.141913 0.805998 0.831696
O O6 0.169624 0.850118 0.676353
O O7 0.239574 0.076026 0.717371
O O8 0.092602 0.141665 0.808693
O O9 0.118176 0.559136 0.381265
O O10 0.145320 0.517585 0.226514
O O11 0.996737 0.554208 0.382078
O O12 0.625534 0.936196 0.111756
O O13 0.500000 0.890430 0.750000
#
# Coordination Sequence:
#
# PCOD9271892 Si02
#       6
#     8   8   8   8   8   8
#     4  10  20  38  64  88 124 166 207 264 306 363
#     4  11  19  35  66  97 119 161 204 256 308 370
#     4  11  20  34  62  92 123 157 210 254 304 367
#     4  10  20  36  62  89 124 165 198 254 312 367
#     4   9  19  37  64  89 121 155 209 253 305 366
#     4   9  20  40  61  82 124 165 204 256 316 363
#
# _framework density 22.608578000000001
#
# number of rings (size 3 to 8) (size 9 to 14) (size 15 to 20)
#    0.000    2.000    3.333    1.000    0.000    0.667 
#    0.000   16.667   11.000    0.000    0.000    0.000 
#    0.000    0.000    0.000    0.000    0.000    0.000 
#
# Total GULP energy -133917.178797 kJ/mol
# GULP energy per Si atom -5579.882450 kJ/mol
# Density = 2.255712 g / cm^3
# Si number density = 22.608578 Si / 1000 Ang^3
#
#
#
# Elastic Constant Matrix: (Units=GPa)
#
#
# Indices 1 2 3 4 5 6 
#
# 1 124.1883 18.9468 12.2136 0.0003 1.3484 0.0018
# 2 18.9468 81.9670 5.0548 0.0019 8.7302 -0.0034
# 3 12.2136 5.0548 29.6492 -0.0042 -8.2937 0.0036
# 4 0.0003 0.0019 -0.0042 16.3746 0.0010 3.4861
# 5 1.3484 8.7302 -8.2937 0.0010 29.9960 0.0005
# 6 0.0018 -0.0034 0.0036 3.4861 0.0005 22.0438
#
#
#
# Elastic Compliance Matrix: (Units=1/GPa)
#
#
# Indices 1 2 3 4 5 6 
#
# 1 0.008667 -0.001693 -0.003525 -0.000001 -0.000872 0.000000
# 2 -0.001693 0.013253 -0.002839 -0.000003 -0.004566 0.000003
# 3 -0.003525 -0.002839 0.038952 0.000012 0.011755 -0.000009
# 4 -0.000001 -0.000003 0.000012 0.063198 0.000002 -0.009994
# 5 -0.000872 -0.004566 0.011755 0.000002 0.037956 -0.000004
# 6 0.000000 0.000003 -0.000009 -0.009994 -0.000004 0.046945
#
#
# Mechanical properties :
#
#
# Convention : Reuss Voigt Hill
#
# Bulk Modulus (GPa) = 22.34317 34.24832 28.29574
# Shear Modulus (GPa) = 20.83293 26.98883 23.91088
#
# Velocity S-wave (km/s) = 3.03885 3.45881 3.25561
# Velocity P-wave (km/s) = 4.71348 5.57964 5.16475
#
# Compressibility (1/GPa) = 0.04475641
#
# Stress axis : x y z
#
# Youngs Moduli (GPa) = 115.38336 75.45560 25.67254
#
# Poissons Ratio (x) = 0.12775 0.09050
# Poissons Ratio (y) = 0.19536 0.07289
# Poissons Ratio (z) = 0.40676 0.21424
#
# Static dielectric constant tensor:
#      x y z
#    x 1.863440 0.000000 0.048290 
#    y 0.000000 1.868660 0.000000 
#    z 0.048290 0.000000 1.909440 
# 
# From -- ./inp_files/254256.got.cif
#   From: 2010.05.17/outbox.cif.g08.bks.cpg/sg15_128_cif.got.tgz:254256.got - 2010.06.03 18:47:42.
