data_PCOD9271557
_publ_section_title
;
Structure prediction by ZEFSAII (Michael W. Deem and Ramdas Pophale) SiO2 
 PCOD9271557
Probable space group: C 2/C
;
_chemical_formula_sum "Si O2"
_cell_formula_units_Z 52
_cell_length_a 17.496487
_cell_length_b 15.584924
_cell_length_c 17.244000
_cell_angle_alpha 90.000000
_cell_angle_beta 150.161703
_cell_angle_gamma 90.000000
_cell_volume 2339.557221
_symmetry_space_group_name_H-M "C 2/C"
_symmetry_group_IT_number 15
_symmetry_cell_setting 'monoclinic'
loop_
_space_group_symop_operation_xyz
x,y,z
-x,y,1/2-z
-x,-y,-z
x,-y,1/2+z
1/2+x,1/2+y,z
1/2-x,1/2+y,1/2-z
1/2-x,1/2-y,-z
1/2+x,1/2-y,1/2+z
loop_
_atom_site_type_symbol
_atom_site_label
_atom_site_fract_x
_atom_site_fract_y
_atom_site_fract_z
Si Si1 0.500000 0.716203 0.250000
Si Si2 0.833532 0.440833 0.437107
Si Si3 0.343784 0.659411 0.817181
Si Si4 0.300079 0.706376 0.939531
Si Si5 0.679934 0.654145 0.938885
Si Si6 0.696419 0.333012 0.629573
Si Si7 0.904029 0.619999 0.445261
O O1 0.579068 0.668387 0.392277
O O2 0.359518 0.771760 0.159538
O O3 0.677501 0.425720 0.251181
O O4 0.790564 0.402362 0.481844
O O5 0.896177 0.536364 0.491768
O O6 0.950308 0.386561 0.484664
O O7 0.266211 0.652742 0.832838
O O8 0.283279 0.741266 0.714482
O O9 0.518656 0.679738 0.988841
O O10 0.372081 0.795653 0.968437
O O11 0.500000 0.653159 0.750000
O O12 0.750000 0.750000 0.000000
O O13 0.700362 0.628827 0.046943
O O14 0.767741 0.386479 0.762141
#
# Coordination Sequence:
#
# PCOD9271557 Si02
#       7
#     4   8   8   8   8   8   8
#     4  10  20  36  60  86 112 146 212 252 306 348
#     4  11  23  41  61  90 126 165 207 257 310 383
#     4  11  20  37  64  90 118 158 209 253 313 379
#     4  10  20  37  59  86 113 155 198 261 298 363
#     4  12  24  39  62  98 129 160 207 273 319 371
#     4  11  21  38  62  93 121 164 202 257 316 375
#     4  10  24  42  61  86 126 169 209 249 313 383
#
# _framework density 22.226427999999999
#
# number of rings (size 3 to 8) (size 9 to 14) (size 15 to 20)
#    0.000    1.231    3.077    4.615    2.154    0.615 
#    1.385    6.154    0.000    0.000    0.000    0.000 
#    0.000    0.000    0.000    0.000    0.000    0.000 
#
# Total GULP energy -145025.254426 kJ/mol
# GULP energy per Si atom -5577.894401 kJ/mol
# Density = 2.217584 g / cm^3
# Si number density = 22.226428 Si / 1000 Ang^3
#
#
#
# Elastic Constant Matrix: (Units=GPa)
#
#
# Indices 1 2 3 4 5 6 
#
# 1 149.7838 29.6977 28.1759 0.0005 -7.5727 0.0001
# 2 29.6977 46.5592 -10.5565 0.0010 3.5583 0.0006
# 3 28.1759 -10.5565 101.8591 0.0011 -5.8582 0.0007
# 4 0.0005 0.0010 0.0011 11.9409 0.0007 -1.9772
# 5 -7.5727 3.5583 -5.8582 0.0007 48.1576 0.0004
# 6 0.0001 0.0006 0.0007 -1.9772 0.0004 27.0694
#
#
#
# Elastic Compliance Matrix: (Units=1/GPa)
#
#
# Indices 1 2 3 4 5 6 
#
# 1 0.008531 -0.006214 -0.002921 0.000000 0.001445 0.000000
# 2 -0.006214 0.026610 0.004338 -0.000002 -0.002416 -0.000001
# 3 -0.002921 0.004338 0.011108 -0.000001 0.000571 0.000000
# 4 0.000000 -0.000002 -0.000001 0.084771 -0.000001 0.006192
# 5 0.001445 -0.002416 0.000571 -0.000001 0.021240 0.000000
# 6 0.000000 -0.000001 0.000000 0.006192 0.000000 0.037394
#
#
# Mechanical properties :
#
#
# Convention : Reuss Voigt Hill
#
# Bulk Modulus (GPa) = 27.28174 43.64849 35.46511
# Shear Modulus (GPa) = 23.64440 34.15924 28.90182
#
# Velocity S-wave (km/s) = 3.26513 3.92455 3.60993
# Velocity P-wave (km/s) = 5.14935 6.34168 5.77636
#
# Compressibility (1/GPa) = 0.03665456
#
# Stress axis : x y z
#
# Youngs Moduli (GPa) = 117.22181 37.58018 90.02670
#
# Poissons Ratio (x) = 0.23353 0.26294
# Poissons Ratio (y) = 0.72842 -0.39052
# Poissons Ratio (z) = 0.34237 -0.16301
#
# Static dielectric constant tensor:
#      x y z
#    x 1.874380 0.000000 0.008580 
#    y 0.000000 1.833380 0.000000 
#    z 0.008580 0.000000 1.900980 
# 
# From -- ./inp_files/211696.got.cif
#   From: 2010.05.17/outbox.cif.g08.bks.cpg/sg15_106_cif.got.tgz:211696.got - 2010.06.03 18:47:42.
