data_PCOD9271487
_publ_section_title
;
Structure prediction by ZEFSAII (Michael W. Deem and Ramdas Pophale) SiO2 
 PCOD9271487
Probable space group: C 2/C
;
_chemical_formula_sum "Si O2"
_cell_formula_units_Z 48
_cell_length_a 14.944742
_cell_length_b 13.119890
_cell_length_c 14.062840
_cell_angle_alpha 90.000000
_cell_angle_beta 117.630282
_cell_angle_gamma 90.000000
_cell_volume 2442.896553
_symmetry_space_group_name_H-M "C 2/C"
_symmetry_group_IT_number 15
_symmetry_cell_setting 'monoclinic'
loop_
_space_group_symop_operation_xyz
x,y,z
-x,y,1/2-z
-x,-y,-z
x,-y,1/2+z
1/2+x,1/2+y,z
1/2-x,1/2+y,1/2-z
1/2-x,1/2-y,-z
1/2+x,1/2-y,1/2+z
loop_
_atom_site_type_symbol
_atom_site_label
_atom_site_fract_x
_atom_site_fract_y
_atom_site_fract_z
Si Si1 0.179416 0.538151 0.333377
Si Si2 0.045090 0.967535 0.871084
Si Si3 0.341812 0.176667 0.010526
Si Si4 0.237979 0.631380 0.012471
Si Si5 0.115643 0.489850 0.589576
Si Si6 0.403348 0.630654 0.444339
O O1 0.123594 0.616502 0.377941
O O2 0.198073 0.434441 0.402422
O O3 0.127294 0.516095 0.208047
O O4 0.288937 0.591366 0.369278
O O5 0.000000 0.003440 0.750000
O O6 0.969597 0.888463 0.884327
O O7 0.153006 0.915853 0.910360
O O8 0.057459 0.059489 0.950961
O O9 0.321813 0.084994 0.926095
O O10 0.410419 0.255149 0.986948
O O11 0.250000 0.250000 0.000000
O O12 0.250000 0.750000 0.000000
O O13 0.163489 0.608565 0.062914
O O14 0.000000 0.500000 0.500000
#
# Coordination Sequence:
#
# PCOD9271487 Si02
#       6
#     8   8   8   8   8   8
#     4   9  20  41  63  85 129 160 197 261 309 359
#     4  10  20  36  59  90 125 157 201 267 316 365
#     4   9  20  39  62  88 118 160 208 250 306 375
#     4  10  23  40  58  90 124 161 208 252 309 374
#     4  11  24  40  62  89 128 167 210 253 307 369
#     4   9  19  37  62  90 119 158 211 251 314 378
#
# _framework density 19.648806
#
# number of rings (size 3 to 8) (size 9 to 14) (size 15 to 20)
#    0.000    2.333    0.000    2.000    2.333    6.667 
#    3.000    0.000    0.000    0.000    0.000    0.000 
#    0.000    0.000    0.000    0.000    0.000    0.000 
#
# Total GULP energy -133867.682924 kJ/mol
# GULP energy per Si atom -5577.820122 kJ/mol
# Density = 1.960408 g / cm^3
# Si number density = 19.648806 Si / 1000 Ang^3
#
#
#
# Elastic Constant Matrix: (Units=GPa)
#
#
# Indices 1 2 3 4 5 6 
#
# 1 42.1359 -0.8141 12.6706 0.0000 0.1287 0.0000
# 2 -0.8141 105.2823 19.0138 0.0000 2.0455 0.0000
# 3 12.6706 19.0138 146.3682 0.0000 6.9124 0.0000
# 4 0.0000 0.0000 0.0000 12.4401 0.0000 -15.4432
# 5 0.1287 2.0455 6.9124 0.0000 15.7063 0.0000
# 6 0.0000 0.0000 0.0000 -15.4432 0.0000 29.4044
#
#
#
# Elastic Compliance Matrix: (Units=1/GPa)
#
#
# Indices 1 2 3 4 5 6 
#
# 1 0.024410 0.000576 -0.002221 0.000000 0.000703 0.000000
# 2 0.000576 0.009748 -0.001283 0.000000 -0.000710 0.000000
# 3 -0.002221 -0.001283 0.007335 0.000000 -0.003043 0.000000
# 4 0.000000 0.000000 0.000000 0.230984 0.000000 0.121313
# 5 0.000703 -0.000710 -0.003043 0.000000 0.065095 0.000000
# 6 0.000000 0.000000 0.000000 0.121313 0.000000 0.097722
#
#
# Mechanical properties :
#
#
# Convention : Reuss Voigt Hill
#
# Bulk Modulus (GPa) = 28.06044 39.50299 33.78171
# Shear Modulus (GPa) = 11.03687 29.03792 20.03739
#
# Velocity S-wave (km/s) = 2.37261 3.84845 3.19686
# Velocity P-wave (km/s) = 4.67094 6.31629 5.55487
#
# Compressibility (1/GPa) = 0.03563737
#
# Stress axis : x y z
#
# Youngs Moduli (GPa) = 40.96751 102.58332 136.33864
#
# Poissons Ratio (x) = -0.05911 0.30282
# Poissons Ratio (y) = -0.02361 0.17488
# Poissons Ratio (z) = 0.09099 0.13158
#
# Static dielectric constant tensor:
#      x y z
#    x 1.722080 0.000000 0.012050 
#    y 0.000000 1.702230 0.000000 
#    z 0.012050 0.000000 1.637120 
# 
# From -- ./inp_files/96527.got.cif
#   From: 2010.05.17/outbox.cif.g08.bks.cpg/sg15_49_cif.got.tgz:96527.got - 2010.06.03 18:47:42.
