data_PCOD9271276
_publ_section_title
;
Structure prediction by ZEFSAII (Michael W. Deem and Ramdas Pophale) SiO2 
 PCOD9271276
Probable space group: C 2/C
;
_chemical_formula_sum "Si O2"
_cell_formula_units_Z 56
_cell_length_a 5.947513
_cell_length_b 32.085764
_cell_length_c 15.810786
_cell_angle_alpha 90.000000
_cell_angle_beta 118.221505
_cell_angle_gamma 90.000000
_cell_volume 2658.515977
_symmetry_space_group_name_H-M "C 2/C"
_symmetry_group_IT_number 15
_symmetry_cell_setting 'monoclinic'
loop_
_space_group_symop_operation_xyz
x,y,z
-x,y,1/2-z
-x,-y,-z
x,-y,1/2+z
1/2+x,1/2+y,z
1/2-x,1/2+y,1/2-z
1/2-x,1/2-y,-z
1/2+x,1/2-y,1/2+z
loop_
_atom_site_type_symbol
_atom_site_label
_atom_site_fract_x
_atom_site_fract_y
_atom_site_fract_z
Si Si1 0.370258 0.913803 0.062463
Si Si2 0.306821 0.583642 0.385134
Si Si3 0.000000 0.947996 0.750000
Si Si4 0.500000 0.708038 0.750000
Si Si5 0.355015 0.146245 0.020893
Si Si6 0.716947 0.342539 0.138051
Si Si7 0.986399 0.496729 0.849366
Si Si8 0.010636 0.280754 0.439572
O O1 0.341463 0.887474 0.143987
O O2 0.458244 0.960484 0.094193
O O3 0.547577 0.887546 0.030396
O O4 0.091140 0.913760 0.971639
O O5 0.347990 0.578584 0.292304
O O6 0.140642 0.622700 0.388498
O O7 0.183367 0.541024 0.397921
O O8 0.212770 0.978216 0.827322
O O9 0.340523 0.677238 0.782135
O O10 0.722822 0.730658 0.849342
O O11 0.480910 0.190275 0.018356
O O12 0.060333 0.154748 0.952506
O O13 0.877797 0.310408 0.112511
O O14 0.000000 0.504186 0.750000
O O15 0.250000 0.250000 0.500000
#
# Coordination Sequence:
#
# PCOD9271276 Si02
#       8
#     8   8   4   4   8   8   8   8
#     4  10  20  36  58  86 121 155 201 260 308 379
#     4  10  20  37  56  80 111 159 213 254 309 363
#     4  10  22  36  51  78 112 160 218 262 310 354
#     4  10  20  36  61  96 132 160 204 246 306 386
#     4   9  20  35  58  89 115 154 202 251 308 382
#     4   9  20  37  58  92 120 163 194 245 316 370
#     4  10  22  35  51  81 115 160 208 259 308 358
#     4  10  21  39  64  98 123 166 202 250 313 377
#
# _framework density 21.064384
#
# number of rings (size 3 to 8) (size 9 to 14) (size 15 to 20)
#    0.000    2.286    0.000    1.714    0.000   12.571 
#    0.000    3.571    0.000    0.000  211.714    0.000 
#    0.000    0.000    0.000    0.000    0.000    0.000 
#
# Total GULP energy -155932.014391 kJ/mol
# GULP energy per Si atom -5569.000514 kJ/mol
# Density = 2.101644 g / cm^3
# Si number density = 21.064384 Si / 1000 Ang^3
#
#
#
# Elastic Constant Matrix: (Units=GPa)
#
#
# Indices 1 2 3 4 5 6 
#
# 1 106.0637 44.7815 24.3303 0.0000 10.4764 0.0000
# 2 44.7815 96.2329 43.9872 0.0000 7.7206 0.0000
# 3 24.3303 43.9872 66.2279 0.0000 16.9972 0.0000
# 4 0.0000 0.0000 0.0000 11.3216 0.0000 3.0240
# 5 10.4764 7.7206 16.9972 0.0000 33.3100 0.0000
# 6 0.0000 0.0000 0.0000 3.0240 0.0000 16.9205
#
#
#
# Elastic Compliance Matrix: (Units=1/GPa)
#
#
# Indices 1 2 3 4 5 6 
#
# 1 0.011940 -0.005227 -0.000302 0.000000 -0.002390 0.000000
# 2 -0.005227 0.017308 -0.010319 0.000000 0.002898 0.000000
# 3 -0.000302 -0.010319 0.024655 0.000000 -0.010094 0.000000
# 4 0.000000 0.000000 0.000000 0.092754 0.000000 -0.016577
# 5 -0.002390 0.002898 -0.010094 0.000000 0.035252 0.000000
# 6 0.000000 0.000000 0.000000 -0.016577 0.000000 0.062062
#
#
# Mechanical properties :
#
#
# Convention : Reuss Voigt Hill
#
# Bulk Modulus (GPa) = 45.02937 54.96917 49.99927
# Shear Modulus (GPa) = 17.66353 22.67213 20.16783
#
# Velocity S-wave (km/s) = 2.89891 3.28430 3.09761
# Velocity P-wave (km/s) = 5.71212 6.36668 6.04826
#
# Compressibility (1/GPa) = 0.02220773
#
# Stress axis : x y z
#
# Youngs Moduli (GPa) = 83.74942 57.77675 40.56050
#
# Poissons Ratio (x) = 0.30199 0.01224
# Poissons Ratio (y) = 0.43774 0.41855
# Poissons Ratio (z) = 0.02527 0.59621
#
# Static dielectric constant tensor:
#      x y z
#    x 1.775190 0.000000 -0.011920 
#    y 0.000000 1.768120 0.000000 
#    z -0.011920 0.000000 1.859530 
# 
# From -- ./inp_files/130839.got.cif
#   From: 2010.05.17/outbox.cif.g08.bks.cpg/sg15_66_cif.got.tgz:130839.got - 2010.06.03 18:47:42.
