data_PCOD9271795
_publ_section_title
;
Structure prediction by ZEFSAII (Michael W. Deem and Ramdas Pophale) SiO2 
 PCOD9271795
Probable space group: C 2/C
;
_chemical_formula_sum "Si O2"
_cell_formula_units_Z 44
_cell_length_a 14.338980
_cell_length_b 17.855496
_cell_length_c 8.069185
_cell_angle_alpha 90.000000
_cell_angle_beta 92.472743
_cell_angle_gamma 90.000000
_cell_volume 2064.026518
_symmetry_space_group_name_H-M "C 2/C"
_symmetry_group_IT_number 15
_symmetry_cell_setting 'monoclinic'
loop_
_space_group_symop_operation_xyz
x,y,z
-x,y,1/2-z
-x,-y,-z
x,-y,1/2+z
1/2+x,1/2+y,z
1/2-x,1/2+y,1/2-z
1/2-x,1/2-y,-z
1/2+x,1/2-y,1/2+z
loop_
_atom_site_type_symbol
_atom_site_label
_atom_site_fract_x
_atom_site_fract_y
_atom_site_fract_z
Si Si1 0.476048 0.583862 0.941814
Si Si2 0.000000 0.336679 0.750000
Si Si3 0.259243 0.588881 0.001367
Si Si4 0.500000 0.932815 0.250000
Si Si5 0.154973 0.541981 0.295813
Si Si6 0.000000 0.182961 0.250000
Si Si7 0.397223 0.196600 0.556057
O O1 0.500000 0.596084 0.750000
O O2 0.500000 0.500000 0.000000
O O3 0.365338 0.592612 0.958660
O O4 0.522821 0.635529 0.087682
O O5 0.082237 0.390740 0.832523
O O6 0.055568 0.287940 0.618217
O O7 0.235908 0.578200 0.192084
O O8 0.208853 0.515455 0.919296
O O9 0.206850 0.665566 0.950101
O O10 0.582737 0.986242 0.193335
O O11 0.545129 0.877741 0.385687
O O12 0.917238 0.238112 0.186048
#
# Coordination Sequence:
#
# PCOD9271795 Si02
#       7
#     8   4   8   4   8   4   8
#     4  12  26  47  70  91 119 166 217 268 316 364
#     4   9  16  29  57  96 133 166 202 240 323 382
#     4  10  20  36  61  92 127 162 214 263 307 368
#     4   8  14  28  50  88 132 166 200 238 322 374
#     4   9  16  28  55  92 129 165 201 259 302 370
#     4  11  26  45  69  90 129 166 206 262 321 382
#     4   9  19  36  60  91 129 168 200 255 314 383
#
# _framework density 21.317557000000001
#
# number of rings (size 3 to 8) (size 9 to 14) (size 15 to 20)
#    0.000    2.182    0.909    2.182    1.273    5.091 
#    0.000    0.909    0.000    0.000    0.000    0.000 
#    0.000    0.000    0.000    0.000    0.000    0.000 
#
# Total GULP energy -122580.142128 kJ/mol
# GULP energy per Si atom -5571.824642 kJ/mol
# Density = 2.126904 g / cm^3
# Si number density = 21.317557 Si / 1000 Ang^3
#
#
#
# Elastic Constant Matrix: (Units=GPa)
#
#
# Indices 1 2 3 4 5 6 
#
# 1 147.4484 32.0483 57.4596 0.0000 -26.2891 0.0000
# 2 32.0483 99.1686 57.3152 0.0000 -3.1468 0.0000
# 3 57.4596 57.3152 105.2634 0.0000 -16.5047 0.0000
# 4 0.0000 0.0000 0.0000 34.8667 0.0000 -0.4154
# 5 -26.2891 -3.1468 -16.5047 0.0000 28.5291 0.0000
# 6 0.0000 0.0000 0.0000 -0.4154 0.0000 5.3371
#
#
#
# Elastic Compliance Matrix: (Units=1/GPa)
#
#
# Indices 1 2 3 4 5 6 
#
# 1 0.009592 -0.000670 -0.003846 0.000000 0.006540 0.000000
# 2 -0.000670 0.015051 -0.008431 0.000000 -0.003834 0.000000
# 3 -0.003846 -0.008431 0.017034 0.000000 0.005380 0.000000
# 4 0.000000 0.000000 0.000000 0.028707 0.000000 0.002234
# 5 0.006540 -0.003834 0.005380 0.000000 0.043769 0.000000
# 6 0.000000 0.000000 0.000000 0.002234 0.000000 0.187543
#
#
# Mechanical properties :
#
#
# Convention : Reuss Voigt Hill
#
# Bulk Modulus (GPa) = 63.35530 71.72519 67.54024
# Shear Modulus (GPa) = 15.02173 27.41705 21.21939
#
# Velocity S-wave (km/s) = 2.65743 3.59015 3.15841
# Velocity P-wave (km/s) = 6.26101 7.13475 6.71211
#
# Compressibility (1/GPa) = 0.01578400
#
# Stress axis : x y z
#
# Youngs Moduli (GPa) = 104.24819 66.43921 58.70709
#
# Poissons Ratio (x) = 0.04449 0.22580
# Poissons Ratio (y) = 0.06980 0.49496
# Poissons Ratio (z) = 0.40095 0.56015
#
# Static dielectric constant tensor:
#      x y z
#    x 1.761500 0.000000 0.010300 
#    y 0.000000 1.810050 0.000000 
#    z 0.010300 0.000000 1.838610 
# 
# From -- ./inp_files/39260.got.cif
#   From: 2010.05.17/outbox.cif.g08.bks.cpg/sg15_20_cif.got.tgz:39260.got - 2010.06.03 18:47:42.
