data_PCOD9271793
_publ_section_title
;
Structure prediction by ZEFSAII (Michael W. Deem and Ramdas Pophale) SiO2 
 PCOD9271793
Probable space group: C 2/C
;
_chemical_formula_sum "Si O2"
_cell_formula_units_Z 48
_cell_length_a 16.425255
_cell_length_b 10.867999
_cell_length_c 12.542896
_cell_angle_alpha 90.000000
_cell_angle_beta 63.934778
_cell_angle_gamma 90.000000
_cell_volume 2011.306457
_symmetry_space_group_name_H-M "C 2/C"
_symmetry_group_IT_number 15
_symmetry_cell_setting 'monoclinic'
loop_
_space_group_symop_operation_xyz
x,y,z
-x,y,1/2-z
-x,-y,-z
x,-y,1/2+z
1/2+x,1/2+y,z
1/2-x,1/2+y,1/2-z
1/2-x,1/2-y,-z
1/2+x,1/2-y,1/2+z
loop_
_atom_site_type_symbol
_atom_site_label
_atom_site_fract_x
_atom_site_fract_y
_atom_site_fract_z
Si Si1 0.405405 0.327868 0.864710
Si Si2 0.005328 0.636823 0.543271
Si Si3 0.840701 0.014999 0.583319
Si Si4 0.326442 0.843067 0.264838
Si Si5 0.057596 0.200164 0.821504
Si Si6 0.253962 0.769488 0.872932
O O1 0.500000 0.346100 0.750000
O O2 0.414135 0.209468 0.940372
O O3 0.328432 0.286710 0.826123
O O4 0.386030 0.446671 0.946432
O O5 0.998783 0.724540 0.442403
O O6 0.000000 0.500000 0.500000
O O7 0.929695 0.631443 0.679427
O O8 0.738729 0.068817 0.633689
O O9 0.899498 0.082972 0.640659
O O10 0.819990 0.873634 0.611296
O O11 0.282774 0.844981 0.172702
O O12 0.144134 0.282887 0.732081
O O13 0.000000 0.170534 0.750000
O O14 0.250000 0.750000 0.000000
#
# Coordination Sequence:
#
# PCOD9271793 Si02
#       6
#     8   8   8   8   8   8
#     4   9  20  38  59  89 125 166 215 257 310 384
#     4  10  20  36  61  92 125 165 212 269 322 373
#     4  10  22  41  64  89 127 172 207 260 325 379
#     4  10  21  38  59  87 122 160 210 257 310 382
#     4  10  22  42  65  96 131 168 217 266 324 390
#     4  11  24  41  62  93 125 161 212 263 313 382
#
# _framework density 23.865086000000002
#
# number of rings (size 3 to 8) (size 9 to 14) (size 15 to 20)
#    0.000    2.000    0.000    2.500    0.000    7.333 
#    0.000   18.333    0.000    0.000    0.000    0.000 
#    0.000    0.000    0.000    0.000    0.000    0.000 
#
# Total GULP energy -133840.050927 kJ/mol
# GULP energy per Si atom -5576.668789 kJ/mol
# Density = 2.381077 g / cm^3
# Si number density = 23.865086 Si / 1000 Ang^3
#
#
#
# Elastic Constant Matrix: (Units=GPa)
#
#
# Indices 1 2 3 4 5 6 
#
# 1 50.7011 18.8459 29.2943 0.0000 2.3617 0.0000
# 2 18.8459 65.9170 30.7666 0.0000 -5.6791 0.0000
# 3 29.2943 30.7666 131.2246 0.0000 3.5754 0.0000
# 4 0.0000 0.0000 0.0000 25.5831 0.0000 -4.2634
# 5 2.3617 -5.6791 3.5754 0.0000 48.8291 0.0000
# 6 0.0000 0.0000 0.0000 -4.2634 0.0000 25.3853
#
#
#
# Elastic Compliance Matrix: (Units=1/GPa)
#
#
# Indices 1 2 3 4 5 6 
#
# 1 0.024071 -0.005072 -0.004145 0.000000 -0.001451 0.000000
# 2 -0.005072 0.018360 -0.003244 0.000000 0.002618 0.000000
# 3 -0.004145 -0.003244 0.009330 0.000000 -0.000860 0.000000
# 4 0.000000 0.000000 0.000000 0.040214 0.000000 0.006754
# 5 -0.001451 0.002618 -0.000860 0.000000 0.020917 0.000000
# 6 0.000000 0.000000 0.000000 0.006754 0.000000 0.040527
#
#
# Mechanical properties :
#
#
# Convention : Reuss Voigt Hill
#
# Bulk Modulus (GPa) = 37.25855 45.07289 41.16572
# Shear Modulus (GPa) = 26.69683 31.22190 28.95937
#
# Velocity S-wave (km/s) = 3.34826 3.62092 3.48726
# Velocity P-wave (km/s) = 5.53117 6.03398 5.78804
#
# Compressibility (1/GPa) = 0.02683948
#
# Stress axis : x y z
#
# Youngs Moduli (GPa) = 41.54325 54.46506 107.18403
#
# Poissons Ratio (x) = 0.27627 0.44426
# Poissons Ratio (y) = 0.21073 0.34767
# Poissons Ratio (z) = 0.17219 0.17667
#
# Static dielectric constant tensor:
#      x y z
#    x 2.012320 0.000000 0.025160 
#    y 0.000000 3.297230 0.000000 
#    z 0.025160 0.000000 1.997960 
# 
# From -- ./inp_files/104153.got.cif
#   From: 2010.05.17/outbox.cif.g08.bks.cpg/sg15_53_cif.got.tgz:104153.got - 2010.06.03 18:47:42.
