data_PCOD9271100
_publ_section_title
;
Structure prediction by ZEFSAII (Michael W. Deem and Ramdas Pophale) SiO2 
 PCOD9271100
Probable space group: C 2/C
;
_chemical_formula_sum "Si O2"
_cell_formula_units_Z 40
_cell_length_a 14.592646
_cell_length_b 11.048763
_cell_length_c 23.641611
_cell_angle_alpha 90.000000
_cell_angle_beta 147.403968
_cell_angle_gamma 90.000000
_cell_volume 2053.438860
_symmetry_space_group_name_H-M "C 2/C"
_symmetry_group_IT_number 15
_symmetry_cell_setting 'monoclinic'
loop_
_space_group_symop_operation_xyz
x,y,z
-x,y,1/2-z
-x,-y,-z
x,-y,1/2+z
1/2+x,1/2+y,z
1/2-x,1/2+y,1/2-z
1/2-x,1/2-y,-z
1/2+x,1/2-y,1/2+z
loop_
_atom_site_type_symbol
_atom_site_label
_atom_site_fract_x
_atom_site_fract_y
_atom_site_fract_z
Si Si1 0.173080 0.742213 0.784419
Si Si2 0.000000 0.621714 0.250000
Si Si3 0.020136 0.271511 0.639484
Si Si4 0.823937 0.600699 0.606542
Si Si5 0.277774 0.556620 0.539605
Si Si6 0.500000 0.537346 0.250000
O O1 0.310305 0.747555 0.807041
O O2 0.248106 0.690397 0.883126
O O3 0.010138 0.655639 0.688654
O O4 0.097338 0.873962 0.757515
O O5 0.051175 0.698024 0.221707
O O6 0.145758 0.529354 0.347422
O O7 0.909400 0.383812 0.557483
O O8 0.899656 0.154474 0.573198
O O9 0.727099 0.567294 0.499075
O O10 0.359432 0.536171 0.642904
#
# Coordination Sequence:
#
# PCOD9271100 Si02
#       6
#     8   4   8   8   8   4
#     4   9  20  36  58  83 107 141 191 229 275 331
#     4   8  16  34  56  74 108 142 176 224 270 320
#     4  10  20  36  57  84 109 144 187 228 275 331
#     4   8  18  38  56  78 111 146 182 226 275 336
#     4  10  21  36  54  78 117 150 181 225 277 325
#     4  10  22  38  54  82 116 146 182 234 274 318
#
# _framework density 19.479519
#
# number of rings (size 3 to 8) (size 9 to 14) (size 15 to 20)
#    0.000    3.200    0.000    0.600    0.000    9.600 
#    0.000   12.000    0.000    0.000    0.000    0.000 
#    0.000    0.000    0.000    0.000    0.000    0.000 
#
# Total GULP energy -111442.942532 kJ/mol
# GULP energy per Si atom -5572.147127 kJ/mol
# Density = 1.943518 g / cm^3
# Si number density = 19.479519 Si / 1000 Ang^3
#
#
#
# Elastic Constant Matrix: (Units=GPa)
#
#
# Indices 1 2 3 4 5 6 
#
# 1 147.2674 37.6429 51.0120 0.0000 12.1379 0.0000
# 2 37.6429 53.2487 27.4887 -0.0001 -0.7792 0.0000
# 3 51.0120 27.4887 89.3048 -0.0003 -25.8472 0.0001
# 4 0.0000 -0.0001 -0.0003 312.1216 -0.0001 -87.0514
# 5 12.1379 -0.7792 -25.8472 -0.0001 25.0551 0.0000
# 6 0.0000 0.0000 0.0001 -87.0514 0.0000 31.0204
#
#
#
# Elastic Compliance Matrix: (Units=1/GPa)
#
#
# Indices 1 2 3 4 5 6 
#
# 1 0.013499 -0.003533 -0.012186 0.000000 -0.019221 0.000000
# 2 -0.003533 0.024816 -0.006988 0.000000 -0.004726 0.000000
# 3 -0.012186 -0.006988 0.031301 0.000000 0.037977 0.000000
# 4 0.000000 0.000000 0.000000 0.014742 0.000000 0.041370
# 5 -0.019221 -0.004726 0.037977 0.000000 0.088254 0.000000
# 6 0.000000 0.000000 0.000000 0.041370 0.000000 0.148332
#
#
# Mechanical properties :
#
#
# Convention : Reuss Voigt Hill
#
# Bulk Modulus (GPa) = 41.32082 58.01200 49.66641
# Shear Modulus (GPa) = 13.35380 85.21792 49.28586
#
# Velocity S-wave (km/s) = 2.62110 6.62136 5.03550
# Velocity P-wave (km/s) = 5.51532 9.39693 7.70458
#
# Compressibility (1/GPa) = 0.02420087
#
# Stress axis : x y z
#
# Youngs Moduli (GPa) = 74.08047 40.29702 31.94782
#
# Poissons Ratio (x) = 0.14237 0.38932
# Poissons Ratio (y) = 0.26173 0.22325
# Poissons Ratio (z) = 0.90276 0.28160
#
# Static dielectric constant tensor:
#      x y z
#    x 1.654230 0.000000 -0.045070 
#    y 0.000000 1.722720 0.000000 
#    z -0.045070 0.000000 1.737340 
# 
# From -- ./inp_files/173109.got.cif
#   From: 2010.05.17/outbox.cif.g08.bks.cpg/sg15_87_cif.got.tgz:173109.got - 2010.06.03 18:47:42.
