data_PCOD9271689
_publ_section_title
;
Structure prediction by ZEFSAII (Michael W. Deem and Ramdas Pophale) SiO2 
 PCOD9271689
Probable space group: C 2/C
;
_chemical_formula_sum "Si O2"
_cell_formula_units_Z 48
_cell_length_a 12.739124
_cell_length_b 17.615006
_cell_length_c 15.791646
_cell_angle_alpha 90.000000
_cell_angle_beta 34.349632
_cell_angle_gamma 90.000000
_cell_volume 1999.469290
_symmetry_space_group_name_H-M "C 2/C"
_symmetry_group_IT_number 15
_symmetry_cell_setting 'monoclinic'
loop_
_space_group_symop_operation_xyz
x,y,z
-x,y,1/2-z
-x,-y,-z
x,-y,1/2+z
1/2+x,1/2+y,z
1/2-x,1/2+y,1/2-z
1/2-x,1/2-y,-z
1/2+x,1/2-y,1/2+z
loop_
_atom_site_type_symbol
_atom_site_label
_atom_site_fract_x
_atom_site_fract_y
_atom_site_fract_z
Si Si1 0.088595 0.310129 0.468540
Si Si2 0.373068 0.681467 0.515300
Si Si3 0.120346 0.539085 0.847902
Si Si4 0.000000 0.780421 0.750000
Si Si5 0.516788 0.415977 0.413693
Si Si6 0.392760 0.094449 0.242901
Si Si7 0.000000 0.177281 0.750000
O O1 0.106936 0.372121 0.380591
O O2 0.289192 0.291172 0.376485
O O3 0.006840 0.235646 0.481345
O O4 0.947097 0.349659 0.629440
O O5 0.178593 0.725926 0.640291
O O6 0.457714 0.673211 0.364663
O O7 0.361102 0.609535 0.584548
O O8 0.340200 0.519506 0.713613
O O9 0.041878 0.491848 0.821257
O O10 0.000000 0.500000 0.000000
O O11 0.316315 0.418332 0.588258
O O12 0.485711 0.367933 0.348588
O O13 0.500000 0.128306 0.250000
#
# Coordination Sequence:
#
# PCOD9271689 Si02
#       7
#     8   8   8   4   8   8   4
#     4  10  21  41  63  93 133 170 215 272 328 399
#     4  11  23  42  67  92 130 171 216 277 338 389
#     4   9  21  40  64  83 124 173 218 257 314 378
#     4  10  22  42  62  87 130 167 222 274 326 380
#     4  11  22  40  65  95 131 170 208 271 332 395
#     4  11  21  39  61  95 130 169 212 275 321 391
#     4  10  20  36  60  93 134 171 212 252 334 392
#
# _framework density 24.006368999999999
#
# number of rings (size 3 to 8) (size 9 to 14) (size 15 to 20)
#    0.000    1.667    1.667    3.500    0.000    0.667 
#   12.000    0.000    0.000    0.000    0.000    0.000 
#    0.000    0.000    0.000    0.000    0.000    0.000 
#
# Total GULP energy -133647.173254 kJ/mol
# GULP energy per Si atom -5568.632219 kJ/mol
# Density = 2.395173 g / cm^3
# Si number density = 24.006369 Si / 1000 Ang^3
#
#
#
# Elastic Constant Matrix: (Units=GPa)
#
#
# Indices 1 2 3 4 5 6 
#
# 1 106.0304 11.6696 51.9091 0.0003 15.1584 -0.0015
# 2 11.6696 40.5141 7.9714 -0.0059 1.9171 -0.0031
# 3 51.9091 7.9714 190.3122 -0.0110 11.0669 -0.0040
# 4 0.0003 -0.0059 -0.0110 12.6507 0.0030 14.9436
# 5 15.1584 1.9171 11.0669 0.0030 57.3241 0.0021
# 6 -0.0015 -0.0031 -0.0040 14.9436 0.0021 -9.8160
#
#
#
# Elastic Compliance Matrix: (Units=1/GPa)
#
#
# Indices 1 2 3 4 5 6 
#
# 1 0.011472 -0.002625 -0.002880 -0.000001 -0.002390 -0.000002
# 2 -0.002625 0.025511 -0.000347 0.000007 -0.000092 0.000004
# 3 -0.002880 -0.000347 0.006078 0.000003 -0.000400 0.000002
# 4 -0.000001 0.000007 0.000003 0.028248 -0.000004 0.043004
# 5 -0.002390 -0.000092 -0.000400 -0.000004 0.018157 -0.000001
# 6 -0.000002 0.000004 0.000002 0.043004 -0.000001 -0.036406
#
#
# Mechanical properties :
#
#
# Convention : Reuss Voigt Hill
#
# Bulk Modulus (GPa) = 31.89068 53.32853 42.60961
# Shear Modulus (GPa) = 66.47440 29.71886 48.09663
#
# Velocity S-wave (km/s) = 5.26787 3.52228 4.48090
# Velocity P-wave (km/s) = 7.09321 6.22932 6.67526
#
# Compressibility (1/GPa) = 0.03135712
#
# Stress axis : x y z
#
# Youngs Moduli (GPa) = 87.17057 39.19809 164.53003
#
# Poissons Ratio (x) = 0.10288 0.47387
# Poissons Ratio (y) = 0.22878 0.05715
# Poissons Ratio (z) = 0.25106 0.01362
#
# Static dielectric constant tensor:
#      x y z
#    x 1.942090 0.000010 0.011010 
#    y 0.000010 2.073130 0.000000 
#    z 0.011010 0.000000 2.135100 
# 
# From -- ./inp_files/147387.got.cif
#   From: 2010.05.17/outbox.cif.g08.bks.cpg/sg15_74_cif.got.tgz:147387.got - 2010.06.03 18:47:42.
