data_PCOD9271429
_publ_section_title
;
Structure prediction by ZEFSAII (Michael W. Deem and Ramdas Pophale) SiO2 
 PCOD9271429
Probable space group: C 2/C
;
_chemical_formula_sum "Si O2"
_cell_formula_units_Z 36
_cell_length_a 7.650549
_cell_length_b 28.702830
_cell_length_c 7.742111
_cell_angle_alpha 90.000000
_cell_angle_beta 114.237244
_cell_angle_gamma 90.000000
_cell_volume 1550.250087
_symmetry_space_group_name_H-M "C 2/C"
_symmetry_group_IT_number 15
_symmetry_cell_setting 'monoclinic'
loop_
_space_group_symop_operation_xyz
x,y,z
-x,y,1/2-z
-x,-y,-z
x,-y,1/2+z
1/2+x,1/2+y,z
1/2-x,1/2+y,1/2-z
1/2-x,1/2-y,-z
1/2+x,1/2-y,1/2+z
loop_
_atom_site_type_symbol
_atom_site_label
_atom_site_fract_x
_atom_site_fract_y
_atom_site_fract_z
Si Si1 0.646438 0.552104 0.143500
Si Si2 0.721228 0.555429 0.693064
Si Si3 0.538620 0.902254 0.521180
Si Si4 0.570380 0.202125 0.087704
Si Si5 0.500000 0.726680 0.250000
O O1 0.500000 0.549540 0.250000
O O2 0.729095 0.499887 0.160507
O O3 0.820056 0.585663 0.263751
O O4 0.502729 0.565589 0.930908
O O5 0.828322 0.585126 0.589073
O O6 0.850566 0.566556 0.912403
O O7 0.486766 0.848196 0.505719
O O8 0.500000 0.215237 0.250000
O O9 0.802176 0.198415 0.177625
O O10 0.511130 0.240316 0.922860
#
# Coordination Sequence:
#
# PCOD9271429 Si02
#       5
#     8   8   8   8   4
#     4   9  18  33  54  83 122 177 235 278 330 396
#     4   9  18  34  54  80 121 176 228 268 332 392
#     4  10  20  36  59  86 129 169 221 287 331 398
#     4  11  24  46  71 110 136 178 232 282 362 433
#     4  10  24  46  80  94 144 180 214 296 360 434
#
# _framework density 23.222059999999999
#
# number of rings (size 3 to 8) (size 9 to 14) (size 15 to 20)
#    0.000    2.222    0.000    2.667    4.667    0.000 
#   16.000    0.000    0.000    0.000    0.000    0.000 
#    0.000    0.000    0.000    0.000    0.000    0.000 
#
# Total GULP energy -100641.920676 kJ/mol
# GULP energy per Si atom -5591.217815 kJ/mol
# Density = 2.316921 g / cm^3
# Si number density = 23.222060 Si / 1000 Ang^3
#
#
#
# Elastic Constant Matrix: (Units=GPa)
#
#
# Indices 1 2 3 4 5 6 
#
# 1 91.9265 27.8017 34.9811 0.0000 11.4473 0.0000
# 2 27.8017 55.7846 31.7422 0.0000 8.8366 0.0000
# 3 34.9811 31.7422 158.4186 0.0000 17.1051 0.0000
# 4 0.0000 0.0000 0.0000 14.3093 0.0000 -0.9777
# 5 11.4473 8.8366 17.1051 0.0000 57.5983 0.0000
# 6 0.0000 0.0000 0.0000 -0.9777 0.0000 0.7409
#
#
#
# Elastic Compliance Matrix: (Units=1/GPa)
#
#
# Indices 1 2 3 4 5 6 
#
# 1 0.013346 -0.005472 -0.001710 0.000000 -0.001305 0.000000
# 2 -0.005472 0.022693 -0.003182 0.000000 -0.001449 0.000000
# 3 -0.001710 -0.003182 0.007478 0.000000 -0.001393 0.000000
# 4 0.000000 0.000000 0.000000 0.076810 0.000000 0.101361
# 5 -0.001305 -0.001449 -0.001393 0.000000 0.018257 0.000000
# 6 0.000000 0.000000 0.000000 0.101361 0.000000 1.483548
#
#
# Mechanical properties :
#
#
# Convention : Reuss Voigt Hill
#
# Bulk Modulus (GPa) = 43.87919 55.01997 49.44958
# Shear Modulus (GPa) = 3.02946 28.63667 15.83307
#
# Velocity S-wave (km/s) = 1.14341 3.51546 2.61398
# Velocity P-wave (km/s) = 4.54749 6.34211 5.51824
#
# Compressibility (1/GPa) = 0.02278985
#
# Stress axis : x y z
#
# Youngs Moduli (GPa) = 74.92725 44.06551 133.72655
#
# Poissons Ratio (x) = 0.24112 0.22864
# Poissons Ratio (y) = 0.40999 0.42556
# Poissons Ratio (z) = 0.12811 0.14023
#
# Static dielectric constant tensor:
#      x y z
#    x 1.942870 0.000000 -0.077160 
#    y 0.000000 1.763420 0.000000 
#    z -0.077160 0.000000 1.973580 
# 
# From -- ./inp_files/24677.got.cif
#   From: 2010.05.17/outbox.cif.g08.bks.cpg/sg15_13_cif.got.tgz:24677.got - 2010.06.03 18:47:42.
