data_PCOD9271657
_publ_section_title
;
Structure prediction by ZEFSAII (Michael W. Deem and Ramdas Pophale) SiO2 
 PCOD9271657
Probable space group: C 2/C
;
_chemical_formula_sum "Si O2"
_cell_formula_units_Z 52
_cell_length_a 18.727314
_cell_length_b 12.578752
_cell_length_c 14.203617
_cell_angle_alpha 90.000000
_cell_angle_beta 134.410538
_cell_angle_gamma 90.000000
_cell_volume 2390.118269
_symmetry_space_group_name_H-M "C 2/C"
_symmetry_group_IT_number 15
_symmetry_cell_setting 'monoclinic'
loop_
_space_group_symop_operation_xyz
x,y,z
-x,y,1/2-z
-x,-y,-z
x,-y,1/2+z
1/2+x,1/2+y,z
1/2-x,1/2+y,1/2-z
1/2-x,1/2-y,-z
1/2+x,1/2-y,1/2+z
loop_
_atom_site_type_symbol
_atom_site_label
_atom_site_fract_x
_atom_site_fract_y
_atom_site_fract_z
Si Si1 0.981708 0.471254 0.106336
Si Si2 0.868327 0.354310 0.161733
Si Si3 0.155336 0.882897 0.896040
Si Si4 0.656234 0.573346 0.174804
Si Si5 0.625709 0.880437 0.666976
Si Si6 0.551430 0.352177 0.096426
Si Si7 0.000000 0.937001 0.250000
O O1 0.070220 0.381911 0.188502
O O2 0.043929 0.580314 0.167812
O O3 0.911478 0.439176 0.127586
O O4 0.910114 0.455615 0.951733
O O5 0.889484 0.235650 0.145741
O O6 0.751042 0.372267 0.050991
O O7 0.178839 0.903597 0.806568
O O8 0.085501 0.979777 0.861666
O O9 0.756804 0.600399 0.210346
O O10 0.620908 0.451534 0.131575
O O11 0.556974 0.637909 0.052883
O O12 0.604496 0.758491 0.624450
O O13 0.534076 0.369145 0.192329
#
# Coordination Sequence:
#
# PCOD9271657 Si02
#       7
#     8   8   8   8   8   8   4
#     4  10  22  37  58  91 125 148 206 253 300 356
#     4  10  20  36  60  91 118 159 199 261 304 347
#     4  10  20  37  62  87 121 158 202 253 310 341
#     4  10  22  43  63  92 118 161 204 252 298 368
#     4  11  23  41  63  90 123 166 195 253 301 366
#     4  10  24  42  65  88 124 161 203 245 303 360
#     4  10  22  40  58  88 124 156 208 246 284 380
#
# _framework density 21.756243999999999
#
# number of rings (size 3 to 8) (size 9 to 14) (size 15 to 20)
#    0.000    1.846    1.538    1.846    2.154    7.385 
#    0.000    0.769    0.000    0.000    0.000    0.000 
#    0.000    0.000    0.000    0.000    0.000    0.000 
#
# Total GULP energy -145057.236254 kJ/mol
# GULP energy per Si atom -5579.124471 kJ/mol
# Density = 2.170673 g / cm^3
# Si number density = 21.756244 Si / 1000 Ang^3
#
#
#
# Elastic Constant Matrix: (Units=GPa)
#
#
# Indices 1 2 3 4 5 6 
#
# 1 58.2140 27.6419 12.7243 0.0000 10.6001 0.0000
# 2 27.6419 90.9237 23.0106 0.0000 24.4927 0.0000
# 3 12.7243 23.0106 103.2851 0.0000 31.3244 0.0000
# 4 0.0000 0.0000 0.0000 27.8102 0.0000 -9.5695
# 5 10.6001 24.4927 31.3244 0.0000 41.9847 0.0000
# 6 0.0000 0.0000 0.0000 -9.5695 0.0000 58.8251
#
#
#
# Elastic Compliance Matrix: (Units=1/GPa)
#
#
# Indices 1 2 3 4 5 6 
#
# 1 0.020253 -0.005616 -0.000888 0.000000 -0.001175 0.000000
# 2 -0.005616 0.014654 -0.000530 0.000000 -0.006735 0.000000
# 3 -0.000888 -0.000530 0.012598 0.000000 -0.008866 0.000000
# 4 0.000000 0.000000 0.000000 0.038090 0.000000 0.006196
# 5 -0.001175 -0.006735 -0.008866 0.000000 0.034659 0.000000
# 6 0.000000 0.000000 0.000000 0.006196 0.000000 0.018008
#
#
# Mechanical properties :
#
#
# Convention : Reuss Voigt Hill
#
# Bulk Modulus (GPa) = 29.90637 42.13070 36.01853
# Shear Modulus (GPa) = 30.58572 38.32706 34.45639
#
# Velocity S-wave (km/s) = 3.75352 4.20176 3.98395
# Velocity P-wave (km/s) = 5.70624 6.55337 6.14442
#
# Compressibility (1/GPa) = 0.03343770
#
# Stress axis : x y z
#
# Youngs Moduli (GPa) = 49.37646 68.24054 79.37552
#
# Poissons Ratio (x) = 0.38323 0.07045
# Poissons Ratio (y) = 0.27729 0.04208
# Poissons Ratio (z) = 0.04382 0.03618
#
# Static dielectric constant tensor:
#      x y z
#    x 1.935690 0.000000 -0.081470 
#    y 0.000000 1.769330 0.000000 
#    z -0.081470 0.000000 1.871540 
# 
# From -- ./inp_files/215097.got.cif
#   From: 2010.05.17/outbox.cif.g08.bks.cpg/sg15_108_cif.got.tgz:215097.got - 2010.06.03 18:47:42.
