data_PCOD9271149
_publ_section_title
;
Structure prediction by ZEFSAII (Michael W. Deem and Ramdas Pophale) SiO2 
 PCOD9271149
Probable space group: C 2/C
;
_chemical_formula_sum "Si O2"
_cell_formula_units_Z 48
_cell_length_a 23.089977
_cell_length_b 13.295213
_cell_length_c 23.697478
_cell_angle_alpha 90.000000
_cell_angle_beta 159.552822
_cell_angle_gamma 90.000000
_cell_volume 2541.404774
_symmetry_space_group_name_H-M "C 2/C"
_symmetry_group_IT_number 15
_symmetry_cell_setting 'monoclinic'
loop_
_space_group_symop_operation_xyz
x,y,z
-x,y,1/2-z
-x,-y,-z
x,-y,1/2+z
1/2+x,1/2+y,z
1/2-x,1/2+y,1/2-z
1/2-x,1/2-y,-z
1/2+x,1/2-y,1/2+z
loop_
_atom_site_type_symbol
_atom_site_label
_atom_site_fract_x
_atom_site_fract_y
_atom_site_fract_z
Si Si1 0.731395 0.053828 0.764033
Si Si2 0.934615 0.629835 0.365625
Si Si3 0.468544 0.459783 0.888020
Si Si4 0.509499 0.600169 0.823959
Si Si5 0.873146 0.236158 0.366610
Si Si6 0.122804 0.686857 0.308524
O O1 0.705014 0.172057 0.739104
O O2 0.566974 0.986737 0.618088
O O3 0.840413 0.024583 0.808907
O O4 0.845207 0.023465 0.920464
O O5 0.749307 0.669356 0.208103
O O6 0.960247 0.637716 0.322597
O O7 0.028310 0.702079 0.495035
O O8 0.460968 0.507012 0.819350
O O9 0.438787 0.344224 0.880341
O O10 0.500000 0.570286 0.750000
O O11 0.382027 0.694369 0.712081
O O12 0.693533 0.644306 0.008862
O O13 0.000000 0.676237 0.250000
#
# Coordination Sequence:
#
# PCOD9271149 Si02
#       6
#     8   8   8   8   8   8
#     4  10  20  36  57  88 117 153 187 241 289 344
#     4  11  21  34  58  86 123 151 189 234 286 350
#     4  10  21  38  59  87 119 150 190 238 295 342
#     4  11  22  39  60  84 118 155 194 235 286 343
#     4  11  21  36  59  87 119 153 190 237 291 342
#     4  11  22  35  55  87 118 154 187 235 283 344
#
# _framework density 18.887191999999999
#
# number of rings (size 3 to 8) (size 9 to 14) (size 15 to 20)
#    0.000    1.333    3.333    4.500    2.333    1.333 
#    0.000    0.000    0.000    2.000    0.000    0.000 
#    0.000    0.000    0.000    0.000    0.000    0.000 
#
# Total GULP energy -133672.033464 kJ/mol
# GULP energy per Si atom -5569.668061 kJ/mol
# Density = 1.884420 g / cm^3
# Si number density = 18.887192 Si / 1000 Ang^3
#
#
#
# Elastic Constant Matrix: (Units=GPa)
#
#
# Indices 1 2 3 4 5 6 
#
# 1 93.3834 37.2867 28.3461 0.0021 -33.1509 0.0009
# 2 37.2867 100.2711 21.5105 -0.0029 -4.6515 -0.0006
# 3 28.3461 21.5105 52.0076 0.0011 -13.5713 0.0008
# 4 0.0021 -0.0029 0.0011 15.7463 -0.0023 -7.9784
# 5 -33.1509 -4.6515 -13.5713 -0.0023 25.3362 -0.0003
# 6 0.0009 -0.0006 0.0008 -7.9784 -0.0003 32.6511
#
#
#
# Elastic Compliance Matrix: (Units=1/GPa)
#
#
# Indices 1 2 3 4 5 6 
#
# 1 0.025191 -0.007364 -0.002832 -0.000001 0.030093 -0.000001
# 2 -0.007364 0.013102 -0.003827 0.000003 -0.009280 0.000001
# 3 -0.002832 -0.003827 0.024649 -0.000001 0.008796 -0.000001
# 4 -0.000001 0.000003 -0.000001 0.072481 0.000006 0.017711
# 5 0.030093 -0.009280 0.008796 0.000006 0.081851 0.000001
# 6 -0.000001 0.000001 -0.000001 0.017711 0.000001 0.034955
#
#
# Mechanical properties :
#
#
# Convention : Reuss Voigt Hill
#
# Bulk Modulus (GPa) = 28.65576 46.66096 37.65836
# Shear Modulus (GPa) = 17.12873 25.31463 21.22168
#
# Velocity S-wave (km/s) = 3.01474 3.66499 3.35565
# Velocity P-wave (km/s) = 5.22716 6.53210 5.91572
#
# Compressibility (1/GPa) = 0.03489700
#
# Stress axis : x y z
#
# Youngs Moduli (GPa) = 39.69619 76.32511 40.56901
#
# Poissons Ratio (x) = 0.56207 0.11488
# Poissons Ratio (y) = 0.29233 0.15525
# Poissons Ratio (z) = 0.11241 0.29208
#
# Static dielectric constant tensor:
#      x y z
#    x 1.666460 0.000000 0.022870 
#    y 0.000000 1.679810 0.000000 
#    z 0.022870 0.000000 1.769410 
# 
# From -- ./inp_files/282056.got.cif
#   From: 2010.05.17/outbox.cif.g08.bks.cpg/sg15_142_cif.got.tgz:282056.got - 2010.06.03 18:47:42.
