data_PCOD9271133
_publ_section_title
;
Structure prediction by ZEFSAII (Michael W. Deem and Ramdas Pophale) SiO2 
 PCOD9271133
Probable space group: C 2/C
;
_chemical_formula_sum "Si O2"
_cell_formula_units_Z 40
_cell_length_a 10.450492
_cell_length_b 18.251282
_cell_length_c 17.485660
_cell_angle_alpha 90.000000
_cell_angle_beta 148.110640
_cell_angle_gamma 90.000000
_cell_volume 1761.882172
_symmetry_space_group_name_H-M "C 2/C"
_symmetry_group_IT_number 15
_symmetry_cell_setting 'monoclinic'
loop_
_space_group_symop_operation_xyz
x,y,z
-x,y,1/2-z
-x,-y,-z
x,-y,1/2+z
1/2+x,1/2+y,z
1/2-x,1/2+y,1/2-z
1/2-x,1/2-y,-z
1/2+x,1/2-y,1/2+z
loop_
_atom_site_type_symbol
_atom_site_label
_atom_site_fract_x
_atom_site_fract_y
_atom_site_fract_z
Si Si1 0.065521 0.820230 0.493649
Si Si2 0.328654 0.878249 0.089975
Si Si3 0.752366 0.532522 0.843670
Si Si4 0.423431 0.522527 0.544265
Si Si5 0.292558 0.805407 0.328186
O O1 0.901825 0.843435 0.484340
O O2 0.898477 0.792905 0.338023
O O3 0.180624 0.895018 0.516967
O O4 0.213214 0.756700 0.610067
O O5 0.500000 0.890656 0.250000
O O6 0.459183 0.826058 0.093881
O O7 0.250871 0.957213 0.016830
O O8 0.500000 0.502772 0.750000
O O9 0.679827 0.524978 0.718507
O O10 0.755424 0.619469 0.855924
O O11 0.000000 0.500000 0.000000
O O12 0.500000 0.500000 0.500000
#
# Coordination Sequence:
#
# PCOD9271133 Si02
#       5
#     8   8   8   8   8
#     4   9  19  34  54  83 121 159 202 254 316 379
#     4   9  17  33  59  90 121 157 210 268 312 366
#     4  11  24  42  63  91 126 164 211 267 321 380
#     4   9  19  37  60  88 121 163 210 259 313 378
#     4  10  20  36  57  86 123 161 205 260 315 375
#
# _framework density 22.702992999999999
#
# number of rings (size 3 to 8) (size 9 to 14) (size 15 to 20)
#    0.000    2.400    0.000    3.000    0.000    3.200 
#    0.000   10.000    0.000    0.000    0.000    0.000 
#    0.000    0.000    0.000    0.000    0.000    0.000 
#
# Total GULP energy -111368.865695 kJ/mol
# GULP energy per Si atom -5568.443285 kJ/mol
# Density = 2.265132 g / cm^3
# Si number density = 22.702993 Si / 1000 Ang^3
#
#
#
# Elastic Constant Matrix: (Units=GPa)
#
#
# Indices 1 2 3 4 5 6 
#
# 1 82.4182 16.8011 32.1176 0.0007 -4.7407 0.0003
# 2 16.8011 123.1255 104.7677 -0.0021 -19.0311 -0.0008
# 3 32.1176 104.7677 111.3320 0.0013 -15.9684 0.0010
# 4 0.0007 -0.0021 0.0013 32.8157 0.0005 -1.8183
# 5 -4.7407 -19.0311 -15.9684 0.0005 29.0636 -0.0003
# 6 0.0003 -0.0008 0.0010 -1.8183 -0.0003 19.9632
#
#
#
# Elastic Compliance Matrix: (Units=1/GPa)
#
#
# Indices 1 2 3 4 5 6 
#
# 1 0.015243 0.008561 -0.012259 0.000001 0.001357 0.000001
# 2 0.008561 0.046586 -0.045303 0.000005 0.007010 0.000005
# 3 -0.012259 -0.045303 0.054939 -0.000005 -0.001480 -0.000005
# 4 0.000001 0.000005 -0.000005 0.030628 0.000000 0.002790
# 5 0.001357 0.007010 -0.001480 0.000000 0.038406 0.000001
# 6 0.000001 0.000005 -0.000005 0.002790 0.000001 0.050346
#
#
# Mechanical properties :
#
#
# Convention : Reuss Voigt Hill
#
# Bulk Modulus (GPa) = 53.29078 69.36094 61.32586
# Shear Modulus (GPa) = 14.68835 27.24776 20.96806
#
# Velocity S-wave (km/s) = 2.54634 3.46813 3.04234
# Velocity P-wave (km/s) = 5.67178 6.83044 6.27790
#
# Compressibility (1/GPa) = 0.01876497
#
# Stress axis : x y z
#
# Youngs Moduli (GPa) = 65.60232 21.46573 18.20212
#
# Poissons Ratio (x) = -0.18377 0.22314
# Poissons Ratio (y) = -0.56161 0.82462
# Poissons Ratio (z) = 0.80422 0.97247
#
# Static dielectric constant tensor:
#      x y z
#    x 1.894480 0.000000 0.040990 
#    y 0.000000 1.944500 0.000000 
#    z 0.040990 0.000000 1.880610 
# 
# From -- ./inp_files/200458.got.cif
#   From: 2010.05.17/outbox.cif.g08.bks.cpg/sg15_101_cif.got.tgz:200458.got - 2010.06.03 18:47:42.
