data_PCOD9271800
_publ_section_title
;
Structure prediction by ZEFSAII (Michael W. Deem and Ramdas Pophale) SiO2 
 PCOD9271800
Probable space group: C 2/C
;
_chemical_formula_sum "Si O2"
_cell_formula_units_Z 40
_cell_length_a 18.097214
_cell_length_b 7.168524
_cell_length_c 17.412198
_cell_angle_alpha 90.000000
_cell_angle_beta 47.549039
_cell_angle_gamma 90.000000
_cell_volume 1666.733879
_symmetry_space_group_name_H-M "C 2/C"
_symmetry_group_IT_number 15
_symmetry_cell_setting 'monoclinic'
loop_
_space_group_symop_operation_xyz
x,y,z
-x,y,1/2-z
-x,-y,-z
x,-y,1/2+z
1/2+x,1/2+y,z
1/2-x,1/2+y,1/2-z
1/2-x,1/2-y,-z
1/2+x,1/2-y,1/2+z
loop_
_atom_site_type_symbol
_atom_site_label
_atom_site_fract_x
_atom_site_fract_y
_atom_site_fract_z
Si Si1 0.569598 0.287425 0.126811
Si Si2 0.224615 0.286366 0.330814
Si Si3 0.706224 0.785602 0.886057
Si Si4 0.273912 0.021732 0.433518
Si Si5 0.503797 0.776059 0.505031
O O1 0.500000 0.321231 0.250000
O O2 0.626571 0.085917 0.092364
O O3 0.505206 0.282953 0.093615
O O4 0.668471 0.419003 0.047278
O O5 0.270369 0.288906 0.215226
O O6 0.220010 0.493210 0.369746
O O7 0.276573 0.149439 0.354320
O O8 0.111062 0.215471 0.399496
O O9 0.771698 0.687581 0.904552
O O10 0.591842 0.718266 0.976645
O O11 0.500000 0.000000 0.500000
#
# Coordination Sequence:
#
# PCOD9271800 Si02
#       5
#     8   8   8   8   8
#     4  10  21  39  63  88 132 171 206 259 327 376
#     4  10  20  36  61  93 124 164 206 262 316 366
#     4  11  20  38  64  93 127 160 213 263 311 372
#     4  10  22  40  62  93 126 172 207 260 321 379
#     4   9  21  38  61  92 122 159 210 258 306 375
#
# _framework density 23.999033000000001
#
# number of rings (size 3 to 8) (size 9 to 14) (size 15 to 20)
#    0.000    2.000    2.000    1.200    2.800    3.200 
#    3.600   16.000    0.000   14.400    0.000    0.000 
#    0.000    0.000    0.000    0.000    0.000    0.000 
#
# Total GULP energy -111803.927638 kJ/mol
# GULP energy per Si atom -5590.196382 kJ/mol
# Density = 2.394441 g / cm^3
# Si number density = 23.999033 Si / 1000 Ang^3
#
#
#
# Elastic Constant Matrix: (Units=GPa)
#
#
# Indices 1 2 3 4 5 6 
#
# 1 62.1776 20.8283 -4.0521 0.0000 8.8087 0.0000
# 2 20.8283 87.2543 14.5288 -0.0002 13.2074 0.0003
# 3 -4.0521 14.5288 82.3525 -0.0001 12.6313 0.0001
# 4 0.0000 -0.0002 -0.0001 15.3928 0.0000 11.6268
# 5 8.8087 13.2074 12.6313 0.0000 23.2605 0.0000
# 6 0.0000 0.0003 0.0001 11.6268 0.0000 42.6339
#
#
#
# Elastic Compliance Matrix: (Units=1/GPa)
#
#
# Indices 1 2 3 4 5 6 
#
# 1 0.018422 -0.003889 0.002535 0.000000 -0.006144 0.000000
# 2 -0.003889 0.013473 -0.001768 0.000000 -0.005217 0.000000
# 3 0.002535 -0.001768 0.013715 0.000000 -0.007404 0.000000
# 4 0.000000 0.000000 0.000000 0.081819 0.000000 -0.022313
# 5 -0.006144 -0.005217 -0.007404 0.000000 0.052301 0.000000
# 6 0.000000 0.000000 0.000000 -0.022313 0.000000 0.029541
#
#
# Mechanical properties :
#
#
# Convention : Reuss Voigt Hill
#
# Bulk Modulus (GPa) = 25.40331 32.71049 29.05690
# Shear Modulus (GPa) = 21.86864 29.62274 25.74569
#
# Velocity S-wave (km/s) = 3.02193 3.51712 3.27889
# Velocity P-wave (km/s) = 4.77328 5.49117 5.14476
#
# Compressibility (1/GPa) = 0.03936495
#
# Stress axis : x y z
#
# Youngs Moduli (GPa) = 54.28430 74.22084 72.91173
#
# Poissons Ratio (x) = 0.28868 -0.18483
# Poissons Ratio (y) = 0.21114 0.12892
# Poissons Ratio (z) = -0.13761 0.13123
#
# Static dielectric constant tensor:
#      x y z
#    x 1.912500 0.000000 -0.005160 
#    y 0.000000 1.948350 0.000000 
#    z -0.005160 0.000000 1.916630 
# 
# From -- ./inp_files/221803.got.cif
#   From: 2010.05.17/outbox.cif.g08.bks.cpg/sg15_111_cif.got.tgz:221803.got - 2010.06.03 18:47:42.
