data_PCOD9271444
_publ_section_title
;
Structure prediction by ZEFSAII (Michael W. Deem and Ramdas Pophale) SiO2 
 PCOD9271444
Probable space group: C 2/C
;
_chemical_formula_sum "Si O2"
_cell_formula_units_Z 48
_cell_length_a 13.437442
_cell_length_b 33.737170
_cell_length_c 8.036732
_cell_angle_alpha 90.000000
_cell_angle_beta 135.329646
_cell_angle_gamma 90.000000
_cell_volume 2561.395463
_symmetry_space_group_name_H-M "C 2/C"
_symmetry_group_IT_number 15
_symmetry_cell_setting 'monoclinic'
loop_
_space_group_symop_operation_xyz
x,y,z
-x,y,1/2-z
-x,-y,-z
x,-y,1/2+z
1/2+x,1/2+y,z
1/2-x,1/2+y,1/2-z
1/2-x,1/2-y,-z
1/2+x,1/2-y,1/2+z
loop_
_atom_site_type_symbol
_atom_site_label
_atom_site_fract_x
_atom_site_fract_y
_atom_site_fract_z
Si Si1 0.644002 0.309311 0.318548
Si Si2 0.659618 0.102691 0.934989
Si Si3 0.388258 0.559860 0.399792
Si Si4 0.892571 0.118687 0.965827
Si Si5 0.500000 0.819338 0.250000
Si Si6 0.000000 0.001389 0.250000
Si Si7 0.407209 0.219867 0.307234
O O1 0.500000 0.315004 0.250000
O O2 0.654401 0.342753 0.191048
O O3 0.640259 0.265547 0.231407
O O4 0.772157 0.307262 0.602637
O O5 0.500000 0.086107 0.750000
O O6 0.757176 0.097211 0.887923
O O7 0.632380 0.150086 0.909962
O O8 0.749375 0.084531 0.191713
O O9 0.518394 0.590782 0.552496
O O10 0.429743 0.530138 0.299404
O O11 0.383087 0.529450 0.544446
O O12 0.000000 0.127061 0.250000
O O13 0.511282 0.794385 0.432009
O O14 0.500000 0.218216 0.250000
#
# Coordination Sequence:
#
# PCOD9271444 Si02
#       7
#     8   8   8   8   4   4   8
#     4  10  23  37  58  86 121 147 205 258 290 342
#     4   9  20  37  58  85 115 152 193 238 277 363
#     4  10  20  38  60  86 115 144 192 233 295 349
#     4  10  20  36  59  88 114 152 196 246 286 357
#     4  10  22  36  67  76 120 170 198 232 319 338
#     4  10  20  36  65  84 116 150 176 242 299 346
#     4  10  22  42  54  86 122 160 202 255 299 356
#
# _framework density 18.739785000000001
#
# number of rings (size 3 to 8) (size 9 to 14) (size 15 to 20)
#    0.500    1.667    2.500    1.000    7.000    0.000 
#    0.000    4.167    0.000    0.000    0.000    0.000 
#    0.000    0.000    0.000    0.000    0.000    0.000 
#
# Total GULP energy -133645.062069 kJ/mol
# GULP energy per Si atom -5568.544253 kJ/mol
# Density = 1.869713 g / cm^3
# Si number density = 18.739785 Si / 1000 Ang^3
#
#
#
# Elastic Constant Matrix: (Units=GPa)
#
#
# Indices 1 2 3 4 5 6 
#
# 1 36.4838 6.6747 27.3946 0.0000 19.0350 0.0000
# 2 6.6747 86.5847 52.6230 0.0000 -8.1893 0.0000
# 3 27.3946 52.6230 91.3151 0.0000 1.5496 0.0000
# 4 0.0000 0.0000 0.0000 48.2850 0.0000 4.5288
# 5 19.0350 -8.1893 1.5496 0.0000 33.6034 0.0000
# 6 0.0000 0.0000 0.0000 4.5288 0.0000 32.8301
#
#
#
# Elastic Compliance Matrix: (Units=1/GPa)
#
#
# Indices 1 2 3 4 5 6 
#
# 1 0.056548 0.004298 -0.018930 0.000000 -0.030112 0.000000
# 2 0.004298 0.018913 -0.012235 0.000000 0.002739 0.000000
# 3 -0.018930 -0.012235 0.023568 0.000000 0.006655 0.000000
# 4 0.000000 0.000000 0.000000 0.020982 0.000000 -0.002894
# 5 -0.030112 0.002739 0.006655 0.000000 0.047177 0.000000
# 6 0.000000 0.000000 0.000000 -0.002894 0.000000 0.030859
#
#
# Mechanical properties :
#
#
# Convention : Reuss Voigt Hill
#
# Bulk Modulus (GPa) = 22.07787 43.08535 32.58161
# Shear Modulus (GPa) = 18.73504 31.45646 25.09575
#
# Velocity S-wave (km/s) = 3.16531 4.10151 3.66344
# Velocity P-wave (km/s) = 5.01655 6.74323 5.94293
#
# Compressibility (1/GPa) = 0.04529422
#
# Stress axis : x y z
#
# Youngs Moduli (GPa) = 17.68413 52.87330 42.43032
#
# Poissons Ratio (x) = -0.22724 0.80321
# Poissons Ratio (y) = -0.07600 0.51914
# Poissons Ratio (z) = 0.33476 0.64691
#
# Static dielectric constant tensor:
#      x y z
#    x 1.672150 0.000000 -0.011430 
#    y 0.000000 1.646200 0.000000 
#    z -0.011430 0.000000 1.692640 
# 
# From -- ./inp_files/43968.got.cif
#   From: 2010.05.17/outbox.cif.g08.bks.cpg/sg15_22_cif.got.tgz:43968.got - 2010.06.03 18:47:42.
