data_PCOD9271985
_publ_section_title
;
Structure prediction by ZEFSAII (Michael W. Deem and Ramdas Pophale) SiO2 
 PCOD9271985
Probable space group: C 2/C
;
_chemical_formula_sum "Si O2"
_cell_formula_units_Z 64
_cell_length_a 15.528807
_cell_length_b 18.285095
_cell_length_c 13.474126
_cell_angle_alpha 90.000000
_cell_angle_beta 130.611800
_cell_angle_gamma 90.000000
_cell_volume 2904.398665
_symmetry_space_group_name_H-M "C 2/C"
_symmetry_group_IT_number 15
_symmetry_cell_setting 'monoclinic'
loop_
_space_group_symop_operation_xyz
x,y,z
-x,y,1/2-z
-x,-y,-z
x,-y,1/2+z
1/2+x,1/2+y,z
1/2-x,1/2+y,1/2-z
1/2-x,1/2-y,-z
1/2+x,1/2-y,1/2+z
loop_
_atom_site_type_symbol
_atom_site_label
_atom_site_fract_x
_atom_site_fract_y
_atom_site_fract_z
Si Si1 0.084742 0.756920 0.236719
Si Si2 0.669151 0.601317 0.576499
Si Si3 0.543529 0.307532 0.544867
Si Si4 0.977244 0.415054 0.491254
Si Si5 0.778716 0.892920 0.160924
Si Si6 0.651470 0.556527 0.998155
Si Si7 0.107652 0.401939 0.773527
Si Si8 0.592931 0.186011 0.735040
O O1 0.192952 0.807481 0.306079
O O2 0.122038 0.681974 0.316865
O O3 0.000000 0.794575 0.250000
O O4 0.008529 0.755616 0.080545
O O5 0.569306 0.659832 0.490126
O O6 0.682328 0.577306 0.702859
O O7 0.620173 0.528159 0.487652
O O8 0.789032 0.644448 0.644051
O O9 0.600171 0.377560 0.528540
O O10 0.609418 0.258014 0.675755
O O11 0.854786 0.404500 0.451038
O O12 0.967532 0.373508 0.381382
O O13 0.000000 0.500000 0.500000
O O14 0.078395 0.390785 0.637419
O O15 0.844459 0.922876 0.114967
O O16 0.782807 0.552272 0.128827
O O17 0.000000 0.433710 0.750000
O O18 0.500000 0.202969 0.750000
#
# Coordination Sequence:
#
# PCOD9271985 Si02
#       8
#     8   8   8   8   8   8   8   8
#     4  10  20  36  62  98 128 165 205 277 331 405
#     4  10  26  46  65 101 140 173 236 284 337 416
#     4  11  24  45  68  98 134 181 231 279 338 406
#     4  11  23  40  64  96 137 171 223 284 339 403
#     4  10  22  40  64  96 131 171 220 271 350 397
#     4  12  24  41  70  98 139 184 221 284 348 411
#     4  11  22  34  61  99 134 164 215 264 345 397
#     4  11  26  47  71  99 136 184 233 287 338 407
#
# _framework density 22.035542
#
# number of rings (size 3 to 8) (size 9 to 14) (size 15 to 20)
#    0.000    1.250    3.750    1.875    7.000    2.000 
#    2.250    0.000    0.000    0.000    0.000    0.000 
#    0.000    0.000    0.000    0.000    0.000    0.000 
#
# Total GULP energy -178313.209152 kJ/mol
# GULP energy per Si atom -5572.287786 kJ/mol
# Density = 2.198539 g / cm^3
# Si number density = 22.035542 Si / 1000 Ang^3
#
#
#
# Elastic Constant Matrix: (Units=GPa)
#
#
# Indices 1 2 3 4 5 6 
#
# 1 96.5672 30.9262 6.7267 0.0000 -8.0168 0.0000
# 2 30.9262 66.3547 5.3999 0.0000 -8.6039 0.0000
# 3 6.7267 5.3999 27.3274 0.0000 -0.0576 0.0000
# 4 0.0000 0.0000 0.0000 9.4087 0.0000 -19.7686
# 5 -8.0168 -8.6039 -0.0576 0.0000 25.1764 0.0000
# 6 0.0000 0.0000 0.0000 -19.7686 0.0000 -6.3133
#
#
#
# Elastic Compliance Matrix: (Units=1/GPa)
#
#
# Indices 1 2 3 4 5 6 
#
# 1 0.012377 -0.005333 -0.001989 0.000000 0.002114 0.000000
# 2 -0.005333 0.018335 -0.002301 0.000000 0.004562 0.000000
# 3 -0.001989 -0.002301 0.037535 0.000000 -0.001334 0.000000
# 4 0.000000 0.000000 0.000000 0.014023 0.000000 -0.043911
# 5 0.002114 0.004562 -0.001334 0.000000 0.041949 0.000000
# 6 0.000000 0.000000 0.000000 -0.043911 0.000000 -0.020899
#
#
# Mechanical properties :
#
#
# Convention : Reuss Voigt Hill
#
# Bulk Modulus (GPa) = 20.40701 30.70612 25.55657
# Shear Modulus (GPa) = 35.99751 15.46745 25.73248
#
# Velocity S-wave (km/s) = 4.04618 2.65227 3.42097
# Velocity P-wave (km/s) = 5.57762 4.83161 5.21796
#
# Compressibility (1/GPa) = 0.04900276
#
# Stress axis : x y z
#
# Youngs Moduli (GPa) = 80.79246 54.54095 26.64211
#
# Poissons Ratio (x) = 0.29086 0.05298
# Poissons Ratio (y) = 0.43085 0.06130
# Poissons Ratio (z) = 0.16066 0.12548
#
# Static dielectric constant tensor:
#      x y z
#    x 1.902820 0.000000 -0.042520 
#    y 0.000000 2.302980 0.000000 
#    z -0.042520 0.000000 1.878230 
# 
# From -- ./inp_files/155509.got.cif
#   From: 2010.05.17/outbox.cif.g08.bks.cpg/sg15_78_cif.got.tgz:155509.got - 2010.06.03 18:47:42.
