data_PCOD9271766
_publ_section_title
;
Structure prediction by ZEFSAII (Michael W. Deem and Ramdas Pophale) SiO2 
 PCOD9271766
Probable space group: C 2/C
;
_chemical_formula_sum "Si O2"
_cell_formula_units_Z 40
_cell_length_a 5.499874
_cell_length_b 12.741803
_cell_length_c 28.223963
_cell_angle_alpha 90.000000
_cell_angle_beta 60.860363
_cell_angle_gamma 90.000000
_cell_volume 1727.557432
_symmetry_space_group_name_H-M "C 2/C"
_symmetry_group_IT_number 15
_symmetry_cell_setting 'monoclinic'
loop_
_space_group_symop_operation_xyz
x,y,z
-x,y,1/2-z
-x,-y,-z
x,-y,1/2+z
1/2+x,1/2+y,z
1/2-x,1/2+y,1/2-z
1/2-x,1/2-y,-z
1/2+x,1/2-y,1/2+z
loop_
_atom_site_type_symbol
_atom_site_label
_atom_site_fract_x
_atom_site_fract_y
_atom_site_fract_z
Si Si1 0.352794 0.375982 0.334543
Si Si2 0.500000 0.562699 0.250000
Si Si3 0.666528 0.958144 0.055302
Si Si4 0.052485 0.658622 0.478163
Si Si5 0.500000 0.801884 0.750000
Si Si6 0.485596 0.670104 0.583430
O O1 0.438019 0.481108 0.298702
O O2 0.333566 0.278677 0.300397
O O3 0.557404 0.335958 0.356999
O O4 0.085051 0.410283 0.390012
O O5 0.229729 0.630393 0.258041
O O6 0.916608 0.943287 0.068114
O O7 0.566295 0.068202 0.044744
O O8 0.740857 0.890870 0.001270
O O9 0.795774 0.697254 0.535818
O O10 0.181980 0.743110 0.430536
#
# Coordination Sequence:
#
# PCOD9271766 Si02
#       6
#     8   4   8   8   4   8
#     4  10  26  41  66 102 122 172 228 274 338 410
#     4  11  28  49  72  96 134 171 220 289 348 400
#     4  10  20  36  61  89 134 170 218 267 320 397
#     4   9  20  35  54  95 130 176 216 258 328 382
#     4  11  28  49  72  96 134 171 220 289 348 400
#     4  10  20  36  61  89 134 170 218 267 320 397
#
# _framework density 23.154077000000001
#
# number of rings (size 3 to 8) (size 9 to 14) (size 15 to 20)
#    0.000    2.000    0.000    1.200    8.400    1.600 
#    0.000    4.000    0.000    0.000    0.000    0.000 
#    0.000    0.000    0.000    0.000    0.000    0.000 
#
# Total GULP energy -111415.896100 kJ/mol
# GULP energy per Si atom -5570.794805 kJ/mol
# Density = 2.310138 g / cm^3
# Si number density = 23.154077 Si / 1000 Ang^3
#
#
#
# Elastic Constant Matrix: (Units=GPa)
#
#
# Indices 1 2 3 4 5 6 
#
# 1 46.0749 43.0689 25.8881 0.0002 12.7568 0.0000
# 2 43.0689 126.5615 70.6672 0.0001 17.5376 0.0000
# 3 25.8881 70.6672 131.1108 0.0002 20.3512 -0.0003
# 4 0.0002 0.0001 0.0002 28.2817 -0.0001 5.3242
# 5 12.7568 17.5376 20.3512 -0.0001 38.9331 0.0000
# 6 0.0000 0.0000 -0.0003 5.3242 0.0000 24.8780
#
#
#
# Elastic Compliance Matrix: (Units=1/GPa)
#
#
# Indices 1 2 3 4 5 6 
#
# 1 0.033161 -0.010454 0.000046 0.000000 -0.006181 0.000000
# 2 -0.010454 0.014755 -0.005864 0.000000 -0.000156 0.000000
# 3 0.000046 -0.005864 0.011287 0.000000 -0.003273 0.000000
# 4 0.000000 0.000000 0.000000 0.036843 0.000000 -0.007885
# 5 -0.006181 -0.000156 -0.003273 0.000000 0.029491 0.000000
# 6 0.000000 0.000000 0.000000 -0.007885 0.000000 0.041884
#
#
# Mechanical properties :
#
#
# Convention : Reuss Voigt Hill
#
# Bulk Modulus (GPa) = 37.51150 64.77729 51.14440
# Shear Modulus (GPa) = 23.94047 29.36009 26.65028
#
# Velocity S-wave (km/s) = 3.21902 3.56481 3.39632
# Velocity P-wave (km/s) = 5.48198 6.70680 6.12508
#
# Compressibility (1/GPa) = 0.02665849
#
# Stress axis : x y z
#
# Youngs Moduli (GPa) = 30.15579 67.77440 88.59809
#
# Poissons Ratio (x) = 0.70852 -0.00410
# Poissons Ratio (y) = 0.31525 0.51957
# Poissons Ratio (z) = -0.00140 0.39745
#
# Static dielectric constant tensor:
#      x y z
#    x 2.150260 0.000000 -0.027230 
#    y 0.000000 1.980050 0.000000 
#    z -0.027230 0.000000 1.829090 
# 
# From -- ./inp_files/271963.got.cif
#   From: 2010.05.17/outbox.cif.g08.bks.cpg/sg15_136_cif.got.tgz:271963.got - 2010.06.03 18:47:42.
