data_PCOD9271345
_publ_section_title
;
Structure prediction by ZEFSAII (Michael W. Deem and Ramdas Pophale) SiO2 
 PCOD9271345
Probable space group: C 2/C
;
_chemical_formula_sum "Si O2"
_cell_formula_units_Z 36
_cell_length_a 21.282631
_cell_length_b 7.380060
_cell_length_c 12.146753
_cell_angle_alpha 90.000000
_cell_angle_beta 50.174835
_cell_angle_gamma 90.000000
_cell_volume 1465.237186
_symmetry_space_group_name_H-M "C 2/C"
_symmetry_group_IT_number 15
_symmetry_cell_setting 'monoclinic'
loop_
_space_group_symop_operation_xyz
x,y,z
-x,y,1/2-z
-x,-y,-z
x,-y,1/2+z
1/2+x,1/2+y,z
1/2-x,1/2+y,1/2-z
1/2-x,1/2-y,-z
1/2+x,1/2-y,1/2+z
loop_
_atom_site_type_symbol
_atom_site_label
_atom_site_fract_x
_atom_site_fract_y
_atom_site_fract_z
Si Si1 0.000000 0.696710 0.250000
Si Si2 0.081308 0.733013 0.372649
Si Si3 0.620161 0.877524 0.049393
Si Si4 0.784631 0.990829 0.737357
Si Si5 0.844451 0.646471 0.752004
O O1 0.974532 0.795996 0.165594
O O2 0.927194 0.561466 0.367762
O O3 0.068005 0.739968 0.519734
O O4 0.093479 0.516077 0.343521
O O5 0.165701 0.843615 0.267158
O O6 0.639027 0.785603 0.144375
O O7 0.706162 0.935310 0.898157
O O8 0.842729 0.816152 0.671952
O O9 0.744408 0.052692 0.667666
#
# Coordination Sequence:
#
# PCOD9271345 Si02
#       5
#     4   8   8   8   8
#     4  10  22  40  60  86 124 170 194 228 306 366
#     4  10  22  40  61  88 121 157 200 246 294 355
#     4  10  21  38  65  87 123 158 195 248 301 354
#     4  11  20  36  62  94 117 149 204 252 297 339
#     4  10  20  36  58  93 118 148 193 252 302 338
#
# _framework density 24.569400000000002
#
# number of rings (size 3 to 8) (size 9 to 14) (size 15 to 20)
#    0.000    1.778    4.444    1.333    0.000    3.556 
#    0.000    4.444    0.000   12.000    0.000    0.000 
#    0.000    0.000    0.000    0.000    0.000    0.000 
#
# Total GULP energy -100400.652965 kJ/mol
# GULP energy per Si atom -5577.814054 kJ/mol
# Density = 2.451348 g / cm^3
# Si number density = 24.569400 Si / 1000 Ang^3
#
#
#
# Elastic Constant Matrix: (Units=GPa)
#
#
# Indices 1 2 3 4 5 6 
#
# 1 168.1601 16.2252 34.8410 0.0000 61.8145 0.0000
# 2 16.2252 79.6813 14.4732 0.0000 1.6893 0.0000
# 3 34.8410 14.4732 58.4631 0.0000 15.0907 0.0000
# 4 0.0000 0.0000 0.0000 13.5130 0.0000 -1.5376
# 5 61.8145 1.6893 15.0907 0.0000 60.3297 0.0000
# 6 0.0000 0.0000 0.0000 -1.5376 0.0000 15.6030
#
#
#
# Elastic Compliance Matrix: (Units=1/GPa)
#
#
# Indices 1 2 3 4 5 6 
#
# 1 0.010334 -0.001293 -0.003330 0.000000 -0.009719 0.000000
# 2 -0.001293 0.013316 -0.002963 0.000000 0.001694 0.000000
# 3 -0.003330 -0.002963 0.020226 0.000000 -0.001565 0.000000
# 4 0.000000 0.000000 0.000000 0.074842 0.000000 0.007376
# 5 -0.009719 0.001694 -0.001565 0.000000 0.026878 0.000000
# 6 0.000000 0.000000 0.000000 0.007376 0.000000 0.064817
#
#
# Mechanical properties :
#
#
# Convention : Reuss Voigt Hill
#
# Bulk Modulus (GPa) = 34.83759 48.59816 41.71788
# Shear Modulus (GPa) = 21.26272 33.94015 27.60144
#
# Velocity S-wave (km/s) = 2.94498 3.72075 3.35536
# Velocity P-wave (km/s) = 5.07681 6.18721 5.65931
#
# Compressibility (1/GPa) = 0.02870462
#
# Stress axis : x y z
#
# Youngs Moduli (GPa) = 96.76643 75.09974 49.44018
#
# Poissons Ratio (x) = 0.09714 0.16462
# Poissons Ratio (y) = 0.12516 0.14648
# Poissons Ratio (z) = 0.32219 0.22250
#
# Static dielectric constant tensor:
#      x y z
#    x 2.059790 0.000000 0.022200 
#    y 0.000000 1.951490 0.000000 
#    z 0.022200 0.000000 2.000980 
# 
# From -- ./inp_files/109518.got.cif
#   From: 2010.05.17/outbox.cif.g08.bks.cpg/sg15_55_cif.got.tgz:109518.got - 2010.06.03 18:47:42.
