data_PCOD9271465
_publ_section_title
;
Structure prediction by ZEFSAII (Michael W. Deem and Ramdas Pophale) SiO2 
 PCOD9271465
Probable space group: C 2/C
;
_chemical_formula_sum "Si O2"
_cell_formula_units_Z 48
_cell_length_a 20.028239
_cell_length_b 18.382698
_cell_length_c 7.985236
_cell_angle_alpha 90.000000
_cell_angle_beta 130.843816
_cell_angle_gamma 90.000000
_cell_volume 2224.057018
_symmetry_space_group_name_H-M "C 2/C"
_symmetry_group_IT_number 15
_symmetry_cell_setting 'monoclinic'
loop_
_space_group_symop_operation_xyz
x,y,z
-x,y,1/2-z
-x,-y,-z
x,-y,1/2+z
1/2+x,1/2+y,z
1/2-x,1/2+y,1/2-z
1/2-x,1/2-y,-z
1/2+x,1/2-y,1/2+z
loop_
_atom_site_type_symbol
_atom_site_label
_atom_site_fract_x
_atom_site_fract_y
_atom_site_fract_z
Si Si1 0.931441 0.947529 0.253599
Si Si2 0.002252 0.203422 0.561744
Si Si3 0.303267 0.465348 0.772705
Si Si4 0.195699 0.234955 0.741187
Si Si5 0.718204 0.901747 0.309251
Si Si6 0.092532 0.316084 0.308233
O O1 0.993618 0.883314 0.421512
O O2 0.000000 0.991995 0.250000
O O3 0.879817 0.986522 0.314107
O O4 0.849304 0.922630 0.000562
O O5 0.096563 0.219737 0.637685
O O6 0.000000 0.230085 0.750000
O O7 0.928906 0.241936 0.329689
O O8 0.270479 0.417881 0.565962
O O9 0.231255 0.523363 0.725530
O O10 0.239578 0.165679 0.722106
O O11 0.173115 0.298312 0.568380
O O12 0.250000 0.250000 0.000000
O O13 0.623247 0.875720 0.222681
O O14 0.000000 0.335079 0.250000
#
# Coordination Sequence:
#
# PCOD9271465 Si02
#       6
#     8   8   8   8   8   8
#     4  10  20  36  59  88 134 172 219 255 324 387
#     4  10  21  38  60  94 134 168 210 269 325 387
#     4  10  23  39  61  99 125 184 215 266 315 396
#     4  11  23  38  66  94 128 176 218 274 328 380
#     4  11  23  42  66  92 133 167 228 268 328 390
#     4  10  24  43  64  95 129 173 217 276 338 386
#
# _framework density 21.582182
#
# number of rings (size 3 to 8) (size 9 to 14) (size 15 to 20)
#    0.000    1.667    1.667    2.000    7.000    0.000 
#    0.000    0.833    0.000    0.000    0.000    0.000 
#    0.000    0.000    0.000    0.000    0.000    0.000 
#
# Total GULP energy -133746.247408 kJ/mol
# GULP energy per Si atom -5572.760309 kJ/mol
# Density = 2.153306 g / cm^3
# Si number density = 21.582182 Si / 1000 Ang^3
#
#
#
# Elastic Constant Matrix: (Units=GPa)
#
#
# Indices 1 2 3 4 5 6 
#
# 1 117.3813 45.0859 16.2205 0.0000 -6.4777 0.0000
# 2 45.0859 60.0330 35.2570 0.0000 -3.0147 0.0000
# 3 16.2205 35.2570 123.1237 0.0000 -22.5440 0.0000
# 4 0.0000 0.0000 0.0000 24.6654 0.0000 5.8884
# 5 -6.4777 -3.0147 -22.5440 0.0000 27.8337 0.0000
# 6 0.0000 0.0000 0.0000 5.8884 0.0000 104.0796
#
#
#
# Elastic Compliance Matrix: (Units=1/GPa)
#
#
# Indices 1 2 3 4 5 6 
#
# 1 0.012375 -0.010251 0.001913 0.000000 0.003319 0.000000
# 2 -0.010251 0.028719 -0.007914 0.000000 -0.005685 0.000000
# 3 0.001913 -0.007914 0.011813 0.000000 0.009156 0.000000
# 4 0.000000 0.000000 0.000000 0.041098 0.000000 -0.002325
# 5 0.003319 -0.005685 0.009156 0.000000 0.043500 0.000000
# 6 0.000000 0.000000 0.000000 -0.002325 0.000000 0.009740
#
#
# Mechanical properties :
#
#
# Convention : Reuss Voigt Hill
#
# Bulk Modulus (GPa) = 49.01491 54.85166 51.93329
# Shear Modulus (GPa) = 26.80260 44.91404 35.85832
#
# Velocity S-wave (km/s) = 3.52786 4.56682 4.08055
# Velocity P-wave (km/s) = 6.27332 7.29920 6.80562
#
# Compressibility (1/GPa) = 0.02040195
#
# Stress axis : x y z
#
# Youngs Moduli (GPa) = 80.80541 34.82070 84.65536
#
# Poissons Ratio (x) = 0.35694 -0.16192
# Poissons Ratio (y) = 0.82832 0.66998
# Poissons Ratio (z) = -0.15456 0.27558
#
# Static dielectric constant tensor:
#      x y z
#    x 1.867560 0.000000 -0.056140 
#    y 0.000000 1.872170 0.000000 
#    z -0.056140 0.000000 1.832020 
# 
# From -- ./inp_files/57989.got.cif
#   From: 2010.05.17/outbox.cif.g08.bks.cpg/sg15_29_cif.got.tgz:57989.got - 2010.06.03 18:47:42.
