data_PCOD9271383
_publ_section_title
;
Structure prediction by ZEFSAII (Michael W. Deem and Ramdas Pophale) SiO2 
 PCOD9271383
Probable space group: C 2/C
;
_chemical_formula_sum "Si O2"
_cell_formula_units_Z 56
_cell_length_a 31.470540
_cell_length_b 13.069888
_cell_length_c 15.586228
_cell_angle_alpha 90.000000
_cell_angle_beta 27.231249
_cell_angle_gamma 90.000000
_cell_volume 2933.505555
_symmetry_space_group_name_H-M "C 2/C"
_symmetry_group_IT_number 15
_symmetry_cell_setting 'monoclinic'
loop_
_space_group_symop_operation_xyz
x,y,z
-x,y,1/2-z
-x,-y,-z
x,-y,1/2+z
1/2+x,1/2+y,z
1/2-x,1/2+y,1/2-z
1/2-x,1/2-y,-z
1/2+x,1/2-y,1/2+z
loop_
_atom_site_type_symbol
_atom_site_label
_atom_site_fract_x
_atom_site_fract_y
_atom_site_fract_z
Si Si1 0.942384 0.217306 0.065658
Si Si2 0.139565 0.847499 0.244544
Si Si3 0.089007 0.639004 0.032806
Si Si4 0.951432 0.976297 0.424980
Si Si5 0.237352 0.005461 0.825505
Si Si6 0.630628 0.568477 0.185332
Si Si7 0.712286 0.279979 0.927386
O O1 0.867416 0.177205 0.269750
O O2 0.932917 0.316416 0.022990
O O3 0.042010 0.209561 0.932232
O O4 0.944037 0.122074 0.997197
O O5 0.211061 0.803377 0.184669
O O6 0.138068 0.970959 0.237375
O O7 0.168782 0.813027 0.096207
O O8 0.000000 0.607330 0.250000
O O9 0.168558 0.554358 0.877725
O O10 0.137101 0.729614 0.000724
O O11 0.851341 0.019162 0.578052
O O12 0.000000 0.941570 0.250000
O O13 0.027610 0.051871 0.329548
O O14 0.249044 0.884107 0.819337
O O15 0.204165 0.053736 0.976561
#
# Coordination Sequence:
#
# PCOD9271383 Si02
#       7
#     8   8   8   8   8   8   8
#     4  11  19  33  56  91 118 148 191 248 296 346
#     4   9  18  33  59  88 113 144 193 247 293 343
#     4  12  24  38  61  85 119 161 202 238 292 350
#     4   9  16  32  57  88 117 142 185 251 291 333
#     4  10  22  38  57  86 123 152 194 242 298 349
#     4   9  20  33  58  91 119 143 187 253 307 334
#     4  10  20  36  59  84 113 151 201 241 284 352
#
# _framework density 19.089787999999999
#
# number of rings (size 3 to 8) (size 9 to 14) (size 15 to 20)
#    0.000    2.000    2.857    3.000    4.000    0.571 
#    0.000    0.714    3.143    0.000    0.000    0.000 
#    0.000    0.000    0.000    0.000    0.000    0.000 
#
# Total GULP energy -156100.535297 kJ/mol
# GULP energy per Si atom -5575.019118 kJ/mol
# Density = 1.904634 g / cm^3
# Si number density = 19.089788 Si / 1000 Ang^3
#
#
#
# Elastic Constant Matrix: (Units=GPa)
#
#
# Indices 1 2 3 4 5 6 
#
# 1 48.4369 7.4216 29.2038 0.0000 -3.3486 0.0000
# 2 7.4216 51.9842 50.0443 0.0000 -1.7045 0.0000
# 3 29.2038 50.0443 110.8028 0.0000 -12.5389 0.0000
# 4 0.0000 0.0000 0.0000 19.3700 0.0000 2.6427
# 5 -3.3486 -1.7045 -12.5389 0.0000 20.5708 0.0000
# 6 0.0000 0.0000 0.0000 2.6427 0.0000 13.0017
#
#
#
# Elastic Compliance Matrix: (Units=1/GPa)
#
#
# Indices 1 2 3 4 5 6 
#
# 1 0.025266 0.005095 -0.009073 0.000000 -0.000995 0.000000
# 2 0.005095 0.036037 -0.018461 0.000000 -0.007437 0.000000
# 3 -0.009073 -0.018461 0.020852 0.000000 0.009704 0.000000
# 4 0.000000 0.000000 0.000000 0.053099 0.000000 -0.010793
# 5 -0.000995 -0.007437 0.009704 0.000000 0.053749 0.000000
# 6 0.000000 0.000000 0.000000 -0.010793 0.000000 0.079107
#
#
# Mechanical properties :
#
#
# Convention : Reuss Voigt Hill
#
# Bulk Modulus (GPa) = 26.82570 42.72926 34.77748
# Shear Modulus (GPa) = 15.36501 18.89210 17.12856
#
# Velocity S-wave (km/s) = 2.84012 3.14927 2.99868
# Velocity P-wave (km/s) = 4.98377 5.97125 5.49972
#
# Compressibility (1/GPa) = 0.03727769
#
# Stress axis : x y z
#
# Youngs Moduli (GPa) = 39.57837 27.74914 47.95641
#
# Poissons Ratio (x) = -0.14137 0.43510
# Poissons Ratio (y) = -0.20163 0.88531
# Poissons Ratio (z) = 0.35909 0.51227
#
# Static dielectric constant tensor:
#      x y z
#    x 1.701980 0.000000 0.008210 
#    y 0.000000 1.668710 0.000000 
#    z 0.008210 0.000000 1.714560 
# 
# From -- ./inp_files/182104.got.cif
#   From: 2010.05.17/outbox.cif.g08.bks.cpg/sg15_92_cif.got.tgz:182104.got - 2010.06.03 18:47:42.
