data_PCOD9271814
_publ_section_title
;
Structure prediction by ZEFSAII (Michael W. Deem and Ramdas Pophale) SiO2 
 PCOD9271814
Probable space group: C 2/C
;
_chemical_formula_sum "Si O2"
_cell_formula_units_Z 28
_cell_length_a 13.913695
_cell_length_b 16.047105
_cell_length_c 5.284600
_cell_angle_alpha 90.000000
_cell_angle_beta 113.480049
_cell_angle_gamma 90.000000
_cell_volume 1082.218126
_symmetry_space_group_name_H-M "C 2/C"
_symmetry_group_IT_number 15
_symmetry_cell_setting 'monoclinic'
loop_
_space_group_symop_operation_xyz
x,y,z
-x,y,1/2-z
-x,-y,-z
x,-y,1/2+z
1/2+x,1/2+y,z
1/2-x,1/2+y,1/2-z
1/2-x,1/2-y,-z
1/2+x,1/2-y,1/2+z
loop_
_atom_site_type_symbol
_atom_site_label
_atom_site_fract_x
_atom_site_fract_y
_atom_site_fract_z
Si Si1 0.000000 0.685931 0.750000
Si Si2 0.684067 0.721511 0.683097
Si Si3 0.863244 0.029710 0.745379
Si Si4 0.131374 0.464298 0.414964
O O1 0.932448 0.739179 0.481055
O O2 0.910148 0.621045 0.748472
O O3 0.750000 0.750000 0.500000
O O4 0.661375 0.623580 0.697362
O O5 0.750000 0.750000 0.000000
O O6 0.911973 0.025656 0.518346
O O7 0.753497 0.980870 0.573670
O O8 0.095808 0.531682 0.169591
#
# Coordination Sequence:
#
# PCOD9271814 Si02
#       4
#     4   8   8   8
#     4  12  26  42  70 104 134 176 230 286 344 404
#     4  12  26  45  68 104 145 180 226 293 350 402
#     4  10  20  40  64  90 130 182 222 268 336 410
#     4  10  20  36  61  95 128 166 215 272 336 407
#
# _framework density 25.872786000000001
#
# number of rings (size 3 to 8) (size 9 to 14) (size 15 to 20)
#    0.000    1.143    0.000    9.429    0.000    3.429 
#    0.000    1.429    0.000    0.000    0.000    0.000 
#    0.000    0.000    0.000    0.000    0.000    0.000 
#
# Total GULP energy -78038.757323 kJ/mol
# GULP energy per Si atom -5574.196952 kJ/mol
# Density = 2.581390 g / cm^3
# Si number density = 25.872786 Si / 1000 Ang^3
#
#
#
# Elastic Constant Matrix: (Units=GPa)
#
#
# Indices 1 2 3 4 5 6 
#
# 1 72.7166 29.4907 62.4889 0.0000 -2.5449 0.0000
# 2 29.4907 195.4833 77.0573 0.0000 2.7328 0.0000
# 3 62.4889 77.0573 262.0453 0.0000 2.9475 0.0000
# 4 0.0000 0.0000 0.0000 44.1501 0.0000 14.6548
# 5 -2.5449 2.7328 2.9475 0.0000 77.3643 0.0000
# 6 0.0000 0.0000 0.0000 14.6548 0.0000 34.2664
#
#
#
# Elastic Compliance Matrix: (Units=1/GPa)
#
#
# Indices 1 2 3 4 5 6 
#
# 1 0.017558 -0.001138 -0.003861 0.000000 0.000765 0.000000
# 2 -0.001138 0.005861 -0.001450 0.000000 -0.000189 0.000000
# 3 -0.003861 -0.001450 0.005166 0.000000 -0.000273 0.000000
# 4 0.000000 0.000000 0.000000 0.026397 0.000000 -0.011289
# 5 0.000765 -0.000189 -0.000273 0.000000 0.012968 0.000000
# 6 0.000000 0.000000 0.000000 -0.011289 0.000000 0.034011
#
#
# Mechanical properties :
#
#
# Convention : Reuss Voigt Hill
#
# Bulk Modulus (GPa) = 63.74190 96.47987 80.11089
# Shear Modulus (GPa) = 41.63550 55.23672 48.43611
#
# Velocity S-wave (km/s) = 4.01588 4.62555 4.33146
# Velocity P-wave (km/s) = 6.79656 8.11780 7.48638
#
# Compressibility (1/GPa) = 0.01568827
#
# Stress axis : x y z
#
# Youngs Moduli (GPa) = 56.95353 170.60640 193.55812
#
# Poissons Ratio (x) = 0.19407 0.74735
# Poissons Ratio (y) = 0.06479 0.28071
# Poissons Ratio (z) = 0.21991 0.24742
#
# Static dielectric constant tensor:
#      x y z
#    x 2.461200 0.000000 -0.001240 
#    y 0.000000 2.007770 0.000000 
#    z -0.001240 0.000000 2.083900 
# 
# From -- ./inp_files/9482.got.cif
#   From: 2010.05.17/outbox.cif.g08.bks.cpg/sg15_5_cif.got.tgz:9482.got - 2010.06.03 18:47:42.
