data_PCOD9271729
_publ_section_title
;
Structure prediction by ZEFSAII (Michael W. Deem and Ramdas Pophale) SiO2 
 PCOD9271729
Probable space group: C 2/C
;
_chemical_formula_sum "Si O2"
_cell_formula_units_Z 56
_cell_length_a 17.030990
_cell_length_b 9.877881
_cell_length_c 27.451572
_cell_angle_alpha 90.000000
_cell_angle_beta 139.903912
_cell_angle_gamma 90.000000
_cell_volume 2974.437986
_symmetry_space_group_name_H-M "C 2/C"
_symmetry_group_IT_number 15
_symmetry_cell_setting 'monoclinic'
loop_
_space_group_symop_operation_xyz
x,y,z
-x,y,1/2-z
-x,-y,-z
x,-y,1/2+z
1/2+x,1/2+y,z
1/2-x,1/2+y,1/2-z
1/2-x,1/2-y,-z
1/2+x,1/2-y,1/2+z
loop_
_atom_site_type_symbol
_atom_site_label
_atom_site_fract_x
_atom_site_fract_y
_atom_site_fract_z
Si Si1 0.224289 0.599989 0.507882
Si Si2 0.389758 0.518422 0.166941
Si Si3 0.273576 0.884341 0.822718
Si Si4 0.890883 0.998171 0.007374
Si Si5 0.492954 0.922340 0.423328
Si Si6 0.044381 0.777602 0.035643
Si Si7 0.464459 0.342494 0.848020
O O1 0.250000 0.750000 0.500000
O O2 0.310525 0.579026 0.595640
O O3 0.275683 0.508291 0.487900
O O4 0.092763 0.539491 0.460068
O O5 0.500000 0.452205 0.250000
O O6 0.302303 0.591097 0.163788
O O7 0.454248 0.622800 0.160566
O O8 0.369702 0.766906 0.879669
O O9 0.175791 0.853244 0.734717
O O10 0.358724 0.014606 0.855435
O O11 0.925795 0.855350 0.999507
O O12 0.001535 0.045887 0.095076
O O13 0.885180 0.111573 0.963443
O O14 0.515268 0.849130 0.486299
O O15 0.500654 0.800711 0.388179
#
# Coordination Sequence:
#
# PCOD9271729 Si02
#       7
#     8   8   8   8   8   8   8
#     4  11  22  37  62  87 119 152 197 248 292 350
#     4   9  20  39  60  84 112 155 194 235 293 351
#     4  11  21  35  62  84 118 151 195 242 285 350
#     4   9  21  37  58  86 118 150 193 240 298 341
#     4  11  23  37  61  91 114 153 204 238 299 347
#     4  10  20  36  61  85 114 153 196 241 288 353
#     4   9  22  39  58  85 120 156 195 239 295 354
#
# _framework density 18.827085
#
# number of rings (size 3 to 8) (size 9 to 14) (size 15 to 20)
#    0.000    2.000    1.429    1.286    6.000    1.714 
#    2.571    0.000    3.143    0.000    0.000    0.000 
#    0.000    0.000    0.000    0.000    0.000    0.000 
#
# Total GULP energy -156142.139091 kJ/mol
# GULP energy per Si atom -5576.504968 kJ/mol
# Density = 1.878423 g / cm^3
# Si number density = 18.827085 Si / 1000 Ang^3
#
#
#
# Elastic Constant Matrix: (Units=GPa)
#
#
# Indices 1 2 3 4 5 6 
#
# 1 69.3907 25.1899 21.3205 0.0000 2.5133 0.0000
# 2 25.1899 85.6833 37.0349 0.0000 3.3747 0.0000
# 3 21.3205 37.0349 86.6134 0.0000 7.7279 0.0000
# 4 0.0000 0.0000 0.0000 16.6510 0.0000 -1.5511
# 5 2.5133 3.3747 7.7279 0.0000 24.5168 0.0000
# 6 0.0000 0.0000 0.0000 -1.5511 0.0000 18.1646
#
#
#
# Elastic Compliance Matrix: (Units=1/GPa)
#
#
# Indices 1 2 3 4 5 6 
#
# 1 0.016548 -0.003808 -0.002409 0.000000 -0.000413 0.000000
# 2 -0.003808 0.015193 -0.005564 0.000000 0.000053 0.000000
# 3 -0.002409 -0.005564 0.014845 0.000000 -0.003666 0.000000
# 4 0.000000 0.000000 0.000000 0.060538 0.000000 0.005169
# 5 -0.000413 0.000053 -0.003666 0.000000 0.041979 0.000000
# 6 0.000000 0.000000 0.000000 0.005169 0.000000 0.055494
#
#
# Mechanical properties :
#
#
# Convention : Reuss Voigt Hill
#
# Bulk Modulus (GPa) = 43.42923 45.41978 44.42450
# Shear Modulus (GPa) = 21.20150 22.40927 21.80539
#
# Velocity S-wave (km/s) = 3.35941 3.45377 3.40691
# Velocity P-wave (km/s) = 6.17778 6.33102 6.25487
#
# Compressibility (1/GPa) = 0.02302597
#
# Stress axis : x y z
#
# Youngs Moduli (GPa) = 60.42873 65.81943 67.36473
#
# Poissons Ratio (x) = 0.25062 0.16225
# Poissons Ratio (y) = 0.23010 0.37480
# Poissons Ratio (z) = 0.14554 0.36621
#
# Static dielectric constant tensor:
#      x y z
#    x 1.671120 0.000000 0.003570 
#    y 0.000000 1.675260 0.000000 
#    z 0.003570 0.000000 1.647500 
# 
# From -- ./inp_files/315526.got.cif
#   From: 2010.05.17/outbox.cif.g08.bks.cpg/sg15_158_cif.got.tgz:315526.got - 2010.06.03 18:47:42.
