data_PCOD9271151
_publ_section_title
;
Structure prediction by ZEFSAII (Michael W. Deem and Ramdas Pophale) SiO2 
 PCOD9271151
Probable space group: C 2/C
;
_chemical_formula_sum "Si O2"
_cell_formula_units_Z 40
_cell_length_a 10.393434
_cell_length_b 26.922026
_cell_length_c 5.846825
_cell_angle_alpha 90.000000
_cell_angle_beta 74.543986
_cell_angle_gamma 90.000000
_cell_volume 1576.847660
_symmetry_space_group_name_H-M "C 2/C"
_symmetry_group_IT_number 15
_symmetry_cell_setting 'monoclinic'
loop_
_space_group_symop_operation_xyz
x,y,z
-x,y,1/2-z
-x,-y,-z
x,-y,1/2+z
1/2+x,1/2+y,z
1/2-x,1/2+y,1/2-z
1/2-x,1/2-y,-z
1/2+x,1/2-y,1/2+z
loop_
_atom_site_type_symbol
_atom_site_label
_atom_site_fract_x
_atom_site_fract_y
_atom_site_fract_z
Si Si1 0.135890 0.175656 0.056077
Si Si2 0.349433 0.772606 0.759414
Si Si3 0.161448 0.996502 0.797846
Si Si4 0.627938 0.913295 0.776301
Si Si5 0.188339 0.400760 0.254531
O O1 0.257777 0.187334 0.171972
O O2 0.000000 0.163542 0.250000
O O3 0.119913 0.226769 0.925919
O O4 0.181642 0.132315 0.866072
O O5 0.500000 0.789681 0.750000
O O6 0.250000 0.750000 0.000000
O O7 0.237050 0.943975 0.768914
O O8 0.100137 0.998252 0.576491
O O9 0.269897 0.041753 0.741119
O O10 0.500000 0.945102 0.750000
O O11 0.642568 0.882373 0.529538
O O12 0.607167 0.897106 0.051303
#
# Coordination Sequence:
#
# PCOD9271151 Si02
#       5
#     8   8   8   8   8
#     4  11  25  44  69 100 132 177 227 282 345 414
#     4  11  24  47  75  99 133 177 223 278 346 422
#     4   8  16  31  53  79 122 170 217 265 322 390
#     4  10  20  36  57  88 133 180 222 274 336 396
#     4  10  22  36  58  92 126 168 222 274 329 398
#
# _framework density 25.367068
#
# number of rings (size 3 to 8) (size 9 to 14) (size 15 to 20)
#    0.000    2.000    2.000    0.600    2.800    8.000 
#    3.600    0.000    0.000   10.800    0.000    0.000 
#    0.000    0.000    0.000    0.000    0.000    0.000 
#
# Total GULP energy -111455.467595 kJ/mol
# GULP energy per Si atom -5572.773380 kJ/mol
# Density = 2.530933 g / cm^3
# Si number density = 25.367068 Si / 1000 Ang^3
#
#
#
# Elastic Constant Matrix: (Units=GPa)
#
#
# Indices 1 2 3 4 5 6 
#
# 1 140.2400 16.9715 99.4905 0.0000 25.8080 0.0000
# 2 16.9715 38.3247 30.3815 0.0000 3.7221 0.0000
# 3 99.4905 30.3815 283.1404 0.0000 8.3218 0.0000
# 4 0.0000 0.0000 0.0000 39.8942 0.0000 -6.0208
# 5 25.8080 3.7221 8.3218 0.0000 46.3467 0.0000
# 6 0.0000 0.0000 0.0000 -6.0208 0.0000 21.2453
#
#
#
# Elastic Compliance Matrix: (Units=1/GPa)
#
#
# Indices 1 2 3 4 5 6 
#
# 1 0.010725 -0.001504 -0.003454 0.000000 -0.005232 0.000000
# 2 -0.001504 0.028871 -0.002539 0.000000 -0.001025 0.000000
# 3 -0.003454 -0.002539 0.004982 0.000000 0.001233 0.000000
# 4 0.000000 0.000000 0.000000 0.026186 0.000000 0.007421
# 5 -0.005232 -0.001025 0.001233 0.000000 0.024351 0.000000
# 6 0.000000 0.000000 0.000000 0.007421 0.000000 0.049172
#
#
# Mechanical properties :
#
#
# Convention : Reuss Voigt Hill
#
# Bulk Modulus (GPa) = 33.80093 83.93244 58.86669
# Shear Modulus (GPa) = 29.56076 42.48799 36.02438
#
# Velocity S-wave (km/s) = 3.41738 4.09703 3.77254
# Velocity P-wave (km/s) = 5.37820 7.45251 6.49865
#
# Compressibility (1/GPa) = 0.02958498
#
# Stress axis : x y z
#
# Youngs Moduli (GPa) = 93.23607 34.63632 200.73790
#
# Poissons Ratio (x) = 0.05208 0.69327
# Poissons Ratio (y) = 0.14020 0.50976
# Poissons Ratio (z) = 0.32200 0.08796
#
# Static dielectric constant tensor:
#      x y z
#    x 2.110350 0.000000 -0.021010 
#    y 0.000000 1.994800 0.000000 
#    z -0.021010 0.000000 2.019820 
# 
# From -- ./inp_files/4933.got.cif
#   From: 2010.05.17/outbox.cif.g08.bks.cpg/sg15_3_cif.got.tgz:4933.got - 2010.06.03 18:47:42.
