data_PCOD9271752
_publ_section_title
;
Structure prediction by ZEFSAII (Michael W. Deem and Ramdas Pophale) SiO2 
 PCOD9271752
Probable space group: C 2/C
;
_chemical_formula_sum "Si O2"
_cell_formula_units_Z 64
_cell_length_a 8.779709
_cell_length_b 27.406845
_cell_length_c 14.677751
_cell_angle_alpha 90.000000
_cell_angle_beta 117.635709
_cell_angle_gamma 90.000000
_cell_volume 3128.891985
_symmetry_space_group_name_H-M "C 2/C"
_symmetry_group_IT_number 15
_symmetry_cell_setting 'monoclinic'
loop_
_space_group_symop_operation_xyz
x,y,z
-x,y,1/2-z
-x,-y,-z
x,-y,1/2+z
1/2+x,1/2+y,z
1/2-x,1/2+y,1/2-z
1/2-x,1/2-y,-z
1/2+x,1/2-y,1/2+z
loop_
_atom_site_type_symbol
_atom_site_label
_atom_site_fract_x
_atom_site_fract_y
_atom_site_fract_z
Si Si1 0.059127 0.287565 0.666167
Si Si2 0.229761 0.355571 0.002551
Si Si3 0.272350 0.392353 0.499121
Si Si4 0.799004 0.114029 0.718447
Si Si5 0.159623 0.934729 0.606291
Si Si6 0.318243 0.034727 0.672675
Si Si7 0.619152 0.685770 0.603464
Si Si8 0.296808 0.375431 0.708413
O O1 0.906327 0.317269 0.574555
O O2 0.000000 0.269546 0.750000
O O3 0.121206 0.243020 0.621177
O O4 0.209654 0.326792 0.721603
O O5 0.202037 0.372538 0.098741
O O6 0.418998 0.330752 0.050451
O O7 0.241108 0.403326 0.942004
O O8 0.461040 0.417933 0.546154
O O9 0.159200 0.425924 0.402035
O O10 0.297934 0.338591 0.463020
O O11 0.219603 0.388980 0.588970
O O12 0.746905 0.065947 0.759346
O O13 0.788945 0.158658 0.786623
O O14 0.000000 0.108363 0.750000
O O15 0.224217 0.917373 0.723173
O O16 0.190908 0.991938 0.607938
O O17 0.500000 0.012128 0.750000
O O18 0.500000 0.367599 0.750000
#
# Coordination Sequence:
#
# PCOD9271752 Si02
#       8
#     8   8   8   8   8   8   8   8
#     4  12  22  35  63  92 122 156 203 254 304 342
#     4  10  20  36  61  88 122 150 197 253 302 342
#     4   9  21  43  62  81 123 164 199 239 305 369
#     4   9  20  41  59  83 120 158 197 244 295 368
#     4  10  21  40  61  85 118 160 198 247 292 368
#     4  11  24  37  62  91 120 150 202 253 308 351
#     4   9  20  39  62  90 116 156 204 248 291 366
#     4  10  23  41  59  84 124 161 198 242 300 363
#
# _framework density 20.454525
#
# number of rings (size 3 to 8) (size 9 to 14) (size 15 to 20)
#    0.000    2.000    1.250    2.625    3.500    3.000 
#    0.000    3.750    0.000    0.000    0.000    0.000 
#    0.000    0.000    0.000    0.000    0.000    0.000 
#
# Total GULP energy -178739.188026 kJ/mol
# GULP energy per Si atom -5585.599626 kJ/mol
# Density = 2.040797 g / cm^3
# Si number density = 20.454525 Si / 1000 Ang^3
#
#
#
# Elastic Constant Matrix: (Units=GPa)
#
#
# Indices 1 2 3 4 5 6 
#
# 1 7.4293 2.6089 13.4860 0.0000 -0.4663 0.0000
# 2 2.6089 88.1708 13.3833 0.0000 -1.3015 0.0000
# 3 13.4860 13.3833 105.7000 0.0000 -15.3246 0.0000
# 4 0.0000 0.0000 0.0000 17.2897 0.0000 6.0679
# 5 -0.4663 -1.3015 -15.3246 0.0000 21.5269 0.0000
# 6 0.0000 0.0000 0.0000 6.0679 0.0000 16.5774
#
#
#
# Elastic Compliance Matrix: (Units=1/GPa)
#
#
# Indices 1 2 3 4 5 6 
#
# 1 0.179037 -0.001765 -0.024613 0.000000 -0.013750 0.000000
# 2 -0.001765 0.011584 -0.001277 0.000000 -0.000247 0.000000
# 3 -0.024613 -0.001277 0.014133 0.000000 0.009451 0.000000
# 4 0.000000 0.000000 0.000000 0.066363 0.000000 -0.024291
# 5 -0.013750 -0.000247 0.009451 0.000000 0.052868 0.000000
# 6 0.000000 0.000000 0.000000 -0.024291 0.000000 0.069214
#
#
# Mechanical properties :
#
#
# Convention : Reuss Voigt Hill
#
# Bulk Modulus (GPa) = 6.69144 28.91739 17.80442
# Shear Modulus (GPa) = 10.03362 22.53360 16.28361
#
# Velocity S-wave (km/s) = 2.21720 3.32270 2.82456
# Velocity P-wave (km/s) = 3.13578 5.37481 4.40010
#
# Compressibility (1/GPa) = 0.14944461
#
# Stress axis : x y z
#
# Youngs Moduli (GPa) = 5.58543 86.32537 70.75676
#
# Poissons Ratio (x) = 0.15232 1.74153
# Poissons Ratio (y) = 0.00986 0.09039
# Poissons Ratio (z) = 0.13747 0.11028
#
# Static dielectric constant tensor:
#      x y z
#    x 1.722560 0.000000 0.014180 
#    y 0.000000 1.672540 0.000000 
#    z 0.014180 0.000000 1.748250 
# 
# From -- ./inp_files/138668.got.cif
#   From: 2010.05.17/outbox.cif.g08.bks.cpg/sg15_70_cif.got.tgz:138668.got - 2010.06.03 18:47:42.
