data_PCOD9271402
_publ_section_title
;
Structure prediction by ZEFSAII (Michael W. Deem and Ramdas Pophale) SiO2 
 PCOD9271402
Probable space group: C 2/C
;
_chemical_formula_sum "Si O2"
_cell_formula_units_Z 64
_cell_length_a 17.157707
_cell_length_b 8.575036
_cell_length_c 18.126522
_cell_angle_alpha 90.000000
_cell_angle_beta 78.528065
_cell_angle_gamma 90.000000
_cell_volume 2613.639074
_symmetry_space_group_name_H-M "C 2/C"
_symmetry_group_IT_number 15
_symmetry_cell_setting 'monoclinic'
loop_
_space_group_symop_operation_xyz
x,y,z
-x,y,1/2-z
-x,-y,-z
x,-y,1/2+z
1/2+x,1/2+y,z
1/2-x,1/2+y,1/2-z
1/2-x,1/2-y,-z
1/2+x,1/2-y,1/2+z
loop_
_atom_site_type_symbol
_atom_site_label
_atom_site_fract_x
_atom_site_fract_y
_atom_site_fract_z
Si Si1 0.081604 0.101934 0.877430
Si Si2 0.566589 0.248112 0.158218
Si Si3 0.104964 0.412106 0.493642
Si Si4 0.746839 0.217895 0.325597
Si Si5 0.679400 0.969483 0.705161
Si Si6 0.547390 0.767428 0.032236
Si Si7 0.651916 0.464972 0.587733
Si Si8 0.684777 0.630533 0.426154
O O1 0.164751 0.190957 0.852400
O O2 0.018985 0.164834 0.829263
O O3 0.113242 0.926241 0.884804
O O4 0.042749 0.156533 0.961759
O O5 0.595315 0.117045 0.210696
O O6 0.627300 0.393783 0.145703
O O7 0.578641 0.159862 0.077234
O O8 0.111325 0.595850 0.503291
O O9 0.177568 0.311329 0.448731
O O10 0.033369 0.367865 0.450347
O O11 0.727404 0.096903 0.265334
O O12 0.814426 0.344779 0.292529
O O13 0.776743 0.131036 0.391829
O O14 0.732063 0.915527 0.624901
O O15 0.578190 0.655581 0.090541
O O16 0.670697 0.534666 0.503926
#
# Coordination Sequence:
#
# PCOD9271402 Si02
#       8
#     8   8   8   8   8   8   8   8
#     4   9  20  37  58  83 112 151 192 234 286 347
#     4  10  20  36  59  85 113 148 192 237 287 343
#     4   9  17  30  53  86 121 149 184 238 291 340
#     4  11  24  41  60  83 117 156 197 244 296 355
#     4  11  24  40  59  85 117 155 199 246 297 353
#     4   9  17  30  53  87 119 149 187 236 290 341
#     4  10  20  36  62  89 118 154 197 244 295 353
#     4   9  20  37  60  87 119 155 196 242 296 356
#
# _framework density 24.486930999999998
#
# number of rings (size 3 to 8) (size 9 to 14) (size 15 to 20)
#    0.000    2.250    0.000    2.250    0.000   13.000 
#    0.000    0.000    0.000    6.750    0.000    0.000 
#    0.000    0.000    0.000    0.000    0.000    0.000 
#
# Total GULP energy -178844.244300 kJ/mol
# GULP energy per Si atom -5588.882634 kJ/mol
# Density = 2.443120 g / cm^3
# Si number density = 24.486931 Si / 1000 Ang^3
#
#
#
# Elastic Constant Matrix: (Units=GPa)
#
#
# Indices 1 2 3 4 5 6 
#
# 1 100.6527 15.9369 12.7264 0.0000 27.8829 0.0000
# 2 15.9369 97.7323 0.6089 0.0000 11.4357 0.0000
# 3 12.7264 0.6089 31.2380 0.0000 14.4660 0.0000
# 4 0.0000 0.0000 0.0000 28.2125 0.0000 5.8806
# 5 27.8829 11.4357 14.4660 0.0000 33.6272 0.0000
# 6 0.0000 0.0000 0.0000 5.8806 0.0000 38.2648
#
#
#
# Elastic Compliance Matrix: (Units=1/GPa)
#
#
# Indices 1 2 3 4 5 6 
#
# 1 0.012979 -0.000917 -0.000538 0.000000 -0.010219 0.000000
# 2 -0.000917 0.010806 0.001889 0.000000 -0.003727 0.000000
# 3 -0.000538 0.001889 0.040317 0.000000 -0.017541 0.000000
# 4 0.000000 0.000000 0.000000 0.036618 0.000000 -0.005628
# 5 -0.010219 -0.003727 -0.017541 0.000000 0.047024 0.000000
# 6 0.000000 0.000000 0.000000 -0.005628 0.000000 0.026999
#
#
# Mechanical properties :
#
#
# Convention : Reuss Voigt Hill
#
# Bulk Modulus (GPa) = 15.39169 32.01860 23.70514
# Shear Modulus (GPa) = 25.57120 33.37762 29.47441
#
# Velocity S-wave (km/s) = 3.23504 3.69600 3.47317
# Velocity P-wave (km/s) = 4.50036 5.59625 5.07796
#
# Compressibility (1/GPa) = 0.06497014
#
# Stress axis : x y z
#
# Youngs Moduli (GPa) = 77.04629 92.54183 24.80320
#
# Poissons Ratio (x) = 0.08490 0.01334
# Poissons Ratio (y) = 0.07068 -0.04685
# Poissons Ratio (z) = 0.04143 -0.17481
#
# Static dielectric constant tensor:
#      x y z
#    x 2.030410 0.000000 -0.003280 
#    y 0.000000 1.949970 0.000000 
#    z -0.003280 0.000000 1.979150 
# 
# From -- ./inp_files/247466.got.cif
#   From: 2010.05.17/outbox.cif.g08.bks.cpg/sg15_124_cif.got.tgz:247466.got - 2010.06.03 18:47:42.
