data_PCOD9271714
_publ_section_title
;
Structure prediction by ZEFSAII (Michael W. Deem and Ramdas Pophale) SiO2 
 PCOD9271714
Probable space group: C 2/C
;
_chemical_formula_sum "Si O2"
_cell_formula_units_Z 36
_cell_length_a 13.073682
_cell_length_b 16.268750
_cell_length_c 8.090406
_cell_angle_alpha 90.000000
_cell_angle_beta 114.296772
_cell_angle_gamma 90.000000
_cell_volume 1568.353839
_symmetry_space_group_name_H-M "C 2/C"
_symmetry_group_IT_number 15
_symmetry_cell_setting 'monoclinic'
loop_
_space_group_symop_operation_xyz
x,y,z
-x,y,1/2-z
-x,-y,-z
x,-y,1/2+z
1/2+x,1/2+y,z
1/2-x,1/2+y,1/2-z
1/2-x,1/2-y,-z
1/2+x,1/2-y,1/2+z
loop_
_atom_site_type_symbol
_atom_site_label
_atom_site_fract_x
_atom_site_fract_y
_atom_site_fract_z
Si Si1 0.251767 0.662450 0.410699
Si Si2 0.895624 0.391181 0.407031
Si Si3 0.554949 0.760330 0.604530
Si Si4 0.487877 0.594785 0.437540
Si Si5 0.000000 0.499309 0.750000
O O1 0.250000 0.750000 0.500000
O O2 0.209888 0.609261 0.540835
O O3 0.164285 0.682284 0.203092
O O4 0.366631 0.626998 0.419290
O O5 0.979547 0.439228 0.585375
O O6 0.958800 0.303999 0.428804
O O7 0.898137 0.441265 0.238770
O O8 0.500000 0.757698 0.750000
O O9 0.572204 0.665960 0.562788
O O10 0.500000 0.597071 0.250000
O O11 0.500000 0.500000 0.500000
#
# Coordination Sequence:
#
# PCOD9271714 Si02
#       5
#     8   8   8   8   4
#     4  11  22  43  74  93 134 194 222 284 362 412
#     4  10  20  38  64  96 136 171 226 282 346 409
#     4  10  20  44  69  98 136 180 235 284 348 430
#     4  12  28  47  70 106 147 187 242 304 353 424
#     4  10  20  36  60  98 134 166 220 298 326 406
#
# _framework density 22.954004000000001
#
# number of rings (size 3 to 8) (size 9 to 14) (size 15 to 20)
#    0.000    1.333    7.778    0.667    1.556    2.667 
#    0.000    0.000    0.000    0.000    0.000    0.000 
#    0.000    0.000    0.000    0.000    0.000    0.000 
#
# Total GULP energy -100223.505784 kJ/mol
# GULP energy per Si atom -5567.972544 kJ/mol
# Density = 2.290176 g / cm^3
# Si number density = 22.954004 Si / 1000 Ang^3
#
#
#
# Elastic Constant Matrix: (Units=GPa)
#
#
# Indices 1 2 3 4 5 6 
#
# 1 127.2645 53.0170 24.2167 0.0000 -13.1211 0.0000
# 2 53.0170 136.5864 35.6468 0.0000 -18.2013 0.0000
# 3 24.2167 35.6468 34.1541 0.0000 -5.9386 0.0000
# 4 0.0000 0.0000 0.0000 21.1637 0.0000 -10.7570
# 5 -13.1211 -18.2013 -5.9386 0.0000 24.2706 0.0000
# 6 0.0000 0.0000 0.0000 -10.7570 0.0000 33.1370
#
#
#
# Elastic Compliance Matrix: (Units=1/GPa)
#
#
# Indices 1 2 3 4 5 6 
#
# 1 0.009908 -0.002460 -0.004018 0.000000 0.002528 0.000000
# 2 -0.002460 0.011343 -0.009239 0.000000 0.004915 0.000000
# 3 -0.004018 -0.009239 0.041974 0.000000 0.001170 0.000000
# 4 0.000000 0.000000 0.000000 0.056588 0.000000 0.018370
# 5 0.002528 0.004915 0.001170 0.000000 0.046541 0.000000
# 6 0.000000 0.000000 0.000000 0.018370 0.000000 0.036141
#
#
# Mechanical properties :
#
#
# Convention : Reuss Voigt Hill
#
# Bulk Modulus (GPa) = 31.45622 58.19623 44.82623
# Shear Modulus (GPa) = 20.44778 28.05587 24.25182
#
# Velocity S-wave (km/s) = 2.98789 3.49988 3.25397
# Velocity P-wave (km/s) = 5.06331 6.46070 5.80421
#
# Compressibility (1/GPa) = 0.03179021
#
# Stress axis : x y z
#
# Youngs Moduli (GPa) = 100.93113 88.16247 23.82424
#
# Poissons Ratio (x) = 0.21691 0.09572
# Poissons Ratio (y) = 0.24833 0.22012
# Poissons Ratio (z) = 0.40550 0.81455
#
# Static dielectric constant tensor:
#      x y z
#    x 1.986720 0.000000 0.053220 
#    y 0.000000 2.159730 0.000000 
#    z 0.053220 0.000000 1.959510 
# 
# From -- ./inp_files/37616.got.cif
#   From: 2010.05.17/outbox.cif.g08.bks.cpg/sg15_19_cif.got.tgz:37616.got - 2010.06.03 18:47:42.
