data_PCOD9271081
_publ_section_title
;
Structure prediction by ZEFSAII (Michael W. Deem and Ramdas Pophale) SiO2 
 PCOD9271081
Probable space group: C 2/C
;
_chemical_formula_sum "Si O2"
_cell_formula_units_Z 48
_cell_length_a 11.641658
_cell_length_b 16.986018
_cell_length_c 13.017868
_cell_angle_alpha 90.000000
_cell_angle_beta 74.786385
_cell_angle_gamma 90.000000
_cell_volume 2484.007855
_symmetry_space_group_name_H-M "C 2/C"
_symmetry_group_IT_number 15
_symmetry_cell_setting 'monoclinic'
loop_
_space_group_symop_operation_xyz
x,y,z
-x,y,1/2-z
-x,-y,-z
x,-y,1/2+z
1/2+x,1/2+y,z
1/2-x,1/2+y,1/2-z
1/2-x,1/2-y,-z
1/2+x,1/2-y,1/2+z
loop_
_atom_site_type_symbol
_atom_site_label
_atom_site_fract_x
_atom_site_fract_y
_atom_site_fract_z
Si Si1 0.247929 0.094196 0.126437
Si Si2 0.003727 0.365826 0.637632
Si Si3 0.133252 0.961186 0.861194
Si Si4 0.090296 0.111416 0.984706
Si Si5 0.281443 0.079215 0.524742
Si Si6 0.074543 0.189855 0.634861
O O1 0.367793 0.137874 0.133170
O O2 0.167181 0.076472 0.245210
O O3 0.272026 0.005490 0.079914
O O4 0.187211 0.138450 0.044319
O O5 0.081530 0.403937 0.529709
O O6 0.073537 0.283932 0.642410
O O7 0.000000 0.408316 0.750000
O O8 0.142479 0.054647 0.882910
O O9 0.219725 0.925809 0.927382
O O10 0.997982 0.940522 0.922843
O O11 0.004379 0.171563 0.947450
O O12 0.201223 0.145911 0.599102
O O13 0.000000 0.159510 0.750000
#
# Coordination Sequence:
#
# PCOD9271081 Si02
#       6
#     8   8   8   8   8   8
#     4  11  20  33  58  82 115 142 184 240 279 328
#     4  11  22  37  54  80 115 157 185 219 284 346
#     4   9  17  32  54  82 110 137 184 238 277 325
#     4   9  19  32  54  86 108 141 187 232 285 321
#     4  10  20  36  57  82 106 148 191 227 274 333
#     4  10  21  37  59  80 110 147 187 235 275 339
#
# _framework density 19.323609999999999
#
# number of rings (size 3 to 8) (size 9 to 14) (size 15 to 20)
#    0.000    2.000    1.667    3.500    0.000    0.667 
#    0.000    0.000    0.000    0.000    4.333    0.000 
#    0.000    0.000    0.000    0.000    0.000    0.000 
#
# Total GULP energy -133633.675252 kJ/mol
# GULP energy per Si atom -5568.069802 kJ/mol
# Density = 1.927963 g / cm^3
# Si number density = 19.323610 Si / 1000 Ang^3
#
#
#
# Elastic Constant Matrix: (Units=GPa)
#
#
# Indices 1 2 3 4 5 6 
#
# 1 66.7619 -10.8905 7.5873 0.0000 -0.5411 0.0000
# 2 -10.8905 27.1815 8.3612 0.0000 -10.8181 0.0000
# 3 7.5873 8.3612 73.6596 0.0000 -12.4309 0.0000
# 4 0.0000 0.0000 0.0000 14.9749 0.0000 -1.3086
# 5 -0.5411 -10.8181 -12.4309 0.0000 35.3403 0.0000
# 6 0.0000 0.0000 0.0000 -1.3086 0.0000 21.3645
#
#
#
# Elastic Compliance Matrix: (Units=1/GPa)
#
#
# Indices 1 2 3 4 5 6 
#
# 1 0.016581 0.008120 -0.002304 0.000000 0.001929 0.000000
# 2 0.008120 0.046402 -0.003918 0.000000 0.012950 0.000000
# 3 -0.002304 -0.003918 0.014936 0.000000 0.004019 0.000000
# 4 0.000000 0.000000 0.000000 0.067138 0.000000 0.004112
# 5 0.001929 0.012950 0.004019 0.000000 0.033704 0.000000
# 6 0.000000 0.000000 0.000000 0.004112 0.000000 0.047059
#
#
# Mechanical properties :
#
#
# Convention : Reuss Voigt Hill
#
# Bulk Modulus (GPa) = 12.23776 19.74655 15.99215
# Shear Modulus (GPa) = 20.05920 25.17227 22.61573
#
# Velocity S-wave (km/s) = 3.22540 3.61317 3.42478
# Velocity P-wave (km/s) = 4.49641 5.25811 4.89211
#
# Compressibility (1/GPa) = 0.08171431
#
# Stress axis : x y z
#
# Youngs Moduli (GPa) = 60.31153 21.55067 66.95092
#
# Poissons Ratio (x) = -0.17498 0.15426
# Poissons Ratio (y) = -0.48970 0.26231
# Poissons Ratio (z) = 0.13896 0.08444
#
# Static dielectric constant tensor:
#      x y z
#    x 1.696530 0.000000 -0.018020 
#    y 0.000000 1.702580 0.000000 
#    z -0.018020 0.000000 1.708500 
# 
# From -- ./inp_files/87251.got.cif
#   From: 2010.05.17/outbox.cif.g08.bks.cpg/sg15_44_cif.got.tgz:87251.got - 2010.06.03 18:47:42.
