data_PCOD9271751
_publ_section_title
;
Structure prediction by ZEFSAII (Michael W. Deem and Ramdas Pophale) SiO2 
 PCOD9271751
Probable space group: C 2/C
;
_chemical_formula_sum "Si O2"
_cell_formula_units_Z 56
_cell_length_a 9.048203
_cell_length_b 29.214376
_cell_length_c 11.967942
_cell_angle_alpha 90.000000
_cell_angle_beta 50.847566
_cell_angle_gamma 90.000000
_cell_volume 2453.255738
_symmetry_space_group_name_H-M "C 2/C"
_symmetry_group_IT_number 15
_symmetry_cell_setting 'monoclinic'
loop_
_space_group_symop_operation_xyz
x,y,z
-x,y,1/2-z
-x,-y,-z
x,-y,1/2+z
1/2+x,1/2+y,z
1/2-x,1/2+y,1/2-z
1/2-x,1/2-y,-z
1/2+x,1/2-y,1/2+z
loop_
_atom_site_type_symbol
_atom_site_label
_atom_site_fract_x
_atom_site_fract_y
_atom_site_fract_z
Si Si1 0.267600 0.057747 0.604314
Si Si2 0.323771 0.037325 0.181421
Si Si3 0.082159 0.912277 0.984591
Si Si4 0.825937 0.888100 0.910476
Si Si5 0.227729 0.221571 0.661649
Si Si6 0.798915 0.681442 0.391356
Si Si7 0.937387 0.642347 0.656053
O O1 0.451095 0.046723 0.435886
O O2 0.093990 0.064492 0.600261
O O3 0.316752 0.104106 0.647482
O O4 0.273411 0.015339 0.686114
O O5 0.219620 0.058858 0.337145
O O6 0.239705 0.065097 0.116585
O O7 0.162922 0.861341 0.962808
O O8 0.895412 0.902762 0.000315
O O9 0.000000 0.870590 0.750000
O O10 0.643715 0.855076 0.996819
O O11 0.267298 0.275554 0.652104
O O12 0.322627 0.203048 0.502476
O O13 0.314771 0.188791 0.713511
O O14 0.000000 0.216723 0.750000
O O15 0.000000 0.664616 0.250000
O O16 0.000000 0.628545 0.750000
#
# Coordination Sequence:
#
# PCOD9271751 Si02
#       7
#     8   8   8   8   8   8   8
#     4  10  20  36  61  88 121 172 217 262 324 382
#     4   9  20  36  56  90 128 160 217 277 314 376
#     4  11  20  37  66  93 123 172 224 265 319 382
#     4   9  22  40  60  92 131 167 220 269 315 384
#     4  10  23  43  65  99 132 161 218 270 327 387
#     4  10  21  39  73  98 122 165 222 272 307 384
#     4  11  24  41  62  91 136 172 206 266 340 386
#
# _framework density 22.826806999999999
#
# number of rings (size 3 to 8) (size 9 to 14) (size 15 to 20)
#    0.000    2.000    1.429    1.286    6.000    4.000 
#    0.000    7.857    0.000    0.000    0.000    0.000 
#    0.000    0.000    0.000    0.000    0.000    0.000 
#
# Total GULP energy -156490.730921 kJ/mol
# GULP energy per Si atom -5588.954676 kJ/mol
# Density = 2.277485 g / cm^3
# Si number density = 22.826807 Si / 1000 Ang^3
#
#
#
# Elastic Constant Matrix: (Units=GPa)
#
#
# Indices 1 2 3 4 5 6 
#
# 1 90.7485 19.9560 14.2469 0.0000 23.0338 0.0000
# 2 19.9560 97.5091 3.3010 0.0000 7.2896 0.0000
# 3 14.2469 3.3010 51.6607 0.0000 -1.0182 0.0000
# 4 0.0000 0.0000 0.0000 25.1155 0.0000 3.5654
# 5 23.0338 7.2896 -1.0182 0.0000 38.2742 0.0000
# 6 0.0000 0.0000 0.0000 3.5654 0.0000 -7.6533
#
#
#
# Elastic Compliance Matrix: (Units=1/GPa)
#
#
# Indices 1 2 3 4 5 6 
#
# 1 0.014205 -0.002157 -0.003942 0.000000 -0.008243 0.000000
# 2 -0.002157 0.010757 -0.000107 0.000000 -0.000753 0.000000
# 3 -0.003942 -0.000107 0.020509 0.000000 0.002938 0.000000
# 4 0.000000 0.000000 0.000000 0.037346 0.000000 0.017398
# 5 -0.008243 -0.000753 0.002938 0.000000 0.031309 0.000000
# 6 0.000000 0.000000 0.000000 0.017398 0.000000 -0.122557
#
#
# Mechanical properties :
#
#
# Convention : Reuss Voigt Hill
#
# Bulk Modulus (GPa) = 30.25040 34.99179 32.62109
# Shear Modulus (GPa) = 333.29701 24.64157 178.96929
#
# Velocity S-wave (km/s) = 12.09662 3.28914 8.86416
# Velocity P-wave (km/s) = 14.43555 5.45776 10.91266
#
# Compressibility (1/GPa) = 0.03305742
#
# Stress axis : x y z
#
# Youngs Moduli (GPa) = 70.39817 92.96322 48.75920
#
# Poissons Ratio (x) = 0.20057 0.19221
# Poissons Ratio (y) = 0.15188 0.00523
# Poissons Ratio (z) = 0.27751 0.00997
#
# Static dielectric constant tensor:
#      x y z
#    x 1.867580 0.000000 -0.026280 
#    y 0.000000 1.816150 0.000000 
#    z -0.026280 0.000000 1.953070 
# 
# From -- ./inp_files/82468.got.cif
#   From: 2010.05.17/outbox.cif.g08.bks.cpg/sg15_42_cif.got.tgz:82468.got - 2010.06.03 18:47:42.
