data_PCOD9271489
_publ_section_title
;
Structure prediction by ZEFSAII (Michael W. Deem and Ramdas Pophale) SiO2 
 PCOD9271489
Probable space group: C 2/C
;
_chemical_formula_sum "Si O2"
_cell_formula_units_Z 64
_cell_length_a 8.093870
_cell_length_b 22.431133
_cell_length_c 19.622033
_cell_angle_alpha 90.000000
_cell_angle_beta 55.385281
_cell_angle_gamma 90.000000
_cell_volume 2931.880335
_symmetry_space_group_name_H-M "C 2/C"
_symmetry_group_IT_number 15
_symmetry_cell_setting 'monoclinic'
loop_
_space_group_symop_operation_xyz
x,y,z
-x,y,1/2-z
-x,-y,-z
x,-y,1/2+z
1/2+x,1/2+y,z
1/2-x,1/2+y,1/2-z
1/2-x,1/2-y,-z
1/2+x,1/2-y,1/2+z
loop_
_atom_site_type_symbol
_atom_site_label
_atom_site_fract_x
_atom_site_fract_y
_atom_site_fract_z
Si Si1 0.063441 0.649588 0.621540
Si Si2 0.201403 0.603361 0.360105
Si Si3 0.109233 0.083572 0.865192
Si Si4 0.306981 0.260784 0.845572
Si Si5 0.373429 0.685803 0.722668
Si Si6 0.258343 0.046022 0.294998
Si Si7 0.655318 0.955024 0.000204
Si Si8 0.240813 0.932227 0.947347
O O1 0.191574 0.614827 0.649852
O O2 0.156919 0.716608 0.599121
O O3 0.075149 0.605447 0.554212
O O4 0.838455 0.663217 0.698085
O O5 0.257160 0.670613 0.365110
O O6 0.271999 0.579795 0.269505
O O7 0.282621 0.564244 0.404400
O O8 0.957692 0.595859 0.414366
O O9 0.023570 0.125284 0.825896
O O10 0.162856 0.019446 0.822574
O O11 0.941025 0.086017 0.962509
O O12 0.500000 0.258123 0.750000
O O13 0.141368 0.228599 0.838296
O O14 0.500000 0.718015 0.750000
O O15 0.500000 0.038456 0.250000
O O16 0.194380 0.079303 0.379363
O O17 0.741783 0.996496 0.040159
O O18 0.500000 0.000000 0.000000
#
# Coordination Sequence:
#
# PCOD9271489 Si02
#       8
#     8   8   8   8   8   8   8   8
#     4  10  21  42  66  89 130 176 212 270 325 395
#     4  10  23  39  64  92 132 168 219 275 329 384
#     4  11  21  36  64  93 132 167 219 254 333 407
#     4   9  21  45  64  91 122 174 229 269 317 394
#     4  10  23  37  67  93 120 165 223 271 321 382
#     4  10  20  36  59  90 127 177 207 256 335 395
#     4  10  22  37  63  93 138 160 211 272 331 379
#     4  10  22  38  59  96 135 169 207 266 336 402
#
# _framework density 21.828994000000002
#
# number of rings (size 3 to 8) (size 9 to 14) (size 15 to 20)
#    0.000    2.000    1.250    2.250    7.000    3.000 
#    0.000    2.500    2.750    0.000    0.000    0.000 
#    0.000    0.000    0.000    0.000    0.000    0.000 
#
# Total GULP energy -178462.831710 kJ/mol
# GULP energy per Si atom -5576.963491 kJ/mol
# Density = 2.177931 g / cm^3
# Si number density = 21.828994 Si / 1000 Ang^3
#
#
#
# Elastic Constant Matrix: (Units=GPa)
#
#
# Indices 1 2 3 4 5 6 
#
# 1 56.1770 26.2367 26.5840 0.0000 3.1734 0.0000
# 2 26.2367 128.6063 46.0458 0.0000 11.4757 0.0000
# 3 26.5840 46.0458 119.5873 0.0000 12.3111 0.0000
# 4 0.0000 0.0000 0.0000 33.6175 0.0000 4.0771
# 5 3.1734 11.4757 12.3111 0.0000 29.3860 0.0000
# 6 0.0000 0.0000 0.0000 4.0771 0.0000 16.7244
#
#
#
# Elastic Compliance Matrix: (Units=1/GPa)
#
#
# Indices 1 2 3 4 5 6 
#
# 1 0.020856 -0.003034 -0.003509 0.000000 0.000403 0.000000
# 2 -0.003034 0.009594 -0.002788 0.000000 -0.002251 0.000000
# 3 -0.003509 -0.002788 0.010518 0.000000 -0.002939 0.000000
# 4 0.000000 0.000000 0.000000 0.030653 0.000000 -0.007473
# 5 0.000403 -0.002251 -0.002939 0.000000 0.036097 0.000000
# 6 0.000000 0.000000 0.000000 -0.007473 0.000000 0.061615
#
#
# Mechanical properties :
#
#
# Convention : Reuss Voigt Hill
#
# Bulk Modulus (GPa) = 44.83293 55.78930 50.31111
# Shear Modulus (GPa) = 25.58473 29.64587 27.61530
#
# Velocity S-wave (km/s) = 3.42724 3.68923 3.56065
# Velocity P-wave (km/s) = 6.02031 6.61515 6.32473
#
# Compressibility (1/GPa) = 0.02230503
#
# Stress axis : x y z
#
# Youngs Moduli (GPa) = 47.94799 104.23587 95.07385
#
# Poissons Ratio (x) = 0.31628 0.33365
# Poissons Ratio (y) = 0.14549 0.26504
# Poissons Ratio (z) = 0.16827 0.29058
#
# Static dielectric constant tensor:
#      x y z
#    x 1.925760 0.000000 0.006980 
#    y 0.000000 1.791330 0.000000 
#    z 0.006980 0.000000 1.825780 
# 
# From -- ./inp_files/233833.got.cif
#   From: 2010.05.17/outbox.cif.g08.bks.cpg/sg15_117_cif.got.tgz:233833.got - 2010.06.03 18:47:42.
