data_PCOD9271971
_publ_section_title
;
Structure prediction by ZEFSAII (Michael W. Deem and Ramdas Pophale) SiO2 
 PCOD9271971
Probable space group: C 2/C
;
_chemical_formula_sum "Si O2"
_cell_formula_units_Z 60
_cell_length_a 9.266125
_cell_length_b 10.839537
_cell_length_c 23.127726
_cell_angle_alpha 90.000000
_cell_angle_beta 106.749449
_cell_angle_gamma 90.000000
_cell_volume 2224.406860
_symmetry_space_group_name_H-M "C 2/C"
_symmetry_group_IT_number 15
_symmetry_cell_setting 'monoclinic'
loop_
_space_group_symop_operation_xyz
x,y,z
-x,y,1/2-z
-x,-y,-z
x,-y,1/2+z
1/2+x,1/2+y,z
1/2-x,1/2+y,1/2-z
1/2-x,1/2-y,-z
1/2+x,1/2-y,1/2+z
loop_
_atom_site_type_symbol
_atom_site_label
_atom_site_fract_x
_atom_site_fract_y
_atom_site_fract_z
Si Si1 0.284899 0.705440 0.899788
Si Si2 0.113972 0.178214 0.954952
Si Si3 0.720499 0.744846 0.133693
Si Si4 0.086437 0.893311 0.199932
Si Si5 0.063626 0.076972 0.407351
Si Si6 0.500685 0.928957 0.151514
Si Si7 0.000000 0.775379 0.750000
Si Si8 0.702727 0.095242 0.241784
O O1 0.441510 0.703622 0.953180
O O2 0.349030 0.700387 0.841139
O O3 0.168935 0.588044 0.892892
O O4 0.191135 0.824385 0.907612
O O5 0.143702 0.229776 0.893430
O O6 0.122619 0.029638 0.956539
O O7 0.250000 0.250000 0.000000
O O8 0.589837 0.652214 0.095842
O O9 0.635582 0.878781 0.126795
O O10 0.786546 0.684799 0.200664
O O11 0.991872 0.995203 0.153770
O O12 0.000000 0.863429 0.250000
O O13 0.243362 0.959597 0.233314
O O14 0.502226 0.813529 0.195820
O O15 0.553711 0.054695 0.188884
O O16 0.853301 0.858564 0.727789
#
# Coordination Sequence:
#
# PCOD9271971 Si02
#       8
#     8   8   8   8   8   8   4   8
#     4  10  23  44  65  98 141 180 233 290 352 430
#     4  11  25  48  79 104 133 180 245 315 368 413
#     4   9  22  43  69 103 138 188 239 284 352 432
#     4  10  20  36  62  94 140 194 227 267 337 405
#     4   9  22  47  69  92 148 179 221 299 355 406
#     4  10  21  38  63  95 140 189 233 278 342 425
#     4  10  20  38  58  92 136 194 230 272 338 392
#     4  10  20  36  65  94 140 192 234 268 334 409
#
# _framework density 26.973483000000002
#
# number of rings (size 3 to 8) (size 9 to 14) (size 15 to 20)
#    0.000    2.133    0.667    1.600    3.733    1.067 
#    2.400   16.000    0.000   14.400    0.000    0.000 
#    0.000    0.000    0.000    0.000    0.000    0.000 
#
# Total GULP energy -167550.330287 kJ/mol
# GULP energy per Si atom -5585.011010 kJ/mol
# Density = 2.691209 g / cm^3
# Si number density = 26.973483 Si / 1000 Ang^3
#
#
#
# Elastic Constant Matrix: (Units=GPa)
#
#
# Indices 1 2 3 4 5 6 
#
# 1 213.7439 83.2596 36.9550 0.0000 34.5140 0.0000
# 2 83.2596 120.8134 21.3790 0.0000 4.6208 0.0000
# 3 36.9550 21.3790 26.6572 0.0000 18.1549 0.0000
# 4 0.0000 0.0000 0.0000 5.1893 0.0000 -0.8795
# 5 34.5140 4.6208 18.1549 0.0000 30.9042 0.0000
# 6 0.0000 0.0000 0.0000 -0.8795 0.0000 63.9096
#
#
#
# Elastic Compliance Matrix: (Units=1/GPa)
#
#
# Indices 1 2 3 4 5 6 
#
# 1 0.008140 -0.004854 -0.002826 0.000000 -0.006706 0.000000
# 2 -0.004854 0.013063 -0.010183 0.000000 0.009450 0.000000
# 3 -0.002826 -0.010183 0.077364 0.000000 -0.040770 0.000000
# 4 0.000000 0.000000 0.000000 0.193156 0.000000 0.002658
# 5 -0.006706 0.009450 -0.040770 0.000000 0.062384 0.000000
# 6 0.000000 0.000000 0.000000 0.002658 0.000000 0.015684
#
#
# Mechanical properties :
#
#
# Convention : Reuss Voigt Hill
#
# Bulk Modulus (GPa) = 15.91304 71.60019 43.75661
# Shear Modulus (GPa) = 11.72432 34.64199 23.18316
#
# Velocity S-wave (km/s) = 2.08711 3.58760 2.93487
# Velocity P-wave (km/s) = 3.42350 6.61539 5.26706
#
# Compressibility (1/GPa) = 0.06284156
#
# Stress axis : x y z
#
# Youngs Moduli (GPa) = 122.84384 76.55380 12.92590
#
# Poissons Ratio (x) = 0.37156 0.03653
# Poissons Ratio (y) = 0.59623 0.13163
# Poissons Ratio (z) = 0.34713 0.77958
#
# Static dielectric constant tensor:
#      x y z
#    x 2.171720 0.000000 -0.022090 
#    y 0.000000 2.252330 0.000000 
#    z -0.022090 0.000000 2.616260 
# 
# From -- ./inp_files/307202.got.cif
#   From: 2010.05.17/outbox.cif.g08.bks.cpg/sg15_154_cif.got.tgz:307202.got - 2010.06.03 18:47:42.
