data_PCOD9271135
_publ_section_title
;
Structure prediction by ZEFSAII (Michael W. Deem and Ramdas Pophale) SiO2 
 PCOD9271135
Probable space group: C 2/C
;
_chemical_formula_sum "Si O2"
_cell_formula_units_Z 56
_cell_length_a 23.104116
_cell_length_b 11.509044
_cell_length_c 24.465879
_cell_angle_alpha 90.000000
_cell_angle_beta 153.536508
_cell_angle_gamma 90.000000
_cell_volume 2899.088000
_symmetry_space_group_name_H-M "C 2/C"
_symmetry_group_IT_number 15
_symmetry_cell_setting 'monoclinic'
loop_
_space_group_symop_operation_xyz
x,y,z
-x,y,1/2-z
-x,-y,-z
x,-y,1/2+z
1/2+x,1/2+y,z
1/2-x,1/2+y,1/2-z
1/2-x,1/2-y,-z
1/2+x,1/2-y,1/2+z
loop_
_atom_site_type_symbol
_atom_site_label
_atom_site_fract_x
_atom_site_fract_y
_atom_site_fract_z
Si Si1 0.927321 0.110333 0.040973
Si Si2 0.099674 0.280111 0.384842
Si Si3 0.668002 0.822651 0.090343
Si Si4 0.453740 0.992120 0.083589
Si Si5 0.195386 0.012563 0.223776
Si Si6 0.077854 0.324532 0.541781
Si Si7 0.758549 0.564358 0.153844
O O1 0.951543 0.181537 0.116646
O O2 0.054734 0.044841 0.127469
O O3 0.891878 0.208676 0.966140
O O4 0.812372 0.017587 0.949696
O O5 0.250000 0.250000 0.500000
O O6 0.097626 0.402245 0.415336
O O7 0.000000 0.285175 0.250000
O O8 0.724199 0.699241 0.121317
O O9 0.755961 0.892123 0.208648
O O10 0.528387 0.803760 0.001461
O O11 0.644356 0.908818 0.019573
O O12 0.588344 0.045934 0.216700
O O13 0.480889 0.916176 0.051606
O O14 0.295087 0.113291 0.327514
O O15 0.202712 0.018187 0.164816
#
# Coordination Sequence:
#
# PCOD9271135 Si02
#       7
#     8   8   8   8   8   8   8
#     4  11  26  36  63  96 128 160 218 274 316 380
#     4  11  26  48  75  96 118 162 226 294 342 367
#     4  11  22  36  57  90 135 181 205 242 309 395
#     4  10  22  41  62  89 126 165 214 268 321 378
#     4  11  22  35  56  89 137 177 211 245 304 397
#     4  10  20  36  57  86 131 177 206 250 312 375
#     4  12  23  35  60  93 137 173 207 245 320 402
#
# _framework density 19.316419
#
# number of rings (size 3 to 8) (size 9 to 14) (size 15 to 20)
#    0.000    1.143    4.286    2.143   14.000    0.000 
#    0.000    0.000    0.000    4.286    0.000    0.000 
#    0.000    0.000    0.000    0.000    0.000    0.000 
#
# Total GULP energy -156561.235991 kJ/mol
# GULP energy per Si atom -5591.472714 kJ/mol
# Density = 1.927245 g / cm^3
# Si number density = 19.316419 Si / 1000 Ang^3
#
#
#
# Elastic Constant Matrix: (Units=GPa)
#
#
# Indices 1 2 3 4 5 6 
#
# 1 54.1163 23.4655 22.1643 0.0000 -12.1887 0.0000
# 2 23.4655 146.3693 44.9782 0.0001 -10.8016 0.0000
# 3 22.1643 44.9782 78.5724 0.0002 -5.3013 0.0000
# 4 0.0000 0.0001 0.0002 27.1100 0.0000 2.4888
# 5 -12.1887 -10.8016 -5.3013 0.0000 28.2266 0.0000
# 6 0.0000 0.0000 0.0000 2.4888 0.0000 18.1176
#
#
#
# Elastic Compliance Matrix: (Units=1/GPa)
#
#
# Indices 1 2 3 4 5 6 
#
# 1 0.023123 -0.001522 -0.005081 0.000000 0.008448 0.000000
# 2 -0.001522 0.008542 -0.004339 0.000000 0.001797 0.000000
# 3 -0.005081 -0.004339 0.016595 0.000000 -0.000738 0.000000
# 4 0.000000 0.000000 0.000000 0.037358 0.000000 -0.005132
# 5 0.008448 0.001797 -0.000738 0.000000 0.039624 0.000000
# 6 0.000000 0.000000 0.000000 -0.005132 0.000000 0.055900
#
#
# Mechanical properties :
#
#
# Convention : Reuss Voigt Hill
#
# Bulk Modulus (GPa) = 37.91607 51.14155 44.52881
# Shear Modulus (GPa) = 23.60517 27.25418 25.42967
#
# Velocity S-wave (km/s) = 3.49954 3.76031 3.63227
# Velocity P-wave (km/s) = 6.00005 6.73695 6.37915
#
# Compressibility (1/GPa) = 0.02637404
#
# Stress axis : x y z
#
# Youngs Moduli (GPa) = 43.24780 117.06782 60.26026
#
# Poissons Ratio (x) = 0.17818 0.30620
# Poissons Ratio (y) = 0.06583 0.26149
# Poissons Ratio (z) = 0.21976 0.50799
#
# Static dielectric constant tensor:
#      x y z
#    x 1.659720 0.000000 -0.022390 
#    y 0.000000 1.674470 0.000000 
#    z -0.022390 0.000000 1.695620 
# 
# From -- ./inp_files/280027.got.cif
#   From: 2010.05.17/outbox.cif.g08.bks.cpg/sg15_141_cif.got.tgz:280027.got - 2010.06.03 18:47:42.
