data_PCOD9271439
_publ_section_title
;
Structure prediction by ZEFSAII (Michael W. Deem and Ramdas Pophale) SiO2 
 PCOD9271439
Probable space group: C 2/C
;
_chemical_formula_sum "Si O2"
_cell_formula_units_Z 36
_cell_length_a 6.793517
_cell_length_b 18.872943
_cell_length_c 16.086045
_cell_angle_alpha 90.000000
_cell_angle_beta 48.182348
_cell_angle_gamma 90.000000
_cell_volume 1537.083895
_symmetry_space_group_name_H-M "C 2/C"
_symmetry_group_IT_number 15
_symmetry_cell_setting 'monoclinic'
loop_
_space_group_symop_operation_xyz
x,y,z
-x,y,1/2-z
-x,-y,-z
x,-y,1/2+z
1/2+x,1/2+y,z
1/2-x,1/2+y,1/2-z
1/2-x,1/2-y,-z
1/2+x,1/2-y,1/2+z
loop_
_atom_site_type_symbol
_atom_site_label
_atom_site_fract_x
_atom_site_fract_y
_atom_site_fract_z
Si Si1 0.000000 0.552524 0.250000
Si Si2 0.442150 0.435598 0.957064
Si Si3 0.546774 0.201750 0.006890
Si Si4 0.702744 0.062089 0.358542
Si Si5 0.409207 0.187777 0.868949
O O1 0.729616 0.592837 0.347009
O O2 0.909943 0.517063 0.187660
O O3 0.273296 0.468424 0.928600
O O4 0.500000 0.500000 0.000000
O O5 0.284966 0.374024 0.045680
O O6 0.493394 0.126979 0.066747
O O7 0.262690 0.240730 0.087677
O O8 0.611641 0.193834 0.889973
O O9 0.750000 0.250000 0.000000
O O10 0.000000 0.087606 0.250000
O O11 0.500000 0.172132 0.750000
#
# Coordination Sequence:
#
# PCOD9271439 Si02
#       5
#     4   8   8   8   8
#     4  10  20  38  62  82 112 156 206 252 300 374
#     4  10  22  38  60  85 119 160 209 259 309 367
#     4  10  20  36  59  87 124 161 195 247 312 380
#     4   9  19  36  58  87 113 153 204 250 307 368
#     4  10  22  38  58  91 129 158 201 259 311 366
#
# _framework density 23.420974999999999
#
# number of rings (size 3 to 8) (size 9 to 14) (size 15 to 20)
#    0.000    2.222    0.000    2.000    1.556    7.111 
#    0.000    0.000    4.889    0.000    0.000    0.000 
#    0.000    0.000    0.000    0.000    0.000    0.000 
#
# Total GULP energy -100335.924137 kJ/mol
# GULP energy per Si atom -5574.218008 kJ/mol
# Density = 2.336767 g / cm^3
# Si number density = 23.420975 Si / 1000 Ang^3
#
#
#
# Elastic Constant Matrix: (Units=GPa)
#
#
# Indices 1 2 3 4 5 6 
#
# 1 179.3090 26.7943 69.3726 0.0000 45.8839 0.0000
# 2 26.7943 58.3551 13.8735 0.0000 12.4743 0.0000
# 3 69.3726 13.8735 140.2198 0.0000 29.8094 0.0000
# 4 0.0000 0.0000 0.0000 14.0257 0.0000 0.6347
# 5 45.8839 12.4743 29.8094 0.0000 53.6749 0.0000
# 6 0.0000 0.0000 0.0000 0.6347 0.0000 43.2340
#
#
#
# Elastic Compliance Matrix: (Units=1/GPa)
#
#
# Indices 1 2 3 4 5 6 
#
# 1 0.008256 -0.002049 -0.002815 0.000000 -0.005018 0.000000
# 2 -0.002049 0.018669 -0.000321 0.000000 -0.002409 0.000000
# 3 -0.002815 -0.000321 0.009104 0.000000 -0.002575 0.000000
# 4 0.000000 0.000000 0.000000 0.071345 0.000000 -0.001047
# 5 -0.005018 -0.002409 -0.002575 0.000000 0.024910 0.000000
# 6 0.000000 0.000000 0.000000 -0.001047 0.000000 0.023145
#
#
# Mechanical properties :
#
#
# Convention : Reuss Voigt Hill
#
# Bulk Modulus (GPa) = 38.97489 66.44050 52.70770
# Shear Modulus (GPa) = 28.67745 40.04315 34.36030
#
# Velocity S-wave (km/s) = 3.50299 4.13935 3.83440
# Velocity P-wave (km/s) = 5.74790 7.16067 6.49283
#
# Compressibility (1/GPa) = 0.02565755
#
# Stress axis : x y z
#
# Youngs Moduli (GPa) = 121.11675 53.56599 109.84656
#
# Poissons Ratio (x) = 0.10976 0.30925
# Poissons Ratio (y) = 0.24817 0.03529
# Poissons Ratio (z) = 0.34097 0.01721
#
# Static dielectric constant tensor:
#      x y z
#    x 1.893750 0.000000 0.053200 
#    y 0.000000 2.142530 0.000000 
#    z 0.053200 0.000000 2.004420 
# 
# From -- ./inp_files/72675.got.cif
#   From: 2010.05.17/outbox.cif.g08.bks.cpg/sg15_37_cif.got.tgz:72675.got - 2010.06.03 18:47:42.
