data_PCOD9271257
_publ_section_title
;
Structure prediction by ZEFSAII (Michael W. Deem and Ramdas Pophale) SiO2 
 PCOD9271257
Probable space group: C 2/C
;
_chemical_formula_sum "Si O2"
_cell_formula_units_Z 64
_cell_length_a 8.268841
_cell_length_b 18.532013
_cell_length_c 19.771436
_cell_angle_alpha 90.000000
_cell_angle_beta 94.281868
_cell_angle_gamma 90.000000
_cell_volume 3021.284050
_symmetry_space_group_name_H-M "C 2/C"
_symmetry_group_IT_number 15
_symmetry_cell_setting 'monoclinic'
loop_
_space_group_symop_operation_xyz
x,y,z
-x,y,1/2-z
-x,-y,-z
x,-y,1/2+z
1/2+x,1/2+y,z
1/2-x,1/2+y,1/2-z
1/2-x,1/2-y,-z
1/2+x,1/2-y,1/2+z
loop_
_atom_site_type_symbol
_atom_site_label
_atom_site_fract_x
_atom_site_fract_y
_atom_site_fract_z
Si Si1 0.628516 0.918452 0.313712
Si Si2 0.389929 0.695203 0.801174
Si Si3 0.479466 0.371532 0.069546
Si Si4 0.897561 0.881984 0.918200
Si Si5 0.664357 0.694419 0.220786
Si Si6 0.288440 0.486355 0.594018
Si Si7 0.705940 0.975347 0.444015
Si Si8 0.313304 0.048793 0.262601
O O1 0.500000 0.912901 0.250000
O O2 0.729317 0.846625 0.316866
O O3 0.578896 0.941644 0.387385
O O4 0.737760 0.984530 0.289143
O O5 0.500000 0.653492 0.750000
O O6 0.488978 0.691842 0.874912
O O7 0.318921 0.760982 0.753920
O O8 0.353199 0.431542 0.092324
O O9 0.638928 0.422228 0.063747
O O10 0.428639 0.347473 0.992987
O O11 0.857474 0.822383 0.859826
O O12 0.058198 0.930126 0.905211
O O13 0.758482 0.943257 0.925031
O O14 0.500000 0.723221 0.250000
O O15 0.695973 0.614859 0.249329
O O16 0.181775 0.473082 0.523409
O O17 0.199184 0.473432 0.660753
O O18 0.500000 0.067331 0.250000
#
# Coordination Sequence:
#
# PCOD9271257 Si02
#       8
#     8   8   8   8   8   8   8   8
#     4  10  20  36  58  85 117 147 193 239 290 341
#     4  11  23  39  58  81 118 157 195 239 290 347
#     4   8  17  33  61  88 114 145 198 244 284 348
#     4   9  16  33  59  90 113 147 195 245 288 343
#     4  12  23  37  60  85 117 154 198 238 294 347
#     4   9  16  32  59  90 115 149 194 234 296 345
#     4   8  15  30  58  89 116 146 186 247 288 343
#     4  11  22  35  56  88 122 150 187 242 291 347
#
# _framework density 21.183046000000001
#
# number of rings (size 3 to 8) (size 9 to 14) (size 15 to 20)
#    0.000    2.250    2.500    3.000    0.000    0.500 
#    0.000    3.750    5.500    0.000    0.000    0.000 
#    0.000    0.000    0.000    0.000    0.000    0.000 
#
# Total GULP energy -178211.555543 kJ/mol
# GULP energy per Si atom -5569.111111 kJ/mol
# Density = 2.113483 g / cm^3
# Si number density = 21.183046 Si / 1000 Ang^3
#
#
#
# Elastic Constant Matrix: (Units=GPa)
#
#
# Indices 1 2 3 4 5 6 
#
# 1 45.3257 2.7020 38.4563 0.0000 5.0267 0.0000
# 2 2.7020 45.1858 41.5946 0.0000 9.8500 0.0000
# 3 38.4563 41.5946 230.0479 0.0000 8.3670 0.0000
# 4 0.0000 0.0000 0.0000 26.7068 0.0000 5.9869
# 5 5.0267 9.8500 8.3670 0.0000 28.0623 0.0000
# 6 0.0000 0.0000 0.0000 5.9869 0.0000 14.3961
#
#
#
# Elastic Compliance Matrix: (Units=1/GPa)
#
#
# Indices 1 2 3 4 5 6 
#
# 1 0.026588 0.004039 -0.005004 0.000000 -0.004688 0.000000
# 2 0.004039 0.029054 -0.005592 0.000000 -0.009254 0.000000
# 3 -0.005004 -0.005592 0.006157 0.000000 0.001023 0.000000
# 4 0.000000 0.000000 0.000000 0.041293 0.000000 -0.017173
# 5 -0.004688 -0.009254 0.001023 0.000000 0.039418 0.000000
# 6 0.000000 0.000000 0.000000 -0.017173 0.000000 0.076605
#
#
# Mechanical properties :
#
#
# Convention : Reuss Voigt Hill
#
# Bulk Modulus (GPa) = 20.54062 54.00723 37.27392
# Shear Modulus (GPa) = 20.12414 29.68681 24.90548
#
# Velocity S-wave (km/s) = 3.08557 3.74764 3.43261
# Velocity P-wave (km/s) = 4.73414 6.65412 5.77449
#
# Compressibility (1/GPa) = 0.04868403
#
# Stress axis : x y z
#
# Youngs Moduli (GPa) = 37.61163 34.41868 162.40934
#
# Poissons Ratio (x) = -0.13900 0.81274
# Poissons Ratio (y) = -0.15190 0.90815
# Poissons Ratio (z) = 0.18822 0.19246
#
# Static dielectric constant tensor:
#      x y z
#    x 1.834810 0.000000 0.062990 
#    y 0.000000 1.766410 0.000000 
#    z 0.062990 0.000000 1.817030 
# 
# From -- ./inp_files/233536.got.cif
#   From: 2010.05.17/outbox.cif.g08.bks.cpg/sg15_117_cif.got.tgz:233536.got - 2010.06.03 18:47:42.
