data_PCOD9271270
_publ_section_title
;
Structure prediction by ZEFSAII (Michael W. Deem and Ramdas Pophale) SiO2 
 PCOD9271270
Probable space group: C 2/C
;
_chemical_formula_sum "Si O2"
_cell_formula_units_Z 52
_cell_length_a 11.206524
_cell_length_b 28.364796
_cell_length_c 16.224581
_cell_angle_alpha 90.000000
_cell_angle_beta 31.806129
_cell_angle_gamma 90.000000
_cell_volume 2718.148525
_symmetry_space_group_name_H-M "C 2/C"
_symmetry_group_IT_number 15
_symmetry_cell_setting 'monoclinic'
loop_
_space_group_symop_operation_xyz
x,y,z
-x,y,1/2-z
-x,-y,-z
x,-y,1/2+z
1/2+x,1/2+y,z
1/2-x,1/2+y,1/2-z
1/2-x,1/2-y,-z
1/2+x,1/2-y,1/2+z
loop_
_atom_site_type_symbol
_atom_site_label
_atom_site_fract_x
_atom_site_fract_y
_atom_site_fract_z
Si Si1 0.585547 0.398510 0.913848
Si Si2 0.608723 0.126807 0.765978
Si Si3 0.496745 0.030773 0.890894
Si Si4 0.068589 0.800594 0.837509
Si Si5 0.500000 0.045219 0.250000
Si Si6 0.340996 0.526051 0.268235
Si Si7 0.393713 0.200624 0.996626
O O1 0.622550 0.345034 0.862674
O O2 0.791614 0.422699 0.842034
O O3 0.565424 0.432095 0.843917
O O4 0.358202 0.391777 0.100071
O O5 0.500000 0.152441 0.750000
O O6 0.467783 0.079376 0.861416
O O7 0.569098 0.160044 0.867380
O O8 0.424074 0.988772 0.871133
O O9 0.754553 0.015809 0.760877
O O10 0.379167 0.039936 0.048438
O O11 0.281002 0.797867 0.651772
O O12 0.831071 0.808761 0.927851
O O13 0.015365 0.750335 0.909348
O O14 0.500000 0.511443 0.250000
#
# Coordination Sequence:
#
# PCOD9271270 Si02
#       7
#     8   8   8   8   4   8   8
#     4  11  23  37  61  84 122 159 197 243 295 349
#     4  12  21  34  57  88 116 151 195 246 297 352
#     4  10  22  38  55  81 116 152 202 245 284 350
#     4  10  20  36  58  86 119 152 179 247 293 361
#     4  10  24  40  58  86 116 166 210 234 288 358
#     4  10  22  36  55  80 112 153 195 240 296 341
#     4  10  21  34  58  90 120 143 192 234 310 347
#
# _framework density 19.130669000000001
#
# number of rings (size 3 to 8) (size 9 to 14) (size 15 to 20)
#    0.000    1.538    2.308    2.769    6.462    1.231 
#    0.000    0.000    0.000    3.692    0.000    0.000 
#    0.000    0.000    0.000    0.000    0.000    0.000 
#
# Total GULP energy -144812.806262 kJ/mol
# GULP energy per Si atom -5569.723318 kJ/mol
# Density = 1.908713 g / cm^3
# Si number density = 19.130669 Si / 1000 Ang^3
#
#
#
# Elastic Constant Matrix: (Units=GPa)
#
#
# Indices 1 2 3 4 5 6 
#
# 1 60.2097 20.6866 17.1914 0.0000 7.5070 0.0000
# 2 20.6866 98.9322 57.2367 0.0000 20.7749 0.0000
# 3 17.1914 57.2367 137.0434 0.0001 24.5059 -0.0001
# 4 0.0000 0.0000 0.0001 17.7977 0.0000 10.5807
# 5 7.5070 20.7749 24.5059 0.0000 17.5905 0.0000
# 6 0.0000 0.0000 -0.0001 10.5807 0.0000 20.0668
#
#
#
# Elastic Compliance Matrix: (Units=1/GPa)
#
#
# Indices 1 2 3 4 5 6 
#
# 1 0.018158 -0.002717 -0.000441 0.000000 -0.003925 0.000000
# 2 -0.002717 0.015418 -0.004062 0.000000 -0.011391 0.000000
# 3 -0.000441 -0.004062 0.010863 0.000000 -0.010149 0.000000
# 4 0.000000 0.000000 0.000000 0.081841 0.000000 -0.043153
# 5 -0.003925 -0.011391 -0.010149 0.000000 0.086117 0.000000
# 6 0.000000 0.000000 0.000000 -0.043153 0.000000 0.072587
#
#
# Mechanical properties :
#
#
# Convention : Reuss Voigt Hill
#
# Bulk Modulus (GPa) = 33.33401 54.04608 43.69005
# Shear Modulus (GPa) = 16.15910 24.49569 20.32740
#
# Velocity S-wave (km/s) = 2.90947 3.58221 3.26322
# Velocity P-wave (km/s) = 5.36180 6.73958 6.08978
#
# Compressibility (1/GPa) = 0.02999939
#
# Stress axis : x y z
#
# Youngs Moduli (GPa) = 55.07354 64.85951 92.05153
#
# Poissons Ratio (x) = 0.17624 0.04059
# Poissons Ratio (y) = 0.14965 0.37387
# Poissons Ratio (z) = 0.02428 0.26343
#
# Static dielectric constant tensor:
#      x y z
#    x 1.711680 0.000000 -0.002950 
#    y 0.000000 1.663140 0.000000 
#    z -0.002950 0.000000 1.750870 
# 
# From -- ./inp_files/52143.got.cif
#   From: 2010.05.17/outbox.cif.g08.bks.cpg/sg15_27_cif.got.tgz:52143.got - 2010.06.03 18:47:42.
