data_PCOD9271560
_publ_section_title
;
Structure prediction by ZEFSAII (Michael W. Deem and Ramdas Pophale) SiO2 
 PCOD9271560
Probable space group: C 2/C
;
_chemical_formula_sum "Si O2"
_cell_formula_units_Z 60
_cell_length_a 12.189470
_cell_length_b 13.612637
_cell_length_c 26.218368
_cell_angle_alpha 90.000000
_cell_angle_beta 131.399158
_cell_angle_gamma 90.000000
_cell_volume 3263.352159
_symmetry_space_group_name_H-M "C 2/C"
_symmetry_group_IT_number 15
_symmetry_cell_setting 'monoclinic'
loop_
_space_group_symop_operation_xyz
x,y,z
-x,y,1/2-z
-x,-y,-z
x,-y,1/2+z
1/2+x,1/2+y,z
1/2-x,1/2+y,1/2-z
1/2-x,1/2-y,-z
1/2+x,1/2-y,1/2+z
loop_
_atom_site_type_symbol
_atom_site_label
_atom_site_fract_x
_atom_site_fract_y
_atom_site_fract_z
Si Si1 0.608260 0.323762 0.678279
Si Si2 0.657734 0.671018 0.775597
Si Si3 0.232264 0.435554 0.090142
Si Si4 0.500000 0.729847 0.250000
Si Si5 0.067577 0.628620 0.030206
Si Si6 0.218975 0.828842 0.113968
Si Si7 0.365661 0.175700 0.559466
Si Si8 0.559276 0.453910 0.148906
O O1 0.761267 0.268011 0.719701
O O2 0.556494 0.334207 0.720580
O O3 0.494741 0.245485 0.619435
O O4 0.599411 0.432110 0.653149
O O5 0.500000 0.695995 0.750000
O O6 0.741611 0.623019 0.849331
O O7 0.637771 0.594353 0.722846
O O8 0.167226 0.542650 0.083632
O O9 0.386291 0.445378 0.108073
O O10 0.106029 0.384524 0.017113
O O11 0.362036 0.794546 0.189582
O O12 0.129957 0.731936 0.068611
O O13 0.086081 0.614503 0.974486
O O14 0.287084 0.875618 0.083175
O O15 0.115932 0.894521 0.117318
O O16 0.250000 0.250000 0.500000
#
# Coordination Sequence:
#
# PCOD9271560 Si02
#       8
#     8   8   8   4   8   8   8   8
#     4  11  21  38  61  84 117 153 194 240 293 344
#     4  10  22  39  59  84 121 153 189 246 294 345
#     4  10  21  38  63  88 115 155 200 238 290 348
#     4  10  20  36  60  86 112 154 200 248 280 340
#     4  10  20  38  64  88 115 154 201 238 286 351
#     4  10  21  36  58  88 120 149 196 248 292 341
#     4   9  18  36  59  84 116 152 189 242 286 338
#     4  11  23  37  61  90 117 154 198 239 298 350
#
# _framework density 18.386002000000001
#
# number of rings (size 3 to 8) (size 9 to 14) (size 15 to 20)
#    0.000    1.867    2.667    2.400    4.667    0.533 
#    1.200    6.000   11.733    0.000    0.000    0.000 
#    0.000    0.000    0.000    0.000    0.000    0.000 
#
# Total GULP energy -167231.964499 kJ/mol
# GULP energy per Si atom -5574.398817 kJ/mol
# Density = 1.834415 g / cm^3
# Si number density = 18.386002 Si / 1000 Ang^3
#
#
#
# Elastic Constant Matrix: (Units=GPa)
#
#
# Indices 1 2 3 4 5 6 
#
# 1 103.7711 66.6209 43.9450 0.0000 2.4567 0.0000
# 2 66.6209 90.0727 25.3763 0.0000 0.1897 0.0000
# 3 43.9450 25.3763 66.8109 0.0000 8.3990 0.0000
# 4 0.0000 0.0000 0.0000 14.9890 0.0000 -0.4679
# 5 2.4567 0.1897 8.3990 0.0000 30.6879 0.0000
# 6 0.0000 0.0000 0.0000 -0.4679 0.0000 21.0395
#
#
#
# Elastic Compliance Matrix: (Units=1/GPa)
#
#
# Indices 1 2 3 4 5 6 
#
# 1 0.022819 -0.014130 -0.009759 0.000000 0.000932 0.000000
# 2 -0.014130 0.021229 0.001144 0.000000 0.000687 0.000000
# 3 -0.009759 0.001144 0.021598 0.000000 -0.005137 0.000000
# 4 0.000000 0.000000 0.000000 0.066762 0.000000 0.001485
# 5 0.000932 0.000687 -0.005137 0.000000 0.033913 0.000000
# 6 0.000000 0.000000 0.000000 0.001485 0.000000 0.047563
#
#
# Mechanical properties :
#
#
# Convention : Reuss Voigt Hill
#
# Bulk Modulus (GPa) = 49.61284 59.17103 54.39193
# Shear Modulus (GPa) = 18.79039 21.65743 20.22391
#
# Velocity S-wave (km/s) = 3.20033 3.43582 3.32017
# Velocity P-wave (km/s) = 6.37956 6.92765 6.65925
#
# Compressibility (1/GPa) = 0.02015607
#
# Stress axis : x y z
#
# Youngs Moduli (GPa) = 43.82314 47.10438 46.30056
#
# Poissons Ratio (x) = 0.66559 0.45187
# Poissons Ratio (y) = 0.61923 -0.05298
# Poissons Ratio (z) = 0.42769 -0.05390
#
# Static dielectric constant tensor:
#      x y z
#    x 1.669950 0.000000 0.002330 
#    y 0.000000 1.621810 0.000000 
#    z 0.002330 0.000000 1.638880 
# 
# From -- ./inp_files/197904.got.cif
#   From: 2010.05.17/outbox.cif.g08.bks.cpg/sg15_99_cif.got.tgz:197904.got - 2010.06.03 18:47:42.
