data_PCOD9271705
_publ_section_title
;
Structure prediction by ZEFSAII (Michael W. Deem and Ramdas Pophale) SiO2 
 PCOD9271705
Probable space group: C 2/C
;
_chemical_formula_sum "Si O2"
_cell_formula_units_Z 56
_cell_length_a 20.359292
_cell_length_b 10.480753
_cell_length_c 18.267941
_cell_angle_alpha 90.000000
_cell_angle_beta 42.811703
_cell_angle_gamma 90.000000
_cell_volume 2649.064165
_symmetry_space_group_name_H-M "C 2/C"
_symmetry_group_IT_number 15
_symmetry_cell_setting 'monoclinic'
loop_
_space_group_symop_operation_xyz
x,y,z
-x,y,1/2-z
-x,-y,-z
x,-y,1/2+z
1/2+x,1/2+y,z
1/2-x,1/2+y,1/2-z
1/2-x,1/2-y,-z
1/2+x,1/2-y,1/2+z
loop_
_atom_site_type_symbol
_atom_site_label
_atom_site_fract_x
_atom_site_fract_y
_atom_site_fract_z
Si Si1 0.500000 0.191887 0.250000
Si Si2 0.787078 0.380705 0.933822
Si Si3 0.027984 0.846136 0.372357
Si Si4 0.671443 0.422282 0.885347
Si Si5 0.623477 0.712385 0.931836
Si Si6 0.576877 0.631727 0.322577
Si Si7 0.000000 0.280134 0.250000
Si Si8 0.812692 0.361168 0.485852
O O1 0.598470 0.116793 0.166715
O O2 0.501269 0.276858 0.320965
O O3 0.747209 0.381894 0.884101
O O4 0.763725 0.504829 0.002785
O O5 0.750000 0.250000 0.000000
O O6 0.089530 0.757977 0.377210
O O7 0.931869 0.889231 0.493566
O O8 0.078561 0.979353 0.311754
O O9 0.678670 0.576876 0.877271
O O10 0.661697 0.352365 0.814446
O O11 0.524295 0.674496 0.056201
O O12 0.674927 0.818983 0.939331
O O13 0.566521 0.698624 0.252558
O O14 0.079216 0.354107 0.136976
O O15 0.750000 0.250000 0.500000
#
# Coordination Sequence:
#
# PCOD9271705 Si02
#       8
#     4   8   8   8   8   8   4   8
#     4  12  24  38  60  86 127 164 195 246 321 362
#     4  12  25  41  62  87 125 161 204 255 311 373
#     4   9  17  33  60  89 122 159 203 246 298 363
#     4   9  16  36  59  89 122 160 199 250 298 358
#     4   8  16  34  62  89 116 156 204 252 296 349
#     4   8  16  30  62  92 121 156 202 250 299 353
#     4  10  20  36  60  96 127 154 203 256 305 364
#     4  11  22  40  65  88 121 161 205 249 304 358
#
# _framework density 21.139541000000001
#
# number of rings (size 3 to 8) (size 9 to 14) (size 15 to 20)
#    0.000    2.286    2.857    2.571    0.000    1.143 
#    2.571    0.714    3.143    0.000    0.000    0.000 
#    0.000    0.000    0.000    0.000    0.000    0.000 
#
# Total GULP energy -156018.259304 kJ/mol
# GULP energy per Si atom -5572.080689 kJ/mol
# Density = 2.109143 g / cm^3
# Si number density = 21.139541 Si / 1000 Ang^3
#
#
#
# Elastic Constant Matrix: (Units=GPa)
#
#
# Indices 1 2 3 4 5 6 
#
# 1 183.0296 54.0896 16.1266 0.0000 28.4652 0.0000
# 2 54.0896 83.3307 9.1271 0.0000 5.6199 0.0000
# 3 16.1266 9.1271 47.3798 0.0000 5.5864 0.0000
# 4 0.0000 0.0000 0.0000 42.3224 0.0000 -7.3206
# 5 28.4652 5.6199 5.5864 0.0000 36.0209 0.0000
# 6 0.0000 0.0000 0.0000 -7.3206 0.0000 31.1619
#
#
#
# Elastic Compliance Matrix: (Units=1/GPa)
#
#
# Indices 1 2 3 4 5 6 
#
# 1 0.007713 -0.004531 -0.001138 0.000000 -0.005212 0.000000
# 2 -0.004531 0.015009 -0.001523 0.000000 0.001475 0.000000
# 3 -0.001138 -0.001523 0.022056 0.000000 -0.002284 0.000000
# 4 0.000000 0.000000 0.000000 0.024629 0.000000 0.005786
# 5 -0.005212 0.001475 -0.002284 0.000000 0.032004 0.000000
# 6 0.000000 0.000000 0.000000 0.005786 0.000000 0.033450
#
#
# Mechanical properties :
#
#
# Convention : Reuss Voigt Hill
#
# Bulk Modulus (GPa) = 32.90064 52.49188 42.69626
# Shear Modulus (GPa) = 31.37236 37.52748 34.44992
#
# Velocity S-wave (km/s) = 3.85653 4.21792 4.04126
# Velocity P-wave (km/s) = 5.95212 6.97181 6.48205
#
# Compressibility (1/GPa) = 0.03039454
#
# Stress axis : x y z
#
# Youngs Moduli (GPa) = 129.64535 66.62891 45.33901
#
# Poissons Ratio (x) = 0.30187 0.05160
# Poissons Ratio (y) = 0.58736 0.06905
# Poissons Ratio (z) = 0.14755 0.10148
#
# Static dielectric constant tensor:
#      x y z
#    x 1.889730 0.000000 0.093070 
#    y 0.000000 1.756240 0.000000 
#    z 0.093070 0.000000 1.923710 
# 
# From -- ./inp_files/210594.got.cif
#   From: 2010.05.17/outbox.cif.g08.bks.cpg/sg15_106_cif.got.tgz:210594.got - 2010.06.03 18:47:42.
