data_PCOD9271606
_publ_section_title
;
Structure prediction by ZEFSAII (Michael W. Deem and Ramdas Pophale) SiO2 
 PCOD9271606
Probable space group: C 2/C
;
_chemical_formula_sum "Si O2"
_cell_formula_units_Z 40
_cell_length_a 8.365521
_cell_length_b 22.736861
_cell_length_c 8.940411
_cell_angle_alpha 90.000000
_cell_angle_beta 71.883435
_cell_angle_gamma 90.000000
_cell_volume 1616.215376
_symmetry_space_group_name_H-M "C 2/C"
_symmetry_group_IT_number 15
_symmetry_cell_setting 'monoclinic'
loop_
_space_group_symop_operation_xyz
x,y,z
-x,y,1/2-z
-x,-y,-z
x,-y,1/2+z
1/2+x,1/2+y,z
1/2-x,1/2+y,1/2-z
1/2-x,1/2-y,-z
1/2+x,1/2-y,1/2+z
loop_
_atom_site_type_symbol
_atom_site_label
_atom_site_fract_x
_atom_site_fract_y
_atom_site_fract_z
Si Si1 0.157499 0.130427 0.318809
Si Si2 0.129505 0.324299 0.005539
Si Si3 0.033033 0.790078 0.415848
Si Si4 0.619574 0.953771 0.087939
Si Si5 0.190381 0.000744 0.245540
O O1 0.213480 0.063452 0.322531
O O2 0.000000 0.127351 0.250000
O O3 0.095931 0.161798 0.484100
O O4 0.289912 0.167138 0.183079
O O5 0.277512 0.308385 0.082029
O O6 0.059516 0.389111 0.061310
O O7 0.005108 0.270011 0.020180
O O8 0.000000 0.782654 0.250000
O O9 0.500000 0.980443 0.250000
O O10 0.783836 0.948189 0.145592
O O11 0.683983 0.992882 0.932604
O O12 0.000000 0.997694 0.250000
#
# Coordination Sequence:
#
# PCOD9271606 Si02
#       5
#     8   8   8   8   8
#     4   8  17  36  57  82 120 159 199 257 314 366
#     4   9  21  38  56  84 125 163 197 252 320 377
#     4  10  20  36  60  88 116 157 214 263 306 366
#     4  11  23  40  63  93 129 165 203 259 321 373
#     4  10  21  40  64  91 124 164 211 256 307 377
#
# _framework density 24.749175999999999
#
# number of rings (size 3 to 8) (size 9 to 14) (size 15 to 20)
#    0.000    2.400    0.000    2.400    0.000    7.200 
#    0.000    8.000    0.000    4.800    0.000    0.000 
#    0.000    0.000    0.000    0.000    0.000    0.000 
#
# Total GULP energy -111656.956814 kJ/mol
# GULP energy per Si atom -5582.847841 kJ/mol
# Density = 2.469285 g / cm^3
# Si number density = 24.749176 Si / 1000 Ang^3
#
#
#
# Elastic Constant Matrix: (Units=GPa)
#
#
# Indices 1 2 3 4 5 6 
#
# 1 16.4900 4.2690 40.2233 0.0000 7.0757 0.0000
# 2 4.2690 68.8720 36.5145 0.0000 16.5135 0.0000
# 3 40.2233 36.5145 147.8716 0.0000 17.1441 0.0000
# 4 0.0000 0.0000 0.0000 45.1732 0.0000 -5.2169
# 5 7.0757 16.5135 17.1441 0.0000 33.2688 0.0000
# 6 0.0000 0.0000 0.0000 -5.2169 0.0000 23.2722
#
#
#
# Elastic Compliance Matrix: (Units=1/GPa)
#
#
# Indices 1 2 3 4 5 6 
#
# 1 0.218883 0.026291 -0.062878 0.000000 -0.027200 0.000000
# 2 0.026291 0.021328 -0.011212 0.000000 -0.010400 0.000000
# 3 -0.062878 -0.011212 0.025992 0.000000 0.005544 0.000000
# 4 0.000000 0.000000 0.000000 0.022725 0.000000 0.005094
# 5 -0.027200 -0.010400 0.005544 0.000000 0.038149 0.000000
# 6 0.000000 0.000000 0.000000 0.005094 0.000000 0.044112
#
#
# Mechanical properties :
#
#
# Convention : Reuss Voigt Hill
#
# Bulk Modulus (GPa) = 5.86151 43.91637 24.88894
# Shear Modulus (GPa) = 9.54825 30.49129 20.01977
#
# Velocity S-wave (km/s) = 1.96631 3.51381 2.84721
# Velocity P-wave (km/s) = 2.74384 5.85197 4.57024
#
# Compressibility (1/GPa) = 0.17060450
#
# Stress axis : x y z
#
# Youngs Moduli (GPa) = 4.56865 46.88608 38.47292
#
# Poissons Ratio (x) = -1.23268 2.41910
# Poissons Ratio (y) = -0.12011 0.43137
# Poissons Ratio (z) = 0.28727 0.52571
#
# Static dielectric constant tensor:
#      x y z
#    x 2.246180 0.000000 0.010080 
#    y 0.000000 1.976610 0.000000 
#    z 0.010080 0.000000 1.913310 
# 
# From -- ./inp_files/24441.got.cif
#   From: 2010.05.17/outbox.cif.g08.bks.cpg/sg15_13_cif.got.tgz:24441.got - 2010.06.03 18:47:42.
