data_PCOD9271866
_publ_section_title
;
Structure prediction by ZEFSAII (Michael W. Deem and Ramdas Pophale) SiO2 
 PCOD9271866
Probable space group: C 2/C
;
_chemical_formula_sum "Si O2"
_cell_formula_units_Z 48
_cell_length_a 25.026235
_cell_length_b 10.330762
_cell_length_c 12.991138
_cell_angle_alpha 90.000000
_cell_angle_beta 35.132650
_cell_angle_gamma 90.000000
_cell_volume 1932.852892
_symmetry_space_group_name_H-M "C 2/C"
_symmetry_group_IT_number 15
_symmetry_cell_setting 'monoclinic'
loop_
_space_group_symop_operation_xyz
x,y,z
-x,y,1/2-z
-x,-y,-z
x,-y,1/2+z
1/2+x,1/2+y,z
1/2-x,1/2+y,1/2-z
1/2-x,1/2-y,-z
1/2+x,1/2-y,1/2+z
loop_
_atom_site_type_symbol
_atom_site_label
_atom_site_fract_x
_atom_site_fract_y
_atom_site_fract_z
Si Si1 0.810877 0.583974 0.960212
Si Si2 0.877987 0.946326 0.294756
Si Si3 0.889412 0.337348 0.749549
Si Si4 0.280758 0.956482 0.740381
Si Si5 0.099238 0.306611 0.372150
Si Si6 0.417291 0.519014 0.009709
O O1 0.876058 0.458004 0.846369
O O2 0.855834 0.688848 0.812988
O O3 0.713307 0.533497 0.066728
O O4 0.796666 0.607051 0.103037
O O5 0.870311 0.796414 0.338298
O O6 0.899863 0.930868 0.136931
O O7 0.974694 0.000158 0.186975
O O8 0.818028 0.360734 0.768804
O O9 0.991954 0.346304 0.541232
O O10 0.171786 0.993520 0.922998
O O11 0.340761 0.087584 0.659946
O O12 0.094588 0.166656 0.431273
#
# Coordination Sequence:
#
# PCOD9271866 Si02
#       6
#     8   8   8   8   8   8
#     4  10  20  36  62  87 114 153 198 235 288 350
#     4   9  19  37  58  84 113 155 187 243 291 343
#     4  10  21  38  59  85 122 148 190 243 295 335
#     4  10  21  34  61  85 110 153 195 233 288 351
#     4  10  22  39  57  86 121 151 187 249 288 339
#     4   9  20  37  59  81 117 152 193 234 296 340
#
# _framework density 24.833756999999999
#
# number of rings (size 3 to 8) (size 9 to 14) (size 15 to 20)
#    0.000    2.333    0.000    2.500    4.667    5.333 
#    0.000    3.333    0.000    0.000    0.000    0.000 
#    0.000    0.000    0.000    0.000    0.000    0.000 
#
# Total GULP energy -134185.923627 kJ/mol
# GULP energy per Si atom -5591.080151 kJ/mol
# Density = 2.477723 g / cm^3
# Si number density = 24.833757 Si / 1000 Ang^3
#
#
#
# Elastic Constant Matrix: (Units=GPa)
#
#
# Indices 1 2 3 4 5 6 
#
# 1 77.1994 -19.7111 28.4369 0.0000 -12.0989 0.0000
# 2 -19.7111 70.1145 13.0933 0.0000 -14.8998 0.0000
# 3 28.4369 13.0933 185.3564 0.0000 -36.2185 0.0000
# 4 0.0000 0.0000 0.0000 29.8423 0.0000 -6.9477
# 5 -12.0989 -14.8998 -36.2185 0.0000 49.7978 0.0000
# 6 0.0000 0.0000 0.0000 -6.9477 0.0000 12.9907
#
#
#
# Elastic Compliance Matrix: (Units=1/GPa)
#
#
# Indices 1 2 3 4 5 6 
#
# 1 0.015788 0.005680 -0.002030 0.000000 0.004059 0.000000
# 2 0.005680 0.017282 -0.000947 0.000000 0.005862 0.000000
# 3 -0.002030 -0.000947 0.006553 0.000000 0.003989 0.000000
# 4 0.000000 0.000000 0.000000 0.038275 0.000000 0.020470
# 5 0.004059 0.005862 0.003989 0.000000 0.025723 0.000000
# 6 0.000000 0.000000 0.000000 0.020470 0.000000 0.087926
#
#
# Mechanical properties :
#
#
# Convention : Reuss Voigt Hill
#
# Bulk Modulus (GPa) = 22.20825 41.81206 32.01016
# Shear Modulus (GPa) = 24.85707 39.24958 32.05332
#
# Velocity S-wave (km/s) = 3.16719 3.97985 3.59655
# Velocity P-wave (km/s) = 4.72620 6.16379 5.49224
#
# Compressibility (1/GPa) = 0.04502830
#
# Stress axis : x y z
#
# Youngs Moduli (GPa) = 63.34063 57.86456 152.60417
#
# Poissons Ratio (x) = -0.32867 0.30983
# Poissons Ratio (y) = -0.35977 0.14447
# Poissons Ratio (z) = 0.12860 0.05478
#
# Static dielectric constant tensor:
#      x y z
#    x 2.003110 0.000000 0.071340 
#    y 0.000000 2.015480 0.000000 
#    z 0.071340 0.000000 2.060560 
# 
# From -- ./inp_files/177761.got.cif
#   From: 2010.05.17/outbox.cif.g08.bks.cpg/sg15_89_cif.got.tgz:177761.got - 2010.06.03 18:47:42.
