data_PCOD9271308
_publ_section_title
;
Structure prediction by ZEFSAII (Michael W. Deem and Ramdas Pophale) SiO2 
 PCOD9271308
Probable space group: C 2/C
;
_chemical_formula_sum "Si O2"
_cell_formula_units_Z 60
_cell_length_a 5.765687
_cell_length_b 26.932281
_cell_length_c 20.169638
_cell_angle_alpha 90.000000
_cell_angle_beta 120.915090
_cell_angle_gamma 90.000000
_cell_volume 2687.038985
_symmetry_space_group_name_H-M "C 2/C"
_symmetry_group_IT_number 15
_symmetry_cell_setting 'monoclinic'
loop_
_space_group_symop_operation_xyz
x,y,z
-x,y,1/2-z
-x,-y,-z
x,-y,1/2+z
1/2+x,1/2+y,z
1/2-x,1/2+y,1/2-z
1/2-x,1/2-y,-z
1/2+x,1/2-y,1/2+z
loop_
_atom_site_type_symbol
_atom_site_label
_atom_site_fract_x
_atom_site_fract_y
_atom_site_fract_z
Si Si1 0.681989 0.231699 0.344286
Si Si2 0.066797 0.606957 0.442871
Si Si3 0.532941 0.571985 0.839699
Si Si4 0.113043 0.659765 0.591820
Si Si5 0.626220 0.401409 0.035210
Si Si6 0.500000 0.977639 0.250000
Si Si7 0.525210 0.996393 0.402947
Si Si8 0.677926 0.317254 0.841957
O O1 0.500000 0.234967 0.250000
O O2 0.784207 0.285345 0.383333
O O3 0.464536 0.211144 0.366975
O O4 0.963933 0.202755 0.365979
O O5 0.086493 0.640238 0.512264
O O6 0.364647 0.612177 0.453794
O O7 0.052409 0.547643 0.444934
O O8 0.795971 0.627633 0.370334
O O9 0.687915 0.621609 0.841637
O O10 0.471325 0.583013 0.906908
O O11 0.249793 0.557439 0.767001
O O12 0.725526 0.524805 0.864664
O O13 0.814776 0.646229 0.573097
O O14 0.790849 0.451324 0.041078
O O15 0.575921 0.004445 0.330579
O O16 0.500000 0.315022 0.750000
#
# Coordination Sequence:
#
# PCOD9271308 Si02
#       8
#     8   8   8   8   8   4   8   8
#     4  10  24  47  71  96 133 175 222 283 346 403
#     4  11  24  40  65  94 130 174 221 275 335 398
#     4   9  20  37  58  91 129 163 216 267 319 399
#     4  10  23  39  66  97 127 171 214 273 344 400
#     4   9  21  39  59  95 126 168 213 265 328 398
#     4  10  20  36  58  88 128 174 218 270 326 386
#     4  10  21  39  59  90 134 173 221 269 329 394
#     4  10  25  48  68  98 132 175 227 285 338 405
#
# _framework density 22.329412999999999
#
# number of rings (size 3 to 8) (size 9 to 14) (size 15 to 20)
#    0.000    2.133    0.000    0.800    5.600   12.267 
#    4.800    0.000    0.000    0.000    0.000    0.000 
#    0.000    0.000    0.000    0.000    0.000    0.000 
#
# Total GULP energy -167047.442990 kJ/mol
# GULP energy per Si atom -5568.248100 kJ/mol
# Density = 2.227859 g / cm^3
# Si number density = 22.329413 Si / 1000 Ang^3
#
#
#
# Elastic Constant Matrix: (Units=GPa)
#
#
# Indices 1 2 3 4 5 6 
#
# 1 129.9137 34.8475 39.0930 0.0000 26.5570 0.0000
# 2 34.8475 60.5994 24.6653 0.0000 15.5891 0.0000
# 3 39.0930 24.6653 43.4439 0.0000 -0.8570 0.0000
# 4 0.0000 0.0000 0.0000 27.9346 0.0000 3.9905
# 5 26.5570 15.5891 -0.8570 0.0000 44.2982 0.0000
# 6 0.0000 0.0000 0.0000 3.9905 0.0000 19.9923
#
#
#
# Elastic Compliance Matrix: (Units=1/GPa)
#
#
# Indices 1 2 3 4 5 6 
#
# 1 0.012872 -0.000863 -0.011244 0.000000 -0.007631 0.000000
# 2 -0.000863 0.024592 -0.013352 0.000000 -0.008395 0.000000
# 3 -0.011244 -0.013352 0.040958 0.000000 0.012232 0.000000
# 4 0.000000 0.000000 0.000000 0.036849 0.000000 -0.007355
# 5 -0.007631 -0.008395 0.012232 0.000000 0.030340 0.000000
# 6 0.000000 0.000000 0.000000 -0.007355 0.000000 0.051487
#
#
# Mechanical properties :
#
#
# Convention : Reuss Voigt Hill
#
# Bulk Modulus (GPa) = 36.35592 47.90762 42.13177
# Shear Modulus (GPa) = 19.44148 27.46842 23.45495
#
# Velocity S-wave (km/s) = 2.95391 3.51115 3.24451
# Velocity P-wave (km/s) = 5.28688 6.15947 5.73978
#
# Compressibility (1/GPa) = 0.02750584
#
# Stress axis : x y z
#
# Youngs Moduli (GPa) = 77.68735 40.66374 24.41552
#
# Poissons Ratio (x) = 0.03507 0.27452
# Poissons Ratio (y) = 0.06701 0.32598
# Poissons Ratio (z) = 0.87350 0.54292
#
# Static dielectric constant tensor:
#      x y z
#    x 1.963290 0.000000 -0.003330 
#    y 0.000000 1.783890 0.000000 
#    z -0.003330 0.000000 1.927440 
# 
# From -- ./inp_files/228640.got.cif
#   From: 2010.05.17/outbox.cif.g08.bks.cpg/sg15_115_cif.got.tgz:228640.got - 2010.06.03 18:47:42.
