data_PCOD9271879
_publ_section_title
;
Structure prediction by ZEFSAII (Michael W. Deem and Ramdas Pophale) SiO2 
 PCOD9271879
Probable space group: C 2/C
;
_chemical_formula_sum "Si O2"
_cell_formula_units_Z 44
_cell_length_a 11.293104
_cell_length_b 8.279508
_cell_length_c 20.842745
_cell_angle_alpha 90.000000
_cell_angle_beta 123.418398
_cell_angle_gamma 90.000000
_cell_volume 1626.627565
_symmetry_space_group_name_H-M "C 2/C"
_symmetry_group_IT_number 15
_symmetry_cell_setting 'monoclinic'
loop_
_space_group_symop_operation_xyz
x,y,z
-x,y,1/2-z
-x,-y,-z
x,-y,1/2+z
1/2+x,1/2+y,z
1/2-x,1/2+y,1/2-z
1/2-x,1/2-y,-z
1/2+x,1/2-y,1/2+z
loop_
_atom_site_type_symbol
_atom_site_label
_atom_site_fract_x
_atom_site_fract_y
_atom_site_fract_z
Si Si1 0.500000 0.374579 0.250000
Si Si2 0.202545 0.454687 0.282254
Si Si3 0.026952 0.254508 0.974696
Si Si4 0.291242 0.637462 0.137384
Si Si5 0.019141 0.101223 0.100994
Si Si6 0.540343 0.096657 0.354515
O O1 0.364876 0.476888 0.186571
O O2 0.473223 0.257661 0.302548
O O3 0.092885 0.477074 0.191608
O O4 0.198226 0.272101 0.304378
O O5 0.349580 0.545221 0.316800
O O6 0.147768 0.537391 0.332690
O O7 0.872501 0.341547 0.930893
O O8 0.102707 0.361837 0.942395
O O9 0.022378 0.071359 0.944716
O O10 0.068075 0.224888 0.060154
O O11 0.890070 0.169670 0.104449
#
# Coordination Sequence:
#
# PCOD9271879 Si02
#       6
#     4   8   8   8   8   8
#     4  10  20  36  62  88 118 166 210 246 318 372
#     4   9  22  40  60  87 130 154 206 263 309 362
#     4  10  22  38  64  87 130 158 208 259 307 372
#     4  11  21  37  62  95 116 163 213 257 303 376
#     4  10  21  41  61  92 121 170 202 254 313 375
#     4  10  21  43  56  91 125 162 199 264 318 363
#
# _framework density 27.049831999999999
#
# number of rings (size 3 to 8) (size 9 to 14) (size 15 to 20)
#    0.000    2.182    1.818    1.636    2.545    0.727 
#    6.545    0.909    0.000    0.000    0.000    0.000 
#    0.000    0.000    0.000    0.000    0.000    0.000 
#
# Total GULP energy -123040.354810 kJ/mol
# GULP energy per Si atom -5592.743400 kJ/mol
# Density = 2.698827 g / cm^3
# Si number density = 27.049832 Si / 1000 Ang^3
#
#
#
# Elastic Constant Matrix: (Units=GPa)
#
#
# Indices 1 2 3 4 5 6 
#
# 1 96.8814 14.6295 14.5096 0.0000 -14.2029 0.0000
# 2 14.6295 67.8983 27.4338 0.0000 0.7307 0.0000
# 3 14.5096 27.4338 73.5607 0.0000 -24.6912 0.0000
# 4 0.0000 0.0000 0.0000 32.7661 0.0000 -23.9178
# 5 -14.2029 0.7307 -24.6912 0.0000 52.2369 0.0000
# 6 0.0000 0.0000 0.0000 -23.9178 0.0000 27.5442
#
#
#
# Elastic Compliance Matrix: (Units=1/GPa)
#
#
# Indices 1 2 3 4 5 6 
#
# 1 0.011146 -0.002278 -0.000381 0.000000 0.002882 0.000000
# 2 -0.002278 0.018510 -0.008021 0.000000 -0.004670 0.000000
# 3 -0.000381 -0.008021 0.019806 0.000000 0.009370 0.000000
# 4 0.000000 0.000000 0.000000 0.083353 0.000000 0.072379
# 5 0.002882 -0.004670 0.009370 0.000000 0.024422 0.000000
# 6 0.000000 0.000000 0.000000 0.072379 0.000000 0.099155
#
#
# Mechanical properties :
#
#
# Convention : Reuss Voigt Hill
#
# Bulk Modulus (GPa) = 35.58743 39.05403 37.32073
# Shear Modulus (GPa) = 17.41438 34.62727 26.02082
#
# Velocity S-wave (km/s) = 2.54005 3.58177 3.10491
# Velocity P-wave (km/s) = 4.66769 5.61913 5.16536
#
# Compressibility (1/GPa) = 0.02809981
#
# Stress axis : x y z
#
# Youngs Moduli (GPa) = 89.72182 54.02498 50.48952
#
# Poissons Ratio (x) = 0.12309 0.01925
# Poissons Ratio (y) = 0.20442 0.40498
# Poissons Ratio (z) = 0.03422 0.43334
#
# Static dielectric constant tensor:
#      x y z
#    x 2.207880 0.000000 -0.004570 
#    y 0.000000 2.169730 0.000000 
#    z -0.004570 0.000000 2.069400 
# 
# From -- ./inp_files/276121.got.cif
#   From: 2010.05.17/outbox.cif.g08.bks.cpg/sg15_139_cif.got.tgz:276121.got - 2010.06.03 18:47:42.
