data_PCOD9271724
_publ_section_title
;
Structure prediction by ZEFSAII (Michael W. Deem and Ramdas Pophale) SiO2 
 PCOD9271724
Probable space group: C 2/C
;
_chemical_formula_sum "Si O2"
_cell_formula_units_Z 56
_cell_length_a 18.028156
_cell_length_b 21.067455
_cell_length_c 21.015306
_cell_angle_alpha 90.000000
_cell_angle_beta 159.943149
_cell_angle_gamma 90.000000
_cell_volume 2737.366275
_symmetry_space_group_name_H-M "C 2/C"
_symmetry_group_IT_number 15
_symmetry_cell_setting 'monoclinic'
loop_
_space_group_symop_operation_xyz
x,y,z
-x,y,1/2-z
-x,-y,-z
x,-y,1/2+z
1/2+x,1/2+y,z
1/2-x,1/2+y,1/2-z
1/2-x,1/2-y,-z
1/2+x,1/2-y,1/2+z
loop_
_atom_site_type_symbol
_atom_site_label
_atom_site_fract_x
_atom_site_fract_y
_atom_site_fract_z
Si Si1 0.209499 0.996085 0.328109
Si Si2 0.590030 0.046160 0.387775
Si Si3 0.750652 0.319232 0.467762
Si Si4 0.395063 0.199333 0.357627
Si Si5 0.053112 0.400214 0.080498
Si Si6 0.381952 0.531845 0.465886
Si Si7 0.544326 0.657859 0.558024
O O1 0.228482 0.976015 0.416553
O O2 0.331938 0.944351 0.381066
O O3 0.977132 0.000959 0.106023
O O4 0.346049 0.060536 0.434656
O O5 0.500000 0.015821 0.250000
O O6 0.663121 0.117483 0.428567
O O7 0.371121 0.035759 0.252631
O O8 0.500000 0.330621 0.250000
O O9 0.750000 0.250000 0.500000
O O10 0.921711 0.314857 0.547576
O O11 0.474350 0.163795 0.483961
O O12 0.393678 0.274931 0.362756
O O13 0.155638 0.172909 0.149408
O O14 0.231589 0.379241 0.277012
O O15 0.500000 0.500000 0.500000
O O16 0.440627 0.606249 0.521554
#
# Coordination Sequence:
#
# PCOD9271724 Si02
#       7
#     8   8   8   8   8   8   8
#     4  10  21  39  62  85 116 158 215 277 327 376
#     4  12  26  40  59  89 123 168 223 265 323 386
#     4  12  27  40  54  78 124 180 231 265 299 365
#     4  12  21  37  54  83 118 166 216 267 307 372
#     4  10  20  36  61  84 112 155 212 271 332 369
#     4  11  23  42  66  89 120 166 221 284 332 380
#     4  11  21  32  57  81 117 155 204 259 319 378
#
# _framework density 20.457619999999999
#
# number of rings (size 3 to 8) (size 9 to 14) (size 15 to 20)
#    0.000    0.857    4.286    4.714    4.000    0.000 
#    0.000    0.000    0.000    0.000    0.000    0.000 
#    0.000    4.571    0.286    0.143    0.000    0.000 
#
# Total GULP energy -155976.988680 kJ/mol
# GULP energy per Si atom -5570.606739 kJ/mol
# Density = 2.041106 g / cm^3
# Si number density = 20.457620 Si / 1000 Ang^3
#
#
#
# Elastic Constant Matrix: (Units=GPa)
#
#
# Indices 1 2 3 4 5 6 
#
# 1 49.1153 21.8590 26.5801 0.0285 -14.1651 0.0087
# 2 21.8590 86.2648 43.4790 0.0537 4.0360 -0.0004
# 3 26.5801 43.4790 190.8381 0.1392 -5.1149 0.0486
# 4 0.0285 0.0537 0.1392 43.9290 0.0275 -0.3024
# 5 -14.1651 4.0360 -5.1149 0.0275 27.9871 -0.0047
# 6 0.0087 -0.0004 0.0486 -0.3024 -0.0047 10.7006
#
#
#
# Elastic Compliance Matrix: (Units=1/GPa)
#
#
# Indices 1 2 3 4 5 6 
#
# 1 0.029015 -0.007049 -0.002024 -0.000013 0.015332 -0.000008
# 2 -0.007049 0.014977 -0.002597 -0.000002 -0.006202 0.000015
# 3 -0.002024 -0.002597 0.006126 -0.000015 0.000470 -0.000027
# 4 -0.000013 -0.000002 -0.000015 0.022769 -0.000032 0.000643
# 5 0.015332 -0.006202 0.000470 -0.000032 0.044471 0.000004
# 6 -0.000008 0.000015 -0.000027 0.000643 0.000004 0.093471
#
#
# Mechanical properties :
#
#
# Convention : Reuss Voigt Hill
#
# Bulk Modulus (GPa) = 37.34407 56.67273 47.00840
# Shear Modulus (GPa) = 20.56808 32.14335 26.35572
#
# Velocity S-wave (km/s) = 3.17424 3.96816 3.59319
# Velocity P-wave (km/s) = 5.63280 6.98267 6.34374
#
# Compressibility (1/GPa) = 0.02677802
#
# Stress axis : x y z
#
# Youngs Moduli (GPa) = 34.46510 66.76704 163.23312
#
# Poissons Ratio (x) = 0.47066 0.33042
# Poissons Ratio (y) = 0.24295 0.42388
# Poissons Ratio (z) = 0.06977 0.17338
#
# Static dielectric constant tensor:
#      x y z
#    x 1.775020 -0.000040 -0.002820 
#    y -0.000040 1.742260 -0.000040 
#    z -0.002820 -0.000040 1.836170 
# 
# From -- ./inp_files/250054.got.cif
#   From: 2010.05.17/outbox.cif.g08.bks.cpg/sg15_126_cif.got.tgz:250054.got - 2010.06.03 18:47:42.
