data_PCOD9271698
_publ_section_title
;
Structure prediction by ZEFSAII (Michael W. Deem and Ramdas Pophale) SiO2 
 PCOD9271698
Probable space group: C 2/C
;
_chemical_formula_sum "Si O2"
_cell_formula_units_Z 64
_cell_length_a 15.848824
_cell_length_b 15.603302
_cell_length_c 14.533743
_cell_angle_alpha 90.000000
_cell_angle_beta 44.916355
_cell_angle_gamma 90.000000
_cell_volume 2537.704740
_symmetry_space_group_name_H-M "C 2/C"
_symmetry_group_IT_number 15
_symmetry_cell_setting 'monoclinic'
loop_
_space_group_symop_operation_xyz
x,y,z
-x,y,1/2-z
-x,-y,-z
x,-y,1/2+z
1/2+x,1/2+y,z
1/2-x,1/2+y,1/2-z
1/2-x,1/2-y,-z
1/2+x,1/2-y,1/2+z
loop_
_atom_site_type_symbol
_atom_site_label
_atom_site_fract_x
_atom_site_fract_y
_atom_site_fract_z
Si Si1 0.602776 0.600557 0.853034
Si Si2 0.881426 0.502838 0.822216
Si Si3 0.629299 0.285636 0.686275
Si Si4 0.187615 0.872208 0.467611
Si Si5 0.245892 0.279707 0.735048
Si Si6 0.488695 0.144304 0.109681
Si Si7 0.878006 0.182608 0.946776
Si Si8 0.731948 0.078701 0.910596
O O1 0.582305 0.605365 0.977894
O O2 0.693310 0.683139 0.771651
O O3 0.478169 0.614444 0.898564
O O4 0.681869 0.535887 0.731031
O O5 0.781400 0.559593 0.855127
O O6 0.932589 0.424731 0.722914
O O7 0.000000 0.556986 0.750000
O O8 0.818721 0.476382 0.965390
O O9 0.500000 0.254488 0.750000
O O10 0.738896 0.217100 0.594742
O O11 0.651370 0.367078 0.602169
O O12 0.642564 0.297814 0.785064
O O13 0.125923 0.328847 0.860257
O O14 0.285494 0.307964 0.602467
O O15 0.547592 0.227767 0.114474
O O16 0.603918 0.108815 0.967772
O O17 0.809267 0.149467 0.910017
#
# Coordination Sequence:
#
# PCOD9271698 Si02
#       8
#     8   8   8   8   8   8   8   8
#     4  10  22  36  57  90 125 160 207 259 313 371
#     4  10  22  41  61  87 128 172 208 256 323 386
#     4  10  21  41  72  92 118 162 220 273 324 363
#     4  10  22  44  63  91 124 164 213 273 319 374
#     4  10  20  36  60  95 125 158 211 262 307 374
#     4  10  21  36  60  90 130 167 203 255 313 378
#     4  11  20  35  62  93 131 160 204 257 312 377
#     4  11  21  37  58  90 129 171 204 248 317 389
#
# _framework density 25.219639000000001
#
# number of rings (size 3 to 8) (size 9 to 14) (size 15 to 20)
#    0.000    1.750    2.500    1.875    0.000    3.000 
#    4.500    3.125    0.000    0.000    0.000    0.000 
#    0.000    0.000    0.000    0.000    0.000    0.000 
#
# Total GULP energy -178202.561905 kJ/mol
# GULP energy per Si atom -5568.830060 kJ/mol
# Density = 2.516224 g / cm^3
# Si number density = 25.219639 Si / 1000 Ang^3
#
#
#
# Elastic Constant Matrix: (Units=GPa)
#
#
# Indices 1 2 3 4 5 6 
#
# 1 148.1590 2.6891 19.1158 0.0000 2.5657 0.0000
# 2 2.6891 26.7966 13.3213 0.0000 -5.9729 0.0000
# 3 19.1158 13.3213 44.1685 0.0000 -8.1122 0.0000
# 4 0.0000 0.0000 0.0000 107.3253 0.0000 -2.6259
# 5 2.5657 -5.9729 -8.1122 0.0000 39.1267 0.0000
# 6 0.0000 0.0000 0.0000 -2.6259 0.0000 12.4414
#
#
#
# Elastic Compliance Matrix: (Units=1/GPa)
#
#
# Indices 1 2 3 4 5 6 
#
# 1 0.007214 0.000806 -0.003565 0.000000 -0.001089 0.000000
# 2 0.000806 0.044636 -0.013067 0.000000 0.004052 0.000000
# 3 -0.003565 -0.013067 0.028902 0.000000 0.004231 0.000000
# 4 0.000000 0.000000 0.000000 0.009366 0.000000 0.001977
# 5 -0.001089 0.004052 0.004231 0.000000 0.027125 0.000000
# 6 0.000000 0.000000 0.000000 0.001977 0.000000 0.080794
#
#
# Mechanical properties :
#
#
# Convention : Reuss Voigt Hill
#
# Bulk Modulus (GPa) = 20.36699 32.15294 26.25997
# Shear Modulus (GPa) = 20.32062 44.04521 32.18292
#
# Velocity S-wave (km/s) = 2.84165 4.18361 3.57614
# Velocity P-wave (km/s) = 4.34281 6.00946 5.24278
#
# Compressibility (1/GPa) = 0.04909906
#
# Stress axis : x y z
#
# Youngs Moduli (GPa) = 138.62476 22.40330 34.60020
#
# Poissons Ratio (x) = -0.01805 0.12335
# Poissons Ratio (y) = -0.11168 0.45211
# Poissons Ratio (z) = 0.49421 0.29274
#
# Static dielectric constant tensor:
#      x y z
#    x 2.081960 0.000000 0.100950 
#    y 0.000000 2.131570 0.000000 
#    z 0.100950 0.000000 2.237770 
# 
# From -- ./inp_files/163258.got.cif
#   From: 2010.05.17/outbox.cif.g08.bks.cpg/sg15_82_cif.got.tgz:163258.got - 2010.06.03 18:47:42.
