data_PCOD9271501
_publ_section_title
;
Structure prediction by ZEFSAII (Michael W. Deem and Ramdas Pophale) SiO2 
 PCOD9271501
Probable space group: C 2/C
;
_chemical_formula_sum "Si O2"
_cell_formula_units_Z 56
_cell_length_a 13.800765
_cell_length_b 21.149623
_cell_length_c 16.765728
_cell_angle_alpha 90.000000
_cell_angle_beta 145.853003
_cell_angle_gamma 90.000000
_cell_volume 2746.864237
_symmetry_space_group_name_H-M "C 2/C"
_symmetry_group_IT_number 15
_symmetry_cell_setting 'monoclinic'
loop_
_space_group_symop_operation_xyz
x,y,z
-x,y,1/2-z
-x,-y,-z
x,-y,1/2+z
1/2+x,1/2+y,z
1/2-x,1/2+y,1/2-z
1/2-x,1/2-y,-z
1/2+x,1/2-y,1/2+z
loop_
_atom_site_type_symbol
_atom_site_label
_atom_site_fract_x
_atom_site_fract_y
_atom_site_fract_z
Si Si1 0.817006 0.304912 0.938952
Si Si2 0.819780 0.439854 0.176050
Si Si3 0.335212 0.731608 0.688058
Si Si4 0.806560 0.306494 0.240866
Si Si5 0.510929 0.167369 0.109567
Si Si6 0.831531 0.069772 0.085870
Si Si7 0.979051 0.478658 0.576955
O O1 0.732821 0.237886 0.861238
O O2 0.719750 0.358641 0.922764
O O3 0.864785 0.331849 0.883536
O O4 0.998888 0.291150 0.102921
O O5 0.797058 0.379598 0.215544
O O6 0.000000 0.429312 0.250000
O O7 0.858557 0.499768 0.257900
O O8 0.665324 0.438174 0.007292
O O9 0.500000 0.707829 0.750000
O O10 0.312043 0.705328 0.762382
O O11 0.382255 0.804519 0.742918
O O12 0.156660 0.712466 0.522198
O O13 0.449427 0.095233 0.071954
O O14 0.000000 0.053560 0.250000
O O15 0.682074 0.020955 0.006752
O O16 0.000000 0.500000 0.500000
#
# Coordination Sequence:
#
# PCOD9271501 Si02
#       7
#     8   8   8   8   8   8   8
#     4  10  20  37  59  92 125 172 208 259 317 380
#     4  10  21  40  62  92 129 166 218 259 310 401
#     4  10  21  38  59  95 129 159 213 271 317 374
#     4  10  20  36  59  92 127 171 216 254 324 384
#     4  10  21  39  67  90 122 169 209 260 323 384
#     4  11  24  40  60  95 133 157 216 276 312 374
#     4  11  20  42  69  84 125 183 218 246 327 394
#
# _framework density 20.386883000000001
#
# number of rings (size 3 to 8) (size 9 to 14) (size 15 to 20)
#    0.000    1.714    4.286    1.286    2.000    3.429 
#    0.000    2.143    0.000    0.000    0.000    0.000 
#    0.000    0.000    0.000    0.000    0.000    0.000 
#
# Total GULP energy -156090.104407 kJ/mol
# GULP energy per Si atom -5574.646586 kJ/mol
# Density = 2.034048 g / cm^3
# Si number density = 20.386883 Si / 1000 Ang^3
#
#
#
# Elastic Constant Matrix: (Units=GPa)
#
#
# Indices 1 2 3 4 5 6 
#
# 1 44.7189 17.9793 16.1183 -0.0006 -12.7691 -0.0006
# 2 17.9793 92.6806 40.5464 -0.0008 -5.3817 -0.0009
# 3 16.1183 40.5464 122.4696 -0.0024 -16.6196 -0.0030
# 4 -0.0006 -0.0008 -0.0024 20.7165 -0.0014 -15.6898
# 5 -12.7691 -5.3817 -16.6196 -0.0014 13.7794 -0.0015
# 6 -0.0006 -0.0009 -0.0030 -15.6898 -0.0015 -13.2706
#
#
#
# Elastic Compliance Matrix: (Units=1/GPa)
#
#
# Indices 1 2 3 4 5 6 
#
# 1 0.032437 -0.005220 0.001508 0.000000 0.029839 -0.000004
# 2 -0.005220 0.013457 -0.004438 0.000000 -0.004934 0.000001
# 3 0.001508 -0.004438 0.011228 0.000000 0.013207 -0.000003
# 4 0.000000 0.000000 0.000000 0.025467 -0.000001 -0.030110
# 5 0.029839 -0.004934 0.013207 -0.000001 0.114226 -0.000015
# 6 -0.000004 0.000001 -0.000003 -0.030110 -0.000015 -0.039756
#
#
# Mechanical properties :
#
#
# Convention : Reuss Voigt Hill
#
# Bulk Modulus (GPa) = 24.49522 45.46191 34.97857
# Shear Modulus (GPa) = 26.74279 16.59342 21.66810
#
# Velocity S-wave (km/s) = 3.62576 2.85603 3.26367
# Velocity P-wave (km/s) = 5.43778 5.76402 5.60327
#
# Compressibility (1/GPa) = 0.04082428
#
# Stress axis : x y z
#
# Youngs Moduli (GPa) = 30.82879 74.30873 89.06051
#
# Poissons Ratio (x) = 0.38787 -0.13434
# Poissons Ratio (y) = 0.16092 0.39524
# Poissons Ratio (z) = -0.04650 0.32978
#
# Static dielectric constant tensor:
#      x y z
#    x 1.738780 0.000000 -0.036080 
#    y 0.000000 1.872250 0.000000 
#    z -0.036080 0.000000 1.765740 
# 
# From -- ./inp_files/206985.got.cif
#   From: 2010.05.17/outbox.cif.g08.bks.cpg/sg15_104_cif.got.tgz:206985.got - 2010.06.03 18:47:42.
