data_PCOD9271216
_publ_section_title
;
Structure prediction by ZEFSAII (Michael W. Deem and Ramdas Pophale) SiO2 
 PCOD9271216
Probable space group: C 2/C
;
_chemical_formula_sum "Si O2"
_cell_formula_units_Z 56
_cell_length_a 9.080497
_cell_length_b 24.648957
_cell_length_c 14.576391
_cell_angle_alpha 90.000000
_cell_angle_beta 59.453217
_cell_angle_gamma 90.000000
_cell_volume 2809.761702
_symmetry_space_group_name_H-M "C 2/C"
_symmetry_group_IT_number 15
_symmetry_cell_setting 'monoclinic'
loop_
_space_group_symop_operation_xyz
x,y,z
-x,y,1/2-z
-x,-y,-z
x,-y,1/2+z
1/2+x,1/2+y,z
1/2-x,1/2+y,1/2-z
1/2-x,1/2-y,-z
1/2+x,1/2-y,1/2+z
loop_
_atom_site_type_symbol
_atom_site_label
_atom_site_fract_x
_atom_site_fract_y
_atom_site_fract_z
Si Si1 0.253413 0.185966 0.406424
Si Si2 0.627614 0.237080 0.784633
Si Si3 0.920858 0.617741 0.630457
Si Si4 0.085882 0.943235 0.314507
Si Si5 0.999971 0.221512 0.854668
Si Si6 0.772199 0.584724 0.490241
Si Si7 0.854765 0.479574 0.366898
O O1 0.170678 0.218797 0.348663
O O2 0.429993 0.217238 0.368549
O O3 0.281011 0.121945 0.396785
O O4 0.131072 0.195424 0.533356
O O5 0.500000 0.259016 0.750000
O O6 0.558628 0.180577 0.849352
O O7 0.804921 0.221474 0.678655
O O8 0.742299 0.595335 0.731402
O O9 0.890529 0.610278 0.531961
O O10 0.072331 0.578289 0.618920
O O11 0.180583 0.977029 0.363377
O O12 0.000000 0.969247 0.250000
O O13 0.923075 0.915771 0.412919
O O14 0.000000 0.198596 0.750000
O O15 0.830071 0.523497 0.453604
O O16 0.000000 0.498405 0.250000
#
# Coordination Sequence:
#
# PCOD9271216 Si02
#       7
#     8   8   8   8   8   8   8
#     4  10  21  35  55  85 111 145 189 226 281 353
#     4  11  22  37  57  80 113 150 188 239 285 331
#     4  10  20  36  58  83 107 141 191 239 280 323
#     4   9  19  35  58  82 105 142 190 232 272 325
#     4   9  18  35  56  78 108 143 185 231 273 331
#     4  11  20  35  58  82 111 145 181 231 288 341
#     4  10  21  36  54  82 114 144 184 230 281 337
#
# _framework density 19.930515
#
# number of rings (size 3 to 8) (size 9 to 14) (size 15 to 20)
#    0.000    2.000    0.000    5.571    0.000    5.714 
#    0.000    2.143    0.000    0.000    0.000    0.000 
#    0.000    0.000    0.000    0.000    0.000    0.000 
#
# Total GULP energy -156090.586277 kJ/mol
# GULP energy per Si atom -5574.663796 kJ/mol
# Density = 1.988515 g / cm^3
# Si number density = 19.930515 Si / 1000 Ang^3
#
#
#
# Elastic Constant Matrix: (Units=GPa)
#
#
# Indices 1 2 3 4 5 6 
#
# 1 108.9822 31.9076 9.6428 0.0000 8.4025 0.0000
# 2 31.9076 86.3878 21.5579 0.0000 9.7927 0.0000
# 3 9.6428 21.5579 46.3789 0.0000 4.2356 0.0000
# 4 0.0000 0.0000 0.0000 13.0173 0.0000 6.8778
# 5 8.4025 9.7927 4.2356 0.0000 20.9449 0.0000
# 6 0.0000 0.0000 0.0000 6.8778 0.0000 8.9058
#
#
#
# Elastic Compliance Matrix: (Units=1/GPa)
#
#
# Indices 1 2 3 4 5 6 
#
# 1 0.010416 -0.003486 -0.000318 0.000000 -0.002484 0.000000
# 2 -0.003486 0.014793 -0.005753 0.000000 -0.004354 0.000000
# 3 -0.000318 -0.005753 0.024497 0.000000 -0.002136 0.000000
# 4 0.000000 0.000000 0.000000 0.129774 0.000000 -0.100223
# 5 -0.002484 -0.004354 -0.002136 0.000000 0.051209 0.000000
# 6 0.000000 0.000000 0.000000 -0.100223 0.000000 0.189686
#
#
# Mechanical properties :
#
#
# Convention : Reuss Voigt Hill
#
# Bulk Modulus (GPa) = 32.69039 40.88505 36.78772
# Shear Modulus (GPa) = 11.11881 20.48299 15.80090
#
# Velocity S-wave (km/s) = 2.36451 3.20928 2.81872
# Velocity P-wave (km/s) = 4.88798 5.85585 5.39367
#
# Compressibility (1/GPa) = 0.03059003
#
# Stress axis : x y z
#
# Youngs Moduli (GPa) = 96.00427 67.60086 40.82107
#
# Poissons Ratio (x) = 0.23567 0.01299
# Poissons Ratio (y) = 0.33469 0.23486
# Poissons Ratio (z) = 0.03056 0.38894
#
# Static dielectric constant tensor:
#      x y z
#    x 1.722110 0.000000 0.019820 
#    y 0.000000 1.735120 0.000000 
#    z 0.019820 0.000000 1.731970 
# 
# From -- ./inp_files/137688.got.cif
#   From: 2010.05.17/outbox.cif.g08.bks.cpg/sg15_69_cif.got.tgz:137688.got - 2010.06.03 18:47:42.
