data_PCOD9271023
_publ_section_title
;
Structure prediction by ZEFSAII (Michael W. Deem and Ramdas Pophale) SiO2 
 PCOD9271023
Probable space group: C 2/C
;
_chemical_formula_sum "Si O2"
_cell_formula_units_Z 60
_cell_length_a 16.254402
_cell_length_b 20.700913
_cell_length_c 8.722375
_cell_angle_alpha 90.000000
_cell_angle_beta 118.011050
_cell_angle_gamma 90.000000
_cell_volume 2591.108701
_symmetry_space_group_name_H-M "C 2/C"
_symmetry_group_IT_number 15
_symmetry_cell_setting 'monoclinic'
loop_
_space_group_symop_operation_xyz
x,y,z
-x,y,1/2-z
-x,-y,-z
x,-y,1/2+z
1/2+x,1/2+y,z
1/2-x,1/2+y,1/2-z
1/2-x,1/2-y,-z
1/2+x,1/2-y,1/2+z
loop_
_atom_site_type_symbol
_atom_site_label
_atom_site_fract_x
_atom_site_fract_y
_atom_site_fract_z
Si Si1 0.933042 0.171826 0.470290
Si Si2 0.315732 0.211345 0.440895
Si Si3 0.065960 0.960539 0.671037
Si Si4 0.768224 0.942624 0.120082
Si Si5 0.000000 0.753497 0.750000
Si Si6 0.356287 0.022768 0.252262
Si Si7 0.586713 0.090322 0.921812
Si Si8 0.356163 0.307098 0.224250
O O1 0.899769 0.100002 0.398561
O O2 0.933171 0.208688 0.310040
O O3 0.874827 0.201061 0.559480
O O4 0.041269 0.173837 0.618863
O O5 0.250000 0.250000 0.500000
O O6 0.424614 0.222372 0.573243
O O7 0.319104 0.134307 0.476876
O O8 0.311233 0.245700 0.271106
O O9 0.000000 0.935018 0.750000
O O10 0.142914 0.009011 0.807162
O O11 0.000000 0.000000 0.500000
O O12 0.701091 0.978027 0.181203
O O13 0.796422 0.871555 0.198590
O O14 0.715167 0.936316 0.912476
O O15 0.397025 0.972592 0.167286
O O16 0.427296 0.065632 0.415568
O O17 0.500000 0.119535 0.750000
#
# Coordination Sequence:
#
# PCOD9271023 Si02
#       8
#     8   8   8   8   4   8   8   8
#     4  10  20  36  56  87 132 184 234 272 334 413
#     4  11  24  43  71 100 132 178 231 284 350 429
#     4  12  21  31  53  90 132 195 241 280 332 404
#     4  11  21  36  56  94 141 175 226 287 339 403
#     4  10  22  42  64  92 128 180 226 282 342 416
#     4  10  24  40  67  97 128 171 224 293 361 402
#     4  11  23  48  74  99 131 171 230 292 357 428
#     4  10  21  37  59  89 140 178 223 283 339 417
#
# _framework density 23.156110999999999
#
# number of rings (size 3 to 8) (size 9 to 14) (size 15 to 20)
#    0.000    1.333    2.667    3.600    0.000    3.200 
#    0.000    5.333    8.800    0.000    0.000    0.000 
#    0.000    0.000    0.000    0.000    0.000    0.000 
#
# Total GULP energy -167307.337252 kJ/mol
# GULP energy per Si atom -5576.911242 kJ/mol
# Density = 2.310341 g / cm^3
# Si number density = 23.156111 Si / 1000 Ang^3
#
#
#
# Elastic Constant Matrix: (Units=GPa)
#
#
# Indices 1 2 3 4 5 6 
#
# 1 54.0581 15.6452 27.6554 0.0000 -9.2512 0.0000
# 2 15.6452 35.6442 39.1429 0.0000 2.6577 0.0000
# 3 27.6554 39.1429 145.4430 0.0000 -3.0603 0.0000
# 4 0.0000 0.0000 0.0000 178.0030 0.0000 -123.2835
# 5 -9.2512 2.6577 -3.0603 0.0000 42.4911 0.0000
# 6 0.0000 0.0000 0.0000 -123.2835 0.0000 127.4650
#
#
#
# Elastic Compliance Matrix: (Units=1/GPa)
#
#
# Indices 1 2 3 4 5 6 
#
# 1 0.022817 -0.008193 -0.002021 0.000000 0.005335 0.000000
# 2 -0.008193 0.043225 -0.010185 0.000000 -0.005221 0.000000
# 3 -0.002021 -0.010185 0.010020 0.000000 0.000919 0.000000
# 4 0.000000 0.000000 0.000000 0.017017 0.000000 0.016459
# 5 0.005335 -0.005221 0.000919 0.000000 0.025089 0.000000
# 6 0.000000 0.000000 0.000000 0.016459 0.000000 0.023764
#
#
# Mechanical properties :
#
#
# Convention : Reuss Voigt Hill
#
# Bulk Modulus (GPa) = 28.35783 44.44803 36.40293
# Shear Modulus (GPa) = 25.70876 79.77194 52.74035
#
# Velocity S-wave (km/s) = 3.33564 5.87575 4.77760
# Velocity P-wave (km/s) = 5.20656 8.07893 6.79623
#
# Compressibility (1/GPa) = 0.03526362
#
# Stress axis : x y z
#
# Youngs Moduli (GPa) = 43.82736 23.13453 99.79680
#
# Poissons Ratio (x) = 0.18954 0.20172
# Poissons Ratio (y) = 0.35907 1.01645
# Poissons Ratio (z) = 0.08859 0.23563
#
# Static dielectric constant tensor:
#      x y z
#    x 2.006450 0.000000 0.136400 
#    y 0.000000 2.257010 0.000000 
#    z 0.136400 0.000000 2.030600 
# 
# From -- ./inp_files/50671.got.cif
#   From: 2010.05.17/outbox.cif.g08.bks.cpg/sg15_26_cif.got.tgz:50671.got - 2010.06.03 18:47:42.
