data_PCOD9271262
_publ_section_title
;
Structure prediction by ZEFSAII (Michael W. Deem and Ramdas Pophale) SiO2 
 PCOD9271262
Probable space group: C 2/C
;
_chemical_formula_sum "Si O2"
_cell_formula_units_Z 56
_cell_length_a 19.286271
_cell_length_b 16.247980
_cell_length_c 9.117599
_cell_angle_alpha 90.000000
_cell_angle_beta 83.890807
_cell_angle_gamma 90.000000
_cell_volume 2840.891768
_symmetry_space_group_name_H-M "C 2/C"
_symmetry_group_IT_number 15
_symmetry_cell_setting 'monoclinic'
loop_
_space_group_symop_operation_xyz
x,y,z
-x,y,1/2-z
-x,-y,-z
x,-y,1/2+z
1/2+x,1/2+y,z
1/2-x,1/2+y,1/2-z
1/2-x,1/2-y,-z
1/2+x,1/2-y,1/2+z
loop_
_atom_site_type_symbol
_atom_site_label
_atom_site_fract_x
_atom_site_fract_y
_atom_site_fract_z
Si Si1 0.073897 0.738984 0.166597
Si Si2 0.799570 0.391249 0.840894
Si Si3 0.356860 0.429288 0.622636
Si Si4 0.144557 0.517931 0.430381
Si Si5 0.918156 0.072523 0.787609
Si Si6 0.427654 0.271042 0.682145
Si Si7 0.418413 0.895545 0.293200
O O1 0.142266 0.681154 0.169351
O O2 0.086342 0.828710 0.237101
O O3 0.000000 0.705952 0.250000
O O4 0.064033 0.753187 0.993810
O O5 0.717713 0.386132 0.892232
O O6 0.802015 0.429203 0.676830
O O7 0.824094 0.456296 0.957937
O O8 0.366347 0.516371 0.702394
O O9 0.396239 0.439751 0.460352
O O10 0.394013 0.359480 0.709637
O O11 0.106241 0.463863 0.316673
O O12 0.096993 0.577840 0.538025
O O13 0.000000 0.049451 0.750000
O O14 0.500000 0.275087 0.750000
O O15 0.386612 0.192930 0.758357
O O16 0.500000 0.889229 0.250000
#
# Coordination Sequence:
#
# PCOD9271262 Si02
#       7
#     8   8   8   8   8   8   8
#     4  10  23  41  64  94 128 164 211 259 309 375
#     4  11  23  41  61  92 126 169 206 252 317 368
#     4  11  23  42  65  92 126 162 207 260 316 379
#     4  10  22  38  57  84 123 160 207 247 294 376
#     4  10  22  42  68  95 120 164 211 264 316 365
#     4  10  22  39  62  89 120 156 202 258 319 363
#     4  10  20  36  58  86 114 157 205 252 306 353
#
# _framework density 19.712119000000001
#
# number of rings (size 3 to 8) (size 9 to 14) (size 15 to 20)
#    0.000    1.714    1.429    2.143    4.000    6.857 
#    5.143    0.714    0.000    0.000    0.000    0.000 
#    0.000    0.000    0.000    0.000    0.000    0.000 
#
# Total GULP energy -156000.299380 kJ/mol
# GULP energy per Si atom -5571.439264 kJ/mol
# Density = 1.966725 g / cm^3
# Si number density = 19.712119 Si / 1000 Ang^3
#
#
#
# Elastic Constant Matrix: (Units=GPa)
#
#
# Indices 1 2 3 4 5 6 
#
# 1 83.4477 36.0441 17.9402 0.0000 1.7397 0.0000
# 2 36.0441 82.5808 33.1040 0.0000 -1.5044 0.0000
# 3 17.9402 33.1040 68.0900 0.0000 -5.2496 0.0000
# 4 0.0000 0.0000 0.0000 24.2907 0.0000 3.4552
# 5 1.7397 -1.5044 -5.2496 0.0000 18.1091 0.0000
# 6 0.0000 0.0000 0.0000 3.4552 0.0000 16.7102
#
#
#
# Elastic Compliance Matrix: (Units=1/GPa)
#
#
# Indices 1 2 3 4 5 6 
#
# 1 0.014907 -0.006090 -0.001142 0.000000 -0.002269 0.000000
# 2 -0.006090 0.017543 -0.006922 0.000000 0.000036 0.000000
# 3 -0.001142 -0.006922 0.018735 0.000000 0.004966 0.000000
# 4 0.000000 0.000000 0.000000 0.042416 0.000000 -0.008770
# 5 -0.002269 0.000036 0.004966 0.000000 0.056881 0.000000
# 6 0.000000 0.000000 0.000000 -0.008770 0.000000 0.061657
#
#
# Mechanical properties :
#
#
# Convention : Reuss Voigt Hill
#
# Bulk Modulus (GPa) = 43.70974 45.36612 44.53793
# Shear Modulus (GPa) = 20.15547 21.62401 20.88974
#
# Velocity S-wave (km/s) = 3.20111 3.31568 3.25890
# Velocity P-wave (km/s) = 5.99041 6.14187 6.06661
#
# Compressibility (1/GPa) = 0.02287819
#
# Stress axis : x y z
#
# Youngs Moduli (GPa) = 67.08336 57.00353 53.37539
#
# Poissons Ratio (x) = 0.34716 0.06094
# Poissons Ratio (y) = 0.40854 0.36944
# Poissons Ratio (z) = 0.07659 0.39455
#
# Static dielectric constant tensor:
#      x y z
#    x 1.723460 0.000000 -0.035900 
#    y 0.000000 1.763500 0.000000 
#    z -0.035900 0.000000 1.668710 
# 
# From -- ./inp_files/55615.got.cif
#   From: 2010.05.17/outbox.cif.g08.bks.cpg/sg15_28_cif.got.tgz:55615.got - 2010.06.03 18:47:42.
