data_PCOD9271328
_publ_section_title
;
Structure prediction by ZEFSAII (Michael W. Deem and Ramdas Pophale) SiO2 
 PCOD9271328
Probable space group: C 2/C
;
_chemical_formula_sum "Si O2"
_cell_formula_units_Z 64
_cell_length_a 27.644993
_cell_length_b 8.523509
_cell_length_c 13.405802
_cell_angle_alpha 90.000000
_cell_angle_beta 64.784615
_cell_angle_gamma 90.000000
_cell_volume 2857.843162
_symmetry_space_group_name_H-M "C 2/C"
_symmetry_group_IT_number 15
_symmetry_cell_setting 'monoclinic'
loop_
_space_group_symop_operation_xyz
x,y,z
-x,y,1/2-z
-x,-y,-z
x,-y,1/2+z
1/2+x,1/2+y,z
1/2-x,1/2+y,1/2-z
1/2-x,1/2-y,-z
1/2+x,1/2-y,1/2+z
loop_
_atom_site_type_symbol
_atom_site_label
_atom_site_fract_x
_atom_site_fract_y
_atom_site_fract_z
Si Si1 0.541004 0.750473 0.353804
Si Si2 0.245922 0.577869 0.106474
Si Si3 0.603655 0.000063 0.407147
Si Si4 0.076863 0.270949 0.106291
Si Si5 0.135092 0.041666 0.311959
Si Si6 0.859134 0.046784 0.955984
Si Si7 0.791410 0.694404 0.730589
Si Si8 0.864847 0.720274 0.294963
O O1 0.561155 0.824823 0.231099
O O2 0.478661 0.718501 0.397399
O O3 0.575514 0.592872 0.334914
O O4 0.558701 0.868313 0.425985
O O5 0.295663 0.564331 0.988102
O O6 0.243988 0.415244 0.168901
O O7 0.259824 0.716860 0.171933
O O8 0.186092 0.617427 0.124641
O O9 0.598604 0.096454 0.513342
O O10 0.602319 0.114334 0.311461
O O11 0.661354 0.915806 0.353221
O O12 0.115670 0.122523 0.085767
O O13 0.137716 0.060857 0.428191
O O14 0.177235 0.170589 0.236228
O O15 0.149109 0.871113 0.261636
O O16 0.887492 0.189016 0.872023
#
# Coordination Sequence:
#
# PCOD9271328 Si02
#       8
#     8   8   8   8   8   8   8   8
#     4  10  23  41  66  91 126 161 210 263 317 377
#     4  10  20  36  58  91 126 166 207 261 308 372
#     4  10  22  40  64  91 123 168 203 264 315 373
#     4  11  22  41  66  91 125 165 210 260 316 378
#     4  10  20  40  61  90 121 166 203 265 313 374
#     4  11  22  37  62  91 126 168 211 255 312 373
#     4   9  20  34  61  87 122 160 211 252 316 372
#     4  11  21  39  62  90 130 160 212 258 309 376
#
# _framework density 22.394511000000001
#
# number of rings (size 3 to 8) (size 9 to 14) (size 15 to 20)
#    0.000    1.750    2.500    2.250    1.750    3.500 
#    0.000    1.875    0.000    0.000    0.000    0.000 
#    0.000    0.000    0.000    0.000    0.000    0.000 
#
# Total GULP energy -178642.587740 kJ/mol
# GULP energy per Si atom -5582.580867 kJ/mol
# Density = 2.234354 g / cm^3
# Si number density = 22.394511 Si / 1000 Ang^3
#
#
#
# Elastic Constant Matrix: (Units=GPa)
#
#
# Indices 1 2 3 4 5 6 
#
# 1 38.5986 4.6562 -4.4139 0.0000 2.5368 0.0000
# 2 4.6562 85.6083 15.9826 0.0000 -0.5143 0.0000
# 3 -4.4139 15.9826 48.2014 0.0000 9.9160 0.0000
# 4 0.0000 0.0000 0.0000 30.1911 0.0000 7.3818
# 5 2.5368 -0.5143 9.9160 0.0000 21.6465 0.0000
# 6 0.0000 0.0000 0.0000 7.3818 0.0000 21.4246
#
#
#
# Elastic Compliance Matrix: (Units=1/GPa)
#
#
# Indices 1 2 3 4 5 6 
#
# 1 0.027020 -0.002305 0.004307 0.000000 -0.005194 0.000000
# 2 -0.002305 0.012764 -0.005036 0.000000 0.002880 0.000000
# 3 0.004307 -0.005036 0.025326 0.000000 -0.012226 0.000000
# 4 0.000000 0.000000 0.000000 0.036169 0.000000 -0.012462
# 5 -0.005194 0.002880 -0.012226 0.000000 0.052474 0.000000
# 6 0.000000 0.000000 0.000000 -0.012462 0.000000 0.050969
#
#
# Mechanical properties :
#
#
# Convention : Reuss Voigt Hill
#
# Bulk Modulus (GPa) = 16.93716 22.76199 19.84957
# Shear Modulus (GPa) = 21.69480 25.06467 23.37974
#
# Velocity S-wave (km/s) = 3.11586 3.34912 3.23459
# Velocity P-wave (km/s) = 4.53037 5.01415 4.77839
#
# Compressibility (1/GPa) = 0.05904178
#
# Stress axis : x y z
#
# Youngs Moduli (GPa) = 37.01012 78.34566 39.48580
#
# Poissons Ratio (x) = 0.18058 -0.17007
# Poissons Ratio (y) = 0.08530 0.19884
# Poissons Ratio (z) = -0.15941 0.39454
#
# Static dielectric constant tensor:
#      x y z
#    x 1.875240 0.000000 0.000320 
#    y 0.000000 1.813470 0.000000 
#    z 0.000320 0.000000 1.856570 
# 
# From -- ./inp_files/180804.got.cif
#   From: 2010.05.17/outbox.cif.g08.bks.cpg/sg15_91_cif.got.tgz:180804.got - 2010.06.03 18:47:42.
