data_PCOD9271292
_publ_section_title
;
Structure prediction by ZEFSAII (Michael W. Deem and Ramdas Pophale) SiO2 
 PCOD9271292
Probable space group: C 2/C
;
_chemical_formula_sum "Si O2"
_cell_formula_units_Z 40
_cell_length_a 30.953433
_cell_length_b 7.388493
_cell_length_c 14.324768
_cell_angle_alpha 90.000000
_cell_angle_beta 154.974189
_cell_angle_gamma 90.000000
_cell_volume 1385.861592
_symmetry_space_group_name_H-M "C 2/C"
_symmetry_group_IT_number 15
_symmetry_cell_setting 'monoclinic'
loop_
_space_group_symop_operation_xyz
x,y,z
-x,y,1/2-z
-x,-y,-z
x,-y,1/2+z
1/2+x,1/2+y,z
1/2-x,1/2+y,1/2-z
1/2-x,1/2-y,-z
1/2+x,1/2-y,1/2+z
loop_
_atom_site_type_symbol
_atom_site_label
_atom_site_fract_x
_atom_site_fract_y
_atom_site_fract_z
Si Si1 0.934085 0.854636 0.000982
Si Si2 0.394832 0.264871 0.459904
Si Si3 0.712832 0.462042 0.954362
Si Si4 0.700689 0.906937 0.170783
Si Si5 0.390902 0.845577 0.745658
O O1 0.870906 0.881433 0.779927
O O2 0.869832 0.769196 0.959309
O O3 0.969198 0.058269 0.098169
O O4 0.014588 0.698039 0.133883
O O5 0.368790 0.088949 0.473616
O O6 0.287580 0.372436 0.264409
O O7 0.419035 0.170251 0.409571
O O8 0.742004 0.402312 0.115813
O O9 0.818794 0.480185 0.103084
O O10 0.674788 0.664566 0.898157
#
# Coordination Sequence:
#
# PCOD9271292 Si02
#       5
#     8   8   8   8   8
#     4  11  21  40  66  87 121 167 207 255 313 371
#     4  10  20  36  58  87 122 161 200 245 318 371
#     4   9  19  36  62  92 118 158 212 250 310 373
#     4  11  21  36  62  90 119 163 202 253 312 372
#     4   9  20  39  63  88 124 162 206 261 304 373
#
# _framework density 28.862912000000001
#
# number of rings (size 3 to 8) (size 9 to 14) (size 15 to 20)
#    0.000    2.000    2.000    4.200    0.000    3.200 
#    0.000    6.000    0.000    0.000    0.000    0.000 
#    0.000    0.000    0.000    0.000    0.000    0.000 
#
# Total GULP energy -111614.021241 kJ/mol
# GULP energy per Si atom -5580.701062 kJ/mol
# Density = 2.879722 g / cm^3
# Si number density = 28.862912 Si / 1000 Ang^3
#
#
#
# Elastic Constant Matrix: (Units=GPa)
#
#
# Indices 1 2 3 4 5 6 
#
# 1 108.6924 -7.4570 45.7218 0.0000 -4.3123 0.0000
# 2 -7.4570 123.9914 6.7295 0.0000 -19.1931 0.0000
# 3 45.7218 6.7295 77.9844 0.0000 -29.1878 0.0000
# 4 0.0000 0.0000 0.0000 -0.0254 0.0000 8.5305
# 5 -4.3123 -19.1931 -29.1878 0.0000 53.2336 0.0000
# 6 0.0000 0.0000 0.0000 8.5305 0.0000 42.6770
#
#
#
# Elastic Compliance Matrix: (Units=1/GPa)
#
#
# Indices 1 2 3 4 5 6 
#
# 1 0.012875 0.000701 -0.008964 0.000000 -0.003619 0.000000
# 2 0.000701 0.008597 0.000036 0.000000 0.003176 0.000000
# 3 -0.008964 0.000036 0.022407 0.000000 0.011572 0.000000
# 4 0.000000 0.000000 0.000000 -0.577848 0.000000 0.115503
# 5 -0.003619 0.003176 0.011572 0.000000 0.025982 0.000000
# 6 0.000000 0.000000 0.000000 0.115503 0.000000 0.000344
#
#
# Mechanical properties :
#
#
# Convention : Reuss Voigt Hill
#
# Bulk Modulus (GPa) = 36.46328 44.51739 40.49033
# Shear Modulus (GPa) = -10.37245 36.88863 13.25809
#
# Velocity S-wave (km/s) = -1.89776 3.57888 2.14556
# Velocity P-wave (km/s) = 2.80334 5.70395 4.49409
#
# Compressibility (1/GPa) = 0.02742485
#
# Stress axis : x y z
#
# Youngs Moduli (GPa) = 77.66742 116.32106 44.62951
#
# Poissons Ratio (x) = -0.08150 0.40005
# Poissons Ratio (y) = -0.05441 -0.00161
# Poissons Ratio (z) = 0.69620 -0.00420
#
# Static dielectric constant tensor:
#      x y z
#    x 2.161570 0.000000 0.045070 
#    y 0.000000 2.240120 0.000000 
#    z 0.045070 0.000000 2.495590 
# 
# From -- ./inp_files/181275.got.cif
#   From: 2010.05.17/outbox.cif.g08.bks.cpg/sg15_91_cif.got.tgz:181275.got - 2010.06.03 18:47:42.
