data_PCOD9271006
_publ_section_title
;
Structure prediction by ZEFSAII (Michael W. Deem and Ramdas Pophale) SiO2 
 PCOD9271006
Probable space group: C 2/C
;
_chemical_formula_sum "Si O2"
_cell_formula_units_Z 40
_cell_length_a 4.947181
_cell_length_b 19.448923
_cell_length_c 23.073119
_cell_angle_alpha 90.000000
_cell_angle_beta 90.794934
_cell_angle_gamma 90.000000
_cell_volume 2219.820522
_symmetry_space_group_name_H-M "C 2/C"
_symmetry_group_IT_number 15
_symmetry_cell_setting 'monoclinic'
loop_
_space_group_symop_operation_xyz
x,y,z
-x,y,1/2-z
-x,-y,-z
x,-y,1/2+z
1/2+x,1/2+y,z
1/2-x,1/2+y,1/2-z
1/2-x,1/2-y,-z
1/2+x,1/2-y,1/2+z
loop_
_atom_site_type_symbol
_atom_site_label
_atom_site_fract_x
_atom_site_fract_y
_atom_site_fract_z
Si Si1 0.609539 0.144215 0.143100
Si Si2 0.601679 0.435958 0.684045
Si Si3 0.344965 0.215073 0.632477
Si Si4 0.870990 0.255285 0.563722
Si Si5 0.249382 0.083320 0.709013
O O1 0.369620 0.109348 0.177587
O O2 0.726303 0.217783 0.165747
O O3 0.480047 0.168936 0.081690
O O4 0.863723 0.093808 0.143390
O O5 0.500000 0.431781 0.750000
O O6 0.664480 0.515847 0.673047
O O7 0.637079 0.234188 0.608405
O O8 0.336520 0.147670 0.670845
O O9 0.133538 0.208876 0.578231
O O10 0.750000 0.250000 0.500000
O O11 0.500000 0.061969 0.750000
O O12 0.000000 0.102597 0.750000
#
# Coordination Sequence:
#
# PCOD9271006 Si02
#       5
#     8   8   8   8   8
#     4  10  20  36  56  85 104 148 187 234 267 324
#     4  11  21  36  54  80 118 153 182 216 276 337
#     4  10  21  37  57  87 106 148 187 235 273 332
#     4  10  20  38  60  83 107 142 187 241 296 321
#     4  11  23  38  55  82 121 159 181 218 281 342
#
# _framework density 18.019475
#
# number of rings (size 3 to 8) (size 9 to 14) (size 15 to 20)
#    1.200    0.400    2.000    4.800    0.000    2.400 
#    0.000    0.000    0.000    7.200    0.000    0.000 
#    0.000    0.000    0.000    0.000    0.000    0.000 
#
# Total GULP energy -111399.927549 kJ/mol
# GULP energy per Si atom -5569.996377 kJ/mol
# Density = 1.797846 g / cm^3
# Si number density = 18.019475 Si / 1000 Ang^3
#
#
#
# Elastic Constant Matrix: (Units=GPa)
#
#
# Indices 1 2 3 4 5 6 
#
# 1 115.3593 31.9813 11.4269 0.0000 7.6629 0.0000
# 2 31.9813 114.2951 29.5213 0.0000 -0.4846 0.0000
# 3 11.4269 29.5213 27.5872 0.0000 6.0193 0.0000
# 4 0.0000 0.0000 0.0000 -43.1843 0.0000 42.6562
# 5 7.6629 -0.4846 6.0193 0.0000 26.2248 0.0000
# 6 0.0000 0.0000 0.0000 42.6562 0.0000 -20.4857
#
#
#
# Elastic Compliance Matrix: (Units=1/GPa)
#
#
# Indices 1 2 3 4 5 6 
#
# 1 0.009616 -0.002523 -0.000695 0.000000 -0.002697 0.000000
# 2 -0.002523 0.013041 -0.013816 0.000000 0.004149 0.000000
# 3 -0.000695 -0.013816 0.054039 0.000000 -0.012456 0.000000
# 4 0.000000 0.000000 0.000000 0.021912 0.000000 0.045627
# 5 -0.002697 0.004149 -0.012456 0.000000 0.041855 0.000000
# 6 0.000000 0.000000 0.000000 0.045627 0.000000 0.046192
#
#
# Mechanical properties :
#
#
# Convention : Reuss Voigt Hill
#
# Bulk Modulus (GPa) = 23.45844 44.78895 34.12370
# Shear Modulus (GPa) = 21.28268 4.79843 13.04055
#
# Velocity S-wave (km/s) = 3.44043 1.63361 2.69307
# Velocity P-wave (km/s) = 5.36924 5.33555 5.35242
#
# Compressibility (1/GPa) = 0.04262858
#
# Stress axis : x y z
#
# Youngs Moduli (GPa) = 103.99446 76.67979 18.50519
#
# Poissons Ratio (x) = 0.19343 0.01286
# Poissons Ratio (y) = 0.26233 0.25567
# Poissons Ratio (z) = 0.07230 1.05941
#
# Static dielectric constant tensor:
#      x y z
#    x 1.644750 0.000000 0.020340 
#    y 0.000000 1.625130 0.000000 
#    z 0.020340 0.000000 1.614510 
# 
# From -- ./inp_files/227096.got.cif
#   From: 2010.05.17/outbox.cif.g08.bks.cpg/sg15_114_cif.got.tgz:227096.got - 2010.06.03 18:47:42.
