data_PCOD9271923
_publ_section_title
;
Structure prediction by ZEFSAII (Michael W. Deem and Ramdas Pophale) SiO2 
 PCOD9271923
Probable space group: C 2/C
;
_chemical_formula_sum "Si O2"
_cell_formula_units_Z 44
_cell_length_a 16.086425
_cell_length_b 6.990948
_cell_length_c 25.208458
_cell_angle_alpha 90.000000
_cell_angle_beta 146.859414
_cell_angle_gamma 90.000000
_cell_volume 1549.841106
_symmetry_space_group_name_H-M "C 2/C"
_symmetry_group_IT_number 15
_symmetry_cell_setting 'monoclinic'
loop_
_space_group_symop_operation_xyz
x,y,z
-x,y,1/2-z
-x,-y,-z
x,-y,1/2+z
1/2+x,1/2+y,z
1/2-x,1/2+y,1/2-z
1/2-x,1/2-y,-z
1/2+x,1/2-y,1/2+z
loop_
_atom_site_type_symbol
_atom_site_label
_atom_site_fract_x
_atom_site_fract_y
_atom_site_fract_z
Si Si1 0.192739 0.891432 0.382283
Si Si2 0.932062 0.822915 0.304037
Si Si3 0.902534 0.834668 0.471270
Si Si4 0.611312 0.271050 0.668493
Si Si5 0.595935 0.832625 0.351585
Si Si6 0.000000 0.500000 0.000000
O O1 0.133220 0.849849 0.291013
O O2 0.373300 0.889475 0.474201
O O3 0.103413 0.763690 0.378901
O O4 0.134798 0.105041 0.367532
O O5 0.789613 0.718371 0.255099
O O6 0.937560 0.013806 0.343271
O O7 0.767601 0.906016 0.435821
O O8 0.859792 0.664943 0.409349
O O9 0.030457 0.701952 0.570016
O O10 0.000000 0.000000 0.500000
O O11 0.520708 0.145775 0.662737
O O12 0.500000 0.896212 0.250000
#
# Coordination Sequence:
#
# PCOD9271923 Si02
#       6
#     8   8   8   8   8   4
#     4   9  17  38  62  88 118 175 212 250 334 394
#     4  10  20  36  62  91 124 163 214 264 315 391
#     4  11  25  41  66  99 132 169 222 275 323 395
#     4  11  22  40  63  97 128 171 218 272 328 385
#     4  10  20  40  67  86 128 181 211 263 339 390
#     4  10  20  40  68  86 132 176 208 262 344 378
#
# _framework density 28.390008999999999
#
# number of rings (size 3 to 8) (size 9 to 14) (size 15 to 20)
#    0.000    1.818    5.455    0.545    2.545    0.000 
#    3.273    0.000    0.000    5.455    0.000    0.000 
#    0.000    0.000    0.000    0.000    0.000    0.000 
#
# Total GULP energy -122513.288073 kJ/mol
# GULP energy per Si atom -5568.785821 kJ/mol
# Density = 2.832539 g / cm^3
# Si number density = 28.390009 Si / 1000 Ang^3
#
#
#
# Elastic Constant Matrix: (Units=GPa)
#
#
# Indices 1 2 3 4 5 6 
#
# 1 277.0424 58.5332 92.8593 0.0000 71.6560 0.0000
# 2 58.5332 94.5312 19.9737 0.0000 33.1524 -0.0001
# 3 92.8593 19.9737 95.0924 0.0000 47.4926 0.0000
# 4 0.0000 0.0000 0.0000 26.9135 0.0000 23.6439
# 5 71.6560 33.1524 47.4926 0.0000 80.0387 0.0000
# 6 0.0000 -0.0001 0.0000 23.6439 0.0000 47.3624
#
#
#
# Elastic Compliance Matrix: (Units=1/GPa)
#
#
# Indices 1 2 3 4 5 6 
#
# 1 0.006065 -0.002149 -0.004553 0.000000 -0.001838 0.000000
# 2 -0.002149 0.013138 0.001557 0.000000 -0.004442 0.000000
# 3 -0.004553 0.001557 0.018364 0.000000 -0.007465 0.000000
# 4 0.000000 0.000000 0.000000 0.066180 0.000000 -0.033038
# 5 -0.001838 -0.004442 -0.007465 0.000000 0.020409 0.000000
# 6 0.000000 0.000000 0.000000 -0.033038 0.000000 0.037607
#
#
# Mechanical properties :
#
#
# Convention : Reuss Voigt Hill
#
# Bulk Modulus (GPa) = 36.66088 89.93315 63.29702
# Shear Modulus (GPa) = 27.60217 50.54958 39.07587
#
# Velocity S-wave (km/s) = 3.12147 4.22422 3.71400
# Velocity P-wave (km/s) = 5.09243 7.45242 6.38245
#
# Compressibility (1/GPa) = 0.02727703
#
# Stress axis : x y z
#
# Youngs Moduli (GPa) = 164.87576 76.11596 54.45508
#
# Poissons Ratio (x) = 0.16356 0.24796
# Poissons Ratio (y) = 0.35429 -0.08481
# Poissons Ratio (z) = 0.75075 -0.11854
#
# Static dielectric constant tensor:
#      x y z
#    x 2.682670 0.000000 -0.296050 
#    y 0.000000 2.820310 0.000000 
#    z -0.296050 0.000000 2.459080 
# 
# From -- ./inp_files/312736.got.cif
#   From: 2010.05.17/outbox.cif.g08.bks.cpg/sg15_157_cif.got.tgz:312736.got - 2010.06.03 18:47:42.
