data_PCOD9271963
_publ_section_title
;
Structure prediction by ZEFSAII (Michael W. Deem and Ramdas Pophale) SiO2 
 PCOD9271963
Probable space group: C 2/C
;
_chemical_formula_sum "Si O2"
_cell_formula_units_Z 56
_cell_length_a 27.296102
_cell_length_b 10.161764
_cell_length_c 9.556471
_cell_angle_alpha 90.000000
_cell_angle_beta 62.477544
_cell_angle_gamma 90.000000
_cell_volume 2350.756021
_symmetry_space_group_name_H-M "C 2/C"
_symmetry_group_IT_number 15
_symmetry_cell_setting 'monoclinic'
loop_
_space_group_symop_operation_xyz
x,y,z
-x,y,1/2-z
-x,-y,-z
x,-y,1/2+z
1/2+x,1/2+y,z
1/2-x,1/2+y,1/2-z
1/2-x,1/2-y,-z
1/2+x,1/2-y,1/2+z
loop_
_atom_site_type_symbol
_atom_site_label
_atom_site_fract_x
_atom_site_fract_y
_atom_site_fract_z
Si Si1 0.000000 0.001723 0.250000
Si Si2 0.580198 0.124236 0.240514
Si Si3 0.254726 0.141514 0.690291
Si Si4 0.139974 0.028876 0.768518
Si Si5 0.798185 0.586849 0.318567
Si Si6 0.890951 0.150049 0.976128
Si Si7 0.534040 0.693325 0.000436
Si Si8 0.500000 0.905618 0.250000
O O1 0.010968 0.097258 0.368663
O O2 0.949626 0.917418 0.368551
O O3 0.635076 0.112308 0.265220
O O4 0.603288 0.197740 0.071443
O O5 0.533075 0.224068 0.360750
O O6 0.545648 0.993168 0.266775
O O7 0.194760 0.077212 0.767848
O O8 0.238660 0.298583 0.711759
O O9 0.280841 0.105222 0.504284
O O10 0.286453 0.057589 0.768214
O O11 0.143310 0.073593 0.602046
O O12 0.089240 0.110561 0.902116
O O13 0.129986 0.882354 0.841206
O O14 0.536176 0.810832 0.106495
#
# Coordination Sequence:
#
# PCOD9271963 Si02
#       8
#     4   8   8   8   8   8   8   4
#     4   9  19  34  60  90 123 163 212 264 330 389
#     4  11  23  40  62  95 131 173 218 276 326 411
#     4  11  24  46  71  99 137 180 228 299 345 409
#     4  10  20  39  66  88 128 167 219 272 337 387
#     4  11  26  45  73 101 140 177 238 287 355 411
#     4  10  20  36  62  94 125 166 212 273 325 401
#     4   9  20  39  56  88 125 169 212 269 317 401
#     4  11  23  38  66  88 137 179 218 262 342 395
#
# _framework density 23.822123000000001
#
# number of rings (size 3 to 8) (size 9 to 14) (size 15 to 20)
#    0.000    1.714    2.857    1.714    4.000    6.857 
#    0.000    5.714    0.000    0.000    0.000    0.000 
#    0.000    0.000    0.000    0.000    0.000    0.000 
#
# Total GULP energy -155929.348104 kJ/mol
# GULP energy per Si atom -5568.905289 kJ/mol
# Density = 2.376790 g / cm^3
# Si number density = 23.822123 Si / 1000 Ang^3
#
#
#
# Elastic Constant Matrix: (Units=GPa)
#
#
# Indices 1 2 3 4 5 6 
#
# 1 88.0490 41.7987 11.8281 0.0000 -0.4723 0.0000
# 2 41.7987 75.3074 14.9321 0.0000 0.1525 0.0000
# 3 11.8281 14.9321 71.2639 0.0000 -2.5435 0.0000
# 4 0.0000 0.0000 0.0000 55.2808 0.0000 -11.6069
# 5 -0.4723 0.1525 -2.5435 0.0000 13.6392 0.0000
# 6 0.0000 0.0000 0.0000 -11.6069 0.0000 78.3609
#
#
#
# Elastic Compliance Matrix: (Units=1/GPa)
#
#
# Indices 1 2 3 4 5 6 
#
# 1 0.015467 -0.008431 -0.000783 0.000000 0.000484 0.000000
# 2 -0.008431 0.018456 -0.002502 0.000000 -0.000965 0.000000
# 3 -0.000783 -0.002502 0.014785 0.000000 0.002758 0.000000
# 4 0.000000 0.000000 0.000000 0.018670 0.000000 0.002765
# 5 0.000484 -0.000965 0.002758 0.000000 0.073860 0.000000
# 6 0.000000 0.000000 0.000000 0.002765 0.000000 0.013171
#
#
# Mechanical properties :
#
#
# Convention : Reuss Voigt Hill
#
# Bulk Modulus (GPa) = 39.56326 41.30422 40.43374
# Shear Modulus (GPa) = 26.84300 40.52695 33.68497
#
# Velocity S-wave (km/s) = 3.36044 4.12907 3.76443
# Velocity P-wave (km/s) = 5.63033 6.33313 5.99204
#
# Compressibility (1/GPa) = 0.02527597
#
# Stress axis : x y z
#
# Youngs Moduli (GPa) = 64.65220 54.18169 67.63542
#
# Poissons Ratio (x) = 0.45679 0.05299
# Poissons Ratio (y) = 0.54506 0.16925
# Poissons Ratio (z) = 0.05065 0.13558
#
# Static dielectric constant tensor:
#      x y z
#    x 2.017370 0.000000 0.096470 
#    y 0.000000 2.041870 0.000000 
#    z 0.096470 0.000000 2.031280 
# 
# From -- ./inp_files/125855.got.cif
#   From: 2010.05.17/outbox.cif.g08.bks.cpg/sg15_63_cif.got.tgz:125855.got - 2010.06.03 18:47:42.
