data_PCOD9271664
_publ_section_title
;
Structure prediction by ZEFSAII (Michael W. Deem and Ramdas Pophale) SiO2 
 PCOD9271664
Probable space group: C 2/C
;
_chemical_formula_sum "Si O2"
_cell_formula_units_Z 48
_cell_length_a 18.631217
_cell_length_b 11.857045
_cell_length_c 10.512682
_cell_angle_alpha 90.000000
_cell_angle_beta 126.235409
_cell_angle_gamma 90.000000
_cell_volume 1873.211573
_symmetry_space_group_name_H-M "C 2/C"
_symmetry_group_IT_number 15
_symmetry_cell_setting 'monoclinic'
loop_
_space_group_symop_operation_xyz
x,y,z
-x,y,1/2-z
-x,-y,-z
x,-y,1/2+z
1/2+x,1/2+y,z
1/2-x,1/2+y,1/2-z
1/2-x,1/2-y,-z
1/2+x,1/2-y,1/2+z
loop_
_atom_site_type_symbol
_atom_site_label
_atom_site_fract_x
_atom_site_fract_y
_atom_site_fract_z
Si Si1 0.075708 0.873696 0.415749
Si Si2 0.646832 0.735862 0.756342
Si Si3 0.654851 0.200845 0.638542
Si Si4 0.435403 0.621269 0.073876
Si Si5 0.099546 0.547863 0.364196
Si Si6 0.763371 0.618778 0.541708
O O1 0.150155 0.846605 0.385141
O O2 0.110326 0.823414 0.585089
O O3 0.000000 0.813843 0.250000
O O4 0.032753 0.992791 0.405942
O O5 0.744544 0.723501 0.799291
O O6 0.583091 0.691369 0.574216
O O7 0.627060 0.864588 0.779327
O O8 0.596282 0.133632 0.478257
O O9 0.663824 0.124952 0.770112
O O10 0.500000 0.674534 0.250000
O O11 0.336284 0.588370 0.024011
O O12 0.181625 0.464753 0.489129
O O13 0.000000 0.498073 0.250000
O O14 0.750000 0.750000 0.500000
#
# Coordination Sequence:
#
# PCOD9271664 Si02
#       6
#     8   8   8   8   8   8
#     4  10  20  36  60  91 125 169 217 265 326 389
#     4  10  20  38  64  95 133 178 228 274 330 401
#     4  10  21  39  66  94 131 175 224 279 330 397
#     4  10  23  39  64  98 133 173 220 279 336 392
#     4  11  24  44  70  98 134 183 227 275 343 414
#     4  11  26  43  64  94 128 169 221 285 346 403
#
# _framework density 25.624441000000001
#
# number of rings (size 3 to 8) (size 9 to 14) (size 15 to 20)
#    0.000    1.667    0.000    6.000    0.000   13.333 
#    0.000    1.667    0.000    1.000    0.000    0.000 
#    0.000    0.000    0.000    0.000    0.000    0.000 
#
# Total GULP energy -133677.465019 kJ/mol
# GULP energy per Si atom -5569.894376 kJ/mol
# Density = 2.556612 g / cm^3
# Si number density = 25.624441 Si / 1000 Ang^3
#
#
#
# Elastic Constant Matrix: (Units=GPa)
#
#
# Indices 1 2 3 4 5 6 
#
# 1 59.2534 2.1418 -7.9180 0.0000 20.3154 0.0000
# 2 2.1418 73.9803 4.2704 0.0000 -1.2337 0.0000
# 3 -7.9180 4.2704 111.9723 0.0000 12.5911 0.0000
# 4 0.0000 0.0000 0.0000 30.4485 0.0000 20.5504
# 5 20.3154 -1.2337 12.5911 0.0000 34.8165 0.0000
# 6 0.0000 0.0000 0.0000 20.5504 0.0000 17.0755
#
#
#
# Elastic Compliance Matrix: (Units=1/GPa)
#
#
# Indices 1 2 3 4 5 6 
#
# 1 0.022192 -0.001063 0.003200 0.000000 -0.014144 0.000000
# 2 -0.001063 0.013614 -0.000749 0.000000 0.001374 0.000000
# 3 0.003200 -0.000749 0.009797 0.000000 -0.005437 0.000000
# 4 0.000000 0.000000 0.000000 0.174950 0.000000 -0.210553
# 5 -0.014144 0.001374 -0.005437 0.000000 0.038990 0.000000
# 6 0.000000 0.000000 0.000000 -0.210553 0.000000 0.311964
#
#
# Mechanical properties :
#
#
# Convention : Reuss Voigt Hill
#
# Bulk Modulus (GPa) = 20.66968 26.91048 23.79008
# Shear Modulus (GPa) = 8.54910 32.91554 20.73232
#
# Velocity S-wave (km/s) = 1.82854 3.58793 2.84753
# Velocity P-wave (km/s) = 3.54146 5.26204 4.48503
#
# Compressibility (1/GPa) = 0.04838004
#
# Stress axis : x y z
#
# Youngs Moduli (GPa) = 45.06091 73.45368 102.07186
#
# Poissons Ratio (x) = 0.07809 -0.32666
# Poissons Ratio (y) = 0.04790 0.07643
# Poissons Ratio (z) = -0.14421 0.05500
#
# Static dielectric constant tensor:
#      x y z
#    x 2.340270 0.000000 -0.166660 
#    y 0.000000 2.097060 0.000000 
#    z -0.166660 0.000000 1.937500 
# 
# From -- ./inp_files/111820.got.cif
#   From: 2010.05.17/outbox.cif.g08.bks.cpg/sg15_56_cif.got.tgz:111820.got - 2010.06.03 18:47:42.
