data_PCOD9271115
_publ_section_title
;
Structure prediction by ZEFSAII (Michael W. Deem and Ramdas Pophale) SiO2 
 PCOD9271115
Probable space group: C 2/C
;
_chemical_formula_sum "Si O2"
_cell_formula_units_Z 40
_cell_length_a 12.771033
_cell_length_b 7.313431
_cell_length_c 21.007674
_cell_angle_alpha 90.000000
_cell_angle_beta 131.808029
_cell_angle_gamma 90.000000
_cell_volume 1462.528740
_symmetry_space_group_name_H-M "C 2/C"
_symmetry_group_IT_number 15
_symmetry_cell_setting 'monoclinic'
loop_
_space_group_symop_operation_xyz
x,y,z
-x,y,1/2-z
-x,-y,-z
x,-y,1/2+z
1/2+x,1/2+y,z
1/2-x,1/2+y,1/2-z
1/2-x,1/2-y,-z
1/2+x,1/2-y,1/2+z
loop_
_atom_site_type_symbol
_atom_site_label
_atom_site_fract_x
_atom_site_fract_y
_atom_site_fract_z
Si Si1 0.460303 0.277852 0.949938
Si Si2 0.195332 0.349375 0.898988
Si Si3 0.899453 0.675099 0.283768
Si Si4 0.793154 0.598630 0.369076
Si Si5 0.067456 0.979138 0.868792
O O1 0.358692 0.396744 0.955846
O O2 0.514517 0.365342 0.906651
O O3 0.356088 0.107233 0.892178
O O4 0.588768 0.206134 0.043575
O O5 0.151258 0.377318 0.806123
O O6 0.046136 0.423264 0.866516
O O7 0.186378 0.141968 0.926119
O O8 0.789723 0.664595 0.295474
O O9 0.944675 0.887412 0.295694
O O10 0.648453 0.632442 0.347782
#
# Coordination Sequence:
#
# PCOD9271115 Si02
#       5
#     8   8   8   8   8
#     4  10  20  36  57  85 115 143 184 232 278 329
#     4   8  19  37  57  77 110 149 183 231 272 322
#     4   9  19  38  58  75 116 149 183 231 276 323
#     4  10  21  37  56  86 115 143 183 234 275 330
#     4   9  19  38  57  78 111 145 181 229 275 327
#
# _framework density 27.349889999999998
#
# number of rings (size 3 to 8) (size 9 to 14) (size 15 to 20)
#    1.200    1.600    0.000    0.600    0.000    6.400 
#    3.600    0.000    8.800    0.000    0.000    0.000 
#    0.000    0.000    0.000    0.000    0.000    0.000 
#
# Total GULP energy -111530.866523 kJ/mol
# GULP energy per Si atom -5576.543326 kJ/mol
# Density = 2.728764 g / cm^3
# Si number density = 27.349890 Si / 1000 Ang^3
#
#
#
# Elastic Constant Matrix: (Units=GPa)
#
#
# Indices 1 2 3 4 5 6 
#
# 1 261.3123 43.9490 54.7295 0.0000 -33.5501 0.0000
# 2 43.9490 59.0693 31.0521 0.0000 -10.1725 0.0000
# 3 54.7295 31.0521 53.1593 0.0000 -3.6934 0.0000
# 4 0.0000 0.0000 0.0000 14.1371 0.0000 -18.1968
# 5 -33.5501 -10.1725 -3.6934 0.0000 55.6398 0.0000
# 6 0.0000 0.0000 0.0000 -18.1968 0.0000 37.4615
#
#
#
# Elastic Compliance Matrix: (Units=1/GPa)
#
#
# Indices 1 2 3 4 5 6 
#
# 1 0.005333 -0.001029 -0.004701 0.000000 0.002716 0.000000
# 2 -0.001029 0.025343 -0.013528 0.000000 0.003115 0.000000
# 3 -0.004701 -0.013528 0.031329 0.000000 -0.003228 0.000000
# 4 0.000000 0.000000 0.000000 0.188747 0.000000 0.091683
# 5 0.002716 0.003115 -0.003228 0.000000 0.019965 0.000000
# 6 0.000000 0.000000 0.000000 0.091683 0.000000 0.071229
#
#
# Mechanical properties :
#
#
# Convention : Reuss Voigt Hill
#
# Bulk Modulus (GPa) = 42.57230 70.33357 56.45294
# Shear Modulus (GPa) = 12.87694 37.70169 25.28932
#
# Velocity S-wave (km/s) = 2.17220 3.71684 3.04412
# Velocity P-wave (km/s) = 4.67877 6.64770 5.74816
#
# Compressibility (1/GPa) = 0.02348945
#
# Stress axis : x y z
#
# Youngs Moduli (GPa) = 187.50700 39.45910 31.91960
#
# Poissons Ratio (x) = 0.04061 0.15005
# Poissons Ratio (y) = 0.19297 0.43179
# Poissons Ratio (z) = 0.88144 0.53379
#
# Static dielectric constant tensor:
#      x y z
#    x 2.172390 0.000000 0.040620 
#    y 0.000000 2.279110 0.000000 
#    z 0.040620 0.000000 2.244040 
# 
# From -- ./inp_files/267416.got.cif
#   From: 2010.05.17/outbox.cif.g08.bks.cpg/sg15_134_cif.got.tgz:267416.got - 2010.06.03 18:47:42.
