data_PCOD9271727
_publ_section_title
;
Structure prediction by ZEFSAII (Michael W. Deem and Ramdas Pophale) SiO2 
 PCOD9271727
Probable space group: C 2/C
;
_chemical_formula_sum "Si O2"
_cell_formula_units_Z 48
_cell_length_a 18.949381
_cell_length_b 9.280956
_cell_length_c 31.353334
_cell_angle_alpha 90.000000
_cell_angle_beta 24.113464
_cell_angle_gamma 90.000000
_cell_volume 2252.741318
_symmetry_space_group_name_H-M "C 2/C"
_symmetry_group_IT_number 15
_symmetry_cell_setting 'monoclinic'
loop_
_space_group_symop_operation_xyz
x,y,z
-x,y,1/2-z
-x,-y,-z
x,-y,1/2+z
1/2+x,1/2+y,z
1/2-x,1/2+y,1/2-z
1/2-x,1/2-y,-z
1/2+x,1/2-y,1/2+z
loop_
_atom_site_type_symbol
_atom_site_label
_atom_site_fract_x
_atom_site_fract_y
_atom_site_fract_z
Si Si1 0.114037 0.183719 0.542107
Si Si2 0.867858 0.615173 0.723791
Si Si3 0.198856 0.691035 0.149211
Si Si4 0.757204 0.129601 0.531384
Si Si5 0.744696 0.204421 0.221525
Si Si6 0.808632 0.658730 0.844058
O O1 0.250000 0.250000 0.500000
O O2 0.177112 0.225247 0.459332
O O3 0.930606 0.238681 0.659420
O O4 0.128500 0.010892 0.538122
O O5 0.884668 0.717390 0.673860
O O6 0.768014 0.468335 0.768568
O O7 0.771394 0.697454 0.815997
O O8 0.055505 0.573610 0.640076
O O9 0.251918 0.741758 0.167275
O O10 0.197678 0.516097 0.152206
O O11 0.000000 0.736042 0.250000
O O12 0.750000 0.250000 0.500000
O O13 0.798724 0.195840 0.554957
O O14 0.000000 0.713133 0.750000
#
# Coordination Sequence:
#
# PCOD9271727 Si02
#       6
#     8   8   8   8   8   8
#     4  11  19  37  63  84 108 152 199 231 276 346
#     4  10  21  38  57  82 116 151 187 237 290 338
#     4   9  16  33  59  83 106 147 199 231 269 341
#     4  10  20  36  61  85 110 143 198 242 278 337
#     4  11  22  38  59  84 118 150 190 238 291 338
#     4   7  14  33  56  74 101 149 189 223 266 336
#
# _framework density 21.307373999999999
#
# number of rings (size 3 to 8) (size 9 to 14) (size 15 to 20)
#    0.000    2.333    3.333    2.000    2.333    0.000 
#    3.000    5.000    3.667    0.000    0.000    0.000 
#    0.000    0.000    0.000    0.000    0.000    0.000 
#
# Total GULP energy -133781.518226 kJ/mol
# GULP energy per Si atom -5574.229926 kJ/mol
# Density = 2.125888 g / cm^3
# Si number density = 21.307374 Si / 1000 Ang^3
#
#
#
# Elastic Constant Matrix: (Units=GPa)
#
#
# Indices 1 2 3 4 5 6 
#
# 1 163.1709 41.2861 50.0658 0.0005 46.1001 -0.0064
# 2 41.2861 49.9143 19.9202 -0.0007 24.2572 -0.0035
# 3 50.0658 19.9202 96.7106 -0.0121 26.5731 -0.0031
# 4 0.0005 -0.0007 -0.0121 24.4759 -0.0016 4.6758
# 5 46.1001 24.2572 26.5731 -0.0016 53.3638 0.0000
# 6 -0.0064 -0.0035 -0.0031 4.6758 0.0000 34.8105
#
#
#
# Elastic Compliance Matrix: (Units=1/GPa)
#
#
# Indices 1 2 3 4 5 6 
#
# 1 0.009412 -0.004387 -0.002644 -0.000002 -0.004819 0.000001
# 2 -0.004387 0.028256 -0.001229 -0.000001 -0.008442 0.000002
# 3 -0.002644 -0.001229 0.012953 0.000006 -0.003607 0.000000
# 4 -0.000002 -0.000001 0.000006 0.041933 0.000000 -0.005632
# 5 -0.004819 -0.008442 -0.003607 0.000000 0.028536 -0.000002
# 6 0.000001 0.000002 0.000000 -0.005632 -0.000002 0.029484
#
#
# Mechanical properties :
#
#
# Convention : Reuss Voigt Hill
#
# Bulk Modulus (GPa) = 29.32584 59.14889 44.23736
# Shear Modulus (GPa) = 28.01711 35.76496 31.89103
#
# Velocity S-wave (km/s) = 3.63009 4.10143 3.87294
# Velocity P-wave (km/s) = 5.60029 7.08865 6.38797
#
# Compressibility (1/GPa) = 0.03409962
#
# Stress axis : x y z
#
# Youngs Moduli (GPa) = 106.25168 35.39010 77.19984
#
# Poissons Ratio (x) = 0.15526 0.20414
# Poissons Ratio (y) = 0.46615 0.09491
# Poissons Ratio (z) = 0.28097 0.04351
#
# Static dielectric constant tensor:
#      x y z
#    x 1.838710 0.000000 -0.020580 
#    y 0.000000 1.728650 0.000000 
#    z -0.020580 0.000000 1.909340 
# 
# From -- ./inp_files/315617.got.cif
#   From: 2010.05.17/outbox.cif.g08.bks.cpg/sg15_158_cif.got.tgz:315617.got - 2010.06.03 18:47:42.
