data_PCOD9271449
_publ_section_title
;
Structure prediction by ZEFSAII (Michael W. Deem and Ramdas Pophale) SiO2 
 PCOD9271449
Probable space group: C 2/C
;
_chemical_formula_sum "Si O2"
_cell_formula_units_Z 44
_cell_length_a 15.925848
_cell_length_b 6.858328
_cell_length_c 19.555636
_cell_angle_alpha 90.000000
_cell_angle_beta 115.237160
_cell_angle_gamma 90.000000
_cell_volume 1932.082580
_symmetry_space_group_name_H-M "C 2/C"
_symmetry_group_IT_number 15
_symmetry_cell_setting 'monoclinic'
loop_
_space_group_symop_operation_xyz
x,y,z
-x,y,1/2-z
-x,-y,-z
x,-y,1/2+z
1/2+x,1/2+y,z
1/2-x,1/2+y,1/2-z
1/2-x,1/2-y,-z
1/2+x,1/2-y,1/2+z
loop_
_atom_site_type_symbol
_atom_site_label
_atom_site_fract_x
_atom_site_fract_y
_atom_site_fract_z
Si Si1 0.500000 0.238124 0.750000
Si Si2 0.852575 0.522181 0.781641
Si Si3 0.098242 0.166266 0.420728
Si Si4 0.678824 0.326019 0.143342
Si Si5 0.406602 0.714986 0.427428
Si Si6 0.790485 0.521749 0.468295
O O1 0.457124 0.351665 0.670225
O O2 0.421271 0.094763 0.748485
O O3 0.753126 0.555159 0.713731
O O4 0.872752 0.309993 0.819285
O O5 0.865910 0.673942 0.847494
O O6 0.158368 0.363824 0.452622
O O7 0.180977 0.003800 0.449367
O O8 0.016850 0.200825 0.449349
O O9 0.625383 0.493213 0.085331
O O10 0.712678 0.167555 0.099197
O O11 0.357793 0.842627 0.470168
#
# Coordination Sequence:
#
# PCOD9271449 Si02
#       6
#     4   8   8   8   8   8
#     4  10  20  40  62  88 124 158 208 264 312 368
#     4  10  20  36  59  88 118 162 203 255 312 365
#     4  10  21  40  65  92 124 162 210 259 312 381
#     4  11  20  38  60  87 123 161 210 251 309 377
#     4  10  22  38  62  88 126 165 204 259 311 378
#     4  10  22  41  63  89 126 168 201 255 326 373
#
# _framework density 22.773354000000001
#
# number of rings (size 3 to 8) (size 9 to 14) (size 15 to 20)
#    0.000    1.818    3.636    0.545    0.000    0.727 
#    3.273    4.545    0.000    0.000    0.000    0.000 
#    0.000    0.000    0.000    0.000    0.000    0.000 
#
# Total GULP energy -122538.190249 kJ/mol
# GULP energy per Si atom -5569.917739 kJ/mol
# Density = 2.272152 g / cm^3
# Si number density = 22.773354 Si / 1000 Ang^3
#
#
#
# Elastic Constant Matrix: (Units=GPa)
#
#
# Indices 1 2 3 4 5 6 
#
# 1 131.8531 55.8958 18.4747 0.0000 16.9137 0.0000
# 2 55.8958 85.6489 17.4967 0.0000 -5.4699 0.0000
# 3 18.4747 17.4967 101.1327 0.0000 19.2255 0.0000
# 4 0.0000 0.0000 0.0000 21.5332 0.0000 -5.7558
# 5 16.9137 -5.4699 19.2255 0.0000 28.4574 0.0000
# 6 0.0000 0.0000 0.0000 -5.7558 0.0000 -26.9301
#
#
#
# Elastic Compliance Matrix: (Units=1/GPa)
#
#
# Indices 1 2 3 4 5 6 
#
# 1 0.012544 -0.009065 0.001176 0.000000 -0.009993 0.000000
# 2 -0.009065 0.019129 -0.003874 0.000000 0.011682 0.000000
# 3 0.001176 -0.003874 0.012182 0.000000 -0.009674 0.000000
# 4 0.000000 0.000000 0.000000 0.043930 0.000000 -0.009389
# 5 -0.009993 0.011682 -0.009674 0.000000 0.049861 0.000000
# 6 0.000000 0.000000 0.000000 -0.009389 0.000000 -0.035126
#
#
# Mechanical properties :
#
#
# Convention : Reuss Voigt Hill
#
# Bulk Modulus (GPa) = 49.18854 55.81877 52.50365
# Shear Modulus (GPa) = 37.64428 19.72994 28.68711
#
# Velocity S-wave (km/s) = 4.07012 2.94659 3.55305
# Velocity P-wave (km/s) = 6.61316 6.01168 6.31958
#
# Compressibility (1/GPa) = 0.02032994
#
# Stress axis : x y z
#
# Youngs Moduli (GPa) = 79.71901 52.27657 82.08523
#
# Poissons Ratio (x) = 0.47388 -0.09657
# Poissons Ratio (y) = 0.72265 0.31802
# Poissons Ratio (z) = -0.09378 0.20253
#
# Static dielectric constant tensor:
#      x y z
#    x 2.200280 0.000000 0.006770 
#    y 0.000000 1.835430 0.000000 
#    z 0.006770 0.000000 1.883730 
# 
# From -- ./inp_files/246529.got.cif
#   From: 2010.05.17/outbox.cif.g08.bks.cpg/sg15_124_cif.got.tgz:246529.got - 2010.06.03 18:47:42.
