data_PCOD9271753
_publ_section_title
;
Structure prediction by ZEFSAII (Michael W. Deem and Ramdas Pophale) SiO2 
 PCOD9271753
Probable space group: C 2/C
;
_chemical_formula_sum "Si O2"
_cell_formula_units_Z 56
_cell_length_a 12.149955
_cell_length_b 26.637368
_cell_length_c 10.308414
_cell_angle_alpha 90.000000
_cell_angle_beta 50.833438
_cell_angle_gamma 90.000000
_cell_volume 2586.634206
_symmetry_space_group_name_H-M "C 2/C"
_symmetry_group_IT_number 15
_symmetry_cell_setting 'monoclinic'
loop_
_space_group_symop_operation_xyz
x,y,z
-x,y,1/2-z
-x,-y,-z
x,-y,1/2+z
1/2+x,1/2+y,z
1/2-x,1/2+y,1/2-z
1/2-x,1/2-y,-z
1/2+x,1/2-y,1/2+z
loop_
_atom_site_type_symbol
_atom_site_label
_atom_site_fract_x
_atom_site_fract_y
_atom_site_fract_z
Si Si1 0.348519 0.557849 0.598017
Si Si2 0.416406 0.815566 0.032849
Si Si3 0.293860 0.147553 0.166710
Si Si4 0.339765 0.377526 0.368377
Si Si5 0.772658 0.344970 0.394384
Si Si6 0.983467 0.210989 0.106434
Si Si7 0.179940 0.055339 0.360100
O O1 0.335564 0.585121 0.747342
O O2 0.276172 0.597624 0.558176
O O3 0.514975 0.554108 0.438889
O O4 0.282385 0.502705 0.648937
O O5 0.280217 0.834937 0.054749
O O6 0.386172 0.840073 0.197427
O O7 0.437345 0.757573 0.053084
O O8 0.564742 0.835335 0.865628
O O9 0.141404 0.170325 0.318997
O O10 0.275847 0.087963 0.192748
O O11 0.313860 0.170266 0.007663
O O12 0.500000 0.356298 0.250000
O O13 0.315863 0.412933 0.510027
O O14 0.635170 0.312276 0.455383
O O15 0.000000 0.222645 0.250000
#
# Coordination Sequence:
#
# PCOD9271753 Si02
#       7
#     8   8   8   8   8   8   8
#     4   9  19  36  63  88 114 163 196 251 303 359
#     4  11  22  38  62  85 129 166 193 251 320 354
#     4  11  22  35  61  96 123 154 204 264 300 362
#     4   9  21  41  60  85 118 163 206 247 298 377
#     4  10  20  37  60  92 127 156 203 248 306 370
#     4  10  20  37  62  94 123 162 208 254 300 363
#     4  10  20  36  61  88 122 150 208 252 298 357
#
# _framework density 21.649754000000001
#
# number of rings (size 3 to 8) (size 9 to 14) (size 15 to 20)
#    0.000    2.000    1.429    2.143    2.000    2.857 
#    0.000    3.571    6.286    0.000    0.000    0.000 
#    0.000    0.000    0.000    0.000    0.000    0.000 
#
# Total GULP energy -156302.017873 kJ/mol
# GULP energy per Si atom -5582.214924 kJ/mol
# Density = 2.160048 g / cm^3
# Si number density = 21.649754 Si / 1000 Ang^3
#
#
#
# Elastic Constant Matrix: (Units=GPa)
#
#
# Indices 1 2 3 4 5 6 
#
# 1 95.9708 40.6078 24.1278 0.0000 -24.0722 0.0000
# 2 40.6078 129.7827 -6.0148 0.0000 -23.4593 0.0000
# 3 24.1278 -6.0148 34.3283 0.0000 -9.3090 0.0000
# 4 0.0000 0.0000 0.0000 -45.2325 0.0000 128.4165
# 5 -24.0722 -23.4593 -9.3090 0.0000 33.9608 0.0000
# 6 0.0000 0.0000 0.0000 128.4165 0.0000 -225.3286
#
#
#
# Elastic Compliance Matrix: (Units=1/GPa)
#
#
# Indices 1 2 3 4 5 6 
#
# 1 0.016533 -0.004691 -0.010958 0.000000 0.005475 0.000000
# 2 -0.004691 0.010530 0.006712 0.000000 0.005789 0.000000
# 3 -0.010958 0.006712 0.040143 0.000000 0.007873 0.000000
# 4 0.000000 0.000000 0.000000 0.035774 0.000000 0.020388
# 5 0.005475 0.005789 0.007873 0.000000 0.039483 0.000000
# 6 0.000000 0.000000 0.000000 0.020388 0.000000 0.007181
#
#
# Mechanical properties :
#
#
# Convention : Reuss Voigt Hill
#
# Bulk Modulus (GPa) = 20.27031 41.94705 31.10868
# Shear Modulus (GPa) = 27.17940 -33.89598 -3.35829
#
# Velocity S-wave (km/s) = 3.54703 -3.96112 -1.24682
# Velocity P-wave (km/s) = 5.11452 1.22610 3.51106
#
# Compressibility (1/GPa) = 0.04933323
#
# Stress axis : x y z
#
# Youngs Moduli (GPa) = 60.48573 94.96243 24.91085
#
# Poissons Ratio (x) = 0.44549 0.27296
# Poissons Ratio (y) = 0.28375 -0.16720
# Poissons Ratio (z) = 0.66277 -0.63740
#
# Static dielectric constant tensor:
#      x y z
#    x 1.830100 0.000000 0.043600 
#    y 0.000000 1.769660 0.000000 
#    z 0.043600 0.000000 1.819190 
# 
# From -- ./inp_files/92011.got.cif
#   From: 2010.05.17/outbox.cif.g08.bks.cpg/sg15_47_cif.got.tgz:92011.got - 2010.06.03 18:47:42.
