data_PCOD9271180
_publ_section_title
;
Structure prediction by ZEFSAII (Michael W. Deem and Ramdas Pophale) SiO2 
 PCOD9271180
Probable space group: C 2/C
;
_chemical_formula_sum "Si O2"
_cell_formula_units_Z 56
_cell_length_a 15.908770
_cell_length_b 17.816652
_cell_length_c 12.448240
_cell_angle_alpha 90.000000
_cell_angle_beta 119.369009
_cell_angle_gamma 90.000000
_cell_volume 3074.876553
_symmetry_space_group_name_H-M "C 2/C"
_symmetry_group_IT_number 15
_symmetry_cell_setting 'monoclinic'
loop_
_space_group_symop_operation_xyz
x,y,z
-x,y,1/2-z
-x,-y,-z
x,-y,1/2+z
1/2+x,1/2+y,z
1/2-x,1/2+y,1/2-z
1/2-x,1/2-y,-z
1/2+x,1/2-y,1/2+z
loop_
_atom_site_type_symbol
_atom_site_label
_atom_site_fract_x
_atom_site_fract_y
_atom_site_fract_z
Si Si1 0.634603 0.706314 0.627727
Si Si2 0.591645 0.288312 0.551127
Si Si3 0.845352 0.368777 0.948317
Si Si4 0.753653 0.408448 0.669561
Si Si5 0.886122 0.285793 0.662186
Si Si6 0.770857 0.422873 0.129826
Si Si7 0.048397 0.650219 0.666591
O O1 0.521490 0.693499 0.533308
O O2 0.667366 0.779427 0.580053
O O3 0.643968 0.731794 0.757741
O O4 0.695348 0.634377 0.634419
O O5 0.656598 0.359555 0.618744
O O6 0.626233 0.253529 0.459660
O O7 0.596956 0.222675 0.642984
O O8 0.805452 0.408969 0.817882
O O9 0.792819 0.397380 0.021857
O O10 0.960615 0.377682 0.037196
O O11 0.824565 0.361041 0.636652
O O12 0.738054 0.491718 0.617560
O O13 0.000000 0.301856 0.750000
O O14 0.871419 0.411170 0.256640
O O15 0.000000 0.672219 0.750000
#
# Coordination Sequence:
#
# PCOD9271180 Si02
#       7
#     8   8   8   8   8   8   8
#     4   9  19  37  59  79 104 142 186 222 255 309
#     4  10  20  36  58  79 106 144 185 219 256 315
#     4   9  20  38  55  78 107 140 182 221 260 316
#     4  11  23  34  53  84 113 141 172 217 274 322
#     4   9  19  36  57  79 105 142 183 222 260 310
#     4  11  22  35  55  81 112 141 171 222 277 317
#     4   9  19  36  59  80 101 141 185 221 263 313
#
# _framework density 18.212112999999999
#
# number of rings (size 3 to 8) (size 9 to 14) (size 15 to 20)
#    0.000    2.286    0.000    3.429    0.000    7.429 
#    0.000    0.000    0.000    2.571    0.000    0.000 
#    0.000    0.000    0.000    0.000    0.000    0.000 
#
# Total GULP energy -156332.812086 kJ/mol
# GULP energy per Si atom -5583.314717 kJ/mol
# Density = 1.817066 g / cm^3
# Si number density = 18.212113 Si / 1000 Ang^3
#
#
#
# Elastic Constant Matrix: (Units=GPa)
#
#
# Indices 1 2 3 4 5 6 
#
# 1 68.8444 50.7743 19.2763 0.0000 -6.9226 0.0000
# 2 50.7743 91.6160 30.1933 0.0000 -8.2168 0.0000
# 3 19.2763 30.1933 72.5150 0.0000 -3.9107 0.0000
# 4 0.0000 0.0000 0.0000 10.0796 0.0000 1.2155
# 5 -6.9226 -8.2168 -3.9107 0.0000 10.4648 0.0000
# 6 0.0000 0.0000 0.0000 1.2155 0.0000 7.4695
#
#
#
# Elastic Compliance Matrix: (Units=1/GPa)
#
#
# Indices 1 2 3 4 5 6 
#
# 1 0.024971 -0.013007 -0.000900 0.000000 0.005969 0.000000
# 2 -0.013007 0.020142 -0.004634 0.000000 0.005480 0.000000
# 3 -0.000900 -0.004634 0.016054 0.000000 0.001766 0.000000
# 4 0.000000 0.000000 0.000000 0.101196 0.000000 -0.016468
# 5 0.005969 0.005480 0.001766 0.000000 0.104470 0.000000
# 6 0.000000 0.000000 0.000000 -0.016468 0.000000 0.136558
#
#
# Mechanical properties :
#
#
# Convention : Reuss Voigt Hill
#
# Bulk Modulus (GPa) = 41.51869 48.16256 44.84063
# Shear Modulus (GPa) = 11.14824 14.45153 12.79989
#
# Velocity S-wave (km/s) = 2.47682 2.81999 2.65396
# Velocity P-wave (km/s) = 5.57012 6.09146 5.83662
#
# Compressibility (1/GPa) = 0.02408554
#
# Stress axis : x y z
#
# Youngs Moduli (GPa) = 40.04698 49.64703 62.28953
#
# Poissons Ratio (x) = 0.64576 0.05607
# Poissons Ratio (y) = 0.52089 0.28862
# Poissons Ratio (z) = 0.03605 0.23004
#
# Static dielectric constant tensor:
#      x y z
#    x 1.630780 0.000000 0.016780 
#    y 0.000000 1.579980 0.000000 
#    z 0.016780 0.000000 1.646780 
# 
# From -- ./inp_files/98693.got.cif
#   From: 2010.05.17/outbox.cif.g08.bks.cpg/sg15_50_cif.got.tgz:98693.got - 2010.06.03 18:47:42.
