data_PCOD9271398
_publ_section_title
;
Structure prediction by ZEFSAII (Michael W. Deem and Ramdas Pophale) SiO2 
 PCOD9271398
Probable space group: C 2/C
;
_chemical_formula_sum "Si O2"
_cell_formula_units_Z 52
_cell_length_a 10.026584
_cell_length_b 27.436847
_cell_length_c 11.267481
_cell_angle_alpha 90.000000
_cell_angle_beta 59.172723
_cell_angle_gamma 90.000000
_cell_volume 2661.727566
_symmetry_space_group_name_H-M "C 2/C"
_symmetry_group_IT_number 15
_symmetry_cell_setting 'monoclinic'
loop_
_space_group_symop_operation_xyz
x,y,z
-x,y,1/2-z
-x,-y,-z
x,-y,1/2+z
1/2+x,1/2+y,z
1/2-x,1/2+y,1/2-z
1/2-x,1/2-y,-z
1/2+x,1/2-y,1/2+z
loop_
_atom_site_type_symbol
_atom_site_label
_atom_site_fract_x
_atom_site_fract_y
_atom_site_fract_z
Si Si1 0.582687 0.225829 0.089389
Si Si2 0.050346 0.609370 0.593976
Si Si3 0.500000 0.031245 0.250000
Si Si4 0.452661 0.563315 0.903755
Si Si5 0.911250 0.278000 0.418472
Si Si6 0.720449 0.532612 0.950757
Si Si7 0.860108 0.387452 0.963694
O O1 0.500000 0.242688 0.250000
O O2 0.598159 0.167069 0.092102
O O3 0.750000 0.250000 0.000000
O O4 0.500910 0.235876 0.999527
O O5 0.116500 0.663883 0.557782
O O6 0.180285 0.568447 0.511011
O O7 0.000000 0.600331 0.750000
O O8 0.893957 0.609360 0.587845
O O9 0.526807 0.069567 0.132645
O O10 0.652674 0.997720 0.184409
O O11 0.500000 0.576537 0.750000
O O12 0.598585 0.561756 0.925111
O O13 0.378018 0.508988 0.937828
O O14 0.311061 0.598817 0.001750
O O15 0.750000 0.250000 0.500000
O O16 0.000000 0.269959 0.250000
#
# Coordination Sequence:
#
# PCOD9271398 Si02
#       7
#     8   8   4   8   8   8   8
#     4  11  23  41  66  97 126 164 212 261 317 377
#     4  10  20  36  59  85 112 152 209 240 293 366
#     4  10  20  36  62  80 114 156 206 238 292 362
#     4  10  22  35  51  81 120 149 195 247 299 351
#     4  10  22  41  63  92 126 164 206 259 314 376
#     4  10  21  35  54  84 111 155 197 243 299 347
#     4  10  22  38  60  84 117 160 198 247 299 365
#
# _framework density 19.536185
#
# number of rings (size 3 to 8) (size 9 to 14) (size 15 to 20)
#    0.000    1.846    1.538    1.846    2.154    3.077 
#    0.000    0.769    0.000    0.000    0.000    0.000 
#    0.000    0.000    0.000    0.000    0.000    0.000 
#
# Total GULP energy -144846.833140 kJ/mol
# GULP energy per Si atom -5571.032044 kJ/mol
# Density = 1.949172 g / cm^3
# Si number density = 19.536185 Si / 1000 Ang^3
#
#
#
# Elastic Constant Matrix: (Units=GPa)
#
#
# Indices 1 2 3 4 5 6 
#
# 1 132.3666 49.3811 43.2239 0.0000 -8.4265 0.0000
# 2 49.3811 59.6509 22.6438 0.0000 -7.5232 0.0000
# 3 43.2239 22.6438 97.0974 0.0000 0.4000 0.0000
# 4 0.0000 0.0000 0.0000 13.3057 0.0000 -0.0971
# 5 -8.4265 -7.5232 0.4000 0.0000 26.8884 0.0000
# 6 0.0000 0.0000 0.0000 -0.0971 0.0000 16.8928
#
#
#
# Elastic Compliance Matrix: (Units=1/GPa)
#
#
# Indices 1 2 3 4 5 6 
#
# 1 0.011856 -0.008371 -0.003332 0.000000 0.001423 0.000000
# 2 -0.008371 0.025062 -0.002137 0.000000 0.004421 0.000000
# 3 -0.003332 -0.002137 0.012288 0.000000 -0.001825 0.000000
# 4 0.000000 0.000000 0.000000 0.075159 0.000000 0.000432
# 5 0.001423 0.004421 -0.001825 0.000000 0.038901 0.000000
# 6 0.000000 0.000000 0.000000 0.000432 0.000000 0.059199
#
#
# Mechanical properties :
#
#
# Convention : Reuss Voigt Hill
#
# Bulk Modulus (GPa) = 46.45023 57.73473 52.09248
# Shear Modulus (GPa) = 19.43110 23.00846 21.21978
#
# Velocity S-wave (km/s) = 3.15718 3.43554 3.29930
# Velocity P-wave (km/s) = 6.09250 6.73455 6.42155
#
# Compressibility (1/GPa) = 0.02152842
#
# Stress axis : x y z
#
# Youngs Moduli (GPa) = 84.34470 39.90036 81.38135
#
# Poissons Ratio (x) = 0.33400 0.27113
# Poissons Ratio (y) = 0.70603 0.17388
# Poissons Ratio (z) = 0.28100 0.08525
#
# Static dielectric constant tensor:
#      x y z
#    x 1.690430 0.000000 -0.000580 
#    y 0.000000 1.703600 0.000000 
#    z -0.000580 0.000000 1.740400 
# 
# From -- ./inp_files/81177.got.cif
#   From: 2010.05.17/outbox.cif.g08.bks.cpg/sg15_41_cif.got.tgz:81177.got - 2010.06.03 18:47:42.
