data_PCOD9271919
_publ_section_title
;
Structure prediction by ZEFSAII (Michael W. Deem and Ramdas Pophale) SiO2 
 PCOD9271919
Probable space group: C 2/C
;
_chemical_formula_sum "Si O2"
_cell_formula_units_Z 40
_cell_length_a 8.698392
_cell_length_b 11.385096
_cell_length_c 25.300767
_cell_angle_alpha 90.000000
_cell_angle_beta 131.439351
_cell_angle_gamma 90.000000
_cell_volume 1878.329533
_symmetry_space_group_name_H-M "C 2/C"
_symmetry_group_IT_number 15
_symmetry_cell_setting 'monoclinic'
loop_
_space_group_symop_operation_xyz
x,y,z
-x,y,1/2-z
-x,-y,-z
x,-y,1/2+z
1/2+x,1/2+y,z
1/2-x,1/2+y,1/2-z
1/2-x,1/2-y,-z
1/2+x,1/2-y,1/2+z
loop_
_atom_site_type_symbol
_atom_site_label
_atom_site_fract_x
_atom_site_fract_y
_atom_site_fract_z
Si Si1 0.364439 0.122687 0.028113
Si Si2 0.315474 0.333085 0.826475
Si Si3 0.999394 0.711626 0.163112
Si Si4 0.269521 0.239790 0.441881
Si Si5 0.439543 0.424939 0.401644
O O1 0.441603 0.114692 0.105750
O O2 0.560827 0.142241 0.035970
O O3 0.176829 0.041382 0.968279
O O4 0.250000 0.250000 0.000000
O O5 0.177714 0.328440 0.742941
O O6 0.545231 0.290875 0.868880
O O7 0.325168 0.462342 0.853878
O O8 0.197419 0.260047 0.845187
O O9 0.062581 0.826116 0.144549
O O10 0.250000 0.250000 0.500000
O O11 0.346053 0.360313 0.431565
#
# Coordination Sequence:
#
# PCOD9271919 Si02
#       5
#     8   8   8   8   8
#     4   8  17  36  59  82 117 150 184 245 292 329
#     4  11  22  37  62  87 115 163 198 231 305 360
#     4   9  21  40  56  85 123 148 193 250 287 344
#     4  10  20  36  62  91 118 154 202 244 290 358
#     4  10  22  41  61  86 123 154 193 252 297 345
#
# _framework density 21.295517
#
# number of rings (size 3 to 8) (size 9 to 14) (size 15 to 20)
#    0.000    2.800    0.000    3.600    0.000   10.400 
#    0.000   14.000    0.000    0.000    0.000    0.000 
#    0.000    0.000    0.000    0.000    0.000    0.000 
#
# Total GULP energy -111658.780559 kJ/mol
# GULP energy per Si atom -5582.939028 kJ/mol
# Density = 2.124705 g / cm^3
# Si number density = 21.295517 Si / 1000 Ang^3
#
#
#
# Elastic Constant Matrix: (Units=GPa)
#
#
# Indices 1 2 3 4 5 6 
#
# 1 154.3155 37.0775 84.5359 0.0000 -2.1869 0.0000
# 2 37.0775 40.3832 17.1331 0.0000 -0.0513 0.0000
# 3 84.5359 17.1331 152.0696 0.0000 -6.6052 0.0000
# 4 0.0000 0.0000 0.0000 24.6654 0.0000 -5.6341
# 5 -2.1869 -0.0513 -6.6052 0.0000 37.4809 0.0000
# 6 0.0000 0.0000 0.0000 -5.6341 0.0000 26.7481
#
#
#
# Elastic Compliance Matrix: (Units=1/GPa)
#
#
# Indices 1 2 3 4 5 6 
#
# 1 0.011422 -0.008179 -0.005441 0.000000 -0.000304 0.000000
# 2 -0.008179 0.031871 0.000944 0.000000 -0.000267 0.000000
# 3 -0.005441 0.000944 0.009554 0.000000 0.001367 0.000000
# 4 0.000000 0.000000 0.000000 0.042592 0.000000 0.008971
# 5 -0.000304 -0.000267 0.001367 0.000000 0.026903 0.000000
# 6 0.000000 0.000000 0.000000 0.008971 0.000000 0.039275
#
#
# Mechanical properties :
#
#
# Convention : Reuss Voigt Hill
#
# Bulk Modulus (GPa) = 36.37002 69.36237 52.86620
# Shear Modulus (GPa) = 25.49290 31.64702 28.56996
#
# Velocity S-wave (km/s) = 3.46367 3.85916 3.66675
# Velocity P-wave (km/s) = 5.75429 7.24566 6.54261
#
# Compressibility (1/GPa) = 0.02749517
#
# Stress axis : x y z
#
# Youngs Moduli (GPa) = 87.55253 31.37647 104.67182
#
# Poissons Ratio (x) = 0.25662 0.56953
# Poissons Ratio (y) = 0.71606 -0.09883
# Poissons Ratio (z) = 0.47638 -0.02962
#
# Static dielectric constant tensor:
#      x y z
#    x 1.796800 0.000000 0.021010 
#    y 0.000000 1.829730 0.000000 
#    z 0.021010 0.000000 1.780440 
# 
# From -- ./inp_files/229797.got.cif
#   From: 2010.05.17/outbox.cif.g08.bks.cpg/sg15_115_cif.got.tgz:229797.got - 2010.06.03 18:47:42.
