data_PCOD9271666
_publ_section_title
;
Structure prediction by ZEFSAII (Michael W. Deem and Ramdas Pophale) SiO2 
 PCOD9271666
Probable space group: C 2/C
;
_chemical_formula_sum "Si O2"
_cell_formula_units_Z 60
_cell_length_a 7.980738
_cell_length_b 21.045026
_cell_length_c 17.334065
_cell_angle_alpha 90.000000
_cell_angle_beta 112.877326
_cell_angle_gamma 90.000000
_cell_volume 2682.332111
_symmetry_space_group_name_H-M "C 2/C"
_symmetry_group_IT_number 15
_symmetry_cell_setting 'monoclinic'
loop_
_space_group_symop_operation_xyz
x,y,z
-x,y,1/2-z
-x,-y,-z
x,-y,1/2+z
1/2+x,1/2+y,z
1/2-x,1/2+y,1/2-z
1/2-x,1/2-y,-z
1/2+x,1/2-y,1/2+z
loop_
_atom_site_type_symbol
_atom_site_label
_atom_site_fract_x
_atom_site_fract_y
_atom_site_fract_z
Si Si1 0.623979 0.940772 0.434604
Si Si2 0.115431 0.468021 0.702966
Si Si3 0.884818 0.035457 0.850914
Si Si4 0.500000 0.619058 0.750000
Si Si5 0.005078 0.695873 0.564306
Si Si6 0.360534 0.577951 0.117826
Si Si7 0.744207 0.284168 0.887812
Si Si8 0.700080 0.257830 0.272607
O O1 0.803388 0.933296 0.412223
O O2 0.495689 0.878936 0.416301
O O3 0.706447 0.948522 0.533324
O O4 0.524432 0.001570 0.382058
O O5 0.214645 0.526714 0.763121
O O6 0.275029 0.431307 0.687561
O O7 0.000000 0.434162 0.750000
O O8 0.033646 0.075383 0.830281
O O9 0.966003 0.964554 0.871930
O O10 0.344915 0.667521 0.750307
O O11 0.942282 0.705016 0.463806
O O12 0.839210 0.723366 0.585431
O O13 0.174430 0.735643 0.629095
O O14 0.371139 0.653361 0.109364
O O15 0.731229 0.273049 0.794039
O O16 0.500000 0.229101 0.250000
#
# Coordination Sequence:
#
# PCOD9271666 Si02
#       8
#     8   8   8   4   8   8   8   8
#     4  10  22  38  63  91 122 159 207 260 313 363
#     4  10  21  36  57  88 120 161 200 245 308 367
#     4  11  20  36  60  89 122 157 206 253 303 374
#     4  10  20  36  60  92 114 152 208 260 316 358
#     4  10  21  41  65  89 123 162 214 267 309 372
#     4  11  22  39  60  89 127 163 201 254 312 382
#     4  10  23  41  62  90 122 169 213 255 316 382
#     4  10  23  38  63  94 121 163 212 264 321 371
#
# _framework density 22.368594000000002
#
# number of rings (size 3 to 8) (size 9 to 14) (size 15 to 20)
#    0.400    1.333    1.333    2.800    0.000    5.333 
#    0.000    1.333    0.000    0.000    0.000    0.000 
#    0.000    0.000    0.000    0.000    0.000    0.000 
#
# Total GULP energy -167086.973691 kJ/mol
# GULP energy per Si atom -5569.565790 kJ/mol
# Density = 2.231768 g / cm^3
# Si number density = 22.368594 Si / 1000 Ang^3
#
#
#
# Elastic Constant Matrix: (Units=GPa)
#
#
# Indices 1 2 3 4 5 6 
#
# 1 63.6387 2.8977 13.3456 0.0000 -2.9325 0.0000
# 2 2.8977 45.7494 11.1660 0.0000 2.9585 0.0000
# 3 13.3456 11.1660 80.6512 0.0000 8.6627 0.0000
# 4 0.0000 0.0000 0.0000 20.2161 0.0000 -2.7089
# 5 -2.9325 2.9585 8.6627 0.0000 33.0168 0.0000
# 6 0.0000 0.0000 0.0000 -2.7089 0.0000 18.7046
#
#
#
# Elastic Compliance Matrix: (Units=1/GPa)
#
#
# Indices 1 2 3 4 5 6 
#
# 1 0.016448 -0.000481 -0.002898 0.000000 0.002264 0.000000
# 2 -0.000481 0.022686 -0.002921 0.000000 -0.001309 0.000000
# 3 -0.002898 -0.002921 0.013668 0.000000 -0.003582 0.000000
# 4 0.000000 0.000000 0.000000 0.050444 0.000000 0.007306
# 5 0.002264 -0.001309 -0.003582 0.000000 0.031546 0.000000
# 6 0.000000 0.000000 0.000000 0.007306 0.000000 0.054521
#
#
# Mechanical properties :
#
#
# Convention : Reuss Voigt Hill
#
# Bulk Modulus (GPa) = 24.87434 27.20642 26.04038
# Shear Modulus (GPa) = 23.22203 25.22952 24.22577
#
# Velocity S-wave (km/s) = 3.22553 3.36206 3.29451
# Velocity P-wave (km/s) = 5.00164 5.22116 5.11258
#
# Compressibility (1/GPa) = 0.04020207
#
# Stress axis : x y z
#
# Youngs Moduli (GPa) = 60.79865 44.07969 73.16500
#
# Poissons Ratio (x) = 0.02120 0.21205
# Poissons Ratio (y) = 0.02923 0.21369
# Poissons Ratio (z) = 0.17621 0.12874
#
# Static dielectric constant tensor:
#      x y z
#    x 1.909540 0.000000 0.019550 
#    y 0.000000 1.801940 0.000000 
#    z 0.019550 0.000000 1.873790 
# 
# From -- ./inp_files/192575.got.cif
#   From: 2010.05.17/outbox.cif.g08.bks.cpg/sg15_97_cif.got.tgz:192575.got - 2010.06.03 18:47:42.
