data_PCOD9271138
_publ_section_title
;
Structure prediction by ZEFSAII (Michael W. Deem and Ramdas Pophale) SiO2 
 PCOD9271138
Probable space group: C 2/C
;
_chemical_formula_sum "Si O2"
_cell_formula_units_Z 56
_cell_length_a 17.911005
_cell_length_b 9.286375
_cell_length_c 17.066463
_cell_angle_alpha 90.000000
_cell_angle_beta 89.072437
_cell_angle_gamma 90.000000
_cell_volume 2838.263959
_symmetry_space_group_name_H-M "C 2/C"
_symmetry_group_IT_number 15
_symmetry_cell_setting 'monoclinic'
loop_
_space_group_symop_operation_xyz
x,y,z
-x,y,1/2-z
-x,-y,-z
x,-y,1/2+z
1/2+x,1/2+y,z
1/2-x,1/2+y,1/2-z
1/2-x,1/2-y,-z
1/2+x,1/2-y,1/2+z
loop_
_atom_site_type_symbol
_atom_site_label
_atom_site_fract_x
_atom_site_fract_y
_atom_site_fract_z
Si Si1 0.922209 0.355256 0.953097
Si Si2 0.916713 0.711749 0.741378
Si Si3 0.731322 0.140840 0.394666
Si Si4 0.069333 0.479082 0.891321
Si Si5 0.730814 0.354861 0.790851
Si Si6 0.817301 0.591311 0.878679
Si Si7 0.206140 0.833041 0.070676
O O1 0.860674 0.473641 0.928323
O O2 0.880468 0.204836 0.941683
O O3 0.995740 0.382076 0.900566
O O4 0.939476 0.396670 0.042200
O O5 0.921626 0.566545 0.689163
O O6 0.857329 0.821795 0.705124
O O7 0.880155 0.666149 0.824175
O O8 0.000000 0.768998 0.750000
O O9 0.643343 0.113731 0.406665
O O10 0.743919 0.149197 0.299721
O O11 0.770762 0.286409 0.422586
O O12 0.772632 0.999503 0.426945
O O13 0.758930 0.504559 0.825717
O O14 0.768020 0.234328 0.846469
O O15 0.250000 0.750000 0.000000
#
# Coordination Sequence:
#
# PCOD9271138 Si02
#       7
#     8   8   8   8   8   8   8
#     4  10  22  36  59  86 115 155 198 245 288 365
#     4  11  19  35  59  83 111 158 192 241 302 358
#     4  11  20  36  60  84 119 154 192 254 291 353
#     4  11  20  37  58  84 118 151 199 238 297 348
#     4  10  20  36  57  87 115 152 201 238 293 362
#     4  10  21  35  57  87 113 147 200 241 292 351
#     4  11  20  39  62  88 118 160 202 240 299 361
#
# _framework density 19.730370000000001
#
# number of rings (size 3 to 8) (size 9 to 14) (size 15 to 20)
#    0.000    1.429    5.714    0.857    0.000    0.571 
#    0.000    2.857    0.000    1.714    0.000    0.000 
#    0.000    0.000    0.000    0.000    0.000    0.000 
#
# Total GULP energy -156333.395412 kJ/mol
# GULP energy per Si atom -5583.335550 kJ/mol
# Density = 1.968546 g / cm^3
# Si number density = 19.730370 Si / 1000 Ang^3
#
#
#
# Elastic Constant Matrix: (Units=GPa)
#
#
# Indices 1 2 3 4 5 6 
#
# 1 140.0827 27.4302 -1.3473 0.0000 -20.3643 0.0000
# 2 27.4302 63.8552 -11.5260 0.0000 -8.9120 0.0000
# 3 -1.3473 -11.5260 50.7082 0.0000 -14.8270 0.0000
# 4 0.0000 0.0000 0.0000 20.1407 0.0000 -1.6858
# 5 -20.3643 -8.9120 -14.8270 0.0000 26.6637 0.0000
# 6 0.0000 0.0000 0.0000 -1.6858 0.0000 31.6743
#
#
#
# Elastic Compliance Matrix: (Units=1/GPa)
#
#
# Indices 1 2 3 4 5 6 
#
# 1 0.008604 -0.002480 0.001605 0.000000 0.006635 0.000000
# 2 -0.002480 0.019071 0.006662 0.000000 0.008184 0.000000
# 3 0.001605 0.006662 0.026614 0.000000 0.018252 0.000000
# 4 0.000000 0.000000 0.000000 0.049873 0.000000 0.002654
# 5 0.006635 0.008184 0.018252 0.000000 0.055456 0.000000
# 6 0.000000 0.000000 0.000000 0.002654 0.000000 0.031713
#
#
# Mechanical properties :
#
#
# Convention : Reuss Voigt Hill
#
# Bulk Modulus (GPa) = 15.18328 31.52889 23.35608
# Shear Modulus (GPa) = 24.78772 31.70169 28.24470
#
# Velocity S-wave (km/s) = 3.54831 4.01277 3.78767
# Velocity P-wave (km/s) = 4.94969 6.12245 5.56704
#
# Compressibility (1/GPa) = 0.06586194
#
# Stress axis : x y z
#
# Youngs Moduli (GPa) = 116.22063 52.43647 37.57366
#
# Poissons Ratio (x) = 0.13007 -0.06030
# Poissons Ratio (y) = 0.28828 -0.25031
# Poissons Ratio (z) = -0.18651 -0.34933
#
# Static dielectric constant tensor:
#      x y z
#    x 1.700580 0.000000 0.020920 
#    y 0.000000 1.683920 0.000000 
#    z 0.020920 0.000000 1.742220 
# 
# From -- ./inp_files/246942.got.cif
#   From: 2010.05.17/outbox.cif.g08.bks.cpg/sg15_124_cif.got.tgz:246942.got - 2010.06.03 18:47:42.
