data_PCOD9271070
_publ_section_title
;
Structure prediction by ZEFSAII (Michael W. Deem and Ramdas Pophale) SiO2 
 PCOD9271070
Probable space group: C 2/C
;
_chemical_formula_sum "Si O2"
_cell_formula_units_Z 40
_cell_length_a 8.584836
_cell_length_b 27.897033
_cell_length_c 11.692910
_cell_angle_alpha 90.000000
_cell_angle_beta 133.013936
_cell_angle_gamma 90.000000
_cell_volume 2047.583219
_symmetry_space_group_name_H-M "C 2/C"
_symmetry_group_IT_number 15
_symmetry_cell_setting 'monoclinic'
loop_
_space_group_symop_operation_xyz
x,y,z
-x,y,1/2-z
-x,-y,-z
x,-y,1/2+z
1/2+x,1/2+y,z
1/2-x,1/2+y,1/2-z
1/2-x,1/2-y,-z
1/2+x,1/2-y,1/2+z
loop_
_atom_site_type_symbol
_atom_site_label
_atom_site_fract_x
_atom_site_fract_y
_atom_site_fract_z
Si Si1 0.610523 0.797806 0.927769
Si Si2 0.390665 0.902074 0.571816
Si Si3 0.882214 0.001658 0.565088
Si Si4 0.267073 0.701390 0.077172
Si Si5 0.265457 0.597805 0.073467
O O1 0.500000 0.798865 0.750000
O O2 0.721870 0.849971 0.998793
O O3 0.421582 0.796369 0.925128
O O4 0.750000 0.750000 0.000000
O O5 0.500000 0.902448 0.750000
O O6 0.246452 0.948886 0.493567
O O7 0.581347 0.904531 0.575971
O O8 0.000000 0.000429 0.750000
O O9 0.752597 0.951535 0.498318
O O10 0.000000 0.000000 0.500000
O O11 0.500000 0.701138 0.250000
O O12 0.244949 0.649775 0.003049
O O13 0.250000 0.750000 0.000000
O O14 0.500000 0.598761 0.250000
#
# Coordination Sequence:
#
# PCOD9271070 Si02
#       5
#     8   8   8   8   8
#     4  10  21  36  57  84 115 151 192 239 291 344
#     4  10  20  37  60  85 114 152 194 240 295 351
#     4  11  23  39  60  88 119 155 195 242 294 348
#     4  10  20  36  57  80 110 148 188 231 282 340
#     4   9  19  36  57  81 111 148 188 232 286 345
#
# _framework density 19.535226000000002
#
# number of rings (size 3 to 8) (size 9 to 14) (size 15 to 20)
#    0.000    2.000    0.000    4.200    0.000    5.600 
#    0.000    5.000    0.000    0.000    0.000    0.000 
#    0.000    0.000    0.000    0.000    0.000    0.000 
#
# Total GULP energy -111334.257199 kJ/mol
# GULP energy per Si atom -5566.712860 kJ/mol
# Density = 1.949076 g / cm^3
# Si number density = 19.535226 Si / 1000 Ang^3
#
#
#
# Elastic Constant Matrix: (Units=GPa)
#
#
# Indices 1 2 3 4 5 6 
#
# 1 98.5719 88.4364 20.1889 0.0000 -7.2051 0.0000
# 2 88.4364 282.1458 52.6297 0.0000 2.3359 0.0000
# 3 20.1889 52.6297 36.3483 0.0000 -6.0295 0.0000
# 4 0.0000 0.0000 0.0000 28.6606 0.0000 5.8784
# 5 -7.2051 2.3359 -6.0295 0.0000 28.3537 0.0000
# 6 0.0000 0.0000 0.0000 5.8784 0.0000 39.3443
#
#
#
# Elastic Compliance Matrix: (Units=1/GPa)
#
#
# Indices 1 2 3 4 5 6 
#
# 1 0.014601 -0.004404 -0.001096 0.000000 0.003840 0.000000
# 2 -0.004404 0.006292 -0.007189 0.000000 -0.003166 0.000000
# 3 -0.001096 -0.007189 0.039993 0.000000 0.008818 0.000000
# 4 0.000000 0.000000 0.000000 0.035994 0.000000 -0.005378
# 5 0.003840 -0.003166 0.008818 0.000000 0.038381 0.000000
# 6 0.000000 0.000000 0.000000 -0.005378 0.000000 0.026220
#
#
# Mechanical properties :
#
#
# Convention : Reuss Voigt Hill
#
# Bulk Modulus (GPa) = 28.16362 82.17510 55.16936
# Shear Modulus (GPa) = 25.16404 36.32580 30.74492
#
# Velocity S-wave (km/s) = 3.59296 4.31687 3.97144
# Velocity P-wave (km/s) = 5.62677 8.18557 7.02368
#
# Compressibility (1/GPa) = 0.03550680
#
# Stress axis : x y z
#
# Youngs Moduli (GPa) = 68.48749 158.93400 25.00428
#
# Poissons Ratio (x) = 0.69993 0.02742
# Poissons Ratio (y) = 0.30161 0.17977
# Poissons Ratio (z) = 0.07509 1.14264
#
# Static dielectric constant tensor:
#      x y z
#    x 1.654440 0.000000 -0.011110 
#    y 0.000000 1.761990 0.000000 
#    z -0.011110 0.000000 1.696030 
# 
# From -- ./inp_files/23626.got.cif
#   From: 2010.05.17/outbox.cif.g08.bks.cpg/sg15_12_cif.got.tgz:23626.got - 2010.06.03 18:47:42.
