data_PCOD9271961
_publ_section_title
;
Structure prediction by ZEFSAII (Michael W. Deem and Ramdas Pophale) SiO2 
 PCOD9271961
Probable space group: C 2/C
;
_chemical_formula_sum "Si O2"
_cell_formula_units_Z 60
_cell_length_a 19.756925
_cell_length_b 14.514421
_cell_length_c 14.939862
_cell_angle_alpha 90.000000
_cell_angle_beta 43.448433
_cell_angle_gamma 90.000000
_cell_volume 2946.222847
_symmetry_space_group_name_H-M "C 2/C"
_symmetry_group_IT_number 15
_symmetry_cell_setting 'monoclinic'
loop_
_space_group_symop_operation_xyz
x,y,z
-x,y,1/2-z
-x,-y,-z
x,-y,1/2+z
1/2+x,1/2+y,z
1/2-x,1/2+y,1/2-z
1/2-x,1/2-y,-z
1/2+x,1/2-y,1/2+z
loop_
_atom_site_type_symbol
_atom_site_label
_atom_site_fract_x
_atom_site_fract_y
_atom_site_fract_z
Si Si1 0.500000 0.803679 0.750000
Si Si2 0.985447 0.839613 0.417345
Si Si3 0.369476 0.504611 0.933830
Si Si4 0.305615 0.630545 0.363083
Si Si5 0.858148 0.160629 0.577632
Si Si6 0.207076 0.344418 0.582863
Si Si7 0.220949 0.198127 0.298462
Si Si8 0.391898 0.200406 0.882370
O O1 0.478585 0.735124 0.688325
O O2 0.599773 0.860303 0.645297
O O3 0.954073 0.931251 0.393743
O O4 0.886012 0.797223 0.554923
O O5 0.062081 0.857182 0.422273
O O6 0.379713 0.441943 0.835923
O O7 0.339367 0.431770 0.039816
O O8 0.283234 0.574895 0.991045
O O9 0.289869 0.626615 0.272804
O O10 0.351144 0.730023 0.345420
O O11 0.197137 0.629496 0.513099
O O12 0.764819 0.208649 0.714393
O O13 0.896810 0.236105 0.467630
O O14 0.250000 0.250000 0.500000
O O15 0.208327 0.334290 0.689457
O O16 0.500000 0.167056 0.750000
#
# Coordination Sequence:
#
# PCOD9271961 Si02
#       8
#     4   8   8   8   8   8   8   8
#     4  12  22  42  66  78 114 166 206 238 296 364
#     4  11  22  39  62  91 117 160 203 243 299 356
#     4  10  22  40  59  91 126 154 192 252 305 346
#     4   9  19  36  57  88 122 153 192 242 299 349
#     4  10  20  36  62  94 123 153 197 249 297 352
#     4  11  22  44  61  83 116 164 204 239 303 356
#     4  10  20  38  64  88 121 159 193 244 297 361
#     4   9  17  33  58  84 122 164 188 228 295 364
#
# _framework density 20.365058999999999
#
# number of rings (size 3 to 8) (size 9 to 14) (size 15 to 20)
#    0.000    1.867    4.000    2.000    0.000    0.000 
#   18.000    0.000    0.000    1.600    0.000    0.000 
#    0.000    0.000    0.000    0.000    0.000    0.000 
#
# Total GULP energy -167436.336047 kJ/mol
# GULP energy per Si atom -5581.211202 kJ/mol
# Density = 2.031871 g / cm^3
# Si number density = 20.365059 Si / 1000 Ang^3
#
#
#
# Elastic Constant Matrix: (Units=GPa)
#
#
# Indices 1 2 3 4 5 6 
#
# 1 132.5178 20.8873 9.9270 0.0000 4.2357 0.0000
# 2 20.8873 47.4735 -3.2040 0.0000 0.9609 0.0000
# 3 9.9270 -3.2040 57.5301 0.0000 -9.0733 0.0000
# 4 0.0000 0.0000 0.0000 8.5405 0.0000 -1.8475
# 5 4.2357 0.9609 -9.0733 0.0000 40.2491 0.0000
# 6 0.0000 0.0000 0.0000 -1.8475 0.0000 31.8633
#
#
#
# Elastic Compliance Matrix: (Units=1/GPa)
#
#
# Indices 1 2 3 4 5 6 
#
# 1 0.008314 -0.003757 -0.001833 0.000000 -0.001198 0.000000
# 2 -0.003757 0.022844 0.001967 0.000000 0.000293 0.000000
# 3 -0.001833 0.001967 0.018488 0.000000 0.004314 0.000000
# 4 0.000000 0.000000 0.000000 0.118576 0.000000 0.006875
# 5 -0.001198 0.000293 0.004314 0.000000 0.025937 0.000000
# 6 0.000000 0.000000 0.000000 0.006875 0.000000 0.031783
#
#
# Mechanical properties :
#
#
# Convention : Reuss Voigt Hill
#
# Bulk Modulus (GPa) = 23.58497 32.52689 28.05593
# Shear Modulus (GPa) = 20.21652 30.12464 25.17058
#
# Velocity S-wave (km/s) = 3.15414 3.85025 3.51945
# Velocity P-wave (km/s) = 4.98709 5.98101 5.50652
#
# Compressibility (1/GPa) = 0.04239989
#
# Stress axis : x y z
#
# Youngs Moduli (GPa) = 120.27905 43.77447 54.08814
#
# Poissons Ratio (x) = 0.16448 0.09914
# Poissons Ratio (y) = 0.45194 -0.10638
# Poissons Ratio (z) = 0.22046 -0.08610
#
# Static dielectric constant tensor:
#      x y z
#    x 1.739300 0.000000 -0.008620 
#    y 0.000000 1.710970 0.000000 
#    z -0.008620 0.000000 1.773990 
# 
# From -- ./inp_files/168618.got.cif
#   From: 2010.05.17/outbox.cif.g08.bks.cpg/sg15_85_cif.got.tgz:168618.got - 2010.06.03 18:47:42.
