data_PCOD9271547
_publ_section_title
;
Structure prediction by ZEFSAII (Michael W. Deem and Ramdas Pophale) SiO2 
 PCOD9271547
Probable space group: C 2/C
;
_chemical_formula_sum "Si O2"
_cell_formula_units_Z 48
_cell_length_a 22.337338
_cell_length_b 5.285356
_cell_length_c 23.924190
_cell_angle_alpha 90.000000
_cell_angle_beta 120.902338
_cell_angle_gamma 90.000000
_cell_volume 2423.552527
_symmetry_space_group_name_H-M "C 2/C"
_symmetry_group_IT_number 15
_symmetry_cell_setting 'monoclinic'
loop_
_space_group_symop_operation_xyz
x,y,z
-x,y,1/2-z
-x,-y,-z
x,-y,1/2+z
1/2+x,1/2+y,z
1/2-x,1/2+y,1/2-z
1/2-x,1/2-y,-z
1/2+x,1/2-y,1/2+z
loop_
_atom_site_type_symbol
_atom_site_label
_atom_site_fract_x
_atom_site_fract_y
_atom_site_fract_z
Si Si1 0.601699 0.418168 0.594243
Si Si2 0.114523 0.522732 0.795295
Si Si3 0.751715 0.951245 0.287862
Si Si4 0.474289 0.192867 0.035146
Si Si5 0.482197 0.843201 0.354075
Si Si6 0.935412 0.022559 0.676477
O O1 0.676246 0.531507 0.643478
O O2 0.592879 0.314888 0.526873
O O3 0.538346 0.614365 0.569967
O O4 0.581018 0.219363 0.633442
O O5 0.185728 0.494041 0.795485
O O6 0.052468 0.542810 0.718600
O O7 0.112893 0.791741 0.825642
O O8 0.101746 0.290407 0.831485
O O9 0.745701 0.675755 0.256797
O O10 0.469085 0.039929 0.089860
O O11 0.500000 0.000000 0.000000
O O12 0.527390 0.593986 0.360625
O O13 0.000000 0.035597 0.750000
#
# Coordination Sequence:
#
# PCOD9271547 Si02
#       6
#     8   8   8   8   8   8
#     4  10  21  37  61  92 119 158 203 256 309 362
#     4  11  22  37  54  90 123 157 197 239 310 367
#     4  12  24  38  61  88 127 164 193 245 314 378
#     4   9  20  37  59  91 116 155 209 257 306 349
#     4  10  20  36  60  84 121 157 204 257 304 360
#     4  10  22  35  56  84 120 158 198 248 296 356
#
# _framework density 19.805637000000001
#
# number of rings (size 3 to 8) (size 9 to 14) (size 15 to 20)
#    0.000    1.667    1.667    3.500   11.667    0.000 
#    0.000    0.000    0.000    2.000    0.000    0.000 
#    0.000    0.000    0.000    0.000    0.000    0.000 
#
# Total GULP energy -133869.921612 kJ/mol
# GULP energy per Si atom -5577.913400 kJ/mol
# Density = 1.976056 g / cm^3
# Si number density = 19.805637 Si / 1000 Ang^3
#
#
#
# Elastic Constant Matrix: (Units=GPa)
#
#
# Indices 1 2 3 4 5 6 
#
# 1 85.4825 7.6234 19.1464 0.0010 -10.4179 -0.0004
# 2 7.6234 88.1918 19.1423 0.0021 -9.7867 0.0005
# 3 19.1464 19.1423 81.7528 0.0004 7.4669 0.0009
# 4 0.0010 0.0021 0.0004 26.6950 0.0004 -4.0922
# 5 -10.4179 -9.7867 7.4669 0.0004 25.3748 0.0002
# 6 -0.0004 0.0005 0.0009 -4.0922 0.0002 21.7649
#
#
#
# Elastic Compliance Matrix: (Units=1/GPa)
#
#
# Indices 1 2 3 4 5 6 
#
# 1 0.013347 0.000433 -0.003847 -0.000001 0.006779 0.000000
# 2 0.000433 0.012782 -0.003659 -0.000001 0.006185 0.000000
# 3 -0.003847 -0.003659 0.014657 0.000000 -0.007304 0.000000
# 4 -0.000001 -0.000001 0.000000 0.038572 -0.000001 0.007252
# 5 0.006779 0.006185 -0.007304 -0.000001 0.046727 0.000000
# 6 0.000000 0.000000 0.000000 0.007252 0.000000 0.047309
#
#
# Mechanical properties :
#
#
# Convention : Reuss Voigt Hill
#
# Bulk Modulus (GPa) = 37.53570 38.58345 38.05957
# Shear Modulus (GPa) = 25.45575 28.73461 27.09518
#
# Velocity S-wave (km/s) = 3.58897 3.81311 3.70273
# Velocity P-wave (km/s) = 6.01394 6.23777 6.12687
#
# Compressibility (1/GPa) = 0.02664130
#
# Stress axis : x y z
#
# Youngs Moduli (GPa) = 74.92106 78.23489 68.22800
#
# Poissons Ratio (x) = -0.03391 0.26244
# Poissons Ratio (y) = -0.03247 0.24966
# Poissons Ratio (z) = 0.28819 0.28628
#
# Static dielectric constant tensor:
#      x y z
#    x 1.714240 0.000000 -0.065120 
#    y 0.000000 1.792440 0.000000 
#    z -0.065120 0.000000 1.737160 
# 
# From -- ./inp_files/278590.got.cif
#   From: 2010.05.17/outbox.cif.g08.bks.cpg/sg15_140_cif.got.tgz:278590.got - 2010.06.03 18:47:42.
