data_PCOD9271865
_publ_section_title
;
Structure prediction by ZEFSAII (Michael W. Deem and Ramdas Pophale) SiO2 
 PCOD9271865
Probable space group: C 2/C
;
_chemical_formula_sum "Si O2"
_cell_formula_units_Z 60
_cell_length_a 24.256979
_cell_length_b 25.883637
_cell_length_c 5.262402
_cell_angle_alpha 90.000000
_cell_angle_beta 66.467623
_cell_angle_gamma 90.000000
_cell_volume 3029.263339
_symmetry_space_group_name_H-M "C 2/C"
_symmetry_group_IT_number 15
_symmetry_cell_setting 'monoclinic'
loop_
_space_group_symop_operation_xyz
x,y,z
-x,y,1/2-z
-x,-y,-z
x,-y,1/2+z
1/2+x,1/2+y,z
1/2-x,1/2+y,1/2-z
1/2-x,1/2-y,-z
1/2+x,1/2-y,1/2+z
loop_
_atom_site_type_symbol
_atom_site_label
_atom_site_fract_x
_atom_site_fract_y
_atom_site_fract_z
Si Si1 0.184036 0.692041 0.027020
Si Si2 0.271837 0.292485 0.762366
Si Si3 0.433779 0.134717 0.401791
Si Si4 0.802081 0.471967 0.601577
Si Si5 0.000000 0.964450 0.750000
Si Si6 0.566594 0.066178 0.596652
Si Si7 0.270972 0.384007 0.043770
Si Si8 0.367380 0.536205 0.544480
O O1 0.190979 0.754291 0.986201
O O2 0.228818 0.653465 0.790063
O O3 0.210119 0.684909 0.259750
O O4 0.118763 0.673921 0.069321
O O5 0.250000 0.250000 0.000000
O O6 0.305727 0.341746 0.808277
O O7 0.500000 0.157998 0.250000
O O8 0.429632 0.110098 0.689968
O O9 0.429433 0.090356 0.192350
O O10 0.785233 0.485150 0.921422
O O11 0.874327 0.467270 0.465868
O O12 0.770201 0.421247 0.552522
O O13 0.934195 0.938898 0.889565
O O14 0.000000 0.000000 0.500000
O O15 0.500000 0.041866 0.750000
O O16 0.316802 0.420314 0.108772
O O17 0.361769 0.504548 0.819046
#
# Coordination Sequence:
#
# PCOD9271865 Si02
#       8
#     8   8   8   8   4   8   8   8
#     4  10  20  37  61  84 114 150 190 241 296 346
#     4   9  21  37  58  85 109 145 187 230 297 357
#     4  10  20  36  62  87 110 150 201 243 287 344
#     4  12  25  36  53  82 116 155 194 238 289 335
#     4   8  16  34  56  78 112 150 190 226 262 330
#     4  10  21  38  56  79 111 156 202 242 290 338
#     4  11  22  35  58  81 120 150 185 242 287 343
#     4  10  21  36  57  88 117 152 194 229 277 340
#
# _framework density 19.806795999999999
#
# number of rings (size 3 to 8) (size 9 to 14) (size 15 to 20)
#    0.000    1.867    1.333    2.400    5.600    0.533 
#    0.000    0.000    0.000    4.800    0.000    0.000 
#    0.000    0.000    0.000    0.000    0.000    0.000 
#
# Total GULP energy -167205.601117 kJ/mol
# GULP energy per Si atom -5573.520037 kJ/mol
# Density = 1.976171 g / cm^3
# Si number density = 19.806796 Si / 1000 Ang^3
#
#
#
# Elastic Constant Matrix: (Units=GPa)
#
#
# Indices 1 2 3 4 5 6 
#
# 1 129.1877 43.5862 17.7952 0.0000 -10.1610 0.0000
# 2 43.5862 68.6167 1.2486 0.0000 -3.5452 0.0000
# 3 17.7952 1.2486 35.0815 0.0000 9.4993 0.0000
# 4 0.0000 0.0000 0.0000 22.9529 0.0000 7.7196
# 5 -10.1610 -3.5452 9.4993 0.0000 32.0779 0.0000
# 6 0.0000 0.0000 0.0000 7.7196 0.0000 24.2832
#
#
#
# Elastic Compliance Matrix: (Units=1/GPa)
#
#
# Indices 1 2 3 4 5 6 
#
# 1 0.011379 -0.006852 -0.006848 0.000000 0.004875 0.000000
# 2 -0.006852 0.018818 0.003077 0.000000 -0.001002 0.000000
# 3 -0.006848 0.003077 0.035186 0.000000 -0.012249 0.000000
# 4 0.000000 0.000000 0.000000 0.048783 0.000000 -0.015508
# 5 0.004875 -0.001002 -0.012249 0.000000 0.036235 0.000000
# 6 0.000000 0.000000 0.000000 -0.015508 0.000000 0.046111
#
#
# Mechanical properties :
#
#
# Convention : Reuss Voigt Hill
#
# Bulk Modulus (GPa) = 22.65649 39.79399 31.22524
# Shear Modulus (GPa) = 21.50807 27.21320 24.36063
#
# Velocity S-wave (km/s) = 3.29886 3.71068 3.51082
# Velocity P-wave (km/s) = 5.09643 6.20432 5.67746
#
# Compressibility (1/GPa) = 0.04413747
#
# Stress axis : x y z
#
# Youngs Moduli (GPa) = 87.88028 53.14003 28.42032
#
# Poissons Ratio (x) = 0.36410 0.19463
# Poissons Ratio (y) = 0.60212 -0.08745
# Poissons Ratio (z) = 0.60183 -0.16351
#
# Static dielectric constant tensor:
#      x y z
#    x 1.734150 0.000000 0.001430 
#    y 0.000000 1.720210 0.000000 
#    z 0.001430 0.000000 1.810530 
# 
# From -- ./inp_files/16127.got.cif
#   From: 2010.05.17/outbox.cif.g08.bks.cpg/sg15_9_cif.got.tgz:16127.got - 2010.06.03 18:47:42.
