data_PCOD9271182
_publ_section_title
;
Structure prediction by ZEFSAII (Michael W. Deem and Ramdas Pophale) SiO2 
 PCOD9271182
Probable space group: C 2/C
;
_chemical_formula_sum "Si O2"
_cell_formula_units_Z 40
_cell_length_a 10.397474
_cell_length_b 26.265670
_cell_length_c 18.092644
_cell_angle_alpha 90.000000
_cell_angle_beta 28.316835
_cell_angle_gamma 90.000000
_cell_volume 2343.766958
_symmetry_space_group_name_H-M "C 2/C"
_symmetry_group_IT_number 15
_symmetry_cell_setting 'monoclinic'
loop_
_space_group_symop_operation_xyz
x,y,z
-x,y,1/2-z
-x,-y,-z
x,-y,1/2+z
1/2+x,1/2+y,z
1/2-x,1/2+y,1/2-z
1/2-x,1/2-y,-z
1/2+x,1/2-y,1/2+z
loop_
_atom_site_type_symbol
_atom_site_label
_atom_site_fract_x
_atom_site_fract_y
_atom_site_fract_z
Si Si1 0.719439 0.843219 0.848733
Si Si2 0.203210 0.744713 0.936131
Si Si3 0.789075 0.538815 0.143291
Si Si4 0.199764 0.153671 0.366669
Si Si5 0.205644 0.960392 0.860682
O O1 0.629255 0.901716 0.907685
O O2 0.776322 0.837234 0.732624
O O3 0.000000 0.834914 0.750000
O O4 0.489746 0.802537 0.984316
O O5 0.500000 0.738201 0.750000
O O6 0.074813 0.797260 0.969667
O O7 0.250000 0.750000 0.000000
O O8 0.500000 0.532345 0.250000
O O9 0.749880 0.530985 0.250890
O O10 0.000000 0.500000 0.000000
O O11 0.500000 0.151040 0.250000
O O12 0.088048 0.096774 0.432444
O O13 0.500000 0.963826 0.750000
O O14 0.000000 0.000000 0.000000
#
# Coordination Sequence:
#
# PCOD9271182 Si02
#       5
#     8   8   8   8   8
#     4  10  21  37  57  83 117 149 180 236 293 322
#     4  11  20  38  61  84 110 148 196 230 273 343
#     4  10  21  38  57  83 116 147 185 235 283 332
#     4   9  18  36  57  76 112 148 184 221 283 329
#     4  10  20  36  58  79 109 149 185 225 279 334
#
# _framework density 17.066542999999999
#
# number of rings (size 3 to 8) (size 9 to 14) (size 15 to 20)
#    0.000    2.000    4.000    1.200    0.000    1.600 
#    3.600    1.000    0.000    0.000    0.000    0.000 
#    0.000    0.000    0.000    0.000    0.000    0.000 
#
# Total GULP energy -111485.743586 kJ/mol
# GULP energy per Si atom -5574.287179 kJ/mol
# Density = 1.702770 g / cm^3
# Si number density = 17.066543 Si / 1000 Ang^3
#
#
#
# Elastic Constant Matrix: (Units=GPa)
#
#
# Indices 1 2 3 4 5 6 
#
# 1 144.0604 59.5449 45.4603 -0.0125 3.6803 0.0151
# 2 59.5449 189.6545 92.2874 -0.0008 10.1537 -0.0026
# 3 45.4603 92.2874 84.5301 0.0583 7.1685 -0.0354
# 4 -0.0125 -0.0008 0.0583 40.9729 -0.0016 5.8575
# 5 3.6803 10.1537 7.1685 -0.0016 18.5098 -0.0009
# 6 0.0151 -0.0026 -0.0354 5.8575 -0.0009 20.6579
#
#
#
# Elastic Compliance Matrix: (Units=1/GPa)
#
#
# Indices 1 2 3 4 5 6 
#
# 1 0.008439 -0.000946 -0.003523 0.000010 0.000205 -0.000015
# 2 -0.000946 0.011393 -0.011804 0.000020 -0.001490 -0.000024
# 3 -0.003523 -0.011804 0.026886 -0.000048 -0.003237 0.000061
# 4 0.000010 0.000020 -0.000048 0.025438 0.000008 -0.007213
# 5 0.000205 -0.001490 -0.003237 0.000008 0.056056 -0.000006
# 6 -0.000015 -0.000024 0.000061 -0.007213 -0.000006 0.050453
#
#
# Mechanical properties :
#
#
# Convention : Reuss Voigt Hill
#
# Bulk Modulus (GPa) = 70.55652 90.31447 80.43550
# Shear Modulus (GPa) = 23.15512 30.75829 26.95670
#
# Velocity S-wave (km/s) = 3.68741 4.24990 3.97861
# Velocity P-wave (km/s) = 7.71758 8.78158 8.26672
#
# Compressibility (1/GPa) = 0.01417303
#
# Stress axis : x y z
#
# Youngs Moduli (GPa) = 118.49584 87.76986 37.19390
#
# Poissons Ratio (x) = 0.08306 0.13103
# Poissons Ratio (y) = 0.11214 0.43902
# Poissons Ratio (z) = 0.41743 1.03601
#
# Static dielectric constant tensor:
#      x y z
#    x 1.566280 0.000000 0.002260 
#    y 0.000000 1.624310 0.000000 
#    z 0.002260 0.000000 1.533060 
# 
# From -- ./inp_files/24589.got.cif
#   From: 2010.05.17/outbox.cif.g08.bks.cpg/sg15_13_cif.got.tgz:24589.got - 2010.06.03 18:47:42.
