data_PCOD9271809
_publ_section_title
;
Structure prediction by ZEFSAII (Michael W. Deem and Ramdas Pophale) SiO2 
 PCOD9271809
Probable space group: C 2/C
;
_chemical_formula_sum "Si O2"
_cell_formula_units_Z 64
_cell_length_a 13.601507
_cell_length_b 14.849485
_cell_length_c 22.319633
_cell_angle_alpha 90.000000
_cell_angle_beta 143.006753
_cell_angle_gamma 90.000000
_cell_volume 2712.567537
_symmetry_space_group_name_H-M "C 2/C"
_symmetry_group_IT_number 15
_symmetry_cell_setting 'monoclinic'
loop_
_space_group_symop_operation_xyz
x,y,z
-x,y,1/2-z
-x,-y,-z
x,-y,1/2+z
1/2+x,1/2+y,z
1/2-x,1/2+y,1/2-z
1/2-x,1/2-y,-z
1/2+x,1/2-y,1/2+z
loop_
_atom_site_type_symbol
_atom_site_label
_atom_site_fract_x
_atom_site_fract_y
_atom_site_fract_z
Si Si1 0.850880 0.065736 0.417678
Si Si2 0.923215 0.250604 0.874424
Si Si3 0.413272 0.854440 0.642909
Si Si4 0.712339 0.887478 0.318106
Si Si5 0.136837 0.663648 0.907707
Si Si6 0.390327 0.129524 0.937710
Si Si7 0.891576 0.778675 0.846723
Si Si8 0.879672 0.500917 0.529461
O O1 0.775698 0.127708 0.433224
O O2 0.893079 0.130517 0.384229
O O3 0.713371 0.991506 0.335767
O O4 0.000000 0.000000 0.500000
O O5 0.872983 0.147670 0.862569
O O6 0.742339 0.289886 0.770297
O O7 0.038517 0.268748 0.873465
O O8 0.995213 0.306696 0.965046
O O9 0.500000 0.849727 0.750000
O O10 0.454132 0.936384 0.617127
O O11 0.548165 0.869401 0.201612
O O12 0.714486 0.828759 0.380355
O O13 0.214714 0.581119 0.982540
O O14 0.075010 0.749061 0.916094
O O15 0.297448 0.066902 0.941196
O O16 0.319094 0.200822 0.855793
O O17 0.488829 0.058671 0.944334
#
# Coordination Sequence:
#
# PCOD9271809 Si02
#       8
#     8   8   8   8   8   8   8   8
#     4  12  24  38  60  97 135 162 216 279 339 385
#     4  10  21  38  64  94 126 181 223 276 321 403
#     4  11  20  38  68  92 120 177 234 261 324 409
#     4  10  20  36  61  94 124 161 224 266 323 391
#     4   9  18  35  64  93 119 165 222 270 319 390
#     4   9  19  35  56  90 136 162 217 265 339 379
#     4  10  21  38  59  96 137 171 211 280 336 396
#     4   9  17  33  59  92 120 162 213 281 309 387
#
# _framework density 23.593883000000002
#
# number of rings (size 3 to 8) (size 9 to 14) (size 15 to 20)
#    0.000    2.000    2.500    1.500    1.750    0.000 
#    2.250    7.500    0.000    0.000    6.500    0.000 
#    0.000    0.000    0.000    0.000    0.000    0.000 
#
# Total GULP energy -178464.663832 kJ/mol
# GULP energy per Si atom -5577.020745 kJ/mol
# Density = 2.354018 g / cm^3
# Si number density = 23.593883 Si / 1000 Ang^3
#
#
#
# Elastic Constant Matrix: (Units=GPa)
#
#
# Indices 1 2 3 4 5 6 
#
# 1 95.3063 35.3041 22.5215 0.0000 -16.9221 0.0000
# 2 35.3041 96.2196 0.0195 0.0000 -13.8730 0.0000
# 3 22.5215 0.0195 52.8828 0.0000 -14.7723 0.0000
# 4 0.0000 0.0000 0.0000 28.9998 0.0000 -7.1879
# 5 -16.9221 -13.8730 -14.7723 0.0000 42.3641 0.0000
# 6 0.0000 0.0000 0.0000 -7.1879 0.0000 49.8811
#
#
#
# Elastic Compliance Matrix: (Units=1/GPa)
#
#
# Indices 1 2 3 4 5 6 
#
# 1 0.013904 -0.004794 -0.005326 0.000000 0.002127 0.000000
# 2 -0.004794 0.012619 0.002943 0.000000 0.003244 0.000000
# 3 -0.005326 0.002943 0.023102 0.000000 0.006892 0.000000
# 4 0.000000 0.000000 0.000000 0.035760 0.000000 0.005153
# 5 0.002127 0.003244 0.006892 0.000000 0.027920 0.000000
# 6 0.000000 0.000000 0.000000 0.005153 0.000000 0.020790
#
#
# Mechanical properties :
#
#
# Convention : Reuss Voigt Hill
#
# Bulk Modulus (GPa) = 28.35080 40.01096 34.18088
# Shear Modulus (GPa) = 31.20976 36.68655 33.94815
#
# Velocity S-wave (km/s) = 3.64096 3.94752 3.79734
# Velocity P-wave (km/s) = 5.45140 6.14591 5.80904
#
# Compressibility (1/GPa) = 0.03527237
#
# Stress axis : x y z
#
# Youngs Moduli (GPa) = 71.91939 79.24602 43.28643
#
# Poissons Ratio (x) = 0.37990 0.23053
# Poissons Ratio (y) = 0.34478 -0.12739
# Poissons Ratio (z) = 0.38301 -0.23323
#
# Static dielectric constant tensor:
#      x y z
#    x 1.950190 0.000000 0.004040 
#    y 0.000000 1.939180 0.000000 
#    z 0.004040 0.000000 2.001930 
# 
# From -- ./inp_files/274349.got.cif
#   From: 2010.05.17/outbox.cif.g08.bks.cpg/sg15_138_cif.got.tgz:274349.got - 2010.06.03 18:47:42.
