data_PCOD9271835
_publ_section_title
;
Structure prediction by ZEFSAII (Michael W. Deem and Ramdas Pophale) SiO2 
 PCOD9271835
Probable space group: C 2/C
;
_chemical_formula_sum "Si O2"
_cell_formula_units_Z 44
_cell_length_a 14.910681
_cell_length_b 17.795166
_cell_length_c 17.001799
_cell_angle_alpha 90.000000
_cell_angle_beta 34.548467
_cell_angle_gamma 90.000000
_cell_volume 2558.329477
_symmetry_space_group_name_H-M "C 2/C"
_symmetry_group_IT_number 15
_symmetry_cell_setting 'monoclinic'
loop_
_space_group_symop_operation_xyz
x,y,z
-x,y,1/2-z
-x,-y,-z
x,-y,1/2+z
1/2+x,1/2+y,z
1/2-x,1/2+y,1/2-z
1/2-x,1/2-y,-z
1/2+x,1/2-y,1/2+z
loop_
_atom_site_type_symbol
_atom_site_label
_atom_site_fract_x
_atom_site_fract_y
_atom_site_fract_z
Si Si1 0.000000 0.303548 0.250000
Si Si2 0.781094 0.900915 0.975527
Si Si3 0.627277 0.204602 0.033738
Si Si4 0.738097 0.187681 0.177178
Si Si5 0.115843 0.836275 0.761582
Si Si6 0.821642 0.434523 0.908969
O O1 0.089701 0.247157 0.244990
O O2 0.870692 0.354487 0.386258
O O3 0.806149 0.885107 0.864647
O O4 0.939453 0.868330 0.901161
O O5 0.761290 0.987691 0.011928
O O6 0.445697 0.212459 0.191148
O O7 0.667571 0.117857 0.021157
O O8 0.750000 0.250000 0.000000
O O9 0.656423 0.242468 0.928768
O O10 0.786470 0.164492 0.229394
O O11 0.754255 0.117978 0.104488
O O12 0.000000 0.449746 0.750000
#
# Coordination Sequence:
#
# PCOD9271835 Si02
#       6
#     4   8   8   8   8   8
#     4  10  20  36  62  72 108 156 194 218 286 330
#     4  10  20  38  58  77 113 154 182 227 287 329
#     4   9  19  37  58  83 110 149 185 225 279 332
#     4  10  21  36  60  85 114 141 190 236 272 331
#     4  10  22  36  53  87 112 139 192 240 267 328
#     4   9  18  38  58  80 111 150 186 224 282 338
#
# _framework density 17.198723000000001
#
# number of rings (size 3 to 8) (size 9 to 14) (size 15 to 20)
#    0.000    2.545    0.909    3.818    5.091    0.727 
#   13.091    5.455    0.000    0.000    0.000    0.000 
#    0.000    0.000    0.000    0.000    0.000    0.000 
#
# Total GULP energy -122577.863055 kJ/mol
# GULP energy per Si atom -5571.721048 kJ/mol
# Density = 1.715958 g / cm^3
# Si number density = 17.198723 Si / 1000 Ang^3
#
#
#
# Elastic Constant Matrix: (Units=GPa)
#
#
# Indices 1 2 3 4 5 6 
#
# 1 90.0137 30.4778 32.4452 -0.0010 10.8375 0.0004
# 2 30.4778 112.6968 55.1531 0.0007 6.5339 0.0004
# 3 32.4452 55.1531 95.3820 0.0017 1.7308 0.0003
# 4 -0.0010 0.0007 0.0017 21.3318 0.0010 2.8375
# 5 10.8375 6.5339 1.7308 0.0010 7.7920 -0.0004
# 6 0.0004 0.0004 0.0003 2.8375 -0.0004 5.5042
#
#
#
# Elastic Compliance Matrix: (Units=1/GPa)
#
#
# Indices 1 2 3 4 5 6 
#
# 1 0.015340 -0.000880 -0.004353 0.000003 -0.019630 -0.000004
# 2 -0.000880 0.013061 -0.007105 0.000001 -0.008150 -0.000001
# 3 -0.004353 -0.007105 0.015919 -0.000002 0.008476 0.000002
# 4 0.000003 0.000001 -0.000002 0.050330 -0.000012 -0.025946
# 5 -0.019630 -0.008150 0.008476 -0.000012 0.160591 0.000020
# 6 -0.000004 -0.000001 0.000002 -0.025946 0.000020 0.195057
#
#
# Mechanical properties :
#
#
# Convention : Reuss Voigt Hill
#
# Bulk Modulus (GPa) = 50.90563 59.36054 55.13309
# Shear Modulus (GPa) = 10.38375 18.92668 14.65522
#
# Velocity S-wave (km/s) = 2.45980 3.32093 2.92226
# Velocity P-wave (km/s) = 6.14249 7.02098 6.59638
#
# Compressibility (1/GPa) = 0.01964419
#
# Stress axis : x y z
#
# Youngs Moduli (GPa) = 65.18955 76.56335 62.81625
#
# Poissons Ratio (x) = 0.06739 0.27343
# Poissons Ratio (y) = 0.05737 0.44632
# Poissons Ratio (z) = 0.28376 0.54399
#
# Static dielectric constant tensor:
#      x y z
#    x 1.591620 0.000000 0.014510 
#    y 0.000000 1.577460 0.000000 
#    z 0.014510 0.000000 1.590870 
# 
# From -- ./inp_files/39242.got.cif
#   From: 2010.05.17/outbox.cif.g08.bks.cpg/sg15_20_cif.got.tgz:39242.got - 2010.06.03 18:47:42.
