data_PCOD9271495
_publ_section_title
;
Structure prediction by ZEFSAII (Michael W. Deem and Ramdas Pophale) SiO2 
 PCOD9271495
Probable space group: C 2/C
;
_chemical_formula_sum "Si O2"
_cell_formula_units_Z 52
_cell_length_a 19.886950
_cell_length_b 17.580282
_cell_length_c 7.940879
_cell_angle_alpha 90.000000
_cell_angle_beta 64.078329
_cell_angle_gamma 90.000000
_cell_volume 2496.961583
_symmetry_space_group_name_H-M "C 2/C"
_symmetry_group_IT_number 15
_symmetry_cell_setting 'monoclinic'
loop_
_space_group_symop_operation_xyz
x,y,z
-x,y,1/2-z
-x,-y,-z
x,-y,1/2+z
1/2+x,1/2+y,z
1/2-x,1/2+y,1/2-z
1/2-x,1/2-y,-z
1/2+x,1/2-y,1/2+z
loop_
_atom_site_type_symbol
_atom_site_label
_atom_site_fract_x
_atom_site_fract_y
_atom_site_fract_z
Si Si1 0.028682 0.082609 0.411917
Si Si2 0.000000 0.738456 0.750000
Si Si3 0.354104 0.798375 0.857997
Si Si4 0.062238 0.608717 0.472759
Si Si5 0.247767 0.300534 0.253344
Si Si6 0.500000 0.006744 0.250000
Si Si7 0.500000 0.699012 0.750000
Si Si8 0.845559 0.172211 0.339328
O O1 0.000000 0.089864 0.250000
O O2 0.000222 0.144454 0.582522
O O3 0.117704 0.100512 0.297025
O O4 0.000000 0.000000 0.500000
O O5 0.920997 0.780962 0.809124
O O6 0.015674 0.682322 0.578118
O O7 0.365622 0.859287 0.697318
O O8 0.306215 0.732112 0.823623
O O9 0.429011 0.754762 0.829931
O O10 0.315528 0.837717 0.060715
O O11 0.066348 0.551496 0.625599
O O12 0.019031 0.561362 0.380680
O O13 0.204719 0.228705 0.216774
O O14 0.294350 0.343891 0.058867
#
# Coordination Sequence:
#
# PCOD9271495 Si02
#       8
#     8   4   8   8   8   4   4   8
#     4  12  24  41  66  98 136 180 228 285 341 409
#     4  11  20  35  67  96 119 160 220 286 327 378
#     4  11  21  39  64  99 125 165 217 285 341 405
#     4  10  20  36  59  91 123 157 209 257 326 377
#     4  10  23  36  62  97 136 165 204 296 358 389
#     4   9  21  36  56  91 125 158 198 262 307 409
#     4  12  23  41  71 105 132 166 242 290 338 409
#     4  11  21  41  60 100 130 165 221 291 339 400
#
# _framework density 20.825310999999999
#
# number of rings (size 3 to 8) (size 9 to 14) (size 15 to 20)
#    0.000    1.231    4.615    2.308    2.154    0.000 
#    0.000    0.000    0.000   12.923    0.000    0.000 
#    0.000    0.000    0.000    0.000    0.000    0.000 
#
# Total GULP energy -144831.967834 kJ/mol
# GULP energy per Si atom -5570.460301 kJ/mol
# Density = 2.077791 g / cm^3
# Si number density = 20.825311 Si / 1000 Ang^3
#
#
#
# Elastic Constant Matrix: (Units=GPa)
#
#
# Indices 1 2 3 4 5 6 
#
# 1 80.3124 14.2940 11.4605 0.0000 -5.1996 0.0000
# 2 14.2940 73.3604 38.3529 0.0000 -9.5740 0.0000
# 3 11.4605 38.3529 173.4840 0.0000 -9.6750 0.0000
# 4 0.0000 0.0000 0.0000 279.3541 0.0000 158.8400
# 5 -5.1996 -9.5740 -9.6750 0.0000 32.9724 0.0000
# 6 0.0000 0.0000 0.0000 158.8400 0.0000 116.4974
#
#
#
# Elastic Compliance Matrix: (Units=1/GPa)
#
#
# Indices 1 2 3 4 5 6 
#
# 1 0.012971 -0.002200 -0.000297 0.000000 0.001320 0.000000
# 2 -0.002200 0.016202 -0.003247 0.000000 0.003405 0.000000
# 3 -0.000297 -0.003247 0.006554 0.000000 0.000934 0.000000
# 4 0.000000 0.000000 0.000000 0.015928 0.000000 -0.021718
# 5 0.001320 0.003405 0.000934 0.000000 0.031799 0.000000
# 6 0.000000 0.000000 0.000000 -0.021718 0.000000 0.038195
#
#
# Mechanical properties :
#
#
# Convention : Reuss Voigt Hill
#
# Bulk Modulus (GPa) = 41.25534 50.59682 45.92608
# Shear Modulus (GPa) = 35.40706 103.30141 69.35423
#
# Velocity S-wave (km/s) = 4.12781 7.05064 5.77712
# Velocity P-wave (km/s) = 6.52470 9.52001 8.16095
#
# Compressibility (1/GPa) = 0.02423929
#
# Stress axis : x y z
#
# Youngs Moduli (GPa) = 77.09680 61.72222 152.58719
#
# Poissons Ratio (x) = 0.13578 0.04531
# Poissons Ratio (y) = 0.16960 0.49538
# Poissons Ratio (z) = 0.02289 0.20038
#
# Static dielectric constant tensor:
#      x y z
#    x 1.749520 0.000000 0.012340 
#    y 0.000000 1.821230 0.000000 
#    z 0.012340 0.000000 1.907530 
# 
# From -- ./inp_files/56988.got.cif
#   From: 2010.05.17/outbox.cif.g08.bks.cpg/sg15_29_cif.got.tgz:56988.got - 2010.06.03 18:47:42.
