data_PCOD9271930
_publ_section_title
;
Structure prediction by ZEFSAII (Michael W. Deem and Ramdas Pophale) SiO2 
 PCOD9271930
Probable space group: C 2/C
;
_chemical_formula_sum "Si O2"
_cell_formula_units_Z 52
_cell_length_a 16.513510
_cell_length_b 7.730830
_cell_length_c 21.397890
_cell_angle_alpha 90.000000
_cell_angle_beta 95.862197
_cell_angle_gamma 90.000000
_cell_volume 2717.436042
_symmetry_space_group_name_H-M "C 2/C"
_symmetry_group_IT_number 15
_symmetry_cell_setting 'monoclinic'
loop_
_space_group_symop_operation_xyz
x,y,z
-x,y,1/2-z
-x,-y,-z
x,-y,1/2+z
1/2+x,1/2+y,z
1/2-x,1/2+y,1/2-z
1/2-x,1/2-y,-z
1/2+x,1/2-y,1/2+z
loop_
_atom_site_type_symbol
_atom_site_label
_atom_site_fract_x
_atom_site_fract_y
_atom_site_fract_z
Si Si1 0.724109 0.532307 0.170896
Si Si2 0.576140 0.504371 0.077762
Si Si3 0.500000 0.965056 0.750000
Si Si4 0.049485 0.056198 0.318894
Si Si5 0.884873 0.284692 0.640070
Si Si6 0.527876 0.197445 0.484888
Si Si7 0.145149 0.307574 0.254530
O O1 0.662202 0.458800 0.115369
O O2 0.797686 0.632379 0.143676
O O3 0.772155 0.399248 0.218625
O O4 0.670171 0.657848 0.209629
O O5 0.512125 0.540709 0.128671
O O6 0.544531 0.336213 0.037054
O O7 0.577021 0.685281 0.039418
O O8 0.451792 0.860455 0.693592
O O9 0.426680 0.071218 0.777474
O O10 0.098190 0.232593 0.311595
O O11 0.000000 0.026769 0.250000
O O12 0.117037 0.914013 0.339455
O O13 0.918218 0.312490 0.573474
O O14 0.500000 0.000000 0.500000
#
# Coordination Sequence:
#
# PCOD9271930 Si02
#       7
#     8   8   4   8   8   8   8
#     4  11  23  37  58  95 131 156 199 263 322 368
#     4  10  23  43  64  91 124 163 216 259 307 374
#     4  10  20  36  62  92 116 166 206 250 310 390
#     4  11  19  38  63  87 120 166 200 252 303 370
#     4  10  23  38  62  92 124 154 211 255 312 372
#     4  10  24  43  68  86 118 172 219 253 302 378
#     4  11  22  35  59  92 132 160 196 251 324 378
#
# _framework density 19.135686
#
# number of rings (size 3 to 8) (size 9 to 14) (size 15 to 20)
#    0.000    1.538    3.077    0.923    6.462    1.846 
#    2.769    0.769    0.000    0.000    0.000    0.000 
#    0.000    0.000    0.000    0.000    0.000    0.000 
#
# Total GULP energy -144902.185052 kJ/mol
# GULP energy per Si atom -5573.160964 kJ/mol
# Density = 1.909213 g / cm^3
# Si number density = 19.135686 Si / 1000 Ang^3
#
#
#
# Elastic Constant Matrix: (Units=GPa)
#
#
# Indices 1 2 3 4 5 6 
#
# 1 72.7438 8.7296 12.4347 0.0000 18.8259 0.0000
# 2 8.7296 63.7652 10.1541 0.0000 -0.8433 0.0000
# 3 12.4347 10.1541 57.6284 0.0000 -7.6900 0.0000
# 4 0.0000 0.0000 0.0000 17.3308 0.0000 -13.9780
# 5 18.8259 -0.8433 -7.6900 0.0000 25.2075 0.0000
# 6 0.0000 0.0000 0.0000 -13.9780 0.0000 6.2515
#
#
#
# Elastic Compliance Matrix: (Units=1/GPa)
#
#
# Indices 1 2 3 4 5 6 
#
# 1 0.019192 -0.001891 -0.005972 0.000000 -0.016218 0.000000
# 2 -0.001891 0.016324 -0.002301 0.000000 0.001256 0.000000
# 3 -0.005972 -0.002301 0.020465 0.000000 0.010626 0.000000
# 4 0.000000 0.000000 0.000000 -0.071821 0.000000 -0.160589
# 5 -0.016218 0.001256 0.010626 0.000000 0.055067 0.000000
# 6 0.000000 0.000000 0.000000 -0.160589 0.000000 -0.199108
#
#
# Mechanical properties :
#
#
# Convention : Reuss Voigt Hill
#
# Bulk Modulus (GPa) = 28.04780 28.53049 28.28914
# Shear Modulus (GPa) = -39.16351 20.61255 -9.27548
#
# Velocity S-wave (km/s) = -4.52887 3.28560 -2.20403
# Velocity P-wave (km/s) = 3.55786 5.41623 2.88766
#
# Compressibility (1/GPa) = 0.03565342
#
# Stress axis : x y z
#
# Youngs Moduli (GPa) = 52.10517 61.25804 48.86495
#
# Poissons Ratio (x) = 0.11583 0.29183
# Poissons Ratio (y) = 0.09853 0.11242
# Poissons Ratio (z) = 0.31118 0.14094
#
# Static dielectric constant tensor:
#      x y z
#    x 1.641910 0.000000 0.016080 
#    y 0.000000 1.740970 0.000000 
#    z 0.016080 0.000000 1.676030 
# 
# From -- ./inp_files/242481.got.cif
#   From: 2010.05.17/outbox.cif.g08.bks.cpg/sg15_122_cif.got.tgz:242481.got - 2010.06.03 18:47:42.
