data_PCOD9271201
_publ_section_title
;
Structure prediction by ZEFSAII (Michael W. Deem and Ramdas Pophale) SiO2 
 PCOD9271201
Probable space group: C 2/C
;
_chemical_formula_sum "Si O2"
_cell_formula_units_Z 56
_cell_length_a 15.885053
_cell_length_b 31.341506
_cell_length_c 14.058718
_cell_angle_alpha 90.000000
_cell_angle_beta 152.255099
_cell_angle_gamma 90.000000
_cell_volume 3258.421744
_symmetry_space_group_name_H-M "C 2/C"
_symmetry_group_IT_number 15
_symmetry_cell_setting 'monoclinic'
loop_
_space_group_symop_operation_xyz
x,y,z
-x,y,1/2-z
-x,-y,-z
x,-y,1/2+z
1/2+x,1/2+y,z
1/2-x,1/2+y,1/2-z
1/2-x,1/2-y,-z
1/2+x,1/2-y,1/2+z
loop_
_atom_site_type_symbol
_atom_site_label
_atom_site_fract_x
_atom_site_fract_y
_atom_site_fract_z
Si Si1 0.000001 0.642580 0.961272
Si Si2 0.000001 0.449909 0.365303
Si Si3 0.706661 0.480935 0.341283
Si Si4 0.212681 0.799820 0.073439
Si Si5 0.787320 0.799820 0.648077
Si Si6 0.293338 0.480935 0.927959
Si Si7 0.999999 0.409861 0.636903
O O1 0.000002 0.596641 0.909618
O O2 0.828554 0.669662 0.755467
O O3 0.171447 0.669662 0.098360
O O4 0.000000 0.631759 0.072467
O O5 0.824409 0.477827 0.218966
O O6 0.000000 0.446962 0.250000
O O7 0.175592 0.477827 0.570149
O O8 0.701842 0.482693 0.451842
O O9 0.825678 0.439176 0.438329
O O10 0.499999 0.479877 0.101035
O O11 0.265227 0.806928 0.015227
O O12 0.000001 0.807788 0.869610
O O13 0.250001 0.750000 0.131077
O O14 0.174320 0.439176 0.786971
O O15 0.000000 0.402168 0.750000
#
# Coordination Sequence:
#
# PCOD9271201 Si02
#       7
#     8   8   8   8   8   8   8
#     4  12  22  33  54  82 110 138 180 225 264 309
#     4   9  18  30  46  76 110 136 168 216 271 320
#     4   8  15  31  52  70 101 147 183 216 265 314
#     4  10  20  36  58  82 107 136 166 201 258 330
#     4  10  20  36  58  82 107 136 166 201 258 330
#     4   8  15  31  52  70 101 147 183 216 265 314
#     4   9  20  36  52  74 104 144 190 230 261 296
#
# _framework density 17.186233999999999
#
# number of rings (size 3 to 8) (size 9 to 14) (size 15 to 20)
#    0.000    2.571    1.429    3.000    0.000    4.571 
#    0.000    4.286    0.000    0.857    0.000    0.000 
#    0.000    0.000    0.000    0.000    0.000    0.000 
#
# Total GULP energy -156292.587991 kJ/mol
# GULP energy per Si atom -5581.878143 kJ/mol
# Density = 1.714712 g / cm^3
# Si number density = 17.186234 Si / 1000 Ang^3
#
#
#
# Elastic Constant Matrix: (Units=GPa)
#
#
# Indices 1 2 3 4 5 6 
#
# 1 83.5639 57.9481 53.7410 0.0000 -6.1780 0.0000
# 2 57.9481 102.9762 56.6086 0.0000 -0.6718 0.0000
# 3 53.7410 56.6086 122.0569 0.0000 25.5077 0.0000
# 4 0.0000 0.0000 0.0000 16.7461 0.0000 -7.4605
# 5 -6.1780 -0.6718 25.5077 0.0000 24.6687 0.0000
# 6 0.0000 0.0000 0.0000 -7.4605 0.0000 31.6052
#
#
#
# Elastic Compliance Matrix: (Units=1/GPa)
#
#
# Indices 1 2 3 4 5 6 
#
# 1 0.026791 -0.008497 -0.011748 0.000000 0.018625 0.000000
# 2 -0.008497 0.017264 -0.005000 0.000000 0.003512 0.000000
# 3 -0.011748 -0.005000 0.020828 0.000000 -0.024615 0.000000
# 4 0.000000 0.000000 0.000000 0.066733 0.000000 0.015752
# 5 0.018625 0.003512 -0.024615 0.000000 0.070749 0.000000
# 6 0.000000 0.000000 0.000000 0.015752 0.000000 0.035359
#
#
# Mechanical properties :
#
#
# Convention : Reuss Voigt Hill
#
# Bulk Modulus (GPa) = 69.46851 71.68804 70.57827
# Shear Modulus (GPa) = 17.06427 23.95730 20.51079
#
# Velocity S-wave (km/s) = 3.15446 3.73766 3.45837
# Velocity P-wave (km/s) = 7.33323 7.77366 7.55665
#
# Compressibility (1/GPa) = 0.01439501
#
# Stress axis : x y z
#
# Youngs Moduli (GPa) = 37.32584 57.92524 48.01217
#
# Poissons Ratio (x) = 0.49218 0.56403
# Poissons Ratio (y) = 0.31715 0.24004
# Poissons Ratio (z) = 0.43849 0.28960
#
# Static dielectric constant tensor:
#      x y z
#    x 1.612710 0.000000 -0.009920 
#    y 0.000000 1.541750 0.000000 
#    z -0.009920 0.000000 1.592950 
# 
# From -- ./inp_files/157476.got.cif
#   From: 2010.05.17/outbox.cif.g08.bks.cpg/sg15_79_cif.got.tgz:157476.got - 2010.06.03 18:47:42.
