data_PCOD9271647
_publ_section_title
;
Structure prediction by ZEFSAII (Michael W. Deem and Ramdas Pophale) SiO2 
 PCOD9271647
Probable space group: C 2/C
;
_chemical_formula_sum "Si O2"
_cell_formula_units_Z 40
_cell_length_a 19.280165
_cell_length_b 18.546349
_cell_length_c 5.172794
_cell_angle_alpha 90.000000
_cell_angle_beta 61.312550
_cell_angle_gamma 90.000000
_cell_volume 1622.625860
_symmetry_space_group_name_H-M "C 2/C"
_symmetry_group_IT_number 15
_symmetry_cell_setting 'monoclinic'
loop_
_space_group_symop_operation_xyz
x,y,z
-x,y,1/2-z
-x,-y,-z
x,-y,1/2+z
1/2+x,1/2+y,z
1/2-x,1/2+y,1/2-z
1/2-x,1/2-y,-z
1/2+x,1/2-y,1/2+z
loop_
_atom_site_type_symbol
_atom_site_label
_atom_site_fract_x
_atom_site_fract_y
_atom_site_fract_z
Si Si1 0.398080 0.453323 0.297077
Si Si2 0.164764 0.241550 0.263518
Si Si3 0.578810 0.150183 0.202762
Si Si4 0.709055 0.045569 0.186824
Si Si5 0.906711 0.198573 0.614794
O O1 0.414926 0.488772 0.542507
O O2 0.302437 0.438315 0.474818
O O3 0.439095 0.377964 0.147122
O O4 0.123494 0.318393 0.372177
O O5 0.164939 0.210860 0.552595
O O6 0.250000 0.250000 0.000000
O O7 0.116646 0.195051 0.141495
O O8 0.500000 0.110329 0.250000
O O9 0.551617 0.224571 0.399649
O O10 0.645168 0.106967 0.237461
O O11 0.695654 0.982627 0.999531
#
# Coordination Sequence:
#
# PCOD9271647 Si02
#       5
#     8   8   8   8   8
#     4  10  20  36  60  90 124 153 194 252 314 359
#     4  10  21  35  61  90 115 152 201 257 303 346
#     4  10  25  41  62  89 125 167 208 247 298 359
#     4  10  23  38  57  87 122 163 202 245 296 361
#     4  10  22  37  61  90 121 154 204 253 304 356
#
# _framework density 24.651402999999998
#
# number of rings (size 3 to 8) (size 9 to 14) (size 15 to 20)
#    1.200    0.800    0.000    3.000    5.600    3.200 
#    0.000    0.000    0.000    1.200    0.000    0.000 
#    0.000    0.000    0.000    0.000    0.000    0.000 
#
# Total GULP energy -111637.222817 kJ/mol
# GULP energy per Si atom -5581.861141 kJ/mol
# Density = 2.459530 g / cm^3
# Si number density = 24.651403 Si / 1000 Ang^3
#
#
#
# Elastic Constant Matrix: (Units=GPa)
#
#
# Indices 1 2 3 4 5 6 
#
# 1 109.1287 35.3533 8.4172 0.0000 -10.1472 0.0000
# 2 35.3533 84.4134 -8.2052 0.0000 -1.2743 0.0000
# 3 8.4172 -8.2052 76.9166 0.0000 -9.1537 0.0000
# 4 0.0000 0.0000 0.0000 18.0146 0.0000 9.8771
# 5 -10.1472 -1.2743 -9.1537 0.0000 27.2237 0.0000
# 6 0.0000 0.0000 0.0000 9.8771 0.0000 18.3932
#
#
#
# Elastic Compliance Matrix: (Units=1/GPa)
#
#
# Indices 1 2 3 4 5 6 
#
# 1 0.011121 -0.004732 -0.001307 0.000000 0.003484 0.000000
# 2 -0.004732 0.014012 0.001959 0.000000 -0.000449 0.000000
# 3 -0.001307 0.001959 0.013861 0.000000 0.004265 0.000000
# 4 0.000000 0.000000 0.000000 0.078674 0.000000 -0.042248
# 5 0.003484 -0.000449 0.004265 0.000000 0.039445 0.000000
# 6 0.000000 0.000000 0.000000 -0.042248 0.000000 0.077055
#
#
# Mechanical properties :
#
#
# Convention : Reuss Voigt Hill
#
# Bulk Modulus (GPa) = 32.43221 37.95438 35.19329
# Shear Modulus (GPa) = 19.79367 28.38585 24.08976
#
# Velocity S-wave (km/s) = 2.83670 3.39704 3.12944
# Velocity P-wave (km/s) = 4.89020 5.55125 5.23118
#
# Compressibility (1/GPa) = 0.03083355
#
# Stress axis : x y z
#
# Youngs Moduli (GPa) = 89.91718 71.36727 72.14635
#
# Poissons Ratio (x) = 0.33773 0.09431
# Poissons Ratio (y) = 0.42551 -0.14135
# Poissons Ratio (z) = 0.11754 -0.13982
#
# Static dielectric constant tensor:
#      x y z
#    x 1.999720 0.000000 -0.053500 
#    y 0.000000 2.014680 0.000000 
#    z -0.053500 0.000000 2.022350 
# 
# From -- ./inp_files/15272.got.cif
#   From: 2010.05.17/outbox.cif.g08.bks.cpg/sg15_8_cif.got.tgz:15272.got - 2010.06.03 18:47:42.
