data_PCOD9271850
_publ_section_title
;
Structure prediction by ZEFSAII (Michael W. Deem and Ramdas Pophale) SiO2 
 PCOD9271850
Probable space group: C 2/C
;
_chemical_formula_sum "Si O2"
_cell_formula_units_Z 48
_cell_length_a 20.233124
_cell_length_b 7.619757
_cell_length_c 14.370954
_cell_angle_alpha 90.000000
_cell_angle_beta 69.684552
_cell_angle_gamma 90.000000
_cell_volume 2077.771303
_symmetry_space_group_name_H-M "C 2/C"
_symmetry_group_IT_number 15
_symmetry_cell_setting 'monoclinic'
loop_
_space_group_symop_operation_xyz
x,y,z
-x,y,1/2-z
-x,-y,-z
x,-y,1/2+z
1/2+x,1/2+y,z
1/2-x,1/2+y,1/2-z
1/2-x,1/2-y,-z
1/2+x,1/2-y,1/2+z
loop_
_atom_site_type_symbol
_atom_site_label
_atom_site_fract_x
_atom_site_fract_y
_atom_site_fract_z
Si Si1 0.116582 0.717381 0.372328
Si Si2 0.262895 0.384114 0.865871
Si Si3 0.777611 0.485061 0.928346
Si Si4 0.027775 0.191967 0.516369
Si Si5 0.161148 0.893388 0.859281
Si Si6 0.925599 0.664834 0.316963
O O1 0.183879 0.599502 0.362246
O O2 0.103673 0.729217 0.268102
O O3 0.040520 0.681841 0.455525
O O4 0.138497 0.909703 0.397698
O O5 0.274582 0.185161 0.894140
O O6 0.319156 0.405183 0.757616
O O7 0.263609 0.510021 0.953958
O O8 0.733164 0.362955 0.880298
O O9 0.859854 0.438893 0.892732
O O10 0.095921 0.228173 0.419564
O O11 0.052311 0.198836 0.612625
O O12 0.000000 0.000000 0.500000
O O13 0.000000 0.573827 0.250000
#
# Coordination Sequence:
#
# PCOD9271850 Si02
#       6
#     8   8   8   8   8   8
#     4   9  19  38  58  84 121 154 192 253 306 353
#     4  10  21  39  59  84 124 158 197 260 296 365
#     4  10  22  38  58  87 122 159 202 245 314 357
#     4   9  20  37  57  87 117 150 197 251 305 358
#     4  10  20  36  62  85 115 154 207 245 300 368
#     4  10  20  38  61  87 119 157 202 248 306 371
#
# _framework density 23.101676000000001
#
# number of rings (size 3 to 8) (size 9 to 14) (size 15 to 20)
#    0.000    2.333    1.667    0.000    2.333    3.333 
#    3.000    1.667    0.000    0.000    0.000    0.000 
#    0.000    0.000    0.000    0.000    0.000    0.000 
#
# Total GULP energy -133839.733506 kJ/mol
# GULP energy per Si atom -5576.655563 kJ/mol
# Density = 2.304910 g / cm^3
# Si number density = 23.101676 Si / 1000 Ang^3
#
#
#
# Elastic Constant Matrix: (Units=GPa)
#
#
# Indices 1 2 3 4 5 6 
#
# 1 89.4007 8.0002 41.7762 0.0000 -14.5061 0.0000
# 2 8.0002 28.2944 -0.6464 0.0000 -6.1726 0.0000
# 3 41.7762 -0.6464 136.0571 0.0000 -37.2857 0.0000
# 4 0.0000 0.0000 0.0000 15.5849 0.0000 -9.8342
# 5 -14.5061 -6.1726 -37.2857 0.0000 47.8747 0.0000
# 6 0.0000 0.0000 0.0000 -9.8342 0.0000 9.5827
#
#
#
# Elastic Compliance Matrix: (Units=1/GPa)
#
#
# Indices 1 2 3 4 5 6 
#
# 1 0.013485 -0.003806 -0.004034 0.000000 0.000453 0.000000
# 2 -0.003806 0.037811 0.003011 0.000000 0.006067 0.000000
# 3 -0.004034 0.003011 0.010647 0.000000 0.007458 0.000000
# 4 0.000000 0.000000 0.000000 0.182061 0.000000 0.186839
# 5 0.000453 0.006067 0.007458 0.000000 0.027615 0.000000
# 6 0.000000 0.000000 0.000000 0.186839 0.000000 0.296098
#
#
# Mechanical properties :
#
#
# Convention : Reuss Voigt Hill
#
# Bulk Modulus (GPa) = 19.12660 39.11247 29.11954
# Shear Modulus (GPa) = 8.40613 28.24995 18.32804
#
# Velocity S-wave (km/s) = 1.90962 3.50073 2.81973
# Velocity P-wave (km/s) = 3.62760 5.77126 4.82011
#
# Compressibility (1/GPa) = 0.05228320
#
# Stress axis : x y z
#
# Youngs Moduli (GPa) = 74.15652 26.44723 93.92637
#
# Poissons Ratio (x) = 0.10066 0.37894
# Poissons Ratio (y) = 0.28226 -0.28280
# Poissons Ratio (z) = 0.29918 -0.07963
#
# Static dielectric constant tensor:
#      x y z
#    x 1.928230 0.000000 -0.025610 
#    y 0.000000 1.880650 0.000000 
#    z -0.025610 0.000000 1.872240 
# 
# From -- ./inp_files/166132.got.cif
#   From: 2010.05.17/outbox.cif.g08.bks.cpg/sg15_84_cif.got.tgz:166132.got - 2010.06.03 18:47:42.
