data_PCOD9271916
_publ_section_title
;
Structure prediction by ZEFSAII (Michael W. Deem and Ramdas Pophale) SiO2 
 PCOD9271916
Probable space group: C 2/C
;
_chemical_formula_sum "Si O2"
_cell_formula_units_Z 48
_cell_length_a 18.633023
_cell_length_b 7.551753
_cell_length_c 14.201546
_cell_angle_alpha 90.000000
_cell_angle_beta 78.813132
_cell_angle_gamma 90.000000
_cell_volume 1960.358829
_symmetry_space_group_name_H-M "C 2/C"
_symmetry_group_IT_number 15
_symmetry_cell_setting 'monoclinic'
loop_
_space_group_symop_operation_xyz
x,y,z
-x,y,1/2-z
-x,-y,-z
x,-y,1/2+z
1/2+x,1/2+y,z
1/2-x,1/2+y,1/2-z
1/2-x,1/2-y,-z
1/2+x,1/2-y,1/2+z
loop_
_atom_site_type_symbol
_atom_site_label
_atom_site_fract_x
_atom_site_fract_y
_atom_site_fract_z
Si Si1 0.569091 0.491604 0.773430
Si Si2 0.895491 0.392585 0.538564
Si Si3 0.307686 0.590625 0.996347
Si Si4 0.951281 0.778315 0.531522
Si Si5 0.295766 0.644336 0.679740
Si Si6 0.656936 0.745498 0.135285
O O1 0.500000 0.595541 0.750000
O O2 0.551766 0.412742 0.880481
O O3 0.647413 0.590648 0.754431
O O4 0.583742 0.327426 0.700340
O O5 0.920159 0.584499 0.564902
O O6 0.835720 0.309960 0.621476
O O7 0.863428 0.386912 0.440287
O O8 0.966112 0.262790 0.520767
O O9 0.304255 0.416371 0.931644
O O10 0.250000 0.750000 0.000000
O O11 0.392279 0.653254 0.970708
O O12 0.296842 0.515319 0.104308
O O13 0.210680 0.691200 0.705080
#
# Coordination Sequence:
#
# PCOD9271916 Si02
#       6
#     8   8   8   8   8   8
#     4  11  24  41  60  89 127 166 202 252 316 371
#     4  10  20  39  63  89 120 153 209 250 304 357
#     4  10  20  36  62  91 117 154 204 248 299 364
#     4  10  21  37  63  89 119 161 198 255 301 368
#     4  10  23  37  60  86 118 157 198 248 301 364
#     4  11  22  39  64  89 123 159 201 259 306 367
#
# _framework density 24.485312
#
# number of rings (size 3 to 8) (size 9 to 14) (size 15 to 20)
#    0.000    1.667    1.667    4.000    2.333    6.000 
#    0.000    2.500    0.000    0.000    0.000    0.000 
#    0.000    0.000    0.000    0.000    0.000    0.000 
#
# Total GULP energy -134138.714637 kJ/mol
# GULP energy per Si atom -5589.113110 kJ/mol
# Density = 2.442958 g / cm^3
# Si number density = 24.485312 Si / 1000 Ang^3
#
#
#
# Elastic Constant Matrix: (Units=GPa)
#
#
# Indices 1 2 3 4 5 6 
#
# 1 159.5432 20.3406 13.8005 0.0000 33.9294 0.0000
# 2 20.3406 81.0134 9.0472 0.0000 11.9978 0.0000
# 3 13.8005 9.0472 37.1043 0.0000 22.4815 0.0000
# 4 0.0000 0.0000 0.0000 9.6823 0.0000 11.0216
# 5 33.9294 11.9978 22.4815 0.0000 33.8383 0.0000
# 6 0.0000 0.0000 0.0000 11.0216 0.0000 50.5742
#
#
#
# Elastic Compliance Matrix: (Units=1/GPa)
#
#
# Indices 1 2 3 4 5 6 
#
# 1 0.008259 -0.000940 0.003302 0.000000 -0.010142 0.000000
# 2 -0.000940 0.013144 -0.001009 0.000000 -0.003047 0.000000
# 3 0.003302 -0.001009 0.046461 0.000000 -0.033821 0.000000
# 4 0.000000 0.000000 0.000000 0.137355 0.000000 -0.029934
# 5 -0.010142 -0.003047 -0.033821 0.000000 0.063272 0.000000
# 6 0.000000 0.000000 0.000000 -0.029934 0.000000 0.026296
#
#
# Mechanical properties :
#
#
# Convention : Reuss Voigt Hill
#
# Bulk Modulus (GPa) = 14.17037 40.44861 27.30949
# Shear Modulus (GPa) = 15.84260 34.45046 25.14653
#
# Velocity S-wave (km/s) = 2.54643 3.75505 3.20817
# Velocity P-wave (km/s) = 3.80073 5.94608 4.99007
#
# Compressibility (1/GPa) = 0.07056980
#
# Stress axis : x y z
#
# Youngs Moduli (GPa) = 121.08082 76.08217 21.52338
#
# Poissons Ratio (x) = 0.07155 -0.07108
# Poissons Ratio (y) = 0.11387 0.02171
# Poissons Ratio (z) = -0.39986 0.07676
#
# Static dielectric constant tensor:
#      x y z
#    x 1.967520 0.000000 0.051700 
#    y 0.000000 1.944630 0.000000 
#    z 0.051700 0.000000 1.985820 
# 
# From -- ./inp_files/159751.got.cif
#   From: 2010.05.17/outbox.cif.g08.bks.cpg/sg15_80_cif.got.tgz:159751.got - 2010.06.03 18:47:42.
