data_PCOD9271877
_publ_section_title
;
Structure prediction by ZEFSAII (Michael W. Deem and Ramdas Pophale) SiO2 
 PCOD9271877
Probable space group: C 2/C
;
_chemical_formula_sum "Si O2"
_cell_formula_units_Z 52
_cell_length_a 15.314236
_cell_length_b 9.907706
_cell_length_c 19.573145
_cell_angle_alpha 90.000000
_cell_angle_beta 135.184017
_cell_angle_gamma 90.000000
_cell_volume 2093.219385
_symmetry_space_group_name_H-M "C 2/C"
_symmetry_group_IT_number 15
_symmetry_cell_setting 'monoclinic'
loop_
_space_group_symop_operation_xyz
x,y,z
-x,y,1/2-z
-x,-y,-z
x,-y,1/2+z
1/2+x,1/2+y,z
1/2-x,1/2+y,1/2-z
1/2-x,1/2-y,-z
1/2+x,1/2-y,1/2+z
loop_
_atom_site_type_symbol
_atom_site_label
_atom_site_fract_x
_atom_site_fract_y
_atom_site_fract_z
Si Si1 0.806133 0.858630 0.170553
Si Si2 0.519387 0.170880 0.465865
Si Si3 0.500000 0.134046 0.750000
Si Si4 0.832371 0.001359 0.550998
Si Si5 0.424788 0.112094 0.561762
Si Si6 0.420367 0.537326 0.864836
Si Si7 0.219864 0.427683 0.856337
O O1 0.870475 0.919425 0.139785
O O2 0.844340 0.705942 0.206682
O O3 0.832702 0.950241 0.250158
O O4 0.661547 0.842131 0.071059
O O5 0.445235 0.161874 0.496107
O O6 0.473871 0.312603 0.409828
O O7 0.513499 0.040352 0.411830
O O8 0.477877 0.185951 0.659352
O O9 0.623449 0.047446 0.807740
O O10 0.956547 0.952472 0.583553
O O11 0.764076 0.097338 0.458454
O O12 0.723441 0.900273 0.510855
O O13 0.661947 0.527212 0.121872
#
# Coordination Sequence:
#
# PCOD9271877 Si02
#       7
#     8   8   4   8   8   8   8
#     4  11  23  37  64  95 126 161 212 263 313 370
#     4  10  21  39  61  92 131 164 210 255 319 381
#     4  10  20  36  62  88 116 170 214 248 304 380
#     4  10  22  39  62  94 121 160 209 261 310 365
#     4   9  20  38  63  90 128 165 209 264 308 371
#     4  12  24  39  66  96 125 166 210 262 319 374
#     4  11  23  39  64  92 129 162 209 267 317 363
#
# _framework density 24.842116000000001
#
# number of rings (size 3 to 8) (size 9 to 14) (size 15 to 20)
#    0.000    1.538    1.538    3.231    6.462    2.462 
#    0.000    3.077    3.385    1.846    0.000    0.000 
#    0.000    0.000    0.000    0.000    0.000    0.000 
#
# Total GULP energy -145241.046684 kJ/mol
# GULP energy per Si atom -5586.194103 kJ/mol
# Density = 2.478557 g / cm^3
# Si number density = 24.842116 Si / 1000 Ang^3
#
#
#
# Elastic Constant Matrix: (Units=GPa)
#
#
# Indices 1 2 3 4 5 6 
#
# 1 160.9408 13.0767 34.6234 0.0000 -8.7319 0.0000
# 2 13.0767 57.1980 17.3362 0.0000 -19.9071 0.0000
# 3 34.6234 17.3362 116.6451 0.0000 -27.7953 0.0000
# 4 0.0000 0.0000 0.0000 20.4393 0.0000 -8.5246
# 5 -8.7319 -19.9071 -27.7953 0.0000 38.8325 0.0000
# 6 0.0000 0.0000 0.0000 -8.5246 0.0000 17.3388
#
#
#
# Elastic Compliance Matrix: (Units=1/GPa)
#
#
# Indices 1 2 3 4 5 6 
#
# 1 0.006694 -0.001098 -0.001928 0.000000 -0.000438 0.000000
# 2 -0.001098 0.021505 -0.000364 0.000000 0.010517 0.000000
# 3 -0.001928 -0.000364 0.010913 0.000000 0.007191 0.000000
# 4 0.000000 0.000000 0.000000 0.061545 0.000000 0.030259
# 5 -0.000438 0.010517 0.007191 0.000000 0.036192 0.000000
# 6 0.000000 0.000000 0.000000 0.030259 0.000000 0.072551
#
#
# Mechanical properties :
#
#
# Convention : Reuss Voigt Hill
#
# Bulk Modulus (GPa) = 30.93052 51.65074 41.29063
# Shear Modulus (GPa) = 22.03062 33.30530 27.66796
#
# Velocity S-wave (km/s) = 2.98119 3.66550 3.34091
# Velocity P-wave (km/s) = 4.93233 6.22505 5.61601
#
# Compressibility (1/GPa) = 0.03233053
#
# Stress axis : x y z
#
# Youngs Moduli (GPa) = 149.39374 46.50128 91.63423
#
# Poissons Ratio (x) = 0.05108 0.17667
# Poissons Ratio (y) = 0.16409 0.03336
# Poissons Ratio (z) = 0.28803 0.01693
#
# Static dielectric constant tensor:
#      x y z
#    x 1.977820 0.000000 -0.016630 
#    y 0.000000 2.042230 0.000000 
#    z -0.016630 0.000000 1.993490 
# 
# From -- ./inp_files/248893.got.cif
#   From: 2010.05.17/outbox.cif.g08.bks.cpg/sg15_125_cif.got.tgz:248893.got - 2010.06.03 18:47:42.
