data_PCOD9271639
_publ_section_title
;
Structure prediction by ZEFSAII (Michael W. Deem and Ramdas Pophale) SiO2 
 PCOD9271639
Probable space group: C 2/C
;
_chemical_formula_sum "Si O2"
_cell_formula_units_Z 52
_cell_length_a 18.375307
_cell_length_b 20.296985
_cell_length_c 9.511818
_cell_angle_alpha 90.000000
_cell_angle_beta 43.743444
_cell_angle_gamma 90.000000
_cell_volume 2452.890345
_symmetry_space_group_name_H-M "C 2/C"
_symmetry_group_IT_number 15
_symmetry_cell_setting 'monoclinic'
loop_
_space_group_symop_operation_xyz
x,y,z
-x,y,1/2-z
-x,-y,-z
x,-y,1/2+z
1/2+x,1/2+y,z
1/2-x,1/2+y,1/2-z
1/2-x,1/2-y,-z
1/2+x,1/2-y,1/2+z
loop_
_atom_site_type_symbol
_atom_site_label
_atom_site_fract_x
_atom_site_fract_y
_atom_site_fract_z
Si Si1 0.147043 0.823227 0.748824
Si Si2 0.757569 0.493081 0.769539
Si Si3 0.141019 0.680366 0.724874
Si Si4 0.125549 0.123471 0.574616
Si Si5 0.000000 0.147688 0.250000
Si Si6 0.898056 0.458124 0.316217
Si Si7 0.304927 0.358109 0.210437
O O1 0.092695 0.752814 0.787765
O O2 0.261244 0.821400 0.520267
O O3 0.073680 0.878508 0.776838
O O4 0.154970 0.830697 0.902567
O O5 0.804762 0.461150 0.562162
O O6 0.854138 0.504416 0.742209
O O7 0.705788 0.563652 0.807676
O O8 0.676220 0.446187 0.961773
O O9 0.076236 0.615962 0.773284
O O10 0.196802 0.670966 0.798812
O O11 0.170587 0.148240 0.659951
O O12 0.000000 0.118917 0.750000
O O13 0.900571 0.171367 0.484565
O O14 0.000000 0.487025 0.250000
#
# Coordination Sequence:
#
# PCOD9271639 Si02
#       7
#     8   8   8   8   4   8   8
#     4  10  20  38  60  84 121 154 203 249 300 358
#     4  11  23  40  59  93 127 158 202 255 299 368
#     4   9  21  39  60  85 113 163 202 250 303 351
#     4  12  23  37  62  93 125 163 198 243 317 363
#     4  10  20  36  60  90 120 156 206 246 294 382
#     4  11  22  40  65  88 120 164 210 253 303 353
#     4  10  22  38  59  88 127 158 198 247 307 362
#
# _framework density 21.199480999999999
#
# number of rings (size 3 to 8) (size 9 to 14) (size 15 to 20)
#    0.000    1.538    4.615    0.462    2.154    1.231 
#    0.000    0.000    3.385    0.000    0.000    0.000 
#    0.000    0.000    0.000    0.000    0.000    0.000 
#
# Total GULP energy -144825.253945 kJ/mol
# GULP energy per Si atom -5570.202075 kJ/mol
# Density = 2.115123 g / cm^3
# Si number density = 21.199481 Si / 1000 Ang^3
#
#
#
# Elastic Constant Matrix: (Units=GPa)
#
#
# Indices 1 2 3 4 5 6 
#
# 1 122.2913 19.4530 45.0593 0.0000 31.2608 0.0000
# 2 19.4530 72.5413 1.1755 0.0000 11.1412 0.0000
# 3 45.0593 1.1755 52.0392 0.0000 32.3329 0.0000
# 4 0.0000 0.0000 0.0000 16.3250 0.0000 4.1407
# 5 31.2608 11.1412 32.3329 0.0000 43.3579 0.0000
# 6 0.0000 0.0000 0.0000 4.1407 0.0000 10.4821
#
#
#
# Elastic Compliance Matrix: (Units=1/GPa)
#
#
# Indices 1 2 3 4 5 6 
#
# 1 0.012727 -0.003184 -0.010724 0.000000 -0.000361 0.000000
# 2 -0.003184 0.015533 0.006446 0.000000 -0.006503 0.000000
# 3 -0.010724 0.006446 0.045804 0.000000 -0.028082 0.000000
# 4 0.000000 0.000000 0.000000 0.068077 0.000000 -0.026892
# 5 -0.000361 -0.006503 -0.028082 0.000000 0.045936 0.000000
# 6 0.000000 0.000000 0.000000 -0.026892 0.000000 0.106024
#
#
# Mechanical properties :
#
#
# Convention : Reuss Voigt Hill
#
# Bulk Modulus (GPa) = 16.90847 42.02748 29.46797
# Shear Modulus (GPa) = 15.20968 26.11192 20.66080
#
# Velocity S-wave (km/s) = 2.68144 3.51340 3.12523
# Velocity P-wave (km/s) = 4.19286 6.02714 5.19165
#
# Compressibility (1/GPa) = 0.05914195
#
# Stress axis : x y z
#
# Youngs Moduli (GPa) = 78.57142 64.37761 21.83226
#
# Poissons Ratio (x) = 0.20496 0.23413
# Poissons Ratio (y) = 0.25015 -0.14074
# Poissons Ratio (z) = 0.84259 -0.41501
#
# Static dielectric constant tensor:
#      x y z
#    x 1.770560 0.000000 0.013360 
#    y 0.000000 1.862100 0.000000 
#    z 0.013360 0.000000 1.754340 
# 
# From -- ./inp_files/42049.got.cif
#   From: 2010.05.17/outbox.cif.g08.bks.cpg/sg15_22_cif.got.tgz:42049.got - 2010.06.03 18:47:42.
