data_PCOD9271286
_publ_section_title
;
Structure prediction by ZEFSAII (Michael W. Deem and Ramdas Pophale) SiO2 
 PCOD9271286
Probable space group: C 2/C
;
_chemical_formula_sum "Si O2"
_cell_formula_units_Z 48
_cell_length_a 12.911773
_cell_length_b 15.996182
_cell_length_c 9.576158
_cell_angle_alpha 90.000000
_cell_angle_beta 92.459737
_cell_angle_gamma 90.000000
_cell_volume 1976.028438
_symmetry_space_group_name_H-M "C 2/C"
_symmetry_group_IT_number 15
_symmetry_cell_setting 'monoclinic'
loop_
_space_group_symop_operation_xyz
x,y,z
-x,y,1/2-z
-x,-y,-z
x,-y,1/2+z
1/2+x,1/2+y,z
1/2-x,1/2+y,1/2-z
1/2-x,1/2-y,-z
1/2+x,1/2-y,1/2+z
loop_
_atom_site_type_symbol
_atom_site_label
_atom_site_fract_x
_atom_site_fract_y
_atom_site_fract_z
Si Si1 0.116441 0.150053 0.787802
Si Si2 0.878833 0.400701 0.056409
Si Si3 0.500000 0.801318 0.250000
Si Si4 0.000000 0.011754 0.250000
Si Si5 0.784582 0.308897 0.793816
Si Si6 0.911723 0.157806 0.399110
Si Si7 0.075003 0.573579 0.377935
O O1 0.190912 0.210349 0.706400
O O2 0.000000 0.183381 0.750000
O O3 0.098418 0.051380 0.758573
O O4 0.138824 0.158275 0.952794
O O5 0.808978 0.351267 0.943033
O O6 0.994937 0.403939 0.994704
O O7 0.901390 0.356758 0.204429
O O8 0.850405 0.497741 0.073548
O O9 0.481751 0.739032 0.378762
O O10 0.020157 0.075016 0.123111
O O11 0.673241 0.333367 0.727455
O O12 0.863733 0.350138 0.685841
O O13 0.000000 0.540474 0.250000
#
# Coordination Sequence:
#
# PCOD9271286 Si02
#       7
#     8   8   4   4   8   8   8
#     4  10  21  41  66  84 114 164 205 241 294 367
#     4  10  20  36  58  87 117 158 190 243 302 359
#     4  11  22  38  59  78 120 160 195 232 302 359
#     4   9  24  42  65  84 120 168 199 240 304 369
#     4  11  22  37  61  94 118 151 204 257 291 342
#     4  11  23  41  59  89 119 154 200 252 295 353
#     4   9  18  36  59  83 119 154 196 236 299 359
#
# _framework density 24.291148
#
# number of rings (size 3 to 8) (size 9 to 14) (size 15 to 20)
#    0.500    1.333    0.833    4.500    0.000    2.000 
#    3.000    0.000    0.000    0.000    0.000    0.000 
#    0.000    0.000    0.000    0.000    0.000    0.000 
#
# Total GULP energy -134080.317770 kJ/mol
# GULP energy per Si atom -5586.679907 kJ/mol
# Density = 2.423586 g / cm^3
# Si number density = 24.291148 Si / 1000 Ang^3
#
#
#
# Elastic Constant Matrix: (Units=GPa)
#
#
# Indices 1 2 3 4 5 6 
#
# 1 53.2382 18.0960 6.2415 0.0000 11.2981 0.0000
# 2 18.0960 151.7644 32.4485 0.0000 6.6310 0.0000
# 3 6.2415 32.4485 85.4233 0.0000 17.2452 0.0000
# 4 0.0000 0.0000 0.0000 21.8662 0.0000 6.7074
# 5 11.2981 6.6310 17.2452 0.0000 36.1452 0.0000
# 6 0.0000 0.0000 0.0000 6.7074 0.0000 -2.8014
#
#
#
# Elastic Compliance Matrix: (Units=1/GPa)
#
#
# Indices 1 2 3 4 5 6 
#
# 1 0.020864 -0.002349 0.000661 0.000000 -0.006406 0.000000
# 2 -0.002349 0.007436 -0.002795 0.000000 0.000704 0.000000
# 3 0.000661 -0.002795 0.014007 0.000000 -0.006377 0.000000
# 4 0.000000 0.000000 0.000000 0.026367 0.000000 0.063131
# 5 -0.006406 0.000704 -0.006377 0.000000 0.032582 0.000000
# 6 0.000000 0.000000 0.000000 0.063131 0.000000 -0.205808
#
#
# Mechanical properties :
#
#
# Convention : Reuss Voigt Hill
#
# Bulk Modulus (GPa) = 29.99303 44.88866 37.44085
# Shear Modulus (GPa) = -59.19184 26.61798 -16.28693
#
# Velocity S-wave (km/s) = -4.94172 3.31386 -2.59219
# Velocity P-wave (km/s) = 4.49295 5.75863 2.54707
#
# Compressibility (1/GPa) = 0.03334108
#
# Stress axis : x y z
#
# Youngs Moduli (GPa) = 47.92944 134.47837 71.39196
#
# Poissons Ratio (x) = 0.31592 -0.04720
# Poissons Ratio (y) = 0.11260 0.19955
# Poissons Ratio (z) = -0.03169 0.37588
#
# Static dielectric constant tensor:
#      x y z
#    x 1.930480 0.000000 -0.019860 
#    y 0.000000 1.960610 0.000000 
#    z -0.019860 0.000000 1.927440 
# 
# From -- ./inp_files/56457.got.cif
#   From: 2010.05.17/outbox.cif.g08.bks.cpg/sg15_29_cif.got.tgz:56457.got - 2010.06.03 18:47:42.
