data_PCOD9271859
_publ_section_title
;
Structure prediction by ZEFSAII (Michael W. Deem and Ramdas Pophale) SiO2 
 PCOD9271859
Probable space group: C 2/C
;
_chemical_formula_sum "Si O2"
_cell_formula_units_Z 56
_cell_length_a 19.481960
_cell_length_b 26.353180
_cell_length_c 5.402443
_cell_angle_alpha 90.000000
_cell_angle_beta 99.017966
_cell_angle_gamma 90.000000
_cell_volume 2739.392141
_symmetry_space_group_name_H-M "C 2/C"
_symmetry_group_IT_number 15
_symmetry_cell_setting 'monoclinic'
loop_
_space_group_symop_operation_xyz
x,y,z
-x,y,1/2-z
-x,-y,-z
x,-y,1/2+z
1/2+x,1/2+y,z
1/2-x,1/2+y,1/2-z
1/2-x,1/2-y,-z
1/2+x,1/2-y,1/2+z
loop_
_atom_site_type_symbol
_atom_site_label
_atom_site_fract_x
_atom_site_fract_y
_atom_site_fract_z
Si Si1 0.801863 0.277618 0.337981
Si Si2 0.297735 0.676574 0.133592
Si Si3 0.690306 0.120917 0.438949
Si Si4 0.429444 0.549651 0.649355
Si Si5 0.582507 0.966988 0.783157
Si Si6 0.929718 0.112282 0.141429
Si Si7 0.769967 0.971529 0.160938
O O1 0.750000 0.250000 0.500000
O O2 0.837632 0.227084 0.257004
O O3 0.840660 0.326690 0.466887
O O4 0.753016 0.302190 0.103002
O O5 0.248286 0.643794 0.286098
O O6 0.358174 0.640730 0.082519
O O7 0.630621 0.083323 0.306329
O O8 0.735835 0.084233 0.643524
O O9 0.500000 0.517552 0.750000
O O10 0.423055 0.572986 0.370387
O O11 0.353817 0.528475 0.681577
O O12 0.440201 0.590178 0.875156
O O13 0.500000 0.954096 0.750000
O O14 0.595396 0.000642 0.543260
O O15 0.000000 0.142079 0.250000
O O16 0.747864 0.998853 0.893743
#
# Coordination Sequence:
#
# PCOD9271859 Si02
#       7
#     8   8   8   8   8   8   8
#     4   9  21  37  60  91 119 154 201 251 316 363
#     4  10  20  37  63  90 120 159 204 256 305 365
#     4  11  22  37  65  88 122 160 199 256 304 371
#     4  10  21  38  56  80 116 163 203 243 296 345
#     4  10  23  43  66  94 128 165 204 252 316 385
#     4  10  20  36  62  86 116 162 204 241 296 353
#     4  12  25  36  55  89 120 153 204 250 291 343
#
# _framework density 20.442492999999999
#
# number of rings (size 3 to 8) (size 9 to 14) (size 15 to 20)
#    0.000    1.714    1.429    2.571    6.000    0.571 
#    0.000    0.000    9.429    0.000    0.000    0.000 
#    0.000    0.000    0.000    0.000    0.000    0.000 
#
# Total GULP energy -155976.329955 kJ/mol
# GULP energy per Si atom -5570.583213 kJ/mol
# Density = 2.039597 g / cm^3
# Si number density = 20.442493 Si / 1000 Ang^3
#
#
#
# Elastic Constant Matrix: (Units=GPa)
#
#
# Indices 1 2 3 4 5 6 
#
# 1 81.1702 37.0953 13.4968 0.0000 4.3297 0.0000
# 2 37.0953 123.2433 41.9539 0.0000 -1.9775 0.0000
# 3 13.4968 41.9539 83.3088 0.0000 -14.3001 0.0000
# 4 0.0000 0.0000 0.0000 30.7652 0.0000 4.3589
# 5 4.3297 -1.9775 -14.3001 0.0000 29.3465 0.0000
# 6 0.0000 0.0000 0.0000 4.3589 0.0000 10.6708
#
#
#
# Elastic Compliance Matrix: (Units=1/GPa)
#
#
# Indices 1 2 3 4 5 6 
#
# 1 0.014489 -0.004157 -0.000730 0.000000 -0.002773 0.000000
# 2 -0.004157 0.011084 -0.005102 0.000000 -0.001126 0.000000
# 3 -0.000730 -0.005102 0.015988 0.000000 0.007554 0.000000
# 4 0.000000 0.000000 0.000000 0.034501 0.000000 -0.014093
# 5 -0.002773 -0.001126 0.007554 0.000000 0.038090 0.000000
# 6 0.000000 0.000000 0.000000 -0.014093 0.000000 0.099470
#
#
# Mechanical properties :
#
#
# Convention : Reuss Voigt Hill
#
# Bulk Modulus (GPa) = 46.33198 52.53490 49.43344
# Shear Modulus (GPa) = 20.76469 27.16827 23.96648
#
# Velocity S-wave (km/s) = 3.19056 3.64951 3.42773
# Velocity P-wave (km/s) = 6.02384 6.59646 6.31664
#
# Compressibility (1/GPa) = 0.02158337
#
# Stress axis : x y z
#
# Youngs Moduli (GPa) = 69.01830 90.22134 62.54834
#
# Poissons Ratio (x) = 0.37506 0.04566
# Poissons Ratio (y) = 0.28691 0.31909
# Poissons Ratio (z) = 0.05038 0.46027
#
# Static dielectric constant tensor:
#      x y z
#    x 1.790820 0.000000 -0.026630 
#    y 0.000000 1.885960 0.000000 
#    z -0.026630 0.000000 1.793500 
# 
# From -- ./inp_files/13945.got.cif
#   From: 2010.05.17/outbox.cif.g08.bks.cpg/sg15_7_cif.got.tgz:13945.got - 2010.06.03 18:47:42.
