data_PCOD9271780
_publ_section_title
;
Structure prediction by ZEFSAII (Michael W. Deem and Ramdas Pophale) SiO2 
 PCOD9271780
Probable space group: C 2/C
;
_chemical_formula_sum "Si O2"
_cell_formula_units_Z 64
_cell_length_a 10.327546
_cell_length_b 18.770328
_cell_length_c 21.835407
_cell_angle_alpha 90.000000
_cell_angle_beta 39.706043
_cell_angle_gamma 90.000000
_cell_volume 2704.135721
_symmetry_space_group_name_H-M "C 2/C"
_symmetry_group_IT_number 15
_symmetry_cell_setting 'monoclinic'
loop_
_space_group_symop_operation_xyz
x,y,z
-x,y,1/2-z
-x,-y,-z
x,-y,1/2+z
1/2+x,1/2+y,z
1/2-x,1/2+y,1/2-z
1/2-x,1/2-y,-z
1/2+x,1/2-y,1/2+z
loop_
_atom_site_type_symbol
_atom_site_label
_atom_site_fract_x
_atom_site_fract_y
_atom_site_fract_z
Si Si1 0.777679 0.655454 0.903470
Si Si2 0.537635 0.231890 0.147212
Si Si3 0.859509 0.564257 0.074569
Si Si4 0.097169 0.576060 0.295202
Si Si5 0.978690 0.281721 0.995626
Si Si6 0.978799 0.002772 0.656136
Si Si7 0.296447 0.504936 0.536970
Si Si8 0.749747 0.641162 0.767474
O O1 0.644348 0.725691 0.959951
O O2 0.733503 0.633382 0.848028
O O3 0.017230 0.662708 0.825078
O O4 0.727578 0.588931 0.964936
O O5 0.462480 0.156102 0.198434
O O6 0.537366 0.222443 0.072957
O O7 0.383137 0.295949 0.211250
O O8 0.754395 0.255602 0.094795
O O9 0.867972 0.571061 0.144523
O O10 0.628015 0.543733 0.143171
O O11 0.947931 0.638544 0.016123
O O12 0.000000 0.500000 0.000000
O O13 0.306301 0.548668 0.190709
O O14 0.902047 0.525198 0.357967
O O15 0.141900 0.034416 0.548049
O O16 0.839783 0.068538 0.728910
O O17 0.500000 0.500000 0.500000
#
# Coordination Sequence:
#
# PCOD9271780 Si02
#       8
#     8   8   8   8   8   8   8   8
#     4  10  20  37  58  91 123 160 203 260 311 363
#     4   9  19  35  61  89 120 157 213 258 306 360
#     4  11  22  40  66  93 127 165 214 255 315 375
#     4  11  24  41  62  97 127 164 209 262 309 373
#     4   9  19  35  61  91 120 162 207 260 306 370
#     4  12  24  39  64  94 126 166 206 259 318 375
#     4  12  23  39  65  92 125 162 207 259 317 372
#     4  10  20  36  61  91 122 158 210 260 306 367
#
# _framework density 23.667449999999999
#
# number of rings (size 3 to 8) (size 9 to 14) (size 15 to 20)
#    0.000    1.500    3.750    1.875    5.250    0.500 
#    0.000    0.625    2.750    0.000    3.250    0.000 
#    0.000    0.000    0.000    0.000    0.000    0.000 
#
# Total GULP energy -178801.251584 kJ/mol
# GULP energy per Si atom -5587.539112 kJ/mol
# Density = 2.361358 g / cm^3
# Si number density = 23.667450 Si / 1000 Ang^3
#
#
#
# Elastic Constant Matrix: (Units=GPa)
#
#
# Indices 1 2 3 4 5 6 
#
# 1 98.2750 41.5643 49.9336 -0.0002 -38.6381 -0.0001
# 2 41.5643 210.3208 75.3774 -0.0121 -55.1333 0.0029
# 3 49.9336 75.3774 133.9609 -0.0132 -53.8328 0.0023
# 4 -0.0002 -0.0121 -0.0132 38.9115 0.0029 -14.2992
# 5 -38.6381 -55.1333 -53.8328 0.0029 48.8860 -0.0022
# 6 -0.0001 0.0029 0.0023 -14.2992 -0.0022 26.1327
#
#
#
# Elastic Compliance Matrix: (Units=1/GPa)
#
#
# Indices 1 2 3 4 5 6 
#
# 1 0.014942 0.000356 -0.001548 -0.000001 0.010507 0.000001
# 2 0.000356 0.006893 -0.001389 0.000001 0.006526 0.000001
# 3 -0.001548 -0.001389 0.013816 0.000004 0.012425 0.000002
# 4 -0.000001 0.000001 0.000004 0.032167 0.000004 0.017601
# 5 0.010507 0.006526 0.012425 0.000004 0.049802 0.000005
# 6 0.000001 0.000001 0.000002 0.017601 0.000005 0.047897
#
#
# Mechanical properties :
#
#
# Convention : Reuss Voigt Hill
#
# Bulk Modulus (GPa) = 32.79707 86.25638 59.52673
# Shear Modulus (GPa) = 27.64847 41.16481 34.40664
#
# Velocity S-wave (km/s) = 3.42161 4.17502 3.81695
# Velocity P-wave (km/s) = 5.43115 7.73080 6.68067
#
# Compressibility (1/GPa) = 0.03049053
#
# Stress axis : x y z
#
# Youngs Moduli (GPa) = 66.92356 145.08322 72.37920
#
# Poissons Ratio (x) = -0.05167 0.11202
# Poissons Ratio (y) = -0.02383 0.10051
# Poissons Ratio (z) = 0.10358 0.20148
#
# Static dielectric constant tensor:
#      x y z
#    x 1.980340 0.000000 0.075580 
#    y 0.000000 1.856840 0.000010 
#    z 0.075580 0.000010 1.926020 
# 
# From -- ./inp_files/311609.got.cif
#   From: 2010.05.17/outbox.cif.g08.bks.cpg/sg15_156_cif.got.tgz:311609.got - 2010.06.03 18:47:42.
