data_PCOD9271124
_publ_section_title
;
Structure prediction by ZEFSAII (Michael W. Deem and Ramdas Pophale) SiO2 
 PCOD9271124
Probable space group: C 2/C
;
_chemical_formula_sum "Si O2"
_cell_formula_units_Z 44
_cell_length_a 10.402857
_cell_length_b 28.651653
_cell_length_c 7.785761
_cell_angle_alpha 90.000000
_cell_angle_beta 123.752613
_cell_angle_gamma 90.000000
_cell_volume 1929.463318
_symmetry_space_group_name_H-M "C 2/C"
_symmetry_group_IT_number 15
_symmetry_cell_setting 'monoclinic'
loop_
_space_group_symop_operation_xyz
x,y,z
-x,y,1/2-z
-x,-y,-z
x,-y,1/2+z
1/2+x,1/2+y,z
1/2-x,1/2+y,1/2-z
1/2-x,1/2-y,-z
1/2+x,1/2-y,1/2+z
loop_
_atom_site_type_symbol
_atom_site_label
_atom_site_fract_x
_atom_site_fract_y
_atom_site_fract_z
Si Si1 0.920582 0.547517 0.873791
Si Si2 0.326721 0.177208 0.622945
Si Si3 0.000000 0.385374 0.750000
Si Si4 0.663587 0.644076 0.018544
Si Si5 0.640494 0.270383 0.716846
Si Si6 0.873533 0.100606 0.884801
O O1 0.732864 0.554165 0.707831
O O2 0.000000 0.556469 0.750000
O O3 0.000000 0.500000 0.000000
O O4 0.959232 0.583709 0.053455
O O5 0.500000 0.159528 0.750000
O O6 0.322884 0.215620 0.774719
O O7 0.284355 0.207151 0.424890
O O8 0.209675 0.134739 0.544053
O O9 0.845928 0.358182 0.685579
O O10 0.607572 0.695429 0.034340
O O11 0.558828 0.604967 0.042059
O O12 0.647798 0.628687 0.809944
O O13 0.500000 0.273578 0.750000
#
# Coordination Sequence:
#
# PCOD9271124 Si02
#       6
#     8   8   4   8   8   8
#     4  11  23  43  70  96 127 162 199 258 319 390
#     4  10  21  35  56  88 123 167 216 258 308 370
#     4  10  24  42  66  96 126 164 216 260 318 384
#     4  10  22  39  60  87 124 164 209 266 305 374
#     4  10  20  36  57  85 126 167 214 263 302 367
#     4  10  22  40  61  88 124 163 209 259 320 374
#
# _framework density 22.804268
#
# number of rings (size 3 to 8) (size 9 to 14) (size 15 to 20)
#    0.000    1.818    2.727    0.545    7.636    0.727 
#    0.000    2.727    4.000    0.000    0.000    0.000 
#    0.000    0.000    0.000    0.000    0.000    0.000 
#
# Total GULP energy -122596.641910 kJ/mol
# GULP energy per Si atom -5572.574632 kJ/mol
# Density = 2.275236 g / cm^3
# Si number density = 22.804268 Si / 1000 Ang^3
#
#
#
# Elastic Constant Matrix: (Units=GPa)
#
#
# Indices 1 2 3 4 5 6 
#
# 1 118.3017 37.8893 39.2922 0.0000 18.5741 0.0000
# 2 37.8893 96.2242 12.5517 0.0000 -0.4310 0.0000
# 3 39.2922 12.5517 55.0435 0.0000 9.0018 0.0000
# 4 0.0000 0.0000 0.0000 27.9730 0.0000 -3.7421
# 5 18.5741 -0.4310 9.0018 0.0000 44.4677 0.0000
# 6 0.0000 0.0000 0.0000 -3.7421 0.0000 18.0528
#
#
#
# Elastic Compliance Matrix: (Units=1/GPa)
#
#
# Indices 1 2 3 4 5 6 
#
# 1 0.012920 -0.004107 -0.007650 0.000000 -0.003888 0.000000
# 2 -0.004107 0.012033 -0.000116 0.000000 0.001855 0.000000
# 3 -0.007650 -0.000116 0.023925 0.000000 -0.001649 0.000000
# 4 0.000000 0.000000 0.000000 0.036768 0.000000 0.007621
# 5 -0.003888 0.001855 -0.001649 0.000000 0.024464 0.000000
# 6 0.000000 0.000000 0.000000 0.007621 0.000000 0.056973
#
#
# Mechanical properties :
#
#
# Convention : Reuss Voigt Hill
#
# Bulk Modulus (GPa) = 39.79074 49.89288 44.84181
# Shear Modulus (GPa) = 25.09981 30.08777 27.59379
#
# Velocity S-wave (km/s) = 3.32122 3.63628 3.48232
# Velocity P-wave (km/s) = 5.67398 6.28938 5.98959
#
# Compressibility (1/GPa) = 0.02513147
#
# Stress axis : x y z
#
# Youngs Moduli (GPa) = 77.40211 83.10572 41.79809
#
# Poissons Ratio (x) = 0.34129 0.31977
# Poissons Ratio (y) = 0.31787 0.00484
# Poissons Ratio (z) = 0.59214 0.00962
#
# Static dielectric constant tensor:
#      x y z
#    x 1.929200 0.000000 0.060100 
#    y 0.000000 1.885890 0.000000 
#    z 0.060100 0.000000 2.029560 
# 
# From -- ./inp_files/26001.got.cif
#   From: 2010.05.17/outbox.cif.g08.bks.cpg/sg15_14_cif.got.tgz:26001.got - 2010.06.03 18:47:42.
