data_PCOD9271378
_publ_section_title
;
Structure prediction by ZEFSAII (Michael W. Deem and Ramdas Pophale) SiO2 
 PCOD9271378
Probable space group: C 2/C
;
_chemical_formula_sum "Si O2"
_cell_formula_units_Z 48
_cell_length_a 7.590503
_cell_length_b 27.489804
_cell_length_c 13.792818
_cell_angle_alpha 90.000000
_cell_angle_beta 136.886227
_cell_angle_gamma 90.000000
_cell_volume 1966.987008
_symmetry_space_group_name_H-M "C 2/C"
_symmetry_group_IT_number 15
_symmetry_cell_setting 'monoclinic'
loop_
_space_group_symop_operation_xyz
x,y,z
-x,y,1/2-z
-x,-y,-z
x,-y,1/2+z
1/2+x,1/2+y,z
1/2-x,1/2+y,1/2-z
1/2-x,1/2-y,-z
1/2+x,1/2-y,1/2+z
loop_
_atom_site_type_symbol
_atom_site_label
_atom_site_fract_x
_atom_site_fract_y
_atom_site_fract_z
Si Si1 0.290639 0.759422 0.403566
Si Si2 0.746744 0.635123 0.917271
Si Si3 0.725600 0.089931 0.196236
Si Si4 0.751495 0.067680 0.913870
Si Si5 0.065001 0.157214 0.063443
Si Si6 0.989371 0.002280 0.856468
O O1 0.250000 0.750000 0.500000
O O2 0.371677 0.815294 0.423028
O O3 0.455995 0.714765 0.428056
O O4 0.000000 0.754982 0.250000
O O5 0.500000 0.623582 0.750000
O O6 0.647008 0.649207 0.984696
O O7 0.974062 0.596673 0.029129
O O8 0.737725 0.133007 0.280621
O O9 0.757010 0.037994 0.263240
O O10 0.000000 0.093949 0.250000
O O11 0.500000 0.067527 0.750000
O O12 0.956646 0.045391 0.919212
O O13 0.820485 0.121705 0.974293
O O14 0.770029 0.029840 0.009617
O O15 0.000000 0.018011 0.750000
#
# Coordination Sequence:
#
# PCOD9271378 Si02
#       6
#     8   8   8   8   8   8
#     4   9  17  33  57  85 115 150 194 242 289 347
#     4  10  21  36  61  94 120 152 206 254 290 352
#     4  10  21  39  61  87 121 163 203 244 306 369
#     4  10  22  38  58  90 121 151 203 259 303 354
#     4  10  20  36  59  83 118 160 197 241 300 362
#     4   9  21  40  61  82 114 161 202 244 304 371
#
# _framework density 24.402806000000002
#
# number of rings (size 3 to 8) (size 9 to 14) (size 15 to 20)
#    0.000    2.333    0.000    2.500    0.000    9.333 
#    0.000    2.500    0.000    0.000    0.000    0.000 
#    0.000    0.000    0.000    0.000    0.000    0.000 
#
# Total GULP energy -134013.168441 kJ/mol
# GULP energy per Si atom -5583.882018 kJ/mol
# Density = 2.434726 g / cm^3
# Si number density = 24.402806 Si / 1000 Ang^3
#
#
#
# Elastic Constant Matrix: (Units=GPa)
#
#
# Indices 1 2 3 4 5 6 
#
# 1 49.1032 4.0954 18.2409 0.0000 -13.6582 0.0000
# 2 4.0954 160.9618 35.1945 0.0000 7.5681 0.0000
# 3 18.2409 35.1945 195.2682 0.0000 0.8269 0.0000
# 4 0.0000 0.0000 0.0000 25.2403 0.0000 -6.1205
# 5 -13.6582 7.5681 0.8269 0.0000 37.5386 0.0000
# 6 0.0000 0.0000 0.0000 -6.1205 0.0000 24.5203
#
#
#
# Elastic Compliance Matrix: (Units=1/GPa)
#
#
# Indices 1 2 3 4 5 6 
#
# 1 0.023645 -0.000544 -0.002148 0.000000 0.008760 0.000000
# 2 -0.000544 0.006542 -0.001122 0.000000 -0.001492 0.000000
# 3 -0.002148 -0.001122 0.005527 0.000000 -0.000677 0.000000
# 4 0.000000 0.000000 0.000000 0.042172 0.000000 0.010526
# 5 0.008760 -0.001492 -0.000677 0.000000 0.030142 0.000000
# 6 0.000000 0.000000 0.000000 0.010526 0.000000 0.043410
#
#
# Mechanical properties :
#
#
# Convention : Reuss Voigt Hill
#
# Bulk Modulus (GPa) = 35.60416 57.82165 46.71291
# Shear Modulus (GPa) = 29.68632 40.64666 35.16649
#
# Velocity S-wave (km/s) = 3.49164 4.08567 3.80028
# Velocity P-wave (km/s) = 5.55673 6.78256 6.20001
#
# Compressibility (1/GPa) = 0.02808660
#
# Stress axis : x y z
#
# Youngs Moduli (GPa) = 42.29192 152.85925 180.93347
#
# Poissons Ratio (x) = 0.08313 0.38862
# Poissons Ratio (y) = 0.02300 0.20300
# Poissons Ratio (z) = 0.09084 0.17150
#
# Static dielectric constant tensor:
#      x y z
#    x 2.005880 0.000000 -0.002640 
#    y 0.000000 2.016650 0.000000 
#    z -0.002640 0.000000 1.923290 
# 
# From -- ./inp_files/139017.got.cif
#   From: 2010.05.17/outbox.cif.g08.bks.cpg/sg15_70_cif.got.tgz:139017.got - 2010.06.03 18:47:42.
