data_PCOD9271420
_publ_section_title
;
Structure prediction by ZEFSAII (Michael W. Deem and Ramdas Pophale) SiO2 
 PCOD9271420
Probable space group: C 2/C
;
_chemical_formula_sum "Si O2"
_cell_formula_units_Z 40
_cell_length_a 11.561676
_cell_length_b 8.205448
_cell_length_c 21.635858
_cell_angle_alpha 90.000000
_cell_angle_beta 119.774741
_cell_angle_gamma 90.000000
_cell_volume 1781.595739
_symmetry_space_group_name_H-M "C 2/C"
_symmetry_group_IT_number 15
_symmetry_cell_setting 'monoclinic'
loop_
_space_group_symop_operation_xyz
x,y,z
-x,y,1/2-z
-x,-y,-z
x,-y,1/2+z
1/2+x,1/2+y,z
1/2-x,1/2+y,1/2-z
1/2-x,1/2-y,-z
1/2+x,1/2-y,1/2+z
loop_
_atom_site_type_symbol
_atom_site_label
_atom_site_fract_x
_atom_site_fract_y
_atom_site_fract_z
Si Si1 0.724414 0.254515 0.731922
Si Si2 0.513744 0.889293 0.098942
Si Si3 0.446802 0.438433 0.338548
Si Si4 0.030042 0.719402 0.043423
Si Si5 0.661713 0.315799 0.855825
O O1 0.654561 0.115865 0.671784
O O2 0.669937 0.423875 0.689302
O O3 0.878465 0.210117 0.782839
O O4 0.665661 0.260183 0.785897
O O5 0.411403 0.813335 0.119867
O O6 0.469654 0.065365 0.063841
O O7 0.523295 0.778641 0.039955
O O8 0.482951 0.374590 0.416189
O O9 0.574283 0.521259 0.341132
O O10 0.186763 0.673936 0.081627
#
# Coordination Sequence:
#
# PCOD9271420 Si02
#       5
#     8   8   8   8   8
#     4  10  20  36  59  86 114 150 192 238 286 340
#     4  10  20  38  60  84 119 153 191 235 284 341
#     4  10  20  37  60  84 114 149 191 236 285 337
#     4  10  22  39  59  86 118 153 190 237 284 339
#     4  10  21  39  60  83 115 155 192 236 286 338
#
# _framework density 22.451782999999999
#
# number of rings (size 3 to 8) (size 9 to 14) (size 15 to 20)
#    0.000    2.000    0.000    5.400    0.000    3.200 
#    0.000   24.000    0.000    0.000    0.000    1.400 
#    0.000    0.000    0.000    0.000    0.000    0.000 
#
# Total GULP energy -111747.908265 kJ/mol
# GULP energy per Si atom -5587.395413 kJ/mol
# Density = 2.240068 g / cm^3
# Si number density = 22.451783 Si / 1000 Ang^3
#
#
#
# Elastic Constant Matrix: (Units=GPa)
#
#
# Indices 1 2 3 4 5 6 
#
# 1 81.7676 21.5367 46.1801 0.0000 -17.2605 0.0000
# 2 21.5367 61.1433 26.4380 0.0000 -18.7364 0.0000
# 3 46.1801 26.4380 140.8530 0.0000 -7.9693 0.0000
# 4 0.0000 0.0000 0.0000 46.1629 0.0000 -6.3393
# 5 -17.2605 -18.7364 -7.9693 0.0000 17.3033 0.0000
# 6 0.0000 0.0000 0.0000 -6.3393 0.0000 31.6758
#
#
#
# Elastic Compliance Matrix: (Units=1/GPa)
#
#
# Indices 1 2 3 4 5 6 
#
# 1 0.018595 0.001021 -0.005315 0.000000 0.017206 0.000000
# 2 0.001021 0.026001 -0.003660 0.000000 0.027487 0.000000
# 3 -0.005315 -0.003660 0.009246 0.000000 -0.005006 0.000000
# 4 0.000000 0.000000 0.000000 0.022275 0.000000 0.004458
# 5 0.017206 0.027487 -0.005006 0.000000 0.102415 0.000000
# 6 0.000000 0.000000 0.000000 0.004458 0.000000 0.032462
#
#
# Mechanical properties :
#
#
# Convention : Reuss Voigt Hill
#
# Bulk Modulus (GPa) = 26.36130 52.45262 39.40696
# Shear Modulus (GPa) = 20.87298 31.66902 26.27100
#
# Velocity S-wave (km/s) = 3.05237 3.75978 3.42439
# Velocity P-wave (km/s) = 4.91827 6.50085 5.76413
#
# Compressibility (1/GPa) = 0.03793440
#
# Stress axis : x y z
#
# Youngs Moduli (GPa) = 53.77931 38.46006 108.15791
#
# Poissons Ratio (x) = -0.03927 0.57481
# Poissons Ratio (y) = -0.05491 0.39585
# Poissons Ratio (z) = 0.28581 0.14076
#
# Static dielectric constant tensor:
#      x y z
#    x 1.810200 0.000000 0.036300 
#    y 0.000000 1.920690 0.000000 
#    z 0.036300 0.000000 1.831820 
# 
# From -- ./inp_files/235918.got.cif
#   From: 2010.05.17/outbox.cif.g08.bks.cpg/sg15_118_cif.got.tgz:235918.got - 2010.06.03 18:47:42.
