data_PCOD9271189
_publ_section_title
;
Structure prediction by ZEFSAII (Michael W. Deem and Ramdas Pophale) SiO2 
 PCOD9271189
Probable space group: C 2/C
;
_chemical_formula_sum "Si O2"
_cell_formula_units_Z 56
_cell_length_a 21.276811
_cell_length_b 11.688239
_cell_length_c 14.361530
_cell_angle_alpha 90.000000
_cell_angle_beta 119.004451
_cell_angle_gamma 90.000000
_cell_volume 3123.610577
_symmetry_space_group_name_H-M "C 2/C"
_symmetry_group_IT_number 15
_symmetry_cell_setting 'monoclinic'
loop_
_space_group_symop_operation_xyz
x,y,z
-x,y,1/2-z
-x,-y,-z
x,-y,1/2+z
1/2+x,1/2+y,z
1/2-x,1/2+y,1/2-z
1/2-x,1/2-y,-z
1/2+x,1/2-y,1/2+z
loop_
_atom_site_type_symbol
_atom_site_label
_atom_site_fract_x
_atom_site_fract_y
_atom_site_fract_z
Si Si1 0.419110 0.919761 0.230018
Si Si2 0.439147 0.917755 0.910823
Si Si3 0.518734 0.338623 0.033561
Si Si4 0.407270 0.673960 0.300909
Si Si5 0.882277 0.035162 0.447639
Si Si6 0.332033 0.389376 0.570249
Si Si7 0.170963 0.366529 0.508804
O O1 0.500000 0.899837 0.250000
O O2 0.395506 0.807025 0.270519
O O3 0.366693 0.929612 0.105042
O O4 0.419592 0.026726 0.298723
O O5 0.468580 0.788974 0.924569
O O6 0.370950 0.906249 0.930051
O O7 0.500000 0.000000 0.000000
O O8 0.486302 0.334880 0.904253
O O9 0.453194 0.401070 0.038772
O O10 0.586440 0.422091 0.081381
O O11 0.357951 0.620777 0.348144
O O12 0.392408 0.609528 0.193906
O O13 0.834804 0.990764 0.497475
O O14 0.255650 0.386882 0.567152
O O15 0.339923 0.268975 0.520336
#
# Coordination Sequence:
#
# PCOD9271189 Si02
#       7
#     8   8   8   8   8   8   8
#     4  11  21  34  59  85 107 148 189 231 283 333
#     4  12  19  35  60  82 114 138 184 243 278 320
#     4   9  18  33  53  83 111 137 181 233 279 316
#     4   9  19  32  57  81 107 148 186 225 279 329
#     4   9  18  34  55  83 113 140 182 237 280 325
#     4  10  20  36  58  80 115 148 193 225 273 343
#     4  10  22  36  55  87 110 149 192 232 269 340
#
# _framework density 17.927972
#
# number of rings (size 3 to 8) (size 9 to 14) (size 15 to 20)
#    0.857    1.143    4.286    0.000    2.000    1.143 
#    0.000    1.429    0.000    3.429    0.000    0.000 
#    0.000    0.000    0.000    0.000    0.000    0.000 
#
# Total GULP energy -155872.895371 kJ/mol
# GULP energy per Si atom -5566.889120 kJ/mol
# Density = 1.788717 g / cm^3
# Si number density = 17.927972 Si / 1000 Ang^3
#
#
#
# Elastic Constant Matrix: (Units=GPa)
#
#
# Indices 1 2 3 4 5 6 
#
# 1 70.4855 29.1621 13.1060 0.0000 -17.2340 0.0000
# 2 29.1621 103.3700 28.3721 0.0000 -16.0836 0.0000
# 3 13.1060 28.3721 63.6226 0.0000 -9.5822 0.0000
# 4 0.0000 0.0000 0.0000 28.4021 0.0000 -12.7677
# 5 -17.2340 -16.0836 -9.5822 0.0000 20.7820 0.0000
# 6 0.0000 0.0000 0.0000 -12.7677 0.0000 21.1365
#
#
#
# Elastic Compliance Matrix: (Units=1/GPa)
#
#
# Indices 1 2 3 4 5 6 
#
# 1 0.018727 -0.003139 -0.000521 0.000000 0.012861 0.000000
# 2 -0.003139 0.012502 -0.004152 0.000000 0.005158 0.000000
# 3 -0.000521 -0.004152 0.018406 0.000000 0.004842 0.000000
# 4 0.000000 0.000000 0.000000 0.048333 0.000000 0.029196
# 5 0.012861 0.005158 0.004842 0.000000 0.065008 0.000000
# 6 0.000000 0.000000 0.000000 0.029196 0.000000 0.064948
#
#
# Mechanical properties :
#
#
# Convention : Reuss Voigt Hill
#
# Bulk Modulus (GPa) = 29.40218 42.08431 35.74324
# Shear Modulus (GPa) = 19.61681 25.18664 22.40172
#
# Velocity S-wave (km/s) = 3.31146 3.75224 3.53872
# Velocity P-wave (km/s) = 5.57286 6.50365 6.05616
#
# Compressibility (1/GPa) = 0.03401108
#
# Stress axis : x y z
#
# Youngs Moduli (GPa) = 53.39755 79.98981 54.33151
#
# Poissons Ratio (x) = 0.25111 0.02830
# Poissons Ratio (y) = 0.16763 0.22556
# Poissons Ratio (z) = 0.02782 0.33208
#
# Static dielectric constant tensor:
#      x y z
#    x 1.646820 0.000000 0.010640 
#    y 0.000000 1.613530 0.000000 
#    z 0.010640 0.000000 1.631540 
# 
# From -- ./inp_files/167313.got.cif
#   From: 2010.05.17/outbox.cif.g08.bks.cpg/sg15_84_cif.got.tgz:167313.got - 2010.06.03 18:47:42.
