data_PCOD9271342
_publ_section_title
;
Structure prediction by ZEFSAII (Michael W. Deem and Ramdas Pophale) SiO2 
 PCOD9271342
Probable space group: C 2/C
;
_chemical_formula_sum "Si O2"
_cell_formula_units_Z 52
_cell_length_a 13.943354
_cell_length_b 17.881129
_cell_length_c 15.415850
_cell_angle_alpha 90.000000
_cell_angle_beta 42.768584
_cell_angle_gamma 90.000000
_cell_volume 2609.902678
_symmetry_space_group_name_H-M "C 2/C"
_symmetry_group_IT_number 15
_symmetry_cell_setting 'monoclinic'
loop_
_space_group_symop_operation_xyz
x,y,z
-x,y,1/2-z
-x,-y,-z
x,-y,1/2+z
1/2+x,1/2+y,z
1/2-x,1/2+y,1/2-z
1/2-x,1/2-y,-z
1/2+x,1/2-y,1/2+z
loop_
_atom_site_type_symbol
_atom_site_label
_atom_site_fract_x
_atom_site_fract_y
_atom_site_fract_z
Si Si1 0.366946 0.561542 0.776937
Si Si2 0.658882 0.206131 0.332592
Si Si3 0.546312 0.936068 0.535767
Si Si4 0.572468 0.611026 0.290037
Si Si5 0.045930 0.143097 0.952324
Si Si6 0.000000 0.424659 0.750000
Si Si7 0.241171 0.301892 0.590340
O O1 0.500000 0.584983 0.750000
O O2 0.212852 0.580131 0.916653
O O3 0.372415 0.471752 0.766982
O O4 0.383412 0.593497 0.669097
O O5 0.537737 0.142555 0.417386
O O6 0.800649 0.165060 0.267266
O O7 0.624883 0.278241 0.411188
O O8 0.678784 0.235071 0.219947
O O9 0.499243 0.967721 0.660907
O O10 0.500000 0.000000 0.500000
O O11 0.500000 0.638565 0.250000
O O12 0.473684 0.605865 0.440855
O O13 0.893557 0.166176 0.014197
O O14 0.134743 0.370833 0.649891
O O15 0.250000 0.250000 0.500000
#
# Coordination Sequence:
#
# PCOD9271342 Si02
#       7
#     8   8   8   8   8   4   8
#     4  11  24  41  68  96 126 168 211 260 327 385
#     4  10  23  39  64  96 124 172 207 269 317 380
#     4  11  22  43  62  88 131 169 213 254 315 383
#     4  10  23  46  63  88 129 170 217 264 308 377
#     4  11  24  37  67  94 127 159 218 262 326 377
#     4  10  22  36  60  88 124 166 210 256 310 378
#     4  10  20  36  58  92 134 159 195 259 330 388
#
# _framework density 19.924115
#
# number of rings (size 3 to 8) (size 9 to 14) (size 15 to 20)
#    0.000    1.538    1.538    3.231    8.615    0.615 
#    5.538    0.000    1.692    0.000    0.000    0.000 
#    0.000    0.000    0.000    0.000    0.000    0.000 
#
# Total GULP energy -145219.814403 kJ/mol
# GULP energy per Si atom -5585.377477 kJ/mol
# Density = 1.987877 g / cm^3
# Si number density = 19.924115 Si / 1000 Ang^3
#
#
#
# Elastic Constant Matrix: (Units=GPa)
#
#
# Indices 1 2 3 4 5 6 
#
# 1 99.6448 29.0935 68.3625 0.0002 17.9258 -0.0001
# 2 29.0935 36.3525 26.3598 0.0006 0.4788 -0.0004
# 3 68.3625 26.3598 141.7640 0.0007 13.4017 -0.0005
# 4 0.0002 0.0006 0.0007 -124.3996 -0.0005 128.9794
# 5 17.9258 0.4788 13.4017 -0.0005 38.4884 0.0003
# 6 -0.0001 -0.0004 -0.0005 128.9794 0.0003 -64.3889
#
#
#
# Elastic Compliance Matrix: (Units=1/GPa)
#
#
# Indices 1 2 3 4 5 6 
#
# 1 0.018544 -0.010060 -0.006481 0.000000 -0.006255 0.000000
# 2 -0.010060 0.037363 -0.002580 0.000000 0.005119 0.000000
# 3 -0.006481 -0.002580 0.010724 0.000000 -0.000683 0.000000
# 4 0.000000 0.000000 0.000000 0.007465 0.000000 0.014953
# 5 -0.006255 0.005119 -0.000683 0.000000 0.029069 0.000000
# 6 0.000000 0.000000 0.000000 0.014953 0.000000 0.014422
#
#
# Mechanical properties :
#
#
# Convention : Reuss Voigt Hill
#
# Bulk Modulus (GPa) = 35.22423 58.37700 46.80061
# Shear Modulus (GPa) = 30.24972 -19.79698 5.22637
#
# Velocity S-wave (km/s) = 3.90070 -3.15559 1.62137
# Velocity P-wave (km/s) = 6.16480 4.01077 5.20053
#
# Compressibility (1/GPa) = 0.02838955
#
# Stress axis : x y z
#
# Youngs Moduli (GPa) = 53.92519 26.76461 93.25291
#
# Poissons Ratio (x) = 0.26924 0.60434
# Poissons Ratio (y) = 0.54247 0.24061
# Poissons Ratio (z) = 0.34947 0.06906
#
# Static dielectric constant tensor:
#      x y z
#    x 1.672920 0.000000 0.036460 
#    y 0.000000 1.693440 0.000000 
#    z 0.036460 0.000000 1.725200 
# 
# From -- ./inp_files/155436.got.cif
#   From: 2010.05.17/outbox.cif.g08.bks.cpg/sg15_78_cif.got.tgz:155436.got - 2010.06.03 18:47:42.
