data_PCOD9271798
_publ_section_title
;
Structure prediction by ZEFSAII (Michael W. Deem and Ramdas Pophale) SiO2 
 PCOD9271798
Probable space group: C 2/C
;
_chemical_formula_sum "Si O2"
_cell_formula_units_Z 64
_cell_length_a 26.877302
_cell_length_b 9.945674
_cell_length_c 22.981196
_cell_angle_alpha 90.000000
_cell_angle_beta 145.918245
_cell_angle_gamma 90.000000
_cell_volume 3442.480497
_symmetry_space_group_name_H-M "C 2/C"
_symmetry_group_IT_number 15
_symmetry_cell_setting 'monoclinic'
loop_
_space_group_symop_operation_xyz
x,y,z
-x,y,1/2-z
-x,-y,-z
x,-y,1/2+z
1/2+x,1/2+y,z
1/2-x,1/2+y,1/2-z
1/2-x,1/2-y,-z
1/2+x,1/2-y,1/2+z
loop_
_atom_site_type_symbol
_atom_site_label
_atom_site_fract_x
_atom_site_fract_y
_atom_site_fract_z
Si Si1 0.793072 0.114846 0.613249
Si Si2 0.098125 0.944453 0.589266
Si Si3 0.750981 0.431470 0.163111
Si Si4 0.465231 0.177471 0.027372
Si Si5 0.715938 0.629007 0.306615
Si Si6 0.008477 0.767472 0.192071
Si Si7 0.319363 0.379226 0.004249
Si Si8 0.873660 0.567877 0.373762
O O1 0.893314 0.171074 0.721118
O O2 0.721466 0.233758 0.553231
O O3 0.789460 0.087815 0.540835
O O4 0.775668 0.984878 0.636067
O O5 0.092216 0.808590 0.544556
O O6 0.130401 0.904124 0.684772
O O7 0.167832 0.047688 0.627369
O O8 0.000000 0.000000 0.500000
O O9 0.778697 0.283331 0.169668
O O10 0.721367 0.515687 0.079098
O O11 0.832913 0.496498 0.277480
O O12 0.488240 0.171966 0.117786
O O13 0.557341 0.179392 0.080713
O O14 0.418947 0.044837 0.957957
O O15 0.794273 0.622396 0.335129
O O16 0.000000 0.711357 0.250000
O O17 0.926574 0.872961 0.108670
#
# Coordination Sequence:
#
# PCOD9271798 Si02
#       8
#     8   8   8   8   8   8   8   8
#     4  10  22  39  62  89 122 164 209 260 311 376
#     4  11  22  35  59  84 116 162 203 238 306 370
#     4  11  22  38  58  88 121 154 200 253 303 367
#     4  11  19  38  58  84 117 162 198 255 305 357
#     4  11  23  37  56  88 122 154 201 255 307 364
#     4  10  20  36  61  93 119 156 214 262 301 371
#     4  10  21  39  64  88 119 165 212 256 314 369
#     4  10  23  36  56  84 122 158 200 251 303 369
#
# _framework density 18.591246000000002
#
# number of rings (size 3 to 8) (size 9 to 14) (size 15 to 20)
#    0.000    1.500    2.500    3.000    0.000    2.500 
#    0.000    0.000    0.000    0.000    0.000    0.000 
#    0.000    0.000    0.000    0.000    0.000    0.000 
#
# Total GULP energy -178522.040486 kJ/mol
# GULP energy per Si atom -5578.813765 kJ/mol
# Density = 1.854893 g / cm^3
# Si number density = 18.591246 Si / 1000 Ang^3
#
#
#
# Elastic Constant Matrix: (Units=GPa)
#
#
# Indices 1 2 3 4 5 6 
#
# 1 38.4825 18.5274 34.9838 0.0000 -5.1343 0.0000
# 2 18.5274 69.7813 45.9725 0.0000 -11.8030 0.0000
# 3 34.9838 45.9725 100.6937 0.0000 -25.7516 0.0000
# 4 0.0000 0.0000 0.0000 18.4552 0.0000 -5.4006
# 5 -5.1343 -11.8030 -25.7516 0.0000 38.7738 0.0000
# 6 0.0000 0.0000 0.0000 -5.4006 0.0000 29.6742
#
#
#
# Elastic Compliance Matrix: (Units=1/GPa)
#
#
# Indices 1 2 3 4 5 6 
#
# 1 0.038847 -0.002039 -0.013743 0.000000 -0.004604 0.000000
# 2 -0.002039 0.020602 -0.008628 0.000000 0.000271 0.000000
# 3 -0.013743 -0.008628 0.021090 0.000000 0.009561 0.000000
# 4 0.000000 0.000000 0.000000 0.057233 0.000000 0.010416
# 5 -0.004604 0.000271 0.009561 0.000000 0.031613 0.000000
# 6 0.000000 0.000000 0.000000 0.010416 0.000000 0.035595
#
#
# Mechanical properties :
#
#
# Convention : Reuss Voigt Hill
#
# Bulk Modulus (GPa) = 31.52731 45.32497 38.42614
# Shear Modulus (GPa) = 18.91260 24.67891 21.79576
#
# Velocity S-wave (km/s) = 3.19295 3.64737 3.42770
# Velocity P-wave (km/s) = 5.53066 6.49387 6.03153
#
# Compressibility (1/GPa) = 0.03171854
#
# Stress axis : x y z
#
# Youngs Moduli (GPa) = 25.74225 48.53880 47.41522
#
# Poissons Ratio (x) = 0.09896 0.65163
# Poissons Ratio (y) = 0.05248 0.40912
# Poissons Ratio (z) = 0.35378 0.41881
#
# Static dielectric constant tensor:
#      x y z
#    x 1.670670 0.000000 0.023620 
#    y 0.000000 1.643040 0.000000 
#    z 0.023620 0.000000 1.664200 
# 
# From -- ./inp_files/284458.got.cif
#   From: 2010.05.17/outbox.cif.g08.bks.cpg/sg15_143_cif.got.tgz:284458.got - 2010.06.03 18:47:42.
