data_PCOD9271053
_publ_section_title
;
Structure prediction by ZEFSAII (Michael W. Deem and Ramdas Pophale) SiO2 
 PCOD9271053
Probable space group: C 2/C
;
_chemical_formula_sum "Si O2"
_cell_formula_units_Z 56
_cell_length_a 11.299299
_cell_length_b 18.409834
_cell_length_c 13.265979
_cell_angle_alpha 90.000000
_cell_angle_beta 99.071926
_cell_angle_gamma 90.000000
_cell_volume 2725.046426
_symmetry_space_group_name_H-M "C 2/C"
_symmetry_group_IT_number 15
_symmetry_cell_setting 'monoclinic'
loop_
_space_group_symop_operation_xyz
x,y,z
-x,y,1/2-z
-x,-y,-z
x,-y,1/2+z
1/2+x,1/2+y,z
1/2-x,1/2+y,1/2-z
1/2-x,1/2-y,-z
1/2+x,1/2-y,1/2+z
loop_
_atom_site_type_symbol
_atom_site_label
_atom_site_fract_x
_atom_site_fract_y
_atom_site_fract_z
Si Si1 0.385766 0.936615 0.170173
Si Si2 0.851317 0.190442 0.121157
Si Si3 0.789582 0.111298 0.292337
Si Si4 0.247177 0.519578 0.663127
Si Si5 0.902158 0.322870 0.005174
Si Si6 0.118930 0.585693 0.446821
Si Si7 0.027253 0.961587 0.900140
O O1 0.500000 0.912315 0.250000
O O2 0.280713 0.938042 0.238151
O O3 0.416485 0.014829 0.124342
O O4 0.357047 0.885403 0.074176
O O5 0.846701 0.178950 0.241068
O O6 0.711061 0.201317 0.076074
O O7 0.900983 0.114513 0.083424
O O8 0.927354 0.254562 0.081608
O O9 0.714729 0.123142 0.383688
O O10 0.901712 0.060389 0.334890
O O11 0.716715 0.063096 0.198467
O O12 0.173988 0.552309 0.558382
O O13 0.383881 0.515082 0.646844
O O14 0.013532 0.358664 0.961484
O O15 0.000000 0.000000 0.000000
#
# Coordination Sequence:
#
# PCOD9271053 Si02
#       7
#     8   8   8   8   8   8   8
#     4  11  22  32  59  95 125 162 201 262 320 374
#     4  10  24  43  62  87 124 178 206 251 330 380
#     4  10  22  39  65  93 124 168 210 261 321 389
#     4  10  20  36  56  93 124 158 205 257 321 361
#     4  11  24  42  61  89 134 164 211 265 316 390
#     4  11  22  37  62  99 127 159 210 269 319 370
#     4  11  21  40  66  89 125 163 215 265 308 387
#
# _framework density 20.55011
#
# number of rings (size 3 to 8) (size 9 to 14) (size 15 to 20)
#    0.000    1.429    2.857    3.857    8.000    1.143 
#    0.000    2.143    0.000    1.714    0.000    0.000 
#    0.000    0.000    0.000    0.000    0.000    0.000 
#
# Total GULP energy -156086.864612 kJ/mol
# GULP energy per Si atom -5574.530879 kJ/mol
# Density = 2.050334 g / cm^3
# Si number density = 20.550110 Si / 1000 Ang^3
#
#
#
# Elastic Constant Matrix: (Units=GPa)
#
#
# Indices 1 2 3 4 5 6 
#
# 1 129.2423 33.9592 65.5593 0.0000 -36.1031 0.0000
# 2 33.9592 59.2087 28.4386 0.0000 -15.6599 0.0000
# 3 65.5593 28.4386 114.0588 0.0000 -33.4256 0.0000
# 4 0.0000 0.0000 0.0000 33.2146 0.0000 -2.6835
# 5 -36.1031 -15.6599 -33.4256 0.0000 51.1992 0.0000
# 6 0.0000 0.0000 0.0000 -2.6835 0.0000 14.1730
#
#
#
# Elastic Compliance Matrix: (Units=1/GPa)
#
#
# Indices 1 2 3 4 5 6 
#
# 1 0.012428 -0.003576 -0.004952 0.000000 0.004437 0.000000
# 2 -0.003576 0.020706 -0.002461 0.000000 0.002205 0.000000
# 3 -0.004952 -0.002461 0.013582 0.000000 0.004623 0.000000
# 4 0.000000 0.000000 0.000000 0.030575 0.000000 0.005789
# 5 0.004437 0.002205 0.004623 0.000000 0.026353 0.000000
# 6 0.000000 0.000000 0.000000 0.005789 0.000000 0.071653
#
#
# Mechanical properties :
#
#
# Convention : Reuss Voigt Hill
#
# Bulk Modulus (GPa) = 40.42333 62.04711 51.23522
# Shear Modulus (GPa) = 24.32855 31.35422 27.84138
#
# Velocity S-wave (km/s) = 3.44447 3.91032 3.68476
# Velocity P-wave (km/s) = 5.96091 7.11660 6.56424
#
# Compressibility (1/GPa) = 0.02473819
#
# Stress axis : x y z
#
# Youngs Moduli (GPa) = 80.46087 48.29576 73.62818
#
# Poissons Ratio (x) = 0.17273 0.36457
# Poissons Ratio (y) = 0.28776 0.18119
# Poissons Ratio (z) = 0.39841 0.11885
#
# Static dielectric constant tensor:
#      x y z
#    x 1.799720 0.000000 0.093590 
#    y 0.000000 1.777490 0.000000 
#    z 0.093590 0.000000 2.014650 
# 
# From -- ./inp_files/89035.got.cif
#   From: 2010.05.17/outbox.cif.g08.bks.cpg/sg15_45_cif.got.tgz:89035.got - 2010.06.03 18:47:42.
