data_PCOD9271212
_publ_section_title
;
Structure prediction by ZEFSAII (Michael W. Deem and Ramdas Pophale) SiO2 
 PCOD9271212
Probable space group: C 2/C
;
_chemical_formula_sum "Si O2"
_cell_formula_units_Z 44
_cell_length_a 16.631304
_cell_length_b 23.560573
_cell_length_c 5.214357
_cell_angle_alpha 90.000000
_cell_angle_beta 110.720452
_cell_angle_gamma 90.000000
_cell_volume 1911.050265
_symmetry_space_group_name_H-M "C 2/C"
_symmetry_group_IT_number 15
_symmetry_cell_setting 'monoclinic'
loop_
_space_group_symop_operation_xyz
x,y,z
-x,y,1/2-z
-x,-y,-z
x,-y,1/2+z
1/2+x,1/2+y,z
1/2-x,1/2+y,1/2-z
1/2-x,1/2-y,-z
1/2+x,1/2-y,1/2+z
loop_
_atom_site_type_symbol
_atom_site_label
_atom_site_fract_x
_atom_site_fract_y
_atom_site_fract_z
Si Si1 0.127823 0.348217 0.222014
Si Si2 0.500000 0.798384 0.750000
Si Si3 0.858262 0.797549 0.174243
Si Si4 0.000000 0.108787 0.750000
Si Si5 0.750000 0.750000 0.500000
Si Si6 0.775270 0.626330 0.186690
Si Si7 0.630230 0.464101 0.668982
O O1 0.968055 0.338335 0.485801
O O2 0.162861 0.285762 0.325524
O O3 0.180087 0.375056 0.039503
O O4 0.153757 0.378389 0.513526
O O5 0.580804 0.757309 0.782982
O O6 0.923284 0.850240 0.253211
O O7 0.806467 0.792389 0.373767
O O8 0.780848 0.812690 0.875906
O O9 0.041877 0.068966 0.011135
O O10 0.706001 0.578803 0.174130
O O11 0.635914 0.485508 0.965439
#
# Coordination Sequence:
#
# PCOD9271212 Si02
#       7
#     8   4   8   4   4   8   8
#     4  11  22  37  58  85 121 160 210 258 304 357
#     4  11  22  36  58  88 120 164 210 254 302 359
#     4   9  20  38  58  87 128 174 215 250 298 361
#     4   9  20  38  60  94 136 168 204 262 320 365
#     4  10  20  36  58  82 120 176 222 248 282 358
#     4  10  22  40  59  86 122 164 204 255 309 368
#     4  11  22  40  66  94 124 163 209 259 322 394
#
# _framework density 23.023987999999999
#
# number of rings (size 3 to 8) (size 9 to 14) (size 15 to 20)
#    0.000    1.818    0.000    3.818    0.000    5.818 
#    0.000   12.727    0.000    0.000    0.000   12.727 
#    0.000    0.000    0.000    0.000    0.000    0.000 
#
# Total GULP energy -122596.490746 kJ/mol
# GULP energy per Si atom -5572.567761 kJ/mol
# Density = 2.297158 g / cm^3
# Si number density = 23.023988 Si / 1000 Ang^3
#
#
#
# Elastic Constant Matrix: (Units=GPa)
#
#
# Indices 1 2 3 4 5 6 
#
# 1 98.9920 27.1257 65.4260 0.0000 10.6236 0.0000
# 2 27.1257 49.4708 5.9577 0.0000 1.3021 0.0000
# 3 65.4260 5.9577 147.4120 0.0000 4.9213 0.0000
# 4 0.0000 0.0000 0.0000 7.5634 0.0000 2.3171
# 5 10.6236 1.3021 4.9213 0.0000 51.1589 0.0000
# 6 0.0000 0.0000 0.0000 2.3171 0.0000 6.3516
#
#
#
# Elastic Compliance Matrix: (Units=1/GPa)
#
#
# Indices 1 2 3 4 5 6 
#
# 1 0.017681 -0.008731 -0.007403 0.000000 -0.002737 0.000000
# 2 -0.008731 0.024634 0.002849 0.000000 0.000912 0.000000
# 3 -0.007403 0.002849 0.009937 0.000000 0.000509 0.000000
# 4 0.000000 0.000000 0.000000 0.148850 0.000000 -0.054301
# 5 -0.002737 0.000912 0.000509 0.000000 0.020043 0.000000
# 6 0.000000 0.000000 0.000000 -0.054301 0.000000 0.177251
#
#
# Mechanical properties :
#
#
# Convention : Reuss Voigt Hill
#
# Bulk Modulus (GPa) = 38.93746 54.76597 46.85171
# Shear Modulus (GPa) = 11.53327 26.17246 18.85286
#
# Velocity S-wave (km/s) = 2.24056 3.37523 2.86463
# Velocity P-wave (km/s) = 4.86229 6.24721 5.59775
#
# Compressibility (1/GPa) = 0.02568221
#
# Stress axis : x y z
#
# Youngs Moduli (GPa) = 56.55799 40.59383 100.63094
#
# Poissons Ratio (x) = 0.35443 0.74498
# Poissons Ratio (y) = 0.49382 -0.28671
# Poissons Ratio (z) = 0.41870 -0.11566
#
# Static dielectric constant tensor:
#      x y z
#    x 1.940620 0.000000 -0.589080 
#    y 0.000000 1.867560 0.000000 
#    z -0.589080 0.000000 5.361870 
# 
# From -- ./inp_files/7644.got.cif
#   From: 2010.05.17/outbox.cif.g08.bks.cpg/sg15_4_cif.got.tgz:7644.got - 2010.06.03 18:47:42.
