data_PCOD9271920
_publ_section_title
;
Structure prediction by ZEFSAII (Michael W. Deem and Ramdas Pophale) SiO2 
 PCOD9271920
Probable space group: C 2/C
;
_chemical_formula_sum "Si O2"
_cell_formula_units_Z 56
_cell_length_a 24.787690
_cell_length_b 8.703019
_cell_length_c 15.217077
_cell_angle_alpha 90.000000
_cell_angle_beta 58.019557
_cell_angle_gamma 90.000000
_cell_volume 2784.519763
_symmetry_space_group_name_H-M "C 2/C"
_symmetry_group_IT_number 15
_symmetry_cell_setting 'monoclinic'
loop_
_space_group_symop_operation_xyz
x,y,z
-x,y,1/2-z
-x,-y,-z
x,-y,1/2+z
1/2+x,1/2+y,z
1/2-x,1/2+y,1/2-z
1/2-x,1/2-y,-z
1/2+x,1/2-y,1/2+z
loop_
_atom_site_type_symbol
_atom_site_label
_atom_site_fract_x
_atom_site_fract_y
_atom_site_fract_z
Si Si1 0.072965 0.296200 0.546539
Si Si2 0.876042 0.016742 0.547421
Si Si3 0.677445 0.302133 0.570726
Si Si4 0.057900 0.313935 0.944715
Si Si5 0.294078 0.351729 0.767411
Si Si6 0.331968 0.031961 0.661879
Si Si7 0.437922 0.081620 0.855980
O O1 0.133838 0.372953 0.445501
O O2 0.067272 0.396644 0.639270
O O3 0.009205 0.321402 0.544948
O O4 0.083943 0.115214 0.536376
O O5 0.839216 0.103776 0.501948
O O6 0.917187 0.140633 0.565621
O O7 0.830845 0.934204 0.656621
O O8 0.750000 0.250000 0.500000
O O9 0.675155 0.391163 0.665220
O O10 0.626094 0.164820 0.619467
O O11 0.110614 0.423768 0.853120
O O12 0.052464 0.370726 0.050376
O O13 0.301944 0.167006 0.747585
O O14 0.222380 0.415866 0.824571
O O15 0.500000 0.132213 0.750000
#
# Coordination Sequence:
#
# PCOD9271920 Si02
#       7
#     8   8   8   8   8   8   8
#     4  10  21  39  61  83 130 160 203 257 318 362
#     4  10  23  42  61  96 125 165 211 261 310 383
#     4  11  23  42  66  89 130 169 211 263 322 372
#     4  10  20  39  64  86 123 168 202 254 321 370
#     4  11  22  39  66  91 125 166 211 262 318 374
#     4  10  20  36  62  91 119 156 213 250 305 382
#     4  10  22  37  60  93 122 161 218 256 308 386
#
# _framework density 20.111189
#
# number of rings (size 3 to 8) (size 9 to 14) (size 15 to 20)
#    0.000    1.714    0.000    6.429    6.000    0.000 
#    2.571    8.571    0.000    0.000    0.000    0.000 
#    0.000    0.000    0.000    0.000    0.000    0.000 
#
# Total GULP energy -156201.975855 kJ/mol
# GULP energy per Si atom -5578.641995 kJ/mol
# Density = 2.006541 g / cm^3
# Si number density = 20.111189 Si / 1000 Ang^3
#
#
#
# Elastic Constant Matrix: (Units=GPa)
#
#
# Indices 1 2 3 4 5 6 
#
# 1 125.4688 49.9294 52.8294 0.0000 -15.8834 0.0000
# 2 49.9294 119.1062 37.4583 0.0000 -19.6027 0.0000
# 3 52.8294 37.4583 67.6054 0.0000 -9.6510 0.0000
# 4 0.0000 0.0000 0.0000 24.7868 0.0000 -6.4883
# 5 -15.8834 -19.6027 -9.6510 0.0000 30.8473 0.0000
# 6 0.0000 0.0000 0.0000 -6.4883 0.0000 23.9436
#
#
#
# Elastic Compliance Matrix: (Units=1/GPa)
#
#
# Indices 1 2 3 4 5 6 
#
# 1 0.012690 -0.002306 -0.008285 0.000000 0.002476 0.000000
# 2 -0.002306 0.011353 -0.003797 0.000000 0.004839 0.000000
# 3 -0.008285 -0.003797 0.023464 0.000000 0.000662 0.000000
# 4 0.000000 0.000000 0.000000 0.043424 0.000000 0.011767
# 5 0.002476 0.004839 0.000662 0.000000 0.036975 0.000000
# 6 0.000000 0.000000 0.000000 0.011767 0.000000 0.044953
#
#
# Mechanical properties :
#
#
# Convention : Reuss Voigt Hill
#
# Bulk Modulus (GPa) = 53.38998 65.84605 59.61802
# Shear Modulus (GPa) = 24.05217 27.37975 25.71596
#
# Velocity S-wave (km/s) = 3.46202 3.69374 3.57976
# Velocity P-wave (km/s) = 6.52578 7.14169 6.84067
#
# Compressibility (1/GPa) = 0.01873011
#
# Stress axis : x y z
#
# Youngs Moduli (GPa) = 78.80333 88.07881 42.61781
#
# Poissons Ratio (x) = 0.20315 0.35308
# Poissons Ratio (y) = 0.18176 0.16184
# Poissons Ratio (z) = 0.65287 0.33448
#
# Static dielectric constant tensor:
#      x y z
#    x 2.794410 0.000000 -0.177390 
#    y 0.000000 1.785470 0.000000 
#    z -0.177390 0.000000 1.782570 
# 
# From -- ./inp_files/172262.got.cif
#   From: 2010.05.17/outbox.cif.g08.bks.cpg/sg15_87_cif.got.tgz:172262.got - 2010.06.03 18:47:42.
