data_PCOD9271454
_publ_section_title
;
Structure prediction by ZEFSAII (Michael W. Deem and Ramdas Pophale) SiO2 
 PCOD9271454
Probable space group: C 2/C
;
_chemical_formula_sum "Si O2"
_cell_formula_units_Z 56
_cell_length_a 5.075041
_cell_length_b 28.424932
_cell_length_c 21.094735
_cell_angle_alpha 90.000000
_cell_angle_beta 68.844419
_cell_angle_gamma 90.000000
_cell_volume 2837.986194
_symmetry_space_group_name_H-M "C 2/C"
_symmetry_group_IT_number 15
_symmetry_cell_setting 'monoclinic'
loop_
_space_group_symop_operation_xyz
x,y,z
-x,y,1/2-z
-x,-y,-z
x,-y,1/2+z
1/2+x,1/2+y,z
1/2-x,1/2+y,1/2-z
1/2-x,1/2-y,-z
1/2+x,1/2-y,1/2+z
loop_
_atom_site_type_symbol
_atom_site_label
_atom_site_fract_x
_atom_site_fract_y
_atom_site_fract_z
Si Si1 0.554974 0.973956 0.671857
Si Si2 0.849173 0.001748 0.409219
Si Si3 0.320591 0.223964 0.328148
Si Si4 0.326825 0.248258 0.090773
Si Si5 0.213459 0.374998 0.607696
Si Si6 0.227628 0.670031 0.502039
Si Si7 0.983813 0.579969 0.997951
O O1 0.500000 0.983611 0.750000
O O2 0.298922 0.984094 0.645127
O O3 0.674642 0.920423 0.655680
O O4 0.819470 0.004335 0.625617
O O5 0.775352 0.045039 0.462987
O O6 0.712876 0.955381 0.450534
O O7 0.500000 0.233612 0.250000
O O8 0.446398 0.254349 0.374374
O O9 0.391733 0.170433 0.344332
O O10 0.984341 0.234102 0.354890
O O11 0.314498 0.294620 0.049446
O O12 0.414377 0.204964 0.037012
O O13 0.513871 0.355476 0.556954
O O14 0.065386 0.394525 0.556936
O O15 0.061747 0.625001 0.542159
#
# Coordination Sequence:
#
# PCOD9271454 Si02
#       7
#     8   8   8   8   8   8   8
#     4  11  22  39  57  85 122 160 193 235 288 372
#     4  10  23  36  59  87 118 156 193 240 304 343
#     4  11  22  39  57  85 122 160 193 235 288 372
#     4  10  23  36  59  87 118 156 193 240 304 343
#     4  10  21  34  60  90 118 146 194 240 316 340
#     4  10  20  36  59  88 121 145 196 253 299 354
#     4  10  20  36  59  88 121 145 196 253 299 354
#
# _framework density 19.732301
#
# number of rings (size 3 to 8) (size 9 to 14) (size 15 to 20)
#    0.000    1.714    2.857    1.286    4.000    3.429 
#    0.000    2.857    0.000    3.429    0.000    0.000 
#    0.000    0.000    0.000    0.000    0.000    0.000 
#
# Total GULP energy -156153.727973 kJ/mol
# GULP energy per Si atom -5576.918856 kJ/mol
# Density = 1.968739 g / cm^3
# Si number density = 19.732301 Si / 1000 Ang^3
#
#
#
# Elastic Constant Matrix: (Units=GPa)
#
#
# Indices 1 2 3 4 5 6 
#
# 1 34.2424 -5.2887 -11.5072 0.0000 -0.6893 0.0000
# 2 -5.2887 113.8661 12.2961 0.0000 0.6491 0.0000
# 3 -11.5072 12.2961 46.4981 0.0000 1.1515 0.0000
# 4 0.0000 0.0000 0.0000 11.4819 0.0000 -0.1902
# 5 -0.6893 0.6491 1.1515 0.0000 13.5650 0.0000
# 6 0.0000 0.0000 0.0000 -0.1902 0.0000 17.3702
#
#
#
# Elastic Compliance Matrix: (Units=1/GPa)
#
#
# Indices 1 2 3 4 5 6 
#
# 1 0.031911 0.000645 0.007703 0.000000 0.000937 0.000000
# 2 0.000645 0.009054 -0.002229 0.000000 -0.000211 0.000000
# 3 0.007703 -0.002229 0.024040 0.000000 -0.001543 0.000000
# 4 0.000000 0.000000 0.000000 0.087110 0.000000 0.000954
# 5 0.000937 -0.000211 -0.001543 0.000000 0.073908 0.000000
# 6 0.000000 0.000000 0.000000 0.000954 0.000000 0.057580
#
#
# Mechanical properties :
#
#
# Convention : Reuss Voigt Hill
#
# Bulk Modulus (GPa) = 12.94615 20.62301 16.78458
# Shear Modulus (GPa) = 16.82863 21.75719 19.29291
#
# Velocity S-wave (km/s) = 2.92352 3.32417 3.13026
# Velocity P-wave (km/s) = 4.23923 5.02071 4.64643
#
# Compressibility (1/GPa) = 0.07724307
#
# Stress axis : x y z
#
# Youngs Moduli (GPa) = 31.33743 110.44654 41.59662
#
# Poissons Ratio (x) = -0.07123 -0.32044
# Poissons Ratio (y) = -0.02021 0.09274
# Poissons Ratio (z) = -0.24141 0.24624
#
# Static dielectric constant tensor:
#      x y z
#    x 1.772070 0.000000 -0.002920 
#    y 0.000000 1.742510 0.000000 
#    z -0.002920 0.000000 1.691110 
# 
# From -- ./inp_files/228410.got.cif
#   From: 2010.05.17/outbox.cif.g08.bks.cpg/sg15_115_cif.got.tgz:228410.got - 2010.06.03 18:47:42.
