data_PCOD9271221
_publ_section_title
;
Structure prediction by ZEFSAII (Michael W. Deem and Ramdas Pophale) SiO2 
 PCOD9271221
Probable space group: C 2/C
;
_chemical_formula_sum "Si O2"
_cell_formula_units_Z 48
_cell_length_a 16.111043
_cell_length_b 9.654759
_cell_length_c 15.677461
_cell_angle_alpha 90.000000
_cell_angle_beta 60.895246
_cell_angle_gamma 90.000000
_cell_volume 2130.683777
_symmetry_space_group_name_H-M "C 2/C"
_symmetry_group_IT_number 15
_symmetry_cell_setting 'monoclinic'
loop_
_space_group_symop_operation_xyz
x,y,z
-x,y,1/2-z
-x,-y,-z
x,-y,1/2+z
1/2+x,1/2+y,z
1/2-x,1/2+y,1/2-z
1/2-x,1/2-y,-z
1/2+x,1/2-y,1/2+z
loop_
_atom_site_type_symbol
_atom_site_label
_atom_site_fract_x
_atom_site_fract_y
_atom_site_fract_z
Si Si1 0.110490 0.427390 0.341583
Si Si2 0.956498 0.638332 0.367990
Si Si3 0.781554 0.399655 0.850161
Si Si4 0.553047 0.377117 0.815435
Si Si5 0.706800 0.417373 0.165656
Si Si6 0.403914 0.423354 0.457998
O O1 0.176419 0.483824 0.231483
O O2 0.083639 0.270226 0.336231
O O3 0.181181 0.449115 0.385389
O O4 0.017300 0.521119 0.383221
O O5 0.848199 0.599823 0.400906
O O6 0.958942 0.778509 0.420599
O O7 0.000000 0.661100 0.250000
O O8 0.797175 0.244697 0.804716
O O9 0.672825 0.422281 0.929218
O O10 0.500000 0.358486 0.750000
O O11 0.642108 0.478778 0.753108
O O12 0.477917 0.452465 0.914673
O O13 0.659695 0.426573 0.096595
#
# Coordination Sequence:
#
# PCOD9271221 Si02
#       6
#     8   8   8   8   8   8
#     4  11  21  36  58  86 115 146 184 233 282 328
#     4   9  17  33  59  83 109 153 193 220 267 340
#     4  10  20  38  60  83 110 149 191 229 271 331
#     4  10  20  36  58  83 113 150 186 222 280 346
#     4  10  20  37  60  83 110 149 192 227 268 332
#     4  10  20  38  61  82 108 149 194 229 268 331
#
# _framework density 22.527978000000001
#
# number of rings (size 3 to 8) (size 9 to 14) (size 15 to 20)
#    0.000    2.000    0.000    8.000    0.000    0.000 
#    0.000   15.833    0.000    0.000    0.000    0.000 
#    0.000    0.000    0.000    0.000    0.000    0.000 
#
# Total GULP energy -134249.994437 kJ/mol
# GULP energy per Si atom -5593.749768 kJ/mol
# Density = 2.247670 g / cm^3
# Si number density = 22.527978 Si / 1000 Ang^3
#
#
#
# Elastic Constant Matrix: (Units=GPa)
#
#
# Indices 1 2 3 4 5 6 
#
# 1 129.1972 71.0906 15.7472 0.0000 -22.2832 0.0000
# 2 71.0906 164.8777 58.0102 0.0000 -21.6775 0.0000
# 3 15.7472 58.0102 75.6810 0.0000 -11.5569 0.0000
# 4 0.0000 0.0000 0.0000 2.0383 0.0000 -1.3428
# 5 -22.2832 -21.6775 -11.5569 0.0000 36.5861 0.0000
# 6 0.0000 0.0000 0.0000 -1.3428 0.0000 31.5172
#
#
#
# Elastic Compliance Matrix: (Units=1/GPa)
#
#
# Indices 1 2 3 4 5 6 
#
# 1 0.010933 -0.004886 0.002149 0.000000 0.004443 0.000000
# 2 -0.004886 0.010827 -0.007100 0.000000 0.001197 0.000000
# 3 0.002149 -0.007100 0.018666 0.000000 0.002998 0.000000
# 4 0.000000 0.000000 0.000000 0.504773 0.000000 0.021506
# 5 0.004443 0.001197 0.002998 0.000000 0.031695 0.000000
# 6 0.000000 0.000000 0.000000 0.021506 0.000000 0.032645
#
#
# Mechanical properties :
#
#
# Convention : Reuss Voigt Hill
#
# Bulk Modulus (GPa) = 48.18757 73.27243 60.73000
# Shear Modulus (GPa) = 7.86003 29.02217 18.44110
#
# Velocity S-wave (km/s) = 1.86992 3.59314 2.86420
# Velocity P-wave (km/s) = 5.10868 7.05762 6.16071
#
# Compressibility (1/GPa) = 0.02075224
#
# Stress axis : x y z
#
# Youngs Moduli (GPa) = 91.46724 92.36204 53.57312
#
# Poissons Ratio (x) = 0.45126 -0.11511
# Poissons Ratio (y) = 0.44689 0.38035
# Poissons Ratio (z) = -0.19652 0.65574
#
# Static dielectric constant tensor:
#      x y z
#    x 1.893270 0.000000 0.036430 
#    y 0.000000 1.793560 0.000000 
#    z 0.036430 0.000000 1.854210 
# 
# From -- ./inp_files/246828.got.cif
#   From: 2010.05.17/outbox.cif.g08.bks.cpg/sg15_124_cif.got.tgz:246828.got - 2010.06.03 18:47:42.
