data_PCOD9271122
_publ_section_title
;
Structure prediction by ZEFSAII (Michael W. Deem and Ramdas Pophale) SiO2 
 PCOD9271122
Probable space group: C 2/C
;
_chemical_formula_sum "Si O2"
_cell_formula_units_Z 40
_cell_length_a 25.952745
_cell_length_b 8.541072
_cell_length_c 9.015317
_cell_angle_alpha 90.000000
_cell_angle_beta 69.487986
_cell_angle_gamma 90.000000
_cell_volume 1871.674191
_symmetry_space_group_name_H-M "C 2/C"
_symmetry_group_IT_number 15
_symmetry_cell_setting 'monoclinic'
loop_
_space_group_symop_operation_xyz
x,y,z
-x,y,1/2-z
-x,-y,-z
x,-y,1/2+z
1/2+x,1/2+y,z
1/2-x,1/2+y,1/2-z
1/2-x,1/2-y,-z
1/2+x,1/2-y,1/2+z
loop_
_atom_site_type_symbol
_atom_site_label
_atom_site_fract_x
_atom_site_fract_y
_atom_site_fract_z
Si Si1 0.810462 0.306088 0.899497
Si Si2 0.044096 0.638905 0.957713
Si Si3 0.640029 0.060824 0.434182
Si Si4 0.578808 0.640882 0.681966
Si Si5 0.549548 0.683050 0.057648
O O1 0.819576 0.349931 0.718207
O O2 0.855984 0.173314 0.888213
O O3 0.750000 0.250000 0.000000
O O4 0.827810 0.456574 0.980121
O O5 0.102502 0.557502 0.872131
O O6 0.052720 0.722108 0.107189
O O7 0.000000 0.500000 0.000000
O O8 0.014562 0.761523 0.878580
O O9 0.594607 0.181238 0.546653
O O10 0.559911 0.653589 0.870230
O O11 0.562818 0.477797 0.624959
#
# Coordination Sequence:
#
# PCOD9271122 Si02
#       5
#     8   8   8   8   8
#     4  10  22  41  62  85 117 153 197 249 293 344
#     4   9  18  35  57  80 115 156 193 236 288 346
#     4   9  21  40  61  86 113 152 198 238 293 357
#     4  10  21  36  55  88 122 156 201 243 288 348
#     4  10  20  36  57  85 122 157 192 242 292 347
#
# _framework density 21.37124
#
# number of rings (size 3 to 8) (size 9 to 14) (size 15 to 20)
#    0.000    2.400    0.000    1.200    0.000    8.000 
#    0.000   17.000    0.000    0.000    0.000    0.000 
#    0.000    0.000    0.000    0.000    0.000    0.000 
#
# Total GULP energy -111775.735101 kJ/mol
# GULP energy per Si atom -5588.786755 kJ/mol
# Density = 2.132260 g / cm^3
# Si number density = 21.371240 Si / 1000 Ang^3
#
#
#
# Elastic Constant Matrix: (Units=GPa)
#
#
# Indices 1 2 3 4 5 6 
#
# 1 106.1136 38.4653 22.7805 0.0000 -23.8823 0.0000
# 2 38.4653 121.9866 28.9652 0.0000 2.0296 0.0000
# 3 22.7805 28.9652 46.3113 0.0000 -4.8735 0.0000
# 4 0.0000 0.0000 0.0000 32.2488 0.0000 7.3084
# 5 -23.8823 2.0296 -4.8735 0.0000 41.9118 0.0000
# 6 0.0000 0.0000 0.0000 7.3084 0.0000 34.8230
#
#
#
# Elastic Compliance Matrix: (Units=1/GPa)
#
#
# Indices 1 2 3 4 5 6 
#
# 1 0.013025 -0.003388 -0.003533 0.000000 0.007175 0.000000
# 2 -0.003388 0.010566 -0.005264 0.000000 -0.003054 0.000000
# 3 -0.003533 -0.005264 0.026766 0.000000 0.001354 0.000000
# 4 0.000000 0.000000 0.000000 0.032557 0.000000 -0.006833
# 5 0.007175 -0.003054 0.001354 0.000000 0.028254 0.000000
# 6 0.000000 0.000000 0.000000 -0.006833 0.000000 0.030151
#
#
# Mechanical properties :
#
#
# Convention : Reuss Voigt Hill
#
# Bulk Modulus (GPa) = 38.47915 50.53703 44.50809
# Shear Modulus (GPa) = 28.67777 34.07677 31.37727
#
# Velocity S-wave (km/s) = 3.66715 3.99747 3.83587
# Velocity P-wave (km/s) = 5.99790 6.70857 6.36317
#
# Compressibility (1/GPa) = 0.02598810
#
# Stress axis : x y z
#
# Youngs Moduli (GPa) = 76.77393 94.63879 37.36130
#
# Poissons Ratio (x) = 0.32060 0.13201
# Poissons Ratio (y) = 0.26008 0.19666
# Poissons Ratio (z) = 0.27126 0.49816
#
# Static dielectric constant tensor:
#      x y z
#    x 1.749900 0.000000 0.000640 
#    y 0.000000 1.793800 0.000000 
#    z 0.000640 0.000000 1.850030 
# 
# From -- ./inp_files/59917.got.cif
#   From: 2010.05.17/outbox.cif.g08.bks.cpg/sg15_30_cif.got.tgz:59917.got - 2010.06.03 18:47:42.
