data_PCOD9271384
_publ_section_title
;
Structure prediction by ZEFSAII (Michael W. Deem and Ramdas Pophale) SiO2 
 PCOD9271384
Probable space group: C 2/C
;
_chemical_formula_sum "Si O2"
_cell_formula_units_Z 56
_cell_length_a 21.507768
_cell_length_b 16.824559
_cell_length_c 8.254145
_cell_angle_alpha 90.000000
_cell_angle_beta 119.886852
_cell_angle_gamma 90.000000
_cell_volume 2589.618522
_symmetry_space_group_name_H-M "C 2/C"
_symmetry_group_IT_number 15
_symmetry_cell_setting 'monoclinic'
loop_
_space_group_symop_operation_xyz
x,y,z
-x,y,1/2-z
-x,-y,-z
x,-y,1/2+z
1/2+x,1/2+y,z
1/2-x,1/2+y,1/2-z
1/2-x,1/2-y,-z
1/2+x,1/2-y,1/2+z
loop_
_atom_site_type_symbol
_atom_site_label
_atom_site_fract_x
_atom_site_fract_y
_atom_site_fract_z
Si Si1 0.578614 0.189399 0.117285
Si Si2 0.000000 0.587143 0.750000
Si Si3 0.919683 0.570449 0.126544
Si Si4 0.696500 0.099385 0.759046
Si Si5 0.858282 0.086950 0.571874
Si Si6 0.722216 0.537468 0.338763
Si Si7 0.000000 0.816804 0.250000
Si Si8 0.710601 0.715628 0.791230
O O1 0.616684 0.121756 0.280914
O O2 0.534313 0.257141 0.159240
O O3 0.648468 0.231302 0.131757
O O4 0.526530 0.143533 0.927931
O O5 0.065401 0.522280 0.823251
O O6 0.000000 0.603301 0.250000
O O7 0.884157 0.591731 0.910979
O O8 0.729850 0.183489 0.752749
O O9 0.734228 0.032787 0.693532
O O10 0.721517 0.079815 0.970757
O O11 0.810336 0.089412 0.347740
O O12 0.935300 0.122520 0.622464
O O13 0.831965 0.142694 0.682711
O O14 0.841263 0.999996 0.629454
O O15 0.750000 0.750000 0.000000
#
# Coordination Sequence:
#
# PCOD9271384 Si02
#       8
#     8   4   8   8   8   8   4   8
#     4  11  21  39  55  83 115 152 188 236 279 346
#     4  10  25  34  56  87 118 148 194 238 282 339
#     4  10  22  36  59  81 114 148 194 231 290 338
#     4  10  20  36  59  84 113 154 186 242 289 334
#     4   9  20  37  58  87 110 150 189 233 289 334
#     4   9  20  37  58  85 117 139 195 243 277 336
#     4  10  21  38  62  77 120 156 182 230 288 347
#     4  10  20  36  60  77 112 156 192 225 288 345
#
# _framework density 21.624807000000001
#
# number of rings (size 3 to 8) (size 9 to 14) (size 15 to 20)
#    0.429    1.714    2.143    0.429    2.000    2.857 
#    0.000    0.714    0.000    0.000    0.000    0.000 
#    0.000    0.000    0.000    0.000    0.000    0.000 
#
# Total GULP energy -155902.697110 kJ/mol
# GULP energy per Si atom -5567.953468 kJ/mol
# Density = 2.157559 g / cm^3
# Si number density = 21.624807 Si / 1000 Ang^3
#
#
#
# Elastic Constant Matrix: (Units=GPa)
#
#
# Indices 1 2 3 4 5 6 
#
# 1 55.0498 24.3023 22.1282 0.0000 22.2536 0.0000
# 2 24.3023 57.4663 31.5533 0.0000 13.3758 0.0000
# 3 22.1282 31.5533 112.4714 0.0000 10.7576 0.0000
# 4 0.0000 0.0000 0.0000 25.5850 0.0000 17.3802
# 5 22.2536 13.3758 10.7576 0.0000 32.5622 0.0000
# 6 0.0000 0.0000 0.0000 17.3802 0.0000 -0.4287
#
#
#
# Elastic Compliance Matrix: (Units=1/GPa)
#
#
# Indices 1 2 3 4 5 6 
#
# 1 0.028635 -0.007271 -0.002073 0.000000 -0.015898 0.000000
# 2 -0.007271 0.023964 -0.004984 0.000000 -0.003228 0.000000
# 3 -0.002073 -0.004984 0.010704 0.000000 -0.000072 0.000000
# 4 0.000000 0.000000 0.000000 0.001370 0.000000 0.055520
# 5 -0.015898 -0.003228 -0.000072 0.000000 0.042926 0.000000
# 6 0.000000 0.000000 0.000000 0.055520 0.000000 -0.081730
#
#
# Mechanical properties :
#
#
# Convention : Reuss Voigt Hill
#
# Bulk Modulus (GPa) = 28.86201 42.32833 35.59517
# Shear Modulus (GPa) = 75.67260 21.34393 48.50827
#
# Velocity S-wave (km/s) = 5.92194 3.14508 4.74136
# Velocity P-wave (km/s) = 7.75467 5.72758 6.81689
#
# Compressibility (1/GPa) = 0.03464762
#
# Stress axis : x y z
#
# Youngs Moduli (GPa) = 34.92183 41.72887 93.42167
#
# Poissons Ratio (x) = 0.30341 0.19371
# Poissons Ratio (y) = 0.25391 0.46559
# Poissons Ratio (z) = 0.07241 0.20797
#
# Static dielectric constant tensor:
#      x y z
#    x 1.594560 0.000000 0.046670 
#    y 0.000000 1.860180 0.000000 
#    z 0.046670 0.000000 1.754520 
# 
# From -- ./inp_files/66920.got.cif
#   From: 2010.05.17/outbox.cif.g08.bks.cpg/sg15_34_cif.got.tgz:66920.got - 2010.06.03 18:47:42.
