data_PCOD9271820
_publ_section_title
;
Structure prediction by ZEFSAII (Michael W. Deem and Ramdas Pophale) SiO2 
 PCOD9271820
Probable space group: C 2/C
;
_chemical_formula_sum "Si O2"
_cell_formula_units_Z 40
_cell_length_a 10.798359
_cell_length_b 7.899091
_cell_length_c 17.059641
_cell_angle_alpha 90.000000
_cell_angle_beta 97.082843
_cell_angle_gamma 90.000000
_cell_volume 1444.035647
_symmetry_space_group_name_H-M "C 2/C"
_symmetry_group_IT_number 15
_symmetry_cell_setting 'monoclinic'
loop_
_space_group_symop_operation_xyz
x,y,z
-x,y,1/2-z
-x,-y,-z
x,-y,1/2+z
1/2+x,1/2+y,z
1/2-x,1/2+y,1/2-z
1/2-x,1/2-y,-z
1/2+x,1/2-y,1/2+z
loop_
_atom_site_type_symbol
_atom_site_label
_atom_site_fract_x
_atom_site_fract_y
_atom_site_fract_z
Si Si1 0.924198 0.307423 0.627264
Si Si2 0.186990 0.333331 0.570088
Si Si3 0.967218 0.043859 0.327000
Si Si4 0.190349 0.611738 0.791821
Si Si5 0.162157 0.293077 0.105065
O O1 0.911058 0.477519 0.679938
O O2 0.784735 0.302025 0.585447
O O3 0.042871 0.294804 0.580180
O O4 0.945012 0.121062 0.667441
O O5 0.250000 0.250000 0.500000
O O6 0.275636 0.272462 0.649442
O O7 0.169597 0.532511 0.560998
O O8 0.957820 0.169360 0.400706
O O9 0.000000 0.142280 0.250000
O O10 0.824501 0.982685 0.309252
O O11 0.175318 0.653623 0.698797
#
# Coordination Sequence:
#
# PCOD9271820 Si02
#       5
#     8   8   8   8   8
#     4  10  23  41  62  92 137 171 221 286 329 405
#     4  11  26  44  65  97 137 178 224 275 343 410
#     4  10  20  36  61  96 130 164 215 278 340 395
#     4  10  22  40  67  98 128 174 226 275 344 405
#     4  11  23  38  67  99 125 173 225 276 343 408
#
# _framework density 27.700147999999999
#
# number of rings (size 3 to 8) (size 9 to 14) (size 15 to 20)
#    0.000    1.600    2.000    2.400    5.600    1.600 
#    0.000    9.000    0.000    0.000    0.000    0.000 
#    0.000    0.000    0.000    0.000    0.000    0.000 
#
# Total GULP energy -111679.705533 kJ/mol
# GULP energy per Si atom -5583.985277 kJ/mol
# Density = 2.763710 g / cm^3
# Si number density = 27.700148 Si / 1000 Ang^3
#
#
#
# Elastic Constant Matrix: (Units=GPa)
#
#
# Indices 1 2 3 4 5 6 
#
# 1 113.6696 23.7962 57.8084 0.0000 -54.6826 0.0000
# 2 23.7962 156.0748 61.5101 0.0000 -25.7185 0.0000
# 3 57.8084 61.5101 154.1454 0.0000 -30.2553 0.0000
# 4 0.0000 0.0000 0.0000 37.1531 0.0000 -10.8097
# 5 -54.6826 -25.7185 -30.2553 0.0000 43.6713 0.0000
# 6 0.0000 0.0000 0.0000 -10.8097 0.0000 55.2285
#
#
#
# Elastic Compliance Matrix: (Units=1/GPa)
#
#
# Indices 1 2 3 4 5 6 
#
# 1 0.024719 0.002918 -0.004655 0.000000 0.029445 0.000000
# 2 0.002918 0.008244 -0.003141 0.000000 0.006332 0.000000
# 3 -0.004655 -0.003141 0.009235 0.000000 -0.001281 0.000000
# 4 0.000000 0.000000 0.000000 0.028541 0.000000 0.005586
# 5 0.029445 0.006332 -0.001281 0.000000 0.062610 0.000000
# 6 0.000000 0.000000 0.000000 0.005586 0.000000 0.019200
#
#
# Mechanical properties :
#
#
# Convention : Reuss Voigt Hill
#
# Bulk Modulus (GPa) = 30.82477 78.90213 54.86345
# Shear Modulus (GPa) = 28.88186 45.92891 37.40538
#
# Velocity S-wave (km/s) = 3.23253 4.07636 3.67872
# Velocity P-wave (km/s) = 5.00844 7.12052 6.15574
#
# Compressibility (1/GPa) = 0.03244144
#
# Stress axis : x y z
#
# Youngs Moduli (GPa) = 40.45452 121.30582 108.28136
#
# Poissons Ratio (x) = -0.35396 0.50407
# Poissons Ratio (y) = -0.11804 0.34010
# Poissons Ratio (z) = 0.18832 0.38101
#
# Static dielectric constant tensor:
#      x y z
#    x 2.226600 0.000000 0.085470 
#    y 0.000000 2.484710 0.000000 
#    z 0.085470 0.000000 2.207760 
# 
# From -- ./inp_files/235713.got.cif
#   From: 2010.05.17/outbox.cif.g08.bks.cpg/sg15_118_cif.got.tgz:235713.got - 2010.06.03 18:47:42.
