data_PCOD9271051
_publ_section_title
;
Structure prediction by ZEFSAII (Michael W. Deem and Ramdas Pophale) SiO2 
 PCOD9271051
Probable space group: C 2/C
;
_chemical_formula_sum "Si O2"
_cell_formula_units_Z 44
_cell_length_a 20.055866
_cell_length_b 22.261473
_cell_length_c 9.408314
_cell_angle_alpha 90.000000
_cell_angle_beta 27.701576
_cell_angle_gamma 90.000000
_cell_volume 1952.698878
_symmetry_space_group_name_H-M "C 2/C"
_symmetry_group_IT_number 15
_symmetry_cell_setting 'monoclinic'
loop_
_space_group_symop_operation_xyz
x,y,z
-x,y,1/2-z
-x,-y,-z
x,-y,1/2+z
1/2+x,1/2+y,z
1/2-x,1/2+y,1/2-z
1/2-x,1/2-y,-z
1/2+x,1/2-y,1/2+z
loop_
_atom_site_type_symbol
_atom_site_label
_atom_site_fract_x
_atom_site_fract_y
_atom_site_fract_z
Si Si1 0.302958 0.032197 0.586366
Si Si2 0.343740 0.890536 0.502589
Si Si3 0.709452 0.805467 0.478156
Si Si4 0.828617 0.905534 0.403036
Si Si5 0.000000 0.990925 0.250000
Si Si6 0.384903 0.853702 0.118039
O O1 0.293187 0.052883 0.440526
O O2 0.373728 0.081718 0.556019
O O3 0.351712 0.963406 0.489990
O O4 0.139168 0.028172 0.950422
O O5 0.228884 0.877419 0.841855
O O6 0.313585 0.864963 0.404301
O O7 0.500000 0.867247 0.250000
O O8 0.750000 0.750000 0.500000
O O9 0.834947 0.853068 0.277638
O O10 0.691742 0.805378 0.341218
O O11 0.550649 0.831744 0.820893
O O12 0.961363 0.946883 0.191776
#
# Coordination Sequence:
#
# PCOD9271051 Si02
#       6
#     8   8   8   8   4   8
#     4  10  22  36  61  94 133 178 205 251 308 387
#     4  11  20  32  60  94 136 161 197 251 312 386
#     4  10  22  42  63  85 115 162 219 279 322 365
#     4  10  21  36  58  89 125 170 212 256 315 379
#     4  10  20  36  56  92 136 174 212 250 308 384
#     4  10  22  40  62  94 123 162 215 258 318 383
#
# _framework density 22.532914999999999
#
# number of rings (size 3 to 8) (size 9 to 14) (size 15 to 20)
#    0.000    1.818    1.818    2.727    5.091    4.364 
#    0.000    0.909    0.000   10.909    0.000    0.000 
#    0.000    0.000    0.000    0.000    0.000    0.000 
#
# Total GULP energy -122618.342749 kJ/mol
# GULP energy per Si atom -5573.561034 kJ/mol
# Density = 2.248163 g / cm^3
# Si number density = 22.532915 Si / 1000 Ang^3
#
#
#
# Elastic Constant Matrix: (Units=GPa)
#
#
# Indices 1 2 3 4 5 6 
#
# 1 140.3845 48.6905 33.7113 0.0045 8.7381 0.0084
# 2 48.6905 72.5008 3.9214 0.0028 -15.0904 0.0057
# 3 33.7113 3.9214 81.9423 0.0079 3.0978 0.0172
# 4 0.0045 0.0028 0.0079 50.3211 -0.0058 28.0012
# 5 8.7381 -15.0904 3.0978 -0.0058 36.7076 -0.0091
# 6 0.0084 0.0057 0.0172 28.0012 -0.0091 83.2101
#
#
#
# Elastic Compliance Matrix: (Units=1/GPa)
#
#
# Indices 1 2 3 4 5 6 
#
# 1 0.011519 -0.008763 -0.004093 0.000000 -0.005999 0.000000
# 2 -0.008763 0.021826 0.002150 0.000001 0.010877 0.000000
# 3 -0.004093 0.002150 0.013758 -0.000001 0.000697 -0.000002
# 4 0.000000 0.000001 -0.000001 0.024451 0.000002 -0.008228
# 5 -0.005999 0.010877 0.000697 0.000002 0.033083 0.000003
# 6 0.000000 0.000000 -0.000002 -0.008228 0.000003 0.014787
#
#
# Mechanical properties :
#
#
# Convention : Reuss Voigt Hill
#
# Bulk Modulus (GPa) = 38.92536 51.94156 45.43346
# Shear Modulus (GPa) = 33.46714 47.94805 40.70760
#
# Velocity S-wave (km/s) = 3.85808 4.61793 4.25500
# Velocity P-wave (km/s) = 6.09580 7.17880 6.65935
#
# Compressibility (1/GPa) = 0.02569019
#
# Stress axis : x y z
#
# Youngs Moduli (GPa) = 86.81349 45.81693 72.68357
#
# Poissons Ratio (x) = 0.40151 0.29748
# Poissons Ratio (y) = 0.76077 -0.15623
# Poissons Ratio (z) = 0.35531 -0.09848
#
# Static dielectric constant tensor:
#      x y z
#    x 1.896320 0.000000 0.012280 
#    y 0.000000 1.907050 0.000000 
#    z 0.012280 0.000000 1.858820 
# 
# From -- ./inp_files/51425.got.cif
#   From: 2010.05.17/outbox.cif.g08.bks.cpg/sg15_26_cif.got.tgz:51425.got - 2010.06.03 18:47:42.
