data_PCOD9271366
_publ_section_title
;
Structure prediction by ZEFSAII (Michael W. Deem and Ramdas Pophale) SiO2 
 PCOD9271366
Probable space group: C 2/C
;
_chemical_formula_sum "Si O2"
_cell_formula_units_Z 52
_cell_length_a 10.747328
_cell_length_b 16.361169
_cell_length_c 15.991836
_cell_angle_alpha 90.000000
_cell_angle_beta 87.541823
_cell_angle_gamma 90.000000
_cell_volume 2809.398444
_symmetry_space_group_name_H-M "C 2/C"
_symmetry_group_IT_number 15
_symmetry_cell_setting 'monoclinic'
loop_
_space_group_symop_operation_xyz
x,y,z
-x,y,1/2-z
-x,-y,-z
x,-y,1/2+z
1/2+x,1/2+y,z
1/2-x,1/2+y,1/2-z
1/2-x,1/2-y,-z
1/2+x,1/2-y,1/2+z
loop_
_atom_site_type_symbol
_atom_site_label
_atom_site_fract_x
_atom_site_fract_y
_atom_site_fract_z
Si Si1 0.798331 0.728248 0.136892
Si Si2 0.575433 0.630129 0.167228
Si Si3 0.319154 0.867207 0.460460
Si Si4 0.858545 0.000079 0.468572
Si Si5 0.061415 0.267288 0.439084
Si Si6 0.165441 0.179090 0.595595
Si Si7 0.500000 0.283020 0.250000
O O1 0.687772 0.688235 0.192255
O O2 0.761801 0.818217 0.105740
O O3 0.917856 0.729549 0.190135
O O4 0.805556 0.676948 0.051074
O O5 0.500000 0.604729 0.250000
O O6 0.627387 0.553004 0.116012
O O7 0.500036 0.689322 0.105520
O O8 0.249633 0.954051 0.474417
O O9 0.463441 0.843287 0.436151
O O10 0.823725 0.907503 0.450765
O O11 0.000000 0.000000 0.500000
O O12 0.091059 0.238999 0.533595
O O13 0.195247 0.287681 0.396359
O O14 0.091677 0.169286 0.684599
#
# Coordination Sequence:
#
# PCOD9271366 Si02
#       7
#     8   8   8   8   8   8   4
#     4   9  18  32  57  85 108 150 191 239 285 346
#     4  10  20  36  59  81 114 150 194 238 292 348
#     4   9  18  37  59  78 115 153 194 230 297 353
#     4  11  21  36  55  87 117 150 192 240 297 350
#     4  10  20  40  59  82 110 156 201 236 284 355
#     4  11  23  34  57  87 118 147 194 248 289 344
#     4  12  20  34  56  90 120 146 198 250 294 336
#
# _framework density 18.509301000000001
#
# number of rings (size 3 to 8) (size 9 to 14) (size 15 to 20)
#    0.000    1.846    3.077    2.769    1.077    0.615 
#    0.000    0.000    0.000    0.000   10.000    0.000 
#    0.000    0.000    0.000    0.000    0.000    0.000 
#
# Total GULP energy -144800.549511 kJ/mol
# GULP energy per Si atom -5569.251904 kJ/mol
# Density = 1.846717 g / cm^3
# Si number density = 18.509301 Si / 1000 Ang^3
#
#
#
# Elastic Constant Matrix: (Units=GPa)
#
#
# Indices 1 2 3 4 5 6 
#
# 1 100.5663 22.9308 24.0881 0.0000 9.1491 0.0000
# 2 22.9308 58.3043 1.9134 0.0000 0.0276 0.0000
# 3 24.0881 1.9134 54.3560 0.0000 -5.8989 0.0000
# 4 0.0000 0.0000 0.0000 11.3488 0.0000 -4.6932
# 5 9.1491 0.0276 -5.8989 0.0000 27.9529 0.0000
# 6 0.0000 0.0000 0.0000 -4.6932 0.0000 19.3769
#
#
#
# Elastic Compliance Matrix: (Units=1/GPa)
#
#
# Indices 1 2 3 4 5 6 
#
# 1 0.013067 -0.004932 -0.006223 0.000000 -0.005585 0.000000
# 2 -0.004932 0.019034 0.001729 0.000000 0.001960 0.000000
# 3 -0.006223 0.001729 0.021815 0.000000 0.006639 0.000000
# 4 0.000000 0.000000 0.000000 0.097923 0.000000 0.023717
# 5 -0.005585 0.001960 0.006639 0.000000 0.039002 0.000000
# 6 0.000000 0.000000 0.000000 0.023717 0.000000 0.057352
#
#
# Mechanical properties :
#
#
# Convention : Reuss Voigt Hill
#
# Bulk Modulus (GPa) = 28.52151 34.56571 31.54361
# Shear Modulus (GPa) = 17.93827 22.68866 20.31346
#
# Velocity S-wave (km/s) = 3.11649 3.50494 3.31641
# Velocity P-wave (km/s) = 5.32849 5.92408 5.63416
#
# Compressibility (1/GPa) = 0.03506125
#
# Stress axis : x y z
#
# Youngs Moduli (GPa) = 76.52792 52.53861 45.84055
#
# Poissons Ratio (x) = 0.25914 0.28528
# Poissons Ratio (y) = 0.37746 -0.07924
# Poissons Ratio (z) = 0.47625 -0.09081
#
# Static dielectric constant tensor:
#      x y z
#    x 1.687520 0.000000 -0.024560 
#    y 0.000000 1.629190 0.000000 
#    z -0.024560 0.000000 1.641150 
# 
# From -- ./inp_files/145039.got.cif
#   From: 2010.05.17/outbox.cif.g08.bks.cpg/sg15_73_cif.got.tgz:145039.got - 2010.06.03 18:47:42.
