data_PCOD9271327
_publ_section_title
;
Structure prediction by ZEFSAII (Michael W. Deem and Ramdas Pophale) SiO2 
 PCOD9271327
Probable space group: C 2/C
;
_chemical_formula_sum "Si O2"
_cell_formula_units_Z 64
_cell_length_a 27.025160
_cell_length_b 5.830047
_cell_length_c 27.149678
_cell_angle_alpha 90.000000
_cell_angle_beta 35.407772
_cell_angle_gamma 90.000000
_cell_volume 2478.433724
_symmetry_space_group_name_H-M "C 2/C"
_symmetry_group_IT_number 15
_symmetry_cell_setting 'monoclinic'
loop_
_space_group_symop_operation_xyz
x,y,z
-x,y,1/2-z
-x,-y,-z
x,-y,1/2+z
1/2+x,1/2+y,z
1/2-x,1/2+y,1/2-z
1/2-x,1/2-y,-z
1/2+x,1/2-y,1/2+z
loop_
_atom_site_type_symbol
_atom_site_label
_atom_site_fract_x
_atom_site_fract_y
_atom_site_fract_z
Si Si1 0.159570 0.181198 0.912350
Si Si2 0.653875 0.173315 0.937292
Si Si3 0.657979 0.220877 0.635293
Si Si4 0.965584 0.111218 0.733376
Si Si5 0.195761 0.437214 0.514445
Si Si6 0.452255 0.268951 0.092848
Si Si7 0.524262 0.353947 0.602888
Si Si8 0.611772 0.019838 0.267127
O O1 0.196962 0.442191 0.879879
O O2 0.089914 0.184785 0.924956
O O3 0.191864 0.914588 0.885526
O O4 0.109173 0.193268 0.004859
O O5 0.662049 0.166000 0.990174
O O6 0.550658 0.176471 0.009669
O O7 0.582678 0.401437 0.702838
O O8 0.741304 0.362583 0.554390
O O9 0.669616 0.120642 0.681496
O O10 0.641016 0.052170 0.603035
O O11 0.900302 0.248220 0.753302
O O12 0.000000 0.259075 0.750000
O O13 0.036863 0.020476 0.638671
O O14 0.250000 0.250000 0.500000
O O15 0.463571 0.504614 0.114549
O O16 0.389086 0.100529 0.175307
O O17 0.475551 0.130433 0.660917
#
# Coordination Sequence:
#
# PCOD9271327 Si02
#       8
#     8   8   8   8   8   8   8   8
#     4  11  23  39  64 104 141 173 212 280 338 408
#     4  11  24  39  66  99 138 173 225 268 338 404
#     4  10  24  42  63  88 124 175 227 282 334 398
#     4  10  22  36  57  91 129 169 212 271 339 412
#     4  11  26  44  66  90 126 179 230 286 332 392
#     4  10  21  37  64  99 140 172 207 278 347 406
#     4   9  19  33  53  88 130 170 204 250 330 397
#     4  10  20  36  58  91 125 174 211 262 336 407
#
# _framework density 25.822761
#
# number of rings (size 3 to 8) (size 9 to 14) (size 15 to 20)
#    0.000    1.750    1.250    2.625    7.000    7.000 
#    0.000    0.000    0.000    0.000   13.000    0.000 
#    0.000    0.000    0.000    0.000    0.000    0.000 
#
# Total GULP energy -178654.569131 kJ/mol
# GULP energy per Si atom -5582.955285 kJ/mol
# Density = 2.576399 g / cm^3
# Si number density = 25.822761 Si / 1000 Ang^3
#
#
#
# Elastic Constant Matrix: (Units=GPa)
#
#
# Indices 1 2 3 4 5 6 
#
# 1 106.2745 32.7485 -3.4022 -0.0462 19.7969 -1.4527
# 2 32.7485 137.9166 18.6803 0.3169 4.8500 -1.3674
# 3 -3.4022 18.6803 76.7236 0.2385 10.4303 -0.7968
# 4 -0.0462 0.3169 0.2385 56.7063 -0.1561 -1.7727
# 5 19.7969 4.8500 10.4303 -0.1561 20.8228 0.2371
# 6 -1.4527 -1.3674 -0.7968 -1.7727 0.2371 13.0998
#
#
#
# Elastic Compliance Matrix: (Units=1/GPa)
#
#
# Indices 1 2 3 4 5 6 
#
# 1 0.012905 -0.003008 0.003107 0.000026 -0.013143 0.001548
# 2 -0.003008 0.008221 -0.002424 -0.000022 0.002155 0.000335
# 3 0.003107 -0.002424 0.015131 -0.000038 -0.009983 0.001187
# 4 0.000026 -0.000022 -0.000038 0.017710 0.000104 0.002393
# 5 -0.013143 0.002155 -0.009983 0.000104 0.065053 -0.003003
# 6 0.001548 0.000335 0.001187 0.002393 -0.003003 0.076994
#
#
# Mechanical properties :
#
#
# Convention : Reuss Voigt Hill
#
# Bulk Modulus (GPa) = 31.63766 46.32977 38.98371
# Shear Modulus (GPa) = 23.67415 36.31832 29.99624
#
# Velocity S-wave (km/s) = 3.03115 3.75433 3.41195
# Velocity P-wave (km/s) = 4.95267 6.06413 5.53636
#
# Compressibility (1/GPa) = 0.03160790
#
# Stress axis : x y z
#
# Youngs Moduli (GPa) = 77.48723 121.64081 66.08750
#
# Poissons Ratio (x) = 0.36587 -0.20535
# Poissons Ratio (y) = 0.23307 0.16022
# Poissons Ratio (z) = -0.24078 0.29491
#
# Static dielectric constant tensor:
#      x y z
#    x 2.103910 -0.000090 -0.047260 
#    y -0.000090 2.140740 0.000740 
#    z -0.047260 0.000740 2.082540 
# 
# From -- ./inp_files/304072.got.cif
#   From: 2010.05.17/outbox.cif.g08.bks.cpg/sg15_153_cif.got.tgz:304072.got - 2010.06.03 18:47:42.
