data_PCOD9271210
_publ_section_title
;
Structure prediction by ZEFSAII (Michael W. Deem and Ramdas Pophale) SiO2 
 PCOD9271210
Probable space group: C 2/C
;
_chemical_formula_sum "Si O2"
_cell_formula_units_Z 64
_cell_length_a 16.076141
_cell_length_b 22.389399
_cell_length_c 17.168805
_cell_angle_alpha 90.000000
_cell_angle_beta 146.406818
_cell_angle_gamma 90.000000
_cell_volume 3419.156971
_symmetry_space_group_name_H-M "C 2/C"
_symmetry_group_IT_number 15
_symmetry_cell_setting 'monoclinic'
loop_
_space_group_symop_operation_xyz
x,y,z
-x,y,1/2-z
-x,-y,-z
x,-y,1/2+z
1/2+x,1/2+y,z
1/2-x,1/2+y,1/2-z
1/2-x,1/2-y,-z
1/2+x,1/2-y,1/2+z
loop_
_atom_site_type_symbol
_atom_site_label
_atom_site_fract_x
_atom_site_fract_y
_atom_site_fract_z
Si Si1 0.006626 0.335826 0.973059
Si Si2 0.851420 0.025355 0.685532
Si Si3 0.275426 0.105124 0.400332
Si Si4 0.448993 0.954195 0.299641
Si Si5 0.787078 0.893820 0.284033
Si Si6 0.924779 0.787755 0.474809
Si Si7 0.052948 0.577190 0.379239
Si Si8 0.381074 0.724125 0.218741
O O1 0.855024 0.368139 0.885754
O O2 0.982398 0.266046 0.965436
O O3 0.033873 0.361377 0.909383
O O4 0.149792 0.357238 0.135991
O O5 0.847460 0.062473 0.763347
O O6 0.719375 0.052317 0.527410
O O7 0.000000 0.029671 0.750000
O O8 0.816970 0.955958 0.678452
O O9 0.419943 0.086758 0.563295
O O10 0.182670 0.160712 0.361991
O O11 0.500000 0.958816 0.250000
O O12 0.291420 0.927588 0.204372
O O13 0.456727 0.021642 0.339086
O O14 0.907218 0.848293 0.413044
O O15 0.758903 0.767750 0.375330
O O16 0.033167 0.789367 0.633799
O O17 0.000000 0.584551 0.250000
O O18 0.500000 0.749595 0.250000
#
# Coordination Sequence:
#
# PCOD9271210 Si02
#       8
#     8   8   8   8   8   8   8   8
#     4   9  18  37  59  80 110 149 192 232 279 330
#     4  10  20  38  58  83 119 148 184 235 290 337
#     4   9  19  35  57  83 113 150 182 228 282 337
#     4   9  18  32  59  90 115 144 186 229 276 346
#     4  10  20  36  58  82 114 155 185 230 287 334
#     4  11  22  39  55  81 111 148 194 236 273 335
#     4   9  18  36  61  86 108 143 192 235 279 336
#     4  11  23  37  56  81 112 150 187 228 281 338
#
# _framework density 18.718063999999998
#
# number of rings (size 3 to 8) (size 9 to 14) (size 15 to 20)
#    0.000    2.250    1.250    1.500    1.750    3.500 
#    6.750    1.250    0.000    3.000    0.000    0.000 
#    0.000    0.000    0.000    0.000    0.000    0.000 
#
# Total GULP energy -178358.645163 kJ/mol
# GULP energy per Si atom -5573.707661 kJ/mol
# Density = 1.867546 g / cm^3
# Si number density = 18.718064 Si / 1000 Ang^3
#
#
#
# Elastic Constant Matrix: (Units=GPa)
#
#
# Indices 1 2 3 4 5 6 
#
# 1 40.8309 15.2100 0.5283 -0.0001 2.0961 -0.0001
# 2 15.2100 57.5487 3.6172 -0.0001 -0.4494 -0.0001
# 3 0.5283 3.6172 36.2489 -0.0002 -10.6313 -0.0002
# 4 -0.0001 -0.0001 -0.0002 19.5008 -0.0001 -0.0804
# 5 2.0961 -0.4494 -10.6313 -0.0001 23.6394 -0.0001
# 6 -0.0001 -0.0001 -0.0002 -0.0804 -0.0001 10.0712
#
#
#
# Elastic Compliance Matrix: (Units=1/GPa)
#
#
# Indices 1 2 3 4 5 6 
#
# 1 0.027327 -0.007213 -0.000495 0.000000 -0.002783 0.000000
# 2 -0.007213 0.019396 -0.001768 0.000000 0.000213 0.000000
# 3 -0.000495 -0.001768 0.031994 0.000000 0.014399 0.000001
# 4 0.000000 0.000000 0.000000 0.051282 0.000000 0.000410
# 5 -0.002783 0.000213 0.014399 0.000000 0.049028 0.000001
# 6 0.000000 0.000000 0.000001 0.000410 0.000001 0.099297
#
#
# Mechanical properties :
#
#
# Convention : Reuss Voigt Hill
#
# Bulk Modulus (GPa) = 16.73204 19.25996 17.99600
# Shear Modulus (GPa) = 15.76309 18.32714 17.04512
#
# Velocity S-wave (km/s) = 2.90510 3.13248 3.02093
# Velocity P-wave (km/s) = 4.49569 4.83684 4.66938
#
# Compressibility (1/GPa) = 0.05976557
#
# Stress axis : x y z
#
# Youngs Moduli (GPa) = 36.59318 51.55756 31.25628
#
# Poissons Ratio (x) = 0.37190 0.01546
# Poissons Ratio (y) = 0.26396 0.05525
# Poissons Ratio (z) = 0.01810 0.09114
#
# Static dielectric constant tensor:
#      x y z
#    x 1.681300 0.000000 0.010120 
#    y 0.000000 1.661440 0.000000 
#    z 0.010120 0.000000 1.659730 
# 
# From -- ./inp_files/58661.got.cif
#   From: 2010.05.17/outbox.cif.g08.bks.cpg/sg15_30_cif.got.tgz:58661.got - 2010.06.03 18:47:42.
