data_PCOD9271776
_publ_section_title
;
Structure prediction by ZEFSAII (Michael W. Deem and Ramdas Pophale) SiO2 
 PCOD9271776
Probable space group: C 2/C
;
_chemical_formula_sum "Si O2"
_cell_formula_units_Z 56
_cell_length_a 33.267192
_cell_length_b 12.144027
_cell_length_c 8.929544
_cell_angle_alpha 90.000000
_cell_angle_beta 125.450360
_cell_angle_gamma 90.000000
_cell_volume 2938.747852
_symmetry_space_group_name_H-M "C 2/C"
_symmetry_group_IT_number 15
_symmetry_cell_setting 'monoclinic'
loop_
_space_group_symop_operation_xyz
x,y,z
-x,y,1/2-z
-x,-y,-z
x,-y,1/2+z
1/2+x,1/2+y,z
1/2-x,1/2+y,1/2-z
1/2-x,1/2-y,-z
1/2+x,1/2-y,1/2+z
loop_
_atom_site_type_symbol
_atom_site_label
_atom_site_fract_x
_atom_site_fract_y
_atom_site_fract_z
Si Si1 0.291610 0.499528 0.249989
Si Si2 0.448620 0.835518 0.097511
Si Si3 0.156294 0.226144 0.598704
Si Si4 0.354282 0.091903 0.914325
Si Si5 0.307553 0.277120 0.648107
Si Si6 0.275435 0.089113 0.139663
Si Si7 0.919105 0.498710 0.300349
O O1 0.330259 0.402460 0.362705
O O2 0.312339 0.593749 0.186392
O O3 0.270071 0.566794 0.344861
O O4 0.245402 0.440754 0.067656
O O5 0.500000 0.777285 0.250000
O O6 0.440504 0.922400 0.216081
O O7 0.399193 0.761905 0.980909
O O8 0.451571 0.908136 0.952056
O O9 0.165759 0.259613 0.446316
O O10 0.197075 0.294969 0.780855
O O11 0.329270 0.208649 0.832681
O O12 0.315402 0.000352 0.778511
O O13 0.398554 0.076265 0.890494
O O14 0.374788 0.064098 0.121295
O O15 0.250000 0.250000 0.500000
#
# Coordination Sequence:
#
# PCOD9271776 Si02
#       7
#     8   8   8   8   8   8   8
#     4  12  25  36  55  88 121 164 207 234 289 368
#     4  11  23  40  64  91 121 159 202 256 310 355
#     4  12  23  40  58  86 122 159 203 251 301 353
#     4  11  19  35  58  87 122 160 186 234 304 354
#     4  12  21  37  57  83 123 162 197 245 294 351
#     4  12  21  36  58  85 127 157 194 238 293 371
#     4  10  20  36  61  91 119 149 193 248 305 365
#
# _framework density 19.055734000000001
#
# number of rings (size 3 to 8) (size 9 to 14) (size 15 to 20)
#    0.000    0.571    8.571    1.714    0.000    1.143 
#    0.000    0.000    0.000    0.857    0.000    0.000 
#    0.000    0.000    0.000    0.000    0.000    0.000 
#
# Total GULP energy -156368.385964 kJ/mol
# GULP energy per Si atom -5584.585213 kJ/mol
# Density = 1.901236 g / cm^3
# Si number density = 19.055734 Si / 1000 Ang^3
#
#
#
# Elastic Constant Matrix: (Units=GPa)
#
#
# Indices 1 2 3 4 5 6 
#
# 1 30.6993 13.2175 28.5422 0.0000 3.5424 0.0000
# 2 13.2175 89.2561 20.9543 0.0000 16.7922 0.0000
# 3 28.5422 20.9543 68.9787 0.0000 12.4771 0.0000
# 4 0.0000 0.0000 0.0000 25.1262 0.0000 -4.6332
# 5 3.5424 16.7922 12.4771 0.0000 34.2017 0.0000
# 6 0.0000 0.0000 0.0000 -4.6332 0.0000 18.3588
#
#
#
# Elastic Compliance Matrix: (Units=1/GPa)
#
#
# Indices 1 2 3 4 5 6 
#
# 1 0.054179 -0.003635 -0.022079 0.000000 0.004228 0.000000
# 2 -0.003635 0.013131 -0.001485 0.000000 -0.005529 0.000000
# 3 -0.022079 -0.001485 0.025201 0.000000 -0.006178 0.000000
# 4 0.000000 0.000000 0.000000 0.041742 0.000000 0.010534
# 5 0.004228 -0.005529 -0.006178 0.000000 0.033769 0.000000
# 6 0.000000 0.000000 0.000000 0.010534 0.000000 0.057128
#
#
# Mechanical properties :
#
#
# Convention : Reuss Voigt Hill
#
# Bulk Modulus (GPa) = 26.23704 34.92909 30.58306
# Shear Modulus (GPa) = 17.10859 23.95201 20.53030
#
# Velocity S-wave (km/s) = 2.99961 3.54919 3.28591
# Velocity P-wave (km/s) = 5.07891 5.93004 5.52090
#
# Compressibility (1/GPa) = 0.03811406
#
# Stress axis : x y z
#
# Youngs Moduli (GPa) = 18.45749 76.15739 39.68019
#
# Poissons Ratio (x) = 0.27684 0.87608
# Poissons Ratio (y) = 0.06710 0.05891
# Poissons Ratio (z) = 0.40752 0.11306
#
# Static dielectric constant tensor:
#      x y z
#    x 1.726040 0.000000 -0.019080 
#    y 0.000000 1.659920 0.000000 
#    z -0.019080 0.000000 1.694200 
# 
# From -- ./inp_files/66159.got.cif
#   From: 2010.05.17/outbox.cif.g08.bks.cpg/sg15_34_cif.got.tgz:66159.got - 2010.06.03 18:47:42.
