data_PCOD9271719
_publ_section_title
;
Structure prediction by ZEFSAII (Michael W. Deem and Ramdas Pophale) SiO2 
 PCOD9271719
Probable space group: C 2/C
;
_chemical_formula_sum "Si O2"
_cell_formula_units_Z 60
_cell_length_a 8.578037
_cell_length_b 24.180137
_cell_length_c 18.495131
_cell_angle_alpha 90.000000
_cell_angle_beta 60.612423
_cell_angle_gamma 90.000000
_cell_volume 3342.580546
_symmetry_space_group_name_H-M "C 2/C"
_symmetry_group_IT_number 15
_symmetry_cell_setting 'monoclinic'
loop_
_space_group_symop_operation_xyz
x,y,z
-x,y,1/2-z
-x,-y,-z
x,-y,1/2+z
1/2+x,1/2+y,z
1/2-x,1/2+y,1/2-z
1/2-x,1/2-y,-z
1/2+x,1/2-y,1/2+z
loop_
_atom_site_type_symbol
_atom_site_label
_atom_site_fract_x
_atom_site_fract_y
_atom_site_fract_z
Si Si1 0.361397 0.042193 0.496624
Si Si2 0.000000 0.745213 0.250000
Si Si3 0.879808 0.665605 0.480704
Si Si4 0.809186 0.538437 0.334458
Si Si5 0.018679 0.955918 0.331993
Si Si6 0.526879 0.668026 0.871594
Si Si7 0.266780 0.335450 0.640880
Si Si8 0.084273 0.772854 0.494478
O O1 0.443222 0.104222 0.486715
O O2 0.331213 0.032898 0.416996
O O3 0.171742 0.038073 0.582537
O O4 0.500000 0.000000 0.500000
O O5 0.989212 0.786257 0.185470
O O6 0.826435 0.706346 0.283617
O O7 0.673435 0.664742 0.551360
O O8 0.867749 0.669075 0.397239
O O9 0.974306 0.719094 0.491744
O O10 0.666114 0.495411 0.334930
O O11 0.735452 0.600682 0.337442
O O12 0.000000 0.532739 0.250000
O O13 0.076991 0.891938 0.330357
O O14 0.000000 0.966425 0.250000
O O15 0.641441 0.690661 0.912391
O O16 0.455757 0.311142 0.572629
O O17 0.250000 0.750000 0.500000
#
# Coordination Sequence:
#
# PCOD9271719 Si02
#       8
#     8   4   8   8   8   8   8   8
#     4  10  22  38  61  86 117 161 205 250 302 367
#     4  12  16  34  66  80 108 142 214 234 268 358
#     4   9  18  36  57  79 109 151 205 224 280 365
#     4  11  23  40  61  90 121 160 207 255 311 367
#     4  11  23  40  61  90 121 160 207 255 311 367
#     4  10  20  36  61  83 108 158 198 238 285 372
#     4  10  20  36  61  83 108 158 198 238 285 372
#     4  11  21  36  56  89 122 149 191 258 319 343
#
# _framework density 17.950202999999998
#
# number of rings (size 3 to 8) (size 9 to 14) (size 15 to 20)
#    0.000    1.600    4.000    2.800    0.000    2.133 
#    0.000    3.333    0.000    0.000    0.000    0.000 
#    0.000    0.000    0.000    0.000    0.000    0.000 
#
# Total GULP energy -167258.337760 kJ/mol
# GULP energy per Si atom -5575.277925 kJ/mol
# Density = 1.790935 g / cm^3
# Si number density = 17.950203 Si / 1000 Ang^3
#
#
#
# Elastic Constant Matrix: (Units=GPa)
#
#
# Indices 1 2 3 4 5 6 
#
# 1 68.6820 50.7447 20.7594 0.0000 3.8873 0.0000
# 2 50.7447 147.9171 31.5099 0.0000 2.7593 0.0000
# 3 20.7594 31.5099 97.3868 0.0000 4.6852 0.0000
# 4 0.0000 0.0000 0.0000 -43.6930 0.0000 -20.9259
# 5 3.8873 2.7593 4.6852 0.0000 21.7977 0.0000
# 6 0.0000 0.0000 0.0000 -20.9259 0.0000 25.8433
#
#
#
# Elastic Compliance Matrix: (Units=1/GPa)
#
#
# Indices 1 2 3 4 5 6 
#
# 1 0.020043 -0.006386 -0.002095 0.000000 -0.002316 0.000000
# 2 -0.006386 0.009300 -0.001663 0.000000 0.000319 0.000000
# 3 -0.002095 -0.001663 0.011342 0.000000 -0.001854 0.000000
# 4 0.000000 0.000000 0.000000 -0.016492 0.000000 -0.013354
# 5 -0.002316 0.000319 -0.001854 0.000000 0.046647 0.000000
# 6 0.000000 0.000000 0.000000 -0.013354 0.000000 0.027882
#
#
# Mechanical properties :
#
#
# Convention : Reuss Voigt Hill
#
# Bulk Modulus (GPa) = 49.02831 57.77935 53.40383
# Shear Modulus (GPa) = 39.74275 14.85439 27.29857
#
# Velocity S-wave (km/s) = 4.71048 2.87981 3.90397
# Velocity P-wave (km/s) = 7.54703 6.58151 7.08075
#
# Compressibility (1/GPa) = 0.02039638
#
# Stress axis : x y z
#
# Youngs Moduli (GPa) = 49.89391 107.52942 88.16731
#
# Poissons Ratio (x) = 0.68673 0.18467
# Poissons Ratio (y) = 0.31864 0.14662
# Poissons Ratio (z) = 0.10451 0.17882
#
# Static dielectric constant tensor:
#      x y z
#    x 1.581300 0.000000 0.012160 
#    y 0.000000 1.637670 0.000000 
#    z 0.012160 0.000000 1.820870 
# 
# From -- ./inp_files/193254.got.cif
#   From: 2010.05.17/outbox.cif.g08.bks.cpg/sg15_97_cif.got.tgz:193254.got - 2010.06.03 18:47:42.
