data_PCOD9271792
_publ_section_title
;
Structure prediction by ZEFSAII (Michael W. Deem and Ramdas Pophale) SiO2 
 PCOD9271792
Probable space group: C 2/C
;
_chemical_formula_sum "Si O2"
_cell_formula_units_Z 48
_cell_length_a 9.393864
_cell_length_b 29.500623
_cell_length_c 14.330708
_cell_angle_alpha 90.000000
_cell_angle_beta 33.837213
_cell_angle_gamma 90.000000
_cell_volume 2211.412677
_symmetry_space_group_name_H-M "C 2/C"
_symmetry_group_IT_number 15
_symmetry_cell_setting 'monoclinic'
loop_
_space_group_symop_operation_xyz
x,y,z
-x,y,1/2-z
-x,-y,-z
x,-y,1/2+z
1/2+x,1/2+y,z
1/2-x,1/2+y,1/2-z
1/2-x,1/2-y,-z
1/2+x,1/2-y,1/2+z
loop_
_atom_site_type_symbol
_atom_site_label
_atom_site_fract_x
_atom_site_fract_y
_atom_site_fract_z
Si Si1 0.203549 0.843689 0.407518
Si Si2 0.221020 0.611609 0.947914
Si Si3 0.259358 0.200985 0.448539
Si Si4 0.078444 0.920403 0.600816
Si Si5 0.440649 0.959490 0.102389
Si Si6 0.979769 0.933476 0.460389
O O1 0.500000 0.829139 0.250000
O O2 0.123512 0.867094 0.549856
O O3 0.165293 0.888565 0.364709
O O4 0.997383 0.810128 0.472481
O O5 0.500000 0.609655 0.750000
O O6 0.049228 0.586577 0.966377
O O7 0.240681 0.580034 0.028370
O O8 0.189387 0.662439 0.001065
O O9 0.500000 0.198529 0.250000
O O10 0.250000 0.250000 0.500000
O O11 0.334732 0.950249 0.447019
O O12 0.000000 0.926993 0.750000
O O13 0.906281 0.937811 0.608293
O O14 0.166804 0.965930 0.301067
O O15 0.500000 0.000000 0.000000
#
# Coordination Sequence:
#
# PCOD9271792 Si02
#       6
#     8   8   8   8   8   8
#     4   9  18  41  73  90 127 181 223 268 344 402
#     4   9  20  38  67  89 126 181 219 273 352 406
#     4  11  24  43  69 102 138 171 226 284 346 415
#     4  10  20  36  61  92 123 172 225 280 331 396
#     4  11  21  35  59  94 128 174 231 278 340 414
#     4   8  17  39  59  84 124 170 222 276 331 404
#
# _framework density 21.705580999999999
#
# number of rings (size 3 to 8) (size 9 to 14) (size 15 to 20)
#    1.000    1.333    1.667    1.000    2.333    2.000 
#    0.000    7.500    0.000    0.000    0.000    0.000 
#    0.000    0.000    0.000    0.000    0.000    0.000 
#
# Total GULP energy -133603.715529 kJ/mol
# GULP energy per Si atom -5566.821480 kJ/mol
# Density = 2.165618 g / cm^3
# Si number density = 21.705581 Si / 1000 Ang^3
#
#
#
# Elastic Constant Matrix: (Units=GPa)
#
#
# Indices 1 2 3 4 5 6 
#
# 1 83.4177 25.6662 29.0698 0.0000 13.0842 0.0000
# 2 25.6662 93.5541 26.8997 0.0000 -2.7488 0.0000
# 3 29.0698 26.8997 72.9498 0.0000 5.5906 0.0000
# 4 0.0000 0.0000 0.0000 24.6119 0.0000 9.5628
# 5 13.0842 -2.7488 5.5906 0.0000 46.3617 0.0000
# 6 0.0000 0.0000 0.0000 9.5628 0.0000 -14.4866
#
#
#
# Elastic Compliance Matrix: (Units=1/GPa)
#
#
# Indices 1 2 3 4 5 6 
#
# 1 0.015116 -0.002925 -0.004648 0.000000 -0.003879 0.000000
# 2 -0.002925 0.012595 -0.003633 0.000000 0.002010 0.000000
# 3 -0.004648 -0.003633 0.016973 0.000000 -0.000950 0.000000
# 4 0.000000 0.000000 0.000000 0.032337 0.000000 0.021346
# 5 -0.003879 0.002010 -0.000950 0.000000 0.022898 0.000000
# 6 0.000000 0.000000 0.000000 0.021346 0.000000 -0.054939
#
#
# Mechanical properties :
#
#
# Convention : Reuss Voigt Hill
#
# Bulk Modulus (GPa) = 44.89789 45.91033 45.40411
# Shear Modulus (GPa) = 66.83163 22.51645 44.67404
#
# Velocity S-wave (km/s) = 5.55490 3.22430 4.54164
# Velocity P-wave (km/s) = 7.86590 5.92104 6.96172
#
# Compressibility (1/GPa) = 0.02227276
#
# Stress axis : x y z
#
# Youngs Moduli (GPa) = 66.15589 79.39661 58.91831
#
# Poissons Ratio (x) = 0.23220 0.27384
# Poissons Ratio (y) = 0.19348 0.21405
# Poissons Ratio (z) = 0.30748 0.28845
#
# Static dielectric constant tensor:
#      x y z
#    x 1.986960 0.000000 -0.107910 
#    y 0.000000 1.747570 0.000000 
#    z -0.107910 0.000000 1.925700 
# 
# From -- ./inp_files/200894.got.cif
#   From: 2010.05.17/outbox.cif.g08.bks.cpg/sg15_101_cif.got.tgz:200894.got - 2010.06.03 18:47:42.
