data_PCOD9271492
_publ_section_title
;
Structure prediction by ZEFSAII (Michael W. Deem and Ramdas Pophale) SiO2 
 PCOD9271492
Probable space group: C 2/C
;
_chemical_formula_sum "Si O2"
_cell_formula_units_Z 48
_cell_length_a 13.906360
_cell_length_b 31.925824
_cell_length_c 9.816323
_cell_angle_alpha 90.000000
_cell_angle_beta 31.073638
_cell_angle_gamma 90.000000
_cell_volume 2249.424152
_symmetry_space_group_name_H-M "C 2/C"
_symmetry_group_IT_number 15
_symmetry_cell_setting 'monoclinic'
loop_
_space_group_symop_operation_xyz
x,y,z
-x,y,1/2-z
-x,-y,-z
x,-y,1/2+z
1/2+x,1/2+y,z
1/2-x,1/2+y,1/2-z
1/2-x,1/2-y,-z
1/2+x,1/2-y,1/2+z
loop_
_atom_site_type_symbol
_atom_site_label
_atom_site_fract_x
_atom_site_fract_y
_atom_site_fract_z
Si Si1 0.066682 0.143494 0.905926
Si Si2 0.158813 0.930448 0.806805
Si Si3 0.811076 0.408211 0.903802
Si Si4 0.145930 0.006897 0.685198
Si Si5 0.170490 0.697783 0.733409
Si Si6 0.248023 0.206321 0.184646
O O1 0.154234 0.119521 0.670167
O O2 0.228075 0.162936 0.801660
O O3 0.947520 0.108250 0.130877
O O4 0.922868 0.180589 0.046650
O O5 0.278659 0.908563 0.780647
O O6 0.258657 0.966532 0.600727
O O7 0.992191 0.961966 0.060521
O O8 0.000000 0.395487 0.750000
O O9 0.783057 0.457778 0.963719
O O10 0.000000 0.990371 0.750000
O O11 0.221421 0.743817 0.728901
O O12 0.242385 0.697426 0.489927
O O13 0.947861 0.693693 0.001563
#
# Coordination Sequence:
#
# PCOD9271492 Si02
#       6
#     8   8   8   8   8   8
#     4  11  21  35  61  86 119 162 203 245 307 365
#     4   9  19  36  58  82 117 158 195 248 302 353
#     4  10  22  38  59  87 122 163 207 253 300 359
#     4   8  16  35  60  84 109 156 199 241 307 361
#     4  10  20  36  59  91 119 158 195 256 311 369
#     4  10  20  36  60  88 124 154 203 249 315 369
#
# _framework density 21.338794
#
# number of rings (size 3 to 8) (size 9 to 14) (size 15 to 20)
#    0.000    2.333    1.667    2.000    2.333    2.000 
#    0.000    0.000    3.667    7.000    0.000    0.000 
#    0.000    0.000    0.000    0.000    0.000    0.000 
#
# Total GULP energy -133640.307640 kJ/mol
# GULP energy per Si atom -5568.346152 kJ/mol
# Density = 2.129023 g / cm^3
# Si number density = 21.338794 Si / 1000 Ang^3
#
#
#
# Elastic Constant Matrix: (Units=GPa)
#
#
# Indices 1 2 3 4 5 6 
#
# 1 97.6333 71.9699 33.9146 0.0000 -27.4780 0.0000
# 2 71.9699 127.3816 26.5286 0.0000 -15.0419 0.0000
# 3 33.9146 26.5286 55.1527 0.0000 -22.6103 0.0000
# 4 0.0000 0.0000 0.0000 5.5062 0.0000 -4.8804
# 5 -27.4780 -15.0419 -22.6103 0.0000 20.8073 0.0000
# 6 0.0000 0.0000 0.0000 -4.8804 0.0000 35.7740
#
#
#
# Elastic Compliance Matrix: (Units=1/GPa)
#
#
# Indices 1 2 3 4 5 6 
#
# 1 0.026292 -0.011797 0.000442 0.000000 0.026672 0.000000
# 2 -0.011797 0.014134 -0.003142 0.000000 -0.008776 0.000000
# 3 0.000442 -0.003142 0.033685 0.000000 0.034916 0.000000
# 4 0.000000 0.000000 0.000000 0.206594 0.000000 0.028184
# 5 0.026672 -0.008776 0.034916 0.000000 0.114881 0.000000
# 6 0.000000 0.000000 0.000000 0.028184 0.000000 0.031798
#
#
# Mechanical properties :
#
#
# Convention : Reuss Voigt Hill
#
# Bulk Modulus (GPa) = 22.16489 60.55487 41.35988
# Shear Modulus (GPa) = 10.60630 22.26781 16.43706
#
# Velocity S-wave (km/s) = 2.23187 3.23389 2.77842
# Velocity P-wave (km/s) = 4.12932 6.51026 5.45137
#
# Compressibility (1/GPa) = 0.04511639
#
# Stress axis : x y z
#
# Youngs Moduli (GPa) = 38.03453 70.75257 29.68650
#
# Poissons Ratio (x) = 0.83468 -0.01311
# Poissons Ratio (y) = 0.44870 0.09327
# Poissons Ratio (z) = -0.01680 0.22229
#
# Static dielectric constant tensor:
#      x y z
#    x 1.856520 0.000000 0.087450 
#    y 0.000000 1.815840 0.000000 
#    z 0.087450 0.000000 1.944990 
# 
# From -- ./inp_files/101202.got.cif
#   From: 2010.05.17/outbox.cif.g08.bks.cpg/sg15_51_cif.got.tgz:101202.got - 2010.06.03 18:47:42.
