data_PCOD9271325
_publ_section_title
;
Structure prediction by ZEFSAII (Michael W. Deem and Ramdas Pophale) SiO2 
 PCOD9271325
Probable space group: C 2/C
;
_chemical_formula_sum "Si O2"
_cell_formula_units_Z 56
_cell_length_a 10.361443
_cell_length_b 11.784388
_cell_length_c 18.380125
_cell_angle_alpha 90.000000
_cell_angle_beta 90.790335
_cell_angle_gamma 90.000000
_cell_volume 2244.059756
_symmetry_space_group_name_H-M "C 2/C"
_symmetry_group_IT_number 15
_symmetry_cell_setting 'monoclinic'
loop_
_space_group_symop_operation_xyz
x,y,z
-x,y,1/2-z
-x,-y,-z
x,-y,1/2+z
1/2+x,1/2+y,z
1/2-x,1/2+y,1/2-z
1/2-x,1/2-y,-z
1/2+x,1/2-y,1/2+z
loop_
_atom_site_type_symbol
_atom_site_label
_atom_site_fract_x
_atom_site_fract_y
_atom_site_fract_z
Si Si1 0.446739 0.924646 0.169170
Si Si2 0.367690 0.716594 0.770171
Si Si3 0.349296 0.946451 0.940026
Si Si4 0.666889 0.471131 0.705101
Si Si5 0.783018 0.764015 0.874562
Si Si6 0.913132 0.338620 0.516296
Si Si7 0.659852 0.330004 0.852341
O O1 0.500000 0.906348 0.250000
O O2 0.410447 0.793653 0.144106
O O3 0.556787 0.990252 0.121059
O O4 0.316817 0.998465 0.184697
O O5 0.500000 0.774514 0.750000
O O6 0.397793 0.592214 0.799611
O O7 0.264407 0.707998 0.702209
O O8 0.303607 0.788234 0.831888
O O9 0.203515 0.912503 0.918302
O O10 0.353575 0.035176 0.006954
O O11 0.435071 0.844790 0.972251
O O12 0.635159 0.373711 0.648055
O O13 0.635274 0.412976 0.782786
O O14 0.863201 0.714402 0.941629
O O15 0.648044 0.784683 0.913467
#
# Coordination Sequence:
#
# PCOD9271325 Si02
#       7
#     8   8   8   8   8   8   8
#     4  11  22  37  64  96 124 161 212 273 334 382
#     4  10  21  35  61  90 118 156 203 262 327 379
#     4  11  21  40  62  87 122 166 215 263 319 380
#     4  10  20  36  58  91 123 154 202 271 323 380
#     4  10  20  38  60  84 120 161 211 248 309 394
#     4  10  22  36  62  84 115 174 212 245 304 392
#     4  10  22  36  62  94 120 155 210 268 320 390
#
# _framework density 24.954774
#
# number of rings (size 3 to 8) (size 9 to 14) (size 15 to 20)
#    0.000    1.714    2.857    1.714    6.000    0.571 
#    0.000    2.857    6.286    3.429    0.000    0.000 
#    0.000    0.000    0.000    0.000    0.000    0.000 
#
# Total GULP energy -156020.488473 kJ/mol
# GULP energy per Si atom -5572.160303 kJ/mol
# Density = 2.489798 g / cm^3
# Si number density = 24.954774 Si / 1000 Ang^3
#
#
#
# Elastic Constant Matrix: (Units=GPa)
#
#
# Indices 1 2 3 4 5 6 
#
# 1 25.9174 -2.8828 -3.0051 0.0000 -19.1493 0.0000
# 2 -2.8828 57.6808 5.8499 0.0000 3.0721 0.0000
# 3 -3.0051 5.8499 86.4082 0.0000 22.3535 0.0000
# 4 0.0000 0.0000 0.0000 32.9001 0.0000 6.5125
# 5 -19.1493 3.0721 22.3535 0.0000 30.2241 0.0000
# 6 0.0000 0.0000 0.0000 6.5125 0.0000 35.1484
#
#
#
# Elastic Compliance Matrix: (Units=1/GPa)
#
#
# Indices 1 2 3 4 5 6 
#
# 1 0.083588 0.002204 -0.013460 0.000000 0.062690 0.000000
# 2 0.002204 0.017545 -0.001250 0.000000 0.000538 0.000000
# 3 -0.013460 -0.001250 0.016524 0.000000 -0.020622 0.000000
# 4 0.000000 0.000000 0.000000 0.031552 0.000000 -0.005846
# 5 0.062690 0.000538 -0.020622 0.000000 0.088003 0.000000
# 6 0.000000 0.000000 0.000000 -0.005846 0.000000 0.029534
#
#
# Mechanical properties :
#
#
# Convention : Reuss Voigt Hill
#
# Bulk Modulus (GPa) = 10.79397 18.88117 14.83757
# Shear Modulus (GPa) = 15.49710 30.99081 23.24395
#
# Velocity S-wave (km/s) = 2.49471 3.52785 3.05527
# Velocity P-wave (km/s) = 3.55428 4.91700 4.29009
#
# Compressibility (1/GPa) = 0.09264433
#
# Stress axis : x y z
#
# Youngs Moduli (GPa) = 11.96346 56.99602 60.51649
#
# Poissons Ratio (x) = -0.12560 0.81455
# Poissons Ratio (y) = -0.02636 0.07566
# Poissons Ratio (z) = 0.16103 0.07126
#
# Static dielectric constant tensor:
#      x y z
#    x 2.117120 0.000000 0.016630 
#    y 0.000000 2.094680 0.000000 
#    z 0.016630 0.000000 1.931130 
# 
# From -- ./inp_files/237642.got.cif
#   From: 2010.05.17/outbox.cif.g08.bks.cpg/sg15_119_cif.got.tgz:237642.got - 2010.06.03 18:47:42.
