data_PCOD9271090
_publ_section_title
;
Structure prediction by ZEFSAII (Michael W. Deem and Ramdas Pophale) SiO2 
 PCOD9271090
Probable space group: C 2/C
;
_chemical_formula_sum "Si O2"
_cell_formula_units_Z 60
_cell_length_a 5.716890
_cell_length_b 18.664122
_cell_length_c 21.886648
_cell_angle_alpha 90.000000
_cell_angle_beta 68.951096
_cell_angle_gamma 90.000000
_cell_volume 2179.495200
_symmetry_space_group_name_H-M "C 2/C"
_symmetry_group_IT_number 15
_symmetry_cell_setting 'monoclinic'
loop_
_space_group_symop_operation_xyz
x,y,z
-x,y,1/2-z
-x,-y,-z
x,-y,1/2+z
1/2+x,1/2+y,z
1/2-x,1/2+y,1/2-z
1/2-x,1/2-y,-z
1/2+x,1/2-y,1/2+z
loop_
_atom_site_type_symbol
_atom_site_label
_atom_site_fract_x
_atom_site_fract_y
_atom_site_fract_z
Si Si1 0.501219 0.355163 0.482616
Si Si2 0.090318 0.328498 0.421299
Si Si3 0.299134 0.386116 0.213181
Si Si4 0.595401 0.003621 0.921880
Si Si5 0.000000 0.360000 0.750000
Si Si6 0.102366 0.824849 0.869712
Si Si7 0.739268 0.264100 0.681285
Si Si8 0.378266 0.498432 0.104909
O O1 0.277596 0.322652 0.461588
O O2 0.396894 0.349804 0.560980
O O3 0.544130 0.436112 0.452627
O O4 0.787263 0.324321 0.459041
O O5 0.128872 0.412327 0.398139
O O6 0.156484 0.263516 0.369005
O O7 0.500000 0.380768 0.250000
O O8 0.331115 0.316737 0.166636
O O9 0.334770 0.456952 0.171785
O O10 0.000000 0.385694 0.250000
O O11 0.386705 0.974174 0.895685
O O12 0.859293 0.964118 0.904136
O O13 0.500000 0.000000 0.000000
O O14 0.265460 0.379519 0.692685
O O15 0.069049 0.310620 0.799852
O O16 0.823274 0.810925 0.870825
O O17 0.500000 0.261617 0.750000
#
# Coordination Sequence:
#
# PCOD9271090 Si02
#       8
#     8   8   8   8   4   8   8   8
#     4  10  22  36  55  78 115 154 191 235 283 338
#     4  10  22  35  55  81 111 148 190 230 289 345
#     4  11  21  34  54  78 116 156 192 227 284 350
#     4  10  20  36  57  82 117 144 183 235 291 342
#     4  10  22  32  50  72 110 148 200 234 282 334
#     4  11  22  34  53  77 115 157 194 236 287 341
#     4   9  19  31  44  69 102 150 189 233 270 328
#     4  10  21  36  57  86 120 150 195 234 291 348
#
# _framework density 27.529309000000001
#
# number of rings (size 3 to 8) (size 9 to 14) (size 15 to 20)
#    0.000    1.867    0.667    3.600    7.467    0.000 
#    0.000    0.000    0.000    0.000    0.000    0.000 
#   80.000    0.000    0.000    0.000    0.000    0.000 
#
# Total GULP energy -167287.851752 kJ/mol
# GULP energy per Si atom -5576.261725 kJ/mol
# Density = 2.746665 g / cm^3
# Si number density = 27.529309 Si / 1000 Ang^3
#
#
#
# Elastic Constant Matrix: (Units=GPa)
#
#
# Indices 1 2 3 4 5 6 
#
# 1 232.5878 44.9015 47.3920 0.0000 26.2828 0.0000
# 2 44.9015 114.3568 29.7384 0.0000 14.6064 0.0000
# 3 47.3920 29.7384 89.1345 0.0000 13.3324 0.0000
# 4 0.0000 0.0000 0.0000 37.1681 0.0000 2.5209
# 5 26.2828 14.6064 13.3324 0.0000 63.8789 0.0000
# 6 0.0000 0.0000 0.0000 2.5209 0.0000 22.4563
#
#
#
# Elastic Compliance Matrix: (Units=1/GPa)
#
#
# Indices 1 2 3 4 5 6 
#
# 1 0.005131 -0.001295 -0.002090 0.000000 -0.001379 0.000000
# 2 -0.001295 0.010058 -0.002480 0.000000 -0.001249 0.000000
# 3 -0.002090 -0.002480 0.013361 0.000000 -0.001362 0.000000
# 4 0.000000 0.000000 0.000000 0.027111 0.000000 -0.003043
# 5 -0.001379 -0.001249 -0.001362 0.000000 0.016792 0.000000
# 6 0.000000 0.000000 0.000000 -0.003043 0.000000 0.044873
#
#
# Mechanical properties :
#
#
# Convention : Reuss Voigt Hill
#
# Bulk Modulus (GPa) = 59.45345 75.57141 67.51243
# Shear Modulus (GPa) = 37.12991 45.63714 41.38352
#
# Velocity S-wave (km/s) = 3.67651 4.07598 3.88139
# Velocity P-wave (km/s) = 6.29806 7.04715 6.68311
#
# Compressibility (1/GPa) = 0.01681988
#
# Stress axis : x y z
#
# Youngs Moduli (GPa) = 194.88953 99.42735 74.84322
#
# Poissons Ratio (x) = 0.12877 0.15641
# Poissons Ratio (y) = 0.25241 0.18562
# Poissons Ratio (z) = 0.40728 0.24659
#
# Static dielectric constant tensor:
#      x y z
#    x 2.325290 0.000000 0.006610 
#    y 0.000000 2.252200 0.000000 
#    z 0.006610 0.000000 1.976210 
# 
# From -- ./inp_files/228456.got.cif
#   From: 2010.05.17/outbox.cif.g08.bks.cpg/sg15_115_cif.got.tgz:228456.got - 2010.06.03 18:47:42.
