data_PCOD9271471
_publ_section_title
;
Structure prediction by ZEFSAII (Michael W. Deem and Ramdas Pophale) SiO2 
 PCOD9271471
Probable space group: C 2/C
;
_chemical_formula_sum "Si O2"
_cell_formula_units_Z 40
_cell_length_a 7.498626
_cell_length_b 14.872548
_cell_length_c 16.138388
_cell_angle_alpha 90.000000
_cell_angle_beta 111.910656
_cell_angle_gamma 90.000000
_cell_volume 1669.806259
_symmetry_space_group_name_H-M "C 2/C"
_symmetry_group_IT_number 15
_symmetry_cell_setting 'monoclinic'
loop_
_space_group_symop_operation_xyz
x,y,z
-x,y,1/2-z
-x,-y,-z
x,-y,1/2+z
1/2+x,1/2+y,z
1/2-x,1/2+y,1/2-z
1/2-x,1/2-y,-z
1/2+x,1/2-y,1/2+z
loop_
_atom_site_type_symbol
_atom_site_label
_atom_site_fract_x
_atom_site_fract_y
_atom_site_fract_z
Si Si1 0.045383 0.353041 0.634482
Si Si2 0.919118 0.386015 0.048948
Si Si3 0.182283 0.465893 0.219599
Si Si4 0.102391 0.160464 0.629523
Si Si5 0.812063 0.936856 0.979220
O O1 0.825640 0.387507 0.612116
O O2 0.057885 0.342649 0.536470
O O3 0.188055 0.432060 0.688551
O O4 0.098162 0.255078 0.675373
O O5 0.768995 0.340663 0.087146
O O6 0.115569 0.402035 0.132985
O O7 0.832759 0.485529 0.017078
O O8 0.352819 0.422502 0.301210
O O9 0.000000 0.462891 0.250000
O O10 0.901471 0.140914 0.550245
O O11 0.000000 0.000000 0.000000
#
# Coordination Sequence:
#
# PCOD9271471 Si02
#       5
#     8   8   8   8   8
#     4  11  20  37  62  86 113 159 204 241 300 367
#     4   9  19  38  60  81 115 158 195 245 303 359
#     4   9  19  37  55  79 119 157 189 241 306 357
#     4  10  20  36  59  89 118 150 200 256 297 348
#     4   9  18  34  57  83 117 154 191 239 298 357
#
# _framework density 23.954875000000001
#
# number of rings (size 3 to 8) (size 9 to 14) (size 15 to 20)
#    0.000    2.400    0.000    4.800    0.000    0.000 
#    0.000   24.000    0.000    0.000    0.000    0.000 
#    0.000    0.000    0.000    0.000    0.000    0.000 
#
# Total GULP energy -111536.235726 kJ/mol
# GULP energy per Si atom -5576.811786 kJ/mol
# Density = 2.390035 g / cm^3
# Si number density = 23.954875 Si / 1000 Ang^3
#
#
#
# Elastic Constant Matrix: (Units=GPa)
#
#
# Indices 1 2 3 4 5 6 
#
# 1 69.3250 7.0220 1.9845 0.0000 -9.4848 0.0000
# 2 7.0220 145.3979 29.7496 0.0000 12.2898 0.0000
# 3 1.9845 29.7496 96.1558 0.0000 0.8192 0.0000
# 4 0.0000 0.0000 0.0000 29.6153 0.0000 0.3206
# 5 -9.4848 12.2898 0.8192 0.0000 43.2026 0.0000
# 6 0.0000 0.0000 0.0000 0.3206 0.0000 17.9603
#
#
#
# Elastic Compliance Matrix: (Units=1/GPa)
#
#
# Indices 1 2 3 4 5 6 
#
# 1 0.015020 -0.001024 -0.000024 0.000000 0.003589 0.000000
# 2 -0.001024 0.007598 -0.002310 0.000000 -0.002342 0.000000
# 3 -0.000024 -0.002310 0.011111 0.000000 0.000441 0.000000
# 4 0.000000 0.000000 0.000000 0.033773 0.000000 -0.000603
# 5 0.003589 -0.002342 0.000441 0.000000 0.024593 0.000000
# 6 0.000000 0.000000 0.000000 -0.000603 0.000000 0.055689
#
#
# Mechanical properties :
#
#
# Convention : Reuss Voigt Hill
#
# Bulk Modulus (GPa) = 37.01716 43.15454 40.08585
# Shear Modulus (GPa) = 30.58048 36.29715 33.43881
#
# Velocity S-wave (km/s) = 3.57681 3.89682 3.74024
# Velocity P-wave (km/s) = 5.70478 6.18878 5.95170
#
# Compressibility (1/GPa) = 0.02701450
#
# Stress axis : x y z
#
# Youngs Moduli (GPa) = 66.57664 131.61942 90.00033
#
# Poissons Ratio (x) = 0.13477 0.00214
# Poissons Ratio (y) = 0.06817 0.20786
# Poissons Ratio (z) = 0.00158 0.30398
#
# Static dielectric constant tensor:
#      x y z
#    x 2.000280 0.000000 -0.059260 
#    y 0.000000 1.940900 0.000000 
#    z -0.059260 0.000000 1.977350 
# 
# From -- ./inp_files/230834.got.cif
#   From: 2010.05.17/outbox.cif.g08.bks.cpg/sg15_116_cif.got.tgz:230834.got - 2010.06.03 18:47:42.
