data_PCOD9271903
_publ_section_title
;
Structure prediction by ZEFSAII (Michael W. Deem and Ramdas Pophale) SiO2 
 PCOD9271903
Probable space group: C 2/C
;
_chemical_formula_sum "Si O2"
_cell_formula_units_Z 60
_cell_length_a 26.704936
_cell_length_b 20.539791
_cell_length_c 12.630535
_cell_angle_alpha 90.000000
_cell_angle_beta 25.636197
_cell_angle_gamma 90.000000
_cell_volume 2997.446486
_symmetry_space_group_name_H-M "C 2/C"
_symmetry_group_IT_number 15
_symmetry_cell_setting 'monoclinic'
loop_
_space_group_symop_operation_xyz
x,y,z
-x,y,1/2-z
-x,-y,-z
x,-y,1/2+z
1/2+x,1/2+y,z
1/2-x,1/2+y,1/2-z
1/2-x,1/2-y,-z
1/2+x,1/2-y,1/2+z
loop_
_atom_site_type_symbol
_atom_site_label
_atom_site_fract_x
_atom_site_fract_y
_atom_site_fract_z
Si Si1 0.182745 0.021181 0.634364
Si Si2 0.000000 0.834670 0.750000
Si Si3 0.718006 0.842505 0.545700
Si Si4 0.863877 0.303435 0.030867
Si Si5 0.724259 0.384952 0.447868
Si Si6 0.451325 0.444730 0.454969
Si Si7 0.849172 0.191844 0.208200
Si Si8 0.431170 0.738005 0.590891
O O1 0.270139 0.080689 0.468261
O O2 0.060634 0.049363 0.824678
O O3 0.221662 0.959222 0.491596
O O4 0.149191 0.992393 0.812768
O O5 0.104772 0.873049 0.608795
O O6 0.052985 0.791284 0.555333
O O7 0.686706 0.821033 0.486545
O O8 0.624844 0.808981 0.798954
O O9 0.842226 0.808200 0.325271
O O10 0.830304 0.362717 0.172792
O O11 0.805956 0.240687 0.199412
O O12 0.000000 0.292281 0.750000
O O13 0.722659 0.338978 0.556736
O O14 0.500000 0.463721 0.250000
O O15 0.403985 0.371560 0.548290
O O16 0.948257 0.233365 0.078371
#
# Coordination Sequence:
#
# PCOD9271903 Si02
#       8
#     8   4   8   8   8   8   8   8
#     4  10  23  39  56  91 124 163 201 248 306 368
#     4  10  20  38  66  96 122 156 200 248 318 366
#     4  11  22  38  60  89 124 165 199 246 305 365
#     4  12  23  38  64  91 120 165 211 247 303 357
#     4  10  23  39  64  90 127 164 198 250 306 368
#     4  10  21  33  61  92 128 153 190 257 320 366
#     4  10  20  39  58  95 123 152 198 258 313 354
#     4  10  20  36  62  90 124 154 198 252 300 364
#
# _framework density 20.017037999999999
#
# number of rings (size 3 to 8) (size 9 to 14) (size 15 to 20)
#    0.000    1.600    4.000    0.800    4.667    0.000 
#    0.000    0.667    1.467    0.000    0.000    0.000 
#    0.000    0.000    0.000    0.000    0.000    0.000 
#
# Total GULP energy -167487.654046 kJ/mol
# GULP energy per Si atom -5582.921802 kJ/mol
# Density = 1.997148 g / cm^3
# Si number density = 20.017038 Si / 1000 Ang^3
#
#
#
# Elastic Constant Matrix: (Units=GPa)
#
#
# Indices 1 2 3 4 5 6 
#
# 1 54.1011 37.2399 4.9858 0.0004 11.1620 -0.0001
# 2 37.2399 152.7213 41.5812 0.0001 13.5722 0.0000
# 3 4.9858 41.5812 53.9322 0.0005 16.9782 -0.0001
# 4 0.0004 0.0001 0.0005 303.2813 -0.0003 -92.9917
# 5 11.1620 13.5722 16.9782 -0.0003 24.8813 0.0001
# 6 -0.0001 0.0000 -0.0001 -92.9917 0.0001 46.7268
#
#
#
# Elastic Compliance Matrix: (Units=1/GPa)
#
#
# Indices 1 2 3 4 5 6 
#
# 1 0.025115 -0.006902 0.006828 0.000000 -0.012161 0.000000
# 2 -0.006902 0.010185 -0.008203 0.000000 0.003138 0.000000
# 3 0.006828 -0.008203 0.030299 0.000000 -0.019264 0.000000
# 4 0.000000 0.000000 0.000000 0.008459 0.000000 0.016834
# 5 -0.012161 0.003138 -0.019264 0.000000 0.057080 0.000000
# 6 0.000000 0.000000 0.000000 0.016834 0.000000 0.054903
#
#
# Mechanical properties :
#
#
# Convention : Reuss Voigt Hill
#
# Bulk Modulus (GPa) = 20.38896 47.59650 33.99273
# Shear Modulus (GPa) = 22.83691 86.77440 54.80566
#
# Velocity S-wave (km/s) = 3.38135 6.59124 5.23822
# Velocity P-wave (km/s) = 5.04506 9.04187 7.32148
#
# Compressibility (1/GPa) = 0.04904615
#
# Stress axis : x y z
#
# Youngs Moduli (GPa) = 39.81691 98.17932 33.00428
#
# Poissons Ratio (x) = 0.67768 -0.22537
# Poissons Ratio (y) = 0.27484 0.27072
# Poissons Ratio (z) = -0.27188 0.80532
#
# Static dielectric constant tensor:
#      x y z
#    x 1.756140 0.000000 -0.000530 
#    y 0.000000 1.720210 0.000000 
#    z -0.000530 0.000000 1.730420 
# 
# From -- ./inp_files/123980.got.cif
#   From: 2010.05.17/outbox.cif.g08.bks.cpg/sg15_62_cif.got.tgz:123980.got - 2010.06.03 18:47:42.
