data_PCOD9271419
_publ_section_title
;
Structure prediction by ZEFSAII (Michael W. Deem and Ramdas Pophale) SiO2 
 PCOD9271419
Probable space group: C 2/C
;
_chemical_formula_sum "Si O2"
_cell_formula_units_Z 40
_cell_length_a 4.768910
_cell_length_b 23.589877
_cell_length_c 16.563861
_cell_angle_alpha 90.000000
_cell_angle_beta 74.903730
_cell_angle_gamma 90.000000
_cell_volume 1799.094495
_symmetry_space_group_name_H-M "C 2/C"
_symmetry_group_IT_number 15
_symmetry_cell_setting 'monoclinic'
loop_
_space_group_symop_operation_xyz
x,y,z
-x,y,1/2-z
-x,-y,-z
x,-y,1/2+z
1/2+x,1/2+y,z
1/2-x,1/2+y,1/2-z
1/2-x,1/2-y,-z
1/2+x,1/2-y,1/2+z
loop_
_atom_site_type_symbol
_atom_site_label
_atom_site_fract_x
_atom_site_fract_y
_atom_site_fract_z
Si Si1 0.200792 0.878915 0.126063
Si Si2 0.000000 0.028747 0.750000
Si Si3 0.500000 0.279826 0.250000
Si Si4 0.246203 0.076370 0.966068
Si Si5 0.244189 0.039876 0.382469
Si Si6 0.000000 0.199397 0.250000
Si Si7 0.000000 0.381869 0.750000
O O1 0.464002 0.887718 0.044626
O O2 0.172476 0.820254 0.174974
O O3 0.912602 0.894549 0.098408
O O4 0.228751 0.928023 0.191932
O O5 0.872200 0.990792 0.689066
O O6 0.267943 0.243409 0.215104
O O7 0.321695 0.011229 0.937287
O O8 0.015928 0.073153 0.054805
O O9 0.499850 0.079655 0.330593
O O10 0.206540 0.154874 0.282424
#
# Coordination Sequence:
#
# PCOD9271419 Si02
#       7
#     8   4   4   8   8   4   4
#     4  10  20  36  59  86 113 146 190 240 287 335
#     4   9  19  33  56  88 116 153 193 219 272 342
#     4  10  20  40  65  82 107 142 194 258 292 322
#     4  10  22  35  56  90 123 153 183 217 283 349
#     4  10  21  36  57  85 126 158 182 224 270 340
#     4  10  23  38  60  86 104 142 201 246 288 326
#     4  11  22  37  59  82 113 151 192 229 272 338
#
# _framework density 22.233408000000001
#
# number of rings (size 3 to 8) (size 9 to 14) (size 15 to 20)
#    0.000    2.000    0.000    3.000    0.000   17.600 
#    0.000    0.000    0.000   24.000    0.000    0.000 
#    0.000    0.000    0.000    0.000    0.000    0.000 
#
# Total GULP energy -111474.001712 kJ/mol
# GULP energy per Si atom -5573.700086 kJ/mol
# Density = 2.218280 g / cm^3
# Si number density = 22.233408 Si / 1000 Ang^3
#
#
#
# Elastic Constant Matrix: (Units=GPa)
#
#
# Indices 1 2 3 4 5 6 
#
# 1 98.4749 24.3416 11.7654 0.0000 -3.3736 0.0000
# 2 24.3416 77.9269 35.5244 0.0000 -11.0608 0.0000
# 3 11.7654 35.5244 89.0872 0.0000 -15.5999 0.0000
# 4 0.0000 0.0000 0.0000 -30.0981 0.0000 13.1238
# 5 -3.3736 -11.0608 -15.5999 0.0000 44.0316 0.0000
# 6 0.0000 0.0000 0.0000 13.1238 0.0000 4.6088
#
#
#
# Elastic Compliance Matrix: (Units=1/GPa)
#
#
# Indices 1 2 3 4 5 6 
#
# 1 0.011005 -0.003395 -0.000108 0.000000 -0.000048 0.000000
# 2 -0.003395 0.016872 -0.005952 0.000000 0.001869 0.000000
# 3 -0.000108 -0.005952 0.014232 0.000000 0.003539 0.000000
# 4 0.000000 0.000000 0.000000 -0.014822 0.000000 0.042205
# 5 -0.000048 0.001869 0.003539 0.000000 0.024431 0.000000
# 6 0.000000 0.000000 0.000000 0.042205 0.000000 0.096793
#
#
# Mechanical properties :
#
#
# Convention : Reuss Voigt Hill
#
# Bulk Modulus (GPa) = 43.10532 45.41685 44.26108
# Shear Modulus (GPa) = 28.54609 16.63231 22.58920
#
# Velocity S-wave (km/s) = 3.58708 2.73807 3.19094
# Velocity P-wave (km/s) = 6.04863 5.51975 5.79023
#
# Compressibility (1/GPa) = 0.02319899
#
# Stress axis : x y z
#
# Youngs Moduli (GPa) = 90.86455 59.27051 70.26250
#
# Poissons Ratio (x) = 0.20124 0.00758
# Poissons Ratio (y) = 0.30851 0.41821
# Poissons Ratio (z) = 0.00981 0.35278
#
# Static dielectric constant tensor:
#      x y z
#    x 1.657080 0.000000 0.268130 
#    y 0.000000 1.860240 0.000000 
#    z 0.268130 0.000000 1.403300 
# 
# From -- ./inp_files/185173.got.cif
#   From: 2010.05.17/outbox.cif.g08.bks.cpg/sg15_93_cif.got.tgz:185173.got - 2010.06.03 18:47:42.
