data_PCOD9271940
_publ_section_title
;
Structure prediction by ZEFSAII (Michael W. Deem and Ramdas Pophale) SiO2 
 PCOD9271940
Probable space group: C 2/C
;
_chemical_formula_sum "Si O2"
_cell_formula_units_Z 56
_cell_length_a 8.534893
_cell_length_b 18.130537
_cell_length_c 21.053787
_cell_angle_alpha 90.000000
_cell_angle_beta 119.098973
_cell_angle_gamma 90.000000
_cell_volume 2846.698945
_symmetry_space_group_name_H-M "C 2/C"
_symmetry_group_IT_number 15
_symmetry_cell_setting 'monoclinic'
loop_
_space_group_symop_operation_xyz
x,y,z
-x,y,1/2-z
-x,-y,-z
x,-y,1/2+z
1/2+x,1/2+y,z
1/2-x,1/2+y,1/2-z
1/2-x,1/2-y,-z
1/2+x,1/2-y,1/2+z
loop_
_atom_site_type_symbol
_atom_site_label
_atom_site_fract_x
_atom_site_fract_y
_atom_site_fract_z
Si Si1 0.255930 0.022779 0.607702
Si Si2 0.999323 0.207244 0.176003
Si Si3 0.683599 0.907724 0.768983
Si Si4 0.853400 0.985215 0.543289
Si Si5 0.770065 0.669992 0.471405
Si Si6 0.200118 0.007254 0.819212
Si Si7 0.033737 0.637231 0.621732
O O1 0.274540 0.989054 0.539766
O O2 0.371494 0.097203 0.628366
O O3 0.311874 0.971280 0.676575
O O4 0.041299 0.027358 0.573940
O O5 0.141448 0.142637 0.191283
O O6 0.000000 0.222296 0.250000
O O7 0.800376 0.184245 0.113236
O O8 0.056742 0.280389 0.150330
O O9 0.500000 0.865907 0.750000
O O10 0.694102 0.947848 0.702795
O O11 0.862140 0.896420 0.532114
O O12 0.796339 0.990294 0.605088
O O13 0.750000 0.750000 0.500000
O O14 0.962000 0.641189 0.534408
O O15 0.296499 0.086044 0.833287
O O16 0.000000 0.007960 0.750000
#
# Coordination Sequence:
#
# PCOD9271940 Si02
#       7
#     8   8   8   8   8   8   8
#     4  10  20  38  62  92 123 161 213 260 316 375
#     4  11  23  40  64  89 128 168 210 261 329 386
#     4  12  23  40  62  91 128 165 211 263 319 382
#     4  10  20  36  62  92 123 165 209 263 321 370
#     4   9  18  37  58  86 122 162 208 255 312 376
#     4  12  23  38  63  93 129 164 220 268 318 377
#     4  10  24  39  63  94 123 168 213 266 314 389
#
# _framework density 19.671908999999999
#
# number of rings (size 3 to 8) (size 9 to 14) (size 15 to 20)
#    0.000    1.429    4.286    1.286    2.000    2.857 
#    2.571    0.000    0.000    2.571    0.000    0.000 
#    0.000    0.000    0.000    0.000    0.000    0.000 
#
# Total GULP energy -155888.720735 kJ/mol
# GULP energy per Si atom -5567.454312 kJ/mol
# Density = 1.962713 g / cm^3
# Si number density = 19.671909 Si / 1000 Ang^3
#
#
#
# Elastic Constant Matrix: (Units=GPa)
#
#
# Indices 1 2 3 4 5 6 
#
# 1 59.2791 15.4144 37.7607 0.0000 -9.3174 0.0000
# 2 15.4144 77.2348 17.3953 0.0000 -8.6727 0.0000
# 3 37.7607 17.3953 125.3452 0.0000 -25.7492 0.0000
# 4 0.0000 0.0000 0.0000 32.1605 0.0000 9.1297
# 5 -9.3174 -8.6727 -25.7492 0.0000 29.2171 0.0000
# 6 0.0000 0.0000 0.0000 9.1297 0.0000 23.4427
#
#
#
# Elastic Compliance Matrix: (Units=1/GPa)
#
#
# Indices 1 2 3 4 5 6 
#
# 1 0.021511 -0.002871 -0.005919 0.000000 0.000791 0.000000
# 2 -0.002871 0.013945 -0.000498 0.000000 0.002785 0.000000
# 3 -0.005919 -0.000498 0.011493 0.000000 0.008093 0.000000
# 4 0.000000 0.000000 0.000000 0.034959 0.000000 -0.013615
# 5 0.000791 0.002785 0.008093 0.000000 0.042438 0.000000
# 6 0.000000 0.000000 0.000000 -0.013615 0.000000 0.047959
#
#
# Mechanical properties :
#
#
# Convention : Reuss Voigt Hill
#
# Bulk Modulus (GPa) = 35.24640 44.77775 40.01208
# Shear Modulus (GPa) = 24.95758 29.71668 27.33713
#
# Velocity S-wave (km/s) = 3.56573 3.89088 3.73185
# Velocity P-wave (km/s) = 5.90835 6.55721 6.24122
#
# Compressibility (1/GPa) = 0.02837169
#
# Stress axis : x y z
#
# Youngs Moduli (GPa) = 46.48828 71.70787 87.01057
#
# Poissons Ratio (x) = 0.20588 0.51504
# Poissons Ratio (y) = 0.13347 0.04336
# Poissons Ratio (z) = 0.27518 0.03574
#
# Static dielectric constant tensor:
#      x y z
#    x 1.719350 0.000000 0.018240 
#    y 0.000000 1.680440 0.000000 
#    z 0.018240 0.000000 1.770720 
# 
# From -- ./inp_files/232795.got.cif
#   From: 2010.05.17/outbox.cif.g08.bks.cpg/sg15_117_cif.got.tgz:232795.got - 2010.06.03 18:47:42.
