data_PCOD9271241
_publ_section_title
;
Structure prediction by ZEFSAII (Michael W. Deem and Ramdas Pophale) SiO2 
 PCOD9271241
Probable space group: C 2/C
;
_chemical_formula_sum "Si O2"
_cell_formula_units_Z 56
_cell_length_a 20.561341
_cell_length_b 27.867349
_cell_length_c 8.724778
_cell_angle_alpha 90.000000
_cell_angle_beta 31.940114
_cell_angle_gamma 90.000000
_cell_volume 2644.745598
_symmetry_space_group_name_H-M "C 2/C"
_symmetry_group_IT_number 15
_symmetry_cell_setting 'monoclinic'
loop_
_space_group_symop_operation_xyz
x,y,z
-x,y,1/2-z
-x,-y,-z
x,-y,1/2+z
1/2+x,1/2+y,z
1/2-x,1/2+y,1/2-z
1/2-x,1/2-y,-z
1/2+x,1/2-y,1/2+z
loop_
_atom_site_type_symbol
_atom_site_label
_atom_site_fract_x
_atom_site_fract_y
_atom_site_fract_z
Si Si1 0.878780 0.663929 0.394176
Si Si2 0.749998 0.999971 0.605369
Si Si3 0.382018 0.052229 0.388615
Si Si4 0.369273 0.195601 0.072595
Si Si5 0.621175 0.336173 0.909360
Si Si6 0.882115 0.052163 0.083273
Si Si7 0.369264 0.304236 0.950138
O O1 0.891105 0.607692 0.326668
O O2 0.871206 0.693472 0.252401
O O3 0.000000 0.676992 0.250000
O O4 0.753452 0.670630 0.740466
O O5 0.854878 0.018309 0.280756
O O6 0.645182 0.981589 0.700110
O O7 0.776926 0.956308 0.666321
O O8 0.723066 0.043686 0.773836
O O9 0.500000 0.037778 0.250000
O O10 0.246518 0.170431 0.254393
O O11 0.500000 0.175126 0.750000
O O12 0.362990 0.249893 0.023689
O O13 0.608683 0.392386 0.891236
O O14 0.628852 0.306545 0.737270
O O15 0.500000 0.323103 0.250000
O O16 0.000000 0.037710 0.750000
O O17 0.500000 0.324657 0.750000
#
# Coordination Sequence:
#
# PCOD9271241 Si02
#       7
#     8   8   8   8   8   8   8
#     4  11  23  41  65  93 125 162 205 254 304 363
#     4  10  20  36  58  84 120 158 196 242 292 352
#     4  10  21  37  58  87 119 156 199 243 295 349
#     4  11  24  42  63  92 124 160 203 252 310 368
#     4  11  23  41  65  93 125 162 205 254 304 363
#     4  10  21  37  58  87 119 156 199 243 295 349
#     4  11  24  42  63  92 124 160 203 252 310 368
#
# _framework density 21.174059
#
# number of rings (size 3 to 8) (size 9 to 14) (size 15 to 20)
#    0.000    1.429    0.000    5.143    0.000    5.143 
#    0.000    7.143    0.000    0.000    0.000    0.000 
#    0.000    0.000    0.000    0.000    0.000    0.000 
#
# Total GULP energy -156332.040317 kJ/mol
# GULP energy per Si atom -5583.287154 kJ/mol
# Density = 2.112587 g / cm^3
# Si number density = 21.174059 Si / 1000 Ang^3
#
#
#
# Elastic Constant Matrix: (Units=GPa)
#
#
# Indices 1 2 3 4 5 6 
#
# 1 124.0450 34.8965 56.8595 0.0000 13.7334 0.0000
# 2 34.8965 57.6958 13.7844 0.0000 19.3377 0.0000
# 3 56.8595 13.7844 114.1385 0.0000 -3.8883 0.0000
# 4 0.0000 0.0000 0.0000 19.1960 0.0000 -4.6454
# 5 13.7334 19.3377 -3.8883 0.0000 42.6089 0.0000
# 6 0.0000 0.0000 0.0000 -4.6454 0.0000 14.0501
#
#
#
# Elastic Compliance Matrix: (Units=1/GPa)
#
#
# Indices 1 2 3 4 5 6 
#
# 1 0.012382 -0.005483 -0.005575 0.000000 -0.002011 0.000000
# 2 -0.005483 0.023798 -0.000452 0.000000 -0.009074 0.000000
# 3 -0.005575 -0.000452 0.011697 0.000000 0.003069 0.000000
# 4 0.000000 0.000000 0.000000 0.056625 0.000000 0.018722
# 5 -0.002011 -0.009074 0.003069 0.000000 0.028516 0.000000
# 6 0.000000 0.000000 0.000000 0.018722 0.000000 0.077364
#
#
# Mechanical properties :
#
#
# Convention : Reuss Voigt Hill
#
# Bulk Modulus (GPa) = 40.22747 56.32888 48.27817
# Shear Modulus (GPa) = 20.68788 27.86027 24.27407
#
# Velocity S-wave (km/s) = 3.12915 3.63129 3.38954
# Velocity P-wave (km/s) = 5.66526 6.65149 6.17808
#
# Compressibility (1/GPa) = 0.02485864
#
# Stress axis : x y z
#
# Youngs Moduli (GPa) = 80.76203 42.02023 85.48875
#
# Poissons Ratio (x) = 0.23041 0.47656
# Poissons Ratio (y) = 0.44283 0.03861
# Poissons Ratio (z) = 0.45022 0.01898
#
# Static dielectric constant tensor:
#      x y z
#    x 1.758230 0.000000 -0.046730 
#    y 0.000000 1.740940 0.000000 
#    z -0.046730 0.000000 1.809750 
# 
# From -- ./inp_files/59349.got.cif
#   From: 2010.05.17/outbox.cif.g08.bks.cpg/sg15_30_cif.got.tgz:59349.got - 2010.06.03 18:47:42.
