data_PCOD9271749
_publ_section_title
;
Structure prediction by ZEFSAII (Michael W. Deem and Ramdas Pophale) SiO2 
 PCOD9271749
Probable space group: C 2/C
;
_chemical_formula_sum "Si O2"
_cell_formula_units_Z 40
_cell_length_a 25.582192
_cell_length_b 8.714484
_cell_length_c 9.990535
_cell_angle_alpha 90.000000
_cell_angle_beta 99.147074
_cell_angle_gamma 90.000000
_cell_volume 2198.923240
_symmetry_space_group_name_H-M "C 2/C"
_symmetry_group_IT_number 15
_symmetry_cell_setting 'monoclinic'
loop_
_space_group_symop_operation_xyz
x,y,z
-x,y,1/2-z
-x,-y,-z
x,-y,1/2+z
1/2+x,1/2+y,z
1/2-x,1/2+y,1/2-z
1/2-x,1/2-y,-z
1/2+x,1/2-y,1/2+z
loop_
_atom_site_type_symbol
_atom_site_label
_atom_site_fract_x
_atom_site_fract_y
_atom_site_fract_z
Si Si1 0.728111 0.685907 0.129403
Si Si2 0.888340 0.665314 0.527147
Si Si3 0.620418 0.139311 0.660040
Si Si4 0.996091 0.647083 0.903792
Si Si5 0.286223 0.676016 0.900139
O O1 0.671157 0.761282 0.139832
O O2 0.724019 0.503262 0.121072
O O3 0.769346 0.737072 0.259286
O O4 0.750000 0.750000 0.000000
O O5 0.877926 0.616175 0.677888
O O6 0.880379 0.519235 0.425126
O O7 0.846067 0.790589 0.466213
O O8 0.948358 0.730116 0.544626
O O9 0.562727 0.215492 0.605015
O O10 0.000000 0.598543 0.750000
O O11 0.000000 0.500000 0.000000
O O12 0.250000 0.750000 0.000000
#
# Coordination Sequence:
#
# PCOD9271749 Si02
#       5
#     8   8   8   8   8
#     4  12  26  40  61  86 119 155 193 242 294 351
#     4  10  20  36  61  88 120 155 195 239 288 347
#     4  10  20  37  60  89 119 154 196 239 289 347
#     4   8  16  32  56  85 116 152 191 234 283 344
#     4  12  24  42  59  86 118 153 196 241 296 350
#
# _framework density 18.190721
#
# number of rings (size 3 to 8) (size 9 to 14) (size 15 to 20)
#    0.000    1.600    2.000    3.600    2.800    0.000 
#    0.000    1.000    0.000    0.000    0.000    0.000 
#    0.000    0.000    0.000    0.000    0.000    0.000 
#
# Total GULP energy -111509.077184 kJ/mol
# GULP energy per Si atom -5575.453859 kJ/mol
# Density = 1.814932 g / cm^3
# Si number density = 18.190721 Si / 1000 Ang^3
#
#
#
# Elastic Constant Matrix: (Units=GPa)
#
#
# Indices 1 2 3 4 5 6 
#
# 1 136.1570 27.0443 47.9380 0.0000 17.3251 0.0000
# 2 27.0443 88.0372 33.4680 0.0000 12.8048 0.0000
# 3 47.9380 33.4680 118.1349 0.0000 13.0819 0.0000
# 4 0.0000 0.0000 0.0000 20.5947 0.0000 3.6244
# 5 17.3251 12.8048 13.0819 0.0000 33.0091 0.0000
# 6 0.0000 0.0000 0.0000 3.6244 0.0000 27.8021
#
#
#
# Elastic Compliance Matrix: (Units=1/GPa)
#
#
# Indices 1 2 3 4 5 6 
#
# 1 0.009024 -0.001188 -0.002983 0.000000 -0.003093 0.000000
# 2 -0.001188 0.013326 -0.002918 0.000000 -0.003389 0.000000
# 3 -0.002983 -0.002918 0.010672 0.000000 -0.001532 0.000000
# 4 0.000000 0.000000 0.000000 0.049696 0.000000 -0.006479
# 5 -0.003093 -0.003389 -0.001532 0.000000 0.033840 0.000000
# 6 0.000000 0.000000 0.000000 -0.006479 0.000000 0.036813
#
#
# Mechanical properties :
#
#
# Convention : Reuss Voigt Hill
#
# Bulk Modulus (GPa) = 53.06692 62.13667 57.60179
# Shear Modulus (GPa) = 28.76363 31.87309 30.31836
#
# Velocity S-wave (km/s) = 3.98078 4.19042 4.08694
# Velocity P-wave (km/s) = 7.09680 7.59246 7.34881
#
# Compressibility (1/GPa) = 0.01884413
#
# Stress axis : x y z
#
# Youngs Moduli (GPa) = 110.81222 75.04088 93.70731
#
# Poissons Ratio (x) = 0.08917 0.27951
# Poissons Ratio (y) = 0.13168 0.27342
# Poissons Ratio (z) = 0.33053 0.21895
#
# Static dielectric constant tensor:
#      x y z
#    x 1.681650 0.000000 -0.009170 
#    y 0.000000 1.574010 0.000000 
#    z -0.009170 0.000000 1.599900 
# 
# From -- ./inp_files/59900.got.cif
#   From: 2010.05.17/outbox.cif.g08.bks.cpg/sg15_30_cif.got.tgz:59900.got - 2010.06.03 18:47:42.
