data_PCOD9271840
_publ_section_title
;
Structure prediction by ZEFSAII (Michael W. Deem and Ramdas Pophale) SiO2 
 PCOD9271840
Probable space group: C 2/C
;
_chemical_formula_sum "Si O2"
_cell_formula_units_Z 48
_cell_length_a 22.421175
_cell_length_b 10.078617
_cell_length_c 16.419863
_cell_angle_alpha 90.000000
_cell_angle_beta 137.763482
_cell_angle_gamma 90.000000
_cell_volume 2494.150031
_symmetry_space_group_name_H-M "C 2/C"
_symmetry_group_IT_number 15
_symmetry_cell_setting 'monoclinic'
loop_
_space_group_symop_operation_xyz
x,y,z
-x,y,1/2-z
-x,-y,-z
x,-y,1/2+z
1/2+x,1/2+y,z
1/2-x,1/2+y,1/2-z
1/2-x,1/2-y,-z
1/2+x,1/2-y,1/2+z
loop_
_atom_site_type_symbol
_atom_site_label
_atom_site_fract_x
_atom_site_fract_y
_atom_site_fract_z
Si Si1 0.544258 0.913990 0.382175
Si Si2 0.866717 0.090659 0.394387
Si Si3 0.284400 0.987720 0.360552
Si Si4 0.048819 0.192621 0.502707
Si Si5 0.394266 0.059077 0.329762
Si Si6 0.752639 0.280412 0.597752
O O1 0.500000 0.933111 0.250000
O O2 0.539967 0.761070 0.405930
O O3 0.645214 0.962245 0.500535
O O4 0.481532 0.995968 0.380677
O O5 0.834356 0.161648 0.444328
O O6 0.954355 0.152725 0.444489
O O7 0.786918 0.091461 0.247538
O O8 0.889930 0.936933 0.435875
O O9 0.234109 0.860389 0.343946
O O10 0.343437 0.959074 0.339322
O O11 0.086530 0.310938 0.596701
O O12 0.328508 0.112476 0.193980
O O13 0.750000 0.250000 0.500000
#
# Coordination Sequence:
#
# PCOD9271840 Si02
#       6
#     8   8   8   8   8   8
#     4  11  22  38  57  89 120 151 188 245 301 350
#     4  10  21  38  62  84 114 157 200 244 283 360
#     4  10  20  38  61  82 112 153 202 232 288 354
#     4  10  20  40  60  85 113 157 207 232 292 356
#     4  10  20  36  62  82 114 157 197 238 285 360
#     4  11  21  36  58  91 119 146 197 251 299 344
#
# _framework density 19.245034
#
# number of rings (size 3 to 8) (size 9 to 14) (size 15 to 20)
#    0.000    1.667    1.667    5.000    0.000    0.000 
#    3.000    0.833    0.000    0.000    0.000    0.000 
#    0.000    0.000    0.000    0.000    0.000    0.000 
#
# Total GULP energy -133872.125978 kJ/mol
# GULP energy per Si atom -5578.005249 kJ/mol
# Density = 1.920123 g / cm^3
# Si number density = 19.245034 Si / 1000 Ang^3
#
#
#
# Elastic Constant Matrix: (Units=GPa)
#
#
# Indices 1 2 3 4 5 6 
#
# 1 50.7996 7.6261 33.0136 0.0000 -3.7406 0.0000
# 2 7.6261 45.4097 7.5786 0.0000 -10.8794 0.0000
# 3 33.0136 7.5786 105.8131 0.0000 -11.6670 0.0000
# 4 0.0000 0.0000 0.0000 24.2260 0.0000 -0.6439
# 5 -3.7406 -10.8794 -11.6670 0.0000 32.8303 0.0000
# 6 0.0000 0.0000 0.0000 -0.6439 0.0000 27.8622
#
#
#
# Elastic Compliance Matrix: (Units=1/GPa)
#
#
# Indices 1 2 3 4 5 6 
#
# 1 0.025099 -0.003150 -0.007707 0.000000 -0.000923 0.000000
# 2 -0.003150 0.024394 0.000091 0.000000 0.007757 0.000000
# 3 -0.007707 0.000091 0.012235 0.000000 0.003500 0.000000
# 4 0.000000 0.000000 0.000000 0.041303 0.000000 0.000955
# 5 -0.000923 0.007757 0.003500 0.000000 0.034169 0.000000
# 6 0.000000 0.000000 0.000000 0.000955 0.000000 0.035913
#
#
# Mechanical properties :
#
#
# Convention : Reuss Voigt Hill
#
# Bulk Modulus (GPa) = 24.87847 33.16210 29.02028
# Shear Modulus (GPa) = 24.03350 27.23730 25.63540
#
# Velocity S-wave (km/s) = 3.53769 3.76611 3.65369
# Velocity P-wave (km/s) = 5.44447 6.01502 5.73684
#
# Compressibility (1/GPa) = 0.04019540
#
# Stress axis : x y z
#
# Youngs Moduli (GPa) = 39.84272 40.99359 81.73559
#
# Poissons Ratio (x) = 0.12913 0.62993
# Poissons Ratio (y) = 0.12550 -0.00743
# Poissons Ratio (z) = 0.30707 -0.00373
#
# Static dielectric constant tensor:
#      x y z
#    x 1.663720 0.000000 0.004450 
#    y 0.000000 1.682720 0.000000 
#    z 0.004450 0.000000 1.715710 
# 
# From -- ./inp_files/167389.got.cif
#   From: 2010.05.17/outbox.cif.g08.bks.cpg/sg15_84_cif.got.tgz:167389.got - 2010.06.03 18:47:42.
