data_PCOD9271055
_publ_section_title
;
Structure prediction by ZEFSAII (Michael W. Deem and Ramdas Pophale) SiO2 
 PCOD9271055
Probable space group: C 2/C
;
_chemical_formula_sum "Si O2"
_cell_formula_units_Z 20
_cell_length_a 8.260769
_cell_length_b 12.119774
_cell_length_c 7.296077
_cell_angle_alpha 90.000000
_cell_angle_beta 110.546614
_cell_angle_gamma 90.000000
_cell_volume 684.005771
_symmetry_space_group_name_H-M "C 2/C"
_symmetry_group_IT_number 15
_symmetry_cell_setting 'monoclinic'
loop_
_space_group_symop_operation_xyz
x,y,z
-x,y,1/2-z
-x,-y,-z
x,-y,1/2+z
1/2+x,1/2+y,z
1/2-x,1/2+y,1/2-z
1/2-x,1/2-y,-z
1/2+x,1/2-y,1/2+z
loop_
_atom_site_type_symbol
_atom_site_label
_atom_site_fract_x
_atom_site_fract_y
_atom_site_fract_z
Si Si1 0.250000 0.250000 0.500000
Si Si2 0.356673 0.661976 0.431516
Si Si3 0.685037 0.046369 0.017060
O O1 0.454543 0.292499 0.521503
O O2 0.322674 0.137248 0.642364
O O3 0.250000 0.750000 0.500000
O O4 0.258253 0.637348 0.196027
O O5 0.323663 0.545915 0.522480
O O6 0.500000 0.000000 0.000000
#
# Coordination Sequence:
#
# PCOD9271055 Si02
#       3
#     4   8   8
#     4   8  22  32  58  92 126 152 216 262 324 368
#     4  10  20  36  56  93 128 162 210 266 323 383
#     4  10  20  37  64  91 122 166 217 262 315 392
#
# _framework density 29.239519999999999
#
# number of rings (size 3 to 8) (size 9 to 14) (size 15 to 20)
#    2.400    0.000    0.000    3.600    0.000    0.000 
#    0.000    0.000    0.000    2.400   10.400    0.000 
#    0.000    0.000    0.000    0.000    0.000    0.000 
#
# Total GULP energy -55772.210660 kJ/mol
# GULP energy per Si atom -5577.221066 kJ/mol
# Density = 2.917297 g / cm^3
# Si number density = 29.239520 Si / 1000 Ang^3
#
#
#
# Elastic Constant Matrix: (Units=GPa)
#
#
# Indices 1 2 3 4 5 6 
#
# 1 385.4109 162.6882 81.1924 0.0000 -12.8505 0.0000
# 2 162.6882 322.5276 46.0732 0.0000 -24.1082 0.0000
# 3 81.1924 46.0732 159.7327 0.0000 5.6027 0.0000
# 4 0.0000 0.0000 0.0000 54.2767 0.0000 -3.0741
# 5 -12.8505 -24.1082 5.6027 0.0000 54.4058 0.0000
# 6 0.0000 0.0000 0.0000 -3.0741 0.0000 89.0513
#
#
#
# Elastic Compliance Matrix: (Units=1/GPa)
#
#
# Indices 1 2 3 4 5 6 
#
# 1 0.003558 -0.001579 -0.001363 0.000000 0.000281 0.000000
# 2 -0.001579 0.004067 -0.000422 0.000000 0.001473 0.000000
# 3 -0.001363 -0.000422 0.007119 0.000000 -0.001242 0.000000
# 4 0.000000 0.000000 0.000000 0.018460 0.000000 0.000637
# 5 0.000281 0.001473 -0.001242 0.000000 0.019227 0.000000
# 6 0.000000 0.000000 0.000000 0.000637 0.000000 0.011251
#
#
# Mechanical properties :
#
#
# Convention : Reuss Voigt Hill
#
# Bulk Modulus (GPa) = 124.75692 160.84209 142.79951
# Shear Modulus (GPa) = 68.41626 78.06124 73.23875
#
# Velocity S-wave (km/s) = 4.84245 5.17254 5.01021
# Velocity P-wave (km/s) = 8.60382 9.52898 9.07819
#
# Compressibility (1/GPa) = 0.00801559
#
# Stress axis : x y z
#
# Youngs Moduli (GPa) = 281.09429 245.86310 140.47826
#
# Poissons Ratio (x) = 0.38817 0.19144
# Poissons Ratio (y) = 0.44379 0.05933
# Poissons Ratio (z) = 0.38307 0.10383
#
# Static dielectric constant tensor:
#      x y z
#    x 2.067330 0.000000 0.012140 
#    y 0.000000 2.794500 0.000000 
#    z 0.012140 0.000000 3.021170 
# 
# From -- ./inp_files/20759.got.cif
#   From: 2010.05.17/outbox.cif.g08.bks.cpg/sg15_11_cif.got.tgz:20759.got - 2010.06.03 18:47:42.
