data_PCOD9271570
_publ_section_title
;
Structure prediction by ZEFSAII (Michael W. Deem and Ramdas Pophale) SiO2 
 PCOD9271570
Probable space group: C 2/C
;
_chemical_formula_sum "Si O2"
_cell_formula_units_Z 52
_cell_length_a 9.410346
_cell_length_b 20.883729
_cell_length_c 16.568399
_cell_angle_alpha 90.000000
_cell_angle_beta 126.577179
_cell_angle_gamma 90.000000
_cell_volume 2614.805657
_symmetry_space_group_name_H-M "C 2/C"
_symmetry_group_IT_number 15
_symmetry_cell_setting 'monoclinic'
loop_
_space_group_symop_operation_xyz
x,y,z
-x,y,1/2-z
-x,-y,-z
x,-y,1/2+z
1/2+x,1/2+y,z
1/2-x,1/2+y,1/2-z
1/2-x,1/2-y,-z
1/2+x,1/2-y,1/2+z
loop_
_atom_site_type_symbol
_atom_site_label
_atom_site_fract_x
_atom_site_fract_y
_atom_site_fract_z
Si Si1 0.731666 0.714098 0.580027
Si Si2 0.911840 0.413007 0.633968
Si Si3 0.220731 0.332217 0.694904
Si Si4 0.765316 0.057164 0.086208
Si Si5 0.555363 0.622568 0.078932
Si Si6 0.500000 0.883728 0.250000
Si Si7 0.924464 0.539049 0.878549
O O1 0.750000 0.750000 0.500000
O O2 0.735749 0.767120 0.651268
O O3 0.555212 0.672768 0.510131
O O4 0.878078 0.662324 0.654944
O O5 0.704329 0.409332 0.574409
O O6 0.970756 0.473234 0.602937
O O7 0.000000 0.425787 0.750000
O O8 0.014548 0.349633 0.640008
O O9 0.292438 0.390067 0.664321
O O10 0.334172 0.338597 0.814936
O O11 0.922709 0.071279 0.076143
O O12 0.738260 0.988262 0.122294
O O13 0.576338 0.075413 0.980515
O O14 0.603385 0.926755 0.217416
#
# Coordination Sequence:
#
# PCOD9271570 Si02
#       7
#     8   8   8   8   8   4   8
#     4  12  23  37  59  91 122 160 209 262 307 377
#     4   9  20  37  60  84 119 159 201 247 314 361
#     4  10  21  39  58  85 120 159 200 256 306 364
#     4  10  20  36  60  86 117 158 208 242 310 365
#     4  11  21  37  60  92 109 158 211 244 306 384
#     4  12  22  38  60  94 128 164 208 262 324 372
#     4  10  20  38  58  87 125 162 195 261 313 364
#
# _framework density 19.886755000000001
#
# number of rings (size 3 to 8) (size 9 to 14) (size 15 to 20)
#    0.000    1.538    3.846    1.385    0.000    1.231 
#    0.000    0.000    0.000    0.000    4.000    0.000 
#    0.000    0.000    0.000    0.000    0.000    0.000 
#
# Total GULP energy -144869.238421 kJ/mol
# GULP energy per Si atom -5571.893785 kJ/mol
# Density = 1.984149 g / cm^3
# Si number density = 19.886755 Si / 1000 Ang^3
#
#
#
# Elastic Constant Matrix: (Units=GPa)
#
#
# Indices 1 2 3 4 5 6 
#
# 1 93.1726 30.9584 11.4361 0.0000 14.3563 0.0000
# 2 30.9584 78.8554 36.5334 0.0000 0.3872 0.0000
# 3 11.4361 36.5334 59.1463 0.0000 -0.8444 0.0000
# 4 0.0000 0.0000 0.0000 18.8210 0.0000 -11.5509
# 5 14.3563 0.3872 -0.8444 0.0000 33.4225 0.0000
# 6 0.0000 0.0000 0.0000 -11.5509 0.0000 22.5817
#
#
#
# Elastic Compliance Matrix: (Units=1/GPa)
#
#
# Indices 1 2 3 4 5 6 
#
# 1 0.013362 -0.005581 0.000783 0.000000 -0.005655 0.000000
# 2 -0.005581 0.020104 -0.011312 0.000000 0.001879 0.000000
# 3 0.000783 -0.011312 0.023749 0.000000 0.000395 0.000000
# 4 0.000000 0.000000 0.000000 0.077444 0.000000 0.039614
# 5 -0.005655 0.001879 0.000395 0.000000 0.032337 0.000000
# 6 0.000000 0.000000 0.000000 0.039614 0.000000 0.064547
#
#
# Mechanical properties :
#
#
# Convention : Reuss Voigt Hill
#
# Bulk Modulus (GPa) = 40.00793 43.22554 41.61674
# Shear Modulus (GPa) = 18.37590 25.11480 21.74535
#
# Velocity S-wave (km/s) = 3.04308 3.55757 3.31034
# Velocity P-wave (km/s) = 5.70164 6.21757 5.96518
#
# Compressibility (1/GPa) = 0.02499504
#
# Stress axis : x y z
#
# Youngs Moduli (GPa) = 74.83656 49.74121 42.10768
#
# Poissons Ratio (x) = 0.27761 -0.03296
# Poissons Ratio (y) = 0.41766 0.47632
# Poissons Ratio (z) = -0.05859 0.56267
#
# Static dielectric constant tensor:
#      x y z
#    x 1.968630 0.000000 0.027670 
#    y 0.000000 1.740430 0.000000 
#    z 0.027670 0.000000 1.761720 
# 
# From -- ./inp_files/192625.got.cif
#   From: 2010.05.17/outbox.cif.g08.bks.cpg/sg15_97_cif.got.tgz:192625.got - 2010.06.03 18:47:42.
