data_PCOD9271011
_publ_section_title
;
Structure prediction by ZEFSAII (Michael W. Deem and Ramdas Pophale) SiO2 
 PCOD9271011
Probable space group: C 2/C
;
_chemical_formula_sum "Si O2"
_cell_formula_units_Z 44
_cell_length_a 24.149792
_cell_length_b 11.172139
_cell_length_c 8.261756
_cell_angle_alpha 90.000000
_cell_angle_beta 112.474514
_cell_angle_gamma 90.000000
_cell_volume 2059.763714
_symmetry_space_group_name_H-M "C 2/C"
_symmetry_group_IT_number 15
_symmetry_cell_setting 'monoclinic'
loop_
_space_group_symop_operation_xyz
x,y,z
-x,y,1/2-z
-x,-y,-z
x,-y,1/2+z
1/2+x,1/2+y,z
1/2-x,1/2+y,1/2-z
1/2-x,1/2-y,-z
1/2+x,1/2-y,1/2+z
loop_
_atom_site_type_symbol
_atom_site_label
_atom_site_fract_x
_atom_site_fract_y
_atom_site_fract_z
Si Si1 0.544496 0.940804 0.678763
Si Si2 0.214384 0.102697 0.642069
Si Si3 0.076145 0.114774 0.522901
Si Si4 0.245054 0.360606 0.661687
Si Si5 0.500000 0.580166 0.750000
Si Si6 0.107146 0.354301 0.454720
O O1 0.500000 0.871816 0.750000
O O2 0.594237 0.875132 0.630769
O O3 0.500000 0.000000 0.500000
O O4 0.576201 0.045547 0.813631
O O5 0.147029 0.099135 0.636689
O O6 0.248364 0.225272 0.737689
O O7 0.212307 0.120315 0.445418
O O8 0.245367 0.975994 0.715292
O O9 0.037795 0.137558 0.643250
O O10 0.076577 0.226005 0.397543
O O11 0.048034 0.002241 0.399592
O O12 0.177803 0.362031 0.514273
#
# Coordination Sequence:
#
# PCOD9271011 Si02
#       6
#     8   8   8   8   4   8
#     4   9  19  33  53  81 113 150 187 234 282 355
#     4  10  21  39  60  90 119 158 197 249 295 359
#     4  10  22  38  61  83 115 156 198 248 293 350
#     4  10  21  37  61  85 124 153 199 245 299 354
#     4  10  22  40  58  84 112 154 204 248 292 346
#     4  10  20  36  56  86 117 153 192 239 299 354
#
# _framework density 21.361673
#
# number of rings (size 3 to 8) (size 9 to 14) (size 15 to 20)
#    0.000    2.182    0.000    2.182    5.091    0.727 
#    0.000    1.818    0.000    0.000    0.000    0.000 
#    0.000    0.000    0.000    0.000    0.000    0.000 
#
# Total GULP energy -122549.771076 kJ/mol
# GULP energy per Si atom -5570.444140 kJ/mol
# Density = 2.131305 g / cm^3
# Si number density = 21.361673 Si / 1000 Ang^3
#
#
#
# Elastic Constant Matrix: (Units=GPa)
#
#
# Indices 1 2 3 4 5 6 
#
# 1 118.6934 24.6214 18.2392 0.0000 -11.7010 0.0000
# 2 24.6214 122.2700 21.7198 0.0000 4.9588 0.0000
# 3 18.2392 21.7198 35.9247 0.0000 -7.8737 0.0000
# 4 0.0000 0.0000 0.0000 1.1232 0.0000 5.5066
# 5 -11.7010 4.9588 -7.8737 0.0000 21.3928 0.0000
# 6 0.0000 0.0000 0.0000 5.5066 0.0000 33.0749
#
#
#
# Elastic Compliance Matrix: (Units=1/GPa)
#
#
# Indices 1 2 3 4 5 6 
#
# 1 0.009661 -0.001611 -0.002927 0.000000 0.004580 0.000000
# 2 -0.001611 0.009853 -0.006345 0.000000 -0.005500 0.000000
# 3 -0.002927 -0.006345 0.036036 0.000000 0.013133 0.000000
# 4 0.000000 0.000000 0.000000 4.845080 0.000000 -0.806658
# 5 0.004580 -0.005500 0.013133 0.000000 0.055358 0.000000
# 6 0.000000 0.000000 0.000000 -0.806658 0.000000 0.164535
#
#
# Mechanical properties :
#
#
# Convention : Reuss Voigt Hill
#
# Bulk Modulus (GPa) = 29.59911 45.11653 37.35782
# Shear Modulus (GPa) = 0.97020 25.27203 13.12112
#
# Velocity S-wave (km/s) = 0.67466 3.44329 2.48107
# Velocity P-wave (km/s) = 3.80699 6.08066 5.07285
#
# Compressibility (1/GPa) = 0.03378481
#
# Stress axis : x y z
#
# Youngs Moduli (GPa) = 103.51370 101.48988 27.74978
#
# Poissons Ratio (x) = 0.16352 0.08122
# Poissons Ratio (y) = 0.16678 0.17606
# Poissons Ratio (z) = 0.30296 0.64392
#
# Static dielectric constant tensor:
#      x y z
#    x 1.805760 0.000000 -0.048800 
#    y 0.000000 1.858110 0.000000 
#    z -0.048800 0.000000 1.769840 
# 
# From -- ./inp_files/60720.got.cif
#   From: 2010.05.17/outbox.cif.g08.bks.cpg/sg15_31_cif.got.tgz:60720.got - 2010.06.03 18:47:42.
