data_PCOD9271251
_publ_section_title
;
Structure prediction by ZEFSAII (Michael W. Deem and Ramdas Pophale) SiO2 
 PCOD9271251
Probable space group: C 2/C
;
_chemical_formula_sum "Si O2"
_cell_formula_units_Z 48
_cell_length_a 20.738125
_cell_length_b 18.441967
_cell_length_c 7.828497
_cell_angle_alpha 90.000000
_cell_angle_beta 40.827830
_cell_angle_gamma 90.000000
_cell_volume 1957.456898
_symmetry_space_group_name_H-M "C 2/C"
_symmetry_group_IT_number 15
_symmetry_cell_setting 'monoclinic'
loop_
_space_group_symop_operation_xyz
x,y,z
-x,y,1/2-z
-x,-y,-z
x,-y,1/2+z
1/2+x,1/2+y,z
1/2-x,1/2+y,1/2-z
1/2-x,1/2-y,-z
1/2+x,1/2-y,1/2+z
loop_
_atom_site_type_symbol
_atom_site_label
_atom_site_fract_x
_atom_site_fract_y
_atom_site_fract_z
Si Si1 0.055550 0.840843 0.958492
Si Si2 0.202947 0.563555 0.284330
Si Si3 0.891023 0.035019 0.402824
Si Si4 0.761114 0.206712 0.246374
Si Si5 0.429880 0.051796 0.253312
Si Si6 0.641382 0.326446 0.317245
O O1 0.094427 0.915667 0.796270
O O2 0.145145 0.786687 0.819565
O O3 0.000000 0.853113 0.250000
O O4 0.973089 0.811750 0.994509
O O5 0.207428 0.631972 0.401590
O O6 0.141801 0.589514 0.239322
O O7 0.140672 0.499887 0.495397
O O8 0.311001 0.528008 0.039655
O O9 0.853157 0.093110 0.618015
O O10 0.000000 0.013545 0.250000
O O11 0.691556 0.273802 0.352852
O O12 0.805089 0.185959 0.970620
O O13 0.500000 0.092760 0.250000
O O14 0.500000 0.000000 0.000000
#
# Coordination Sequence:
#
# PCOD9271251 Si02
#       6
#     8   8   8   8   8   8
#     4   9  19  37  57  82 118 156 198 243 296 359
#     4  11  20  36  62  89 117 154 200 248 298 352
#     4  10  21  37  60  92 124 157 195 245 305 364
#     4  10  20  36  58  85 114 152 198 243 292 352
#     4   9  20  38  55  79 117 155 196 246 295 348
#     4   9  20  38  55  79 120 157 192 239 294 354
#
# _framework density 24.521612999999999
#
# number of rings (size 3 to 8) (size 9 to 14) (size 15 to 20)
#    0.000    2.333    0.000    2.000    0.000    2.667 
#    0.000   23.333    0.000    0.000    0.000    0.000 
#    0.000    0.000    0.000    0.000    0.000    0.000 
#
# Total GULP energy -134196.970947 kJ/mol
# GULP energy per Si atom -5591.540456 kJ/mol
# Density = 2.446580 g / cm^3
# Si number density = 24.521613 Si / 1000 Ang^3
#
#
#
# Elastic Constant Matrix: (Units=GPa)
#
#
# Indices 1 2 3 4 5 6 
#
# 1 183.1059 47.6496 50.7608 0.0000 -30.0785 0.0000
# 2 47.6496 76.4392 17.3499 0.0000 -33.5305 0.0000
# 3 50.7608 17.3499 79.0377 0.0000 -0.6279 0.0000
# 4 0.0000 0.0000 0.0000 11.7885 0.0000 -4.1511
# 5 -30.0785 -33.5305 -0.6279 0.0000 55.2798 0.0000
# 6 0.0000 0.0000 0.0000 -4.1511 0.0000 24.7306
#
#
#
# Elastic Compliance Matrix: (Units=1/GPa)
#
#
# Indices 1 2 3 4 5 6 
#
# 1 0.007813 -0.002767 -0.004390 0.000000 0.002523 0.000000
# 2 -0.002767 0.020043 -0.002538 0.000000 0.010623 0.000000
# 3 -0.004390 -0.002538 0.015999 0.000000 -0.003747 0.000000
# 4 0.000000 0.000000 0.000000 0.090157 0.000000 0.015133
# 5 0.002523 0.010623 -0.003747 0.000000 0.025863 0.000000
# 6 0.000000 0.000000 0.000000 0.015133 0.000000 0.042976
#
#
# Mechanical properties :
#
#
# Convention : Reuss Voigt Hill
#
# Bulk Modulus (GPa) = 40.87640 63.34484 52.11062
# Shear Modulus (GPa) = 21.70162 33.21461 27.45811
#
# Velocity S-wave (km/s) = 2.97812 3.68435 3.34990
# Velocity P-wave (km/s) = 5.34147 6.63231 6.02158
#
# Compressibility (1/GPa) = 0.02446400
#
# Stress axis : x y z
#
# Youngs Moduli (GPa) = 127.99331 49.89230 62.50320
#
# Poissons Ratio (x) = 0.13806 0.27440
# Poissons Ratio (y) = 0.35418 0.15865
# Poissons Ratio (z) = 0.56192 0.12664
#
# Static dielectric constant tensor:
#      x y z
#    x 2.005210 0.000000 0.012370 
#    y 0.000000 1.913870 0.000000 
#    z 0.012370 0.000000 2.001130 
# 
# From -- ./inp_files/57681.got.cif
#   From: 2010.05.17/outbox.cif.g08.bks.cpg/sg15_29_cif.got.tgz:57681.got - 2010.06.03 18:47:42.
