data_PCOD9271984
_publ_section_title
;
Structure prediction by ZEFSAII (Michael W. Deem and Ramdas Pophale) SiO2 
 PCOD9271984
Probable space group: C 2/C
;
_chemical_formula_sum "Si O2"
_cell_formula_units_Z 48
_cell_length_a 18.962268
_cell_length_b 13.197309
_cell_length_c 13.873130
_cell_angle_alpha 90.000000
_cell_angle_beta 42.577320
_cell_angle_gamma 90.000000
_cell_volume 2348.941447
_symmetry_space_group_name_H-M "C 2/C"
_symmetry_group_IT_number 15
_symmetry_cell_setting 'monoclinic'
loop_
_space_group_symop_operation_xyz
x,y,z
-x,y,1/2-z
-x,-y,-z
x,-y,1/2+z
1/2+x,1/2+y,z
1/2-x,1/2+y,1/2-z
1/2-x,1/2-y,-z
1/2+x,1/2-y,1/2+z
loop_
_atom_site_type_symbol
_atom_site_label
_atom_site_fract_x
_atom_site_fract_y
_atom_site_fract_z
Si Si1 0.752699 0.621643 0.096028
Si Si2 0.038842 0.748243 0.353608
Si Si3 0.982208 0.599344 0.951770
Si Si4 0.293978 0.857424 0.338287
Si Si5 0.706946 0.421408 0.221425
Si Si6 0.649955 0.191747 0.065092
O O1 0.720459 0.735994 0.154251
O O2 0.685047 0.537624 0.219054
O O3 0.872617 0.603171 0.006999
O O4 0.744217 0.609560 0.989468
O O5 0.022687 0.693906 0.470268
O O6 0.112797 0.845082 0.290740
O O7 0.091261 0.668186 0.224545
O O8 0.927162 0.765019 0.416758
O O9 0.084347 0.613565 0.784241
O O10 0.000000 0.500000 0.000000
O O11 0.241775 0.905559 0.296237
O O12 0.805269 0.390778 0.053384
O O13 0.750000 0.250000 0.000000
#
# Coordination Sequence:
#
# PCOD9271984 Si02
#       6
#     8   8   8   8   8   8
#     4  11  25  43  66  94 134 177 222 276 331 404
#     4  10  20  36  62  98 128 159 220 273 321 385
#     4  12  22  39  69  97 127 173 222 276 330 394
#     4  11  24  43  65  96 133 170 223 276 332 398
#     4  11  21  41  66  92 128 176 218 271 338 387
#     4   9  19  35  62  92 128 164 205 271 324 382
#
# _framework density 20.434736000000001
#
# number of rings (size 3 to 8) (size 9 to 14) (size 15 to 20)
#    0.000    1.333    5.000    0.500    2.333    0.000 
#    3.000    0.833   29.333    0.000    0.000    0.000 
#    0.000    0.000    0.000    0.000    0.000    0.000 
#
# Total GULP energy -133948.888960 kJ/mol
# GULP energy per Si atom -5581.203707 kJ/mol
# Density = 2.038823 g / cm^3
# Si number density = 20.434736 Si / 1000 Ang^3
#
#
#
# Elastic Constant Matrix: (Units=GPa)
#
#
# Indices 1 2 3 4 5 6 
#
# 1 92.4707 28.3441 9.2226 0.0000 0.7611 0.0000
# 2 28.3441 93.8450 24.0038 0.0000 6.2733 0.0000
# 3 9.2226 24.0038 40.1612 0.0000 8.2996 0.0000
# 4 0.0000 0.0000 0.0000 23.4028 0.0000 -3.9878
# 5 0.7611 6.2733 8.2996 0.0000 46.4123 0.0000
# 6 0.0000 0.0000 0.0000 -3.9878 0.0000 18.6722
#
#
#
# Elastic Compliance Matrix: (Units=1/GPa)
#
#
# Indices 1 2 3 4 5 6 
#
# 1 0.011941 -0.003436 -0.000772 0.000000 0.000407 0.000000
# 2 -0.003436 0.013574 -0.007223 0.000000 -0.000487 0.000000
# 3 -0.000772 -0.007223 0.030310 0.000000 -0.004431 0.000000
# 4 0.000000 0.000000 0.000000 0.044344 0.000000 0.009470
# 5 0.000407 -0.000487 -0.004431 0.000000 0.022398 0.000000
# 6 0.000000 0.000000 0.000000 0.009470 0.000000 0.055578
#
#
# Mechanical properties :
#
#
# Convention : Reuss Voigt Hill
#
# Bulk Modulus (GPa) = 30.33867 38.84641 34.59254
# Shear Modulus (GPa) = 23.58544 28.69122 26.13833
#
# Velocity S-wave (km/s) = 3.40101 3.75112 3.58035
# Velocity P-wave (km/s) = 5.50467 6.14918 5.83583
#
# Compressibility (1/GPa) = 0.03296123
#
# Stress axis : x y z
#
# Youngs Moduli (GPa) = 83.74363 73.67129 32.99243
#
# Poissons Ratio (x) = 0.25315 0.02548
# Poissons Ratio (y) = 0.28776 0.23831
# Poissons Ratio (z) = 0.06469 0.53214
#
# Static dielectric constant tensor:
#      x y z
#    x 1.724170 0.000000 -0.003180 
#    y 0.000000 1.727110 0.000000 
#    z -0.003180 0.000000 1.767840 
# 
# From -- ./inp_files/167843.got.cif
#   From: 2010.05.17/outbox.cif.g08.bks.cpg/sg15_84_cif.got.tgz:167843.got - 2010.06.03 18:47:42.
