data_PCOD9271425
_publ_section_title
;
Structure prediction by ZEFSAII (Michael W. Deem and Ramdas Pophale) SiO2 
 PCOD9271425
Probable space group: C 2/C
;
_chemical_formula_sum "Si O2"
_cell_formula_units_Z 56
_cell_length_a 11.990694
_cell_length_b 14.861710
_cell_length_c 14.798564
_cell_angle_alpha 90.000000
_cell_angle_beta 68.795247
_cell_angle_gamma 90.000000
_cell_volume 2458.586391
_symmetry_space_group_name_H-M "C 2/C"
_symmetry_group_IT_number 15
_symmetry_cell_setting 'monoclinic'
loop_
_space_group_symop_operation_xyz
x,y,z
-x,y,1/2-z
-x,-y,-z
x,-y,1/2+z
1/2+x,1/2+y,z
1/2-x,1/2+y,1/2-z
1/2-x,1/2-y,-z
1/2+x,1/2-y,1/2+z
loop_
_atom_site_type_symbol
_atom_site_label
_atom_site_fract_x
_atom_site_fract_y
_atom_site_fract_z
Si Si1 0.335720 0.523457 0.543368
Si Si2 0.129360 0.947494 0.665907
Si Si3 0.058790 0.825834 0.374645
Si Si4 0.801554 0.765838 0.774647
Si Si5 0.193194 0.126674 0.575610
Si Si6 0.416631 0.893180 0.354211
Si Si7 0.435169 0.210764 0.558985
O O1 0.384102 0.570173 0.437435
O O2 0.403347 0.572458 0.605605
O O3 0.336533 0.418723 0.514133
O O4 0.197218 0.546573 0.594369
O O5 0.201491 0.866942 0.689543
O O6 0.000000 0.954672 0.750000
O O7 0.200048 0.041984 0.642466
O O8 0.931598 0.826944 0.362358
O O9 0.026900 0.766763 0.472361
O O10 0.172835 0.778984 0.296417
O O11 0.864458 0.701919 0.831256
O O12 0.882553 0.761102 0.662014
O O13 0.316103 0.179837 0.540594
O O14 0.500000 0.929649 0.250000
O O15 0.494056 0.873615 0.419722
#
# Coordination Sequence:
#
# PCOD9271425 Si02
#       7
#     8   8   8   8   8   8   8
#     4   9  20  36  60  85 117 150 198 240 290 334
#     4  10  20  36  59  86 117 144 193 246 285 332
#     4  11  21  39  62  83 119 158 195 237 282 351
#     4  10  21  37  62  91 104 151 208 238 284 341
#     4  10  25  37  57  89 125 152 190 233 306 343
#     4   9  18  36  59  84 113 149 199 246 283 337
#     4  11  22  37  61  83 122 155 191 238 289 352
#
# _framework density 22.777317
#
# number of rings (size 3 to 8) (size 9 to 14) (size 15 to 20)
#    0.857    1.143    0.000    4.714    2.000    2.857 
#    0.000    0.000    0.000    0.000    0.000    0.000 
#    0.000    0.000    0.000    0.000    0.000    0.000 
#
# Total GULP energy -156333.732417 kJ/mol
# GULP energy per Si atom -5583.347586 kJ/mol
# Density = 2.272547 g / cm^3
# Si number density = 22.777317 Si / 1000 Ang^3
#
#
#
# Elastic Constant Matrix: (Units=GPa)
#
#
# Indices 1 2 3 4 5 6 
#
# 1 110.8833 0.2308 8.0799 0.0000 -13.4242 0.0000
# 2 0.2308 25.6085 3.6237 0.0000 -0.3498 0.0000
# 3 8.0799 3.6237 59.5254 0.0000 -21.6954 0.0000
# 4 0.0000 0.0000 0.0000 15.2149 0.0000 -11.3783
# 5 -13.4242 -0.3498 -21.6954 0.0000 34.8650 0.0000
# 6 0.0000 0.0000 0.0000 -11.3783 0.0000 23.2325
#
#
#
# Elastic Compliance Matrix: (Units=1/GPa)
#
#
# Indices 1 2 3 4 5 6 
#
# 1 0.009460 -0.000043 0.000059 0.000000 0.003679 0.000000
# 2 -0.000043 0.039443 -0.002919 0.000000 -0.001437 0.000000
# 3 0.000059 -0.002919 0.021944 0.000000 0.013648 0.000000
# 4 0.000000 0.000000 0.000000 0.103711 0.000000 0.050793
# 5 0.003679 -0.001437 0.013648 0.000000 0.038577 0.000000
# 6 0.000000 0.000000 0.000000 0.050793 0.000000 0.067920
#
#
# Mechanical properties :
#
#
# Convention : Reuss Voigt Hill
#
# Bulk Modulus (GPa) = 15.37508 24.43178 19.90343
# Shear Modulus (GPa) = 16.20533 26.93465 21.56999
#
# Velocity S-wave (km/s) = 2.67023 3.44251 3.08067
# Velocity P-wave (km/s) = 4.03381 5.15275 4.62723
#
# Compressibility (1/GPa) = 0.06504032
#
# Stress axis : x y z
#
# Youngs Moduli (GPa) = 105.71244 25.35282 45.57120
#
# Poissons Ratio (x) = 0.00110 -0.00271
# Poissons Ratio (y) = 0.00459 0.13303
# Poissons Ratio (z) = -0.00628 0.07401
#
# Static dielectric constant tensor:
#      x y z
#    x 1.845280 0.000000 0.070160 
#    y 0.000000 1.861920 0.000000 
#    z 0.070160 0.000000 1.877310 
# 
# From -- ./inp_files/145536.got.cif
#   From: 2010.05.17/outbox.cif.g08.bks.cpg/sg15_73_cif.got.tgz:145536.got - 2010.06.03 18:47:42.
