data_PCOD9271121
_publ_section_title
;
Structure prediction by ZEFSAII (Michael W. Deem and Ramdas Pophale) SiO2 
 PCOD9271121
Probable space group: C 2/C
;
_chemical_formula_sum "Si O2"
_cell_formula_units_Z 56
_cell_length_a 21.321545
_cell_length_b 12.465665
_cell_length_c 9.728012
_cell_angle_alpha 90.000000
_cell_angle_beta 105.600887
_cell_angle_gamma 90.000000
_cell_volume 2490.324486
_symmetry_space_group_name_H-M "C 2/C"
_symmetry_group_IT_number 15
_symmetry_cell_setting 'monoclinic'
loop_
_space_group_symop_operation_xyz
x,y,z
-x,y,1/2-z
-x,-y,-z
x,-y,1/2+z
1/2+x,1/2+y,z
1/2-x,1/2+y,1/2-z
1/2-x,1/2-y,-z
1/2+x,1/2-y,1/2+z
loop_
_atom_site_type_symbol
_atom_site_label
_atom_site_fract_x
_atom_site_fract_y
_atom_site_fract_z
Si Si1 0.000000 0.235655 0.250000
Si Si2 0.725691 0.370653 0.465451
Si Si3 0.779400 0.094911 0.949990
Si Si4 0.113052 0.116596 0.698573
Si Si5 0.000000 0.743228 0.250000
Si Si6 0.464740 0.887703 0.469525
Si Si7 0.869691 0.122978 0.258045
Si Si8 0.673673 0.847207 0.202559
O O1 0.001575 0.309278 0.385878
O O2 0.933955 0.167645 0.219560
O O3 0.750000 0.250000 0.500000
O O4 0.730104 0.466089 0.578302
O O5 0.653075 0.371485 0.363717
O O6 0.775174 0.400621 0.370444
O O7 0.834662 0.149431 0.886551
O O8 0.710165 0.146546 0.870761
O O9 0.810297 0.101912 0.118730
O O10 0.047881 0.182371 0.686671
O O11 0.105793 0.989485 0.665851
O O12 0.038015 0.668939 0.382656
O O13 0.394458 0.904744 0.358512
O O14 0.500000 0.000000 0.500000
O O15 0.844768 0.222133 0.335823
#
# Coordination Sequence:
#
# PCOD9271121 Si02
#       8
#     4   8   8   8   4   8   8   8
#     4  10  22  40  64  92 124 166 210 262 320 378
#     4  10  20  36  57  85 120 158 203 255 309 375
#     4  10  21  38  61  89 123 165 209 260 321 382
#     4  10  22  37  59  91 122 159 206 256 312 378
#     4  12  24  42  66  94 126 170 210 260 324 382
#     4  11  25  43  63  92 128 168 216 266 315 380
#     4  10  20  38  60  89 124 160 205 262 319 384
#     4  10  22  38  60  88 119 163 211 262 319 377
#
# _framework density 22.487030000000001
#
# number of rings (size 3 to 8) (size 9 to 14) (size 15 to 20)
#    0.000    1.714    0.000    3.857    0.000    8.000 
#    0.000   11.429    0.000    0.000    0.000    0.000 
#    0.000    0.000    0.000    0.000    0.000    0.000 
#
# Total GULP energy -156202.626837 kJ/mol
# GULP energy per Si atom -5578.665244 kJ/mol
# Density = 2.243585 g / cm^3
# Si number density = 22.487030 Si / 1000 Ang^3
#
#
#
# Elastic Constant Matrix: (Units=GPa)
#
#
# Indices 1 2 3 4 5 6 
#
# 1 113.1515 34.8768 22.7119 0.0000 17.0065 0.0000
# 2 34.8768 95.8865 12.5931 0.0000 15.3151 0.0000
# 3 22.7119 12.5931 60.3491 0.0000 3.5660 0.0000
# 4 0.0000 0.0000 0.0000 30.5810 0.0000 3.4138
# 5 17.0065 15.3151 3.5660 0.0000 33.6856 0.0000
# 6 0.0000 0.0000 0.0000 3.4138 0.0000 28.5812
#
#
#
# Elastic Compliance Matrix: (Units=1/GPa)
#
#
# Indices 1 2 3 4 5 6 
#
# 1 0.010987 -0.002948 -0.003292 0.000000 -0.003858 0.000000
# 2 -0.002948 0.012296 -0.001222 0.000000 -0.003973 0.000000
# 3 -0.003292 -0.001222 0.018046 0.000000 0.000307 0.000000
# 4 0.000000 0.000000 0.000000 0.033142 0.000000 -0.003959
# 5 -0.003858 -0.003973 0.000307 0.000000 0.033408 0.000000
# 6 0.000000 0.000000 0.000000 -0.003959 0.000000 0.035461
#
#
# Mechanical properties :
#
#
# Convention : Reuss Voigt Hill
#
# Bulk Modulus (GPa) = 37.86940 45.52786 41.69863
# Shear Modulus (GPa) = 29.92862 31.84993 30.88927
#
# Velocity S-wave (km/s) = 3.65215 3.76755 3.71030
# Velocity P-wave (km/s) = 5.88739 6.26228 6.07773
#
# Compressibility (1/GPa) = 0.02640654
#
# Stress axis : x y z
#
# Youngs Moduli (GPa) = 91.01759 81.32599 55.41434
#
# Poissons Ratio (x) = 0.23973 0.18241
# Poissons Ratio (y) = 0.26829 0.06770
# Poissons Ratio (z) = 0.29961 0.09936
#
# Static dielectric constant tensor:
#      x y z
#    x 1.856230 0.000000 -0.055330 
#    y 0.000000 1.889720 0.000000 
#    z -0.055330 0.000000 1.925590 
# 
# From -- ./inp_files/111702.got.cif
#   From: 2010.05.17/outbox.cif.g08.bks.cpg/sg15_56_cif.got.tgz:111702.got - 2010.06.03 18:47:42.
