data_PCOD9271549
_publ_section_title
;
Structure prediction by ZEFSAII (Michael W. Deem and Ramdas Pophale) SiO2 
 PCOD9271549
Probable space group: C 2/C
;
_chemical_formula_sum "Si O2"
_cell_formula_units_Z 40
_cell_length_a 14.383646
_cell_length_b 15.228753
_cell_length_c 13.953078
_cell_angle_alpha 90.000000
_cell_angle_beta 149.488119
_cell_angle_gamma 90.000000
_cell_volume 1551.761864
_symmetry_space_group_name_H-M "C 2/C"
_symmetry_group_IT_number 15
_symmetry_cell_setting 'monoclinic'
loop_
_space_group_symop_operation_xyz
x,y,z
-x,y,1/2-z
-x,-y,-z
x,-y,1/2+z
1/2+x,1/2+y,z
1/2-x,1/2+y,1/2-z
1/2-x,1/2-y,-z
1/2+x,1/2-y,1/2+z
loop_
_atom_site_type_symbol
_atom_site_label
_atom_site_fract_x
_atom_site_fract_y
_atom_site_fract_z
Si Si1 0.567988 0.138461 0.409450
Si Si2 0.723181 0.420466 0.724416
Si Si3 0.690469 0.523669 0.405260
Si Si4 0.678371 0.630422 0.696322
Si Si5 0.304636 0.828107 0.116451
O O1 0.500000 0.183008 0.250000
O O2 0.397715 0.122733 0.329475
O O3 0.738221 0.165723 0.629692
O O4 0.647050 0.044171 0.446397
O O5 0.713898 0.416024 0.831689
O O6 0.738655 0.527900 0.732535
O O7 0.540164 0.380005 0.512960
O O8 0.500000 0.472254 0.250000
O O9 0.678189 0.589360 0.482453
O O10 0.775349 0.689212 0.701217
O O11 0.500000 0.855945 0.250000
O O12 0.250000 0.750000 0.000000
#
# Coordination Sequence:
#
# PCOD9271549 Si02
#       5
#     8   8   8   8   8
#     4  11  23  34  58  90 122 168 211 270 322 374
#     4  10  20  36  60  84 127 167 212 262 320 383
#     4  11  20  36  59  88 132 171 210 257 328 394
#     4  10  21  37  56  85 122 170 208 261 317 379
#     4  12  24  39  60  91 132 172 212 254 320 397
#
# _framework density 25.777149999999999
#
# number of rings (size 3 to 8) (size 9 to 14) (size 15 to 20)
#    0.000    1.200    2.000    7.200    5.600    0.000 
#    0.000    0.000    0.000    0.000    0.000    5.600 
#    0.000    0.000    0.000    0.000    0.000    0.000 
#
# Total GULP energy -111727.866511 kJ/mol
# GULP energy per Si atom -5586.393326 kJ/mol
# Density = 2.571848 g / cm^3
# Si number density = 25.777150 Si / 1000 Ang^3
#
#
#
# Elastic Constant Matrix: (Units=GPa)
#
#
# Indices 1 2 3 4 5 6 
#
# 1 121.9386 10.6256 68.0423 -0.0007 -12.1157 -0.0004
# 2 10.6256 36.1952 9.0752 -0.0029 -6.6262 -0.0020
# 3 68.0423 9.0752 149.7574 -0.0039 -12.8594 -0.0031
# 4 -0.0007 -0.0029 -0.0039 10.4234 -0.0018 -7.2175
# 5 -12.1157 -6.6262 -12.8594 -0.0018 70.9681 -0.0012
# 6 -0.0004 -0.0020 -0.0031 -7.2175 -0.0012 19.0083
#
#
#
# Elastic Compliance Matrix: (Units=1/GPa)
#
#
# Indices 1 2 3 4 5 6 
#
# 1 0.011180 -0.001901 -0.004892 -0.000003 0.000845 -0.000002
# 2 -0.001901 0.028768 -0.000688 0.000014 0.002237 0.000008
# 3 -0.004892 -0.000688 0.009005 0.000005 0.000732 0.000003
# 4 -0.000003 0.000014 0.000005 0.130160 0.000006 0.049422
# 5 0.000845 0.002237 0.000732 0.000006 0.014577 0.000004
# 6 -0.000002 0.000008 0.000003 0.049422 0.000004 0.071374
#
#
# Mechanical properties :
#
#
# Convention : Reuss Voigt Hill
#
# Bulk Modulus (GPa) = 29.41878 53.70862 41.56370
# Shear Modulus (GPa) = 17.16118 34.75650 25.95884
#
# Velocity S-wave (km/s) = 2.58302 3.67597 3.17685
# Velocity P-wave (km/s) = 4.50927 6.23682 5.44203
#
# Compressibility (1/GPa) = 0.03399189
#
# Stress axis : x y z
#
# Youngs Moduli (GPa) = 89.44405 34.76094 111.05329
#
# Poissons Ratio (x) = 0.06608 0.54327
# Poissons Ratio (y) = 0.17002 0.07636
# Poissons Ratio (z) = 0.43756 0.02390
#
# Static dielectric constant tensor:
#      x y z
#    x 2.300220 0.000010 0.356410 
#    y 0.000010 1.958860 0.000020 
#    z 0.356410 0.000020 2.797070 
# 
# From -- ./inp_files/155598.got.cif
#   From: 2010.05.17/outbox.cif.g08.bks.cpg/sg15_78_cif.got.tgz:155598.got - 2010.06.03 18:47:42.
