data_PCOD9271206
_publ_section_title
;
Structure prediction by ZEFSAII (Michael W. Deem and Ramdas Pophale) SiO2 
 PCOD9271206
Probable space group: C 2/C
;
_chemical_formula_sum "Si O2"
_cell_formula_units_Z 64
_cell_length_a 25.858397
_cell_length_b 7.964035
_cell_length_c 23.149520
_cell_angle_alpha 90.000000
_cell_angle_beta 137.828430
_cell_angle_gamma 90.000000
_cell_volume 3200.572228
_symmetry_space_group_name_H-M "C 2/C"
_symmetry_group_IT_number 15
_symmetry_cell_setting 'monoclinic'
loop_
_space_group_symop_operation_xyz
x,y,z
-x,y,1/2-z
-x,-y,-z
x,-y,1/2+z
1/2+x,1/2+y,z
1/2-x,1/2+y,1/2-z
1/2-x,1/2-y,-z
1/2+x,1/2-y,1/2+z
loop_
_atom_site_type_symbol
_atom_site_label
_atom_site_fract_x
_atom_site_fract_y
_atom_site_fract_z
Si Si1 0.764638 0.578134 0.151149
Si Si2 0.936753 0.649701 0.516901
Si Si3 0.331035 0.664429 0.846130
Si Si4 0.310884 0.378161 0.743506
Si Si5 0.286805 0.941243 0.426263
Si Si6 0.796402 0.419451 0.053188
Si Si7 0.582966 0.056351 0.685730
Si Si8 0.534825 0.796444 0.335030
O O1 0.706640 0.458495 0.137244
O O2 0.729097 0.760369 0.113176
O O3 0.777934 0.491911 0.100137
O O4 0.849141 0.577015 0.251607
O O5 0.905638 0.750913 0.436434
O O6 0.869532 0.517230 0.476879
O O7 0.981142 0.444681 0.417587
O O8 0.946471 0.767378 0.583539
O O9 0.342844 0.541767 0.802087
O O10 0.262278 0.801371 0.781799
O O11 0.275428 0.433421 0.653330
O O12 0.372129 0.232073 0.785439
O O13 0.278788 0.947584 0.488131
O O14 0.885660 0.372916 0.120350
O O15 0.750000 0.250000 0.000000
O O16 0.530069 0.067932 0.699312
O O17 0.500000 0.700971 0.250000
#
# Coordination Sequence:
#
# PCOD9271206 Si02
#       8
#     8   8   8   8   8   8   8   8
#     4  11  20  34  55  85 114 152 189 236 294 354
#     4   8  18  35  54  83 111 152 189 238 285 345
#     4  10  20  36  58  82 112 149 203 245 289 343
#     4  10  20  37  58  83 109 156 199 248 293 348
#     4  10  21  34  54  83 117 145 192 239 287 348
#     4  11  19  33  59  83 111 150 196 237 284 353
#     4   9  19  35  58  83 113 152 196 225 301 344
#     4   9  16  31  55  80 114 151 186 225 284 349
#
# _framework density 19.996424000000001
#
# number of rings (size 3 to 8) (size 9 to 14) (size 15 to 20)
#    0.750    1.500    1.250    4.125    0.000    0.500 
#    0.000    1.250    0.000   25.500    0.000    0.000 
#    0.000    0.000    0.000    0.000    0.000    0.000 
#
# Total GULP energy -178220.191511 kJ/mol
# GULP energy per Si atom -5569.380985 kJ/mol
# Density = 1.995091 g / cm^3
# Si number density = 19.996424 Si / 1000 Ang^3
#
#
#
# Elastic Constant Matrix: (Units=GPa)
#
#
# Indices 1 2 3 4 5 6 
#
# 1 56.4086 6.9098 30.5659 0.0000 9.5336 0.0000
# 2 6.9098 68.2263 45.2451 0.0001 5.3530 0.0002
# 3 30.5659 45.2451 142.8837 0.0000 16.5535 0.0000
# 4 0.0000 0.0001 0.0000 30.1632 0.0000 -10.9996
# 5 9.5336 5.3530 16.5535 0.0000 25.0770 0.0000
# 6 0.0000 0.0002 0.0000 -10.9996 0.0000 16.6849
#
#
#
# Elastic Compliance Matrix: (Units=1/GPa)
#
#
# Indices 1 2 3 4 5 6 
#
# 1 0.020758 0.001078 -0.004159 0.000000 -0.005376 0.000000
# 2 0.001078 0.018609 -0.006081 0.000000 -0.000368 0.000000
# 3 -0.004159 -0.006081 0.010265 0.000000 -0.003897 0.000000
# 4 0.000000 0.000000 0.000000 0.043646 0.000000 0.028774
# 5 -0.005376 -0.000368 -0.003897 0.000000 0.044572 0.000000
# 6 0.000000 0.000000 0.000000 0.028774 0.000000 0.078903
#
#
# Mechanical properties :
#
#
# Convention : Reuss Voigt Hill
#
# Bulk Modulus (GPa) = 31.94006 48.10668 40.02337
# Shear Modulus (GPa) = 20.36544 26.70489 23.53517
#
# Velocity S-wave (km/s) = 3.19478 3.65839 3.43442
# Velocity P-wave (km/s) = 5.44210 6.47727 5.98212
#
# Compressibility (1/GPa) = 0.03130865
#
# Stress axis : x y z
#
# Youngs Moduli (GPa) = 48.17418 53.73660 97.41525
#
# Poissons Ratio (x) = -0.05790 0.40514
# Poissons Ratio (y) = -0.05191 0.59234
# Poissons Ratio (z) = 0.20035 0.32675
#
# Static dielectric constant tensor:
#      x y z
#    x 1.716410 0.000000 -0.039330 
#    y 0.000000 1.683940 0.000000 
#    z -0.039330 0.000000 1.785330 
# 
# From -- ./inp_files/255051.got.cif
#   From: 2010.05.17/outbox.cif.g08.bks.cpg/sg15_128_cif.got.tgz:255051.got - 2010.06.03 18:47:42.
