data_PCOD9271177
_publ_section_title
;
Structure prediction by ZEFSAII (Michael W. Deem and Ramdas Pophale) SiO2 
 PCOD9271177
Probable space group: C 2/C
;
_chemical_formula_sum "Si O2"
_cell_formula_units_Z 36
_cell_length_a 9.258865
_cell_length_b 30.149470
_cell_length_c 7.629961
_cell_angle_alpha 90.000000
_cell_angle_beta 122.003141
_cell_angle_gamma 90.000000
_cell_volume 1806.198002
_symmetry_space_group_name_H-M "C 2/C"
_symmetry_group_IT_number 15
_symmetry_cell_setting 'monoclinic'
loop_
_space_group_symop_operation_xyz
x,y,z
-x,y,1/2-z
-x,-y,-z
x,-y,1/2+z
1/2+x,1/2+y,z
1/2-x,1/2+y,1/2-z
1/2-x,1/2-y,-z
1/2+x,1/2-y,1/2+z
loop_
_atom_site_type_symbol
_atom_site_label
_atom_site_fract_x
_atom_site_fract_y
_atom_site_fract_z
Si Si1 0.000000 0.025828 0.750000
Si Si2 0.866626 0.059277 0.025127
Si Si3 0.829185 0.698687 0.247956
Si Si4 0.538475 0.713431 0.483325
Si Si5 0.313656 0.855223 0.072476
O O1 0.944845 0.053221 0.882806
O O2 0.853100 0.990798 0.593198
O O3 0.711565 0.092611 0.917939
O O4 0.000000 0.080418 0.250000
O O5 0.644934 0.706809 0.041135
O O6 0.798008 0.658273 0.360196
O O7 0.000000 0.689923 0.250000
O O8 0.871962 0.742816 0.386830
O O9 0.500000 0.718837 0.250000
O O10 0.666927 0.672073 0.579106
O O11 0.500000 0.840404 0.250000
#
# Coordination Sequence:
#
# PCOD9271177 Si02
#       5
#     4   8   8   8   8
#     4   8  18  36  68  90 112 152 196 242 306 364
#     4   9  17  38  63  87 118 150 194 242 302 354
#     4  11  21  36  55  84 115 153 200 244 297 343
#     4  10  20  36  58  75 114 162 193 243 301 341
#     4  11  22  38  54  83 120 156 198 243 291 350
#
# _framework density 19.931369
#
# number of rings (size 3 to 8) (size 9 to 14) (size 15 to 20)
#    0.667    1.333    0.000    7.333    0.000    0.000 
#   10.000    1.111    0.000    0.000    0.000    0.000 
#    0.000    0.000    0.000    0.000    0.000    0.000 
#
# Total GULP energy -100334.077519 kJ/mol
# GULP energy per Si atom -5574.115418 kJ/mol
# Density = 1.988600 g / cm^3
# Si number density = 19.931369 Si / 1000 Ang^3
#
#
#
# Elastic Constant Matrix: (Units=GPa)
#
#
# Indices 1 2 3 4 5 6 
#
# 1 131.8856 48.1811 34.0364 0.0000 17.5537 0.0000
# 2 48.1811 84.0578 21.1686 0.0000 -0.0116 0.0000
# 3 34.0364 21.1686 56.0433 0.0000 6.8295 0.0000
# 4 0.0000 0.0000 0.0000 -2.8851 0.0000 4.4100
# 5 17.5537 -0.0116 6.8295 0.0000 40.4315 0.0000
# 6 0.0000 0.0000 0.0000 4.4100 0.0000 28.5646
#
#
#
# Elastic Compliance Matrix: (Units=1/GPa)
#
#
# Indices 1 2 3 4 5 6 
#
# 1 0.011185 -0.005335 -0.004274 0.000000 -0.004136 0.000000
# 2 -0.005335 0.015722 -0.003044 0.000000 0.002835 0.000000
# 3 -0.004274 -0.003044 0.021811 0.000000 -0.001830 0.000000
# 4 0.000000 0.000000 0.000000 -0.280430 0.000000 0.043295
# 5 -0.004136 0.002835 -0.001830 0.000000 0.026839 0.000000
# 6 0.000000 0.000000 0.000000 0.043295 0.000000 0.028324
#
#
# Mechanical properties :
#
#
# Convention : Reuss Voigt Hill
#
# Bulk Modulus (GPa) = 42.71157 53.19543 47.95350
# Shear Modulus (GPa) = -34.85776 24.46223 -5.19776
#
# Velocity S-wave (km/s) = -4.18651 3.50712 -1.61663
# Velocity P-wave (km/s) = 1.37598 6.56864 4.54168
#
# Compressibility (1/GPa) = 0.02341286
#
# Stress axis : x y z
#
# Youngs Moduli (GPa) = 89.40687 63.60673 45.84770
#
# Poissons Ratio (x) = 0.33937 0.19593
# Poissons Ratio (y) = 0.47702 0.13954
# Poissons Ratio (z) = 0.38209 0.19359
#
# Static dielectric constant tensor:
#      x y z
#    x 1.754340 0.000000 0.015860 
#    y 0.000000 1.684940 0.000000 
#    z 0.015860 0.000000 1.776910 
# 
# From -- ./inp_files/25173.got.cif
#   From: 2010.05.17/outbox.cif.g08.bks.cpg/sg15_13_cif.got.tgz:25173.got - 2010.06.03 18:47:42.
