data_PCOD9271924
_publ_section_title
;
Structure prediction by ZEFSAII (Michael W. Deem and Ramdas Pophale) SiO2 
 PCOD9271924
Probable space group: C 2/C
;
_chemical_formula_sum "Si O2"
_cell_formula_units_Z 48
_cell_length_a 7.726019
_cell_length_b 18.408578
_cell_length_c 19.169082
_cell_angle_alpha 90.000000
_cell_angle_beta 45.080972
_cell_angle_gamma 90.000000
_cell_volume 1930.524074
_symmetry_space_group_name_H-M "C 2/C"
_symmetry_group_IT_number 15
_symmetry_cell_setting 'monoclinic'
loop_
_space_group_symop_operation_xyz
x,y,z
-x,y,1/2-z
-x,-y,-z
x,-y,1/2+z
1/2+x,1/2+y,z
1/2-x,1/2+y,1/2-z
1/2-x,1/2-y,-z
1/2+x,1/2-y,1/2+z
loop_
_atom_site_type_symbol
_atom_site_label
_atom_site_fract_x
_atom_site_fract_y
_atom_site_fract_z
Si Si1 0.696529 0.110869 0.631046
Si Si2 0.530174 0.735327 0.478109
Si Si3 0.782966 0.839300 0.696363
Si Si4 0.404155 0.008533 0.622242
Si Si5 0.996243 0.655326 0.094707
Si Si6 0.977999 0.002819 0.141138
O O1 0.500000 0.121995 0.750000
O O2 0.830172 0.183283 0.569302
O O3 0.578931 0.072644 0.596771
O O4 0.891900 0.053261 0.607161
O O5 0.575444 0.724752 0.383297
O O6 0.784350 0.701941 0.435211
O O7 0.482588 0.815391 0.520208
O O8 0.500000 0.847141 0.750000
O O9 0.742159 0.829352 0.790197
O O10 0.924803 0.913406 0.637599
O O11 0.531528 0.930173 0.590948
O O12 0.206035 0.008744 0.741487
O O13 0.754362 0.989663 0.403185
#
# Coordination Sequence:
#
# PCOD9271924 Si02
#       6
#     8   8   8   8   8   8
#     4  10  20  37  61  90 126 166 204 259 319 369
#     4  10  20  36  62  91 124 164 207 257 323 373
#     4   9  17  34  61  89 117 166 213 258 310 382
#     4   9  18  35  61  88 121 165 212 253 309 376
#     4   9  19  37  61  89 122 164 209 257 311 379
#     4   9  17  33  60  89 120 162 208 257 308 368
#
# _framework density 24.863713000000001
#
# number of rings (size 3 to 8) (size 9 to 14) (size 15 to 20)
#    0.000    2.667    0.000    3.500    0.000    2.667 
#    6.000    4.167   36.667    2.000    0.000    0.000 
#    0.000    0.000    0.000    0.000    0.000    0.000 
#
# Total GULP energy -134268.527560 kJ/mol
# GULP energy per Si atom -5594.521982 kJ/mol
# Density = 2.480712 g / cm^3
# Si number density = 24.863713 Si / 1000 Ang^3
#
#
#
# Elastic Constant Matrix: (Units=GPa)
#
#
# Indices 1 2 3 4 5 6 
#
# 1 93.9789 9.7141 23.1637 0.0058 -11.8409 0.0024
# 2 9.7141 46.1494 36.3932 -0.0025 -3.8507 -0.0011
# 3 23.1637 36.3932 137.8184 -0.0019 3.3471 -0.0008
# 4 0.0058 -0.0025 -0.0019 1065.0435 -0.0025 439.4827
# 5 -11.8409 -3.8507 3.3471 -0.0025 26.3326 -0.0010
# 6 0.0024 -0.0011 -0.0008 439.4827 -0.0010 207.2200
#
#
#
# Elastic Compliance Matrix: (Units=1/GPa)
#
#
# Indices 1 2 3 4 5 6 
#
# 1 0.011880 -0.000453 -0.002012 0.000000 0.005532 0.000000
# 2 -0.000453 0.028040 -0.007446 0.000000 0.004843 0.000000
# 3 -0.002012 -0.007446 0.009638 0.000000 -0.003218 0.000000
# 4 0.000000 0.000000 0.000000 0.007521 0.000000 -0.015950
# 5 0.005532 0.004843 -0.003218 0.000000 0.041580 0.000000
# 6 0.000000 0.000000 0.000000 -0.015950 0.000000 0.038654
#
#
# Mechanical properties :
#
#
# Convention : Reuss Voigt Hill
#
# Bulk Modulus (GPa) = 33.62699 46.27652 39.95175
# Shear Modulus (GPa) = 29.93168 273.63093 151.78130
#
# Velocity S-wave (km/s) = 3.47339 10.50196 7.82163
# Velocity P-wave (km/s) = 5.44424 12.87274 9.88300
#
# Compressibility (1/GPa) = 0.02973802
#
# Stress axis : x y z
#
# Youngs Moduli (GPa) = 84.17326 35.66335 103.75169
#
# Poissons Ratio (x) = 0.01615 0.20870
# Poissons Ratio (y) = 0.03812 0.77253
# Poissons Ratio (z) = 0.16932 0.26555
#
# Static dielectric constant tensor:
#      x y z
#    x 2.071320 0.000000 0.058050 
#    y 0.000000 1.865670 0.000000 
#    z 0.058050 0.000000 2.001280 
# 
# From -- ./inp_files/88346.got.cif
#   From: 2010.05.17/outbox.cif.g08.bks.cpg/sg15_45_cif.got.tgz:88346.got - 2010.06.03 18:47:42.
