data_PCOD9271042
_publ_section_title
;
Structure prediction by ZEFSAII (Michael W. Deem and Ramdas Pophale) SiO2 
 PCOD9271042
Probable space group: C 2/C
;
_chemical_formula_sum "Si O2"
_cell_formula_units_Z 60
_cell_length_a 24.694300
_cell_length_b 12.985602
_cell_length_c 25.401272
_cell_angle_alpha 90.000000
_cell_angle_beta 21.754997
_cell_angle_gamma 90.000000
_cell_volume 3019.011266
_symmetry_space_group_name_H-M "C 2/C"
_symmetry_group_IT_number 15
_symmetry_cell_setting 'monoclinic'
loop_
_space_group_symop_operation_xyz
x,y,z
-x,y,1/2-z
-x,-y,-z
x,-y,1/2+z
1/2+x,1/2+y,z
1/2-x,1/2+y,1/2-z
1/2-x,1/2-y,-z
1/2+x,1/2-y,1/2+z
loop_
_atom_site_type_symbol
_atom_site_label
_atom_site_fract_x
_atom_site_fract_y
_atom_site_fract_z
Si Si1 0.164737 0.022074 0.834227
Si Si2 0.000000 0.592475 0.250000
Si Si3 0.548759 0.926192 0.908317
Si Si4 0.111679 0.132531 0.297397
Si Si5 0.282247 0.687966 0.025074
Si Si6 0.980801 0.008454 0.706775
Si Si7 0.654844 0.093354 0.004499
Si Si8 0.880192 0.762306 0.084983
O O1 0.191429 0.141619 0.819399
O O2 0.285510 0.957318 0.756459
O O3 0.167482 0.973620 0.774041
O O4 0.000000 0.000000 0.000000
O O5 0.103125 0.551082 0.109272
O O6 0.882369 0.648989 0.317719
O O7 0.447376 0.944234 0.950002
O O8 0.554385 0.814144 0.930201
O O9 0.500000 0.000000 0.000000
O O10 0.002362 0.191802 0.435707
O O11 0.255794 0.202756 0.164055
O O12 0.026419 0.091981 0.323569
O O13 0.394710 0.593229 0.919926
O O14 0.346505 0.781745 0.000104
O O15 0.250000 0.750000 0.000000
O O16 0.000000 0.978998 0.750000
O O17 0.822613 0.061937 0.846431
#
# Coordination Sequence:
#
# PCOD9271042 Si02
#       8
#     8   4   8   8   8   8   8   8
#     4   9  20  40  60  92 124 159 212 260 324 387
#     4  10  20  36  56  90 124 162 208 250 314 392
#     4  11  23  40  62  94 128 169 219 261 317 395
#     4  10  23  40  69  91 127 172 216 272 329 387
#     4  10  20  38  59  91 129 167 206 259 330 393
#     4  12  23  41  62  91 132 169 216 269 323 398
#     4  11  22  37  61  91 132 173 206 258 328 389
#     4  10  21  43  62  91 129 170 210 273 327 376
#
# _framework density 19.874057000000001
#
# number of rings (size 3 to 8) (size 9 to 14) (size 15 to 20)
#    0.000    1.600    2.667    4.000    2.800    2.133 
#   12.000    0.667    0.000    0.000    0.000    0.000 
#    0.000    0.000    0.000    0.000    0.000    0.000 
#
# Total GULP energy -167044.197364 kJ/mol
# GULP energy per Si atom -5568.139912 kJ/mol
# Density = 1.982882 g / cm^3
# Si number density = 19.874057 Si / 1000 Ang^3
#
#
#
# Elastic Constant Matrix: (Units=GPa)
#
#
# Indices 1 2 3 4 5 6 
#
# 1 97.8822 40.8157 30.5053 -0.0009 -25.5674 -0.0001
# 2 40.8157 76.6892 20.2672 0.0173 4.2291 -0.0052
# 3 30.5053 20.2672 117.9881 0.0093 -14.0530 -0.0058
# 4 -0.0009 0.0173 0.0093 33.3443 -0.0013 -0.9555
# 5 -25.5674 4.2291 -14.0530 -0.0013 25.8011 0.0008
# 6 -0.0001 -0.0052 -0.0058 -0.9555 0.0008 23.7150
#
#
#
# Elastic Compliance Matrix: (Units=1/GPa)
#
#
# Indices 1 2 3 4 5 6 
#
# 1 0.021837 -0.012732 -0.000677 0.000008 0.023358 -0.000003
# 2 -0.012732 0.021432 -0.002471 -0.000011 -0.017475 0.000004
# 3 -0.000677 -0.002471 0.009671 -0.000001 0.005001 0.000002
# 4 0.000008 -0.000011 -0.000001 0.030025 0.000011 0.001210
# 5 0.023358 -0.017475 0.005001 0.000011 0.067493 -0.000004
# 6 -0.000003 0.000004 0.000002 0.001210 -0.000004 0.042216
#
#
# Mechanical properties :
#
#
# Convention : Reuss Voigt Hill
#
# Bulk Modulus (GPa) = 47.21214 52.85953 50.03583
# Shear Modulus (GPa) = 21.59881 29.97017 25.78449
#
# Velocity S-wave (km/s) = 3.30022 3.88752 3.60584
# Velocity P-wave (km/s) = 6.19105 6.84144 6.52436
#
# Compressibility (1/GPa) = 0.02118099
#
# Stress axis : x y z
#
# Youngs Moduli (GPa) = 45.79286 46.65824 103.40555
#
# Poissons Ratio (x) = 0.59403 0.07001
# Poissons Ratio (y) = 0.58301 0.25554
# Poissons Ratio (z) = 0.03100 0.11530
#
# Static dielectric constant tensor:
#      x y z
#    x 1.745180 0.000000 -0.032880 
#    y 0.000000 1.754380 -0.000010 
#    z -0.032880 -0.000010 1.717120 
# 
# From -- ./inp_files/302341.got.cif
#   From: 2010.05.17/outbox.cif.g08.bks.cpg/sg15_152_cif.got.tgz:302341.got - 2010.06.03 18:47:42.
