data_PCOD9271320
_publ_section_title
;
Structure prediction by ZEFSAII (Michael W. Deem and Ramdas Pophale) SiO2 
 PCOD9271320
Probable space group: C 2/C
;
_chemical_formula_sum "Si O2"
_cell_formula_units_Z 60
_cell_length_a 14.160123
_cell_length_b 15.659841
_cell_length_c 24.466382
_cell_angle_alpha 90.000000
_cell_angle_beta 147.730498
_cell_angle_gamma 90.000000
_cell_volume 2896.582868
_symmetry_space_group_name_H-M "C 2/C"
_symmetry_group_IT_number 15
_symmetry_cell_setting 'monoclinic'
loop_
_space_group_symop_operation_xyz
x,y,z
-x,y,1/2-z
-x,-y,-z
x,-y,1/2+z
1/2+x,1/2+y,z
1/2-x,1/2+y,1/2-z
1/2-x,1/2-y,-z
1/2+x,1/2-y,1/2+z
loop_
_atom_site_type_symbol
_atom_site_label
_atom_site_fract_x
_atom_site_fract_y
_atom_site_fract_z
Si Si1 0.174661 0.138291 0.369834
Si Si2 0.530452 0.583388 0.637288
Si Si3 0.187450 0.060449 0.869815
Si Si4 0.047772 0.894304 0.638291
Si Si5 0.114844 0.726968 0.195719
Si Si6 0.616137 0.384688 0.552943
Si Si7 0.528993 0.803705 0.994400
Si Si8 0.500000 0.139479 0.250000
O O1 0.343006 0.192790 0.435146
O O2 0.000000 0.163211 0.250000
O O3 0.113734 0.134921 0.402918
O O4 0.217089 0.039740 0.375732
O O5 0.351604 0.581263 0.585769
O O6 0.610504 0.489309 0.688239
O O7 0.632429 0.670107 0.702843
O O8 0.481433 0.590048 0.549851
O O9 0.000000 0.082464 0.750000
O O10 0.350380 0.116583 0.931042
O O11 0.202150 0.824818 0.718437
O O12 0.008908 0.904610 0.555260
O O13 0.009636 0.701082 0.089304
O O14 0.019215 0.695367 0.204109
O O15 0.631321 0.282077 0.559172
O O16 0.818929 0.414993 0.657006
#
# Coordination Sequence:
#
# PCOD9271320 Si02
#       8
#     8   8   8   8   8   8   8   4
#     4  10  20  39  57  83 119 161 198 247 296 354
#     4  10  21  38  60  89 122 158 197 250 309 353
#     4  10  22  34  58  91 122 150 196 252 316 358
#     4  10  21  39  62  84 120 164 201 247 293 360
#     4  10  21  36  59  89 118 156 196 243 308 354
#     4  10  22  36  60  87 119 162 198 246 297 360
#     4  11  21  36  59  88 120 156 198 247 302 361
#     4  10  20  36  58  90 126 148 200 254 302 362
#
# _framework density 20.714062999999999
#
# number of rings (size 3 to 8) (size 9 to 14) (size 15 to 20)
#    0.000    1.867    1.333    2.400    5.600    2.667 
#    0.000    0.000    0.000   12.800    0.000    0.000 
#    0.000    0.000    0.000    0.000    0.000    0.000 
#
# Total GULP energy -167460.075261 kJ/mol
# GULP energy per Si atom -5582.002509 kJ/mol
# Density = 2.066692 g / cm^3
# Si number density = 20.714063 Si / 1000 Ang^3
#
#
#
# Elastic Constant Matrix: (Units=GPa)
#
#
# Indices 1 2 3 4 5 6 
#
# 1 124.1733 2.1773 24.5942 0.0000 -8.3737 0.0000
# 2 2.1773 52.7988 10.6846 -0.0001 12.0716 0.0000
# 3 24.5942 10.6846 41.6506 -0.0002 7.3575 -0.0001
# 4 0.0000 -0.0001 -0.0002 16.3358 -0.0001 4.9226
# 5 -8.3737 12.0716 7.3575 -0.0001 34.2708 -0.0001
# 6 0.0000 0.0000 -0.0001 4.9226 -0.0001 24.3003
#
#
#
# Elastic Compliance Matrix: (Units=1/GPa)
#
#
# Indices 1 2 3 4 5 6 
#
# 1 0.009547 0.000041 -0.006296 0.000000 0.003670 0.000000
# 2 0.000041 0.021317 -0.004333 0.000000 -0.006568 0.000000
# 3 -0.006296 -0.004333 0.029978 0.000000 -0.006448 0.000000
# 4 0.000000 0.000000 0.000000 0.065195 0.000000 -0.013207
# 5 0.003670 -0.006568 -0.006448 0.000000 0.033774 0.000000
# 6 0.000000 0.000000 0.000000 -0.013207 0.000000 0.043827
#
#
# Mechanical properties :
#
#
# Convention : Reuss Voigt Hill
#
# Bulk Modulus (GPa) = 25.21022 32.61498 28.91260
# Shear Modulus (GPa) = 21.00536 27.05915 24.03226
#
# Velocity S-wave (km/s) = 3.18789 3.61822 3.40985
# Velocity P-wave (km/s) = 5.07417 5.76497 5.43057
#
# Compressibility (1/GPa) = 0.03966646
#
# Stress axis : x y z
#
# Youngs Moduli (GPa) = 104.74392 46.91173 33.35822
#
# Poissons Ratio (x) = -0.00194 0.21003
# Poissons Ratio (y) = -0.00434 0.14452
# Poissons Ratio (z) = 0.65950 0.20325
#
# Static dielectric constant tensor:
#      x y z
#    x 1.777190 0.000000 -0.048520 
#    y 0.000000 1.753080 0.000000 
#    z -0.048520 0.000000 1.740160 
# 
# From -- ./inp_files/296716.got.cif
#   From: 2010.05.17/outbox.cif.g08.bks.cpg/sg15_149_cif.got.tgz:296716.got - 2010.06.03 18:47:42.
