data_PCOD9271943
_publ_section_title
;
Structure prediction by ZEFSAII (Michael W. Deem and Ramdas Pophale) SiO2 
 PCOD9271943
Probable space group: C 2/C
;
_chemical_formula_sum "Si O2"
_cell_formula_units_Z 60
_cell_length_a 12.283962
_cell_length_b 11.085879
_cell_length_c 20.962376
_cell_angle_alpha 90.000000
_cell_angle_beta 114.135467
_cell_angle_gamma 90.000000
_cell_volume 2605.077461
_symmetry_space_group_name_H-M "C 2/C"
_symmetry_group_IT_number 15
_symmetry_cell_setting 'monoclinic'
loop_
_space_group_symop_operation_xyz
x,y,z
-x,y,1/2-z
-x,-y,-z
x,-y,1/2+z
1/2+x,1/2+y,z
1/2-x,1/2+y,1/2-z
1/2-x,1/2-y,-z
1/2+x,1/2-y,1/2+z
loop_
_atom_site_type_symbol
_atom_site_label
_atom_site_fract_x
_atom_site_fract_y
_atom_site_fract_z
Si Si1 0.500000 0.092003 0.750000
Si Si2 0.067257 0.899070 0.881766
Si Si3 0.021214 0.163389 0.866171
Si Si4 0.521862 0.309594 0.000362
Si Si5 0.339271 0.255195 0.783692
Si Si6 0.289109 0.817205 0.411643
Si Si7 0.608056 0.112342 0.193258
Si Si8 0.163079 0.587938 0.062229
O O1 0.472610 0.994735 0.798821
O O2 0.381082 0.174917 0.732614
O O3 0.201682 0.867111 0.897505
O O4 0.064952 0.904342 0.958457
O O5 0.966678 0.807400 0.836246
O O6 0.034178 0.028111 0.844865
O O7 0.156266 0.211239 0.902127
O O8 0.948235 0.256721 0.807122
O O9 0.961573 0.157960 0.922043
O O10 0.383268 0.282442 0.955403
O O11 0.591010 0.183093 0.002568
O O12 0.293145 0.180241 0.834682
O O13 0.245074 0.363240 0.747924
O O14 0.326938 0.946281 0.450903
O O15 0.604100 0.093636 0.117049
#
# Coordination Sequence:
#
# PCOD9271943 Si02
#       8
#     4   8   8   8   8   8   8   8
#     4  12  24  44  66  92 132 164 228 264 324 394
#     4  10  22  39  63  91 129 166 211 263 327 387
#     4  10  22  39  63  91 129 166 211 263 327 387
#     4  10  20  36  62  92 124 165 213 256 322 392
#     4  11  24  41  64  93 126 169 219 271 325 387
#     4  10  20  38  59  88 126 163 208 262 321 381
#     4  11  24  41  64  93 126 169 219 271 325 387
#     4  10  20  38  59  88 126 163 208 262 321 381
#
# _framework density 23.031945
#
# number of rings (size 3 to 8) (size 9 to 14) (size 15 to 20)
#    0.000    1.600    1.333    3.200    1.867    0.000 
#    0.000    3.333   14.667    0.000    0.000    0.000 
#    0.000    0.000    0.000    0.000    0.000    0.000 
#
# Total GULP energy -167341.752488 kJ/mol
# GULP energy per Si atom -5578.058416 kJ/mol
# Density = 2.297952 g / cm^3
# Si number density = 23.031945 Si / 1000 Ang^3
#
#
#
# Elastic Constant Matrix: (Units=GPa)
#
#
# Indices 1 2 3 4 5 6 
#
# 1 78.1742 12.6540 7.6204 0.0000 -6.0967 0.0000
# 2 12.6540 16.8529 3.1813 0.0000 3.3113 0.0000
# 3 7.6204 3.1813 26.4894 0.0000 -8.8405 0.0000
# 4 0.0000 0.0000 0.0000 18.2552 0.0000 -4.4199
# 5 -6.0967 3.3113 -8.8405 0.0000 28.0688 0.0000
# 6 0.0000 0.0000 0.0000 -4.4199 0.0000 33.0873
#
#
#
# Elastic Compliance Matrix: (Units=1/GPa)
#
#
# Indices 1 2 3 4 5 6 
#
# 1 0.015207 -0.011962 -0.001525 0.000000 0.004234 0.000000
# 2 -0.011962 0.073066 -0.010144 0.000000 -0.014413 0.000000
# 3 -0.001525 -0.010144 0.044359 0.000000 0.014837 0.000000
# 4 0.000000 0.000000 0.000000 0.056610 0.000000 0.007562
# 5 0.004234 -0.014413 0.014837 0.000000 0.042920 0.000000
# 6 0.000000 0.000000 0.000000 0.007562 0.000000 0.031233
#
#
# Mechanical properties :
#
#
# Convention : Reuss Voigt Hill
#
# Bulk Modulus (GPa) = 11.71371 18.71419 15.21395
# Shear Modulus (GPa) = 14.74431 22.41964 18.58198
#
# Velocity S-wave (km/s) = 2.53290 3.12334 2.84349
# Velocity P-wave (km/s) = 3.69473 4.59891 4.17139
#
# Compressibility (1/GPa) = 0.08537005
#
# Stress axis : x y z
#
# Youngs Moduli (GPa) = 65.75856 13.68634 22.54310
#
# Poissons Ratio (x) = 0.16372 0.03438
# Poissons Ratio (y) = 0.78662 0.22867
# Poissons Ratio (z) = 0.10029 0.13883
#
# Static dielectric constant tensor:
#      x y z
#    x 1.858800 0.000000 -0.032660 
#    y 0.000000 1.928400 0.000000 
#    z -0.032660 0.000000 1.896710 
# 
# From -- ./inp_files/111625.got.cif
#   From: 2010.05.17/outbox.cif.g08.bks.cpg/sg15_56_cif.got.tgz:111625.got - 2010.06.03 18:47:42.
