data_PCOD9271450
_publ_section_title
;
Structure prediction by ZEFSAII (Michael W. Deem and Ramdas Pophale) SiO2 
 PCOD9271450
Probable space group: C 2/C
;
_chemical_formula_sum "Si O2"
_cell_formula_units_Z 48
_cell_length_a 7.753493
_cell_length_b 15.949450
_cell_length_c 20.716290
_cell_angle_alpha 90.000000
_cell_angle_beta 63.775952
_cell_angle_gamma 90.000000
_cell_volume 2298.173804
_symmetry_space_group_name_H-M "C 2/C"
_symmetry_group_IT_number 15
_symmetry_cell_setting 'monoclinic'
loop_
_space_group_symop_operation_xyz
x,y,z
-x,y,1/2-z
-x,-y,-z
x,-y,1/2+z
1/2+x,1/2+y,z
1/2-x,1/2+y,1/2-z
1/2-x,1/2-y,-z
1/2+x,1/2-y,1/2+z
loop_
_atom_site_type_symbol
_atom_site_label
_atom_site_fract_x
_atom_site_fract_y
_atom_site_fract_z
Si Si1 0.087207 0.232822 0.831283
Si Si2 0.225003 0.164957 0.406212
Si Si3 0.790126 0.011864 0.565653
Si Si4 0.227248 0.565886 0.719740
Si Si5 0.673375 0.312306 0.460481
Si Si6 0.682050 0.617925 0.265619
O O1 0.155107 0.149504 0.781792
O O2 0.184617 0.220893 0.885600
O O3 0.161508 0.315533 0.783569
O O4 0.864028 0.255308 0.878944
O O5 0.149926 0.141107 0.346520
O O6 0.050140 0.178593 0.483747
O O7 0.318784 0.076802 0.416047
O O8 0.811207 0.039094 0.636397
O O9 0.716011 0.098855 0.548559
O O10 0.000000 0.000000 0.500000
O O11 0.250822 0.478769 0.754202
O O12 0.000000 0.584952 0.750000
O O13 0.750000 0.250000 0.500000
O O14 0.500000 0.630758 0.250000
#
# Coordination Sequence:
#
# PCOD9271450 Si02
#       6
#     8   8   8   8   8   8
#     4  11  22  38  60  87 120 162 203 249 307 370
#     4  10  20  38  59  82 117 160 199 243 304 372
#     4   8  17  35  58  80 112 154 192 237 296 357
#     4  10  21  38  59  85 118 158 202 253 308 365
#     4  10  20  36  59  88 119 155 200 251 302 361
#     4  11  22  37  58  86 117 153 200 255 310 369
#
# _framework density 20.886149
#
# number of rings (size 3 to 8) (size 9 to 14) (size 15 to 20)
#    0.000    2.000    0.000    4.500    0.000    2.667 
#    0.000    2.500    0.000    0.000    0.000    0.000 
#    0.000    0.000    0.000    0.000    0.000    0.000 
#
# Total GULP energy -133657.330977 kJ/mol
# GULP energy per Si atom -5569.055457 kJ/mol
# Density = 2.083861 g / cm^3
# Si number density = 20.886149 Si / 1000 Ang^3
#
#
#
# Elastic Constant Matrix: (Units=GPa)
#
#
# Indices 1 2 3 4 5 6 
#
# 1 40.4985 15.7727 3.6829 0.0000 5.4391 0.0000
# 2 15.7727 141.9653 26.0746 0.0000 -1.1214 0.0000
# 3 3.6829 26.0746 84.3446 0.0000 -0.0182 0.0000
# 4 0.0000 0.0000 0.0000 33.0063 0.0000 -3.9887
# 5 5.4391 -1.1214 -0.0182 0.0000 27.1908 0.0000
# 6 0.0000 0.0000 0.0000 -3.9887 0.0000 22.1436
#
#
#
# Elastic Compliance Matrix: (Units=1/GPa)
#
#
# Indices 1 2 3 4 5 6 
#
# 1 0.026596 -0.002952 -0.000250 0.000000 -0.005442 0.000000
# 2 -0.002952 0.007798 -0.002282 0.000000 0.000911 0.000000
# 3 -0.000250 -0.002282 0.012572 0.000000 -0.000036 0.000000
# 4 0.000000 0.000000 0.000000 0.030971 0.000000 0.005579
# 5 -0.005442 0.000911 -0.000036 0.000000 0.037903 0.000000
# 6 0.000000 0.000000 0.000000 0.005579 0.000000 0.046165
#
#
# Mechanical properties :
#
#
# Convention : Reuss Voigt Hill
#
# Bulk Modulus (GPa) = 27.77844 39.76320 33.77082
# Shear Modulus (GPa) = 27.03110 31.22003 29.12556
#
# Velocity S-wave (km/s) = 3.60142 3.87042 3.73834
# Velocity P-wave (km/s) = 5.53375 6.24924 5.90235
#
# Compressibility (1/GPa) = 0.03599914
#
# Stress axis : x y z
#
# Youngs Moduli (GPa) = 37.60032 128.23466 79.53937
#
# Poissons Ratio (x) = 0.37854 0.01988
# Poissons Ratio (y) = 0.11099 0.18148
# Poissons Ratio (z) = 0.00940 0.29259
#
# Static dielectric constant tensor:
#      x y z
#    x 1.760730 0.000000 -0.018560 
#    y 0.000000 1.876160 0.000000 
#    z -0.018560 0.000000 1.751870 
# 
# From -- ./inp_files/232473.got.cif
#   From: 2010.05.17/outbox.cif.g08.bks.cpg/sg15_117_cif.got.tgz:232473.got - 2010.06.03 18:47:42.
