data_PCOD9271533
_publ_section_title
;
Structure prediction by ZEFSAII (Michael W. Deem and Ramdas Pophale) SiO2 
 PCOD9271533
Probable space group: C 2/C
;
_chemical_formula_sum "Si O2"
_cell_formula_units_Z 52
_cell_length_a 22.476036
_cell_length_b 14.807289
_cell_length_c 8.724343
_cell_angle_alpha 90.000000
_cell_angle_beta 62.847322
_cell_angle_gamma 90.000000
_cell_volume 2583.552435
_symmetry_space_group_name_H-M "C 2/C"
_symmetry_group_IT_number 15
_symmetry_cell_setting 'monoclinic'
loop_
_space_group_symop_operation_xyz
x,y,z
-x,y,1/2-z
-x,-y,-z
x,-y,1/2+z
1/2+x,1/2+y,z
1/2-x,1/2+y,1/2-z
1/2-x,1/2-y,-z
1/2+x,1/2-y,1/2+z
loop_
_atom_site_type_symbol
_atom_site_label
_atom_site_fract_x
_atom_site_fract_y
_atom_site_fract_z
Si Si1 0.231046 0.104723 0.720427
Si Si2 0.043249 0.571143 0.350962
Si Si3 0.420841 0.413450 0.056127
Si Si4 0.202067 0.545818 0.176801
Si Si5 0.938282 0.284131 0.426230
Si Si6 0.711978 0.206658 0.398727
Si Si7 0.000000 0.948587 0.250000
O O1 0.156258 0.066159 0.823476
O O2 0.263903 0.081275 0.519041
O O3 0.220886 0.211352 0.765261
O O4 0.273617 0.053232 0.800725
O O5 0.121602 0.543577 0.246313
O O6 0.048804 0.666879 0.429201
O O7 0.000000 0.580515 0.250000
O O8 0.000000 0.500000 0.500000
O O9 0.454408 0.397834 0.181959
O O10 0.433095 0.322696 0.947903
O O11 0.453853 0.491149 0.915536
O O12 0.225227 0.614391 0.287554
O O13 0.864468 0.309992 0.458343
O O14 0.000000 0.311689 0.250000
O O15 0.750000 0.250000 0.500000
#
# Coordination Sequence:
#
# PCOD9271533 Si02
#       7
#     8   8   8   8   8   8   4
#     4  11  22  39  62  87 125 159 203 251 308 366
#     4  11  24  41  64  90 120 156 204 254 311 369
#     4  10  21  38  58  89 119 160 200 244 298 357
#     4  11  23  41  64  91 125 161 206 255 312 370
#     4  10  22  41  60  88 123 157 202 253 304 368
#     4  10  23  41  61  91 122 162 208 255 306 371
#     4  10  20  36  60  82 124 152 204 244 290 354
#
# _framework density 20.127326
#
# number of rings (size 3 to 8) (size 9 to 14) (size 15 to 20)
#    0.000    1.538    0.769    3.692    1.077    6.154 
#    2.769    0.000    0.000    0.000    0.000    0.000 
#    0.000    0.000    0.000    0.000    0.000    0.000 
#
# Total GULP energy -144980.452099 kJ/mol
# GULP energy per Si atom -5576.171235 kJ/mol
# Density = 2.008152 g / cm^3
# Si number density = 20.127326 Si / 1000 Ang^3
#
#
#
# Elastic Constant Matrix: (Units=GPa)
#
#
# Indices 1 2 3 4 5 6 
#
# 1 121.4781 7.6161 51.4694 0.0000 -6.2780 0.0000
# 2 7.6161 44.6265 0.6611 0.0000 -17.6405 0.0000
# 3 51.4694 0.6611 98.2940 0.0000 -19.1494 0.0000
# 4 0.0000 0.0000 0.0000 22.7747 0.0000 9.6052
# 5 -6.2780 -17.6405 -19.1494 0.0000 35.5223 0.0000
# 6 0.0000 0.0000 0.0000 9.6052 0.0000 15.3427
#
#
#
# Elastic Compliance Matrix: (Units=1/GPa)
#
#
# Indices 1 2 3 4 5 6 
#
# 1 0.010918 -0.002914 -0.006261 0.000000 -0.002893 0.000000
# 2 -0.002914 0.029369 0.004547 0.000000 0.016521 0.000000
# 3 -0.006261 0.004547 0.015247 0.000000 0.009371 0.000000
# 4 0.000000 0.000000 0.000000 0.059661 0.000000 -0.037350
# 5 -0.002893 0.016521 0.009371 0.000000 0.040896 0.000000
# 6 0.000000 0.000000 0.000000 -0.037350 0.000000 0.088560
#
#
# Mechanical properties :
#
#
# Convention : Reuss Voigt Hill
#
# Bulk Modulus (GPa) = 21.60877 42.65466 32.13171
# Shear Modulus (GPa) = 18.56444 28.37142 23.46793
#
# Velocity S-wave (km/s) = 3.04032 3.75853 3.41834
# Velocity P-wave (km/s) = 4.80459 6.33039 5.61951
#
# Compressibility (1/GPa) = 0.04627751
#
# Stress axis : x y z
#
# Youngs Moduli (GPa) = 91.59366 34.04990 65.58716
#
# Poissons Ratio (x) = 0.09922 0.41063
# Poissons Ratio (y) = 0.26690 -0.29821
# Poissons Ratio (z) = 0.57345 -0.15482
#
# Static dielectric constant tensor:
#      x y z
#    x 1.739180 0.000000 -0.013000 
#    y 0.000000 1.723940 0.000000 
#    z -0.013000 0.000000 1.659100 
# 
# From -- ./inp_files/61443.got.cif
#   From: 2010.05.17/outbox.cif.g08.bks.cpg/sg15_31_cif.got.tgz:61443.got - 2010.06.03 18:47:42.
