data_PCOD9271096
_publ_section_title
;
Structure prediction by ZEFSAII (Michael W. Deem and Ramdas Pophale) SiO2 
 PCOD9271096
Probable space group: C 2/C
;
_chemical_formula_sum "Si O2"
_cell_formula_units_Z 48
_cell_length_a 7.833166
_cell_length_b 14.066761
_cell_length_c 19.703648
_cell_angle_alpha 90.000000
_cell_angle_beta 105.419537
_cell_angle_gamma 90.000000
_cell_volume 2092.942391
_symmetry_space_group_name_H-M "C 2/C"
_symmetry_group_IT_number 15
_symmetry_cell_setting 'monoclinic'
loop_
_space_group_symop_operation_xyz
x,y,z
-x,y,1/2-z
-x,-y,-z
x,-y,1/2+z
1/2+x,1/2+y,z
1/2-x,1/2+y,1/2-z
1/2-x,1/2-y,-z
1/2+x,1/2-y,1/2+z
loop_
_atom_site_type_symbol
_atom_site_label
_atom_site_fract_x
_atom_site_fract_y
_atom_site_fract_z
Si Si1 0.702441 0.418112 0.291101
Si Si2 0.516430 0.233536 0.676021
Si Si3 0.721237 0.954510 0.348929
Si Si4 0.426347 0.921820 0.547222
Si Si5 0.782470 0.163256 0.053454
Si Si6 0.128386 0.040327 0.931577
O O1 0.500000 0.404642 0.250000
O O2 0.783559 0.470132 0.233387
O O3 0.713793 0.468452 0.364958
O O4 0.794857 0.316107 0.311289
O O5 0.500000 0.271718 0.750000
O O6 0.383106 0.144248 0.652933
O O7 0.448478 0.311177 0.617870
O O8 0.629283 0.032144 0.387266
O O9 0.924388 0.941150 0.393682
O O10 0.591825 0.850888 0.569788
O O11 0.500000 0.000000 0.500000
O O12 0.246191 0.888442 0.489494
O O13 0.842701 0.061893 0.029703
O O14 0.750000 0.250000 0.000000
#
# Coordination Sequence:
#
# PCOD9271096 Si02
#       6
#     8   8   8   8   8   8
#     4   9  19  37  63  87 113 155 204 250 298 359
#     4  10  20  36  57  83 118 155 189 238 302 356
#     4  10  20  37  60  85 113 154 203 248 294 354
#     4  10  20  36  59  85 116 157 202 242 286 355
#     4  11  22  37  57  85 120 156 191 241 303 355
#     4  10  20  37  61  87 116 155 204 249 291 355
#
# _framework density 22.93422
#
# number of rings (size 3 to 8) (size 9 to 14) (size 15 to 20)
#    0.000    2.000    0.000    5.500    0.000    2.000 
#    0.000    8.333    0.000    4.000    0.000    2.333 
#    0.000    0.000    0.000    0.000    0.000    0.000 
#
# Total GULP energy -133961.754381 kJ/mol
# GULP energy per Si atom -5581.739766 kJ/mol
# Density = 2.288202 g / cm^3
# Si number density = 22.934220 Si / 1000 Ang^3
#
#
#
# Elastic Constant Matrix: (Units=GPa)
#
#
# Indices 1 2 3 4 5 6 
#
# 1 93.9516 5.6004 36.8060 0.0000 2.5458 0.0000
# 2 5.6004 21.0774 24.2472 0.0000 -0.4981 0.0000
# 3 36.8060 24.2472 136.7900 0.0000 -9.2039 0.0000
# 4 0.0000 0.0000 0.0000 38.0326 0.0000 9.5773
# 5 2.5458 -0.4981 -9.2039 0.0000 47.3343 0.0000
# 6 0.0000 0.0000 0.0000 9.5773 0.0000 19.8153
#
#
#
# Elastic Compliance Matrix: (Units=1/GPa)
#
#
# Indices 1 2 3 4 5 6 
#
# 1 0.011984 0.000748 -0.003445 0.000000 -0.001307 0.000000
# 2 0.000748 0.059741 -0.010894 0.000000 -0.001530 0.000000
# 3 -0.003445 -0.010894 0.010308 0.000000 0.002075 0.000000
# 4 0.000000 0.000000 0.000000 0.029937 0.000000 -0.014469
# 5 -0.001307 -0.001530 0.002075 0.000000 0.021584 0.000000
# 6 0.000000 0.000000 0.000000 -0.014469 0.000000 0.057460
#
#
# Mechanical properties :
#
#
# Convention : Reuss Voigt Hill
#
# Bulk Modulus (GPa) = 18.23092 42.79178 30.51135
# Shear Modulus (GPa) = 21.14344 33.38079 27.26212
#
# Velocity S-wave (km/s) = 3.03960 3.81924 3.45151
# Velocity P-wave (km/s) = 4.50393 6.17639 5.40524
#
# Compressibility (1/GPa) = 0.05485187
#
# Stress axis : x y z
#
# Youngs Moduli (GPa) = 83.44299 16.73882 97.01109
#
# Poissons Ratio (x) = -0.01252 0.33421
# Poissons Ratio (y) = -0.06242 1.05683
# Poissons Ratio (z) = 0.28747 0.18235
#
# Static dielectric constant tensor:
#      x y z
#    x 2.027210 0.000000 0.221930 
#    y 0.000000 1.855790 0.000000 
#    z 0.221930 0.000000 2.675700 
# 
# From -- ./inp_files/231367.got.cif
#   From: 2010.05.17/outbox.cif.g08.bks.cpg/sg15_116_cif.got.tgz:231367.got - 2010.06.03 18:47:42.
