data_PCOD9271678
_publ_section_title
;
Structure prediction by ZEFSAII (Michael W. Deem and Ramdas Pophale) SiO2 
 PCOD9271678
Probable space group: C 2/C
;
_chemical_formula_sum "Si O2"
_cell_formula_units_Z 44
_cell_length_a 23.644782
_cell_length_b 11.675800
_cell_length_c 8.480171
_cell_angle_alpha 90.000000
_cell_angle_beta 116.192289
_cell_angle_gamma 90.000000
_cell_volume 2100.742611
_symmetry_space_group_name_H-M "C 2/C"
_symmetry_group_IT_number 15
_symmetry_cell_setting 'monoclinic'
loop_
_space_group_symop_operation_xyz
x,y,z
-x,y,1/2-z
-x,-y,-z
x,-y,1/2+z
1/2+x,1/2+y,z
1/2-x,1/2+y,1/2-z
1/2-x,1/2-y,-z
1/2+x,1/2-y,1/2+z
loop_
_atom_site_type_symbol
_atom_site_label
_atom_site_fract_x
_atom_site_fract_y
_atom_site_fract_z
Si Si1 0.072919 0.532797 0.054626
Si Si2 0.910441 0.277450 0.388293
Si Si3 0.500000 0.164757 0.750000
Si Si4 0.139741 0.283113 0.852494
Si Si5 0.267352 0.596643 0.491335
Si Si6 0.286982 0.653300 0.142781
O O1 0.107704 0.412978 0.116035
O O2 0.102967 0.635321 0.188510
O O3 0.060746 0.586578 0.867616
O O4 0.000000 0.500000 0.000000
O O5 0.975320 0.267485 0.371333
O O6 0.908490 0.246700 0.569784
O O7 0.857874 0.201336 0.240837
O O8 0.200516 0.360444 0.976762
O O9 0.176914 0.167637 0.853259
O O10 0.267703 0.629119 0.303706
O O11 0.278034 0.464372 0.537895
O O12 0.250000 0.750000 0.000000
#
# Coordination Sequence:
#
# PCOD9271678 Si02
#       6
#     8   8   4   8   8   8
#     4  10  20  36  60  92 127 167 218 273 328 384
#     4  10  21  38  58  91 125 167 213 268 330 385
#     4  10  22  34  60  96 124 168 216 272 324 382
#     4  10  22  39  61  88 133 168 213 275 330 400
#     4  10  25  40  62  97 126 176 220 266 345 397
#     4  11  25  41  65  93 133 172 217 275 335 405
#
# _framework density 20.944973999999998
#
# number of rings (size 3 to 8) (size 9 to 14) (size 15 to 20)
#    0.000    1.818    0.000    3.273   12.727    2.182 
#    0.000    0.000    0.000   17.455    0.000    1.273 
#    0.000    0.000    0.000    0.000    0.000    0.000 
#
# Total GULP energy -122493.359128 kJ/mol
# GULP energy per Si atom -5567.879960 kJ/mol
# Density = 2.089730 g / cm^3
# Si number density = 20.944974 Si / 1000 Ang^3
#
#
#
# Elastic Constant Matrix: (Units=GPa)
#
#
# Indices 1 2 3 4 5 6 
#
# 1 106.7253 26.2064 20.6861 0.0000 -16.4665 0.0000
# 2 26.2064 145.0632 34.2065 0.0000 15.2341 0.0000
# 3 20.6861 34.2065 57.8076 0.0000 4.1412 0.0000
# 4 0.0000 0.0000 0.0000 39.1091 0.0000 8.6330
# 5 -16.4665 15.2341 4.1412 0.0000 15.7418 0.0000
# 6 0.0000 0.0000 0.0000 8.6330 0.0000 23.9456
#
#
#
# Elastic Compliance Matrix: (Units=1/GPa)
#
#
# Indices 1 2 3 4 5 6 
#
# 1 0.014046 -0.003544 -0.004309 0.000000 0.019256 0.000000
# 2 -0.003544 0.009647 -0.003574 0.000000 -0.012103 0.000000
# 3 -0.004309 -0.003574 0.021434 0.000000 -0.006688 0.000000
# 4 0.000000 0.000000 0.000000 0.027780 0.000000 -0.010016
# 5 0.019256 -0.012103 -0.006688 0.000000 0.097139 0.000000
# 6 0.000000 0.000000 0.000000 -0.010016 0.000000 0.045372
#
#
# Mechanical properties :
#
#
# Convention : Reuss Voigt Hill
#
# Bulk Modulus (GPa) = 44.89194 52.42158 48.65676
# Shear Modulus (GPa) = 20.35026 30.99243 25.67135
#
# Velocity S-wave (km/s) = 3.12044 3.85087 3.50474
# Velocity P-wave (km/s) = 5.87049 6.69738 6.29752
#
# Compressibility (1/GPa) = 0.02227571
#
# Stress axis : x y z
#
# Youngs Moduli (GPa) = 71.19428 103.65495 46.65409
#
# Poissons Ratio (x) = 0.36731 0.20103
# Poissons Ratio (y) = 0.25228 0.16672
# Poissons Ratio (z) = 0.30677 0.37042
#
# Static dielectric constant tensor:
#      x y z
#    x 1.830750 0.000000 -0.057030 
#    y 0.000000 1.789220 0.000000 
#    z -0.057030 0.000000 1.863540 
# 
# From -- ./inp_files/54380.got.cif
#   From: 2010.05.17/outbox.cif.g08.bks.cpg/sg15_28_cif.got.tgz:54380.got - 2010.06.03 18:47:42.
