data_PCOD9271034
_publ_section_title
;
Structure prediction by ZEFSAII (Michael W. Deem and Ramdas Pophale) SiO2 
 PCOD9271034
Probable space group: C 2/C
;
_chemical_formula_sum "Si O2"
_cell_formula_units_Z 52
_cell_length_a 5.236339
_cell_length_b 23.750037
_cell_length_c 20.092742
_cell_angle_alpha 90.000000
_cell_angle_beta 77.573007
_cell_angle_gamma 90.000000
_cell_volume 2440.254255
_symmetry_space_group_name_H-M "C 2/C"
_symmetry_group_IT_number 15
_symmetry_cell_setting 'monoclinic'
loop_
_space_group_symop_operation_xyz
x,y,z
-x,y,1/2-z
-x,-y,-z
x,-y,1/2+z
1/2+x,1/2+y,z
1/2-x,1/2+y,1/2-z
1/2-x,1/2-y,-z
1/2+x,1/2-y,1/2+z
loop_
_atom_site_type_symbol
_atom_site_label
_atom_site_fract_x
_atom_site_fract_y
_atom_site_fract_z
Si Si1 0.910821 0.886662 0.629375
Si Si2 0.250206 0.458988 0.517618
Si Si3 0.637489 0.687463 0.010522
Si Si4 0.689542 0.143642 0.940195
Si Si5 0.186713 0.484744 0.858636
Si Si6 0.000000 0.594105 0.250000
Si Si7 0.718180 0.890540 0.295190
O O1 0.763379 0.908231 0.571737
O O2 0.739526 0.872156 0.703684
O O3 0.060082 0.833443 0.589225
O O4 0.070979 0.944197 0.636328
O O5 0.500000 0.500000 0.500000
O O6 0.273472 0.420123 0.451679
O O7 0.996931 0.488754 0.565024
O O8 0.750000 0.750000 0.000000
O O9 0.398345 0.680593 0.970769
O O10 0.888055 0.649073 0.978903
O O11 0.683736 0.149547 0.861146
O O12 0.223626 0.544976 0.822157
O O13 0.066604 0.446876 0.806717
O O14 0.500000 0.885593 0.250000
O O15 0.000000 0.878458 0.250000
#
# Coordination Sequence:
#
# PCOD9271034 Si02
#       7
#     8   8   8   8   8   4   8
#     4  10  21  36  60  93 130 171 218 277 338 402
#     4  10  22  34  59  96 134 171 216 273 327 400
#     4  11  24  46  73 101 125 169 229 297 359 401
#     4  11  24  44  68  98 133 173 223 285 339 403
#     4  11  21  36  58  92 136 180 222 254 322 400
#     4  10  20  36  56  88 138 172 218 264 328 390
#     4  12  26  40  62  95 137 188 218 250 317 404
#
# _framework density 21.309256999999999
#
# number of rings (size 3 to 8) (size 9 to 14) (size 15 to 20)
#    0.000    1.231    2.308    3.692    8.615    1.231 
#    0.000    0.000    1.692    1.846    0.000    0.000 
#    0.000    0.000    0.000    0.000    0.000    0.000 
#
# Total GULP energy -144805.214990 kJ/mol
# GULP energy per Si atom -5569.431346 kJ/mol
# Density = 2.126076 g / cm^3
# Si number density = 21.309257 Si / 1000 Ang^3
#
#
#
# Elastic Constant Matrix: (Units=GPa)
#
#
# Indices 1 2 3 4 5 6 
#
# 1 84.4628 2.2357 61.7553 0.0000 -6.1464 0.0000
# 2 2.2357 46.4214 10.6120 0.0000 -5.9277 0.0000
# 3 61.7553 10.6120 175.6038 0.0000 -21.2936 0.0000
# 4 0.0000 0.0000 0.0000 11.4208 0.0000 2.2304
# 5 -6.1464 -5.9277 -21.2936 0.0000 53.1297 0.0000
# 6 0.0000 0.0000 0.0000 2.2304 0.0000 27.2335
#
#
#
# Elastic Compliance Matrix: (Units=1/GPa)
#
#
# Indices 1 2 3 4 5 6 
#
# 1 0.015957 0.000483 -0.005687 0.000000 -0.000379 0.000000
# 2 0.000483 0.022063 -0.001259 0.000000 0.002013 0.000000
# 3 -0.005687 -0.001259 0.008066 0.000000 0.002434 0.000000
# 4 0.000000 0.000000 0.000000 0.088983 0.000000 -0.007288
# 5 -0.000379 0.002013 0.002434 0.000000 0.019978 0.000000
# 6 0.000000 0.000000 0.000000 -0.007288 0.000000 0.037316
#
#
# Mechanical properties :
#
#
# Convention : Reuss Voigt Hill
#
# Bulk Modulus (GPa) = 30.15637 50.63266 40.39451
# Shear Modulus (GPa) = 23.11143 33.81580 28.46362
#
# Velocity S-wave (km/s) = 3.29686 3.98792 3.65874
# Velocity P-wave (km/s) = 5.35489 6.70948 6.07009
#
# Compressibility (1/GPa) = 0.03316049
#
# Stress axis : x y z
#
# Youngs Moduli (GPa) = 62.66793 45.32395 123.97957
#
# Poissons Ratio (x) = -0.02190 0.70506
# Poissons Ratio (y) = -0.03027 0.15611
# Poissons Ratio (z) = 0.35639 0.05707
#
# Static dielectric constant tensor:
#      x y z
#    x 1.933830 0.000000 -0.102350 
#    y 0.000000 1.841450 0.000000 
#    z -0.102350 0.000000 1.514880 
# 
# From -- ./inp_files/185805.got.cif
#   From: 2010.05.17/outbox.cif.g08.bks.cpg/sg15_93_cif.got.tgz:185805.got - 2010.06.03 18:47:42.
