data_PCOD9271164
_publ_section_title
;
Structure prediction by ZEFSAII (Michael W. Deem and Ramdas Pophale) SiO2 
 PCOD9271164
Probable space group: C 2/C
;
_chemical_formula_sum "Si O2"
_cell_formula_units_Z 44
_cell_length_a 32.721925
_cell_length_b 12.345301
_cell_length_c 10.174220
_cell_angle_alpha 90.000000
_cell_angle_beta 33.289058
_cell_angle_gamma 90.000000
_cell_volume 2255.826833
_symmetry_space_group_name_H-M "C 2/C"
_symmetry_group_IT_number 15
_symmetry_cell_setting 'monoclinic'
loop_
_space_group_symop_operation_xyz
x,y,z
-x,y,1/2-z
-x,-y,-z
x,-y,1/2+z
1/2+x,1/2+y,z
1/2-x,1/2+y,1/2-z
1/2-x,1/2-y,-z
1/2+x,1/2-y,1/2+z
loop_
_atom_site_type_symbol
_atom_site_label
_atom_site_fract_x
_atom_site_fract_y
_atom_site_fract_z
Si Si1 0.842128 0.223578 0.606433
Si Si2 0.408515 0.046459 0.187253
Si Si3 0.500000 0.204927 0.750000
Si Si4 0.260094 0.835619 0.358033
Si Si5 0.237293 0.581443 0.050931
Si Si6 0.576871 0.872353 0.575109
O O1 0.931143 0.230341 0.370815
O O2 0.803023 0.184804 0.579533
O O3 0.807270 0.342900 0.726841
O O4 0.810150 0.145218 0.807347
O O5 0.321079 0.076807 0.413204
O O6 0.433190 0.046623 0.272403
O O7 0.458211 0.133432 0.973778
O O8 0.410188 0.938903 0.093913
O O9 0.250000 0.750000 0.500000
O O10 0.252419 0.960752 0.424095
O O11 0.347367 0.814192 0.089133
O O12 0.500000 0.811233 0.750000
#
# Coordination Sequence:
#
# PCOD9271164 Si02
#       6
#     8   8   4   8   8   8
#     4  10  21  42  62  89 122 164 207 255 309 371
#     4  10  20  36  57  92 119 161 198 261 316 372
#     4  10  22  34  64  84 122 164 218 248 310 368
#     4  11  25  38  64  94 124 163 205 261 309 377
#     4   9  21  40  63  86 121 162 207 249 315 368
#     4  11  22  35  59  90 128 154 200 260 327 363
#
# _framework density 19.505043000000001
#
# number of rings (size 3 to 8) (size 9 to 14) (size 15 to 20)
#    0.000    1.818    2.727    0.545    5.091    2.909 
#    0.000    0.909    2.000    0.000    0.000    0.000 
#    0.000    0.000    0.000    0.000    0.000    0.000 
#
# Total GULP energy -122581.195570 kJ/mol
# GULP energy per Si atom -5571.872526 kJ/mol
# Density = 1.946065 g / cm^3
# Si number density = 19.505043 Si / 1000 Ang^3
#
#
#
# Elastic Constant Matrix: (Units=GPa)
#
#
# Indices 1 2 3 4 5 6 
#
# 1 122.1756 35.7367 29.8671 0.0000 -34.8375 0.0000
# 2 35.7367 92.4813 16.7036 0.0000 -11.1498 0.0000
# 3 29.8671 16.7036 61.4066 0.0000 -31.2352 0.0000
# 4 0.0000 0.0000 0.0000 21.2549 0.0000 -1.9870
# 5 -34.8375 -11.1498 -31.2352 0.0000 44.2916 0.0000
# 6 0.0000 0.0000 0.0000 -1.9870 0.0000 23.0199
#
#
#
# Elastic Compliance Matrix: (Units=1/GPa)
#
#
# Indices 1 2 3 4 5 6 
#
# 1 0.011563 -0.003399 -0.000793 0.000000 0.007680 0.000000
# 2 -0.003399 0.012403 -0.002327 0.000000 -0.001192 0.000000
# 3 -0.000793 -0.002327 0.026023 0.000000 0.017143 0.000000
# 4 0.000000 0.000000 0.000000 0.047431 0.000000 0.004094
# 5 0.007680 -0.001192 0.017143 0.000000 0.040408 0.000000
# 6 0.000000 0.000000 0.000000 0.004094 0.000000 0.043794
#
#
# Mechanical properties :
#
#
# Convention : Reuss Voigt Hill
#
# Bulk Modulus (GPa) = 27.06266 48.96428 38.01347
# Shear Modulus (GPa) = 24.15732 30.63034 27.39383
#
# Velocity S-wave (km/s) = 3.52307 3.96710 3.75166
# Velocity P-wave (km/s) = 5.51853 6.79277 6.18854
#
# Compressibility (1/GPa) = 0.03695129
#
# Stress axis : x y z
#
# Youngs Moduli (GPa) = 86.48372 80.62565 38.42694
#
# Poissons Ratio (x) = 0.27405 0.03047
# Poissons Ratio (y) = 0.29396 0.08942
# Poissons Ratio (z) = 0.06857 0.18762
#
# Static dielectric constant tensor:
#      x y z
#    x 1.720950 0.000000 -0.011850 
#    y 0.000000 1.690400 0.000000 
#    z -0.011850 0.000000 1.787560 
# 
# From -- ./inp_files/69662.got.cif
#   From: 2010.05.17/outbox.cif.g08.bks.cpg/sg15_35_cif.got.tgz:69662.got - 2010.06.03 18:47:42.
