data_PCOD9271660
_publ_section_title
;
Structure prediction by ZEFSAII (Michael W. Deem and Ramdas Pophale) SiO2 
 PCOD9271660
Probable space group: C 2/C
;
_chemical_formula_sum "Si O2"
_cell_formula_units_Z 48
_cell_length_a 15.283353
_cell_length_b 11.654532
_cell_length_c 19.023355
_cell_angle_alpha 90.000000
_cell_angle_beta 35.275876
_cell_angle_gamma 90.000000
_cell_volume 1956.874932
_symmetry_space_group_name_H-M "C 2/C"
_symmetry_group_IT_number 15
_symmetry_cell_setting 'monoclinic'
loop_
_space_group_symop_operation_xyz
x,y,z
-x,y,1/2-z
-x,-y,-z
x,-y,1/2+z
1/2+x,1/2+y,z
1/2-x,1/2+y,1/2-z
1/2-x,1/2-y,-z
1/2+x,1/2-y,1/2+z
loop_
_atom_site_type_symbol
_atom_site_label
_atom_site_fract_x
_atom_site_fract_y
_atom_site_fract_z
Si Si1 0.105491 0.489588 0.501094
Si Si2 0.740407 0.287131 0.731175
Si Si3 0.085591 0.261455 0.020293
Si Si4 0.098660 0.011091 0.750679
Si Si5 0.109369 0.997633 0.497300
Si Si6 0.599132 0.128256 0.246873
O O1 0.159684 0.617056 0.489822
O O2 0.258200 0.425459 0.377872
O O3 0.000000 0.500000 0.500000
O O4 0.011790 0.435568 0.625509
O O5 0.868896 0.251148 0.592044
O O6 0.681128 0.412192 0.743853
O O7 0.807552 0.290417 0.763851
O O8 0.585224 0.217512 0.840641
O O9 0.126938 0.132740 0.015361
O O10 0.000000 0.966098 0.750000
O O11 0.980503 0.065801 0.882868
O O12 0.273157 0.045248 0.370072
O O13 0.000000 0.000000 0.500000
O O14 0.500000 0.180427 0.250000
#
# Coordination Sequence:
#
# PCOD9271660 Si02
#       6
#     8   8   8   8   8   8
#     4  11  20  40  63  90 122 163 201 250 308 362
#     4  10  21  40  59  90 122 161 206 253 302 368
#     4  10  20  38  68  86 120 162 204 248 312 360
#     4  10  20  36  60  91 122 156 200 247 303 368
#     4  11  20  40  63  90 122 163 201 250 308 362
#     4  12  23  40  63  91 128 167 204 252 307 364
#
# _framework density 24.528905999999999
#
# number of rings (size 3 to 8) (size 9 to 14) (size 15 to 20)
#    0.000    1.333    6.667    2.000    0.000    0.000 
#    0.000   28.333    0.000    0.000    0.000    0.000 
#    0.000    0.000    0.000    0.000    0.000    0.000 
#
# Total GULP energy -133875.218019 kJ/mol
# GULP energy per Si atom -5578.134084 kJ/mol
# Density = 2.447308 g / cm^3
# Si number density = 24.528906 Si / 1000 Ang^3
#
#
#
# Elastic Constant Matrix: (Units=GPa)
#
#
# Indices 1 2 3 4 5 6 
#
# 1 132.6451 -14.1114 10.6956 0.0000 7.3728 0.0000
# 2 -14.1114 47.3024 12.6646 0.0000 -4.6689 0.0000
# 3 10.6956 12.6646 192.6648 -0.0001 1.8446 0.0001
# 4 0.0000 0.0000 -0.0001 33.2332 0.0001 2.8637
# 5 7.3728 -4.6689 1.8446 0.0001 24.7603 -0.0001
# 6 0.0000 0.0000 0.0001 2.8637 -0.0001 1.3926
#
#
#
# Elastic Compliance Matrix: (Units=1/GPa)
#
#
# Indices 1 2 3 4 5 6 
#
# 1 0.007939 0.002337 -0.000576 0.000000 -0.001880 0.000000
# 2 0.002337 0.022645 -0.001654 0.000000 0.003697 0.000000
# 3 -0.000576 -0.001654 0.005336 0.000000 -0.000538 -0.000001
# 4 0.000000 0.000000 0.000000 0.036571 0.000000 -0.075201
# 5 -0.001880 0.003697 -0.000538 0.000000 0.041684 0.000003
# 6 0.000000 0.000000 -0.000001 -0.075201 0.000003 0.872702
#
#
# Mechanical properties :
#
#
# Convention : Reuss Voigt Hill
#
# Bulk Modulus (GPa) = 27.67473 43.45666 35.56570
# Shear Modulus (GPa) = 5.00647 36.10146 20.55396
#
# Velocity S-wave (km/s) = 1.43020 3.84056 2.89787
# Velocity P-wave (km/s) = 3.74624 6.11731 5.07227
#
# Compressibility (1/GPa) = 0.03613404
#
# Stress axis : x y z
#
# Youngs Moduli (GPa) = 125.96819 44.15898 187.39899
#
# Poissons Ratio (x) = -0.10320 0.10800
# Poissons Ratio (y) = -0.29438 0.30990
# Poissons Ratio (z) = 0.07260 0.07303
#
# Static dielectric constant tensor:
#      x y z
#    x 1.942750 0.000000 -0.024790 
#    y 0.000000 2.001080 0.000000 
#    z -0.024790 0.000000 2.017530 
# 
# From -- ./inp_files/205279.got.cif
#   From: 2010.05.17/outbox.cif.g08.bks.cpg/sg15_103_cif.got.tgz:205279.got - 2010.06.03 18:47:42.
