data_PCOD9271677
_publ_section_title
;
Structure prediction by ZEFSAII (Michael W. Deem and Ramdas Pophale) SiO2 
 PCOD9271677
Probable space group: C 2/C
;
_chemical_formula_sum "Si O2"
_cell_formula_units_Z 56
_cell_length_a 14.614109
_cell_length_b 22.633214
_cell_length_c 9.241152
_cell_angle_alpha 90.000000
_cell_angle_beta 59.090537
_cell_angle_gamma 90.000000
_cell_volume 2622.538600
_symmetry_space_group_name_H-M "C 2/C"
_symmetry_group_IT_number 15
_symmetry_cell_setting 'monoclinic'
loop_
_space_group_symop_operation_xyz
x,y,z
-x,y,1/2-z
-x,-y,-z
x,-y,1/2+z
1/2+x,1/2+y,z
1/2-x,1/2+y,1/2-z
1/2-x,1/2-y,-z
1/2+x,1/2-y,1/2+z
loop_
_atom_site_type_symbol
_atom_site_label
_atom_site_fract_x
_atom_site_fract_y
_atom_site_fract_z
Si Si1 0.812982 0.658988 0.915835
Si Si2 0.873480 0.125898 0.865122
Si Si3 0.293221 0.126215 0.256283
Si Si4 0.086435 0.218563 0.078416
Si Si5 0.117748 0.520604 0.152554
Si Si6 0.206698 0.566950 0.788636
Si Si7 0.095971 0.254495 0.763422
O O1 0.882077 0.717583 0.882435
O O2 0.847778 0.622311 0.747735
O O3 0.802951 0.622781 0.074614
O O4 0.693610 0.681413 0.981636
O O5 0.810898 0.090400 0.789295
O O6 0.857987 0.196110 0.849086
O O7 0.000000 0.114550 0.750000
O O8 0.816449 0.112983 0.066211
O O9 0.377330 0.081826 0.261569
O O10 0.321547 0.194572 0.265410
O O11 0.000000 0.189098 0.250000
O O12 0.044751 0.229988 0.952755
O O13 0.207316 0.480153 0.157178
O O14 0.000000 0.493099 0.250000
O O15 0.141705 0.535980 0.968233
O O16 0.000000 0.280883 0.750000
#
# Coordination Sequence:
#
# PCOD9271677 Si02
#       7
#     8   8   8   8   8   8   8
#     4  10  22  38  57  88 126 165 205 256 315 371
#     4  10  22  39  61  93 123 170 218 258 315 379
#     4  10  22  38  60  90 130 165 206 266 316 375
#     4  10  22  36  56  89 124 166 209 251 311 382
#     4  11  24  42  67  97 123 164 214 260 325 377
#     4  11  23  43  66  90 132 162 212 268 315 374
#     4  10  20  36  60  92 127 166 209 255 321 381
#
# _framework density 21.353356000000002
#
# number of rings (size 3 to 8) (size 9 to 14) (size 15 to 20)
#    0.000    1.714    1.429    2.143    4.000    5.143 
#    0.000    2.857    0.000    4.286    0.000    0.000 
#    0.000    0.000    0.000    0.000    0.000    0.000 
#
# Total GULP energy -156205.263883 kJ/mol
# GULP energy per Si atom -5578.759424 kJ/mol
# Density = 2.130475 g / cm^3
# Si number density = 21.353356 Si / 1000 Ang^3
#
#
#
# Elastic Constant Matrix: (Units=GPa)
#
#
# Indices 1 2 3 4 5 6 
#
# 1 67.1012 3.1390 32.9829 0.0000 5.9699 0.0000
# 2 3.1390 52.1184 -1.0176 0.0000 5.6382 0.0000
# 3 32.9829 -1.0176 67.6859 0.0000 16.2122 0.0000
# 4 0.0000 0.0000 0.0000 15.8370 0.0000 12.3479
# 5 5.9699 5.6382 16.2122 0.0000 33.7169 0.0000
# 6 0.0000 0.0000 0.0000 12.3479 0.0000 21.3345
#
#
#
# Elastic Compliance Matrix: (Units=1/GPa)
#
#
# Indices 1 2 3 4 5 6 
#
# 1 0.019768 -0.001558 -0.010036 0.000000 0.001586 0.000000
# 2 -0.001558 0.019752 0.002013 0.000000 -0.003995 0.000000
# 3 -0.010036 0.002013 0.021868 0.000000 -0.009075 0.000000
# 4 0.000000 0.000000 0.000000 0.115071 0.000000 -0.066601
# 5 0.001586 -0.003995 -0.009075 0.000000 0.034409 0.000000
# 6 0.000000 0.000000 0.000000 -0.066601 0.000000 0.085419
#
#
# Mechanical properties :
#
#
# Convention : Reuss Voigt Hill
#
# Bulk Modulus (GPa) = 23.68172 28.56822 26.12497
# Shear Modulus (GPa) = 15.17330 24.29775 19.73552
#
# Velocity S-wave (km/s) = 2.66857 3.37692 3.04342
# Velocity P-wave (km/s) = 4.53976 5.34908 4.96095
#
# Compressibility (1/GPa) = 0.04222665
#
# Stress axis : x y z
#
# Youngs Moduli (GPa) = 50.58748 50.62669 45.72796
#
# Poissons Ratio (x) = 0.07888 0.45893
# Poissons Ratio (y) = 0.07882 -0.09206
# Poissons Ratio (z) = 0.50770 -0.10192
#
# Static dielectric constant tensor:
#      x y z
#    x 1.777180 0.000000 0.022040 
#    y 0.000000 1.801090 0.000000 
#    z 0.022040 0.000000 1.799590 
# 
# From -- ./inp_files/42269.got.cif
#   From: 2010.05.17/outbox.cif.g08.bks.cpg/sg15_22_cif.got.tgz:42269.got - 2010.06.03 18:47:42.
