data_PCOD9271229
_publ_section_title
;
Structure prediction by ZEFSAII (Michael W. Deem and Ramdas Pophale) SiO2 
 PCOD9271229
Probable space group: C 2/C
;
_chemical_formula_sum "Si O2"
_cell_formula_units_Z 48
_cell_length_a 22.591252
_cell_length_b 12.262099
_cell_length_c 8.346529
_cell_angle_alpha 90.000000
_cell_angle_beta 118.518610
_cell_angle_gamma 90.000000
_cell_volume 2031.575235
_symmetry_space_group_name_H-M "C 2/C"
_symmetry_group_IT_number 15
_symmetry_cell_setting 'monoclinic'
loop_
_space_group_symop_operation_xyz
x,y,z
-x,y,1/2-z
-x,-y,-z
x,-y,1/2+z
1/2+x,1/2+y,z
1/2-x,1/2+y,1/2-z
1/2-x,1/2-y,-z
1/2+x,1/2-y,1/2+z
loop_
_atom_site_type_symbol
_atom_site_label
_atom_site_fract_x
_atom_site_fract_y
_atom_site_fract_z
Si Si1 0.142354 0.122251 0.357044
Si Si2 0.065867 0.660367 0.761941
Si Si3 0.691578 0.342715 0.243172
Si Si4 0.612361 0.040047 0.536344
Si Si5 0.700166 0.104491 0.375305
Si Si6 0.076135 0.023875 0.551936
O O1 0.122494 0.248375 0.321406
O O2 0.200672 0.122945 0.568075
O O3 0.085495 0.050210 0.376632
O O4 0.131696 0.069553 0.169806
O O5 0.060888 0.603398 0.583168
O O6 0.000000 0.715707 0.750000
O O7 0.082443 0.564342 0.907739
O O8 0.707789 0.216043 0.287068
O O9 0.733309 0.408782 0.430184
O O10 0.612268 0.367049 0.169084
O O11 0.671605 0.990662 0.725840
O O12 0.643482 0.116602 0.440450
O O13 0.000000 0.000000 0.500000
#
# Coordination Sequence:
#
# PCOD9271229 Si02
#       6
#     8   8   8   8   8   8
#     4  10  22  37  57  87 118 155 197 243 308 356
#     4  11  21  40  60  86 119 153 193 250 307 365
#     4   9  22  37  61  81 126 161 198 250 307 353
#     4  10  22  37  62  88 114 154 204 247 303 359
#     4  10  20  40  59  88 121 159 204 255 297 372
#     4  10  20  36  58  84 114 156 199 242 297 359
#
# _framework density 23.626988000000001
#
# number of rings (size 3 to 8) (size 9 to 14) (size 15 to 20)
#    1.000    1.000    1.667    2.000    2.333    1.333 
#    0.000    2.500    0.000    0.000    0.000    0.000 
#    0.000    0.000    0.000    0.000    0.000    0.000 
#
# Total GULP energy -133659.114766 kJ/mol
# GULP energy per Si atom -5569.129782 kJ/mol
# Density = 2.357321 g / cm^3
# Si number density = 23.626988 Si / 1000 Ang^3
#
#
#
# Elastic Constant Matrix: (Units=GPa)
#
#
# Indices 1 2 3 4 5 6 
#
# 1 25.9650 -4.3772 -0.4290 0.0000 0.6082 0.0000
# 2 -4.3772 45.1014 16.9959 0.0000 -16.2401 0.0000
# 3 -0.4290 16.9959 83.8296 0.0000 -6.4307 0.0000
# 4 0.0000 0.0000 0.0000 41.3027 0.0000 -3.5053
# 5 0.6082 -16.2401 -6.4307 0.0000 30.4955 0.0000
# 6 0.0000 0.0000 0.0000 -3.5053 0.0000 21.0800
#
#
#
# Elastic Compliance Matrix: (Units=1/GPa)
#
#
# Indices 1 2 3 4 5 6 
#
# 1 0.039241 0.004591 -0.000612 0.000000 0.001533 0.000000
# 2 0.004591 0.029760 -0.004880 0.000000 0.014728 0.000000
# 3 -0.000612 -0.004880 0.012926 0.000000 0.000139 0.000000
# 4 0.000000 0.000000 0.000000 0.024558 0.000000 0.004084
# 5 0.001533 0.014728 0.000139 0.000000 0.040634 0.000000
# 6 0.000000 0.000000 0.000000 0.004084 0.000000 0.048118
#
#
# Mechanical properties :
#
#
# Convention : Reuss Voigt Hill
#
# Bulk Modulus (GPa) = 12.48057 19.91948 16.20002
# Shear Modulus (GPa) = 22.34658 28.08939 25.21799
#
# Velocity S-wave (km/s) = 3.07873 3.45174 3.27056
# Velocity P-wave (km/s) = 4.23461 4.93306 4.59712
#
# Compressibility (1/GPa) = 0.08012458
#
# Stress axis : x y z
#
# Youngs Moduli (GPa) = 25.48333 33.60190 77.36374
#
# Poissons Ratio (x) = -0.15428 0.04738
# Poissons Ratio (y) = -0.11700 0.37757
# Poissons Ratio (z) = 0.01561 0.16399
#
# Static dielectric constant tensor:
#      x y z
#    x 1.966580 0.000000 -0.000650 
#    y 0.000000 1.893020 0.000000 
#    z -0.000650 0.000000 1.990000 
# 
# From -- ./inp_files/65230.got.cif
#   From: 2010.05.17/outbox.cif.g08.bks.cpg/sg15_33_cif.got.tgz:65230.got - 2010.06.03 18:47:42.
