data_PCOD9271723
_publ_section_title
;
Structure prediction by ZEFSAII (Michael W. Deem and Ramdas Pophale) SiO2 
 PCOD9271723
Probable space group: C 2/C
;
_chemical_formula_sum "Si O2"
_cell_formula_units_Z 56
_cell_length_a 30.833929
_cell_length_b 17.572592
_cell_length_c 9.586674
_cell_angle_alpha 90.000000
_cell_angle_beta 26.956144
_cell_angle_gamma 90.000000
_cell_volume 2354.650118
_symmetry_space_group_name_H-M "C 2/C"
_symmetry_group_IT_number 15
_symmetry_cell_setting 'monoclinic'
loop_
_space_group_symop_operation_xyz
x,y,z
-x,y,1/2-z
-x,-y,-z
x,-y,1/2+z
1/2+x,1/2+y,z
1/2-x,1/2+y,1/2-z
1/2-x,1/2-y,-z
1/2+x,1/2-y,1/2+z
loop_
_atom_site_type_symbol
_atom_site_label
_atom_site_fract_x
_atom_site_fract_y
_atom_site_fract_z
Si Si1 0.620973 0.315622 0.851514
Si Si2 0.723071 0.425378 0.932650
Si Si3 0.500000 0.981769 0.250000
Si Si4 0.325473 0.842458 0.389088
Si Si5 0.351636 0.070223 0.560949
Si Si6 0.972065 0.140248 0.602688
Si Si7 0.000000 0.235928 0.250000
Si Si8 0.151674 0.641275 0.212761
O O1 0.620359 0.237302 0.766396
O O2 0.730142 0.333154 0.568462
O O3 0.576308 0.308236 0.134940
O O4 0.566470 0.381062 0.920895
O O5 0.790250 0.377851 0.632784
O O6 0.762772 0.511279 0.817377
O O7 0.746639 0.381176 0.009265
O O8 0.613450 0.415992 0.197370
O O9 0.416485 0.928145 0.549921
O O10 0.446406 0.020895 0.273736
O O11 0.378563 0.900852 0.138816
O O12 0.340509 0.135610 0.477052
O O13 0.007162 0.183328 0.365370
O O14 0.905834 0.287148 0.557622
#
# Coordination Sequence:
#
# PCOD9271723 Si02
#       8
#     8   8   4   8   8   8   4   8
#     4   9  20  39  59  83 109 150 205 255 296 338
#     4  10  21  37  55  81 117 158 193 233 292 362
#     4   9  20  34  52  80 114 149 190 238 290 355
#     4  10  20  36  61  84 111 150 201 254 298 351
#     4  11  21  36  59  85 115 154 196 244 298 359
#     4  10  21  37  57  81 116 152 194 243 294 356
#     4  11  22  34  54  86 116 149 186 248 316 355
#     4  10  21  35  54  83 119 151 190 240 303 362
#
# _framework density 23.782726
#
# number of rings (size 3 to 8) (size 9 to 14) (size 15 to 20)
#    0.000    2.000    0.000    3.857    0.000    6.286 
#    0.000    0.714    0.000    3.429    0.000    0.000 
#    0.000    0.000    0.000    0.000    0.000    0.000 
#
# Total GULP energy -156039.778816 kJ/mol
# GULP energy per Si atom -5572.849243 kJ/mol
# Density = 2.372860 g / cm^3
# Si number density = 23.782726 Si / 1000 Ang^3
#
#
#
# Elastic Constant Matrix: (Units=GPa)
#
#
# Indices 1 2 3 4 5 6 
#
# 1 109.1559 12.1034 30.0024 0.0000 -5.5432 0.0000
# 2 12.1034 41.3810 7.5157 0.0000 -1.8779 0.0000
# 3 30.0024 7.5157 59.0172 0.0000 -4.8477 0.0000
# 4 0.0000 0.0000 0.0000 3.7902 0.0000 0.5879
# 5 -5.5432 -1.8779 -4.8477 0.0000 50.1302 0.0000
# 6 0.0000 0.0000 0.0000 0.5879 0.0000 15.2756
#
#
#
# Elastic Compliance Matrix: (Units=1/GPa)
#
#
# Indices 1 2 3 4 5 6 
#
# 1 0.010864 -0.002207 -0.005191 0.000000 0.000617 0.000000
# 2 -0.002207 0.025206 -0.002047 0.000000 0.000502 0.000000
# 3 -0.005191 -0.002047 0.019949 0.000000 0.001278 0.000000
# 4 0.000000 0.000000 0.000000 0.265425 0.000000 -0.010216
# 5 0.000617 0.000502 0.001278 0.000000 0.020159 0.000000
# 6 0.000000 0.000000 0.000000 -0.010216 0.000000 0.065857
#
#
# Mechanical properties :
#
#
# Convention : Reuss Voigt Hill
#
# Bulk Modulus (GPa) = 26.93308 34.31081 30.62194
# Shear Modulus (GPa) = 11.39665 24.50137 17.94901
#
# Velocity S-wave (km/s) = 2.19144 3.21318 2.75017
# Velocity P-wave (km/s) = 4.21336 5.31264 4.79461
#
# Compressibility (1/GPa) = 0.03712906
#
# Stress axis : x y z
#
# Youngs Moduli (GPa) = 92.04646 39.67363 50.12795
#
# Poissons Ratio (x) = 0.08755 0.26023
# Poissons Ratio (y) = 0.20313 0.10260
# Poissons Ratio (z) = 0.47784 0.08120
#
# Static dielectric constant tensor:
#      x y z
#    x 1.952280 0.000000 0.022260 
#    y 0.000000 2.074890 0.000000 
#    z 0.022260 0.000000 1.863300 
# 
# From -- ./inp_files/70848.got.cif
#   From: 2010.05.17/outbox.cif.g08.bks.cpg/sg15_36_cif.got.tgz:70848.got - 2010.06.03 18:47:42.
