data_PCOD9271061
_publ_section_title
;
Structure prediction by ZEFSAII (Michael W. Deem and Ramdas Pophale) SiO2 
 PCOD9271061
Probable space group: C 2/C
;
_chemical_formula_sum "Si O2"
_cell_formula_units_Z 48
_cell_length_a 17.065358
_cell_length_b 15.674292
_cell_length_c 17.590122
_cell_angle_alpha 90.000000
_cell_angle_beta 154.063552
_cell_angle_gamma 90.000000
_cell_volume 2057.903916
_symmetry_space_group_name_H-M "C 2/C"
_symmetry_group_IT_number 15
_symmetry_cell_setting 'monoclinic'
loop_
_space_group_symop_operation_xyz
x,y,z
-x,y,1/2-z
-x,-y,-z
x,-y,1/2+z
1/2+x,1/2+y,z
1/2-x,1/2+y,1/2-z
1/2-x,1/2-y,-z
1/2+x,1/2-y,1/2+z
loop_
_atom_site_type_symbol
_atom_site_label
_atom_site_fract_x
_atom_site_fract_y
_atom_site_fract_z
Si Si1 0.752491 0.458764 0.851016
Si Si2 0.151095 0.463127 0.735415
Si Si3 0.181111 0.138406 0.780206
Si Si4 0.279533 0.857868 0.192783
Si Si5 0.007379 0.701953 0.344578
Si Si6 0.665843 0.209427 0.001682
O O1 0.766364 0.438580 0.773833
O O2 0.625902 0.541176 0.748432
O O3 0.721557 0.372143 0.869893
O O4 0.950356 0.497352 0.045938
O O5 0.255551 0.544180 0.860912
O O6 0.129086 0.376737 0.762117
O O7 0.283901 0.138677 0.788518
O O8 0.035764 0.211857 0.648111
O O9 0.308997 0.167781 0.960119
O O10 0.467192 0.828012 0.320498
O O11 0.149248 0.784883 0.049291
O O12 0.000000 0.721765 0.250000
O O13 0.750000 0.250000 0.000000
#
# Coordination Sequence:
#
# PCOD9271061 Si02
#       6
#     8   8   8   8   8   8
#     4   8  16  33  54  75 103 142 178 211 261 317
#     4   8  16  32  55  76  99 139 186 219 247 310
#     4  10  20  37  58  76 104 144 182 218 259 319
#     4  10  20  36  57  79 104 142 183 216 261 320
#     4  11  21  34  54  81 107 134 174 225 271 310
#     4  11  21  34  54  83 114 139 173 223 275 319
#
# _framework density 23.324705000000002
#
# number of rings (size 3 to 8) (size 9 to 14) (size 15 to 20)
#    0.000    2.333    0.000    6.000    0.000    4.000 
#    0.000    3.333    0.000    6.000    0.000    0.000 
#    0.000    0.000    0.000    0.000    0.000    0.000 
#
# Total GULP energy -134010.928629 kJ/mol
# GULP energy per Si atom -5583.788693 kJ/mol
# Density = 2.327162 g / cm^3
# Si number density = 23.324705 Si / 1000 Ang^3
#
#
#
# Elastic Constant Matrix: (Units=GPa)
#
#
# Indices 1 2 3 4 5 6 
#
# 1 88.4852 61.0526 11.5589 -0.0073 -11.8981 -0.0034
# 2 61.0526 194.8719 22.4436 -0.0139 0.9466 -0.0074
# 3 11.5589 22.4436 36.0010 -0.0159 -3.3014 -0.0076
# 4 -0.0073 -0.0139 -0.0159 24.3371 -0.0116 0.4262
# 5 -11.8981 0.9466 -3.3014 -0.0116 10.3465 -0.0038
# 6 -0.0034 -0.0074 -0.0076 0.4262 -0.0038 34.9303
#
#
#
# Elastic Compliance Matrix: (Units=1/GPa)
#
#
# Indices 1 2 3 4 5 6 
#
# 1 0.018192 -0.005770 -0.000285 0.000012 0.021357 0.000003
# 2 -0.005770 0.007386 -0.003526 -0.000004 -0.008436 -0.000001
# 3 -0.000285 -0.003526 0.030972 0.000023 0.009877 0.000007
# 4 0.000012 -0.000004 0.000023 0.041098 0.000067 -0.000501
# 5 0.021357 -0.008436 0.009877 0.000067 0.125134 0.000015
# 6 0.000003 -0.000001 0.000007 -0.000501 0.000015 0.028635
#
#
# Mechanical properties :
#
#
# Convention : Reuss Voigt Hill
#
# Bulk Modulus (GPa) = 26.74648 56.60759 41.67703
# Shear Modulus (GPa) = 17.66523 28.87632 23.27077
#
# Velocity S-wave (km/s) = 2.75501 3.52236 3.16205
# Velocity P-wave (km/s) = 4.64887 6.39255 5.58913
#
# Compressibility (1/GPa) = 0.03738810
#
# Stress axis : x y z
#
# Youngs Moduli (GPa) = 54.97045 135.38351 32.28684
#
# Poissons Ratio (x) = 0.78120 0.00921
# Poissons Ratio (y) = 0.31719 0.11384
# Poissons Ratio (z) = 0.01567 0.47733
#
# Static dielectric constant tensor:
#      x y z
#    x 1.844330 -0.000080 0.070560 
#    y -0.000080 1.672890 0.000000 
#    z 0.070560 0.000000 2.010470 
# 
# From -- ./inp_files/66418.got.cif
#   From: 2010.05.17/outbox.cif.g08.bks.cpg/sg15_34_cif.got.tgz:66418.got - 2010.06.03 18:47:42.
