data_PCOD9271973
_publ_section_title
;
Structure prediction by ZEFSAII (Michael W. Deem and Ramdas Pophale) SiO2 
 PCOD9271973
Probable space group: C 2/C
;
_chemical_formula_sum "Si O2"
_cell_formula_units_Z 48
_cell_length_a 25.440502
_cell_length_b 12.225598
_cell_length_c 20.413353
_cell_angle_alpha 90.000000
_cell_angle_beta 20.244409
_cell_angle_gamma 90.000000
_cell_volume 2196.940249
_symmetry_space_group_name_H-M "C 2/C"
_symmetry_group_IT_number 15
_symmetry_cell_setting 'monoclinic'
loop_
_space_group_symop_operation_xyz
x,y,z
-x,y,1/2-z
-x,-y,-z
x,-y,1/2+z
1/2+x,1/2+y,z
1/2-x,1/2+y,1/2-z
1/2-x,1/2-y,-z
1/2+x,1/2-y,1/2+z
loop_
_atom_site_type_symbol
_atom_site_label
_atom_site_fract_x
_atom_site_fract_y
_atom_site_fract_z
Si Si1 0.868957 0.183105 0.111489
Si Si2 0.634869 0.455743 0.431395
Si Si3 0.469966 0.226476 0.951656
Si Si4 0.668637 0.120976 0.921552
Si Si5 0.862845 0.517844 0.783296
Si Si6 0.681682 0.138424 0.050049
O O1 0.698816 0.175948 0.341288
O O2 0.862787 0.250966 0.051973
O O3 0.963143 0.252784 0.053983
O O4 0.934511 0.065418 0.017436
O O5 0.539362 0.349956 0.565476
O O6 0.730456 0.409531 0.258409
O O7 0.746725 0.489660 0.359067
O O8 0.575323 0.142522 0.788908
O O9 0.513328 0.054383 0.095783
O O10 0.739417 0.107697 0.910239
O O11 0.795396 0.463127 0.927402
O O12 0.500000 0.152785 0.250000
O O13 0.750000 0.250000 0.000000
#
# Coordination Sequence:
#
# PCOD9271973 Si02
#       6
#     8   8   8   8   8   8
#     4  11  21  35  59  95 133 159 215 260 322 371
#     4  11  21  35  62  94 128 163 217 266 312 377
#     4  11  21  36  59  93 132 168 204 266 320 374
#     4  10  20  36  62  95 123 168 207 261 320 381
#     4  11  20  40  63  90 131 171 209 258 332 374
#     4  10  23  41  66  93 128 169 211 262 320 382
#
# _framework density 21.848569000000001
#
# number of rings (size 3 to 8) (size 9 to 14) (size 15 to 20)
#    0.000    1.333    5.000    3.000    0.000    4.000 
#    0.000    1.667    0.000   16.000    0.000   10.500 
#    0.000    0.000    0.000    0.000    0.000    0.000 
#
# Total GULP energy -134028.162993 kJ/mol
# GULP energy per Si atom -5584.506791 kJ/mol
# Density = 2.179884 g / cm^3
# Si number density = 21.848569 Si / 1000 Ang^3
#
#
#
# Elastic Constant Matrix: (Units=GPa)
#
#
# Indices 1 2 3 4 5 6 
#
# 1 153.5403 48.5800 34.9765 0.0003 10.5034 -0.0001
# 2 48.5800 159.2971 16.2647 0.0006 15.5491 -0.0003
# 3 34.9765 16.2647 27.6837 0.0011 -8.1019 -0.0006
# 4 0.0003 0.0006 0.0011 30.2465 -0.0005 -7.7141
# 5 10.5034 15.5491 -8.1019 -0.0005 23.1922 0.0001
# 6 -0.0001 -0.0003 -0.0006 -7.7141 0.0001 41.2857
#
#
#
# Elastic Compliance Matrix: (Units=1/GPa)
#
#
# Indices 1 2 3 4 5 6 
#
# 1 0.011335 -0.000681 -0.017031 0.000000 -0.010627 0.000000
# 2 -0.000681 0.007737 -0.005696 0.000000 -0.006869 0.000000
# 3 -0.017031 -0.005696 0.071691 -0.000002 0.036577 0.000001
# 4 0.000000 0.000000 -0.000002 0.034716 0.000000 0.006487
# 5 -0.010627 -0.006869 0.036577 0.000000 0.065313 0.000000
# 6 0.000000 0.000000 0.000001 0.006487 0.000000 0.025433
#
#
# Mechanical properties :
#
#
# Convention : Reuss Voigt Hill
#
# Bulk Modulus (GPa) = 22.75442 60.01817 41.38629
# Shear Modulus (GPa) = 18.00561 34.99155 26.49858
#
# Velocity S-wave (km/s) = 2.87384 4.00628 3.48635
# Velocity P-wave (km/s) = 4.63133 6.99500 5.93208
#
# Compressibility (1/GPa) = 0.04394751
#
# Stress axis : x y z
#
# Youngs Moduli (GPa) = 88.22298 129.24538 13.94872
#
# Poissons Ratio (x) = 0.08796 0.23756
# Poissons Ratio (y) = 0.06004 0.07946
# Poissons Ratio (z) = 1.50254 0.73622
#
# Static dielectric constant tensor:
#      x y z
#    x 1.794060 0.000000 -0.012390 
#    y 0.000000 1.872660 0.000000 
#    z -0.012390 0.000000 1.848320 
# 
# From -- ./inp_files/257599.got.cif
#   From: 2010.05.17/outbox.cif.g08.bks.cpg/sg15_129_cif.got.tgz:257599.got - 2010.06.03 18:47:42.
