data_PCOD9271569
_publ_section_title
;
Structure prediction by ZEFSAII (Michael W. Deem and Ramdas Pophale) SiO2 
 PCOD9271569
Probable space group: C 2/C
;
_chemical_formula_sum "Si O2"
_cell_formula_units_Z 64
_cell_length_a 14.717577
_cell_length_b 17.114251
_cell_length_c 24.516741
_cell_angle_alpha 90.000000
_cell_angle_beta 28.902545
_cell_angle_gamma 90.000000
_cell_volume 2984.646223
_symmetry_space_group_name_H-M "C 2/C"
_symmetry_group_IT_number 15
_symmetry_cell_setting 'monoclinic'
loop_
_space_group_symop_operation_xyz
x,y,z
-x,y,1/2-z
-x,-y,-z
x,-y,1/2+z
1/2+x,1/2+y,z
1/2-x,1/2+y,1/2-z
1/2-x,1/2-y,-z
1/2+x,1/2-y,1/2+z
loop_
_atom_site_type_symbol
_atom_site_label
_atom_site_fract_x
_atom_site_fract_y
_atom_site_fract_z
Si Si1 0.169173 0.195512 0.698445
Si Si2 0.754102 0.021909 0.684625
Si Si3 0.698799 0.519455 0.655430
Si Si4 0.372678 0.579933 0.511206
Si Si5 0.089589 0.747714 0.463380
Si Si6 0.732631 0.200932 0.734413
Si Si7 0.510706 0.989193 0.910813
Si Si8 0.851898 0.650795 0.970683
O O1 0.150312 0.101732 0.709072
O O2 0.378707 0.215535 0.568240
O O3 0.168965 0.223037 0.760896
O O4 0.000000 0.226493 0.750000
O O5 0.740809 0.036142 0.625875
O O6 0.772186 0.109954 0.698733
O O7 0.590739 0.980671 0.807214
O O8 0.945716 0.973863 0.592952
O O9 0.500000 0.478587 0.750000
O O10 0.829565 0.471757 0.628411
O O11 0.814812 0.541109 0.539241
O O12 0.429550 0.662103 0.508431
O O13 0.275803 0.606321 0.505760
O O14 0.195437 0.745581 0.351202
O O15 0.209586 0.703208 0.446572
O O16 0.507838 0.204004 0.858963
O O17 0.471125 0.081806 0.935811
#
# Coordination Sequence:
#
# PCOD9271569 Si02
#       8
#     8   8   8   8   8   8   8   8
#     4  10  20  38  61  82 114 160 202 241 310 377
#     4   9  19  38  57  91 116 161 196 250 311 363
#     4  10  20  36  60  86 117 158 194 251 309 367
#     4  10  21  35  65  82 123 158 207 249 306 371
#     4  10  20  38  57  84 120 156 203 254 298 369
#     4   9  19  37  62  82 121 155 200 251 309 376
#     4  10  20  36  60  88 123 147 203 252 301 379
#     4  10  20  38  60  92 114 164 200 250 313 377
#
# _framework density 21.443076000000001
#
# number of rings (size 3 to 8) (size 9 to 14) (size 15 to 20)
#    0.000    2.250    3.750    0.375    1.750    5.000 
#    4.500    0.000   19.250    0.000    0.000    0.000 
#    0.000    0.000    0.000    0.000    0.000    0.000 
#
# Total GULP energy -178290.907829 kJ/mol
# GULP energy per Si atom -5571.590870 kJ/mol
# Density = 2.139427 g / cm^3
# Si number density = 21.443076 Si / 1000 Ang^3
#
#
#
# Elastic Constant Matrix: (Units=GPa)
#
#
# Indices 1 2 3 4 5 6 
#
# 1 124.2058 20.6760 58.6185 -0.0006 9.4140 -0.0028
# 2 20.6760 14.5356 10.3648 -0.0012 9.5951 -0.0020
# 3 58.6185 10.3648 93.9048 -0.0005 32.4558 0.0228
# 4 -0.0006 -0.0012 -0.0005 31.7655 0.0015 4.8925
# 5 9.4140 9.5951 32.4558 0.0015 40.3767 -0.0012
# 6 -0.0028 -0.0020 0.0228 4.8925 -0.0012 43.2324
#
#
#
# Elastic Compliance Matrix: (Units=1/GPa)
#
#
# Indices 1 2 3 4 5 6 
#
# 1 0.016305 -0.022062 -0.011411 -0.000002 0.010614 0.000007
# 2 -0.022062 0.112145 0.012223 0.000006 -0.031331 -0.000004
# 3 -0.011411 0.012223 0.022858 0.000004 -0.018618 -0.000013
# 4 -0.000002 0.000006 0.000004 0.032039 -0.000005 -0.003626
# 5 0.010614 -0.031331 -0.018618 -0.000005 0.044703 0.000011
# 6 0.000007 -0.000004 -0.000013 -0.003626 0.000011 0.023541
#
#
# Mechanical properties :
#
#
# Convention : Reuss Voigt Hill
#
# Bulk Modulus (GPa) = 9.19066 45.77387 27.48226
# Shear Modulus (GPa) = 15.13495 32.60739 23.87117
#
# Velocity S-wave (km/s) = 2.65961 3.90378 3.34014
# Velocity P-wave (km/s) = 3.70496 6.45851 5.26494
#
# Compressibility (1/GPa) = 0.10880608
#
# Stress axis : x y z
#
# Youngs Moduli (GPa) = 61.33166 8.91705 43.74808
#
# Poissons Ratio (x) = 0.19673 0.49922
# Poissons Ratio (y) = 1.35310 -0.53471
# Poissons Ratio (z) = 0.69988 -0.10899
#
# Static dielectric constant tensor:
#      x y z
#    x 1.830230 0.000000 0.007620 
#    y 0.000000 1.769760 0.000010 
#    z 0.007620 0.000010 1.817690 
# 
# From -- ./inp_files/274812.got.cif
#   From: 2010.05.17/outbox.cif.g08.bks.cpg/sg15_138_cif.got.tgz:274812.got - 2010.06.03 18:47:42.
