data_PCOD9271807
_publ_section_title
;
Structure prediction by ZEFSAII (Michael W. Deem and Ramdas Pophale) SiO2 
 PCOD9271807
Probable space group: C 2/C
;
_chemical_formula_sum "Si O2"
_cell_formula_units_Z 48
_cell_length_a 16.276002
_cell_length_b 16.664658
_cell_length_c 16.081434
_cell_angle_alpha 90.000000
_cell_angle_beta 32.637648
_cell_angle_gamma 90.000000
_cell_volume 2352.441561
_symmetry_space_group_name_H-M "C 2/C"
_symmetry_group_IT_number 15
_symmetry_cell_setting 'monoclinic'
loop_
_space_group_symop_operation_xyz
x,y,z
-x,y,1/2-z
-x,-y,-z
x,-y,1/2+z
1/2+x,1/2+y,z
1/2-x,1/2+y,1/2-z
1/2-x,1/2-y,-z
1/2+x,1/2-y,1/2+z
loop_
_atom_site_type_symbol
_atom_site_label
_atom_site_fract_x
_atom_site_fract_y
_atom_site_fract_z
Si Si1 0.614048 0.715602 0.222915
Si Si2 0.424791 0.863533 0.417757
Si Si3 0.354991 0.327870 0.431269
Si Si4 0.813378 0.795492 0.652156
Si Si5 0.128029 0.460725 0.576714
Si Si6 0.983874 0.362602 0.978100
O O1 0.500000 0.680356 0.250000
O O2 0.568028 0.809776 0.266392
O O3 0.785187 0.698267 0.047997
O O4 0.608600 0.685491 0.324142
O O5 0.468530 0.892513 0.472425
O O6 0.367541 0.943205 0.421026
O O7 0.500000 0.316089 0.250000
O O8 0.250000 0.250000 0.500000
O O9 0.377170 0.332899 0.512263
O O10 0.277243 0.411104 0.470956
O O11 0.635275 0.818137 0.812747
O O12 0.849788 0.701953 0.606350
O O13 0.000000 0.431897 0.750000
O O14 0.071951 0.430530 0.535444
#
# Coordination Sequence:
#
# PCOD9271807 Si02
#       6
#     8   8   8   8   8   8
#     4  10  21  41  67  88 119 158 214 272 314 378
#     4  10  23  40  65  92 121 163 216 266 326 369
#     4  12  23  38  62  92 134 173 211 253 312 379
#     4  10  20  36  61  94 121 166 210 254 310 378
#     4  12  23  38  61  90 132 171 207 259 317 383
#     4  10  20  37  61  91 128 163 211 257 309 385
#
# _framework density 20.404333000000001
#
# number of rings (size 3 to 8) (size 9 to 14) (size 15 to 20)
#    0.000    1.333    3.333    3.000    0.000    0.667 
#    0.000    0.000    3.667    3.000    0.000    0.000 
#    0.000    0.000    0.000    0.000    0.000    0.000 
#
# Total GULP energy -133813.887571 kJ/mol
# GULP energy per Si atom -5575.578649 kJ/mol
# Density = 2.035789 g / cm^3
# Si number density = 20.404333 Si / 1000 Ang^3
#
#
#
# Elastic Constant Matrix: (Units=GPa)
#
#
# Indices 1 2 3 4 5 6 
#
# 1 121.6507 42.0911 18.9616 -0.0011 17.2399 0.0003
# 2 42.0911 109.7348 48.4967 -0.0008 -9.3843 0.0003
# 3 18.9616 48.4967 92.8702 -0.0018 5.2386 0.0008
# 4 -0.0011 -0.0008 -0.0018 13.8144 0.0005 -0.0230
# 5 17.2399 -9.3843 5.2386 0.0005 27.2398 -0.0001
# 6 0.0003 0.0003 0.0008 -0.0230 -0.0001 32.5865
#
#
#
# Elastic Compliance Matrix: (Units=1/GPa)
#
#
# Indices 1 2 3 4 5 6 
#
# 1 0.011318 -0.005657 0.001170 0.000001 -0.009337 0.000000
# 2 -0.005657 0.015492 -0.007520 -0.000001 0.010364 0.000000
# 3 0.001170 -0.007520 0.014804 0.000002 -0.006178 0.000000
# 4 0.000001 -0.000001 0.000002 0.072388 -0.000003 0.000051
# 5 -0.009337 0.010364 -0.006178 -0.000003 0.047379 0.000000
# 6 0.000000 0.000000 0.000000 0.000051 0.000000 0.030688
#
#
# Mechanical properties :
#
#
# Convention : Reuss Voigt Hill
#
# Bulk Modulus (GPa) = 56.81395 60.37271 58.59333
# Shear Modulus (GPa) = 22.52759 29.04188 25.78474
#
# Velocity S-wave (km/s) = 3.32634 3.77678 3.55870
# Velocity P-wave (km/s) = 6.53125 6.97648 6.75753
#
# Compressibility (1/GPa) = 0.01760131
#
# Stress axis : x y z
#
# Youngs Moduli (GPa) = 88.35149 64.54860 67.54891
#
# Poissons Ratio (x) = 0.36514 -0.07902
# Poissons Ratio (y) = 0.49979 0.50794
# Poissons Ratio (z) = -0.10335 0.48538
#
# Static dielectric constant tensor:
#      x y z
#    x 1.806310 0.000000 0.036450 
#    y 0.000000 1.699110 0.000000 
#    z 0.036450 0.000000 1.757550 
# 
# From -- ./inp_files/56769.got.cif
#   From: 2010.05.17/outbox.cif.g08.bks.cpg/sg15_29_cif.got.tgz:56769.got - 2010.06.03 18:47:42.
