data_PCOD9271503
_publ_section_title
;
Structure prediction by ZEFSAII (Michael W. Deem and Ramdas Pophale) SiO2 
 PCOD9271503
Probable space group: C 2/C
;
_chemical_formula_sum "Si O2"
_cell_formula_units_Z 56
_cell_length_a 9.601393
_cell_length_b 10.553378
_cell_length_c 28.572755
_cell_angle_alpha 90.000000
_cell_angle_beta 58.628744
_cell_angle_gamma 90.000000
_cell_volume 2471.952646
_symmetry_space_group_name_H-M "C 2/C"
_symmetry_group_IT_number 15
_symmetry_cell_setting 'monoclinic'
loop_
_space_group_symop_operation_xyz
x,y,z
-x,y,1/2-z
-x,-y,-z
x,-y,1/2+z
1/2+x,1/2+y,z
1/2-x,1/2+y,1/2-z
1/2-x,1/2-y,-z
1/2+x,1/2-y,1/2+z
loop_
_atom_site_type_symbol
_atom_site_label
_atom_site_fract_x
_atom_site_fract_y
_atom_site_fract_z
Si Si1 0.591112 0.372084 0.783765
Si Si2 0.049308 0.299275 0.499781
Si Si3 0.059053 0.222831 0.881130
Si Si4 0.985215 0.057848 0.395867
Si Si5 0.220167 0.602681 0.092691
Si Si6 0.302255 0.941070 0.485835
Si Si7 0.816072 0.384870 0.268048
O O1 0.500000 0.384587 0.750000
O O2 0.465889 0.378301 0.849205
O O3 0.712519 0.492761 0.769728
O O4 0.673189 0.232851 0.770127
O O5 0.946426 0.253778 0.562843
O O6 0.935636 0.340203 0.477065
O O7 0.177262 0.196513 0.459428
O O8 0.135206 0.427106 0.502504
O O9 0.227251 0.185184 0.827356
O O10 0.957968 0.334309 0.872784
O O11 0.961101 0.091750 0.892420
O O12 0.169878 0.085421 0.380986
O O13 0.864497 0.090405 0.458872
O O14 0.212751 0.470566 0.066084
O O15 0.000000 0.421539 0.250000
#
# Coordination Sequence:
#
# PCOD9271503 Si02
#       7
#     8   8   8   8   8   8   8
#     4  10  25  46  68  96 128 170 219 282 331 385
#     4  10  20  36  62  91 129 170 202 247 312 384
#     4  10  21  41  65  88 131 168 202 265 325 370
#     4  11  22  39  67  91 125 166 213 259 322 380
#     4  11  21  40  59  95 130 164 203 252 316 384
#     4  10  20  36  59  92 129 165 207 249 300 385
#     4  10  24  45  69  98 129 168 223 282 330 387
#
# _framework density 22.654156
#
# number of rings (size 3 to 8) (size 9 to 14) (size 15 to 20)
#    0.000    1.714    2.857    1.286    4.000    5.714 
#    0.000    0.000    0.000    0.000    0.000    0.000 
#    0.000    0.000    0.000    0.000    0.000    0.000 
#
# Total GULP energy -156406.052397 kJ/mol
# GULP energy per Si atom -5585.930443 kJ/mol
# Density = 2.260259 g / cm^3
# Si number density = 22.654156 Si / 1000 Ang^3
#
#
#
# Elastic Constant Matrix: (Units=GPa)
#
#
# Indices 1 2 3 4 5 6 
#
# 1 80.1326 6.1724 -3.5927 0.0000 -0.0658 0.0000
# 2 6.1724 82.2609 -7.1474 0.0000 0.8159 0.0000
# 3 -3.5927 -7.1474 18.1128 0.0000 -6.3597 0.0000
# 4 0.0000 0.0000 0.0000 18.6410 0.0000 3.2319
# 5 -0.0658 0.8159 -6.3597 0.0000 37.6399 0.0000
# 6 0.0000 0.0000 0.0000 3.2319 0.0000 39.5658
#
#
#
# Elastic Compliance Matrix: (Units=1/GPa)
#
#
# Indices 1 2 3 4 5 6 
#
# 1 0.012643 -0.000747 0.002367 0.000000 0.000438 0.000000
# 2 -0.000747 0.012645 0.005044 0.000000 0.000577 0.000000
# 3 0.002367 0.005044 0.061267 0.000000 0.010247 0.000000
# 4 0.000000 0.000000 0.000000 0.054416 0.000000 -0.004445
# 5 0.000438 0.000577 0.010247 0.000000 0.028287 0.000000
# 6 0.000000 0.000000 0.000000 -0.004445 0.000000 0.025637
#
#
# Mechanical properties :
#
#
# Convention : Reuss Voigt Hill
#
# Bulk Modulus (GPa) = 10.01175 19.04122 14.52649
# Shear Modulus (GPa) = 23.27059 31.50760 27.38909
#
# Velocity S-wave (km/s) = 3.20849 3.73340 3.48085
# Velocity P-wave (km/s) = 4.26085 5.19690 4.75198
#
# Compressibility (1/GPa) = 0.09988261
#
# Stress axis : x y z
#
# Youngs Moduli (GPa) = 79.09291 79.08224 16.32193
#
# Poissons Ratio (x) = 0.05911 -0.03863
# Poissons Ratio (y) = 0.05911 -0.08233
# Poissons Ratio (z) = -0.18719 -0.39890
#
# Static dielectric constant tensor:
#      x y z
#    x 1.889900 0.000000 -0.035660 
#    y 0.000000 1.839760 0.000000 
#    z -0.035660 0.000000 1.910420 
# 
# From -- ./inp_files/307391.got.cif
#   From: 2010.05.17/outbox.cif.g08.bks.cpg/sg15_154_cif.got.tgz:307391.got - 2010.06.03 18:47:42.
