data_PCOD9271256
_publ_section_title
;
Structure prediction by ZEFSAII (Michael W. Deem and Ramdas Pophale) SiO2 
 PCOD9271256
Probable space group: C 2/C
;
_chemical_formula_sum "Si O2"
_cell_formula_units_Z 32
_cell_length_a 16.251057
_cell_length_b 7.718018
_cell_length_c 28.506319
_cell_angle_alpha 90.000000
_cell_angle_beta 155.856414
_cell_angle_gamma 90.000000
_cell_volume 1462.440253
_symmetry_space_group_name_H-M "C 2/C"
_symmetry_group_IT_number 15
_symmetry_cell_setting 'monoclinic'
loop_
_space_group_symop_operation_xyz
x,y,z
-x,y,1/2-z
-x,-y,-z
x,-y,1/2+z
1/2+x,1/2+y,z
1/2-x,1/2+y,1/2-z
1/2-x,1/2-y,-z
1/2+x,1/2-y,1/2+z
loop_
_atom_site_type_symbol
_atom_site_label
_atom_site_fract_x
_atom_site_fract_y
_atom_site_fract_z
Si Si1 0.679055 0.565375 0.483070
Si Si2 0.721991 0.261451 0.695922
Si Si3 0.021640 0.399881 0.925667
Si Si4 0.178242 0.121562 0.074501
O O1 0.750000 0.750000 0.500000
O O2 0.447423 0.602117 0.374207
O O3 0.770829 0.488990 0.579454
O O4 0.764737 0.443591 0.487102
O O5 0.896104 0.279977 0.824603
O O6 0.793494 0.318404 0.681224
O O7 0.608486 0.075494 0.634608
O O8 0.073075 0.291493 0.998199
O O9 0.000000 0.000000 0.000000
#
# Coordination Sequence:
#
# PCOD9271256 Si02
#       4
#     8   8   8   8
#     4   9  20  37  58  84 116 150 192 240 286 343
#     4  10  21  37  59  88 118 156 197 241 296 350
#     4  11  21  38  61  85 120 158 194 243 297 348
#     4  10  20  36  58  85 116 152 194 240 288 349
#
# _framework density 21.881235
#
# number of rings (size 3 to 8) (size 9 to 14) (size 15 to 20)
#    0.000    2.000    0.000    4.500    0.000    1.000 
#    0.000    2.500    0.000   19.500    0.000    0.000 
#    0.000    0.000    0.000    0.000    0.000    0.000 
#
# Total GULP energy -89178.851464 kJ/mol
# GULP energy per Si atom -5573.678216 kJ/mol
# Density = 2.183143 g / cm^3
# Si number density = 21.881235 Si / 1000 Ang^3
#
#
#
# Elastic Constant Matrix: (Units=GPa)
#
#
# Indices 1 2 3 4 5 6 
#
# 1 72.7029 37.3401 12.2647 0.0003 -5.9323 0.0002
# 2 37.3401 137.9944 21.1123 0.0000 1.6434 0.0002
# 3 12.2647 21.1123 75.8887 0.0018 -7.7035 0.0005
# 4 0.0003 0.0000 0.0018 29.4817 0.0002 -3.6102
# 5 -5.9323 1.6434 -7.7035 0.0002 24.6045 0.0000
# 6 0.0002 0.0002 0.0005 -3.6102 0.0000 58.6793
#
#
#
# Elastic Compliance Matrix: (Units=1/GPa)
#
#
# Indices 1 2 3 4 5 6 
#
# 1 0.016486 -0.004346 -0.001056 0.000000 0.003935 0.000000
# 2 -0.004346 0.008749 -0.001960 0.000000 -0.002246 0.000000
# 3 -0.001056 -0.001960 0.014336 -0.000001 0.004365 0.000000
# 4 0.000000 0.000000 -0.000001 0.034177 -0.000001 0.002103
# 5 0.003935 -0.002246 0.004365 -0.000001 0.043108 0.000000
# 6 0.000000 0.000000 0.000000 0.002103 0.000000 0.017171
#
#
# Mechanical properties :
#
#
# Convention : Reuss Voigt Hill
#
# Bulk Modulus (GPa) = 40.24481 47.55778 43.90130
# Shear Modulus (GPa) = 31.84028 36.94436 34.39232
#
# Velocity S-wave (km/s) = 3.81877 4.11348 3.96886
# Velocity P-wave (km/s) = 6.15437 6.65902 6.41167
#
# Compressibility (1/GPa) = 0.02484792
#
# Stress axis : x y z
#
# Youngs Moduli (GPa) = 60.65744 114.29487 69.75406
#
# Poissons Ratio (x) = 0.49676 0.07365
# Poissons Ratio (y) = 0.26364 0.13669
# Poissons Ratio (z) = 0.06404 0.22397
#
# Static dielectric constant tensor:
#      x y z
#    x 1.815390 0.000000 -0.004790 
#    y 0.000000 1.848330 0.000000 
#    z -0.004790 0.000000 1.793570 
# 
# From -- ./inp_files/93400.got.cif
#   From: 2010.05.17/outbox.cif.g08.bks.cpg/sg15_47_cif.got.tgz:93400.got - 2010.06.03 18:47:42.
