data_PCOD9271772
_publ_section_title
;
Structure prediction by ZEFSAII (Michael W. Deem and Ramdas Pophale) SiO2 
 PCOD9271772
Probable space group: C 2/C
;
_chemical_formula_sum "Si O2"
_cell_formula_units_Z 44
_cell_length_a 7.273972
_cell_length_b 9.597152
_cell_length_c 30.684012
_cell_angle_alpha 90.000000
_cell_angle_beta 59.569102
_cell_angle_gamma 90.000000
_cell_volume 1846.947871
_symmetry_space_group_name_H-M "C 2/C"
_symmetry_group_IT_number 15
_symmetry_cell_setting 'monoclinic'
loop_
_space_group_symop_operation_xyz
x,y,z
-x,y,1/2-z
-x,-y,-z
x,-y,1/2+z
1/2+x,1/2+y,z
1/2-x,1/2+y,1/2-z
1/2-x,1/2-y,-z
1/2+x,1/2-y,1/2+z
loop_
_atom_site_type_symbol
_atom_site_label
_atom_site_fract_x
_atom_site_fract_y
_atom_site_fract_z
Si Si1 0.014654 0.271567 0.296541
Si Si2 0.101403 0.015015 0.660630
Si Si3 0.189800 0.597110 0.023897
Si Si4 0.687151 0.602196 0.062798
Si Si5 0.000000 0.206408 0.750000
Si Si6 0.917031 0.595266 0.895389
O O1 0.260359 0.229796 0.279926
O O2 0.000000 0.330582 0.250000
O O3 0.908962 0.370848 0.345252
O O4 0.882207 0.129039 0.314750
O O5 0.979685 0.116346 0.707893
O O6 0.331777 0.081534 0.627571
O O7 0.045975 0.968028 0.618192
O O8 0.196742 0.543560 0.072998
O O9 0.937587 0.587448 0.044490
O O10 0.250000 0.750000 0.000000
O O11 0.323796 0.485517 0.979905
O O12 0.648529 0.767460 0.069341
#
# Coordination Sequence:
#
# PCOD9271772 Si02
#       6
#     8   8   8   8   4   8
#     4  10  20  39  66  89 129 170 210 271 323 378
#     4   9  18  38  60  85 125 162 208 270 310 378
#     4  10  20  36  61  90 124 163 212 268 317 381
#     4   9  19  37  60  85 123 168 205 258 325 372
#     4  10  20  38  62  88 122 166 216 256 326 388
#     4   9  19  37  64  87 125 173 210 256 328 382
#
# _framework density 23.823087000000001
#
# number of rings (size 3 to 8) (size 9 to 14) (size 15 to 20)
#    0.000    2.545    0.909    0.545    0.000    0.727 
#   11.455    0.000   16.000    0.000    0.000    0.000 
#    0.000    0.000    0.000    0.000    0.000    0.000 
#
# Total GULP energy -122599.160664 kJ/mol
# GULP energy per Si atom -5572.689121 kJ/mol
# Density = 2.376887 g / cm^3
# Si number density = 23.823087 Si / 1000 Ang^3
#
#
#
# Elastic Constant Matrix: (Units=GPa)
#
#
# Indices 1 2 3 4 5 6 
#
# 1 61.6404 17.4394 7.0731 0.0000 -16.3930 0.0000
# 2 17.4394 81.7524 75.5715 0.0000 0.1998 0.0000
# 3 7.0731 75.5715 151.4094 0.0000 1.7585 0.0000
# 4 0.0000 0.0000 0.0000 33.7114 0.0000 -11.9046
# 5 -16.3930 0.1998 1.7585 0.0000 29.9279 0.0000
# 6 0.0000 0.0000 0.0000 -11.9046 0.0000 21.3185
#
#
#
# Elastic Compliance Matrix: (Units=1/GPa)
#
#
# Indices 1 2 3 4 5 6 
#
# 1 0.020802 -0.006397 0.002090 0.000000 0.011314 0.000000
# 2 -0.006397 0.024685 -0.011988 0.000000 -0.002964 0.000000
# 3 0.002090 -0.011988 0.012485 0.000000 0.000491 0.000000
# 4 0.000000 0.000000 0.000000 0.036950 0.000000 0.020634
# 5 0.011314 -0.002964 0.000491 0.000000 0.039602 0.000000
# 6 0.000000 0.000000 0.000000 0.020634 0.000000 0.058430
#
#
# Mechanical properties :
#
#
# Convention : Reuss Voigt Hill
#
# Bulk Modulus (GPa) = 39.39763 54.99667 47.19715
# Shear Modulus (GPa) = 21.36719 29.97279 25.66999
#
# Velocity S-wave (km/s) = 2.99810 3.55088 3.28613
# Velocity P-wave (km/s) = 5.34399 6.32038 5.85258
#
# Compressibility (1/GPa) = 0.02538224
#
# Stress axis : x y z
#
# Youngs Moduli (GPa) = 48.07212 40.51026 80.09906
#
# Poissons Ratio (x) = 0.25913 -0.16737
# Poissons Ratio (y) = 0.30750 0.96019
# Poissons Ratio (z) = -0.10045 0.48562
#
# Static dielectric constant tensor:
#      x y z
#    x 1.969600 0.000000 0.035390 
#    y 0.000000 1.918370 0.000000 
#    z 0.035390 0.000000 2.008860 
# 
# From -- ./inp_files/306528.got.cif
#   From: 2010.05.17/outbox.cif.g08.bks.cpg/sg15_154_cif.got.tgz:306528.got - 2010.06.03 18:47:42.
