data_PCOD9271361
_publ_section_title
;
Structure prediction by ZEFSAII (Michael W. Deem and Ramdas Pophale) SiO2 
 PCOD9271361
Probable space group: C 2/C
;
_chemical_formula_sum "Si O2"
_cell_formula_units_Z 44
_cell_length_a 32.216128
_cell_length_b 17.928979
_cell_length_c 9.645820
_cell_angle_alpha 90.000000
_cell_angle_beta 153.093650
_cell_angle_gamma 90.000000
_cell_volume 2521.266944
_symmetry_space_group_name_H-M "C 2/C"
_symmetry_group_IT_number 15
_symmetry_cell_setting 'monoclinic'
loop_
_space_group_symop_operation_xyz
x,y,z
-x,y,1/2-z
-x,-y,-z
x,-y,1/2+z
1/2+x,1/2+y,z
1/2-x,1/2+y,1/2-z
1/2-x,1/2-y,-z
1/2+x,1/2-y,1/2+z
loop_
_atom_site_type_symbol
_atom_site_label
_atom_site_fract_x
_atom_site_fract_y
_atom_site_fract_z
Si Si1 0.519272 0.182951 0.144621
Si Si2 0.000000 0.945419 0.750000
Si Si3 0.590430 0.044424 0.720365
Si Si4 0.371695 0.585012 0.356438
Si Si5 0.167532 0.438304 0.150514
Si Si6 0.020155 0.150469 0.586090
O O1 0.500000 0.199390 0.250000
O O2 0.610472 0.131280 0.416732
O O3 0.524944 0.260888 0.083950
O O4 0.436759 0.130767 0.843466
O O5 0.990967 0.894952 0.587649
O O6 0.913415 0.001865 0.496150
O O7 0.612390 0.035872 0.623669
O O8 0.500000 0.000000 0.500000
O O9 0.668719 0.006459 0.045547
O O10 0.434706 0.627028 0.430308
O O11 0.391403 0.624540 0.561711
O O12 0.267748 0.584463 0.998644
#
# Coordination Sequence:
#
# PCOD9271361 Si02
#       6
#     8   4   8   8   8   8
#     4   9  17  38  55  78 108 146 182 210 270 330
#     4  10  22  36  56  78 110 142 182 220 282 314
#     4   9  19  36  56  79 111 144 179 219 267 320
#     4  10  20  36  59  78 107 142 184 225 262 326
#     4  10  21  33  59  86 106 140 188 224 261 321
#     4  10  20  38  56  77 111 145 176 222 280 318
#
# _framework density 17.451543999999998
#
# number of rings (size 3 to 8) (size 9 to 14) (size 15 to 20)
#    0.000    2.545    1.818    3.818    5.091    0.727 
#    6.545    0.000    0.000    2.182    0.000    0.000 
#    0.000    0.000    0.000    0.000    0.000    0.000 
#
# Total GULP energy -122585.217377 kJ/mol
# GULP energy per Si atom -5572.055335 kJ/mol
# Density = 1.741182 g / cm^3
# Si number density = 17.451544 Si / 1000 Ang^3
#
#
#
# Elastic Constant Matrix: (Units=GPa)
#
#
# Indices 1 2 3 4 5 6 
#
# 1 39.8885 31.3026 12.7646 0.0000 -17.4814 0.0000
# 2 31.3026 135.7208 33.1285 0.0000 -20.5098 0.0000
# 3 12.7646 33.1285 89.1997 0.0000 -2.1604 0.0000
# 4 0.0000 0.0000 0.0000 12.1753 0.0000 -8.6460
# 5 -17.4814 -20.5098 -2.1604 0.0000 22.3298 0.0000
# 6 0.0000 0.0000 0.0000 -8.6460 0.0000 15.6618
#
#
#
# Elastic Compliance Matrix: (Units=1/GPa)
#
#
# Indices 1 2 3 4 5 6 
#
# 1 0.042364 -0.004545 -0.003681 0.000000 0.028635 0.000000
# 2 -0.004545 0.009923 -0.002907 0.000000 0.005275 0.000000
# 3 -0.003681 -0.002907 0.012713 0.000000 -0.004322 0.000000
# 4 0.000000 0.000000 0.000000 0.135092 0.000000 0.074577
# 5 0.028635 0.005275 -0.004322 0.000000 0.071627 0.000000
# 6 0.000000 0.000000 0.000000 0.074577 0.000000 0.105019
#
#
# Mechanical properties :
#
#
# Convention : Reuss Voigt Hill
#
# Bulk Modulus (GPa) = 23.40093 46.57782 34.98938
# Shear Modulus (GPa) = 12.09924 22.54094 17.32009
#
# Velocity S-wave (km/s) = 2.63592 3.59782 3.15376
# Velocity P-wave (km/s) = 4.76470 6.63377 5.77534
#
# Compressibility (1/GPa) = 0.04273334
#
# Stress axis : x y z
#
# Youngs Moduli (GPa) = 23.60499 100.77485 78.66217
#
# Poissons Ratio (x) = 0.45804 0.28954
# Poissons Ratio (y) = 0.10729 0.22869
# Poissons Ratio (z) = 0.08688 0.29298
#
# Static dielectric constant tensor:
#      x y z
#    x 1.595440 0.000000 0.005880 
#    y 0.000000 1.599430 0.000000 
#    z 0.005880 0.000000 1.620000 
# 
# From -- ./inp_files/56001.got.cif
#   From: 2010.05.17/outbox.cif.g08.bks.cpg/sg15_29_cif.got.tgz:56001.got - 2010.06.03 18:47:42.
