data_PCOD9271244
_publ_section_title
;
Structure prediction by ZEFSAII (Michael W. Deem and Ramdas Pophale) SiO2 
 PCOD9271244
Probable space group: C 2/C
;
_chemical_formula_sum "Si O2"
_cell_formula_units_Z 40
_cell_length_a 19.301390
_cell_length_b 13.921525
_cell_length_c 18.414207
_cell_angle_alpha 90.000000
_cell_angle_beta 22.024987
_cell_angle_gamma 90.000000
_cell_volume 1855.548535
_symmetry_space_group_name_H-M "C 2/C"
_symmetry_group_IT_number 15
_symmetry_cell_setting 'monoclinic'
loop_
_space_group_symop_operation_xyz
x,y,z
-x,y,1/2-z
-x,-y,-z
x,-y,1/2+z
1/2+x,1/2+y,z
1/2-x,1/2+y,1/2-z
1/2-x,1/2-y,-z
1/2+x,1/2-y,1/2+z
loop_
_atom_site_type_symbol
_atom_site_label
_atom_site_fract_x
_atom_site_fract_y
_atom_site_fract_z
Si Si1 0.071642 0.513115 0.329822
Si Si2 0.778746 0.379696 0.424434
Si Si3 0.357025 0.658056 0.124886
Si Si4 0.635242 0.669089 0.212979
Si Si5 0.784043 0.620380 0.685029
O O1 0.127491 0.473701 0.197961
O O2 0.211230 0.595603 0.222102
O O3 0.116626 0.424603 0.340694
O O4 0.867179 0.554529 0.540418
O O5 0.568484 0.373494 0.599818
O O6 0.764283 0.375062 0.525321
O O7 0.868280 0.281694 0.305927
O O8 0.311739 0.656212 0.255041
O O9 0.344484 0.769815 0.116162
O O10 0.564232 0.619287 0.909987
#
# Coordination Sequence:
#
# PCOD9271244 Si02
#       5
#     8   8   8   8   8
#     4  11  23  37  58  89 128 162 214 250 303 377
#     4  10  21  37  57  88 124 168 194 247 310 383
#     4  12  20  39  60  90 126 163 204 258 315 357
#     4  10  20  36  58  84 128 161 193 247 318 363
#     4  11  23  35  58  90 129 161 202 260 307 364
#
# _framework density 21.556967
#
# number of rings (size 3 to 8) (size 9 to 14) (size 15 to 20)
#    0.000    1.200    6.000    0.600    0.000    0.000 
#    0.000    0.000    0.000    0.000    0.000   12.600 
#    0.000    0.000    0.000    0.000    0.000    0.000 
#
# Total GULP energy -111967.533354 kJ/mol
# GULP energy per Si atom -5598.376668 kJ/mol
# Density = 2.150790 g / cm^3
# Si number density = 21.556967 Si / 1000 Ang^3
#
#
#
# Elastic Constant Matrix: (Units=GPa)
#
#
# Indices 1 2 3 4 5 6 
#
# 1 57.7226 35.1084 46.3948 -0.0058 14.8543 0.0036
# 2 35.1084 121.1134 71.3910 -0.0058 13.1671 0.0055
# 3 46.3948 71.3910 134.8650 -0.0080 17.7320 0.0073
# 4 -0.0058 -0.0058 -0.0080 57.0324 0.0028 10.2259
# 5 14.8543 13.1671 17.7320 0.0028 40.9305 -0.0037
# 6 0.0036 0.0055 0.0073 10.2259 -0.0037 34.5570
#
#
#
# Elastic Compliance Matrix: (Units=1/GPa)
#
#
# Indices 1 2 3 4 5 6 
#
# 1 0.025877 -0.003023 -0.006569 0.000002 -0.005573 -0.000002
# 2 -0.003023 0.012408 -0.005459 0.000000 -0.000530 -0.000001
# 3 -0.006569 -0.005459 0.012746 0.000001 -0.001382 -0.000002
# 4 0.000002 0.000000 0.000001 0.018516 -0.000003 -0.005479
# 5 -0.005573 -0.000530 -0.001382 -0.000003 0.027223 0.000005
# 6 -0.000002 -0.000001 -0.000002 -0.005479 0.000005 0.030559
#
#
# Mechanical properties :
#
#
# Convention : Reuss Voigt Hill
#
# Bulk Modulus (GPa) = 47.77958 68.83216 58.30587
# Shear Modulus (GPa) = 30.41218 37.22442 33.81830
#
# Velocity S-wave (km/s) = 3.76011 4.15998 3.96509
# Velocity P-wave (km/s) = 6.40810 7.42116 6.93315
#
# Compressibility (1/GPa) = 0.02092944
#
# Stress axis : x y z
#
# Youngs Moduli (GPa) = 38.64447 80.59064 78.45723
#
# Poissons Ratio (x) = 0.24365 0.51537
# Poissons Ratio (y) = 0.11684 0.42827
# Poissons Ratio (z) = 0.25385 0.43992
#
# Static dielectric constant tensor:
#      x y z
#    x 1.778100 0.000000 -0.006710 
#    y 0.000000 1.775290 0.000000 
#    z -0.006710 0.000000 1.854240 
# 
# From -- ./inp_files/215670.got.cif
#   From: 2010.05.17/outbox.cif.g08.bks.cpg/sg15_108_cif.got.tgz:215670.got - 2010.06.03 18:47:42.
