data_PCOD9271803
_publ_section_title
;
Structure prediction by ZEFSAII (Michael W. Deem and Ramdas Pophale) SiO2 
 PCOD9271803
Probable space group: C 2/C
;
_chemical_formula_sum "Si O2"
_cell_formula_units_Z 44
_cell_length_a 18.269435
_cell_length_b 17.671682
_cell_length_c 8.074946
_cell_angle_alpha 90.000000
_cell_angle_beta 54.039593
_cell_angle_gamma 90.000000
_cell_volume 2110.173476
_symmetry_space_group_name_H-M "C 2/C"
_symmetry_group_IT_number 15
_symmetry_cell_setting 'monoclinic'
loop_
_space_group_symop_operation_xyz
x,y,z
-x,y,1/2-z
-x,-y,-z
x,-y,1/2+z
1/2+x,1/2+y,z
1/2-x,1/2+y,1/2-z
1/2-x,1/2-y,-z
1/2+x,1/2-y,1/2+z
loop_
_atom_site_type_symbol
_atom_site_label
_atom_site_fract_x
_atom_site_fract_y
_atom_site_fract_z
Si Si1 0.960327 0.420459 0.486292
Si Si2 0.500000 0.565980 0.750000
Si Si3 0.000000 0.167450 0.250000
Si Si4 0.148526 0.954844 0.514429
Si Si5 0.398759 0.695635 0.068854
Si Si6 0.250810 0.915714 0.681630
Si Si7 0.000000 0.683907 0.250000
O O1 0.852896 0.422133 0.600837
O O2 0.979824 0.363839 0.612588
O O3 0.000000 0.403477 0.250000
O O4 0.000000 0.500000 0.500000
O O5 0.579702 0.511273 0.704370
O O6 0.543775 0.621415 0.559468
O O7 0.920810 0.113519 0.434082
O O8 0.944134 0.213998 0.186289
O O9 0.229061 0.920804 0.516466
O O10 0.197653 0.011350 0.324190
O O11 0.297810 0.662894 0.202990
O O12 0.418091 0.760644 0.911792
#
# Coordination Sequence:
#
# PCOD9271803 Si02
#       7
#     8   4   4   8   8   8   4
#     4  12  26  47  70  92 121 167 220 272 316 367
#     4   8  14  28  50  88 132 168 198 246 318 384
#     4   9  16  29  57  96 135 166 204 246 319 388
#     4   9  16  28  55  92 130 166 204 258 309 370
#     4   9  19  36  60  92 129 168 205 252 322 387
#     4  10  20  36  61  93 128 164 216 264 311 372
#     4  11  26  45  69  92 127 172 206 262 329 384
#
# _framework density 20.851365999999999
#
# number of rings (size 3 to 8) (size 9 to 14) (size 15 to 20)
#    0.000    2.182    0.909    2.182    1.273    5.091 
#    0.000    0.909    4.000    0.000    0.000    0.000 
#    0.000    0.000    0.000    0.000    0.000    0.000 
#
# Total GULP energy -122502.412296 kJ/mol
# GULP energy per Si atom -5568.291468 kJ/mol
# Density = 2.080391 g / cm^3
# Si number density = 20.851366 Si / 1000 Ang^3
#
#
#
# Elastic Constant Matrix: (Units=GPa)
#
#
# Indices 1 2 3 4 5 6 
#
# 1 155.3323 52.9195 59.3403 0.0000 -15.4542 0.0000
# 2 52.9195 87.0085 38.4747 0.0000 9.4871 0.0000
# 3 59.3403 38.4747 83.9264 0.0000 2.1730 0.0000
# 4 0.0000 0.0000 0.0000 19.0102 0.0000 12.6880
# 5 -15.4542 9.4871 2.1730 0.0000 30.7209 0.0000
# 6 0.0000 0.0000 0.0000 12.6880 0.0000 15.3259
#
#
#
# Elastic Compliance Matrix: (Units=1/GPa)
#
#
# Indices 1 2 3 4 5 6 
#
# 1 0.011092 -0.005035 -0.005730 0.000000 0.007540 0.000000
# 2 -0.005035 0.017206 -0.004133 0.000000 -0.007554 0.000000
# 3 -0.005730 -0.004133 0.017935 0.000000 -0.002875 0.000000
# 4 0.000000 0.000000 0.000000 0.117564 0.000000 -0.097329
# 5 0.007540 -0.007554 -0.002875 0.000000 0.038880 0.000000
# 6 0.000000 0.000000 0.000000 -0.097329 0.000000 0.145826
#
#
# Mechanical properties :
#
#
# Convention : Reuss Voigt Hill
#
# Bulk Modulus (GPa) = 60.82861 69.74846 65.28854
# Shear Modulus (GPa) = 13.02834 24.71359 18.87097
#
# Velocity S-wave (km/s) = 2.50235 3.44645 3.01162
# Velocity P-wave (km/s) = 6.13065 7.02569 6.59337
#
# Compressibility (1/GPa) = 0.01643963
#
# Stress axis : x y z
#
# Youngs Moduli (GPa) = 90.15346 58.11786 55.75555
#
# Poissons Ratio (x) = 0.29261 0.31947
# Poissons Ratio (y) = 0.45391 0.23041
# Poissons Ratio (z) = 0.51657 0.24017
#
# Static dielectric constant tensor:
#      x y z
#    x 1.751900 0.000000 0.042570 
#    y 0.000000 1.763490 0.000000 
#    z 0.042570 0.000000 1.801090 
# 
# From -- ./inp_files/39108.got.cif
#   From: 2010.05.17/outbox.cif.g08.bks.cpg/sg15_20_cif.got.tgz:39108.got - 2010.06.03 18:47:42.
