data_PCOD9271266
_publ_section_title
;
Structure prediction by ZEFSAII (Michael W. Deem and Ramdas Pophale) SiO2 
 PCOD9271266
Probable space group: C 2/C
;
_chemical_formula_sum "Si O2"
_cell_formula_units_Z 56
_cell_length_a 14.806642
_cell_length_b 9.143212
_cell_length_c 18.339529
_cell_angle_alpha 90.000000
_cell_angle_beta 78.951593
_cell_angle_gamma 90.000000
_cell_volume 2436.792994
_symmetry_space_group_name_H-M "C 2/C"
_symmetry_group_IT_number 15
_symmetry_cell_setting 'monoclinic'
loop_
_space_group_symop_operation_xyz
x,y,z
-x,y,1/2-z
-x,-y,-z
x,-y,1/2+z
1/2+x,1/2+y,z
1/2-x,1/2+y,1/2-z
1/2-x,1/2-y,-z
1/2+x,1/2-y,1/2+z
loop_
_atom_site_type_symbol
_atom_site_label
_atom_site_fract_x
_atom_site_fract_y
_atom_site_fract_z
Si Si1 0.788374 0.448775 0.786858
Si Si2 0.744578 0.259641 0.086790
Si Si3 0.113101 0.350628 0.867636
Si Si4 0.432857 0.637781 0.512174
Si Si5 0.549534 0.161318 0.891078
Si Si6 0.631515 0.730212 0.239162
Si Si7 0.810412 0.072513 0.404392
O O1 0.792800 0.382873 0.866727
O O2 0.858557 0.366727 0.720905
O O3 0.690129 0.397064 0.770719
O O4 0.808167 0.620263 0.778072
O O5 0.847516 0.295427 0.098290
O O6 0.683529 0.401066 0.114599
O O7 0.750000 0.250000 0.000000
O O8 0.044444 0.485837 0.892213
O O9 0.206439 0.381956 0.900016
O O10 0.079296 0.197972 0.904571
O O11 0.500000 0.500000 0.500000
O O12 0.479437 0.765318 0.457040
O O13 0.339919 0.597154 0.483161
O O14 0.552386 0.219891 0.807363
O O15 0.624931 0.664566 0.159472
#
# Coordination Sequence:
#
# PCOD9271266 Si02
#       7
#     8   8   8   8   8   8   8
#     4   9  18  34  60  86 112 150 196 243 286 340
#     4  10  20  36  58  86 116 149 192 239 285 340
#     4   9  20  40  60  80 111 155 198 231 283 357
#     4  12  24  36  56  88 120 151 189 243 296 336
#     4   9  20  37  57  80 114 153 186 231 293 349
#     4   9  18  35  58  86 114 150 194 238 289 347
#     4  10  22  38  59  86 115 152 198 240 285 346
#
# _framework density 22.981023
#
# number of rings (size 3 to 8) (size 9 to 14) (size 15 to 20)
#    0.000    2.286    0.000    4.286    0.000   10.857 
#    0.000    1.429    0.000    6.000    0.000    0.000 
#    0.000    0.000    0.000    0.000    0.000    0.000 
#
# Total GULP energy -156385.680306 kJ/mol
# GULP energy per Si atom -5585.202868 kJ/mol
# Density = 2.292872 g / cm^3
# Si number density = 22.981023 Si / 1000 Ang^3
#
#
#
# Elastic Constant Matrix: (Units=GPa)
#
#
# Indices 1 2 3 4 5 6 
#
# 1 28.1318 26.1629 13.2831 0.0000 -2.5343 0.0000
# 2 26.1629 71.9945 21.2537 0.0000 -1.9635 0.0000
# 3 13.2831 21.2537 96.9913 0.0000 23.6038 0.0000
# 4 0.0000 0.0000 0.0000 46.2621 0.0000 -9.8449
# 5 -2.5343 -1.9635 23.6038 0.0000 21.3034 0.0000
# 6 0.0000 0.0000 0.0000 -9.8449 0.0000 18.2507
#
#
#
# Elastic Compliance Matrix: (Units=1/GPa)
#
#
# Indices 1 2 3 4 5 6 
#
# 1 0.056991 -0.018332 -0.006882 0.000000 0.012716 0.000000
# 2 -0.018332 0.021506 -0.002949 0.000000 0.003069 0.000000
# 3 -0.006882 -0.002949 0.016655 0.000000 -0.019544 0.000000
# 4 0.000000 0.000000 0.000000 0.024419 0.000000 0.013172
# 5 0.012716 0.003069 -0.019544 0.000000 0.070391 0.000000
# 6 0.000000 0.000000 0.000000 0.013172 0.000000 0.061898
#
#
# Mechanical properties :
#
#
# Convention : Reuss Voigt Hill
#
# Bulk Modulus (GPa) = 25.75602 35.39077 30.57340
# Shear Modulus (GPa) = 15.57003 26.25774 20.91389
#
# Velocity S-wave (km/s) = 2.60574 3.38388 3.01998
# Velocity P-wave (km/s) = 4.50389 5.54084 5.04906
#
# Compressibility (1/GPa) = 0.03882587
#
# Stress axis : x y z
#
# Youngs Moduli (GPa) = 17.54654 46.49849 60.04121
#
# Poissons Ratio (x) = 0.85242 0.41323
# Poissons Ratio (y) = 0.32167 0.17705
# Poissons Ratio (z) = 0.12076 0.13711
#
# Static dielectric constant tensor:
#      x y z
#    x 1.910030 0.000000 0.042180 
#    y 0.000000 1.834930 0.000000 
#    z 0.042180 0.000000 1.910050 
# 
# From -- ./inp_files/209543.got.cif
#   From: 2010.05.17/outbox.cif.g08.bks.cpg/sg15_105_cif.got.tgz:209543.got - 2010.06.03 18:47:42.
