data_PCOD9271243
_publ_section_title
;
Structure prediction by ZEFSAII (Michael W. Deem and Ramdas Pophale) SiO2 
 PCOD9271243
Probable space group: C 2/C
;
_chemical_formula_sum "Si O2"
_cell_formula_units_Z 36
_cell_length_a 25.654371
_cell_length_b 5.711256
_cell_length_c 9.954008
_cell_angle_alpha 90.000000
_cell_angle_beta 118.821890
_cell_angle_gamma 90.000000
_cell_volume 1277.779298
_symmetry_space_group_name_H-M "C 2/C"
_symmetry_group_IT_number 15
_symmetry_cell_setting 'monoclinic'
loop_
_space_group_symop_operation_xyz
x,y,z
-x,y,1/2-z
-x,-y,-z
x,-y,1/2+z
1/2+x,1/2+y,z
1/2-x,1/2+y,1/2-z
1/2-x,1/2-y,-z
1/2+x,1/2-y,1/2+z
loop_
_atom_site_type_symbol
_atom_site_label
_atom_site_fract_x
_atom_site_fract_y
_atom_site_fract_z
Si Si1 0.911226 0.073288 0.313955
Si Si2 0.704522 0.748027 0.566596
Si Si3 0.509349 0.186113 0.093098
Si Si4 0.000000 0.335277 0.250000
Si Si5 0.315256 0.250717 0.880236
O O1 0.955517 0.136879 0.494510
O O2 0.940936 0.197544 0.222896
O O3 0.852001 0.196478 0.289954
O O4 0.923969 0.799498 0.313689
O O5 0.750000 0.750000 0.500000
O O6 0.673918 0.491295 0.523839
O O7 0.745235 0.739621 0.753731
O O8 0.670965 0.998056 0.537374
O O9 0.500000 0.139833 0.250000
O O10 0.484188 0.901654 0.065339
#
# Coordination Sequence:
#
# PCOD9271243 Si02
#       5
#     8   8   8   4   8
#     4  10  21  38  57  89 123 164 204 258 308 374
#     4  10  22  44  64  94 126 162 211 268 319 381
#     4   9  20  37  56  80 125 159 202 254 301 368
#     4  10  20  36  58  84 124 158 206 250 304 376
#     4  10  23  40  67  92 128 162 211 265 317 377
#
# _framework density 28.17388
#
# number of rings (size 3 to 8) (size 9 to 14) (size 15 to 20)
#    0.000    2.222    0.000    1.333    6.222    1.778 
#   12.000    0.000    0.000    0.000    0.000    0.000 
#    0.000    0.000    0.000    0.000    0.000    0.000 
#
# Total GULP energy -100407.706596 kJ/mol
# GULP energy per Si atom -5578.205922 kJ/mol
# Density = 2.810975 g / cm^3
# Si number density = 28.173880 Si / 1000 Ang^3
#
#
#
# Elastic Constant Matrix: (Units=GPa)
#
#
# Indices 1 2 3 4 5 6 
#
# 1 123.5413 73.2251 40.8944 0.0000 -33.9982 0.0000
# 2 73.2251 236.8064 52.4362 0.0000 -29.8089 0.0000
# 3 40.8944 52.4362 136.6143 0.0000 -42.2434 0.0000
# 4 0.0000 0.0000 0.0000 65.4600 0.0000 -12.1447
# 5 -33.9982 -29.8089 -42.2434 0.0000 75.4954 0.0000
# 6 0.0000 0.0000 0.0000 -12.1447 0.0000 35.4607
#
#
#
# Elastic Compliance Matrix: (Units=1/GPa)
#
#
# Indices 1 2 3 4 5 6 
#
# 1 0.010999 -0.002722 -0.001268 0.000000 0.003169 0.000000
# 2 -0.002722 0.005352 -0.001167 0.000000 0.000235 0.000000
# 3 -0.001268 -0.001167 0.009466 0.000000 0.004265 0.000000
# 4 0.000000 0.000000 0.000000 0.016313 0.000000 0.005587
# 5 0.003169 0.000235 0.004265 0.000000 0.017152 0.000000
# 6 0.000000 0.000000 0.000000 0.005587 0.000000 0.030114
#
#
# Mechanical properties :
#
#
# Convention : Reuss Voigt Hill
#
# Bulk Modulus (GPa) = 64.49637 92.23036 78.36336
# Shear Modulus (GPa) = 47.67416 57.31031 52.49223
#
# Velocity S-wave (km/s) = 4.11803 4.51506 4.32111
# Velocity P-wave (km/s) = 6.74928 7.74521 7.26433
#
# Compressibility (1/GPa) = 0.01550475
#
# Stress axis : x y z
#
# Youngs Moduli (GPa) = 90.91334 186.83234 105.63877
#
# Poissons Ratio (x) = 0.50847 0.13395
# Poissons Ratio (y) = 0.24742 0.12330
# Poissons Ratio (z) = 0.11528 0.21806
#
# Static dielectric constant tensor:
#      x y z
#    x 2.124100 0.000000 0.056310 
#    y 0.000000 2.293380 0.000000 
#    z 0.056310 0.000000 2.316960 
# 
# From -- ./inp_files/120571.got.cif
#   From: 2010.05.17/outbox.cif.g08.bks.cpg/sg15_61_cif.got.tgz:120571.got - 2010.06.03 18:47:42.
