data_PCOD9271290
_publ_section_title
;
Structure prediction by ZEFSAII (Michael W. Deem and Ramdas Pophale) SiO2 
 PCOD9271290
Probable space group: C 2/C
;
_chemical_formula_sum "Si O2"
_cell_formula_units_Z 44
_cell_length_a 8.278946
_cell_length_b 19.704492
_cell_length_c 14.368732
_cell_angle_alpha 90.000000
_cell_angle_beta 62.985463
_cell_angle_gamma 90.000000
_cell_volume 2088.254663
_symmetry_space_group_name_H-M "C 2/C"
_symmetry_group_IT_number 15
_symmetry_cell_setting 'monoclinic'
loop_
_space_group_symop_operation_xyz
x,y,z
-x,y,1/2-z
-x,-y,-z
x,-y,1/2+z
1/2+x,1/2+y,z
1/2-x,1/2+y,1/2-z
1/2-x,1/2-y,-z
1/2+x,1/2-y,1/2+z
loop_
_atom_site_type_symbol
_atom_site_label
_atom_site_fract_x
_atom_site_fract_y
_atom_site_fract_z
Si Si1 0.500000 0.263224 0.750000
Si Si2 0.705808 0.135480 0.406782
Si Si3 0.115608 0.721777 0.913506
Si Si4 0.561742 0.039032 0.078565
Si Si5 0.617656 0.648406 0.540926
Si Si6 0.840468 0.055687 0.551399
O O1 0.658607 0.311759 0.672693
O O2 0.574512 0.221088 0.816333
O O3 0.613288 0.085043 0.355545
O O4 0.805532 0.092585 0.461448
O O5 0.957307 0.321878 0.503928
O O6 0.308537 0.690567 0.891371
O O7 0.110447 0.797661 0.957938
O O8 0.652855 0.983141 0.121175
O O9 0.727205 0.091530 0.016875
O O10 0.500000 0.000000 0.000000
O O11 0.424505 0.611562 0.597852
O O12 0.000000 0.000000 0.500000
#
# Coordination Sequence:
#
# PCOD9271290 Si02
#       6
#     4   8   8   8   8   8
#     4  12  22  34  58  88 122 158 200 260 292 352
#     4  10  20  36  58  87 119 154 202 242 298 361
#     4  10  21  36  56  85 120 155 195 244 303 353
#     4   8  16  31  56  90 103 146 198 234 289 357
#     4   9  17  33  56  87 114 149 197 234 293 368
#     4   9  16  31  62  84 107 152 191 235 298 356
#
# _framework density 21.070226000000002
#
# number of rings (size 3 to 8) (size 9 to 14) (size 15 to 20)
#    0.000    2.545    1.818    0.545    0.000    0.000 
#    0.000    8.182    0.000   13.091    0.000    0.000 
#    0.000    0.000    0.000    0.182    0.000    0.000 
#
# Total GULP energy -122584.588869 kJ/mol
# GULP energy per Si atom -5572.026767 kJ/mol
# Density = 2.102227 g / cm^3
# Si number density = 21.070226 Si / 1000 Ang^3
#
#
#
# Elastic Constant Matrix: (Units=GPa)
#
#
# Indices 1 2 3 4 5 6 
#
# 1 150.2201 56.3020 33.7753 0.0000 20.5303 0.0000
# 2 56.3020 88.1558 13.6910 0.0000 11.0305 0.0000
# 3 33.7753 13.6910 43.1778 0.0000 11.0874 0.0000
# 4 0.0000 0.0000 0.0000 -82.0465 0.0000 -11.2266
# 5 20.5303 11.0305 11.0874 0.0000 16.1069 0.0000
# 6 0.0000 0.0000 0.0000 -11.2266 0.0000 68.5385
#
#
#
# Elastic Compliance Matrix: (Units=1/GPa)
#
#
# Indices 1 2 3 4 5 6 
#
# 1 0.010615 -0.005187 -0.004976 0.000000 -0.006553 0.000000
# 2 -0.005187 0.015104 0.000275 0.000000 -0.003922 0.000000
# 3 -0.004976 0.000275 0.030836 0.000000 -0.015072 0.000000
# 4 0.000000 0.000000 0.000000 -0.011921 0.000000 -0.001953
# 5 -0.006553 -0.003922 -0.015072 0.000000 0.083499 0.000000
# 6 0.000000 0.000000 0.000000 -0.001953 0.000000 0.014270
#
#
# Mechanical properties :
#
#
# Convention : Reuss Voigt Hill
#
# Bulk Modulus (GPa) = 27.18937 54.34336 40.76637
# Shear Modulus (GPa) = 28.66326 12.37214 20.51770
#
# Velocity S-wave (km/s) = 3.69232 2.42582 3.12393
# Velocity P-wave (km/s) = 5.57762 5.80463 5.69225
#
# Compressibility (1/GPa) = 0.03677907
#
# Stress axis : x y z
#
# Youngs Moduli (GPa) = 94.20291 66.20671 32.42999
#
# Poissons Ratio (x) = 0.34341 0.16138
# Poissons Ratio (y) = 0.48862 -0.00892
# Poissons Ratio (z) = 0.46879 -0.01821
#
# Static dielectric constant tensor:
#      x y z
#    x 1.791480 0.000000 0.005360 
#    y 0.000000 1.840910 0.000000 
#    z 0.005360 0.000000 1.758280 
# 
# From -- ./inp_files/191267.got.cif
#   From: 2010.05.17/outbox.cif.g08.bks.cpg/sg15_96_cif.got.tgz:191267.got - 2010.06.03 18:47:42.
