data_PCOD9271597
_publ_section_title
;
Structure prediction by ZEFSAII (Michael W. Deem and Ramdas Pophale) SiO2 
 PCOD9271597
Probable space group: C 2/C
;
_chemical_formula_sum "Si O2"
_cell_formula_units_Z 52
_cell_length_a 11.461428
_cell_length_b 11.039501
_cell_length_c 28.852771
_cell_angle_alpha 90.000000
_cell_angle_beta 32.890361
_cell_angle_gamma 90.000000
_cell_volume 1982.449247
_symmetry_space_group_name_H-M "C 2/C"
_symmetry_group_IT_number 15
_symmetry_cell_setting 'monoclinic'
loop_
_space_group_symop_operation_xyz
x,y,z
-x,y,1/2-z
-x,-y,-z
x,-y,1/2+z
1/2+x,1/2+y,z
1/2-x,1/2+y,1/2-z
1/2-x,1/2-y,-z
1/2+x,1/2-y,1/2+z
loop_
_atom_site_type_symbol
_atom_site_label
_atom_site_fract_x
_atom_site_fract_y
_atom_site_fract_z
Si Si1 0.000000 0.012372 0.750000
Si Si2 0.203761 0.611034 0.044219
Si Si3 0.885303 0.016959 0.688581
Si Si4 0.487885 0.139151 0.303770
Si Si5 0.793487 0.098808 0.625583
Si Si6 0.297016 0.117368 0.004245
Si Si7 0.869702 0.650979 0.079246
O O1 0.203461 0.935993 0.661698
O O2 0.079495 0.068875 0.772198
O O3 0.123626 0.689947 0.114027
O O4 0.082831 0.665833 0.039697
O O5 0.454334 0.587665 0.969264
O O6 0.123960 0.470640 0.063100
O O7 0.789433 0.109306 0.682821
O O8 0.715793 0.907481 0.745455
O O9 0.093741 0.954624 0.595040
O O10 0.500000 0.201912 0.250000
O O11 0.339739 0.019433 0.342705
O O12 0.734943 0.223953 0.621538
O O13 0.440574 0.124080 0.002775
O O14 0.250000 0.250000 0.000000
#
# Coordination Sequence:
#
# PCOD9271597 Si02
#       7
#     4   8   8   8   8   8   8
#     4  10  20  38  60  84 122 166 206 258 316 376
#     4  11  21  40  61  90 128 166 208 266 320 369
#     4   9  20  39  60  89 125 161 212 259 315 373
#     4  10  20  36  60  87 121 165 206 256 316 372
#     4  10  22  37  63  90 125 163 213 257 318 384
#     4  10  22  40  64  95 124 168 218 260 313 390
#     4  11  22  37  64  91 125 165 212 260 318 380
#
# _framework density 26.230179
#
# number of rings (size 3 to 8) (size 9 to 14) (size 15 to 20)
#    0.000    1.846    1.538    2.308    3.231    2.462 
#    0.000    0.000    1.692    0.000    0.000    0.000 
#    0.000    0.000    0.000    0.000    0.000    0.000 
#
# Total GULP energy -145076.795214 kJ/mol
# GULP energy per Si atom -5579.876739 kJ/mol
# Density = 2.617048 g / cm^3
# Si number density = 26.230179 Si / 1000 Ang^3
#
#
#
# Elastic Constant Matrix: (Units=GPa)
#
#
# Indices 1 2 3 4 5 6 
#
# 1 128.4236 5.4021 43.6828 0.0000 32.9813 0.0001
# 2 5.4021 62.7082 -9.2945 0.0000 15.2744 0.0001
# 3 43.6828 -9.2945 99.2636 0.0004 18.8517 0.0000
# 4 0.0000 0.0000 0.0004 23.4998 0.0000 8.9664
# 5 32.9813 15.2744 18.8517 0.0000 65.3820 -0.0001
# 6 0.0001 0.0001 0.0000 8.9664 -0.0001 37.3361
#
#
#
# Elastic Compliance Matrix: (Units=1/GPa)
#
#
# Indices 1 2 3 4 5 6 
#
# 1 0.010079 -0.000474 -0.003740 0.000000 -0.003895 0.000000
# 2 -0.000474 0.017523 0.002731 0.000000 -0.004642 0.000000
# 3 -0.003740 0.002731 0.012419 0.000000 -0.002332 0.000000
# 4 0.000000 0.000000 0.000000 0.046846 0.000000 -0.011250
# 5 -0.003895 -0.004642 -0.002332 0.000000 0.019017 0.000000
# 6 0.000000 0.000000 0.000000 -0.011250 0.000000 0.029486
#
#
# Mechanical properties :
#
#
# Convention : Reuss Voigt Hill
#
# Bulk Modulus (GPa) = 26.98695 41.10847 34.04771
# Shear Modulus (GPa) = 33.18133 41.95057 37.56595
#
# Velocity S-wave (km/s) = 3.56055 4.00349 3.78850
# Velocity P-wave (km/s) = 5.21672 6.08908 5.66970
#
# Compressibility (1/GPa) = 0.03705495
#
# Stress axis : x y z
#
# Youngs Moduli (GPa) = 99.21400 57.06722 80.52371
#
# Poissons Ratio (x) = 0.02704 0.30117
# Poissons Ratio (y) = 0.04701 -0.21990
# Poissons Ratio (z) = 0.37108 -0.15585
#
# Static dielectric constant tensor:
#      x y z
#    x 2.118720 0.000000 0.036760 
#    y 0.000000 2.169430 0.000000 
#    z 0.036760 0.000000 2.138570 
# 
# From -- ./inp_files/310772.got.cif
#   From: 2010.05.17/outbox.cif.g08.bks.cpg/sg15_156_cif.got.tgz:310772.got - 2010.06.03 18:47:42.
