data_PCOD9271139
_publ_section_title
;
Structure prediction by ZEFSAII (Michael W. Deem and Ramdas Pophale) SiO2 
 PCOD9271139
Probable space group: C 2/C
;
_chemical_formula_sum "Si O2"
_cell_formula_units_Z 56
_cell_length_a 24.468525
_cell_length_b 18.232031
_cell_length_c 8.884527
_cell_angle_alpha 90.000000
_cell_angle_beta 44.773471
_cell_angle_gamma 90.000000
_cell_volume 2791.504214
_symmetry_space_group_name_H-M "C 2/C"
_symmetry_group_IT_number 15
_symmetry_cell_setting 'monoclinic'
loop_
_space_group_symop_operation_xyz
x,y,z
-x,y,1/2-z
-x,-y,-z
x,-y,1/2+z
1/2+x,1/2+y,z
1/2-x,1/2+y,1/2-z
1/2-x,1/2-y,-z
1/2+x,1/2-y,1/2+z
loop_
_atom_site_type_symbol
_atom_site_label
_atom_site_fract_x
_atom_site_fract_y
_atom_site_fract_z
Si Si1 0.395115 0.155720 0.323310
Si Si2 0.413781 0.701793 0.342281
Si Si3 0.357970 0.164744 0.745529
Si Si4 0.519628 0.924006 0.385854
Si Si5 0.204393 0.090419 0.998478
Si Si6 0.240732 0.063609 0.579260
Si Si7 0.330779 0.291851 0.319864
O O1 0.388783 0.151394 0.515491
O O2 0.326117 0.101557 0.396136
O O3 0.386628 0.242238 0.308664
O O4 0.469605 0.131881 0.083676
O O5 0.500000 0.701259 0.250000
O O6 0.394487 0.765142 0.258489
O O7 0.381781 0.625547 0.333661
O O8 0.357817 0.715124 0.595095
O O9 0.390719 0.095666 0.773992
O O10 0.265242 0.155420 0.922801
O O11 0.500000 0.921732 0.250000
O O12 0.500000 0.000000 0.500000
O O13 0.223890 0.067868 0.789493
O O14 0.223192 0.017567 0.056166
O O15 0.182663 0.123333 0.617326
O O16 0.250000 0.250000 0.500000
#
# Coordination Sequence:
#
# PCOD9271139 Si02
#       7
#     8   8   8   8   8   8   8
#     4  10  20  36  57  87 120 153 199 249 299 364
#     4  11  23  41  62  88 120 159 206 256 306 360
#     4  11  22  37  60  89 118 156 201 248 303 369
#     4  12  24  37  55  85 125 164 197 242 303 367
#     4  10  22  38  58  86 118 153 200 249 301 362
#     4   9  20  36  57  84 116 154 197 248 301 355
#     4   9  19  37  59  85 119 155 196 248 304 363
#
# _framework density 20.060867999999999
#
# number of rings (size 3 to 8) (size 9 to 14) (size 15 to 20)
#    0.000    1.714    0.000    5.571    0.000    6.857 
#    0.000    2.857    0.000    1.714    0.000    0.000 
#    0.000    0.000    0.000    0.000    0.000    0.000 
#
# Total GULP energy -156004.774925 kJ/mol
# GULP energy per Si atom -5571.599104 kJ/mol
# Density = 2.001521 g / cm^3
# Si number density = 20.060868 Si / 1000 Ang^3
#
#
#
# Elastic Constant Matrix: (Units=GPa)
#
#
# Indices 1 2 3 4 5 6 
#
# 1 119.0466 67.4222 30.0474 0.0000 -4.3807 0.0000
# 2 67.4222 118.2699 28.7872 0.0000 -6.5105 0.0000
# 3 30.0474 28.7872 69.3094 0.0000 -7.1990 0.0000
# 4 0.0000 0.0000 0.0000 24.0964 0.0000 4.3421
# 5 -4.3807 -6.5105 -7.1990 0.0000 24.1862 0.0000
# 6 0.0000 0.0000 0.0000 4.3421 0.0000 37.2653
#
#
#
# Elastic Compliance Matrix: (Units=1/GPa)
#
#
# Indices 1 2 3 4 5 6 
#
# 1 0.012884 -0.006669 -0.002848 0.000000 -0.000309 0.000000
# 2 -0.006669 0.012905 -0.002305 0.000000 0.001580 0.000000
# 3 -0.002848 -0.002305 0.017028 0.000000 0.003932 0.000000
# 4 0.000000 0.000000 0.000000 0.042390 0.000000 -0.004939
# 5 -0.000309 0.001580 0.003932 0.000000 0.042886 0.000000
# 6 0.000000 0.000000 0.000000 -0.004939 0.000000 0.027410
#
#
# Mechanical properties :
#
#
# Convention : Reuss Voigt Hill
#
# Bulk Modulus (GPa) = 52.15230 62.12659 57.13944
# Shear Modulus (GPa) = 26.94862 29.13418 28.04140
#
# Velocity S-wave (km/s) = 3.66914 3.81503 3.74279
# Velocity P-wave (km/s) = 6.63352 7.10227 6.87189
#
# Compressibility (1/GPa) = 0.01917461
#
# Stress axis : x y z
#
# Youngs Moduli (GPa) = 77.61300 77.48988 58.72530
#
# Poissons Ratio (x) = 0.51677 0.16725
# Poissons Ratio (y) = 0.51759 0.13535
# Poissons Ratio (z) = 0.22104 0.17860
#
# Static dielectric constant tensor:
#      x y z
#    x 1.756430 0.000000 -0.036740 
#    y 0.000000 1.751000 0.000000 
#    z -0.036740 0.000000 1.583580 
# 
# From -- ./inp_files/62673.got.cif
#   From: 2010.05.17/outbox.cif.g08.bks.cpg/sg15_32_cif.got.tgz:62673.got - 2010.06.03 18:47:42.
