data_PCOD9271246
_publ_section_title
;
Structure prediction by ZEFSAII (Michael W. Deem and Ramdas Pophale) SiO2 
 PCOD9271246
Probable space group: C 2/C
;
_chemical_formula_sum "Si O2"
_cell_formula_units_Z 64
_cell_length_a 9.077014
_cell_length_b 11.168968
_cell_length_c 28.372674
_cell_angle_alpha 90.000000
_cell_angle_beta 78.588739
_cell_angle_gamma 90.000000
_cell_volume 2819.585915
_symmetry_space_group_name_H-M "C 2/C"
_symmetry_group_IT_number 15
_symmetry_cell_setting 'monoclinic'
loop_
_space_group_symop_operation_xyz
x,y,z
-x,y,1/2-z
-x,-y,-z
x,-y,1/2+z
1/2+x,1/2+y,z
1/2-x,1/2+y,1/2-z
1/2-x,1/2-y,-z
1/2+x,1/2-y,1/2+z
loop_
_atom_site_type_symbol
_atom_site_label
_atom_site_fract_x
_atom_site_fract_y
_atom_site_fract_z
Si Si1 0.999972 0.858382 0.551786
Si Si2 0.890958 0.656390 0.802417
Si Si3 0.444417 0.065311 0.162832
Si Si4 0.605869 0.430914 0.697682
Si Si5 0.538163 0.329320 0.303203
Si Si6 0.455035 0.880795 0.477592
Si Si7 0.304216 0.171361 0.083659
Si Si8 0.165395 0.085184 0.941243
O O1 0.938073 0.723775 0.548016
O O2 0.132542 0.856839 0.581752
O O3 0.072039 0.896339 0.496316
O O4 0.880459 0.956186 0.573748
O O5 0.903959 0.793858 0.821430
O O6 0.716611 0.647118 0.798254
O O7 0.000000 0.651158 0.750000
O O8 0.949049 0.546037 0.831163
O O9 0.281924 0.051435 0.198979
O O10 0.503284 0.198208 0.172936
O O11 0.386819 0.078641 0.112251
O O12 0.500000 0.427291 0.750000
O O13 0.551072 0.550972 0.674101
O O14 0.500000 0.318565 0.250000
O O15 0.366901 0.823849 0.526883
O O16 0.337693 0.910879 0.444972
O O17 0.500000 0.000000 0.500000
O O18 0.346866 0.307261 0.095424
#
# Coordination Sequence:
#
# PCOD9271246 Si02
#       8
#     8   8   8   8   8   8   8   8
#     4   8  15  31  54  73  98 141 185 217 257 314
#     4  10  20  36  58  85 111 146 192 235 287 345
#     4  11  22  36  58  86 116 153 186 235 298 345
#     4   9  20  38  58  82 112 144 187 236 278 340
#     4  10  21  37  58  84 109 144 193 236 279 348
#     4   9  17  31  51  81 107 143 182 226 267 325
#     4   9  19  34  51  75 111 141 178 227 278 324
#     4   8  15  31  53  74  98 138 187 219 253 316
#
# _framework density 22.698367000000001
#
# number of rings (size 3 to 8) (size 9 to 14) (size 15 to 20)
#    0.000    2.750    0.000    3.375    0.000    5.500 
#    9.000    0.000    0.000    0.000    0.000    0.000 
#    0.000    0.000    0.000    0.000    0.000    0.000 
#
# Total GULP energy -178150.391326 kJ/mol
# GULP energy per Si atom -5567.199729 kJ/mol
# Density = 2.264670 g / cm^3
# Si number density = 22.698367 Si / 1000 Ang^3
#
#
#
# Elastic Constant Matrix: (Units=GPa)
#
#
# Indices 1 2 3 4 5 6 
#
# 1 52.2256 59.4252 12.8848 0.0000 13.8199 0.0000
# 2 59.4252 194.8052 10.4122 0.0000 22.1256 0.0000
# 3 12.8848 10.4122 65.4104 0.0000 12.0572 0.0000
# 4 0.0000 0.0000 0.0000 27.5105 0.0000 5.9225
# 5 13.8199 22.1256 12.0572 0.0000 18.4732 0.0000
# 6 0.0000 0.0000 0.0000 5.9225 0.0000 41.5807
#
#
#
# Elastic Compliance Matrix: (Units=1/GPa)
#
#
# Indices 1 2 3 4 5 6 
#
# 1 0.032734 -0.008405 -0.002787 0.000000 -0.012602 0.000000
# 2 -0.008405 0.008110 0.001132 0.000000 -0.004164 0.000000
# 3 -0.002787 0.001132 0.017645 0.000000 -0.010788 0.000000
# 4 0.000000 0.000000 0.000000 0.037500 0.000000 -0.005341
# 5 -0.012602 -0.004164 -0.010788 0.000000 0.075589 0.000000
# 6 0.000000 0.000000 0.000000 -0.005341 0.000000 0.024810
#
#
# Mechanical properties :
#
#
# Convention : Reuss Voigt Hill
#
# Bulk Modulus (GPa) = 26.06242 53.09840 39.58041
# Shear Modulus (GPa) = 21.80566 32.82748 27.31657
#
# Velocity S-wave (km/s) = 3.10283 3.80708 3.47286
# Velocity P-wave (km/s) = 4.93394 6.53980 5.79279
#
# Compressibility (1/GPa) = 0.03836942
#
# Stress axis : x y z
#
# Youngs Moduli (GPa) = 30.54921 123.30802 56.67187
#
# Poissons Ratio (x) = 1.03643 0.15795
# Poissons Ratio (y) = 0.25677 -0.06417
# Poissons Ratio (z) = 0.08514 -0.13963
#
# Static dielectric constant tensor:
#      x y z
#    x 1.832590 0.000000 0.002430 
#    y 0.000000 2.000750 0.000000 
#    z 0.002430 0.000000 1.779790 
# 
# From -- ./inp_files/307494.got.cif
#   From: 2010.05.17/outbox.cif.g08.bks.cpg/sg15_154_cif.got.tgz:307494.got - 2010.06.03 18:47:42.
