data_PCOD9271555
_publ_section_title
;
Structure prediction by ZEFSAII (Michael W. Deem and Ramdas Pophale) SiO2 
 PCOD9271555
Probable space group: C 2/C
;
_chemical_formula_sum "Si O2"
_cell_formula_units_Z 52
_cell_length_a 24.702619
_cell_length_b 7.536991
_cell_length_c 12.824959
_cell_angle_alpha 90.000000
_cell_angle_beta 54.432764
_cell_angle_gamma 90.000000
_cell_volume 1942.312214
_symmetry_space_group_name_H-M "C 2/C"
_symmetry_group_IT_number 15
_symmetry_cell_setting 'monoclinic'
loop_
_space_group_symop_operation_xyz
x,y,z
-x,y,1/2-z
-x,-y,-z
x,-y,1/2+z
1/2+x,1/2+y,z
1/2-x,1/2+y,1/2-z
1/2-x,1/2-y,-z
1/2+x,1/2-y,1/2+z
loop_
_atom_site_type_symbol
_atom_site_label
_atom_site_fract_x
_atom_site_fract_y
_atom_site_fract_z
Si Si1 0.000000 0.448726 0.250000
Si Si2 0.425842 0.742170 0.085798
Si Si3 0.366735 0.575234 0.341479
Si Si4 0.308538 0.535571 0.101124
Si Si5 0.737605 0.082782 0.875515
Si Si6 0.391100 0.881692 0.526987
Si Si7 0.062764 0.750931 0.323833
O O1 0.043612 0.582970 0.274070
O O2 0.951696 0.340058 0.380793
O O3 0.406011 0.716400 0.228433
O O4 0.368883 0.626528 0.094728
O O5 0.418858 0.942226 0.056681
O O6 0.497370 0.689458 0.960996
O O7 0.343902 0.604188 0.485037
O O8 0.297021 0.516680 0.367044
O O9 0.412188 0.400418 0.283123
O O10 0.273779 0.709212 0.087885
O O11 0.255533 0.437198 0.232607
O O12 0.671134 0.967879 0.963215
O O13 0.383380 0.765391 0.641533
#
# Coordination Sequence:
#
# PCOD9271555 Si02
#       7
#     4   8   8   8   8   8   8
#     4  10  20  36  60  86 110 146 190 234 288 340
#     4   9  20  37  55  83 117 145 188 240 285 334
#     4  11  21  36  59  84 114 155 191 230 290 344
#     4  10  21  38  57  82 115 154 192 236 286 339
#     4  10  21  38  57  84 117 149 195 240 281 338
#     4  10  21  38  58  82 115 150 190 240 283 333
#     4  11  20  37  61  85 114 151 191 237 284 339
#
# _framework density 26.772214999999999
#
# number of rings (size 3 to 8) (size 9 to 14) (size 15 to 20)
#    0.000    1.846    0.000    6.462    0.000    1.231 
#    0.000   17.692    0.000    0.923    0.000    0.000 
#    0.000    0.000    0.000    0.000    0.000    0.000 
#
# Total GULP energy -145586.566531 kJ/mol
# GULP energy per Si atom -5599.483328 kJ/mol
# Density = 2.671128 g / cm^3
# Si number density = 26.772215 Si / 1000 Ang^3
#
#
#
# Elastic Constant Matrix: (Units=GPa)
#
#
# Indices 1 2 3 4 5 6 
#
# 1 75.3699 -15.3119 0.1058 0.0000 -15.0016 0.0000
# 2 -15.3119 53.4357 -4.0898 0.0000 -10.1982 0.0000
# 3 0.1058 -4.0898 143.3714 0.0000 -8.1730 0.0000
# 4 0.0000 0.0000 0.0000 49.3899 0.0000 -14.4594
# 5 -15.0016 -10.1982 -8.1730 0.0000 46.3111 0.0000
# 6 0.0000 0.0000 0.0000 -14.4594 0.0000 10.4489
#
#
#
# Elastic Compliance Matrix: (Units=1/GPa)
#
#
# Indices 1 2 3 4 5 6 
#
# 1 0.015727 0.005779 0.000521 0.000000 0.006459 0.000000
# 2 0.005779 0.021752 0.001006 0.000000 0.006840 0.000000
# 3 0.000521 0.001006 0.007097 0.000000 0.001643 0.000000
# 4 0.000000 0.000000 0.000000 0.034036 0.000000 0.047099
# 5 0.006459 0.006840 0.001643 0.000000 0.025482 0.000000
# 6 0.000000 0.000000 0.000000 0.047099 0.000000 0.160880
#
#
# Mechanical properties :
#
#
# Convention : Reuss Voigt Hill
#
# Bulk Modulus (GPa) = 16.89488 25.95392 21.42440
# Shear Modulus (GPa) = 18.51232 40.66151 29.58692
#
# Velocity S-wave (km/s) = 2.63244 3.90140 3.32796
# Velocity P-wave (km/s) = 3.94512 5.47813 4.77357
#
# Compressibility (1/GPa) = 0.05918953
#
# Stress axis : x y z
#
# Youngs Moduli (GPa) = 63.58558 45.97190 140.90724
#
# Poissons Ratio (x) = -0.26568 -0.07348
# Poissons Ratio (y) = -0.36747 -0.14177
# Poissons Ratio (z) = -0.03316 -0.04625
#
# Static dielectric constant tensor:
#      x y z
#    x 2.146610 0.000000 0.118080 
#    y 0.000000 2.146770 0.000000 
#    z 0.118080 0.000000 2.102240 
# 
# From -- ./inp_files/121832.got.cif
#   From: 2010.05.17/outbox.cif.g08.bks.cpg/sg15_61_cif.got.tgz:121832.got - 2010.06.03 18:47:42.
