data_PCOD9271563
_publ_section_title
;
Structure prediction by ZEFSAII (Michael W. Deem and Ramdas Pophale) SiO2 
 PCOD9271563
Probable space group: C 2/C
;
_chemical_formula_sum "Si O2"
_cell_formula_units_Z 48
_cell_length_a 10.263902
_cell_length_b 17.057400
_cell_length_c 25.230079
_cell_angle_alpha 90.000000
_cell_angle_beta 146.136490
_cell_angle_gamma 90.000000
_cell_volume 2461.318521
_symmetry_space_group_name_H-M "C 2/C"
_symmetry_group_IT_number 15
_symmetry_cell_setting 'monoclinic'
loop_
_space_group_symop_operation_xyz
x,y,z
-x,y,1/2-z
-x,-y,-z
x,-y,1/2+z
1/2+x,1/2+y,z
1/2-x,1/2+y,1/2-z
1/2-x,1/2-y,-z
1/2+x,1/2-y,1/2+z
loop_
_atom_site_type_symbol
_atom_site_label
_atom_site_fract_x
_atom_site_fract_y
_atom_site_fract_z
Si Si1 0.500000 0.892357 0.250000
Si Si2 0.254773 0.975762 0.736180
Si Si3 0.878682 0.187056 0.951783
Si Si4 0.423673 0.128770 0.451865
Si Si5 0.802583 0.579776 0.055912
Si Si6 0.000000 0.953766 0.750000
Si Si7 0.812371 0.085245 0.025403
O O1 0.332543 0.840001 0.157326
O O2 0.654173 0.950937 0.266143
O O3 0.472086 0.922983 0.829413
O O4 0.125455 0.002269 0.746412
O O5 0.062163 0.927884 0.638070
O O6 0.925369 0.278612 0.961148
O O7 0.815874 0.161436 0.990156
O O8 0.104583 0.136316 0.011072
O O9 0.629053 0.103885 0.481233
O O10 0.389505 0.088792 0.497897
O O11 0.192859 0.100972 0.342382
O O12 0.723110 0.489638 0.024349
#
# Coordination Sequence:
#
# PCOD9271563 Si02
#       7
#     4   8   8   8   8   4   8
#     4  12  21  36  58  86 119 146 192 242 281 334
#     4  10  20  36  60  86 114 146 196 244 270 342
#     4  12  23  37  58  90 118 153 188 238 294 338
#     4  10  22  38  59  85 123 149 190 237 287 346
#     4  11  21  39  62  87 112 156 195 234 286 336
#     4   8  19  38  58  82 113 160 188 224 299 334
#     4  11  21  39  62  87 112 156 195 234 286 336
#
# _framework density 19.501742
#
# number of rings (size 3 to 8) (size 9 to 14) (size 15 to 20)
#    0.000    1.333    3.333    3.500    0.000    0.000 
#    0.000    0.000    0.000    4.000    0.000    0.000 
#    0.000    0.000    0.000    0.000    0.000    0.000 
#
# Total GULP energy -134057.052743 kJ/mol
# GULP energy per Si atom -5585.710531 kJ/mol
# Density = 1.945736 g / cm^3
# Si number density = 19.501742 Si / 1000 Ang^3
#
#
#
# Elastic Constant Matrix: (Units=GPa)
#
#
# Indices 1 2 3 4 5 6 
#
# 1 62.8712 5.1737 -2.1499 0.0001 -3.0926 0.0001
# 2 5.1737 70.9789 -13.1809 -0.0001 -9.7466 -0.0002
# 3 -2.1499 -13.1809 75.6924 0.0004 -5.5738 0.0004
# 4 0.0001 -0.0001 0.0004 -23.1008 0.0003 -38.1887
# 5 -3.0926 -9.7466 -5.5738 0.0003 19.6550 0.0002
# 6 0.0001 -0.0002 0.0004 -38.1887 0.0002 -5.4145
#
#
#
# Elastic Compliance Matrix: (Units=1/GPa)
#
#
# Indices 1 2 3 4 5 6 
#
# 1 0.016098 -0.000767 0.000492 0.000000 0.002292 0.000000
# 2 -0.000767 0.015982 0.003407 0.000000 0.008770 0.000000
# 3 0.000492 0.003407 0.014246 0.000000 0.005807 0.000000
# 4 0.000000 0.000000 0.000000 0.004061 0.000000 -0.028642
# 5 0.002292 0.008770 0.005807 0.000000 0.057234 0.000000
# 6 0.000000 0.000000 0.000000 -0.028642 0.000000 0.017326
#
#
# Mechanical properties :
#
#
# Convention : Reuss Voigt Hill
#
# Bulk Modulus (GPa) = 19.01479 21.02538 20.02009
# Shear Modulus (GPa) = 36.70722 12.87457 24.79090
#
# Velocity S-wave (km/s) = 4.34320 2.57218 3.56928
# Velocity P-wave (km/s) = 5.90954 4.43014 5.22249
#
# Compressibility (1/GPa) = 0.05259064
#
# Stress axis : x y z
#
# Youngs Moduli (GPa) = 62.11848 62.57186 70.19386
#
# Poissons Ratio (x) = 0.04801 -0.03457
# Poissons Ratio (y) = 0.04766 -0.23915
# Poissons Ratio (z) = -0.03059 -0.21318
#
# Static dielectric constant tensor:
#      x y z
#    x 1.726970 0.000000 -0.010360 
#    y 0.000000 1.616140 0.000000 
#    z -0.010360 0.000000 1.689370 
# 
# From -- ./inp_files/134910.got.cif
#   From: 2010.05.17/outbox.cif.g08.bks.cpg/sg15_68_cif.got.tgz:134910.got - 2010.06.03 18:47:42.
