data_PCOD9271583
_publ_section_title
;
Structure prediction by ZEFSAII (Michael W. Deem and Ramdas Pophale) SiO2 
 PCOD9271583
Probable space group: C 2/C
;
_chemical_formula_sum "Si O2"
_cell_formula_units_Z 32
_cell_length_a 14.706363
_cell_length_b 17.558319
_cell_length_c 5.288135
_cell_angle_alpha 90.000000
_cell_angle_beta 125.293640
_cell_angle_gamma 90.000000
_cell_volume 1114.521012
_symmetry_space_group_name_H-M "C 2/C"
_symmetry_group_IT_number 15
_symmetry_cell_setting 'monoclinic'
loop_
_space_group_symop_operation_xyz
x,y,z
-x,y,1/2-z
-x,-y,-z
x,-y,1/2+z
1/2+x,1/2+y,z
1/2-x,1/2+y,1/2-z
1/2-x,1/2-y,-z
1/2+x,1/2-y,1/2+z
loop_
_atom_site_type_symbol
_atom_site_label
_atom_site_fract_x
_atom_site_fract_y
_atom_site_fract_z
Si Si1 0.361231 0.537323 0.384832
Si Si2 0.572021 0.758722 0.618335
Si Si3 0.122257 0.582142 0.968343
Si Si4 0.279224 0.668521 0.927941
O O1 0.401386 0.523458 0.735772
O O2 0.226410 0.469013 0.711442
O O3 0.362385 0.382807 0.734384
O O4 0.500000 0.751080 0.750000
O O5 0.666151 0.693262 0.746882
O O6 0.612987 0.845328 0.641776
O O7 0.500000 0.745651 0.250000
O O8 0.164825 0.622082 0.776176
O O9 0.000000 0.547712 0.750000
O O10 0.250000 0.750000 0.000000
#
# Coordination Sequence:
#
# PCOD9271583 Si02
#       4
#     8   8   8   8
#     4  10  22  37  58  85 121 155 189 232 291 349
#     4  10  20  36  60  87 112 147 197 246 285 333
#     4   8  18  37  56  86 118 150 191 227 285 349
#     4   8  18  40  58  87 114 157 192 244 283 340
#
# _framework density 28.711887000000001
#
# number of rings (size 3 to 8) (size 9 to 14) (size 15 to 20)
#    1.500    1.500    0.000    0.000    0.000    7.000 
#    0.000    8.750    0.000    4.500    0.000    0.000 
#    0.000    0.000    0.000    0.000    0.000    0.000 
#
# Total GULP energy -89398.602485 kJ/mol
# GULP energy per Si atom -5587.412655 kJ/mol
# Density = 2.864654 g / cm^3
# Si number density = 28.711887 Si / 1000 Ang^3
#
#
#
# Elastic Constant Matrix: (Units=GPa)
#
#
# Indices 1 2 3 4 5 6 
#
# 1 137.0418 16.5471 67.7315 0.0000 -54.4076 0.0000
# 2 16.5471 132.1089 35.9131 0.0000 -33.5737 0.0000
# 3 67.7315 35.9131 175.7214 0.0000 -25.3325 0.0000
# 4 0.0000 0.0000 0.0000 39.2766 0.0000 -14.5698
# 5 -54.4076 -33.5737 -25.3325 0.0000 63.7472 0.0000
# 6 0.0000 0.0000 0.0000 -14.5698 0.0000 32.4888
#
#
#
# Elastic Compliance Matrix: (Units=1/GPa)
#
#
# Indices 1 2 3 4 5 6 
#
# 1 0.013381 0.002210 -0.004026 0.000000 0.010985 0.000000
# 2 0.002210 0.009346 -0.001889 0.000000 0.006058 0.000000
# 3 -0.004026 -0.001889 0.007415 0.000000 -0.001484 0.000000
# 4 0.000000 0.000000 0.000000 0.030541 0.000000 0.013696
# 5 0.010985 0.006058 -0.001484 0.000000 0.027663 0.000000
# 6 0.000000 0.000000 0.000000 0.013696 0.000000 0.036922
#
#
# Mechanical properties :
#
#
# Convention : Reuss Voigt Hill
#
# Bulk Modulus (GPa) = 43.99002 76.13949 60.06476
# Shear Modulus (GPa) = 35.64980 48.74788 42.19884
#
# Velocity S-wave (km/s) = 3.52751 4.12494 3.83787
# Velocity P-wave (km/s) = 5.65204 7.01875 6.37215
#
# Compressibility (1/GPa) = 0.02273243
#
# Stress axis : x y z
#
# Youngs Moduli (GPa) = 74.73330 107.00251 134.86979
#
# Poissons Ratio (x) = -0.23647 0.54295
# Poissons Ratio (y) = -0.16516 0.25471
# Poissons Ratio (z) = 0.30086 0.20208
#
# Static dielectric constant tensor:
#      x y z
#    x 2.396730 0.000000 0.106670 
#    y 0.000000 2.166950 0.000000 
#    z 0.106670 0.000000 2.282770 
# 
# From -- ./inp_files/4591.got.cif
#   From: 2010.05.17/outbox.cif.g08.bks.cpg/sg15_3_cif.got.tgz:4591.got - 2010.06.03 18:47:42.
