data_PCOD9271146
_publ_section_title
;
Structure prediction by ZEFSAII (Michael W. Deem and Ramdas Pophale) SiO2 
 PCOD9271146
Probable space group: C 2/C
;
_chemical_formula_sum "Si O2"
_cell_formula_units_Z 64
_cell_length_a 26.876509
_cell_length_b 6.749704
_cell_length_c 21.516607
_cell_angle_alpha 90.000000
_cell_angle_beta 34.381402
_cell_angle_gamma 90.000000
_cell_volume 2204.187336
_symmetry_space_group_name_H-M "C 2/C"
_symmetry_group_IT_number 15
_symmetry_cell_setting 'monoclinic'
loop_
_space_group_symop_operation_xyz
x,y,z
-x,y,1/2-z
-x,-y,-z
x,-y,1/2+z
1/2+x,1/2+y,z
1/2-x,1/2+y,1/2-z
1/2-x,1/2-y,-z
1/2+x,1/2-y,1/2+z
loop_
_atom_site_type_symbol
_atom_site_label
_atom_site_fract_x
_atom_site_fract_y
_atom_site_fract_z
Si Si1 0.645152 0.281318 0.613627
Si Si2 0.591793 0.260781 0.190900
Si Si3 0.495120 0.374303 0.403440
Si Si4 0.314048 0.864848 0.753272
Si Si5 0.061190 0.669530 0.825907
Si Si6 0.374666 0.838015 0.503863
Si Si7 0.181493 0.277666 0.480963
Si Si8 0.643668 0.485796 0.373498
O O1 0.750000 0.250000 0.500000
O O2 0.620705 0.508544 0.653597
O O3 0.601669 0.158088 0.714627
O O4 0.607052 0.234855 0.584931
O O5 0.500000 0.217919 0.250000
O O6 0.565605 0.244873 0.290545
O O7 0.664804 0.166871 0.069691
O O8 0.534332 0.598945 0.360194
O O9 0.406842 0.332460 0.451263
O O10 0.441187 0.375851 0.524525
O O11 0.363538 0.667769 0.676287
O O12 0.371315 0.064505 0.697372
O O13 0.233671 0.892721 0.786633
O O14 0.263871 0.843565 0.871433
O O15 0.965960 0.570384 0.933567
O O16 0.348705 0.666289 0.576258
O O17 0.306822 0.015452 0.567408
#
# Coordination Sequence:
#
# PCOD9271146 Si02
#       8
#     8   8   8   8   8   8   8   8
#     4  11  20  35  58  86 121 164 211 254 313 387
#     4   9  16  32  54  76 113 157 198 246 301 366
#     4   8  18  34  55  82 114 158 200 245 310 373
#     4  11  22  41  65  90 121 162 215 271 329 389
#     4  10  21  37  61  88 118 163 213 261 318 389
#     4  11  22  37  59  90 127 168 211 262 325 384
#     4  10  20  36  57  87 125 162 204 260 323 382
#     4  10  21  39  62  86 120 164 210 265 324 389
#
# _framework density 29.035643
#
# number of rings (size 3 to 8) (size 9 to 14) (size 15 to 20)
#    0.000    2.000    0.000    7.125    0.000    5.000 
#    0.000    8.750    0.000    6.000    0.000    0.000 
#    0.000    0.000    0.000    0.000    0.000    0.000 
#
# Total GULP energy -179089.047818 kJ/mol
# GULP energy per Si atom -5596.532744 kJ/mol
# Density = 2.896956 g / cm^3
# Si number density = 29.035643 Si / 1000 Ang^3
#
#
#
# Elastic Constant Matrix: (Units=GPa)
#
#
# Indices 1 2 3 4 5 6 
#
# 1 91.4013 16.6464 46.4445 0.0453 19.6831 -0.0207
# 2 16.6464 95.9073 42.3067 0.0332 7.8032 -0.0441
# 3 46.4445 42.3067 171.2395 0.0184 1.1216 -0.0095
# 4 0.0453 0.0332 0.0184 72.7876 0.0178 2.0033
# 5 19.6831 7.8032 1.1216 0.0178 61.0224 -0.0046
# 6 -0.0207 -0.0441 -0.0095 2.0033 -0.0046 44.5874
#
#
#
# Elastic Compliance Matrix: (Units=1/GPa)
#
#
# Indices 1 2 3 4 5 6 
#
# 1 0.013782 -0.000453 -0.003598 -0.000007 -0.004321 0.000005
# 2 -0.000453 0.011846 -0.002795 -0.000004 -0.001317 0.000011
# 3 -0.003598 -0.002795 0.007497 0.000001 0.001380 -0.000003
# 4 -0.000007 -0.000004 0.000001 0.013756 -0.000001 -0.000618
# 5 -0.004321 -0.001317 0.001380 -0.000001 0.017924 -0.000001
# 6 0.000005 0.000011 -0.000003 -0.000618 -0.000001 0.022456
#
#
# Mechanical properties :
#
#
# Convention : Reuss Voigt Hill
#
# Bulk Modulus (GPa) = 51.46055 63.26038 57.36047
# Shear Modulus (GPa) = 46.54192 52.55619 49.54906
#
# Velocity S-wave (km/s) = 4.00800 4.25909 4.13545
# Velocity P-wave (km/s) = 6.25943 6.78387 6.52692
#
# Compressibility (1/GPa) = 0.01943236
#
# Stress axis : x y z
#
# Youngs Moduli (GPa) = 72.55796 84.42001 133.38583
#
# Poissons Ratio (x) = 0.03828 0.47988
# Poissons Ratio (y) = 0.03291 0.37281
# Poissons Ratio (z) = 0.26104 0.23595
#
# Static dielectric constant tensor:
#      x y z
#    x 2.381620 -0.000050 -0.034630 
#    y -0.000050 2.278390 0.000090 
#    z -0.034630 0.000090 2.200290 
# 
# From -- ./inp_files/284414.got.cif
#   From: 2010.05.17/outbox.cif.g08.bks.cpg/sg15_143_cif.got.tgz:284414.got - 2010.06.03 18:47:42.
